data_PCOD9562833
_publ_section_title
;
Structure prediction by ZEFSAII (Michael W. Deem and Ramdas Pophale) SiO2 
 PCOD9562833
Probable space group: P 4/M C C
;
_chemical_formula_sum "Si O2"
_cell_formula_units_Z 56
_cell_length_a 12.269286
_cell_length_b 12.269286
_cell_length_c 16.235361
_cell_angle_alpha 90.000000
_cell_angle_beta 90.000000
_cell_angle_gamma 90.000000
_cell_volume 2443.996221
_symmetry_space_group_name_H-M "P 4/M C C"
_symmetry_group_IT_number 124
_symmetry_cell_setting 'tetragonal'
loop_
_space_group_symop_operation_xyz
x,y,z
-y,x,z
-x,-y,z
y,-x,z
x,-y,1/2-z
-x,y,1/2-z
y,x,1/2-z
-y,-x,1/2-z
-x,-y,-z
y,-x,-z
x,y,-z
-y,x,-z
-x,y,1/2+z
x,-y,1/2+z
-y,-x,1/2+z
y,x,1/2+z
loop_
_atom_site_type_symbol
_atom_site_label
_atom_site_fract_x
_atom_site_fract_y
_atom_site_fract_z
Si Si1 0.934424 0.722258 0.167196
Si Si2 0.555987 0.672409 0.500000
Si Si3 0.197549 0.489193 0.840251
Si Si4 0.153350 0.267367 0.594072
O O1 0.902222 0.594654 0.171848
O O2 0.788623 0.824601 0.351006
O O3 0.000000 0.751351 0.250000
O O4 0.022992 0.746237 0.097256
O O5 0.432364 0.630508 0.500000
O O6 0.566659 0.736367 0.585378
O O7 0.252010 0.500000 0.750000
O O8 0.171963 0.611263 0.870169
O O9 0.192205 0.259644 0.500000
#
# Coordination Sequence:
#
# PCOD9562833 Si02
#       4
#    16   8  16  16
#     4  12  27  48  76 114 156 203 266 327 402 475
#     4  11  26  46  73 112 158 208 265 331 398 476
#     4  12  26  46  78 110 155 205 267 329 399 471
#     4  12  27  47  77 114 155 207 260 328 397 477
#
# _framework density 22.913292999999999
#
# number of rings (size 3 to 8) (size 9 to 14) (size 15 to 20)
#    0.000    0.143    4.286    4.286    4.000    5.143 
#    0.000    4.286    0.000    0.000    0.000    0.000 
#    0.000    0.000    0.000    0.000    0.000    0.000 
#
# Total GULP energy -313350.632581 kJ/mol
# GULP energy per Si atom -5595.547010 kJ/mol
# Density = 2.286114 g / cm^3
# Si number density = 22.913293 Si / 1000 Ang^3
#
#
#
# Elastic Constant Matrix: (Units=GPa)
#
#
# Indices 1 2 3 4 5 6 
#
# 1 103.9978 49.7378 40.1435 0.0000 0.0000 0.0000
# 2 49.7378 103.9978 40.1435 0.0000 0.0000 0.0000
# 3 40.1435 40.1435 196.5938 0.0000 0.0000 0.0000
# 4 0.0000 0.0000 0.0000 34.3787 0.0000 0.0000
# 5 0.0000 0.0000 0.0000 0.0000 34.3787 0.0000
# 6 0.0000 0.0000 0.0000 0.0000 0.0000 42.6370
#
#
#
# Elastic Compliance Matrix: (Units=1/GPa)
#
#
# Indices 1 2 3 4 5 6 
#
# 1 0.012855 -0.005574 -0.001487 0.000000 0.000000 0.000000
# 2 -0.005574 0.012855 -0.001487 0.000000 0.000000 0.000000
# 3 -0.001487 -0.001487 0.005694 0.000000 0.000000 0.000000
# 4 0.000000 0.000000 0.000000 0.029088 0.000000 0.000000
# 5 0.000000 0.000000 0.000000 0.000000 0.029088 0.000000
# 6 0.000000 0.000000 0.000000 0.000000 0.000000 0.023454
#
#
# Mechanical properties :
#
#
# Convention : Reuss Voigt Hill
#
# Bulk Modulus (GPa) = 69.88616 73.84876 71.86746
# Shear Modulus (GPa) = 37.06463 40.58318 38.82391
#
# Velocity S-wave (km/s) = 4.02631 4.21308 4.12075
# Velocity P-wave (km/s) = 7.22367 7.48107 7.35349
#
# Compressibility (1/GPa) = 0.01430899
#
# Stress axis : x y z
#
# Youngs Moduli (GPa) = 77.78802 77.78802 175.62923
#
# Poissons Ratio (x) = 0.43362 0.26112
# Poissons Ratio (y) = 0.43362 0.26112
# Poissons Ratio (z) = 0.11565 0.11565
#
# Static dielectric constant tensor:
#      x y z
#    x 1.863280 0.000000 0.000000 
#    y 0.000000 1.863280 0.000000 
#    z 0.000000 0.000000 2.048890 
# 
# From -- ./inp_files/2891.got.cif
#   From: 2010.05.17/outbox.cif.g08.bks.cpg/sg124_2_cif.got.tgz:2891.got - 2010.05.20 11:49:17.
