data_PCOD9562455
_publ_section_title
;
Structure prediction by ZEFSAII (Michael W. Deem and Ramdas Pophale) SiO2 
 PCOD9562455
Probable space group: P 4/M C C
;
_chemical_formula_sum "Si O2"
_cell_formula_units_Z 84
_cell_length_a 11.578314
_cell_length_b 11.578314
_cell_length_c 27.934265
_cell_angle_alpha 90.000000
_cell_angle_beta 90.000000
_cell_angle_gamma 90.000000
_cell_volume 3744.793682
_symmetry_space_group_name_H-M "P 4/M C C"
_symmetry_group_IT_number 124
_symmetry_cell_setting 'tetragonal'
loop_
_space_group_symop_operation_xyz
x,y,z
-y,x,z
-x,-y,z
y,-x,z
x,-y,1/2-z
-x,y,1/2-z
y,x,1/2-z
-y,-x,1/2-z
-x,-y,-z
y,-x,-z
x,y,-z
-y,x,-z
-x,y,1/2+z
x,-y,1/2+z
-y,-x,1/2+z
y,x,1/2+z
loop_
_atom_site_type_symbol
_atom_site_label
_atom_site_fract_x
_atom_site_fract_y
_atom_site_fract_z
Si Si1 0.256546 0.112718 0.919864
Si Si2 0.368309 0.223497 0.221213
Si Si3 0.671882 0.866594 0.551287
Si Si4 0.500000 0.000000 0.750000
Si Si5 0.130026 0.506290 0.138164
Si Si6 0.885209 0.855565 0.321109
O O1 0.228246 0.228050 0.948147
O O2 0.379697 0.123386 0.893899
O O3 0.160524 0.110864 0.878293
O O4 0.266793 0.991720 0.946565
O O5 0.340146 0.340146 0.250000
O O6 0.464217 0.223481 0.178657
O O7 0.244927 0.195434 0.197460
O O8 0.401156 0.106421 0.249295
O O9 0.606664 0.860332 0.500000
O O10 0.596822 0.855090 0.600239
O O11 0.000000 0.500000 0.163211
O O12 0.018496 0.843533 0.306537
#
# Coordination Sequence:
#
# PCOD9562455 Si02
#       6
#    16  16  16   4  16  16
#     4  10  20  35  58  89 127 176 227 280 345 418
#     4  11  23  38  61  95 127 172 231 292 352 440
#     4  11  22  36  59  92 132 177 230 286 344 418
#     4  12  24  40  68  96 138 172 228 292 372 436
#     4   9  21  40  60  84 129 181 223 272 342 420
#     4  10  19  34  56  84 130 177 211 263 351 444
#
# _framework density 22.431142999999999
#
# number of rings (size 3 to 8) (size 9 to 14) (size 15 to 20)
#    0.000    1.714    2.857    1.714    0.000    7.619 
#    0.000    1.905    0.000    0.857    0.000    6.667 
#    0.000    0.000    0.000    0.000    0.000    0.000 
#
# Total GULP energy -467770.462225 kJ/mol
# GULP energy per Si atom -5568.695979 kJ/mol
# Density = 2.238009 g / cm^3
# Si number density = 22.431143 Si / 1000 Ang^3
#
#
#
# Elastic Constant Matrix: (Units=GPa)
#
#
# Indices 1 2 3 4 5 6 
#
# 1 61.9749 22.7723 41.7950 0.0000 0.0000 0.0000
# 2 22.7723 61.9749 41.7950 0.0000 0.0000 0.0000
# 3 41.7950 41.7950 101.7040 0.0000 0.0000 0.0000
# 4 0.0000 0.0000 0.0000 1.7984 0.0000 0.0000
# 5 0.0000 0.0000 0.0000 0.0000 1.7984 0.0000
# 6 0.0000 0.0000 0.0000 0.0000 0.0000 27.9980
#
#
#
# Elastic Compliance Matrix: (Units=1/GPa)
#
#
# Indices 1 2 3 4 5 6 
#
# 1 0.022676 -0.002833 -0.008154 0.000000 0.000000 0.000000
# 2 -0.002833 0.022676 -0.008154 0.000000 0.000000 0.000000
# 3 -0.008154 -0.008154 0.016534 0.000000 0.000000 0.000000
# 4 0.000000 0.000000 0.000000 0.556064 0.000000 0.000000
# 5 0.000000 0.000000 0.000000 0.000000 0.556064 0.000000
# 6 0.000000 0.000000 0.000000 0.000000 0.000000 0.035717
#
#
# Mechanical properties :
#
#
# Convention : Reuss Voigt Hill
#
# Bulk Modulus (GPa) = 42.36806 48.70870 45.53838
# Shear Modulus (GPa) = 3.98127 14.27170 9.12649
#
# Velocity S-wave (km/s) = 1.33369 2.52513 2.01928
# Velocity P-wave (km/s) = 4.61527 5.50124 5.07761
#
# Compressibility (1/GPa) = 0.02360268
#
# Stress axis : x y z
#
# Youngs Moduli (GPa) = 44.10011 44.10011 60.47968
#
# Poissons Ratio (x) = 0.12493 0.49317
# Poissons Ratio (y) = 0.12493 0.49317
# Poissons Ratio (z) = 0.35961 0.35961
#
# Static dielectric constant tensor:
#      x y z
#    x 1.835390 0.000000 0.000000 
#    y 0.000000 1.835390 0.000000 
#    z 0.000000 0.000000 1.881260 
# 
# From -- ./inp_files/7072.got.cif
#   From: 2010.05.17/outbox.cif.g08.bks.cpg/sg124_4_cif.got.tgz:7072.got - 2010.05.20 11:49:17.
