data_PCOD9562486
_publ_section_title
;
Structure prediction by ZEFSAII (Michael W. Deem and Ramdas Pophale) SiO2 
 PCOD9562486
Probable space group: P 4/M C C
;
_chemical_formula_sum "Si O2"
_cell_formula_units_Z 116
_cell_length_a 17.255801
_cell_length_b 17.255801
_cell_length_c 19.297713
_cell_angle_alpha 90.000000
_cell_angle_beta 90.000000
_cell_angle_gamma 90.000000
_cell_volume 5746.138512
_symmetry_space_group_name_H-M "P 4/M C C"
_symmetry_group_IT_number 124
_symmetry_cell_setting 'tetragonal'
loop_
_space_group_symop_operation_xyz
x,y,z
-y,x,z
-x,-y,z
y,-x,z
x,-y,1/2-z
-x,y,1/2-z
y,x,1/2-z
-y,-x,1/2-z
-x,-y,-z
y,-x,-z
x,y,-z
-y,x,-z
-x,y,1/2+z
x,-y,1/2+z
-y,-x,1/2+z
y,x,1/2+z
loop_
_atom_site_type_symbol
_atom_site_label
_atom_site_fract_x
_atom_site_fract_y
_atom_site_fract_z
Si Si1 0.692265 0.788120 0.206940
Si Si2 0.124459 0.002014 0.584226
Si Si3 0.246151 0.504654 0.918996
Si Si4 0.868593 0.597726 0.174256
Si Si5 0.862307 0.657652 0.575813
Si Si6 0.030634 0.299555 0.919044
Si Si7 0.500000 0.000000 0.250000
Si Si8 0.663692 0.435334 0.200774
O O1 0.766821 0.766821 0.250000
O O2 0.633168 0.834055 0.255521
O O3 0.710185 0.831753 0.137069
O O4 0.645054 0.709316 0.190165
O O5 0.124347 0.000772 0.500000
O O6 0.213616 0.007113 0.604745
O O7 0.073916 0.076561 0.606242
O O8 0.196478 0.444681 0.872545
O O9 0.188885 0.579772 0.920555
O O10 0.324959 0.525851 0.875662
O O11 0.259394 0.482817 0.000000
O O12 0.902618 0.665693 0.127208
O O13 0.940885 0.546245 0.199969
O O14 0.852055 0.693226 0.500000
O O15 0.953763 0.646702 0.585564
O O16 0.053072 0.296938 0.000000
O O17 0.703105 0.500000 0.250000
O O18 0.590276 0.409725 0.250000
#
# Coordination Sequence:
#
# PCOD9562486 Si02
#       8
#    16  16  16  16  16  16   4  16
#     4  10  21  36  56  80 113 151 193 233 284 359
#     4   8  15  30  51  73 104 152 201 244 294 355
#     4  10  20  36  57  84 119 159 194 238 303 370
#     4  12  21  35  56  82 115 153 194 247 298 362
#     4   9  19  35  54  77 112 154 193 241 301 356
#     4  10  20  32  50  83 117 146 194 251 299 357
#     4  12  24  36  58  84 104 154 216 252 292 364
#     4  10  19  37  61  84 111 148 196 237 278 348
#
# _framework density 20.187470999999999
#
# number of rings (size 3 to 8) (size 9 to 14) (size 15 to 20)
#    0.000    2.069    1.379    4.138    0.000    1.241 
#    0.000    6.207    0.000    0.000    0.000    0.966 
#    0.000    8.828    0.000    0.138    0.000    0.000 
#
# Total GULP energy -645772.547248 kJ/mol
# GULP energy per Si atom -5567.004718 kJ/mol
# Density = 2.014152 g / cm^3
# Si number density = 20.187471 Si / 1000 Ang^3
#
#
#
# Elastic Constant Matrix: (Units=GPa)
#
#
# Indices 1 2 3 4 5 6 
#
# 1 51.4478 18.8167 30.1498 0.0000 0.0000 0.0000
# 2 18.8167 51.4482 30.1497 0.0000 0.0000 0.0000
# 3 30.1498 30.1497 125.5561 0.0000 0.0000 0.0000
# 4 0.0000 0.0000 0.0000 38.7165 0.0000 0.0000
# 5 0.0000 0.0000 0.0000 0.0000 38.7170 0.0000
# 6 0.0000 0.0000 0.0000 0.0000 0.0000 19.8771
#
#
#
# Elastic Compliance Matrix: (Units=1/GPa)
#
#
# Indices 1 2 3 4 5 6 
#
# 1 0.024286 -0.006360 -0.004305 0.000000 0.000000 0.000000
# 2 -0.006360 0.024286 -0.004305 0.000000 0.000000 0.000000
# 3 -0.004305 -0.004305 0.010032 0.000000 0.000000 0.000000
# 4 0.000000 0.000000 0.000000 0.025829 0.000000 0.000000
# 5 0.000000 0.000000 0.000000 0.000000 0.025828 0.000000
# 6 0.000000 0.000000 0.000000 0.000000 0.000000 0.050309
#
#
# Mechanical properties :
#
#
# Convention : Reuss Voigt Hill
#
# Bulk Modulus (GPa) = 34.88503 42.96492 38.92498
# Shear Modulus (GPa) = 24.99216 29.41783 27.20500
#
# Velocity S-wave (km/s) = 3.52234 3.82151 3.67497
# Velocity P-wave (km/s) = 5.81899 6.38757 6.10990
#
# Compressibility (1/GPa) = 0.02866559
#
# Stress axis : x y z
#
# Youngs Moduli (GPa) = 41.17627 41.17666 99.68229
#
# Poissons Ratio (x) = 0.26187 0.42909
# Poissons Ratio (y) = 0.26187 0.42908
# Poissons Ratio (z) = 0.17725 0.17725
#
# Static dielectric constant tensor:
#      x y z
#    x 1.742480 0.000000 0.000000 
#    y 0.000000 1.742480 0.000000 
#    z 0.000000 0.000000 1.733790 
# 
# From -- ./inp_files/4421.got.cif
#   From: 2010.05.17/outbox.cif.g08.bks.cpg/sg124_3_cif.got.tgz:4421.got - 2010.05.20 11:49:17.
