data_PCOD9562781
_publ_section_title
;
Structure prediction by ZEFSAII (Michael W. Deem and Ramdas Pophale) SiO2 
 PCOD9562781
Probable space group: P 4/M C C
;
_chemical_formula_sum "Si O2"
_cell_formula_units_Z 88
_cell_length_a 15.693976
_cell_length_b 15.693976
_cell_length_c 18.616030
_cell_angle_alpha 90.000000
_cell_angle_beta 90.000000
_cell_angle_gamma 90.000000
_cell_volume 4585.144621
_symmetry_space_group_name_H-M "P 4/M C C"
_symmetry_group_IT_number 124
_symmetry_cell_setting 'tetragonal'
loop_
_space_group_symop_operation_xyz
x,y,z
-y,x,z
-x,-y,z
y,-x,z
x,-y,1/2-z
-x,y,1/2-z
y,x,1/2-z
-y,-x,1/2-z
-x,-y,-z
y,-x,-z
x,y,-z
-y,x,-z
-x,y,1/2+z
x,-y,1/2+z
-y,-x,1/2+z
y,x,1/2+z
loop_
_atom_site_type_symbol
_atom_site_label
_atom_site_fract_x
_atom_site_fract_y
_atom_site_fract_z
Si Si1 0.258986 0.978316 0.866946
Si Si2 0.862491 0.963392 0.500000
Si Si3 0.084566 0.443312 0.081126
Si Si4 0.788465 0.449260 0.181337
Si Si5 0.555676 0.369681 0.585032
Si Si6 0.728912 0.135475 0.726338
O O1 0.192944 0.953657 0.928360
O O2 0.351552 0.950826 0.895936
O O3 0.252756 0.924683 0.794188
O O4 0.247688 0.077359 0.843228
O O5 0.941391 0.899859 0.500000
O O6 0.151725 0.487469 0.134664
O O7 0.000000 0.500000 0.080423
O O8 0.120568 0.439665 0.000000
O O9 0.754257 0.500000 0.250000
O O10 0.710822 0.418112 0.131927
O O11 0.841402 0.369351 0.211791
O O12 0.608035 0.456235 0.599633
O O13 0.563650 0.351913 0.500000
O O14 0.780589 0.219412 0.750000
#
# Coordination Sequence:
#
# PCOD9562781 Si02
#       6
#    16   8  16  16  16  16
#     4  11  22  43  67  90 129 169 208 261 321 386
#     4  11  24  44  71 100 126 162 219 274 318 377
#     4  11  22  39  62  92 124 164 208 253 319 385
#     4  12  24  36  62  94 129 164 214 263 316 383
#     4   9  21  43  64  84 120 169 217 266 319 373
#     4  11  25  41  61  92 132 170 209 256 321 384
#
# _framework density 19.192415
#
# number of rings (size 3 to 8) (size 9 to 14) (size 15 to 20)
#    0.000    1.182    4.545    2.182    2.545    0.364 
#    1.636    0.909    0.000    4.364    0.000    0.000 
#    0.000    0.000    0.000    0.000    0.000    0.000 
#
# Total GULP energy -490967.198198 kJ/mol
# GULP energy per Si atom -5579.172707 kJ/mol
# Density = 1.914873 g / cm^3
# Si number density = 19.192415 Si / 1000 Ang^3
#
#
#
# Elastic Constant Matrix: (Units=GPa)
#
#
# Indices 1 2 3 4 5 6 
#
# 1 63.1575 7.8609 31.1242 0.0000 0.0000 0.0000
# 2 7.8609 63.1538 31.1240 0.0000 0.0000 0.0000
# 3 31.1242 31.1240 102.4084 0.0000 0.0000 0.0000
# 4 0.0000 0.0000 0.0000 29.9772 0.0000 0.0000
# 5 0.0000 0.0000 0.0000 0.0000 29.9801 0.0000
# 6 0.0000 0.0000 0.0000 0.0000 0.0000 23.6851
#
#
#
# Elastic Compliance Matrix: (Units=1/GPa)
#
#
# Indices 1 2 3 4 5 6 
#
# 1 0.018639 0.000555 -0.005833 0.000000 0.000000 0.000000
# 2 0.000555 0.018640 -0.005834 0.000000 0.000000 0.000000
# 3 -0.005833 -0.005834 0.013311 0.000000 0.000000 0.000000
# 4 0.000000 0.000000 0.000000 0.033359 0.000000 0.000000
# 5 0.000000 0.000000 0.000000 0.000000 0.033356 0.000000
# 6 0.000000 0.000000 0.000000 0.000000 0.000000 0.042221
#
#
# Mechanical properties :
#
#
# Convention : Reuss Voigt Hill
#
# Bulk Modulus (GPa) = 35.25427 40.99310 38.12368
# Shear Modulus (GPa) = 26.14992 27.30250 26.72621
#
# Velocity S-wave (km/s) = 3.69523 3.77579 3.73572
# Velocity P-wave (km/s) = 6.05103 6.35721 6.20601
#
# Compressibility (1/GPa) = 0.02836536
#
# Stress axis : x y z
#
# Youngs Moduli (GPa) = 53.65058 53.64699 75.12717
#
# Poissons Ratio (x) = -0.02976 0.43825
# Poissons Ratio (y) = -0.02977 0.43828
# Poissons Ratio (z) = 0.31297 0.31297
#
# Static dielectric constant tensor:
#      x y z
#    x 1.669380 0.000000 0.000000 
#    y 0.000000 1.669370 0.000000 
#    z 0.000000 0.000000 1.676990 
# 
# From -- ./inp_files/5175.got.cif
#   From: 2010.05.17/outbox.cif.g08.bks.cpg/sg124_3_cif.got.tgz:5175.got - 2010.05.20 11:49:17.
