data_PCOD9562138
_publ_section_title
;
Structure prediction by ZEFSAII (Michael W. Deem and Ramdas Pophale) SiO2 
 PCOD9562138
Probable space group: P 4/M M M
;
_chemical_formula_sum "Si O2"
_cell_formula_units_Z 72
_cell_length_a 22.029300
_cell_length_b 22.029300
_cell_length_c 7.646149
_cell_angle_alpha 90.000000
_cell_angle_beta 90.000000
_cell_angle_gamma 90.000000
_cell_volume 3710.600095
_symmetry_space_group_name_H-M "P 4/M M M"
_symmetry_group_IT_number 123
_symmetry_cell_setting 'tetragonal'
loop_
_space_group_symop_operation_xyz
x,y,z
-y,x,z
-x,-y,z
y,-x,z
x,-y,-z
-x,y,-z
y,x,-z
-y,-x,-z
-x,-y,-z
y,-x,-z
x,y,-z
-y,x,-z
-x,y,z
x,-y,z
-y,-x,z
y,x,z
loop_
_atom_site_type_symbol
_atom_site_label
_atom_site_fract_x
_atom_site_fract_y
_atom_site_fract_z
Si Si1 0.331950 0.098836 0.208908
Si Si2 0.000000 0.763471 0.785358
Si Si3 0.097833 0.000000 0.786568
Si Si4 0.235921 0.666471 0.789572
Si Si5 0.568670 0.000000 0.291495
Si Si6 0.665893 0.431388 0.289750
O O1 0.275198 0.058557 0.272762
O O2 0.334034 0.167226 0.278419
O O3 0.392162 0.058992 0.239862
O O4 0.324934 0.103163 0.000000
O O5 0.000000 0.832896 0.727175
O O6 0.000000 0.763506 0.000000
O O7 0.058892 0.058892 0.733015
O O8 0.098614 0.000000 0.000000
O O9 0.277656 0.722345 0.724396
O O10 0.272696 0.605212 0.749425
O O11 0.233474 0.671688 0.000000
O O12 0.500000 0.000000 0.221219
O O13 0.565442 0.000000 0.500000
O O14 0.660339 0.434075 0.500000
O O15 0.665510 0.500000 0.222457
O O16 0.610467 0.389534 0.223530
#
# Coordination Sequence:
#
# PCOD9562138 Si02
#       6
#    16   8   8  16   8  16
#     4   9  18  32  49  69  93 123 157 191 231 278
#     4   8  14  25  40  58  83 116 151 182 213 257
#     4   8  13  20  32  56  90 121 145 174 217 263
#     4   9  18  32  49  70  96 124 155 192 233 279
#     4  10  21  35  50  69  93 122 157 198 241 281
#     4   9  18  32  49  69  93 121 153 189 229 274
#
# _framework density 19.403870000000001
#
# number of rings (size 3 to 8) (size 9 to 14) (size 15 to 20)
#    0.000    3.111    0.000    1.333    0.000    4.222 
#    0.000   10.000    0.000    0.000    0.000    3.111 
#    0.000    0.000    0.000   19.556    0.000   17.778 
#
# Total GULP energy -401442.000298 kJ/mol
# GULP energy per Si atom -5575.583337 kJ/mol
# Density = 1.935971 g / cm^3
# Si number density = 19.403870 Si / 1000 Ang^3
#
#
#
# Elastic Constant Matrix: (Units=GPa)
#
#
# Indices 1 2 3 4 5 6 
#
# 1 214.6633 118.6877 3.4366 0.0000 0.0000 0.0000
# 2 118.6877 214.6633 3.4366 0.0000 0.0000 0.0000
# 3 3.4366 3.4366 36.5259 0.0000 0.0000 0.0000
# 4 0.0000 0.0000 0.0000 -350.6022 0.0000 0.0000
# 5 0.0000 0.0000 0.0000 0.0000 -350.6022 0.0000
# 6 0.0000 0.0000 0.0000 0.0000 0.0000 6.5737
#
#
#
# Elastic Compliance Matrix: (Units=1/GPa)
#
#
# Indices 1 2 3 4 5 6 
#
# 1 0.006712 -0.003707 -0.000283 0.000000 0.000000 0.000000
# 2 -0.003707 0.006712 -0.000283 0.000000 0.000000 0.000000
# 3 -0.000283 -0.000283 0.027431 0.000000 0.000000 0.000000
# 4 0.000000 0.000000 0.000000 -0.002852 0.000000 0.000000
# 5 0.000000 0.000000 0.000000 0.000000 -0.002852 0.000000
# 6 0.000000 0.000000 0.000000 0.000000 0.000000 0.152122
#
#
# Mechanical properties :
#
#
# Convention : Reuss Voigt Hill
#
# Bulk Modulus (GPa) = 30.94896 79.66378 55.30637
# Shear Modulus (GPa) = 24.20272 -116.24004 -46.01866
#
# Velocity S-wave (km/s) = 3.53557 -7.74827 -4.87521
# Velocity P-wave (km/s) = 5.71415 6.23721 1.76795
#
# Compressibility (1/GPa) = 0.03231126
#
# Stress axis : x y z
#
# Youngs Moduli (GPa) = 148.97595 148.97595 36.45500
#
# Poissons Ratio (x) = 0.55223 0.01031
# Poissons Ratio (y) = 0.55223 0.01031
# Poissons Ratio (z) = 0.04213 0.04213
#
# Static dielectric constant tensor:
#      x y z
#    x 1.673580 0.000000 0.000000 
#    y 0.000000 1.673580 0.000000 
#    z 0.000000 0.000000 1.731400 
# 
# From -- ./inp_files/1232.got.cif
#   From: 2010.05.17/outbox.cif.g08.bks.cpg/sg123_1_cif.got.tgz:1232.got - 2010.05.20 11:43:04.
