data_PCOD9562560
_publ_section_title
;
Structure prediction by ZEFSAII (Michael W. Deem and Ramdas Pophale) SiO2 
 PCOD9562560
Probable space group: P 4/M C C
;
_chemical_formula_sum "Si O2"
_cell_formula_units_Z 64
_cell_length_a 17.544369
_cell_length_b 17.544369
_cell_length_c 11.013290
_cell_angle_alpha 90.000000
_cell_angle_beta 90.000000
_cell_angle_gamma 90.000000
_cell_volume 3389.944447
_symmetry_space_group_name_H-M "P 4/M C C"
_symmetry_group_IT_number 124
_symmetry_cell_setting 'tetragonal'
loop_
_space_group_symop_operation_xyz
x,y,z
-y,x,z
-x,-y,z
y,-x,z
x,-y,1/2-z
-x,y,1/2-z
y,x,1/2-z
-y,-x,1/2-z
-x,-y,-z
y,-x,-z
x,y,-z
-y,x,-z
-x,y,1/2+z
x,-y,1/2+z
-y,-x,1/2+z
y,x,1/2+z
loop_
_atom_site_type_symbol
_atom_site_label
_atom_site_fract_x
_atom_site_fract_y
_atom_site_fract_z
Si Si1 0.583531 0.402516 0.500000
Si Si2 0.427867 0.287184 0.807221
Si Si3 0.661790 0.905523 0.500000
Si Si4 0.339768 0.912995 0.500000
Si Si5 0.830580 0.494553 0.000000
Si Si6 0.296643 0.172047 0.749293
O O1 0.603078 0.491002 0.500000
O O2 0.612472 0.352338 0.612782
O O3 0.500000 0.329467 0.750000
O O4 0.475209 0.225118 0.888140
O O5 0.364938 0.234676 0.745008
O O6 0.576151 0.870014 0.500000
O O7 0.697768 0.876339 0.626257
O O8 0.667326 0.996587 0.500000
O O9 0.429563 0.894218 0.500000
O O10 0.307455 0.874353 0.624062
O O11 0.218519 0.218519 0.750000
#
# Coordination Sequence:
#
# PCOD9562560 Si02
#       6
#     8  16   8   8   8  16
#     4  10  24  37  49  70 102 152 218 284 328 346
#     4  10  20  35  54  76 109 148 208 250 304 356
#     4  12  21  38  64  87 125 160 195 246 304 359
#     4  10  23  40  58  93 125 156 199 246 296 367
#     4   9  19  35  53  83 115 150 194 240 298 364
#     4  11  24  39  61  89 121 162 202 245 297 362
#
# _framework density 18.879366000000001
#
# number of rings (size 3 to 8) (size 9 to 14) (size 15 to 20)
#    0.000    1.625    2.500    2.625    3.500    0.000 
#    0.000    3.750    0.000    0.000    0.000    0.000 
#    0.000   35.000    0.000    0.000    0.000    0.000 
#
# Total GULP energy -356975.549705 kJ/mol
# GULP energy per Si atom -5577.742964 kJ/mol
# Density = 1.883640 g / cm^3
# Si number density = 18.879366 Si / 1000 Ang^3
#
#
#
# Elastic Constant Matrix: (Units=GPa)
#
#
# Indices 1 2 3 4 5 6 
#
# 1 115.4328 33.3784 47.4656 0.0000 0.0000 0.0000
# 2 33.3784 115.4328 47.4656 0.0000 0.0000 0.0000
# 3 47.4656 47.4656 127.7130 0.0000 0.0000 0.0000
# 4 0.0000 0.0000 0.0000 24.8040 0.0000 0.0000
# 5 0.0000 0.0000 0.0000 0.0000 24.8040 0.0000
# 6 0.0000 0.0000 0.0000 0.0000 0.0000 18.1396
#
#
#
# Elastic Compliance Matrix: (Units=1/GPa)
#
#
# Indices 1 2 3 4 5 6 
#
# 1 0.010498 -0.001689 -0.003274 0.000000 0.000000 0.000000
# 2 -0.001689 0.010498 -0.003274 0.000000 0.000000 0.000000
# 3 -0.003274 -0.003274 0.010263 0.000000 0.000000 0.000000
# 4 0.000000 0.000000 0.000000 0.040316 0.000000 0.000000
# 5 0.000000 0.000000 0.000000 0.000000 0.040316 0.000000
# 6 0.000000 0.000000 0.000000 0.000000 0.000000 0.055128
#
#
# Mechanical properties :
#
#
# Convention : Reuss Voigt Hill
#
# Bulk Modulus (GPa) = 67.63464 68.35533 67.99499
# Shear Modulus (GPa) = 26.53634 28.90078 27.71856
#
# Velocity S-wave (km/s) = 3.75317 3.91681 3.83586
# Velocity P-wave (km/s) = 7.39487 7.53260 7.46405
#
# Compressibility (1/GPa) = 0.01478532
#
# Stress axis : x y z
#
# Youngs Moduli (GPa) = 95.25923 95.25923 97.43327
#
# Poissons Ratio (x) = 0.16093 0.31897
# Poissons Ratio (y) = 0.16093 0.31897
# Poissons Ratio (z) = 0.31185 0.31185
#
# Static dielectric constant tensor:
#      x y z
#    x 1.626910 0.000000 0.000000 
#    y 0.000000 1.626910 0.000000 
#    z 0.000000 0.000000 1.845110 
# 
# From -- ./inp_files/2260.got.cif
#   From: 2010.05.17/outbox.cif.g08.bks.cpg/sg124_2_cif.got.tgz:2260.got - 2010.05.20 11:49:17.
