data_PCOD9562845
_publ_section_title
;
Structure prediction by ZEFSAII (Michael W. Deem and Ramdas Pophale) SiO2 
 PCOD9562845
Probable space group: P 4/M C C
;
_chemical_formula_sum "Si O2"
_cell_formula_units_Z 96
_cell_length_a 21.673100
_cell_length_b 21.673100
_cell_length_c 14.004348
_cell_angle_alpha 90.000000
_cell_angle_beta 90.000000
_cell_angle_gamma 90.000000
_cell_volume 6578.168047
_symmetry_space_group_name_H-M "P 4/M C C"
_symmetry_group_IT_number 124
_symmetry_cell_setting 'tetragonal'
loop_
_space_group_symop_operation_xyz
x,y,z
-y,x,z
-x,-y,z
y,-x,z
x,-y,1/2-z
-x,y,1/2-z
y,x,1/2-z
-y,-x,1/2-z
-x,-y,-z
y,-x,-z
x,y,-z
-y,x,-z
-x,y,1/2+z
x,-y,1/2+z
-y,-x,1/2+z
y,x,1/2+z
loop_
_atom_site_type_symbol
_atom_site_label
_atom_site_fract_x
_atom_site_fract_y
_atom_site_fract_z
Si Si1 0.420960 0.938773 0.615535
Si Si2 0.799363 0.099878 0.772503
Si Si3 0.902367 0.029685 0.114766
Si Si4 0.314762 0.100408 0.612092
Si Si5 0.447706 0.918217 0.115886
Si Si6 0.046505 0.713778 0.887751
O O1 0.419189 0.937256 0.500000
O O2 0.482491 0.902502 0.646591
O O3 0.351418 0.922673 0.644129
O O4 0.434925 0.010076 0.640757
O O5 0.846000 0.154001 0.750000
O O6 0.840633 0.052287 0.834528
O O7 0.742153 0.127714 0.831528
O O8 0.768394 0.068913 0.679679
O O9 0.960468 0.074573 0.138981
O O10 0.894388 0.031791 0.000000
O O11 0.311334 0.114606 0.500000
O O12 0.384472 0.114717 0.645960
O O13 0.300954 0.026462 0.621628
O O14 0.447912 0.915632 0.000000
O O15 0.058407 0.725988 0.000000
#
# Coordination Sequence:
#
# PCOD9562845 Si02
#       6
#    16  16  16  16  16  16
#     4   7  10  21  42  65  85 109 130 147 179 231
#     4  12  25  33  47  63  81 105 135 168 210 261
#     4   9  21  41  59  69  73  84 118 174 235 284
#     4   9  18  32  47  65  85 103 126 164 207 251
#     4   7  10  20  42  66  86 105 126 150 186 234
#     4   9  19  33  47  63  87 110 131 158 194 244
#
# _framework density 14.593728
#
# number of rings (size 3 to 8) (size 9 to 14) (size 15 to 20)
#    0.000    3.167    0.000    4.500    4.667    1.333 
#    0.000    1.667    0.000    4.000    0.000    1.167 
#    0.000    0.000    0.000    0.000    0.000    0.000 
#
# Total GULP energy -535130.003630 kJ/mol
# GULP energy per Si atom -5574.270871 kJ/mol
# Density = 1.456051 g / cm^3
# Si number density = 14.593728 Si / 1000 Ang^3
#
#
#
# Elastic Constant Matrix: (Units=GPa)
#
#
# Indices 1 2 3 4 5 6 
#
# 1 79.2037 26.6827 21.1101 0.0000 0.0000 0.0000
# 2 26.6827 79.2056 21.1106 0.0000 0.0000 0.0000
# 3 21.1101 21.1106 53.9407 0.0000 0.0000 0.0000
# 4 0.0000 0.0000 0.0000 151.5287 0.0000 0.0000
# 5 0.0000 0.0000 0.0000 0.0000 151.4770 0.0000
# 6 0.0000 0.0000 0.0000 0.0000 0.0000 5.4450
#
#
#
# Elastic Compliance Matrix: (Units=1/GPa)
#
#
# Indices 1 2 3 4 5 6 
#
# 1 0.015115 -0.003925 -0.004379 0.000000 0.000000 0.000000
# 2 -0.003925 0.015115 -0.004379 0.000000 0.000000 0.000000
# 3 -0.004379 -0.004379 0.021967 0.000000 0.000000 0.000000
# 4 0.000000 0.000000 0.000000 0.006599 0.000000 0.000000
# 5 0.000000 0.000000 0.000000 0.000000 0.006602 0.000000
# 6 0.000000 0.000000 0.000000 0.000000 0.000000 0.183656
#
#
# Mechanical properties :
#
#
# Convention : Reuss Voigt Hill
#
# Bulk Modulus (GPa) = 37.27242 38.90629 38.08935
# Shear Modulus (GPa) = 17.64518 71.25325 44.44921
#
# Velocity S-wave (km/s) = 3.48097 6.99504 5.52484
# Velocity P-wave (km/s) = 6.46156 9.58948 8.17649
#
# Compressibility (1/GPa) = 0.02682949
#
# Stress axis : x y z
#
# Youngs Moduli (GPa) = 66.15897 66.16042 45.52337
#
# Poissons Ratio (x) = 0.25966 0.19937
# Poissons Ratio (y) = 0.25966 0.19937
# Poissons Ratio (z) = 0.28974 0.28975
#
# Static dielectric constant tensor:
#      x y z
#    x 1.548290 0.000000 0.000000 
#    y 0.000000 1.548310 0.000000 
#    z 0.000000 0.000000 1.571360 
# 
# From -- ./inp_files/3394.got.cif
#   From: 2010.05.17/outbox.cif.g08.bks.cpg/sg124_2_cif.got.tgz:3394.got - 2010.05.20 11:49:17.
