data_PCOD9562541
_publ_section_title
;
Structure prediction by ZEFSAII (Michael W. Deem and Ramdas Pophale) SiO2 
 PCOD9562541
Probable space group: P 4/M C C
;
_chemical_formula_sum "Si O2"
_cell_formula_units_Z 96
_cell_length_a 23.940860
_cell_length_b 23.940860
_cell_length_c 8.982853
_cell_angle_alpha 90.000000
_cell_angle_beta 90.000000
_cell_angle_gamma 90.000000
_cell_volume 5148.654941
_symmetry_space_group_name_H-M "P 4/M C C"
_symmetry_group_IT_number 124
_symmetry_cell_setting 'tetragonal'
loop_
_space_group_symop_operation_xyz
x,y,z
-y,x,z
-x,-y,z
y,-x,z
x,-y,1/2-z
-x,y,1/2-z
y,x,1/2-z
-y,-x,1/2-z
-x,-y,-z
y,-x,-z
x,y,-z
-y,x,-z
-x,y,1/2+z
x,-y,1/2+z
-y,-x,1/2+z
y,x,1/2+z
loop_
_atom_site_type_symbol
_atom_site_label
_atom_site_fract_x
_atom_site_fract_y
_atom_site_fract_z
Si Si1 0.742200 0.177496 0.319931
Si Si2 0.055685 0.419116 0.831678
Si Si3 0.284237 0.058278 0.672196
Si Si4 0.742771 0.359117 0.831307
Si Si5 0.833541 0.547185 0.337045
Si Si6 0.648079 0.563108 0.181420
O O1 0.799102 0.200899 0.250000
O O2 0.742388 0.176810 0.500000
O O3 0.730839 0.115320 0.258492
O O4 0.695160 0.223732 0.272772
O O5 0.056648 0.351722 0.830179
O O6 0.110544 0.438984 0.749000
O O7 0.000000 0.437135 0.750000
O O8 0.054758 0.438502 0.000000
O O9 0.265216 0.060506 0.500000
O O10 0.265872 0.000000 0.750000
O O11 0.794647 0.400363 0.846320
O O12 0.697057 0.393131 0.735185
O O13 0.720169 0.348197 0.000000
O O14 0.800588 0.500000 0.250000
O O15 0.847269 0.526673 0.500000
O O16 0.655284 0.500000 0.250000
O O17 0.592026 0.592026 0.250000
O O18 0.646844 0.560430 0.000000
#
# Coordination Sequence:
#
# PCOD9562541 Si02
#       6
#    16  16  16  16  16  16
#     4  11  22  37  58  88 123 158 199 244 290 344
#     4  10  20  34  53  75 102 139 185 235 288 340
#     4  10  20  35  57  83 114 154 197 241 293 347
#     4  10  22  40  61  87 118 154 192 235 288 345
#     4  11  22  36  53  76 106 142 188 238 287 340
#     4  12  26  45  69  94 121 150 187 231 286 352
#
# _framework density 18.645645999999999
#
# number of rings (size 3 to 8) (size 9 to 14) (size 15 to 20)
#    0.000    1.333    1.667    4.500    0.000    7.167 
#    0.000    2.500    0.000    0.000    0.000    0.000 
#    0.000    0.333    0.000    3.333    0.000    2.000 
#
# Total GULP energy -535508.123607 kJ/mol
# GULP energy per Si atom -5578.209621 kJ/mol
# Density = 1.860321 g / cm^3
# Si number density = 18.645646 Si / 1000 Ang^3
#
#
#
# Elastic Constant Matrix: (Units=GPa)
#
#
# Indices 1 2 3 4 5 6 
#
# 1 90.8390 61.1329 51.6602 0.0000 0.0000 0.0000
# 2 61.1329 90.8448 51.6625 0.0000 0.0000 0.0000
# 3 51.6602 51.6625 141.3097 0.0000 0.0000 0.0000
# 4 0.0000 0.0000 0.0000 20.8145 0.0000 0.0000
# 5 0.0000 0.0000 0.0000 0.0000 20.8133 0.0000
# 6 0.0000 0.0000 0.0000 0.0000 0.0000 21.3621
#
#
#
# Elastic Compliance Matrix: (Units=1/GPa)
#
#
# Indices 1 2 3 4 5 6 
#
# 1 0.021209 -0.012452 -0.003201 0.000000 0.000000 0.000000
# 2 -0.012452 0.021208 -0.003201 0.000000 0.000000 0.000000
# 3 -0.003201 -0.003201 0.009417 0.000000 0.000000 0.000000
# 4 0.000000 0.000000 0.000000 0.048044 0.000000 0.000000
# 5 0.000000 0.000000 0.000000 0.000000 0.048046 0.000000
# 6 0.000000 0.000000 0.000000 0.000000 0.000000 0.046812
#
#
# Mechanical properties :
#
#
# Convention : Reuss Voigt Hill
#
# Bulk Modulus (GPa) = 70.79537 72.43385 71.61461
# Shear Modulus (GPa) = 21.08349 23.16716 22.12532
#
# Velocity S-wave (km/s) = 3.36630 3.52873 3.44847
# Velocity P-wave (km/s) = 7.29113 7.45215 7.37208
#
# Compressibility (1/GPa) = 0.01412522
#
# Stress axis : x y z
#
# Youngs Moduli (GPa) = 47.15024 47.15291 106.18692
#
# Poissons Ratio (x) = 0.58713 0.33993
# Poissons Ratio (y) = 0.58710 0.33994
# Poissons Ratio (z) = 0.15094 0.15095
#
# Static dielectric constant tensor:
#      x y z
#    x 1.675910 0.000000 0.000000 
#    y 0.000000 1.675910 0.000000 
#    z 0.000000 0.000000 1.689830 
# 
# From -- ./inp_files/1335.got.cif
#   From: 2010.05.17/outbox.cif.g08.bks.cpg/sg124_1_cif.got.tgz:1335.got - 2010.05.20 11:49:17.
