data_PCOD9562998
_publ_section_title
;
Structure prediction by ZEFSAII (Michael W. Deem and Ramdas Pophale) SiO2 
 PCOD9562998
Probable space group: P 4/N B M
;
_chemical_formula_sum "Si O2"
_cell_formula_units_Z 112
_cell_length_a 16.001671
_cell_length_b 16.001671
_cell_length_c 21.135320
_cell_angle_alpha 90.000000
_cell_angle_beta 90.000000
_cell_angle_gamma 90.000000
_cell_volume 5411.772127
_symmetry_space_group_name_H-M "P 4/N B M"
_symmetry_group_IT_number 125
_space_group.IT_coordinate_system_code '2'
_symmetry_cell_setting 'tetragonal'
loop_
_space_group_symop_operation_xyz
x,y,z
1/2-y,x,z
1/2-x,1/2-y,z
y,1/2-x,z
x,1/2-y,-z
1/2-x,y,-z
y,x,-z
1/2-y,1/2-x,-z
-x,-y,-z
1/2+y,-x,-z
1/2+x,1/2+y,-z
-y,1/2+x,-z
-x,1/2+y,z
1/2+x,-y,z
-y,-x,z
1/2+y,1/2+x,z
loop_
_atom_site_type_symbol
_atom_site_label
_atom_site_fract_x
_atom_site_fract_y
_atom_site_fract_z
Si Si1 0.175236 0.540026 0.701725
Si Si2 0.533017 0.173688 0.951157
Si Si3 0.632433 0.671260 0.891423
Si Si4 0.335781 0.356494 0.575211
Si Si5 0.079559 0.058199 0.769585
Si Si6 0.616490 0.247025 0.169611
Si Si7 0.519052 0.346464 0.351589
O O1 0.101687 0.601687 0.680131
O O2 0.132443 0.455373 0.725504
O O3 0.211704 0.575755 0.767563
O O4 0.247720 0.534795 0.650321
O O5 0.598589 0.098589 0.963792
O O6 0.437239 0.145290 0.942778
O O7 0.557311 0.213614 0.882902
O O8 0.540893 0.250000 0.000000
O O9 0.727625 0.638629 0.896258
O O10 0.596443 0.633292 0.825974
O O11 0.237331 0.361723 0.593403
O O12 0.353257 0.353257 0.500000
O O13 0.372504 0.439210 0.606626
O O14 0.132724 0.003020 0.721382
O O15 0.000646 0.999355 0.791084
O O16 0.680944 0.319057 0.188824
O O17 0.671996 0.171996 0.140214
O O18 0.599176 0.400825 0.369656
#
# Coordination Sequence:
#
# PCOD9562998 Si02
#       7
#    16  16  16  16  16  16  16
#     4  10  20  34  54  82 118 157 194 234 288 356
#     4  11  23  40  62  86 112 144 191 249 303 357
#     4  11  24  41  60  83 115 153 189 230 291 365
#     4   9  19  37  59  80 106 146 197 251 303 350
#     4  10  20  35  57  85 115 147 190 242 289 338
#     4   9  17  31  53  79 108 145 188 237 294 351
#     4  11  21  32  52  84 120 155 192 237 288 344
#
# _framework density 20.695623999999999
#
# number of rings (size 3 to 8) (size 9 to 14) (size 15 to 20)
#    0.000    1.857    0.000    5.143    0.000    4.714 
#    0.000    5.000    0.000    0.857    0.000    0.000 
#    0.000    0.000    0.000    0.000    0.000    0.000 
#
# Total GULP energy -624990.478324 kJ/mol
# GULP energy per Si atom -5580.272128 kJ/mol
# Density = 2.064852 g / cm^3
# Si number density = 20.695624 Si / 1000 Ang^3
#
#
#
# Elastic Constant Matrix: (Units=GPa)
#
#
# Indices 1 2 3 4 5 6 
#
# 1 104.3173 54.5014 31.6561 0.0000 0.0000 0.0000
# 2 54.5014 104.3173 31.6561 0.0000 0.0000 0.0000
# 3 31.6561 31.6561 29.6429 0.0000 0.0000 0.0000
# 4 0.0000 0.0000 0.0000 28.4142 0.0000 0.0000
# 5 0.0000 0.0000 0.0000 0.0000 28.4142 0.0000
# 6 0.0000 0.0000 0.0000 0.0000 0.0000 20.2421
#
#
#
# Elastic Compliance Matrix: (Units=1/GPa)
#
#
# Indices 1 2 3 4 5 6 
#
# 1 0.015519 -0.004555 -0.011709 0.000000 0.000000 0.000000
# 2 -0.004555 0.015519 -0.011709 0.000000 0.000000 0.000000
# 3 -0.011709 -0.011709 0.058743 0.000000 0.000000 0.000000
# 4 0.000000 0.000000 0.000000 0.035194 0.000000 0.000000
# 5 0.000000 0.000000 0.000000 0.000000 0.035194 0.000000
# 6 0.000000 0.000000 0.000000 0.000000 0.000000 0.049402
#
#
# Mechanical properties :
#
#
# Convention : Reuss Voigt Hill
#
# Bulk Modulus (GPa) = 29.55428 52.65607 41.10518
# Shear Modulus (GPa) = 18.06400 23.44504 20.75452
#
# Velocity S-wave (km/s) = 2.95759 3.36943 3.17021
# Velocity P-wave (km/s) = 5.09653 6.37462 5.77107
#
# Compressibility (1/GPa) = 0.03383604
#
# Stress axis : x y z
#
# Youngs Moduli (GPa) = 64.43703 64.43703 17.02337
#
# Poissons Ratio (x) = 0.29351 0.19932
# Poissons Ratio (y) = 0.29351 0.19932
# Poissons Ratio (z) = 0.75448 0.75448
#
# Static dielectric constant tensor:
#      x y z
#    x 1.796090 0.000000 0.000000 
#    y 0.000000 1.796090 0.000000 
#    z 0.000000 0.000000 1.743230 
# 
# From -- ./inp_files/6252.got.cif
#   From: 2010.05.17/outbox.cif.g08.bks.cpg/sg125_4_cif.got.tgz:6252.got - 2010.05.20 11:54:10.
