data_PCOD9562622
_publ_section_title
;
Structure prediction by ZEFSAII (Michael W. Deem and Ramdas Pophale) SiO2 
 PCOD9562622
Probable space group: P 4/M C C
;
_chemical_formula_sum "Si O2"
_cell_formula_units_Z 88
_cell_length_a 14.247491
_cell_length_b 14.247491
_cell_length_c 24.148975
_cell_angle_alpha 90.000000
_cell_angle_beta 90.000000
_cell_angle_gamma 90.000000
_cell_volume 4902.024579
_symmetry_space_group_name_H-M "P 4/M C C"
_symmetry_group_IT_number 124
_symmetry_cell_setting 'tetragonal'
loop_
_space_group_symop_operation_xyz
x,y,z
-y,x,z
-x,-y,z
y,-x,z
x,-y,1/2-z
-x,y,1/2-z
y,x,1/2-z
-y,-x,1/2-z
-x,-y,-z
y,-x,-z
x,y,-z
-y,x,-z
-x,y,1/2+z
x,-y,1/2+z
-y,-x,1/2+z
y,x,1/2+z
loop_
_atom_site_type_symbol
_atom_site_label
_atom_site_fract_x
_atom_site_fract_y
_atom_site_fract_z
Si Si1 0.324706 0.262606 0.500000
Si Si2 0.342380 0.500000 0.750000
Si Si3 0.104939 0.244720 0.227920
Si Si4 0.802983 0.690886 0.123397
Si Si5 0.513786 0.109596 0.610001
Si Si6 0.782507 0.630689 0.688121
Si Si7 0.542576 0.778974 0.000000
O O1 0.291940 0.212196 0.442636
O O2 0.438233 0.264742 0.500000
O O3 0.290101 0.369615 0.500000
O O4 0.411269 0.411269 0.750000
O O5 0.274517 0.464102 0.701727
O O6 0.146298 0.146298 0.250000
O O7 0.122183 0.253237 0.161968
O O8 0.174662 0.321145 0.257150
O O9 0.000000 0.259175 0.250000
O O10 0.839496 0.583872 0.126063
O O11 0.704227 0.718710 0.153536
O O12 0.595739 0.129591 0.653310
O O13 0.547109 0.156717 0.553650
O O14 0.500000 0.000000 0.603427
#
# Coordination Sequence:
#
# PCOD9562622 Si02
#       7
#     8   8  16  16  16  16   8
#     4  10  20  39  60  82 118 161 202 246 290 342
#     4  11  22  34  49  74 110 154 197 232 278 339
#     4  10  21  37  59  85 113 146 188 237 302 366
#     4  10  21  37  57  82 115 154 194 242 298 351
#     4  11  21  34  56  83 111 144 193 244 291 348
#     4  11  20  35  56  77 115 152 187 239 295 354
#     4  10  21  37  56  80 114 156 198 247 291 342
#
# _framework density 17.951767
#
# number of rings (size 3 to 8) (size 9 to 14) (size 15 to 20)
#    0.000    1.545    1.818    5.182    0.000    0.364 
#    0.000    1.818    0.000    0.000    0.000    0.000 
#    0.000    5.818    0.000    0.000    0.000    0.000 
#
# Total GULP energy -489878.741381 kJ/mol
# GULP energy per Si atom -5566.803879 kJ/mol
# Density = 1.791091 g / cm^3
# Si number density = 17.951767 Si / 1000 Ang^3
#
#
#
# Elastic Constant Matrix: (Units=GPa)
#
#
# Indices 1 2 3 4 5 6 
#
# 1 74.9322 36.6051 46.1195 0.0000 0.0000 0.0000
# 2 36.6051 74.9322 46.1195 0.0000 0.0000 0.0000
# 3 46.1195 46.1195 122.3040 0.0000 0.0000 0.0000
# 4 0.0000 0.0000 0.0000 5.6651 0.0000 0.0000
# 5 0.0000 0.0000 0.0000 0.0000 5.6651 0.0000
# 6 0.0000 0.0000 0.0000 0.0000 0.0000 4.5985
#
#
#
# Elastic Compliance Matrix: (Units=1/GPa)
#
#
# Indices 1 2 3 4 5 6 
#
# 1 0.019560 -0.006531 -0.004913 0.000000 0.000000 0.000000
# 2 -0.006531 0.019560 -0.004913 0.000000 0.000000 0.000000
# 3 -0.004913 -0.004913 0.011882 0.000000 0.000000 0.000000
# 4 0.000000 0.000000 0.000000 0.176519 0.000000 0.000000
# 5 0.000000 0.000000 0.000000 0.000000 0.176519 0.000000
# 6 0.000000 0.000000 0.000000 0.000000 0.000000 0.217463
#
#
# Mechanical properties :
#
#
# Convention : Reuss Voigt Hill
#
# Bulk Modulus (GPa) = 54.68393 58.87296 56.77844
# Shear Modulus (GPa) = 7.57219 12.74070 10.15645
#
# Velocity S-wave (km/s) = 2.05602 2.66694 2.38116
# Velocity P-wave (km/s) = 6.01365 6.50767 6.26553
#
# Compressibility (1/GPa) = 0.01828691
#
# Stress axis : x y z
#
# Youngs Moduli (GPa) = 51.12518 51.12518 84.16412
#
# Poissons Ratio (x) = 0.33392 0.41349
# Poissons Ratio (y) = 0.33392 0.41349
# Poissons Ratio (z) = 0.25117 0.25117
#
# Static dielectric constant tensor:
#      x y z
#    x 1.610460 0.000000 0.000000 
#    y 0.000000 1.610460 0.000000 
#    z 0.000000 0.000000 2.068810 
# 
# From -- ./inp_files/5240.got.cif
#   From: 2010.05.17/outbox.cif.g08.bks.cpg/sg124_3_cif.got.tgz:5240.got - 2010.05.20 11:49:17.
