data_PCOD9562010
_publ_section_title
;
Structure prediction by ZEFSAII (Michael W. Deem and Ramdas Pophale) SiO2 
 PCOD9562010
Probable space group: P 4/M M M
;
_chemical_formula_sum "Si O2"
_cell_formula_units_Z 88
_cell_length_a 13.939930
_cell_length_b 13.939930
_cell_length_c 28.614743
_cell_angle_alpha 90.000000
_cell_angle_beta 90.000000
_cell_angle_gamma 90.000000
_cell_volume 5560.464028
_symmetry_space_group_name_H-M "P 4/M M M"
_symmetry_group_IT_number 123
_symmetry_cell_setting 'tetragonal'
loop_
_space_group_symop_operation_xyz
x,y,z
-y,x,z
-x,-y,z
y,-x,z
x,-y,-z
-x,y,-z
y,x,-z
-y,-x,-z
-x,-y,-z
y,-x,-z
x,y,-z
-y,x,-z
-x,y,z
x,-y,z
-y,-x,z
y,x,z
loop_
_atom_site_type_symbol
_atom_site_label
_atom_site_fract_x
_atom_site_fract_y
_atom_site_fract_z
Si Si1 0.387579 0.887641 0.276514
Si Si2 0.772126 0.613787 0.181821
Si Si3 0.114074 0.275297 0.103206
Si Si4 0.111191 0.730368 0.000000
Si Si5 0.113311 0.728871 0.629237
Si Si6 0.387885 0.229915 0.554801
O O1 0.500000 0.875738 0.288954
O O2 0.367108 0.822094 0.231857
O O3 0.322819 0.866030 0.321310
O O4 0.373700 0.000000 0.264083
O O5 0.758008 0.500000 0.177128
O O6 0.674416 0.674416 0.178622
O O7 0.842788 0.653948 0.141785
O O8 0.177058 0.177058 0.106321
O O9 0.129336 0.316947 0.050480
O O10 0.000000 0.259636 0.109704
O O11 0.175521 0.824480 0.000000
O O12 0.000000 0.757027 0.000000
O O13 0.173625 0.826376 0.626449
O O14 0.151424 0.659893 0.588176
O O15 0.000000 0.743884 0.625549
O O16 0.378073 0.204078 0.500000
O O17 0.500000 0.242145 0.565087
O O18 0.327664 0.327664 0.562097
#
# Coordination Sequence:
#
# PCOD9562010 Si02
#       6
#    16  16  16   8  16  16
#     4   9  17  30  50  74  95 116 146 185 231 283
#     4  10  20  33  49  68  91 121 156 194 234 274
#     4   9  17  29  46  69  96 124 153 185 224 272
#     4   8  14  25  41  63  92 122 150 182 221 268
#     4  10  20  33  49  69  95 127 162 198 232 268
#     4   9  18  32  50  73  99 125 154 190 234 284
#
# _framework density 15.826017
#
# number of rings (size 3 to 8) (size 9 to 14) (size 15 to 20)
#    0.000    2.727    0.000    1.636    0.000    3.364 
#    0.000    4.091    0.000    1.636    0.000    7.636 
#    0.000    3.636    0.000    0.000    0.000    0.000 
#
# Total GULP energy -490104.610277 kJ/mol
# GULP energy per Si atom -5569.370571 kJ/mol
# Density = 1.579000 g / cm^3
# Si number density = 15.826017 Si / 1000 Ang^3
#
#
#
# Elastic Constant Matrix: (Units=GPa)
#
#
# Indices 1 2 3 4 5 6 
#
# 1 94.1306 61.5786 69.8430 0.0000 0.0000 0.0000
# 2 61.5786 94.1306 69.8424 0.0000 0.0000 0.0000
# 3 69.8430 69.8424 106.5150 0.0000 0.0000 0.0000
# 4 0.0000 0.0000 0.0000 24.4772 0.0000 0.0000
# 5 0.0000 0.0000 0.0000 0.0000 24.4773 0.0000
# 6 0.0000 0.0000 0.0000 0.0000 0.0000 31.2165
#
#
#
# Elastic Compliance Matrix: (Units=1/GPa)
#
#
# Indices 1 2 3 4 5 6 
#
# 1 0.023159 -0.007562 -0.010227 0.000000 0.000000 0.000000
# 2 -0.007562 0.023158 -0.010227 0.000000 0.000000 0.000000
# 3 -0.010227 -0.010227 0.022800 0.000000 0.000000 0.000000
# 4 0.000000 0.000000 0.000000 0.040854 0.000000 0.000000
# 5 0.000000 0.000000 0.000000 0.000000 0.040854 0.000000
# 6 0.000000 0.000000 0.000000 0.000000 0.000000 0.032034
#
#
# Mechanical properties :
#
#
# Convention : Reuss Voigt Hill
#
# Bulk Modulus (GPa) = 76.41806 77.47824 76.94815
# Shear Modulus (GPa) = 20.55477 22.26833 21.41155
#
# Velocity S-wave (km/s) = 3.60779 3.75516 3.68221
# Velocity P-wave (km/s) = 8.10839 8.23797 8.17344
#
# Compressibility (1/GPa) = 0.01308591
#
# Stress axis : x y z
#
# Youngs Moduli (GPa) = 43.18052 43.18132 43.85963
#
# Poissons Ratio (x) = 0.32653 0.44856
# Poissons Ratio (y) = 0.32652 0.44854
# Poissons Ratio (z) = 0.44161 0.44160
#
# Static dielectric constant tensor:
#      x y z
#    x 1.502200 0.000000 0.000000 
#    y 0.000000 1.502200 0.000000 
#    z 0.000000 0.000000 1.543830 
# 
# From -- ./inp_files/7999.got.cif
#   From: 2010.05.17/outbox.cif.g08.bks.cpg/sg123_4_cif.got.tgz:7999.got - 2010.05.20 11:43:04.
