data_PCOD9562576
_publ_section_title
;
Structure prediction by ZEFSAII (Michael W. Deem and Ramdas Pophale) SiO2 
 PCOD9562576
Probable space group: P 4/M C C
;
_chemical_formula_sum "Si O2"
_cell_formula_units_Z 120
_cell_length_a 21.236254
_cell_length_b 21.236254
_cell_length_c 14.132196
_cell_angle_alpha 90.000000
_cell_angle_beta 90.000000
_cell_angle_gamma 90.000000
_cell_volume 6373.316327
_symmetry_space_group_name_H-M "P 4/M C C"
_symmetry_group_IT_number 124
_symmetry_cell_setting 'tetragonal'
loop_
_space_group_symop_operation_xyz
x,y,z
-y,x,z
-x,-y,z
y,-x,z
x,-y,1/2-z
-x,y,1/2-z
y,x,1/2-z
-y,-x,1/2-z
-x,-y,-z
y,-x,-z
x,y,-z
-y,x,-z
-x,y,1/2+z
x,-y,1/2+z
-y,-x,1/2+z
y,x,1/2+z
loop_
_atom_site_type_symbol
_atom_site_label
_atom_site_fract_x
_atom_site_fract_y
_atom_site_fract_z
Si Si1 0.985273 0.243619 0.385731
Si Si2 0.074518 0.568504 0.741262
Si Si3 0.675762 0.891339 0.887041
Si Si4 0.334861 0.431976 0.301138
Si Si5 0.873410 0.661889 0.110581
Si Si6 0.100555 0.985823 0.115030
Si Si7 0.331375 0.228265 0.227372
Si Si8 0.539744 0.599486 0.000000
O O1 0.985940 0.242668 0.500000
O O2 0.051455 0.276798 0.359407
O O3 0.979586 0.171961 0.352700
O O4 0.923785 0.284232 0.360478
O O5 0.103311 0.500000 0.750000
O O6 0.096692 0.612933 0.826414
O O7 0.091158 0.598258 0.640342
O O8 0.000000 0.565493 0.750000
O O9 0.692458 0.821000 0.852465
O O10 0.667507 0.893859 0.000000
O O11 0.330309 0.500000 0.250000
O O12 0.386935 0.386935 0.250000
O O13 0.268481 0.393870 0.298462
O O14 0.360508 0.444006 0.406775
O O15 0.812890 0.661369 0.177362
O O16 0.859773 0.666898 0.000000
O O17 0.068975 0.052058 0.143187
O O18 0.101452 0.985084 0.000000
O O19 0.278721 0.278721 0.250000
O O20 0.466132 0.578999 0.000000
#
# Coordination Sequence:
#
# PCOD9562576 Si02
#       8
#    16  16  16  16  16  16  16   8
#     4   9  17  31  56  84 111 151 204 259 313 361
#     4  10  20  35  58  86 117 146 182 244 315 371
#     4  10  21  38  60  86 116 156 209 262 303 367
#     4  11  23  44  66  96 138 173 209 262 309 370
#     4  10  21  40  62  85 116 158 211 264 310 372
#     4   8  14  25  43  75 117 150 179 231 305 377
#     4  10  25  42  59  86 124 168 211 250 307 372
#     4  11  22  38  74 114 134 168 213 257 323 374
#
# _framework density 18.828502
#
# number of rings (size 3 to 8) (size 9 to 14) (size 15 to 20)
#    0.000    2.200    2.667    0.400    0.933    4.400 
#    4.800    4.000    0.000    0.000    0.000    0.000 
#    0.000   16.000    0.000    1.867    0.000    0.000 
#
# Total GULP energy -669073.562223 kJ/mol
# GULP energy per Si atom -5575.613019 kJ/mol
# Density = 1.878565 g / cm^3
# Si number density = 18.828502 Si / 1000 Ang^3
#
#
#
# Elastic Constant Matrix: (Units=GPa)
#
#
# Indices 1 2 3 4 5 6 
#
# 1 129.7606 53.8469 30.1747 0.0000 0.0000 0.0000
# 2 53.8469 129.7606 30.1747 0.0000 0.0000 0.0000
# 3 30.1747 30.1747 119.5300 0.0000 0.0000 0.0000
# 4 0.0000 0.0000 0.0000 27.8582 0.0000 0.0000
# 5 0.0000 0.0000 0.0000 0.0000 27.8582 0.0000
# 6 0.0000 0.0000 0.0000 0.0000 0.0000 -7.8317
#
#
#
# Elastic Compliance Matrix: (Units=1/GPa)
#
#
# Indices 1 2 3 4 5 6 
#
# 1 0.009556 -0.003617 -0.001499 0.000000 0.000000 0.000000
# 2 -0.003617 0.009556 -0.001499 0.000000 0.000000 0.000000
# 3 -0.001499 -0.001499 0.009123 0.000000 0.000000 0.000000
# 4 0.000000 0.000000 0.000000 0.035896 0.000000 0.000000
# 5 0.000000 0.000000 0.000000 0.000000 0.035896 0.000000
# 6 0.000000 0.000000 0.000000 0.000000 0.000000 -0.127686
#
#
# Mechanical properties :
#
#
# Convention : Reuss Voigt Hill
#
# Bulk Modulus (GPa) = 66.64787 67.49373 67.07080
# Shear Modulus (GPa) = -530.43181 27.23393 -251.59894
#
# Velocity S-wave (km/s) = -16.80265 3.80731 -11.57224
# Velocity P-wave (km/s) = 18.46523 7.43316 11.95225
#
# Compressibility (1/GPa) = 0.01500423
#
# Stress axis : x y z
#
# Youngs Moduli (GPa) = 104.64596 104.64596 109.61199
#
# Poissons Ratio (x) = 0.37849 0.16434
# Poissons Ratio (y) = 0.37849 0.16434
# Poissons Ratio (z) = 0.15690 0.15690
#
# Static dielectric constant tensor:
#      x y z
#    x 1.697630 0.000000 0.000000 
#    y 0.000000 1.697630 0.000000 
#    z 0.000000 0.000000 1.660020 
# 
# From -- ./inp_files/3493.got.cif
#   From: 2010.05.17/outbox.cif.g08.bks.cpg/sg124_2_cif.got.tgz:3493.got - 2010.05.20 11:49:17.
