data_PCOD9562229
_publ_section_title
;
Structure prediction by ZEFSAII (Michael W. Deem and Ramdas Pophale) SiO2 
 PCOD9562229
Probable space group: P 4/M M M
;
_chemical_formula_sum "Si O2"
_cell_formula_units_Z 96
_cell_length_a 25.033019
_cell_length_b 25.033019
_cell_length_c 8.848835
_cell_angle_alpha 90.000000
_cell_angle_beta 90.000000
_cell_angle_gamma 90.000000
_cell_volume 5545.140507
_symmetry_space_group_name_H-M "P 4/M M M"
_symmetry_group_IT_number 123
_symmetry_cell_setting 'tetragonal'
loop_
_space_group_symop_operation_xyz
x,y,z
-y,x,z
-x,-y,z
y,-x,z
x,-y,-z
-x,y,-z
y,x,-z
-y,-x,-z
-x,-y,-z
y,-x,-z
x,y,-z
-y,x,-z
-x,y,z
x,-y,z
-y,-x,z
y,x,z
loop_
_atom_site_type_symbol
_atom_site_label
_atom_site_fract_x
_atom_site_fract_y
_atom_site_fract_z
Si Si1 0.939720 0.808202 0.169698
Si Si2 0.350828 0.438463 0.680339
Si Si3 0.939948 0.320488 0.175378
Si Si4 0.161000 0.839001 0.669009
Si Si5 0.239898 0.239898 0.821727
Si Si6 0.562286 0.235289 0.820357
Si Si7 0.824656 0.660418 0.679774
O O1 0.940311 0.743945 0.174406
O O2 0.900198 0.827800 0.296789
O O3 0.000000 0.827221 0.190043
O O4 0.921766 0.823570 0.000000
O O5 0.340370 0.433251 0.500000
O O6 0.366866 0.500000 0.708064
O O7 0.397098 0.397098 0.721133
O O8 0.296311 0.427898 0.769253
O O9 0.886151 0.335448 0.264054
O O10 0.000000 0.337270 0.228848
O O11 0.934688 0.337940 0.000000
O O12 0.176621 0.823380 0.500000
O O13 0.195282 0.804719 0.786809
O O14 0.214121 0.293738 0.751098
O O15 0.247592 0.247592 0.000000
O O16 0.500000 0.223497 0.786063
O O17 0.603653 0.198335 0.732722
O O18 0.570218 0.230029 0.000000
O O19 0.823051 0.666334 0.500000
#
# Coordination Sequence:
#
# PCOD9562229 Si02
#       7
#    16  16  16   8   8  16  16
#     4   9  18  33  53  74 100 142 187 222 264 323
#     4   9  18  33  53  78 109 143 182 231 281 330
#     4   9  18  34  56  81 111 148 185 219 262 323
#     4  12  22  32  50  79 113 142 174 223 280 328
#     4  12  24  38  54  78 115 153 187 223 268 328
#     4  10  22  40  60  80 106 147 193 230 272 330
#     4  12  24  37  57  86 117 146 181 229 284 331
#
# _framework density 17.312456999999998
#
# number of rings (size 3 to 8) (size 9 to 14) (size 15 to 20)
#    0.000    1.833    1.667    4.500    1.167    2.167 
#    0.000    2.500    0.000    0.750    0.000    7.583 
#    0.000    0.000    0.000    0.000    0.000    0.000 
#
# Total GULP energy -535435.602031 kJ/mol
# GULP energy per Si atom -5577.454188 kJ/mol
# Density = 1.727305 g / cm^3
# Si number density = 17.312457 Si / 1000 Ang^3
#
#
#
# Elastic Constant Matrix: (Units=GPa)
#
#
# Indices 1 2 3 4 5 6 
#
# 1 86.9346 65.3216 55.3135 0.0000 0.0000 0.0000
# 2 65.3216 86.9342 55.3129 0.0000 0.0000 0.0000
# 3 55.3135 55.3129 97.5397 0.0000 0.0000 0.0000
# 4 0.0000 0.0000 0.0000 21.2582 0.0000 0.0000
# 5 0.0000 0.0000 0.0000 0.0000 21.2585 0.0000
# 6 0.0000 0.0000 0.0000 0.0000 0.0000 21.3360
#
#
#
# Elastic Compliance Matrix: (Units=1/GPa)
#
#
# Indices 1 2 3 4 5 6 
#
# 1 0.028720 -0.017549 -0.006335 0.000000 0.000000 0.000000
# 2 -0.017549 0.028720 -0.006334 0.000000 0.000000 0.000000
# 3 -0.006335 -0.006334 0.017437 0.000000 0.000000 0.000000
# 4 0.000000 0.000000 0.000000 0.047041 0.000000 0.000000
# 5 0.000000 0.000000 0.000000 0.000000 0.047040 0.000000
# 6 0.000000 0.000000 0.000000 0.000000 0.000000 0.046869
#
#
# Mechanical properties :
#
#
# Convention : Reuss Voigt Hill
#
# Bulk Modulus (GPa) = 69.25544 69.25607 69.25575
# Shear Modulus (GPa) = 17.78879 19.13456 18.46167
#
# Velocity S-wave (km/s) = 3.20896 3.32813 3.26909
# Velocity P-wave (km/s) = 7.33621 7.40669 7.37154
#
# Compressibility (1/GPa) = 0.01443930
#
# Stress axis : x y z
#
# Youngs Moduli (GPa) = 34.81924 34.81942 57.35012
#
# Poissons Ratio (x) = 0.61105 0.36330
# Poissons Ratio (y) = 0.61105 0.36328
# Poissons Ratio (z) = 0.22057 0.22056
#
# Static dielectric constant tensor:
#      x y z
#    x 1.585380 0.000000 0.000000 
#    y 0.000000 1.585380 0.000000 
#    z 0.000000 0.000000 1.595950 
# 
# From -- ./inp_files/1666.got.cif
#   From: 2010.05.17/outbox.cif.g08.bks.cpg/sg123_1_cif.got.tgz:1666.got - 2010.05.20 11:43:04.
