data_PCOD9562871
_publ_section_title
;
Structure prediction by ZEFSAII (Michael W. Deem and Ramdas Pophale) SiO2 
 PCOD9562871
Probable space group: P 4/M C C
;
_chemical_formula_sum "Si O2"
_cell_formula_units_Z 88
_cell_length_a 12.000000
_cell_length_b 12.000000
_cell_length_c 30.000000
_cell_angle_alpha 90.000000
_cell_angle_beta 90.000000
_cell_angle_gamma 90.000000
_cell_volume 4320.000000
_symmetry_space_group_name_H-M "P 4/M C C"
_symmetry_group_IT_number 124
_symmetry_cell_setting 'tetragonal'
loop_
_space_group_symop_operation_xyz
x,y,z
-y,x,z
-x,-y,z
y,-x,z
x,-y,1/2-z
-x,y,1/2-z
y,x,1/2-z
-y,-x,1/2-z
-x,-y,-z
y,-x,-z
x,y,-z
-y,x,-z
-x,y,1/2+z
x,-y,1/2+z
-y,-x,1/2+z
y,x,1/2+z
loop_
_atom_site_type_symbol
_atom_site_label
_atom_site_fract_x
_atom_site_fract_y
_atom_site_fract_z
Si Si1 0.248566 0.131289 0.907953
Si Si2 0.447106 0.318425 0.313707
Si Si3 0.687082 0.901841 0.551282
Si Si4 0.731642 0.731642 0.750000
Si Si5 0.122096 0.500746 0.123001
Si Si6 0.150964 0.897286 0.312324
O O1 0.199374 0.232005 0.936054
O O2 0.373596 0.151566 0.890266
O O3 0.171939 0.115606 0.864626
O O4 0.252444 0.016854 0.935338
O O5 0.571471 0.368791 0.316142
O O6 0.609300 0.259930 0.228956
O O7 0.444680 0.222486 0.350331
O O8 0.659827 0.901414 0.500000
O O9 0.575681 0.895373 0.580046
O O10 0.824338 0.757427 0.712860
O O11 0.000000 0.500000 0.146581
O O12 0.028208 0.850107 0.301216
#
# Coordination Sequence:
#
# PCOD9562871 Si02
#       6
#    16  16  16   8  16  16
#     4  11  22  41  66  94 130 173 221 269 332 405
#     4  11  24  45  69  96 130 176 229 279 334 396
#     4  11  23  39  63  98 134 173 221 273 330 400
#     4  12  24  38  66  96 128 168 220 274 334 396
#     4  10  23  41  67  96 132 176 224 270 338 399
#     4  11  23  42  65  93 137 179 219 272 343 415
#
# _framework density 20.370370000000001
#
# number of rings (size 3 to 8) (size 9 to 14) (size 15 to 20)
#    0.000    1.091    1.818    4.909    2.545    5.818 
#    3.273    0.909    0.000    0.000    0.000    3.818 
#    0.000    0.000    0.000    0.000    0.000    0.000 
#
# Total GULP energy -491430.174474 kJ/mol
# GULP energy per Si atom -5584.433801 kJ/mol
# Density = 2.032401 g / cm^3
# Si number density = 20.370370 Si / 1000 Ang^3
#
#
#
# Elastic Constant Matrix: (Units=GPa)
#
#
# Indices 1 2 3 4 5 6 
#
# 1 99.6048 69.4015 51.2308 0.0000 0.0000 0.0000
# 2 69.4015 99.6048 51.2308 0.0000 0.0000 0.0000
# 3 51.2308 51.2308 93.4857 0.0000 0.0000 0.0000
# 4 0.0000 0.0000 0.0000 -4.3685 0.0000 0.0000
# 5 0.0000 0.0000 0.0000 0.0000 -4.3685 0.0000
# 6 0.0000 0.0000 0.0000 0.0000 0.0000 29.4382
#
#
#
# Elastic Compliance Matrix: (Units=1/GPa)
#
#
# Indices 1 2 3 4 5 6 
#
# 1 0.020985 -0.012124 -0.004856 0.000000 0.000000 0.000000
# 2 -0.012124 0.020985 -0.004856 0.000000 0.000000 0.000000
# 3 -0.004856 -0.004856 0.016019 0.000000 0.000000 0.000000
# 4 0.000000 0.000000 0.000000 -0.228911 0.000000 0.000000
# 5 0.000000 0.000000 0.000000 0.000000 -0.228911 0.000000
# 6 0.000000 0.000000 0.000000 0.000000 0.000000 0.033969
#
#
# Mechanical properties :
#
#
# Convention : Reuss Voigt Hill
#
# Bulk Modulus (GPa) = 69.84553 70.71349 70.27951
# Shear Modulus (GPa) = -15.75199 12.19573 -1.77813
#
# Velocity S-wave (km/s) = -2.78381 2.44949 -0.93530
# Velocity P-wave (km/s) = 4.90199 6.54135 5.78008
#
# Compressibility (1/GPa) = 0.01431731
#
# Stress axis : x y z
#
# Youngs Moduli (GPa) = 47.65339 47.65339 62.42664
#
# Poissons Ratio (x) = 0.57775 0.30313
# Poissons Ratio (y) = 0.57775 0.30313
# Poissons Ratio (z) = 0.23139 0.23139
#
# Static dielectric constant tensor:
#      x y z
#    x 1.717100 0.000000 0.000000 
#    y 0.000000 1.717100 0.000000 
#    z 0.000000 0.000000 1.737420 
# 
# From -- ./inp_files/7071.got.cif
#   From: 2010.05.17/outbox.ucp.g08.bks.cvg/sg124_4_cif.got.tgz:7071.got - 2010.06.11 11:36:13.
