data_PCOD9562434
_publ_section_title
;
Structure prediction by ZEFSAII (Michael W. Deem and Ramdas Pophale) SiO2 
 PCOD9562434
Probable space group: P 4/M C C
;
_chemical_formula_sum "Si O2"
_cell_formula_units_Z 120
_cell_length_a 19.180984
_cell_length_b 19.180984
_cell_length_c 13.913153
_cell_angle_alpha 90.000000
_cell_angle_beta 90.000000
_cell_angle_gamma 90.000000
_cell_volume 5118.790168
_symmetry_space_group_name_H-M "P 4/M C C"
_symmetry_group_IT_number 124
_symmetry_cell_setting 'tetragonal'
loop_
_space_group_symop_operation_xyz
x,y,z
-y,x,z
-x,-y,z
y,-x,z
x,-y,1/2-z
-x,y,1/2-z
y,x,1/2-z
-y,-x,1/2-z
-x,-y,-z
y,-x,-z
x,y,-z
-y,x,-z
-x,y,1/2+z
x,-y,1/2+z
-y,-x,1/2+z
y,x,1/2+z
loop_
_atom_site_type_symbol
_atom_site_label
_atom_site_fract_x
_atom_site_fract_y
_atom_site_fract_z
Si Si1 0.756059 0.651116 0.292927
Si Si2 0.033285 0.109766 0.114137
Si Si3 0.671427 0.099690 0.386684
Si Si4 0.853867 0.369186 0.382783
Si Si5 0.893192 0.515453 0.392129
Si Si6 0.482740 0.726734 0.640268
Si Si7 0.227067 0.890153 0.225149
Si Si8 0.524879 0.385294 0.000000
O O1 0.712055 0.712055 0.250000
O O2 0.817600 0.674745 0.363559
O O3 0.791930 0.618753 0.195799
O O4 0.709775 0.599525 0.356905
O O5 0.059288 0.174651 0.172374
O O6 0.955646 0.083747 0.135607
O O7 0.037170 0.122757 0.000000
O O8 0.679359 0.084608 0.500000
O O9 0.591246 0.082828 0.353768
O O10 0.734493 0.076466 0.318531
O O11 0.840556 0.370529 0.500000
O O12 0.905263 0.435397 0.360558
O O13 0.876610 0.292278 0.348071
O O14 0.918940 0.517744 0.500000
O O15 0.807776 0.516411 0.392366
O O16 0.500000 0.723612 0.750000
O O17 0.526972 0.669443 0.586737
O O18 0.179032 0.820968 0.250000
O O19 0.578564 0.448368 0.000000
#
# Coordination Sequence:
#
# PCOD9562434 Si02
#       8
#    16  16  16  16  16  16  16   8
#     4  10  21  30  45  77  97 136 195 256 331 400
#     4   9  20  43  75 106 137 181 234 281 329 396
#     4   9  19  34  52  77 123 177 221 267 324 397
#     4  10  19  33  53  82 124 165 210 273 340 404
#     4   9  17  33  53  78 112 160 216 265 322 397
#     4  11  21  36  54  70  88 123 185 262 328 400
#     4  11  23  35  55  94 137 178 223 276 347 407
#     4  11  28  44  50  60  80 118 184 264 348 415
#
# _framework density 23.443038000000001
#
# number of rings (size 3 to 8) (size 9 to 14) (size 15 to 20)
#    0.000    2.067    2.000    2.400    2.800    3.200 
#    0.000    1.333    0.000    0.800    0.000    0.933 
#    0.000    8.533    0.000   31.467    0.000    2.400 
#
# Total GULP energy -668464.230539 kJ/mol
# GULP energy per Si atom -5570.535254 kJ/mol
# Density = 2.338968 g / cm^3
# Si number density = 23.443038 Si / 1000 Ang^3
#
#
#
# Elastic Constant Matrix: (Units=GPa)
#
#
# Indices 1 2 3 4 5 6 
#
# 1 111.4351 55.0115 44.4865 0.0000 0.0000 0.0000
# 2 55.0115 111.4353 44.4864 0.0000 0.0000 0.0000
# 3 44.4865 44.4864 151.8177 0.0000 0.0000 0.0000
# 4 0.0000 0.0000 0.0000 33.6859 0.0000 0.0000
# 5 0.0000 0.0000 0.0000 0.0000 33.6859 0.0000
# 6 0.0000 0.0000 0.0000 0.0000 0.0000 24.8180
#
#
#
# Elastic Compliance Matrix: (Units=1/GPa)
#
#
# Indices 1 2 3 4 5 6 
#
# 1 0.012423 -0.005300 -0.002087 0.000000 0.000000 0.000000
# 2 -0.005300 0.012423 -0.002087 0.000000 0.000000 0.000000
# 3 -0.002087 -0.002087 0.007810 0.000000 0.000000 0.000000
# 4 0.000000 0.000000 0.000000 0.029686 0.000000 0.000000
# 5 0.000000 0.000000 0.000000 0.000000 0.029686 0.000000
# 6 0.000000 0.000000 0.000000 0.000000 0.000000 0.040293
#
#
# Mechanical properties :
#
#
# Convention : Reuss Voigt Hill
#
# Bulk Modulus (GPa) = 72.95039 73.62851 73.28945
# Shear Modulus (GPa) = 32.08402 33.81819 32.95110
#
# Velocity S-wave (km/s) = 3.70347 3.80224 3.75318
# Velocity P-wave (km/s) = 7.03372 7.12402 7.07901
#
# Compressibility (1/GPa) = 0.01370795
#
# Stress axis : x y z
#
# Youngs Moduli (GPa) = 80.49318 80.49334 128.03779
#
# Poissons Ratio (x) = 0.42659 0.26727
# Poissons Ratio (y) = 0.42659 0.26727
# Poissons Ratio (z) = 0.16803 0.16802
#
# Static dielectric constant tensor:
#      x y z
#    x 1.997030 0.000000 0.000000 
#    y 0.000000 1.997030 0.000000 
#    z 0.000000 0.000000 2.575320 
# 
# From -- ./inp_files/3515.got.cif
#   From: 2010.05.17/outbox.cif.g08.bks.cpg/sg124_2_cif.got.tgz:3515.got - 2010.05.20 11:49:17.
