data_PCOD9562341
_publ_section_title
;
Structure prediction by ZEFSAII (Michael W. Deem and Ramdas Pophale) SiO2 
 PCOD9562341
Probable space group: P 4/M C C
;
_chemical_formula_sum "Si O2"
_cell_formula_units_Z 88
_cell_length_a 17.856999
_cell_length_b 17.856999
_cell_length_c 15.833940
_cell_angle_alpha 90.000000
_cell_angle_beta 90.000000
_cell_angle_gamma 90.000000
_cell_volume 5049.006660
_symmetry_space_group_name_H-M "P 4/M C C"
_symmetry_group_IT_number 124
_symmetry_cell_setting 'tetragonal'
loop_
_space_group_symop_operation_xyz
x,y,z
-y,x,z
-x,-y,z
y,-x,z
x,-y,1/2-z
-x,y,1/2-z
y,x,1/2-z
-y,-x,1/2-z
-x,-y,-z
y,-x,-z
x,y,-z
-y,x,-z
-x,y,1/2+z
x,-y,1/2+z
-y,-x,1/2+z
y,x,1/2+z
loop_
_atom_site_type_symbol
_atom_site_label
_atom_site_fract_x
_atom_site_fract_y
_atom_site_fract_z
Si Si1 0.585995 0.823905 0.768000
Si Si2 0.946942 0.433232 0.903352
Si Si3 0.906505 0.921790 0.851397
Si Si4 0.274942 0.274942 0.250000
Si Si5 0.051660 0.316509 0.170884
Si Si6 0.213846 0.823404 0.096608
O O1 0.500000 0.805939 0.750000
O O2 0.581659 0.869632 0.855616
O O3 0.639505 0.751878 0.759734
O O4 0.624237 0.886766 0.707047
O O5 0.000000 0.500000 0.866526
O O6 0.997140 0.359758 0.891949
O O7 0.932350 0.452078 0.000000
O O8 0.907192 0.907192 0.750000
O O9 0.841565 0.873380 0.892508
O O10 0.991302 0.899097 0.874494
O O11 0.235609 0.240668 0.166416
O O12 0.099313 0.253505 0.125169
O O13 0.000000 0.290661 0.250000
O O14 0.232138 0.804126 0.000000
#
# Coordination Sequence:
#
# PCOD9562341 Si02
#       6
#    16  16  16   8  16  16
#     4  10  19  36  56  76 107 148 184 221 277 342
#     4  10  18  29  51  84 115 141 180 226 276 334
#     4   9  19  34  52  68  91 133 186 236 274 310
#     4  10  24  40  56  80 110 146 180 224 286 354
#     4   9  19  31  52  77 111 147 180 223 276 339
#     4  11  22  36  54  76 108 143 183 232 285 340
#
# _framework density 17.429171
#
# number of rings (size 3 to 8) (size 9 to 14) (size 15 to 20)
#    0.000    2.182    2.727    1.091    2.545    2.909 
#    0.000    0.909    0.000    0.273    0.000    0.000 
#    0.000    0.000    0.000    6.364    0.000    0.000 
#
# Total GULP energy -490677.075670 kJ/mol
# GULP energy per Si atom -5575.875860 kJ/mol
# Density = 1.738950 g / cm^3
# Si number density = 17.429171 Si / 1000 Ang^3
#
#
#
# Elastic Constant Matrix: (Units=GPa)
#
#
# Indices 1 2 3 4 5 6 
#
# 1 64.4515 32.3863 25.1183 0.0000 0.0000 0.0000
# 2 32.3863 64.4515 25.1183 0.0000 0.0000 0.0000
# 3 25.1183 25.1183 72.1190 0.0000 0.0000 0.0000
# 4 0.0000 0.0000 0.0000 4.6893 0.0000 0.0000
# 5 0.0000 0.0000 0.0000 0.0000 4.6893 0.0000
# 6 0.0000 0.0000 0.0000 0.0000 0.0000 24.6811
#
#
#
# Elastic Compliance Matrix: (Units=1/GPa)
#
#
# Indices 1 2 3 4 5 6 
#
# 1 0.021895 -0.009291 -0.004390 0.000000 0.000000 0.000000
# 2 -0.009291 0.021895 -0.004390 0.000000 0.000000 0.000000
# 3 -0.004390 -0.004390 0.016924 0.000000 0.000000 0.000000
# 4 0.000000 0.000000 0.000000 0.213252 0.000000 0.000000
# 5 0.000000 0.000000 0.000000 0.000000 0.213252 0.000000
# 6 0.000000 0.000000 0.000000 0.000000 0.000000 0.040517
#
#
# Mechanical properties :
#
#
# Convention : Reuss Voigt Hill
#
# Bulk Modulus (GPa) = 40.69618 40.69643 40.69631
# Shear Modulus (GPa) = 8.74022 14.70520 11.72271
#
# Velocity S-wave (km/s) = 2.24178 2.90782 2.59625
# Velocity P-wave (km/s) = 5.48643 5.88848 5.69101
#
# Compressibility (1/GPa) = 0.02457233
#
# Stress axis : x y z
#
# Youngs Moduli (GPa) = 45.67213 45.67213 59.08836
#
# Poissons Ratio (x) = 0.42436 0.25939
# Poissons Ratio (y) = 0.42436 0.25939
# Poissons Ratio (z) = 0.20049 0.20049
#
# Static dielectric constant tensor:
#      x y z
#    x 1.610110 0.000000 0.000000 
#    y 0.000000 1.610110 0.000000 
#    z 0.000000 0.000000 1.625190 
# 
# From -- ./inp_files/3219.got.cif
#   From: 2010.05.17/outbox.cif.g08.bks.cpg/sg124_2_cif.got.tgz:3219.got - 2010.05.20 11:49:17.
