data_PCOD9562579
_publ_section_title
;
Structure prediction by ZEFSAII (Michael W. Deem and Ramdas Pophale) SiO2 
 PCOD9562579
Probable space group: P 4/M C C
;
_chemical_formula_sum "Si O2"
_cell_formula_units_Z 84
_cell_length_a 14.892960
_cell_length_b 14.892960
_cell_length_c 21.785015
_cell_angle_alpha 90.000000
_cell_angle_beta 90.000000
_cell_angle_gamma 90.000000
_cell_volume 4831.921938
_symmetry_space_group_name_H-M "P 4/M C C"
_symmetry_group_IT_number 124
_symmetry_cell_setting 'tetragonal'
loop_
_space_group_symop_operation_xyz
x,y,z
-y,x,z
-x,-y,z
y,-x,z
x,-y,1/2-z
-x,y,1/2-z
y,x,1/2-z
-y,-x,1/2-z
-x,-y,-z
y,-x,-z
x,y,-z
-y,x,-z
-x,y,1/2+z
x,-y,1/2+z
-y,-x,1/2+z
y,x,1/2+z
loop_
_atom_site_type_symbol
_atom_site_label
_atom_site_fract_x
_atom_site_fract_y
_atom_site_fract_z
Si Si1 0.249741 0.396224 0.000000
Si Si2 0.500000 0.500000 0.371389
Si Si3 0.196395 0.665852 0.866595
Si Si4 0.748567 0.609521 0.500000
Si Si5 0.996468 0.605397 0.676428
Si Si6 0.503238 0.307424 0.180055
Si Si7 0.337447 0.813253 0.866820
O O1 0.254165 0.502853 0.000000
O O2 0.347912 0.350862 0.000000
O O3 0.201457 0.362582 0.061735
O O4 0.517830 0.608973 0.364704
O O5 0.095574 0.651418 0.844571
O O6 0.256803 0.588909 0.834598
O O7 0.244601 0.760901 0.854600
O O8 0.203520 0.644885 0.938961
O O9 0.000000 0.500000 0.656516
O O10 0.000000 0.605620 0.750000
O O11 0.083254 0.656355 0.650604
O O12 0.500000 0.341963 0.250000
O O13 0.584365 0.237975 0.171150
#
# Coordination Sequence:
#
# PCOD9562579 Si02
#       7
#     8   4  16   8  16  16  16
#     4  10  20  36  53  79 114 156 194 232 281 337
#     4  12  25  32  48  81 114 161 196 216 281 354
#     4  11  23  38  56  81 115 149 191 240 286 338
#     4  10  20  36  53  79 114 156 194 232 281 337
#     4  11  22  37  59  86 112 148 195 240 291 346
#     4  12  21  32  51  76 111 150 187 226 275 338
#     4  11  23  38  56  81 115 149 191 240 286 338
#
# _framework density 17.384385999999999
#
# number of rings (size 3 to 8) (size 9 to 14) (size 15 to 20)
#    0.000    0.952    5.714    2.000    0.000    3.238 
#    0.000    1.905    0.000    0.571    0.000    1.333 
#    0.000    4.571    0.000    0.000    0.000    0.000 
#
# Total GULP energy -468553.954683 kJ/mol
# GULP energy per Si atom -5578.023270 kJ/mol
# Density = 1.734482 g / cm^3
# Si number density = 17.384386 Si / 1000 Ang^3
#
#
#
# Elastic Constant Matrix: (Units=GPa)
#
#
# Indices 1 2 3 4 5 6 
#
# 1 124.8035 59.9848 26.0803 0.0000 0.0000 0.0000
# 2 59.9848 124.8035 26.0803 0.0000 0.0000 0.0000
# 3 26.0803 26.0803 63.5653 0.0000 0.0000 0.0000
# 4 0.0000 0.0000 0.0000 66.8675 0.0000 0.0000
# 5 0.0000 0.0000 0.0000 0.0000 66.8675 0.0000
# 6 0.0000 0.0000 0.0000 0.0000 0.0000 15.5105
#
#
#
# Elastic Compliance Matrix: (Units=1/GPa)
#
#
# Indices 1 2 3 4 5 6 
#
# 1 0.010774 -0.004654 -0.002511 0.000000 0.000000 0.000000
# 2 -0.004654 0.010774 -0.002511 0.000000 0.000000 0.000000
# 3 -0.002511 -0.002511 0.017792 0.000000 0.000000 0.000000
# 4 0.000000 0.000000 0.000000 0.014955 0.000000 0.000000
# 5 0.000000 0.000000 0.000000 0.000000 0.014955 0.000000
# 6 0.000000 0.000000 0.000000 0.000000 0.000000 0.064472
#
#
# Mechanical properties :
#
#
# Convention : Reuss Voigt Hill
#
# Bulk Modulus (GPa) = 50.02829 59.71813 54.87321
# Shear Modulus (GPa) = 31.30135 43.25092 37.27614
#
# Velocity S-wave (km/s) = 4.24789 4.99331 4.63561
# Velocity P-wave (km/s) = 7.27321 8.22620 7.76434
#
# Compressibility (1/GPa) = 0.01998869
#
# Stress axis : x y z
#
# Youngs Moduli (GPa) = 92.81575 92.81575 56.20358
#
# Poissons Ratio (x) = 0.43193 0.14114
# Poissons Ratio (y) = 0.43193 0.14114
# Poissons Ratio (z) = 0.23307 0.23307
#
# Static dielectric constant tensor:
#      x y z
#    x 1.580540 0.000000 0.000000 
#    y 0.000000 1.580540 0.000000 
#    z 0.000000 0.000000 1.635600 
# 
# From -- ./inp_files/5222.got.cif
#   From: 2010.05.17/outbox.cif.g08.bks.cpg/sg124_3_cif.got.tgz:5222.got - 2010.05.20 11:49:17.
