data_PCOD9562268
_publ_section_title
;
Structure prediction by ZEFSAII (Michael W. Deem and Ramdas Pophale) SiO2 
 PCOD9562268
Probable space group: P 4/M M M
;
_chemical_formula_sum "Si O2"
_cell_formula_units_Z 96
_cell_length_a 14.681835
_cell_length_b 14.681835
_cell_length_c 26.832584
_cell_angle_alpha 90.000000
_cell_angle_beta 90.000000
_cell_angle_gamma 90.000000
_cell_volume 5783.931962
_symmetry_space_group_name_H-M "P 4/M M M"
_symmetry_group_IT_number 123
_symmetry_cell_setting 'tetragonal'
loop_
_space_group_symop_operation_xyz
x,y,z
-y,x,z
-x,-y,z
y,-x,z
x,-y,-z
-x,y,-z
y,x,-z
-y,-x,-z
-x,-y,-z
y,-x,-z
x,y,-z
-y,x,-z
-x,y,z
x,-y,z
-y,-x,z
y,x,z
loop_
_atom_site_type_symbol
_atom_site_label
_atom_site_fract_x
_atom_site_fract_y
_atom_site_fract_z
Si Si1 0.757689 0.392995 0.244130
Si Si2 0.250634 0.103601 0.918388
Si Si3 0.389235 0.104443 0.555642
Si Si4 0.606274 0.246265 0.638078
Si Si5 0.748815 0.895794 0.798364
Si Si6 0.748781 0.602887 0.059703
O O1 0.749236 0.500000 0.231769
O O2 0.665672 0.334329 0.234295
O O3 0.777205 0.385325 0.303461
O O4 0.839546 0.341265 0.216377
O O5 0.166528 0.166528 0.936257
O O6 0.245811 0.101036 0.858334
O O7 0.342486 0.158016 0.931328
O O8 0.248333 0.000000 0.936794
O O9 0.362027 0.135635 0.500000
O O10 0.500000 0.103537 0.556323
O O11 0.359828 0.168222 0.600757
O O12 0.359610 0.000000 0.562065
O O13 0.500000 0.261879 0.628149
O O14 0.663574 0.336427 0.629153
O O15 0.834742 0.834742 0.780672
O O16 0.749092 0.000000 0.780096
O O17 0.748466 0.500000 0.079625
O O18 0.666993 0.666993 0.079695
O O19 0.737147 0.597595 0.000000
#
# Coordination Sequence:
#
# PCOD9562268 Si02
#       6
#    16  16  16  16  16  16
#     4   9  18  31  45  63  88 117 150 186 222 263
#     4   9  18  32  49  69  93 120 149 182 221 266
#     4   8  14  25  40  57  78 105 137 173 211 248
#     4   9  17  28  42  61  85 113 143 174 210 253
#     4   9  18  32  49  69  92 117 146 182 224 269
#     4   9  18  32  49  69  93 121 153 189 227 265
#
# _framework density 16.597707
#
# number of rings (size 3 to 8) (size 9 to 14) (size 15 to 20)
#    0.000    3.167    0.000    0.500    0.000    3.500 
#    0.000    8.333    0.000    0.000    0.000    9.333 
#    0.000    0.333    0.000    1.833    0.000    0.167 
#
# Total GULP energy -534435.916794 kJ/mol
# GULP energy per Si atom -5567.040800 kJ/mol
# Density = 1.655993 g / cm^3
# Si number density = 16.597707 Si / 1000 Ang^3
#
#
#
# Elastic Constant Matrix: (Units=GPa)
#
#
# Indices 1 2 3 4 5 6 
#
# 1 114.6090 56.4123 18.1264 0.0000 0.0000 0.0000
# 2 56.4123 114.6090 18.1264 0.0000 0.0000 0.0000
# 3 18.1264 18.1264 22.8517 0.0000 0.0000 0.0000
# 4 0.0000 0.0000 0.0000 22.6474 0.0000 0.0000
# 5 0.0000 0.0000 0.0000 0.0000 22.6474 0.0000
# 6 0.0000 0.0000 0.0000 0.0000 0.0000 6.0228
#
#
#
# Elastic Compliance Matrix: (Units=1/GPa)
#
#
# Indices 1 2 3 4 5 6 
#
# 1 0.012106 -0.005077 -0.005576 0.000000 0.000000 0.000000
# 2 -0.005077 0.012106 -0.005576 0.000000 0.000000 0.000000
# 3 -0.005576 -0.005576 0.052606 0.000000 0.000000 0.000000
# 4 0.000000 0.000000 0.000000 0.044155 0.000000 0.000000
# 5 0.000000 0.000000 0.000000 0.000000 0.044155 0.000000
# 6 0.000000 0.000000 0.000000 0.000000 0.000000 0.166036
#
#
# Mechanical properties :
#
#
# Convention : Reuss Voigt Hill
#
# Bulk Modulus (GPa) = 22.54204 48.59999 35.57101
# Shear Modulus (GPa) = 13.21326 20.89051 17.05188
#
# Velocity S-wave (km/s) = 2.82457 3.55158 3.20873
# Velocity P-wave (km/s) = 4.92427 6.79434 5.93344
#
# Compressibility (1/GPa) = 0.04436155
#
# Stress axis : x y z
#
# Youngs Moduli (GPa) = 82.60289 82.60289 19.00930
#
# Poissons Ratio (x) = 0.41937 0.10599
# Poissons Ratio (y) = 0.41937 0.10599
# Poissons Ratio (z) = 0.46056 0.46056
#
# Static dielectric constant tensor:
#      x y z
#    x 1.552160 0.000000 0.000000 
#    y 0.000000 1.552160 0.000000 
#    z 0.000000 0.000000 1.585530 
# 
# From -- ./inp_files/6466.got.cif
#   From: 2010.05.17/outbox.cif.g08.bks.cpg/sg123_4_cif.got.tgz:6466.got - 2010.05.20 11:43:04.
