data_PCOD9562643
_publ_section_title
;
Structure prediction by ZEFSAII (Michael W. Deem and Ramdas Pophale) SiO2 
 PCOD9562643
Probable space group: P 4/M C C
;
_chemical_formula_sum "Si O2"
_cell_formula_units_Z 112
_cell_length_a 15.010920
_cell_length_b 15.010920
_cell_length_c 25.063720
_cell_angle_alpha 90.000000
_cell_angle_beta 90.000000
_cell_angle_gamma 90.000000
_cell_volume 5647.550863
_symmetry_space_group_name_H-M "P 4/M C C"
_symmetry_group_IT_number 124
_symmetry_cell_setting 'tetragonal'
loop_
_space_group_symop_operation_xyz
x,y,z
-y,x,z
-x,-y,z
y,-x,z
x,-y,1/2-z
-x,y,1/2-z
y,x,1/2-z
-y,-x,1/2-z
-x,-y,-z
y,-x,-z
x,y,-z
-y,x,-z
-x,y,1/2+z
x,-y,1/2+z
-y,-x,1/2+z
y,x,1/2+z
loop_
_atom_site_type_symbol
_atom_site_label
_atom_site_fract_x
_atom_site_fract_y
_atom_site_fract_z
Si Si1 0.930660 0.380302 0.063850
Si Si2 0.237313 0.797419 0.610392
Si Si3 0.264989 0.360723 0.703088
Si Si4 0.395046 0.905064 0.766071
Si Si5 0.108405 0.101987 0.810606
Si Si6 0.857250 0.638751 0.939269
Si Si7 0.513608 0.175844 0.140194
O O1 0.868682 0.295761 0.077641
O O2 0.893822 0.448172 0.109901
O O3 0.036226 0.366648 0.072760
O O4 0.919861 0.404375 0.000000
O O5 0.298145 0.737841 0.651097
O O6 0.169260 0.847670 0.648504
O O7 0.180571 0.735505 0.572053
O O8 0.337729 0.337729 0.750000
O O9 0.171957 0.346584 0.734219
O O10 0.246180 0.459928 0.677170
O O11 0.500000 0.907382 0.750000
O O12 0.409410 0.875537 0.826343
O O13 0.356562 0.000000 0.750000
O O14 0.128862 0.128862 0.750000
O O15 0.003700 0.120896 0.817340
O O16 0.790901 0.571079 0.908756
O O17 0.851378 0.614301 0.000000
#
# Coordination Sequence:
#
# PCOD9562643 Si02
#       7
#    16  16  16  16  16  16  16
#     4  10  22  37  56  81 114 152 198 255 305 352
#     4  11  21  35  54  76 113 154 194 243 309 358
#     4  10  21  36  49  81 118 152 190 230 289 356
#     4   9  19  32  53  83 114 150 192 230 274 351
#     4   9  18  33  50  71 102 146 202 254 298 354
#     4  11  23  37  57  83 112 153 210 256 299 360
#     4  10  21  35  59  79 113 153 190 237 297 358
#
# _framework density 19.831607000000002
#
# number of rings (size 3 to 8) (size 9 to 14) (size 15 to 20)
#    0.000    2.000    0.000    3.857   10.000    1.143 
#    5.143    0.000    3.143    0.000    0.000    6.000 
#    0.000  282.571    0.000  101.286    0.000    0.000 
#
# Total GULP energy -623686.902740 kJ/mol
# GULP energy per Si atom -5568.633060 kJ/mol
# Density = 1.978647 g / cm^3
# Si number density = 19.831607 Si / 1000 Ang^3
#
#
#
# Elastic Constant Matrix: (Units=GPa)
#
#
# Indices 1 2 3 4 5 6 
#
# 1 101.5288 -12.6629 25.2529 0.0000 0.0000 0.0000
# 2 -12.6629 101.5288 25.2529 0.0000 0.0000 0.0000
# 3 25.2529 25.2529 82.7944 0.0000 0.0000 0.0000
# 4 0.0000 0.0000 0.0000 24.9969 0.0000 0.0000
# 5 0.0000 0.0000 0.0000 0.0000 24.9969 0.0000
# 6 0.0000 0.0000 0.0000 0.0000 0.0000 -228.2200
#
#
#
# Elastic Compliance Matrix: (Units=1/GPa)
#
#
# Indices 1 2 3 4 5 6 
#
# 1 0.011185 0.002428 -0.004152 0.000000 0.000000 0.000000
# 2 0.002428 0.011185 -0.004152 0.000000 0.000000 0.000000
# 3 -0.004152 -0.004152 0.014611 0.000000 0.000000 0.000000
# 4 0.000000 0.000000 0.000000 0.040005 0.000000 0.000000
# 5 0.000000 0.000000 0.000000 0.000000 0.040005 0.000000
# 6 0.000000 0.000000 0.000000 0.000000 0.000000 -0.004382
#
#
# Mechanical properties :
#
#
# Convention : Reuss Voigt Hill
#
# Bulk Modulus (GPa) = 39.63803 40.17087 39.90445
# Shear Modulus (GPa) = 37.65889 -19.11131 9.27379
#
# Velocity S-wave (km/s) = 4.36240 -3.10769 2.16481
# Velocity P-wave (km/s) = 6.73831 2.72452 5.13944
#
# Compressibility (1/GPa) = 0.02522830
#
# Stress axis : x y z
#
# Youngs Moduli (GPa) = 89.40617 89.40617 68.44222
#
# Poissons Ratio (x) = -0.21705 0.28417
# Poissons Ratio (y) = -0.21705 0.28417
# Poissons Ratio (z) = 0.37121 0.37121
#
# Static dielectric constant tensor:
#      x y z
#    x 1.752690 0.000000 0.000000 
#    y 0.000000 1.752690 0.000000 
#    z 0.000000 0.000000 1.750990 
# 
# From -- ./inp_files/6088.got.cif
#   From: 2010.05.17/outbox.cif.g08.bks.cpg/sg124_4_cif.got.tgz:6088.got - 2010.05.20 11:49:17.
