data_PCOD9562900
_publ_section_title
;
Structure prediction by ZEFSAII (Michael W. Deem and Ramdas Pophale) SiO2 
 PCOD9562900
Probable space group: P 4/N B M
;
_chemical_formula_sum "Si O2"
_cell_formula_units_Z 96
_cell_length_a 14.998710
_cell_length_b 14.998710
_cell_length_c 24.515867
_cell_angle_alpha 90.000000
_cell_angle_beta 90.000000
_cell_angle_gamma 90.000000
_cell_volume 5515.121352
_symmetry_space_group_name_H-M "P 4/N B M"
_symmetry_group_IT_number 125
_space_group.IT_coordinate_system_code '2'
_symmetry_cell_setting 'tetragonal'
loop_
_space_group_symop_operation_xyz
x,y,z
1/2-y,x,z
1/2-x,1/2-y,z
y,1/2-x,z
x,1/2-y,-z
1/2-x,y,-z
y,x,-z
1/2-y,1/2-x,-z
-x,-y,-z
1/2+y,-x,-z
1/2+x,1/2+y,-z
-y,1/2+x,-z
-x,1/2+y,z
1/2+x,-y,z
-y,-x,z
1/2+y,1/2+x,z
loop_
_atom_site_type_symbol
_atom_site_label
_atom_site_fract_x
_atom_site_fract_y
_atom_site_fract_z
Si Si1 0.674741 0.325260 0.647091
Si Si2 0.783876 0.896535 0.262303
Si Si3 0.425810 0.073736 0.564951
Si Si4 0.899385 0.253615 0.061382
Si Si5 0.456984 0.695044 0.827539
Si Si6 0.986628 0.751554 0.621599
Si Si7 0.174554 0.825447 0.230563
O O1 0.750000 0.250000 0.648266
O O2 0.716192 0.412857 0.621248
O O3 0.647823 0.352178 0.708895
O O4 0.685559 0.852756 0.261987
O O5 0.781118 0.955092 0.317741
O O6 0.809448 0.956522 0.210131
O O7 0.416882 0.083119 0.500000
O O8 0.476172 0.160950 0.585660
O O9 0.331176 0.068727 0.596286
O O10 0.486006 0.986006 0.576502
O O11 0.819730 0.180271 0.062886
O O12 0.848011 0.348011 0.070713
O O13 0.965479 0.222981 0.109146
O O14 0.936308 0.250000 0.000000
O O15 0.392847 0.607154 0.823574
O O16 0.403004 0.777860 0.801857
O O17 0.250000 0.750000 0.235920
#
# Coordination Sequence:
#
# PCOD9562900 Si02
#       7
#     8  16  16  16  16  16   8
#     4  11  22  36  59  93 123 153 188 235 299 355
#     4  11  24  41  57  79 115 151 189 237 289 346
#     4  11  25  43  64  90 124 156 197 243 291 351
#     4   8  13  23  45  79 117 153 185 227 286 341
#     4  10  18  32  53  83 115 149 188 229 284 340
#     4  12  22  41  65  89 116 157 197 240 293 351
#     4   9  16  26  48  79 115 143 168 220 280 334
#
# _framework density 17.406689
#
# number of rings (size 3 to 8) (size 9 to 14) (size 15 to 20)
#    0.000    1.667    5.000    1.500    0.000    1.000 
#    3.000    0.833    0.000    1.000    0.000    4.667 
#    0.000    0.000    0.000    0.000    0.000    0.000 
#
# Total GULP energy -535030.631521 kJ/mol
# GULP energy per Si atom -5573.235745 kJ/mol
# Density = 1.736707 g / cm^3
# Si number density = 17.406689 Si / 1000 Ang^3
#
#
#
# Elastic Constant Matrix: (Units=GPa)
#
#
# Indices 1 2 3 4 5 6 
#
# 1 55.7632 23.1119 44.7534 0.0000 0.0000 0.0000
# 2 23.1119 55.7635 44.7533 0.0000 0.0000 0.0000
# 3 44.7534 44.7533 127.9354 0.0000 0.0000 0.0000
# 4 0.0000 0.0000 0.0000 120.1715 0.0000 0.0000
# 5 0.0000 0.0000 0.0000 0.0000 120.2244 0.0000
# 6 0.0000 0.0000 0.0000 0.0000 0.0000 19.6200
#
#
#
# Elastic Compliance Matrix: (Units=1/GPa)
#
#
# Indices 1 2 3 4 5 6 
#
# 1 0.025825 -0.004801 -0.007355 0.000000 0.000000 0.000000
# 2 -0.004801 0.025825 -0.007354 0.000000 0.000000 0.000000
# 3 -0.007355 -0.007354 0.012962 0.000000 0.000000 0.000000
# 4 0.000000 0.000000 0.000000 0.008321 0.000000 0.000000
# 5 0.000000 0.000000 0.000000 0.000000 0.008318 0.000000
# 6 0.000000 0.000000 0.000000 0.000000 0.000000 0.050968
#
#
# Mechanical properties :
#
#
# Convention : Reuss Voigt Hill
#
# Bulk Modulus (GPa) = 39.07473 51.63325 45.35399
# Shear Modulus (GPa) = 27.81320 60.45942 44.13631
#
# Velocity S-wave (km/s) = 4.00164 5.89990 5.04093
# Velocity P-wave (km/s) = 6.62176 8.72577 7.74554
#
# Compressibility (1/GPa) = 0.02559199
#
# Stress axis : x y z
#
# Youngs Moduli (GPa) = 38.72164 38.72200 77.14981
#
# Poissons Ratio (x) = 0.18591 0.56740
# Poissons Ratio (y) = 0.18591 0.56739
# Poissons Ratio (z) = 0.28478 0.28478
#
# Static dielectric constant tensor:
#      x y z
#    x 1.614090 0.000000 0.000000 
#    y 0.000000 1.614090 0.000000 
#    z 0.000000 0.000000 1.625220 
# 
# From -- ./inp_files/5967.got.cif
#   From: 2010.05.17/outbox.cif.g08.bks.cpg/sg125_3_cif.got.tgz:5967.got - 2010.05.20 11:54:10.
