data_PCOD9562568
_publ_section_title
;
Structure prediction by ZEFSAII (Michael W. Deem and Ramdas Pophale) SiO2 
 PCOD9562568
Probable space group: P 4/M C C
;
_chemical_formula_sum "Si O2"
_cell_formula_units_Z 88
_cell_length_a 14.342486
_cell_length_b 14.342486
_cell_length_c 23.841859
_cell_angle_alpha 90.000000
_cell_angle_beta 90.000000
_cell_angle_gamma 90.000000
_cell_volume 4904.435016
_symmetry_space_group_name_H-M "P 4/M C C"
_symmetry_group_IT_number 124
_symmetry_cell_setting 'tetragonal'
loop_
_space_group_symop_operation_xyz
x,y,z
-y,x,z
-x,-y,z
y,-x,z
x,-y,1/2-z
-x,y,1/2-z
y,x,1/2-z
-y,-x,1/2-z
-x,-y,-z
y,-x,-z
x,y,-z
-y,x,-z
-x,y,1/2+z
x,-y,1/2+z
-y,-x,1/2+z
y,x,1/2+z
loop_
_atom_site_type_symbol
_atom_site_label
_atom_site_fract_x
_atom_site_fract_y
_atom_site_fract_z
Si Si1 0.367569 0.418294 0.500000
Si Si2 0.683141 0.105502 0.768649
Si Si3 0.062247 0.856245 0.939289
Si Si4 0.734768 0.460220 0.691237
Si Si5 0.302840 0.364199 0.622018
Si Si6 0.206781 0.823074 0.339610
O O1 0.470842 0.376396 0.500000
O O2 0.321905 0.388771 0.558116
O O3 0.600122 0.172529 0.791882
O O4 0.728421 0.150147 0.712919
O O5 0.767111 0.118005 0.814284
O O6 0.658165 0.000000 0.750000
O O7 0.091841 0.810917 0.881067
O O8 0.953838 0.881953 0.939263
O O9 0.082686 0.809199 0.000000
O O10 0.697737 0.500000 0.750000
O O11 0.660876 0.394738 0.658821
O O12 0.750159 0.549903 0.651784
O O13 0.247336 0.268221 0.624344
#
# Coordination Sequence:
#
# PCOD9562568 Si02
#       6
#     8  16  16  16  16  16
#     4  11  22  38  56  80 109 146 189 227 284 333
#     4  10  21  36  57  82 111 145 182 224 276 335
#     4   9  18  33  54  80 108 140 181 227 277 332
#     4  11  21  38  56  81 114 144 182 225 273 323
#     4  11  22  37  56  81 113 146 187 231 270 333
#     4  10  20  35  55  82 111 142 184 228 273 329
#
# _framework density 17.942941999999999
#
# number of rings (size 3 to 8) (size 9 to 14) (size 15 to 20)
#    0.000    1.727    3.636    2.182    1.273    0.727 
#    0.000    0.909    0.000    4.364    0.000    1.273 
#    0.000    0.000    0.000    0.000    0.000    0.000 
#
# Total GULP energy -489972.721199 kJ/mol
# GULP energy per Si atom -5567.871832 kJ/mol
# Density = 1.790210 g / cm^3
# Si number density = 17.942942 Si / 1000 Ang^3
#
#
#
# Elastic Constant Matrix: (Units=GPa)
#
#
# Indices 1 2 3 4 5 6 
#
# 1 46.3166 23.0114 35.2470 0.0000 0.0000 0.0000
# 2 23.0114 46.3166 35.2470 0.0000 0.0000 0.0000
# 3 35.2470 35.2470 139.0604 0.0000 0.0000 0.0000
# 4 0.0000 0.0000 0.0000 21.4406 0.0000 0.0000
# 5 0.0000 0.0000 0.0000 0.0000 21.4406 0.0000
# 6 0.0000 0.0000 0.0000 0.0000 0.0000 13.2739
#
#
#
# Elastic Compliance Matrix: (Units=1/GPa)
#
#
# Indices 1 2 3 4 5 6 
#
# 1 0.031171 -0.011738 -0.004925 0.000000 0.000000 0.000000
# 2 -0.011738 0.031171 -0.004925 0.000000 0.000000 0.000000
# 3 -0.004925 -0.004925 0.009688 0.000000 0.000000 0.000000
# 4 0.000000 0.000000 0.000000 0.046641 0.000000 0.000000
# 5 0.000000 0.000000 0.000000 0.000000 0.046641 0.000000
# 6 0.000000 0.000000 0.000000 0.000000 0.000000 0.075336
#
#
# Mechanical properties :
#
#
# Convention : Reuss Voigt Hill
#
# Bulk Modulus (GPa) = 34.66067 46.52268 40.59168
# Shear Modulus (GPa) = 17.03917 20.44355 18.74136
#
# Velocity S-wave (km/s) = 3.08495 3.37911 3.23537
# Velocity P-wave (km/s) = 5.66112 6.41942 6.05216
#
# Compressibility (1/GPa) = 0.02885114
#
# Stress axis : x y z
#
# Youngs Moduli (GPa) = 32.08141 32.08141 103.22060
#
# Poissons Ratio (x) = 0.37658 0.50841
# Poissons Ratio (y) = 0.37658 0.50841
# Poissons Ratio (z) = 0.15802 0.15802
#
# Static dielectric constant tensor:
#      x y z
#    x 1.642090 0.000000 0.000000 
#    y 0.000000 1.642090 0.000000 
#    z 0.000000 0.000000 1.785510 
# 
# From -- ./inp_files/5198.got.cif
#   From: 2010.05.17/outbox.cif.g08.bks.cpg/sg124_3_cif.got.tgz:5198.got - 2010.05.20 11:49:17.
