data_PCOD9562385
_publ_section_title
;
Structure prediction by ZEFSAII (Michael W. Deem and Ramdas Pophale) SiO2 
 PCOD9562385
Probable space group: P 4/M C C
;
_chemical_formula_sum "Si O2"
_cell_formula_units_Z 96
_cell_length_a 20.231613
_cell_length_b 20.231613
_cell_length_c 14.258775
_cell_angle_alpha 90.000000
_cell_angle_beta 90.000000
_cell_angle_gamma 90.000000
_cell_volume 5836.375612
_symmetry_space_group_name_H-M "P 4/M C C"
_symmetry_group_IT_number 124
_symmetry_cell_setting 'tetragonal'
loop_
_space_group_symop_operation_xyz
x,y,z
-y,x,z
-x,-y,z
y,-x,z
x,-y,1/2-z
-x,y,1/2-z
y,x,1/2-z
-y,-x,1/2-z
-x,-y,-z
y,-x,-z
x,y,-z
-y,x,-z
-x,y,1/2+z
x,-y,1/2+z
-y,-x,1/2+z
y,x,1/2+z
loop_
_atom_site_type_symbol
_atom_site_label
_atom_site_fract_x
_atom_site_fract_y
_atom_site_fract_z
Si Si1 0.962286 0.340446 0.894216
Si Si2 0.821458 0.817586 0.893591
Si Si3 0.131130 0.279478 0.745994
Si Si4 0.926187 0.514732 0.360527
Si Si5 0.932281 0.081882 0.862537
Si Si6 0.881973 0.377722 0.396177
O O1 0.934994 0.293898 0.812795
O O2 0.919332 0.408200 0.882679
O O3 0.039676 0.358924 0.883877
O O4 0.952773 0.314672 0.000000
O O5 0.870919 0.772838 0.831203
O O6 0.754092 0.822464 0.833010
O O7 0.857605 0.888143 0.894941
O O8 0.811498 0.795467 0.000000
O O9 0.151426 0.344600 0.805393
O O10 0.927636 0.500000 0.250000
O O11 0.878920 0.457228 0.396920
O O12 0.000000 0.500000 0.397029
O O13 0.923747 0.076254 0.750000
O O14 0.008356 0.089889 0.892021
O O15 0.861750 0.354002 0.500000
#
# Coordination Sequence:
#
# PCOD9562385 Si02
#       6
#    16  16  16  16  16  16
#     4  10  19  30  47  70  94 120 147 172 206 259
#     4  11  24  39  52  66  83 107 140 183 235 288
#     4  11  21  35  48  60  84 111 141 177 216 258
#     4   9  15  27  45  66  97 127 144 165 201 246
#     4   9  18  35  55  67  76  93 121 166 227 291
#     4  10  19  30  47  70  94 120 147 172 206 259
#
# _framework density 16.448564000000001
#
# number of rings (size 3 to 8) (size 9 to 14) (size 15 to 20)
#    0.000    2.000    3.333    2.500    0.000    5.333 
#    0.000    0.833    0.000    0.000    0.000    0.000 
#    0.000    0.000    0.000    0.000    0.000    0.000 
#
# Total GULP energy -534495.555509 kJ/mol
# GULP energy per Si atom -5567.662037 kJ/mol
# Density = 1.641113 g / cm^3
# Si number density = 16.448564 Si / 1000 Ang^3
#
#
#
# Elastic Constant Matrix: (Units=GPa)
#
#
# Indices 1 2 3 4 5 6 
#
# 1 35.7307 19.5928 20.2442 0.0000 0.0000 0.0000
# 2 19.5928 35.7308 20.2442 0.0000 0.0000 0.0000
# 3 20.2442 20.2442 146.5422 0.0000 0.0000 0.0000
# 4 0.0000 0.0000 0.0000 9.6758 0.0000 0.0000
# 5 0.0000 0.0000 0.0000 0.0000 9.6763 0.0000
# 6 0.0000 0.0000 0.0000 0.0000 0.0000 9.5696
#
#
#
# Elastic Compliance Matrix: (Units=1/GPa)
#
#
# Indices 1 2 3 4 5 6 
#
# 1 0.041037 -0.020929 -0.002778 0.000000 0.000000 0.000000
# 2 -0.020929 0.041037 -0.002778 0.000000 0.000000 0.000000
# 3 -0.002778 -0.002778 0.007591 0.000000 0.000000 0.000000
# 4 0.000000 0.000000 0.000000 0.103350 0.000000 0.000000
# 5 0.000000 0.000000 0.000000 0.000000 0.103345 0.000000
# 6 0.000000 0.000000 0.000000 0.000000 0.000000 0.104497
#
#
# Mechanical properties :
#
#
# Convention : Reuss Voigt Hill
#
# Bulk Modulus (GPa) = 27.25033 37.57402 32.41217
# Shear Modulus (GPa) = 10.72824 16.31252 13.52038
#
# Velocity S-wave (km/s) = 2.55665 3.15259 2.87013
# Velocity P-wave (km/s) = 5.03172 6.01205 5.54360
#
# Compressibility (1/GPa) = 0.03669681
#
# Stress axis : x y z
#
# Youngs Moduli (GPa) = 24.36810 24.36819 131.72652
#
# Poissons Ratio (x) = 0.50999 0.36593
# Poissons Ratio (y) = 0.50999 0.36592
# Poissons Ratio (z) = 0.06769 0.06769
#
# Static dielectric constant tensor:
#      x y z
#    x 1.595760 0.000000 0.000000 
#    y 0.000000 1.595760 0.000000 
#    z 0.000000 0.000000 1.670660 
# 
# From -- ./inp_files/3401.got.cif
#   From: 2010.05.17/outbox.cif.g08.bks.cpg/sg124_2_cif.got.tgz:3401.got - 2010.05.20 11:49:17.
