data_PCOD9562333
_publ_section_title
;
Structure prediction by ZEFSAII (Michael W. Deem and Ramdas Pophale) SiO2 
 PCOD9562333
Probable space group: P 4/M C C
;
_chemical_formula_sum "Si O2"
_cell_formula_units_Z 112
_cell_length_a 30.994524
_cell_length_b 30.994524
_cell_length_c 7.582921
_cell_angle_alpha 90.000000
_cell_angle_beta 90.000000
_cell_angle_gamma 90.000000
_cell_volume 7284.612816
_symmetry_space_group_name_H-M "P 4/M C C"
_symmetry_group_IT_number 124
_symmetry_cell_setting 'tetragonal'
loop_
_space_group_symop_operation_xyz
x,y,z
-y,x,z
-x,-y,z
y,-x,z
x,-y,1/2-z
-x,y,1/2-z
y,x,1/2-z
-y,-x,1/2-z
-x,-y,-z
y,-x,-z
x,y,-z
-y,x,-z
-x,y,1/2+z
x,-y,1/2+z
-y,-x,1/2+z
y,x,1/2+z
loop_
_atom_site_type_symbol
_atom_site_label
_atom_site_fract_x
_atom_site_fract_y
_atom_site_fract_z
Si Si1 0.206706 0.861645 0.288528
Si Si2 0.664893 0.068589 0.286619
Si Si3 0.571204 0.953610 0.211059
Si Si4 0.452899 0.140465 0.211360
Si Si5 0.723316 0.208575 0.711588
Si Si6 0.833383 0.360674 0.213414
Si Si7 0.759751 0.952513 0.211535
O O1 0.161379 0.838622 0.250000
O O2 0.210971 0.862600 0.500000
O O3 0.244184 0.829061 0.221636
O O4 0.214522 0.910304 0.224007
O O5 0.665233 0.064307 0.500000
O O6 0.620744 0.047179 0.220929
O O7 0.659461 0.119400 0.249641
O O8 0.710360 0.051036 0.219844
O O9 0.549834 0.909345 0.277724
O O10 0.551338 0.000000 0.250000
O O11 0.572667 0.949964 0.000000
O O12 0.500000 0.158650 0.250000
O O13 0.410103 0.165097 0.277649
O O14 0.449044 0.138818 0.000000
O O15 0.746288 0.253713 0.750000
O O16 0.722072 0.203993 0.500000
O O17 0.674827 0.200632 0.777663
O O18 0.829497 0.362984 0.000000
O O19 0.777381 0.000000 0.250000
O O20 0.757585 0.948971 0.000000
#
# Coordination Sequence:
#
# PCOD9562333 Si02
#       7
#    16  16  16  16  16  16  16
#     4   9  17  28  42  58  78 103 126 147 174 209
#     4   8  13  24  39  53  71  95 122 147 177 219
#     4   9  17  27  39  52  66  87 116 151 191 231
#     4   9  18  30  42  54  67  90 123 157 193 231
#     4   9  15  25  42  61  79 100 125 151 180 222
#     4   8  13  25  43  56  71  99 128 149 180 231
#     4  10  18  27  40  58  78 100 124 149 176 207
#
# _framework density 15.374874
#
# number of rings (size 3 to 8) (size 9 to 14) (size 15 to 20)
#    0.000    3.143    1.429    2.143    0.000    1.429 
#    0.000    2.143    0.000    1.714    0.000    0.000 
#    0.000    0.286    0.000    3.143    0.000    2.286 
#
# Total GULP energy -623893.397190 kJ/mol
# GULP energy per Si atom -5570.476761 kJ/mol
# Density = 1.533988 g / cm^3
# Si number density = 15.374874 Si / 1000 Ang^3
#
#
#
# Elastic Constant Matrix: (Units=GPa)
#
#
# Indices 1 2 3 4 5 6 
#
# 1 93.4254 61.1077 2.5924 0.0000 0.0000 0.0000
# 2 61.1077 93.4212 2.5945 0.0000 0.0000 0.0000
# 3 2.5924 2.5945 33.6050 0.0000 0.0000 0.0000
# 4 0.0000 0.0000 0.0000 9.4559 0.0000 0.0000
# 5 0.0000 0.0000 0.0000 0.0000 9.4564 0.0000
# 6 0.0000 0.0000 0.0000 0.0000 0.0000 3.8441
#
#
#
# Elastic Compliance Matrix: (Units=1/GPa)
#
#
# Indices 1 2 3 4 5 6 
#
# 1 0.018716 -0.012228 -0.000500 0.000000 0.000000 0.000000
# 2 -0.012228 0.018717 -0.000502 0.000000 0.000000 0.000000
# 3 -0.000500 -0.000502 0.029835 0.000000 0.000000 0.000000
# 4 0.000000 0.000000 0.000000 0.105754 0.000000 0.000000
# 5 0.000000 0.000000 0.000000 0.000000 0.105748 0.000000
# 6 0.000000 0.000000 0.000000 0.000000 0.000000 0.260140
#
#
# Mechanical properties :
#
#
# Convention : Reuss Voigt Hill
#
# Bulk Modulus (GPa) = 24.50503 39.22675 31.86589
# Shear Modulus (GPa) = 8.63599 14.82841 11.73220
#
# Velocity S-wave (km/s) = 2.37258 3.10894 2.76538
# Velocity P-wave (km/s) = 4.84546 6.20131 5.56483
#
# Compressibility (1/GPa) = 0.04080794
#
# Stress axis : x y z
#
# Youngs Moduli (GPa) = 53.43035 53.42779 33.51793
#
# Poissons Ratio (x) = 0.65334 0.01675
# Poissons Ratio (y) = 0.65337 0.01682
# Poissons Ratio (z) = 0.02670 0.02680
#
# Static dielectric constant tensor:
#      x y z
#    x 1.530530 0.000000 0.000000 
#    y 0.000000 1.530540 0.000000 
#    z 0.000000 0.000000 1.596320 
# 
# From -- ./inp_files/2517.got.cif
#   From: 2010.05.17/outbox.cif.g08.bks.cpg/sg124_2_cif.got.tgz:2517.got - 2010.05.20 11:49:17.
