data_PCOD9562520
_publ_section_title
;
Structure prediction by ZEFSAII (Michael W. Deem and Ramdas Pophale) SiO2 
 PCOD9562520
Probable space group: P 4/M C C
;
_chemical_formula_sum "Si O2"
_cell_formula_units_Z 80
_cell_length_a 12.894472
_cell_length_b 12.894472
_cell_length_c 32.373702
_cell_angle_alpha 90.000000
_cell_angle_beta 90.000000
_cell_angle_gamma 90.000000
_cell_volume 5382.691524
_symmetry_space_group_name_H-M "P 4/M C C"
_symmetry_group_IT_number 124
_symmetry_cell_setting 'tetragonal'
loop_
_space_group_symop_operation_xyz
x,y,z
-y,x,z
-x,-y,z
y,-x,z
x,-y,1/2-z
-x,y,1/2-z
y,x,1/2-z
-y,-x,1/2-z
-x,-y,-z
y,-x,-z
x,y,-z
-y,x,-z
-x,y,1/2+z
x,-y,1/2+z
-y,-x,1/2+z
y,x,1/2+z
loop_
_atom_site_type_symbol
_atom_site_label
_atom_site_fract_x
_atom_site_fract_y
_atom_site_fract_z
Si Si1 0.824075 0.007325 0.659327
Si Si2 0.224939 0.642264 0.549506
Si Si3 0.797250 0.589643 0.450290
Si Si4 0.175477 0.000000 0.750000
Si Si5 0.031797 0.830261 0.000000
Si Si6 0.312530 0.006490 0.921467
O O1 0.772715 0.004177 0.705033
O O2 0.743705 0.013900 0.622297
O O3 0.896575 0.904777 0.656014
O O4 0.211101 0.653700 0.500000
O O5 0.253324 0.522385 0.557634
O O6 0.314725 0.722797 0.561791
O O7 0.112997 0.661110 0.569698
O O8 0.814988 0.595351 0.500000
O O9 0.907734 0.598189 0.427328
O O10 0.098903 0.098903 0.750000
O O11 0.919809 0.883611 0.000000
O O12 0.040222 0.765064 0.041590
#
# Coordination Sequence:
#
# PCOD9562520 Si02
#       6
#    16  16  16   8   8  16
#     4   9  16  25  39  60  87 121 156 185 217 261
#     4  10  20  33  47  63  86 118 155 191 224 259
#     4  10  20  33  47  63  86 118 155 191 224 259
#     4   7  12  24  38  54  81 116 154 190 217 251
#     4  11  20  26  35  56  90 126 151 171 200 250
#     4  12  19  28  44  64  92 117 144 181 223 270
#
# _framework density 14.862453
#
# number of rings (size 3 to 8) (size 9 to 14) (size 15 to 20)
#    0.000    2.000    2.000    5.400    0.000    3.600 
#    0.000    2.000    0.000    0.000    0.000    2.800 
#    0.000    0.000    0.000    0.000    0.000   19.600 
#
# Total GULP energy -445798.122146 kJ/mol
# GULP energy per Si atom -5572.476527 kJ/mol
# Density = 1.482863 g / cm^3
# Si number density = 14.862453 Si / 1000 Ang^3
#
#
#
# Elastic Constant Matrix: (Units=GPa)
#
#
# Indices 1 2 3 4 5 6 
#
# 1 67.7088 16.2497 16.1502 0.0000 0.0000 0.0000
# 2 16.2497 67.7088 16.1502 0.0000 0.0000 0.0000
# 3 16.1502 16.1502 90.7631 0.0000 0.0000 0.0000
# 4 0.0000 0.0000 0.0000 11.5081 0.0000 0.0000
# 5 0.0000 0.0000 0.0000 0.0000 11.5081 0.0000
# 6 0.0000 0.0000 0.0000 0.0000 0.0000 18.9460
#
#
#
# Elastic Compliance Matrix: (Units=1/GPa)
#
#
# Indices 1 2 3 4 5 6 
#
# 1 0.016109 -0.003323 -0.002275 0.000000 0.000000 0.000000
# 2 -0.003323 0.016109 -0.002275 0.000000 0.000000 0.000000
# 3 -0.002275 -0.002275 0.011827 0.000000 0.000000 0.000000
# 4 0.000000 0.000000 0.000000 0.086895 0.000000 0.000000
# 5 0.000000 0.000000 0.000000 0.000000 0.086895 0.000000
# 6 0.000000 0.000000 0.000000 0.000000 0.000000 0.052782
#
#
# Mechanical properties :
#
#
# Convention : Reuss Voigt Hill
#
# Bulk Modulus (GPa) = 35.33719 35.92008 35.62863
# Shear Modulus (GPa) = 16.90342 20.23450 18.56896
#
# Velocity S-wave (km/s) = 3.37608 3.69379 3.53850
# Velocity P-wave (km/s) = 6.24700 6.51252 6.38114
#
# Compressibility (1/GPa) = 0.02829880
#
# Stress axis : x y z
#
# Youngs Moduli (GPa) = 62.07551 62.07551 84.54981
#
# Poissons Ratio (x) = 0.20631 0.19236
# Poissons Ratio (y) = 0.20631 0.19236
# Poissons Ratio (z) = 0.14123 0.14123
#
# Static dielectric constant tensor:
#      x y z
#    x 1.508340 0.000000 0.000000 
#    y 0.000000 1.508340 0.000000 
#    z 0.000000 0.000000 1.482050 
# 
# From -- ./inp_files/6970.got.cif
#   From: 2010.05.17/outbox.cif.g08.bks.cpg/sg124_4_cif.got.tgz:6970.got - 2010.05.20 11:49:17.
