data_PCOD9562232
_publ_section_title
;
Structure prediction by ZEFSAII (Michael W. Deem and Ramdas Pophale) SiO2 
 PCOD9562232
Probable space group: P 4/M M M
;
_chemical_formula_sum "Si O2"
_cell_formula_units_Z 56
_cell_length_a 18.275738
_cell_length_b 18.275738
_cell_length_c 7.717098
_cell_angle_alpha 90.000000
_cell_angle_beta 90.000000
_cell_angle_gamma 90.000000
_cell_volume 2577.530792
_symmetry_space_group_name_H-M "P 4/M M M"
_symmetry_group_IT_number 123
_symmetry_cell_setting 'tetragonal'
loop_
_space_group_symop_operation_xyz
x,y,z
-y,x,z
-x,-y,z
y,-x,z
x,-y,-z
-x,y,-z
y,x,-z
-y,-x,-z
-x,-y,-z
y,-x,-z
x,y,-z
-y,x,-z
-x,y,z
x,-y,z
-y,-x,z
y,x,z
loop_
_atom_site_type_symbol
_atom_site_label
_atom_site_fract_x
_atom_site_fract_y
_atom_site_fract_z
Si Si1 0.000000 0.412935 0.298839
Si Si2 0.618642 0.500000 0.291335
Si Si3 0.915516 0.199754 0.706507
Si Si4 0.218260 0.500000 0.800733
Si Si5 0.352264 0.151167 0.805624
O O1 0.929913 0.384772 0.200997
O O2 0.000000 0.500000 0.304668
O O3 0.000000 0.385825 0.500000
O O4 0.570400 0.570400 0.246988
O O5 0.629014 0.500000 0.500000
O O6 0.695341 0.500000 0.200651
O O7 0.921873 0.191479 0.500000
O O8 0.871072 0.128928 0.774607
O O9 0.863763 0.271112 0.733771
O O10 0.000000 0.208630 0.772290
O O11 0.194189 0.578585 0.720875
O O12 0.189314 0.500000 0.000000
O O13 0.343144 0.180562 0.000000
#
# Coordination Sequence:
#
# PCOD9562232 Si02
#       5
#     8   8  16   8  16
#     4  11  21  33  55  85 114 149 192 233 279 342
#     4   9  20  40  63  85 111 148 196 247 294 336
#     4  10  22  40  61  86 116 153 201 254 308 365
#     4  10  23  38  56  88 124 158 197 236 282 348
#     4  11  22  37  57  84 120 157 192 233 289 350
#
# _framework density 21.726220000000001
#
# number of rings (size 3 to 8) (size 9 to 14) (size 15 to 20)
#    0.000    1.714    2.857    1.714    0.000    5.429 
#    0.000    7.857    0.000    0.000    0.000    2.000 
#    0.000    0.000    0.000    0.000    0.000    0.000 
#
# Total GULP energy -311992.857204 kJ/mol
# GULP energy per Si atom -5571.301022 kJ/mol
# Density = 2.167677 g / cm^3
# Si number density = 21.726220 Si / 1000 Ang^3
#
#
#
# Elastic Constant Matrix: (Units=GPa)
#
#
# Indices 1 2 3 4 5 6 
#
# 1 122.7631 62.3115 7.6330 0.0000 0.0000 0.0000
# 2 62.3115 122.7631 7.6330 0.0000 0.0000 0.0000
# 3 7.6330 7.6330 42.8330 0.0000 0.0000 0.0000
# 4 0.0000 0.0000 0.0000 26.6993 0.0000 0.0000
# 5 0.0000 0.0000 0.0000 0.0000 26.6993 0.0000
# 6 0.0000 0.0000 0.0000 0.0000 0.0000 28.7991
#
#
#
# Elastic Compliance Matrix: (Units=1/GPa)
#
#
# Indices 1 2 3 4 5 6 
#
# 1 0.011013 -0.005529 -0.000977 0.000000 0.000000 0.000000
# 2 -0.005529 0.011013 -0.000977 0.000000 0.000000 0.000000
# 3 -0.000977 -0.000977 0.023695 0.000000 0.000000 0.000000
# 4 0.000000 0.000000 0.000000 0.037454 0.000000 0.000000
# 5 0.000000 0.000000 0.000000 0.000000 0.037454 0.000000
# 6 0.000000 0.000000 0.000000 0.000000 0.000000 0.034723
#
#
# Mechanical properties :
#
#
# Convention : Reuss Voigt Hill
#
# Bulk Modulus (GPa) = 32.51663 49.27937 40.89800
# Shear Modulus (GPa) = 27.68996 30.49165 29.09080
#
# Velocity S-wave (km/s) = 3.57388 3.75033 3.66317
# Velocity P-wave (km/s) = 5.65943 6.44085 6.06274
#
# Compressibility (1/GPa) = 0.03075349
#
# Stress axis : x y z
#
# Youngs Moduli (GPa) = 90.80182 90.80182 42.20336
#
# Poissons Ratio (x) = 0.50206 0.04124
# Poissons Ratio (y) = 0.50206 0.04124
# Poissons Ratio (z) = 0.08874 0.08874
#
# Static dielectric constant tensor:
#      x y z
#    x 1.787360 0.000000 0.000000 
#    y 0.000000 1.787360 0.000000 
#    z 0.000000 0.000000 1.849170 
# 
# From -- ./inp_files/624.got.cif
#   From: 2010.05.17/outbox.cif.g08.bks.cpg/sg123_1_cif.got.tgz:624.got - 2010.05.20 11:43:04.
