data_PCOD9562919
_publ_section_title
;
Structure prediction by ZEFSAII (Michael W. Deem and Ramdas Pophale) SiO2 
 PCOD9562919
Probable space group: P 4/N B M
;
_chemical_formula_sum "Si O2"
_cell_formula_units_Z 112
_cell_length_a 15.723627
_cell_length_b 15.723627
_cell_length_c 25.737294
_cell_angle_alpha 90.000000
_cell_angle_beta 90.000000
_cell_angle_gamma 90.000000
_cell_volume 6363.094150
_symmetry_space_group_name_H-M "P 4/N B M"
_symmetry_group_IT_number 125
_space_group.IT_coordinate_system_code '2'
_symmetry_cell_setting 'tetragonal'
loop_
_space_group_symop_operation_xyz
x,y,z
1/2-y,x,z
1/2-x,1/2-y,z
y,1/2-x,z
x,1/2-y,-z
1/2-x,y,-z
y,x,-z
1/2-y,1/2-x,-z
-x,-y,-z
1/2+y,-x,-z
1/2+x,1/2+y,-z
-y,1/2+x,-z
-x,1/2+y,z
1/2+x,-y,z
-y,-x,z
1/2+y,1/2+x,z
loop_
_atom_site_type_symbol
_atom_site_label
_atom_site_fract_x
_atom_site_fract_y
_atom_site_fract_z
Si Si1 0.626673 0.519131 0.348182
Si Si2 0.437991 0.796562 0.803295
Si Si3 0.844420 0.642209 0.559203
Si Si4 0.068083 0.422825 0.241494
Si Si5 0.141074 0.157875 0.059801
Si Si6 0.887054 0.246587 0.690087
Si Si7 0.999583 0.356673 0.857733
O O1 0.554602 0.445399 0.348911
O O2 0.619928 0.576880 0.398923
O O3 0.609817 0.577862 0.297781
O O4 0.717019 0.470257 0.338809
O O5 0.370677 0.870677 0.816868
O O6 0.522850 0.839502 0.780248
O O7 0.400814 0.748707 0.752417
O O8 0.458352 0.736459 0.851822
O O9 0.864794 0.742083 0.565758
O O10 0.873935 0.626066 0.500000
O O11 0.131980 0.455080 0.197855
O O12 0.993156 0.493156 0.244493
O O13 0.239944 0.135610 0.068158
O O14 0.069725 0.124804 0.098616
O O15 0.129479 0.129479 0.000000
O O16 0.847859 0.152142 0.679481
O O17 0.813262 0.313262 0.676646
O O18 0.925125 0.425125 0.862230
#
# Coordination Sequence:
#
# PCOD9562919 Si02
#       7
#    16  16  16  16  16  16  16
#     4  10  19  32  52  79 108 136 179 232 276 329
#     4  10  19  31  48  71 108 152 187 217 264 327
#     4   9  20  38  55  71  97 135 175 220 278 337
#     4   9  19  31  44  72 108 137 166 216 271 312
#     4   9  19  37  58  77 100 135 179 225 277 335
#     4   9  17  30  48  72 106 146 182 217 266 329
#     4  11  20  32  51  77 110 142 180 228 275 324
#
# _framework density 17.601500000000001
#
# number of rings (size 3 to 8) (size 9 to 14) (size 15 to 20)
#    0.000    2.429    1.429    2.143    2.000    1.429 
#    0.000    0.000    0.000    3.429    0.000    0.000 
#    0.000    0.000    0.000    0.000    0.000    0.000 
#
# Total GULP energy -623546.516527 kJ/mol
# GULP energy per Si atom -5567.379612 kJ/mol
# Density = 1.756144 g / cm^3
# Si number density = 17.601500 Si / 1000 Ang^3
#
#
#
# Elastic Constant Matrix: (Units=GPa)
#
#
# Indices 1 2 3 4 5 6 
#
# 1 61.7938 26.7178 46.1821 0.0000 0.0000 0.0000
# 2 26.7178 61.7940 46.1822 0.0000 0.0000 0.0000
# 3 46.1821 46.1822 85.5952 0.0000 0.0000 0.0000
# 4 0.0000 0.0000 0.0000 25.1682 0.0000 0.0000
# 5 0.0000 0.0000 0.0000 0.0000 25.1680 0.0000
# 6 0.0000 0.0000 0.0000 0.0000 0.0000 20.6011
#
#
#
# Elastic Compliance Matrix: (Units=1/GPa)
#
#
# Indices 1 2 3 4 5 6 
#
# 1 0.027182 -0.001327 -0.013950 0.000000 0.000000 0.000000
# 2 -0.001327 0.027182 -0.013950 0.000000 0.000000 0.000000
# 3 -0.013950 -0.013950 0.026736 0.000000 0.000000 0.000000
# 4 0.000000 0.000000 0.000000 0.039733 0.000000 0.000000
# 5 0.000000 0.000000 0.000000 0.000000 0.039733 0.000000
# 6 0.000000 0.000000 0.000000 0.000000 0.000000 0.048541
#
#
# Mechanical properties :
#
#
# Convention : Reuss Voigt Hill
#
# Bulk Modulus (GPa) = 44.15688 49.70525 46.93107
# Shear Modulus (GPa) = 18.17458 20.19418 19.18438
#
# Velocity S-wave (km/s) = 3.21683 3.39085 3.30499
# Velocity P-wave (km/s) = 6.24010 6.60538 6.42533
#
# Compressibility (1/GPa) = 0.02264653
#
# Stress axis : x y z
#
# Youngs Moduli (GPa) = 36.78878 36.78892 37.40295
#
# Poissons Ratio (x) = 0.04883 0.52176
# Poissons Ratio (y) = 0.04883 0.52176
# Poissons Ratio (z) = 0.51320 0.51320
#
# Static dielectric constant tensor:
#      x y z
#    x 1.649840 0.000000 0.000000 
#    y 0.000000 1.649840 0.000000 
#    z 0.000000 0.000000 1.589960 
# 
# From -- ./inp_files/6418.got.cif
#   From: 2010.05.17/outbox.cif.g08.bks.cpg/sg125_4_cif.got.tgz:6418.got - 2010.05.20 11:54:10.
