data_PCOD9562770
_publ_section_title
;
Structure prediction by ZEFSAII (Michael W. Deem and Ramdas Pophale) SiO2 
 PCOD9562770
Probable space group: P 4/M C C
;
_chemical_formula_sum "Si O2"
_cell_formula_units_Z 48
_cell_length_a 15.670560
_cell_length_b 15.670560
_cell_length_c 9.761934
_cell_angle_alpha 90.000000
_cell_angle_beta 90.000000
_cell_angle_gamma 90.000000
_cell_volume 2397.203484
_symmetry_space_group_name_H-M "P 4/M C C"
_symmetry_group_IT_number 124
_symmetry_cell_setting 'tetragonal'
loop_
_space_group_symop_operation_xyz
x,y,z
-y,x,z
-x,-y,z
y,-x,z
x,-y,1/2-z
-x,y,1/2-z
y,x,1/2-z
-y,-x,1/2-z
-x,-y,-z
y,-x,-z
x,y,-z
-y,x,-z
-x,y,1/2+z
x,-y,1/2+z
-y,-x,1/2+z
y,x,1/2+z
loop_
_atom_site_type_symbol
_atom_site_label
_atom_site_fract_x
_atom_site_fract_y
_atom_site_fract_z
Si Si1 0.325414 0.568262 0.846003
Si Si2 0.311253 0.818028 0.268308
Si Si3 0.921735 0.388147 0.000000
Si Si4 0.414487 0.875505 0.000000
O O1 0.279502 0.500000 0.750000
O O2 0.404084 0.595917 0.750000
O O3 0.262599 0.647991 0.849134
O O4 0.345780 0.540275 0.000000
O O5 0.213694 0.786306 0.250000
O O6 0.333471 0.895832 0.367537
O O7 0.364926 0.835461 0.130021
O O8 0.870632 0.480646 0.000000
O O9 0.022391 0.403005 0.000000
#
# Coordination Sequence:
#
# PCOD9562770 Si02
#       4
#    16  16   8   8
#     4  11  23  37  56  77 107 147 198 248 297 345
#     4  11  23  37  57  83 118 153 197 239 297 363
#     4  11  21  40  58  90 119 153 200 244 308 363
#     4  11  23  36  62  86 121 159 192 252 300 363
#
# _framework density 20.023332
#
# number of rings (size 3 to 8) (size 9 to 14) (size 15 to 20)
#    0.000    1.000    1.667    6.000    9.333    3.000 
#    0.000    1.667    0.000    0.000    0.000    0.000 
#    0.000   46.667    0.000    0.000    0.000    0.000 
#
# Total GULP energy -267534.680812 kJ/mol
# GULP energy per Si atom -5573.639184 kJ/mol
# Density = 1.997776 g / cm^3
# Si number density = 20.023332 Si / 1000 Ang^3
#
#
#
# Elastic Constant Matrix: (Units=GPa)
#
#
# Indices 1 2 3 4 5 6 
#
# 1 72.8864 28.1897 33.2932 0.0000 0.0000 0.0000
# 2 28.1897 72.8845 33.2934 0.0000 0.0000 0.0000
# 3 33.2932 33.2934 194.4987 0.0000 0.0000 0.0000
# 4 0.0000 0.0000 0.0000 22.9717 0.0000 0.0000
# 5 0.0000 0.0000 0.0000 0.0000 22.9720 0.0000
# 6 0.0000 0.0000 0.0000 0.0000 0.0000 34.3683
#
#
#
# Elastic Compliance Matrix: (Units=1/GPa)
#
#
# Indices 1 2 3 4 5 6 
#
# 1 0.016762 -0.005611 -0.001909 0.000000 0.000000 0.000000
# 2 -0.005611 0.016763 -0.001909 0.000000 0.000000 0.000000
# 3 -0.001909 -0.001909 0.005795 0.000000 0.000000 0.000000
# 4 0.000000 0.000000 0.000000 0.043532 0.000000 0.000000
# 5 0.000000 0.000000 0.000000 0.000000 0.043531 0.000000
# 6 0.000000 0.000000 0.000000 0.000000 0.000000 0.029097
#
#
# Mechanical properties :
#
#
# Convention : Reuss Voigt Hill
#
# Bulk Modulus (GPa) = 48.87119 58.86914 53.87017
# Shear Modulus (GPa) = 27.60034 32.42864 30.01449
#
# Velocity S-wave (km/s) = 3.71672 4.02872 3.87586
# Velocity P-wave (km/s) = 6.54819 7.14877 6.85506
#
# Compressibility (1/GPa) = 0.02046195
#
# Stress axis : x y z
#
# Youngs Moduli (GPa) = 59.65863 59.65683 172.56559
#
# Poissons Ratio (x) = 0.33475 0.32938
# Poissons Ratio (y) = 0.33476 0.32940
# Poissons Ratio (z) = 0.11387 0.11388
#
# Static dielectric constant tensor:
#      x y z
#    x 1.798660 0.000000 0.000000 
#    y 0.000000 1.798650 0.000000 
#    z 0.000000 0.000000 1.758440 
# 
# From -- ./inp_files/491.got.cif
#   From: 2010.05.17/outbox.cif.g08.bks.cpg/sg124_1_cif.got.tgz:491.got - 2010.05.20 11:49:17.
