data_PCOD9562987
_publ_section_title
;
Structure prediction by ZEFSAII (Michael W. Deem and Ramdas Pophale) SiO2 
 PCOD9562987
Probable space group: P 4/N B M
;
_chemical_formula_sum "Si O2"
_cell_formula_units_Z 72
_cell_length_a 19.643617
_cell_length_b 19.643617
_cell_length_c 9.025240
_cell_angle_alpha 90.000000
_cell_angle_beta 90.000000
_cell_angle_gamma 90.000000
_cell_volume 3482.584601
_symmetry_space_group_name_H-M "P 4/N B M"
_symmetry_group_IT_number 125
_space_group.IT_coordinate_system_code '2'
_symmetry_cell_setting 'tetragonal'
loop_
_space_group_symop_operation_xyz
x,y,z
1/2-y,x,z
1/2-x,1/2-y,z
y,1/2-x,z
x,1/2-y,-z
1/2-x,y,-z
y,x,-z
1/2-y,1/2-x,-z
-x,-y,-z
1/2+y,-x,-z
1/2+x,1/2+y,-z
-y,1/2+x,-z
-x,1/2+y,z
1/2+x,-y,z
-y,-x,z
1/2+y,1/2+x,z
loop_
_atom_site_type_symbol
_atom_site_label
_atom_site_fract_x
_atom_site_fract_y
_atom_site_fract_z
Si Si1 0.634789 0.753734 0.165049
Si Si2 0.456464 0.428350 0.836853
Si Si3 0.750000 0.360552 0.500000
Si Si4 0.042256 0.656521 0.641711
Si Si5 0.424737 0.336994 0.401107
O O1 0.682330 0.687343 0.174447
O O2 0.586955 0.769087 0.304611
O O3 0.603692 0.750000 0.000000
O O4 0.507120 0.492881 0.831072
O O5 0.500542 0.362515 0.789139
O O6 0.397590 0.435997 0.716429
O O7 0.425540 0.425540 0.000000
O O8 0.811395 0.311395 0.548569
O O9 0.721015 0.408131 0.630688
O O10 0.090977 0.590977 0.615121
O O11 0.989056 0.663582 0.508346
O O12 0.359707 0.359707 0.500000
#
# Coordination Sequence:
#
# PCOD9562987 Si02
#       5
#    16  16   8  16  16
#     4   9  20  37  52  69 100 143 182 221 268 319
#     4   9  18  32  52  80 114 147 177 221 287 353
#     4   9  18  34  56  80 108 147 194 244 292 339
#     4   9  18  34  54  81 114 141 178 233 287 343
#     4  10  20  32  53  80 106 140 181 231 281 340
#
# _framework density 20.674299000000001
#
# number of rings (size 3 to 8) (size 9 to 14) (size 15 to 20)
#    0.000    2.778    0.000    1.333    3.111    7.111 
#    0.000    1.111    0.000    0.000    0.000    1.556 
#    0.000    8.889    0.000    0.000    0.000    0.000 
#
# Total GULP energy -402036.768113 kJ/mol
# GULP energy per Si atom -5583.844002 kJ/mol
# Density = 2.062724 g / cm^3
# Si number density = 20.674299 Si / 1000 Ang^3
#
#
#
# Elastic Constant Matrix: (Units=GPa)
#
#
# Indices 1 2 3 4 5 6 
#
# 1 84.8918 37.0025 51.2017 0.0000 0.0000 0.0000
# 2 37.0025 84.8918 51.2017 0.0000 0.0000 0.0000
# 3 51.2017 51.2017 144.3996 0.0000 0.0000 0.0000
# 4 0.0000 0.0000 0.0000 28.1703 0.0000 0.0000
# 5 0.0000 0.0000 0.0000 0.0000 28.1703 0.0000
# 6 0.0000 0.0000 0.0000 0.0000 0.0000 23.3985
#
#
#
# Elastic Compliance Matrix: (Units=1/GPa)
#
#
# Indices 1 2 3 4 5 6 
#
# 1 0.016283 -0.004599 -0.004143 0.000000 0.000000 0.000000
# 2 -0.004599 0.016283 -0.004143 0.000000 0.000000 0.000000
# 3 -0.004143 -0.004143 0.009863 0.000000 0.000000 0.000000
# 4 0.000000 0.000000 0.000000 0.035498 0.000000 0.000000
# 5 0.000000 0.000000 0.000000 0.000000 0.035498 0.000000
# 6 0.000000 0.000000 0.000000 0.000000 0.000000 0.042738
#
#
# Mechanical properties :
#
#
# Convention : Reuss Voigt Hill
#
# Bulk Modulus (GPa) = 60.02455 65.88831 62.95643
# Shear Modulus (GPa) = 26.66858 27.59965 27.13411
#
# Velocity S-wave (km/s) = 3.59547 3.65769 3.62671
# Velocity P-wave (km/s) = 6.80683 7.05529 6.93218
#
# Compressibility (1/GPa) = 0.01665985
#
# Stress axis : x y z
#
# Youngs Moduli (GPa) = 61.41386 61.41386 101.38512
#
# Poissons Ratio (x) = 0.28241 0.42005
# Poissons Ratio (y) = 0.28241 0.42005
# Poissons Ratio (z) = 0.25444 0.25444
#
# Static dielectric constant tensor:
#      x y z
#    x 1.789910 0.000000 0.000000 
#    y 0.000000 1.789910 0.000000 
#    z 0.000000 0.000000 1.737940 
# 
# From -- ./inp_files/2603.got.cif
#   From: 2010.05.17/outbox.cif.g08.bks.cpg/sg125_2_cif.got.tgz:2603.got - 2010.05.20 11:54:10.
