data_PCOD9562977
_publ_section_title
;
Structure prediction by ZEFSAII (Michael W. Deem and Ramdas Pophale) SiO2 
 PCOD9562977
Probable space group: P 4/N B M
;
_chemical_formula_sum "Si O2"
_cell_formula_units_Z 120
_cell_length_a 25.810882
_cell_length_b 25.810882
_cell_length_c 12.801616
_cell_angle_alpha 90.000000
_cell_angle_beta 90.000000
_cell_angle_gamma 90.000000
_cell_volume 8528.457441
_symmetry_space_group_name_H-M "P 4/N B M"
_symmetry_group_IT_number 125
_space_group.IT_coordinate_system_code '2'
_symmetry_cell_setting 'tetragonal'
loop_
_space_group_symop_operation_xyz
x,y,z
1/2-y,x,z
1/2-x,1/2-y,z
y,1/2-x,z
x,1/2-y,-z
1/2-x,y,-z
y,x,-z
1/2-y,1/2-x,-z
-x,-y,-z
1/2+y,-x,-z
1/2+x,1/2+y,-z
-y,1/2+x,-z
-x,1/2+y,z
1/2+x,-y,z
-y,-x,z
1/2+y,1/2+x,z
loop_
_atom_site_type_symbol
_atom_site_label
_atom_site_fract_x
_atom_site_fract_y
_atom_site_fract_z
Si Si1 0.748423 0.165893 0.705322
Si Si2 0.891317 0.019663 0.192575
Si Si3 0.394556 0.750000 0.500000
Si Si4 0.920096 0.991250 0.562841
Si Si5 0.872681 0.461714 0.040034
Si Si6 0.565914 0.976615 0.203575
Si Si7 0.879551 0.290429 0.093945
Si Si8 0.353527 0.557843 0.589962
O O1 0.787210 0.212791 0.727443
O O2 0.691025 0.191025 0.700394
O O3 0.765737 0.141589 0.596479
O O4 0.757963 0.126575 0.799589
O O5 0.935791 0.064210 0.194510
O O6 0.857416 0.032040 0.295110
O O7 0.922943 0.965649 0.196582
O O8 0.863689 0.023558 0.080634
O O9 0.426096 0.797367 0.450529
O O10 0.967131 0.032870 0.566748
O O11 0.876517 0.018060 0.494283
O O12 0.907554 0.979565 0.682840
O O13 0.942393 0.942393 0.500000
O O14 0.918590 0.418590 0.039342
O O15 0.894857 0.508381 0.110834
O O16 0.823100 0.432470 0.087209
O O17 0.521328 0.021328 0.200517
O O18 0.833054 0.333054 0.086434
O O19 0.875146 0.250000 0.000000
O O20 0.392080 0.607921 0.590479
#
# Coordination Sequence:
#
# PCOD9562977 Si02
#       8
#    16  16   8  16  16  16  16  16
#     4  10  21  36  50  60  73 101 146 197 245 282
#     4   9  16  28  44  63  84 108 133 162 212 271
#     4  12  24  33  46  64  86 110 140 187 238 282
#     4   9  15  26  43  63  84 107 136 172 210 258
#     4   9  18  28  42  63  85 105 132 172 217 265
#     4   9  15  25  43  64  87 107 128 163 211 262
#     4  10  21  34  47  61  78 106 145 190 235 275
#     4  10  20  31  45  63  84 112 145 181 226 276
#
# _framework density 14.070539999999999
#
# number of rings (size 3 to 8) (size 9 to 14) (size 15 to 20)
#    0.000    2.400    1.333    2.000    3.733    2.800 
#    0.000    0.000    0.000    0.000    0.000    0.000 
#    0.000    0.000    0.000    0.000    0.000    0.333 
#
# Total GULP energy -668242.698766 kJ/mol
# GULP energy per Si atom -5568.689156 kJ/mol
# Density = 1.403851 g / cm^3
# Si number density = 14.070540 Si / 1000 Ang^3
#
#
#
# Elastic Constant Matrix: (Units=GPa)
#
#
# Indices 1 2 3 4 5 6 
#
# 1 42.4747 32.0013 35.5240 0.0000 0.0000 0.0000
# 2 32.0013 42.4747 35.5240 0.0000 0.0000 0.0000
# 3 35.5240 35.5240 130.7053 0.0000 0.0000 0.0000
# 4 0.0000 0.0000 0.0000 11.1163 0.0000 0.0000
# 5 0.0000 0.0000 0.0000 0.0000 11.1163 0.0000
# 6 0.0000 0.0000 0.0000 0.0000 0.0000 5.6172
#
#
#
# Elastic Compliance Matrix: (Units=1/GPa)
#
#
# Indices 1 2 3 4 5 6 
#
# 1 0.056804 -0.038677 -0.004927 0.000000 0.000000 0.000000
# 2 -0.038677 0.056804 -0.004927 0.000000 0.000000 0.000000
# 3 -0.004927 -0.004927 0.010329 0.000000 0.000000 0.000000
# 4 0.000000 0.000000 0.000000 0.089958 0.000000 0.000000
# 5 0.000000 0.000000 0.000000 0.000000 0.089958 0.000000
# 6 0.000000 0.000000 0.000000 0.000000 0.000000 0.178025
#
#
# Mechanical properties :
#
#
# Convention : Reuss Voigt Hill
#
# Bulk Modulus (GPa) = 37.20768 46.86146 42.03457
# Shear Modulus (GPa) = 8.50491 13.07699 10.79095
#
# Velocity S-wave (km/s) = 2.46122 3.05189 2.77233
# Velocity P-wave (km/s) = 5.88030 6.76725 6.33931
#
# Compressibility (1/GPa) = 0.02687617
#
# Stress axis : x y z
#
# Youngs Moduli (GPa) = 17.60448 17.60448 96.81650
#
# Poissons Ratio (x) = 0.68088 0.47699
# Poissons Ratio (y) = 0.68088 0.47699
# Poissons Ratio (z) = 0.08673 0.08673
#
# Static dielectric constant tensor:
#      x y z
#    x 1.464740 0.000000 0.000000 
#    y 0.000000 1.464740 0.000000 
#    z 0.000000 0.000000 1.495190 
# 
# From -- ./inp_files/4408.got.cif
#   From: 2010.05.17/outbox.cif.g08.bks.cpg/sg125_3_cif.got.tgz:4408.got - 2010.05.20 11:54:10.
