data_PCOD9562747
_publ_section_title
;
Structure prediction by ZEFSAII (Michael W. Deem and Ramdas Pophale) SiO2 
 PCOD9562747
Probable space group: P 4/M C C
;
_chemical_formula_sum "Si O2"
_cell_formula_units_Z 108
_cell_length_a 14.537785
_cell_length_b 14.537785
_cell_length_c 25.442277
_cell_angle_alpha 90.000000
_cell_angle_beta 90.000000
_cell_angle_gamma 90.000000
_cell_volume 5377.153820
_symmetry_space_group_name_H-M "P 4/M C C"
_symmetry_group_IT_number 124
_symmetry_cell_setting 'tetragonal'
loop_
_space_group_symop_operation_xyz
x,y,z
-y,x,z
-x,-y,z
y,-x,z
x,-y,1/2-z
-x,y,1/2-z
y,x,1/2-z
-y,-x,1/2-z
-x,-y,-z
y,-x,-z
x,y,-z
-y,x,-z
-x,y,1/2+z
x,-y,1/2+z
-y,-x,1/2+z
y,x,1/2+z
loop_
_atom_site_type_symbol
_atom_site_label
_atom_site_fract_x
_atom_site_fract_y
_atom_site_fract_z
Si Si1 0.210272 0.675851 0.090850
Si Si2 0.993991 0.279843 0.691009
Si Si3 0.500000 0.500000 0.617935
Si Si4 0.989243 0.609828 0.587869
Si Si5 0.288611 0.510736 0.367820
Si Si6 0.799273 0.813053 0.191170
Si Si7 0.342126 0.500000 0.250000
Si Si8 0.643780 0.812317 0.556483
O O1 0.109109 0.649454 0.069984
O O2 0.261820 0.580695 0.100774
O O3 0.209347 0.723128 0.148410
O O4 0.265041 0.750657 0.057500
O O5 0.008984 0.359726 0.648894
O O6 0.075896 0.204216 0.690782
O O7 0.000000 0.318053 0.750000
O O8 0.897723 0.230537 0.678791
O O9 0.606325 0.462747 0.620686
O O10 0.000000 0.500000 0.580972
O O11 0.078610 0.655957 0.561962
O O12 0.285285 0.500942 0.304344
O O13 0.221438 0.586180 0.393095
O O14 0.778021 0.778021 0.250000
O O15 0.411939 0.411939 0.250000
O O16 0.596098 0.794455 0.500000
#
# Coordination Sequence:
#
# PCOD9562747 Si02
#       8
#    16  16   4  16  16  16   8  16
#     4  11  23  42  66  93 129 170 221 278 332 396
#     4   9  18  34  58  90 128 166 210 266 331 399
#     4  12  20  41  65  92 138 168 221 277 320 402
#     4  11  23  44  66  93 128 171 223 272 326 406
#     4  12  23  41  62  98 132 174 226 268 327 397
#     4   9  18  33  57  89 125 166 208 263 332 399
#     4  11  18  36  64  91 132 176 216 267 328 397
#     4  12  27  46  68  94 131 175 222 282 338 396
#
# _framework density 20.084976000000001
#
# number of rings (size 3 to 8) (size 9 to 14) (size 15 to 20)
#    0.000    1.259    5.926    0.000    0.000    3.852 
#    2.667    1.852    0.000    0.444    0.000    1.037 
#    0.000    0.000    0.000    0.000    0.000    0.000 
#
# Total GULP energy -601372.925927 kJ/mol
# GULP energy per Si atom -5568.267833 kJ/mol
# Density = 2.003926 g / cm^3
# Si number density = 20.084976 Si / 1000 Ang^3
#
#
#
# Elastic Constant Matrix: (Units=GPa)
#
#
# Indices 1 2 3 4 5 6 
#
# 1 112.1398 22.2529 28.0979 0.0000 0.0000 0.0000
# 2 22.2529 112.1398 28.0979 0.0000 0.0000 0.0000
# 3 28.0979 28.0979 85.3120 0.0000 0.0000 0.0000
# 4 0.0000 0.0000 0.0000 -20.9897 0.0000 0.0000
# 5 0.0000 0.0000 0.0000 0.0000 -20.9897 0.0000
# 6 0.0000 0.0000 0.0000 0.0000 0.0000 21.3692
#
#
#
# Elastic Compliance Matrix: (Units=1/GPa)
#
#
# Indices 1 2 3 4 5 6 
#
# 1 0.009877 -0.001248 -0.002842 0.000000 0.000000 0.000000
# 2 -0.001248 0.009877 -0.002842 0.000000 0.000000 0.000000
# 3 -0.002842 -0.002842 0.013594 0.000000 0.000000 0.000000
# 4 0.000000 0.000000 0.000000 -0.047642 0.000000 0.000000
# 5 0.000000 0.000000 0.000000 0.000000 -0.047642 0.000000
# 6 0.000000 0.000000 0.000000 0.000000 0.000000 0.046796
#
#
# Mechanical properties :
#
#
# Convention : Reuss Voigt Hill
#
# Bulk Modulus (GPa) = 51.32416 51.83209 51.57813
# Shear Modulus (GPa) = 958.12201 11.28748 484.70475
#
# Velocity S-wave (km/s) = 21.86481 2.37320 15.55156
# Velocity P-wave (km/s) = 25.74947 5.77684 18.66021
#
# Compressibility (1/GPa) = 0.01948400
#
# Stress axis : x y z
#
# Youngs Moduli (GPa) = 101.24333 101.24333 73.56296
#
# Poissons Ratio (x) = 0.12634 0.20907
# Poissons Ratio (y) = 0.12634 0.20907
# Poissons Ratio (z) = 0.28774 0.28774
#
# Static dielectric constant tensor:
#      x y z
#    x 1.726160 0.000000 0.000000 
#    y 0.000000 1.726160 0.000000 
#    z 0.000000 0.000000 1.739990 
# 
# From -- ./inp_files/6669.got.cif
#   From: 2010.05.17/outbox.cif.g08.bks.cpg/sg124_4_cif.got.tgz:6669.got - 2010.05.20 11:49:17.
