data_PCOD9562038
_publ_section_title
;
Structure prediction by ZEFSAII (Michael W. Deem and Ramdas Pophale) SiO2 
 PCOD9562038
Probable space group: P 4/M M M
;
_chemical_formula_sum "Si O2"
_cell_formula_units_Z 96
_cell_length_a 24.562469
_cell_length_b 24.562469
_cell_length_c 8.802844
_cell_angle_alpha 90.000000
_cell_angle_beta 90.000000
_cell_angle_gamma 90.000000
_cell_volume 5310.886801
_symmetry_space_group_name_H-M "P 4/M M M"
_symmetry_group_IT_number 123
_symmetry_cell_setting 'tetragonal'
loop_
_space_group_symop_operation_xyz
x,y,z
-y,x,z
-x,-y,z
y,-x,z
x,-y,-z
-x,y,-z
y,x,-z
-y,-x,-z
-x,-y,-z
y,-x,-z
x,y,-z
-y,x,-z
-x,y,z
x,-y,z
-y,-x,z
y,x,z
loop_
_atom_site_type_symbol
_atom_site_label
_atom_site_fract_x
_atom_site_fract_y
_atom_site_fract_z
Si Si1 0.061685 0.061685 0.815378
Si Si2 0.564121 0.888429 0.667513
Si Si3 0.881536 0.265901 0.317711
Si Si4 0.224995 0.563183 0.820259
Si Si5 0.589356 0.000000 0.167588
Si Si6 0.677532 0.231904 0.683109
Si Si7 0.717012 0.000000 0.168920
Si Si8 0.849758 0.150243 0.183268
O O1 0.105617 0.105617 0.767923
O O2 0.000000 0.074799 0.766500
O O3 0.061425 0.061425 0.000000
O O4 0.590240 0.880547 0.500000
O O5 0.500000 0.888472 0.646295
O O6 0.572868 0.838423 0.779932
O O7 0.577078 0.946067 0.738897
O O8 0.883351 0.265983 0.500000
O O9 0.830689 0.305796 0.272531
O O10 0.864945 0.207972 0.251390
O O11 0.942826 0.273732 0.254909
O O12 0.238223 0.500000 0.768592
O O13 0.249742 0.617906 0.745011
O O14 0.234031 0.564435 0.000000
O O15 0.653097 0.000000 0.147383
O O16 0.563283 0.000000 0.000000
O O17 0.675262 0.232683 0.500000
O O18 0.725652 0.274349 0.729383
O O19 0.744101 0.000000 0.000000
O O20 0.848021 0.151980 0.000000
#
# Coordination Sequence:
#
# PCOD9562038 Si02
#       8
#     8  16  16  16   8  16   8   8
#     4   8  16  32  53  78 106 134 167 214 272 333
#     4  10  20  33  50  72 100 139 183 223 268 326
#     4  11  23  41  59  80 110 146 186 232 285 339
#     4  10  21  36  55  82 114 146 184 232 283 333
#     4  11  22  34  49  72 100 131 171 226 279 326
#     4  10  21  39  61  85 115 152 196 240 283 341
#     4  11  25  40  54  77 105 135 180 228 277 339
#     4  11  22  35  58  84 108 138 175 222 275 341
#
# _framework density 18.076076
#
# number of rings (size 3 to 8) (size 9 to 14) (size 15 to 20)
#    0.000    1.750    0.833    3.750    1.167    8.667 
#    0.000    0.000    0.000    0.000    0.000    2.333 
#    0.000    0.333    0.000    3.667    0.000    2.667 
#
# Total GULP energy -534791.089432 kJ/mol
# GULP energy per Si atom -5570.740515 kJ/mol
# Density = 1.803493 g / cm^3
# Si number density = 18.076076 Si / 1000 Ang^3
#
#
#
# Elastic Constant Matrix: (Units=GPa)
#
#
# Indices 1 2 3 4 5 6 
#
# 1 104.9187 53.4989 28.6530 0.0000 0.0000 0.0000
# 2 53.4989 104.9184 28.6531 0.0000 0.0000 0.0000
# 3 28.6530 28.6531 54.1785 0.0000 0.0000 0.0000
# 4 0.0000 0.0000 0.0000 26.1762 0.0000 0.0000
# 5 0.0000 0.0000 0.0000 0.0000 26.1762 0.0000
# 6 0.0000 0.0000 0.0000 0.0000 0.0000 13.3004
#
#
#
# Elastic Compliance Matrix: (Units=1/GPa)
#
#
# Indices 1 2 3 4 5 6 
#
# 1 0.013627 -0.005821 -0.004128 0.000000 0.000000 0.000000
# 2 -0.005821 0.013627 -0.004128 0.000000 0.000000 0.000000
# 3 -0.004128 -0.004128 0.022824 0.000000 0.000000 0.000000
# 4 0.000000 0.000000 0.000000 0.038203 0.000000 0.000000
# 5 0.000000 0.000000 0.000000 0.000000 0.038203 0.000000
# 6 0.000000 0.000000 0.000000 0.000000 0.000000 0.075186
#
#
# Mechanical properties :
#
#
# Convention : Reuss Voigt Hill
#
# Bulk Modulus (GPa) = 45.61463 53.95841 49.78652
# Shear Modulus (GPa) = 21.08540 23.34460 22.21500
#
# Velocity S-wave (km/s) = 3.41908 3.59759 3.50947
# Velocity P-wave (km/s) = 6.39347 6.86822 6.63509
#
# Compressibility (1/GPa) = 0.02192279
#
# Stress axis : x y z
#
# Youngs Moduli (GPa) = 73.38496 73.38463 43.81345
#
# Poissons Ratio (x) = 0.42717 0.18087
# Poissons Ratio (y) = 0.42718 0.18087
# Poissons Ratio (z) = 0.30295 0.30295
#
# Static dielectric constant tensor:
#      x y z
#    x 1.589280 0.000000 0.000000 
#    y 0.000000 1.589280 0.000000 
#    z 0.000000 0.000000 1.635500 
# 
# From -- ./inp_files/1743.got.cif
#   From: 2010.05.17/outbox.cif.g08.bks.cpg/sg123_1_cif.got.tgz:1743.got - 2010.05.20 11:43:04.
