data_PCOD9562040
_publ_section_title
;
Structure prediction by ZEFSAII (Michael W. Deem and Ramdas Pophale) SiO2 
 PCOD9562040
Probable space group: P 4/M M M
;
_chemical_formula_sum "Si O2"
_cell_formula_units_Z 56
_cell_length_a 19.669628
_cell_length_b 19.669628
_cell_length_c 9.126896
_cell_angle_alpha 90.000000
_cell_angle_beta 90.000000
_cell_angle_gamma 90.000000
_cell_volume 3531.143726
_symmetry_space_group_name_H-M "P 4/M M M"
_symmetry_group_IT_number 123
_symmetry_cell_setting 'tetragonal'
loop_
_space_group_symop_operation_xyz
x,y,z
-y,x,z
-x,-y,z
y,-x,z
x,-y,-z
-x,y,-z
y,x,-z
-y,-x,-z
-x,-y,-z
y,-x,-z
x,y,-z
-y,x,-z
-x,y,z
x,-y,z
-y,-x,z
y,x,z
loop_
_atom_site_type_symbol
_atom_site_label
_atom_site_fract_x
_atom_site_fract_y
_atom_site_fract_z
Si Si1 0.294396 0.819137 0.171378
Si Si2 0.579137 0.140333 0.674816
Si Si3 0.809031 0.920655 0.324596
Si Si4 0.000000 0.581902 0.165560
O O1 0.246765 0.753236 0.185144
O O2 0.365385 0.810512 0.254946
O O3 0.250736 0.880476 0.242289
O O4 0.306426 0.832717 0.000000
O O5 0.584921 0.137672 0.500000
O O6 0.500000 0.154641 0.711242
O O7 0.598303 0.067376 0.744438
O O8 0.796880 0.916836 0.500000
O O9 0.878497 0.878497 0.295003
O O10 0.813157 0.000000 0.283880
O O11 0.000000 0.500000 0.154180
O O12 0.000000 0.609744 0.000000
#
# Coordination Sequence:
#
# PCOD9562040 Si02
#       4
#    16  16  16   8
#     4  10  21  35  50  69  95 128 163 198 239 287
#     4  10  20  33  50  72  97 125 158 196 238 285
#     4   9  18  32  49  68  90 119 157 202 251 297
#     4   9  17  29  45  67  95 125 156 191 232 277
#
# _framework density 15.858884
#
# number of rings (size 3 to 8) (size 9 to 14) (size 15 to 20)
#    0.000    2.429    0.000    2.143    2.000    6.000 
#    0.000    1.429    0.000    0.000    0.000    4.000 
#    0.000    0.571    0.000    6.286    0.000    4.571 
#
# Total GULP energy -312305.109538 kJ/mol
# GULP energy per Si atom -5576.876956 kJ/mol
# Density = 1.582279 g / cm^3
# Si number density = 15.858884 Si / 1000 Ang^3
#
#
#
# Elastic Constant Matrix: (Units=GPa)
#
#
# Indices 1 2 3 4 5 6 
#
# 1 91.9632 31.0007 50.2301 0.0000 0.0000 0.0000
# 2 31.0007 91.9632 50.2301 0.0000 0.0000 0.0000
# 3 50.2301 50.2301 79.4191 0.0000 0.0000 0.0000
# 4 0.0000 0.0000 0.0000 22.2633 0.0000 0.0000
# 5 0.0000 0.0000 0.0000 0.0000 22.2633 0.0000
# 6 0.0000 0.0000 0.0000 0.0000 0.0000 11.7180
#
#
#
# Elastic Compliance Matrix: (Units=1/GPa)
#
#
# Indices 1 2 3 4 5 6 
#
# 1 0.016616 0.000212 -0.010643 0.000000 0.000000 0.000000
# 2 0.000212 0.016616 -0.010643 0.000000 0.000000 0.000000
# 3 -0.010643 -0.010643 0.026054 0.000000 0.000000 0.000000
# 4 0.000000 0.000000 0.000000 0.044917 0.000000 0.000000
# 5 0.000000 0.000000 0.000000 0.000000 0.044917 0.000000
# 6 0.000000 0.000000 0.000000 0.000000 0.000000 0.085339
#
#
# Mechanical properties :
#
#
# Convention : Reuss Voigt Hill
#
# Bulk Modulus (GPa) = 58.35133 58.47413 58.41273
# Shear Modulus (GPa) = 17.71050 20.04122 18.87586
#
# Velocity S-wave (km/s) = 3.34541 3.55874 3.45373
# Velocity P-wave (km/s) = 7.19697 7.33742 7.26754
#
# Compressibility (1/GPa) = 0.01713757
#
# Stress axis : x y z
#
# Youngs Moduli (GPa) = 60.18445 60.18445 38.38173
#
# Poissons Ratio (x) = -0.01276 0.40849
# Poissons Ratio (y) = -0.01276 0.40849
# Poissons Ratio (z) = 0.64054 0.64054
#
# Static dielectric constant tensor:
#      x y z
#    x 1.537770 0.000000 0.000000 
#    y 0.000000 1.537770 0.000000 
#    z 0.000000 0.000000 1.531550 
# 
# From -- ./inp_files/582.got.cif
#   From: 2010.05.17/outbox.cif.g08.bks.cpg/sg123_1_cif.got.tgz:582.got - 2010.05.20 11:43:04.
