data_PCOD9562638
_publ_section_title
;
Structure prediction by ZEFSAII (Michael W. Deem and Ramdas Pophale) SiO2 
 PCOD9562638
Probable space group: P 4/M C C
;
_chemical_formula_sum "Si O2"
_cell_formula_units_Z 104
_cell_length_a 20.352556
_cell_length_b 20.352556
_cell_length_c 15.754289
_cell_angle_alpha 90.000000
_cell_angle_beta 90.000000
_cell_angle_gamma 90.000000
_cell_volume 6525.844555
_symmetry_space_group_name_H-M "P 4/M C C"
_symmetry_group_IT_number 124
_symmetry_cell_setting 'tetragonal'
loop_
_space_group_symop_operation_xyz
x,y,z
-y,x,z
-x,-y,z
y,-x,z
x,-y,1/2-z
-x,y,1/2-z
y,x,1/2-z
-y,-x,1/2-z
-x,-y,-z
y,-x,-z
x,y,-z
-y,x,-z
-x,y,1/2+z
x,-y,1/2+z
-y,-x,1/2+z
y,x,1/2+z
loop_
_atom_site_type_symbol
_atom_site_label
_atom_site_fract_x
_atom_site_fract_y
_atom_site_fract_z
Si Si1 0.637451 0.398541 0.163308
Si Si2 0.921565 0.578430 0.245913
Si Si3 0.591514 0.440372 0.500000
Si Si4 0.379172 0.175665 0.602005
Si Si5 0.156879 0.629381 0.096342
Si Si6 0.258756 0.506501 0.901355
Si Si7 0.723439 0.284987 0.100282
O O1 0.599134 0.400867 0.250000
O O2 0.680366 0.463548 0.148946
O O3 0.687469 0.337759 0.158934
O O4 0.589956 0.381558 0.085587
O O5 0.905546 0.500000 0.250000
O O6 0.887037 0.608858 0.161969
O O7 0.892732 0.615336 0.328086
O O8 0.000000 0.584156 0.250000
O O9 0.585382 0.517028 0.500000
O O10 0.385600 0.162451 0.500000
O O11 0.438710 0.225619 0.626992
O O12 0.310398 0.214523 0.615888
O O13 0.205763 0.566026 0.099147
O O14 0.200167 0.695566 0.110009
O O15 0.129685 0.631225 0.000000
O O16 0.277278 0.497064 0.000000
O O17 0.709517 0.300117 0.000000
#
# Coordination Sequence:
#
# PCOD9562638 Si02
#       7
#    16  16   8  16  16  16  16
#     4  11  22  34  54  74  87 116 156 197 256 312
#     4  11  23  35  50  73 102 133 171 210 249 301
#     4  11  26  44  50  54  88 124 151 203 251 315
#     4  10  21  34  54  79  99 125 164 209 252 298
#     4   9  18  35  52  70  98 131 162 202 257 306
#     4   9  17  33  52  71  95 122 153 198 250 303
#     4   9  19  34  53  76  99 120 157 205 253 301
#
# _framework density 15.936635000000001
#
# number of rings (size 3 to 8) (size 9 to 14) (size 15 to 20)
#    0.000    2.077    3.077    0.923    6.462    1.231 
#    0.000    2.308    0.000    0.000    0.000    0.000 
#    0.000    0.000    0.000    0.000    0.000    6.154 
#
# Total GULP energy -580064.450119 kJ/mol
# GULP energy per Si atom -5577.542790 kJ/mol
# Density = 1.590036 g / cm^3
# Si number density = 15.936635 Si / 1000 Ang^3
#
#
#
# Elastic Constant Matrix: (Units=GPa)
#
#
# Indices 1 2 3 4 5 6 
#
# 1 66.5890 27.0249 42.0281 0.0000 0.0000 0.0000
# 2 27.0249 66.5889 42.0279 0.0000 0.0000 0.0000
# 3 42.0281 42.0279 103.8820 0.0000 0.0000 0.0000
# 4 0.0000 0.0000 0.0000 19.9636 0.0000 0.0000
# 5 0.0000 0.0000 0.0000 0.0000 19.9636 0.0000
# 6 0.0000 0.0000 0.0000 0.0000 0.0000 16.4018
#
#
#
# Elastic Compliance Matrix: (Units=1/GPa)
#
#
# Indices 1 2 3 4 5 6 
#
# 1 0.021026 -0.004249 -0.006787 0.000000 0.000000 0.000000
# 2 -0.004249 0.021026 -0.006787 0.000000 0.000000 0.000000
# 3 -0.006787 -0.006787 0.015118 0.000000 0.000000 0.000000
# 4 0.000000 0.000000 0.000000 0.050091 0.000000 0.000000
# 5 0.000000 0.000000 0.000000 0.000000 0.050091 0.000000
# 6 0.000000 0.000000 0.000000 0.000000 0.000000 0.060969
#
#
# Mechanical properties :
#
#
# Convention : Reuss Voigt Hill
#
# Bulk Modulus (GPa) = 46.46418 51.02464 48.74441
# Shear Modulus (GPa) = 19.14652 19.66439 19.40546
#
# Velocity S-wave (km/s) = 3.46990 3.51652 3.49329
# Velocity P-wave (km/s) = 6.72849 6.96955 6.85008
#
# Compressibility (1/GPa) = 0.02152195
#
# Stress axis : x y z
#
# Youngs Moduli (GPa) = 47.56008 47.56009 66.14501
#
# Poissons Ratio (x) = 0.20210 0.44895
# Poissons Ratio (y) = 0.20210 0.44895
# Poissons Ratio (z) = 0.32281 0.32281
#
# Static dielectric constant tensor:
#      x y z
#    x 1.542050 0.000000 0.000000 
#    y 0.000000 1.542050 0.000000 
#    z 0.000000 0.000000 1.691360 
# 
# From -- ./inp_files/3425.got.cif
#   From: 2010.05.17/outbox.cif.g08.bks.cpg/sg124_2_cif.got.tgz:3425.got - 2010.05.20 11:49:17.
