data_PCOD9562522
_publ_section_title
;
Structure prediction by ZEFSAII (Michael W. Deem and Ramdas Pophale) SiO2 
 PCOD9562522
Probable space group: P 4/M C C
;
_chemical_formula_sum "Si O2"
_cell_formula_units_Z 96
_cell_length_a 25.779683
_cell_length_b 25.779683
_cell_length_c 8.872638
_cell_angle_alpha 90.000000
_cell_angle_beta 90.000000
_cell_angle_gamma 90.000000
_cell_volume 5896.684727
_symmetry_space_group_name_H-M "P 4/M C C"
_symmetry_group_IT_number 124
_symmetry_cell_setting 'tetragonal'
loop_
_space_group_symop_operation_xyz
x,y,z
-y,x,z
-x,-y,z
y,-x,z
x,-y,1/2-z
-x,y,1/2-z
y,x,1/2-z
-y,-x,1/2-z
-x,-y,-z
y,-x,-z
x,y,-z
-y,x,-z
-x,y,1/2+z
x,-y,1/2+z
-y,-x,1/2+z
y,x,1/2+z
loop_
_atom_site_type_symbol
_atom_site_label
_atom_site_fract_x
_atom_site_fract_y
_atom_site_fract_z
Si Si1 0.166771 0.752582 0.183085
Si Si2 0.837641 0.637770 0.180319
Si Si3 0.759448 0.052528 0.327701
Si Si4 0.443665 0.636443 0.320576
Si Si5 0.633213 0.946502 0.174302
Si Si6 0.241945 0.556555 0.819679
O O1 0.211035 0.788966 0.250000
O O2 0.171736 0.694278 0.246010
O O3 0.109577 0.772875 0.232994
O O4 0.167999 0.751241 0.000000
O O5 0.894635 0.619372 0.235230
O O6 0.794673 0.598510 0.241965
O O7 0.836415 0.641600 0.000000
O O8 0.776211 0.050572 0.500000
O O9 0.696349 0.051693 0.324639
O O10 0.777806 0.000000 0.250000
O O11 0.500000 0.625217 0.250000
O O12 0.400594 0.599407 0.250000
O O13 0.445957 0.629070 0.500000
O O14 0.431931 0.697183 0.291174
O O15 0.615012 0.000000 0.250000
O O16 0.617011 0.942879 0.000000
O O17 0.231365 0.500000 0.750000
O O18 0.233820 0.555961 0.000000
#
# Coordination Sequence:
#
# PCOD9562522 Si02
#       6
#    16  16  16  16  16  16
#     4  10  20  33  47  69 101 134 167 207 251 299
#     4  11  21  33  51  74 100 134 170 205 249 300
#     4   8  15  26  42  63  89 122 161 200 240 287
#     4  10  21  37  58  81 106 132 162 199 243 291
#     4   9  16  28  46  70  98 127 163 207 250 295
#     4  10  21  38  57  77 101 131 168 210 248 291
#
# _framework density 16.280335000000001
#
# number of rings (size 3 to 8) (size 9 to 14) (size 15 to 20)
#    0.000    2.333    0.000    4.500    0.000    7.500 
#    0.000    2.500    0.000    0.500    0.000    3.500 
#    0.000    0.333    0.000    3.667    0.000    2.833 
#
# Total GULP energy -535250.622620 kJ/mol
# GULP energy per Si atom -5575.527319 kJ/mol
# Density = 1.624328 g / cm^3
# Si number density = 16.280335 Si / 1000 Ang^3
#
#
#
# Elastic Constant Matrix: (Units=GPa)
#
#
# Indices 1 2 3 4 5 6 
#
# 1 102.7203 84.3778 64.7916 0.0000 0.0000 0.0000
# 2 84.3778 102.7185 64.7928 0.0000 0.0000 0.0000
# 3 64.7916 64.7928 111.1938 0.0000 0.0000 0.0000
# 4 0.0000 0.0000 0.0000 26.6626 0.0000 0.0000
# 5 0.0000 0.0000 0.0000 0.0000 26.6620 0.0000
# 6 0.0000 0.0000 0.0000 0.0000 0.0000 -6.4242
#
#
#
# Elastic Compliance Matrix: (Units=1/GPa)
#
#
# Indices 1 2 3 4 5 6 
#
# 1 0.031740 -0.022780 -0.005221 0.000000 0.000000 0.000000
# 2 -0.022780 0.031742 -0.005223 0.000000 0.000000 0.000000
# 3 -0.005221 -0.005223 0.015079 0.000000 0.000000 0.000000
# 4 0.000000 0.000000 0.000000 0.037506 0.000000 0.000000
# 5 0.000000 0.000000 0.000000 0.000000 0.037507 0.000000
# 6 0.000000 0.000000 0.000000 0.000000 0.000000 -0.155661
#
#
# Mechanical properties :
#
#
# Convention : Reuss Voigt Hill
#
# Bulk Modulus (GPa) = 82.54603 82.72855 82.63729
# Shear Modulus (GPa) = 73.10184 16.22476 44.66330
#
# Velocity S-wave (km/s) = 6.70816 3.16030 5.24342
# Velocity P-wave (km/s) = 10.52674 8.01511 9.35559
#
# Compressibility (1/GPa) = 0.01211445
#
# Stress axis : x y z
#
# Youngs Moduli (GPa) = 31.50556 31.50399 66.31846
#
# Poissons Ratio (x) = 0.71765 0.34625
# Poissons Ratio (y) = 0.71769 0.34635
# Poissons Ratio (z) = 0.16449 0.16453
#
# Static dielectric constant tensor:
#      x y z
#    x 1.536190 0.000000 0.000000 
#    y 0.000000 1.536190 0.000000 
#    z 0.000000 0.000000 1.548170 
# 
# From -- ./inp_files/1328.got.cif
#   From: 2010.05.17/outbox.cif.g08.bks.cpg/sg124_1_cif.got.tgz:1328.got - 2010.05.20 11:49:17.
