data_PCOD9562316
_publ_section_title
;
Structure prediction by ZEFSAII (Michael W. Deem and Ramdas Pophale) SiO2 
 PCOD9562316
Probable space group: P 4/M C C
;
_chemical_formula_sum "Si O2"
_cell_formula_units_Z 96
_cell_length_a 25.852816
_cell_length_b 25.852816
_cell_length_c 8.695470
_cell_angle_alpha 90.000000
_cell_angle_beta 90.000000
_cell_angle_gamma 90.000000
_cell_volume 5811.774720
_symmetry_space_group_name_H-M "P 4/M C C"
_symmetry_group_IT_number 124
_symmetry_cell_setting 'tetragonal'
loop_
_space_group_symop_operation_xyz
x,y,z
-y,x,z
-x,-y,z
y,-x,z
x,-y,1/2-z
-x,y,1/2-z
y,x,1/2-z
-y,-x,1/2-z
-x,-y,-z
y,-x,-z
x,y,-z
-y,x,-z
-x,y,1/2+z
x,-y,1/2+z
-y,-x,1/2+z
y,x,1/2+z
loop_
_atom_site_type_symbol
_atom_site_label
_atom_site_fract_x
_atom_site_fract_y
_atom_site_fract_z
Si Si1 0.448531 0.138535 0.683749
Si Si2 0.862279 0.056529 0.815946
Si Si3 0.745031 0.553453 0.316878
Si Si4 0.337037 0.743688 0.815626
Si Si5 0.055659 0.251475 0.317205
Si Si6 0.134219 0.667057 0.683806
O O1 0.500000 0.111941 0.750000
O O2 0.453458 0.145216 0.500000
O O3 0.446782 0.195050 0.762057
O O4 0.391890 0.115630 0.714522
O O5 0.901180 0.098821 0.750000
O O6 0.804087 0.067480 0.758427
O O7 0.876063 0.000000 0.750000
O O8 0.863636 0.055663 0.000000
O O9 0.722092 0.500000 0.250000
O O10 0.742277 0.552782 0.500000
O O11 0.724831 0.607791 0.251148
O O12 0.291034 0.708967 0.750000
O O13 0.329859 0.804657 0.775959
O O14 0.338796 0.740547 0.000000
O O15 0.051504 0.245346 0.500000
O O16 0.099643 0.292091 0.272641
O O17 0.000000 0.268256 0.250000
O O18 0.130041 0.675955 0.500000
#
# Coordination Sequence:
#
# PCOD9562316 Si02
#       6
#    16  16  16  16  16  16
#     4   9  16  27  45  69  97 126 160 203 248 294
#     4  11  22  39  60  83 109 135 165 201 244 291
#     4  10  17  27  44  65  92 127 167 206 245 292
#     4  10  20  33  48  70 102 135 166 204 250 298
#     4  11  22  37  57  78 101 132 169 208 248 292
#     4   9  19  34  50  71 100 133 168 206 248 298
#
# _framework density 16.518191000000002
#
# number of rings (size 3 to 8) (size 9 to 14) (size 15 to 20)
#    0.000    2.000    0.000    8.500    0.000    4.833 
#    0.000    2.500    0.000    0.500    0.000    3.500 
#    0.000    0.333    0.000    3.333    0.000    2.167 
#
# Total GULP energy -535384.127101 kJ/mol
# GULP energy per Si atom -5576.917991 kJ/mol
# Density = 1.648059 g / cm^3
# Si number density = 16.518191 Si / 1000 Ang^3
#
#
#
# Elastic Constant Matrix: (Units=GPa)
#
#
# Indices 1 2 3 4 5 6 
#
# 1 86.2788 72.1021 58.5130 0.0000 0.0000 0.0000
# 2 72.1021 86.2650 58.5097 0.0000 0.0000 0.0000
# 3 58.5130 58.5097 134.5176 0.0000 0.0000 0.0000
# 4 0.0000 0.0000 0.0000 27.3240 0.0000 0.0000
# 5 0.0000 0.0000 0.0000 0.0000 27.3246 0.0000
# 6 0.0000 0.0000 0.0000 0.0000 0.0000 -6.4462
#
#
#
# Elastic Compliance Matrix: (Units=1/GPa)
#
#
# Indices 1 2 3 4 5 6 
#
# 1 0.039935 -0.030634 -0.004047 0.000000 0.000000 0.000000
# 2 -0.030634 0.039942 -0.004048 0.000000 0.000000 0.000000
# 3 -0.004047 -0.004048 0.010955 0.000000 0.000000 0.000000
# 4 0.000000 0.000000 0.000000 0.036598 0.000000 0.000000
# 5 0.000000 0.000000 0.000000 0.000000 0.036597 0.000000
# 6 0.000000 0.000000 0.000000 0.000000 0.000000 -0.155131
#
#
# Mechanical properties :
#
#
# Convention : Reuss Voigt Hill
#
# Bulk Modulus (GPa) = 74.76546 76.14566 75.45556
# Shear Modulus (GPa) = 55.05869 17.50291 36.28080
#
# Velocity S-wave (km/s) = 5.77966 3.25870 4.69168
# Velocity P-wave (km/s) = 9.48157 7.76898 8.66767
#
# Compressibility (1/GPa) = 0.01337516
#
# Stress axis : x y z
#
# Youngs Moduli (GPa) = 25.04062 25.03615 91.28352
#
# Poissons Ratio (x) = 0.76696 0.36939
# Poissons Ratio (y) = 0.76709 0.36951
# Poissons Ratio (z) = 0.10133 0.10135
#
# Static dielectric constant tensor:
#      x y z
#    x 1.563990 0.000000 0.000000 
#    y 0.000000 1.563990 0.000000 
#    z 0.000000 0.000000 1.550230 
# 
# From -- ./inp_files/1396.got.cif
#   From: 2010.05.17/outbox.cif.g08.bks.cpg/sg124_1_cif.got.tgz:1396.got - 2010.05.20 11:49:17.
