data_PCOD9562370
_publ_section_title
;
Structure prediction by ZEFSAII (Michael W. Deem and Ramdas Pophale) SiO2 
 PCOD9562370
Probable space group: P 4/M C C
;
_chemical_formula_sum "Si O2"
_cell_formula_units_Z 96
_cell_length_a 14.424070
_cell_length_b 14.424070
_cell_length_c 31.884945
_cell_angle_alpha 90.000000
_cell_angle_beta 90.000000
_cell_angle_gamma 90.000000
_cell_volume 6633.783822
_symmetry_space_group_name_H-M "P 4/M C C"
_symmetry_group_IT_number 124
_symmetry_cell_setting 'tetragonal'
loop_
_space_group_symop_operation_xyz
x,y,z
-y,x,z
-x,-y,z
y,-x,z
x,-y,1/2-z
-x,y,1/2-z
y,x,1/2-z
-y,-x,1/2-z
-x,-y,-z
y,-x,-z
x,y,-z
-y,x,-z
-x,y,1/2+z
x,-y,1/2+z
-y,-x,1/2+z
y,x,1/2+z
loop_
_atom_site_type_symbol
_atom_site_label
_atom_site_fract_x
_atom_site_fract_y
_atom_site_fract_z
Si Si1 0.633464 0.421871 0.000000
Si Si2 0.026123 0.853132 0.449139
Si Si3 0.610854 0.389147 0.750000
Si Si4 0.890348 0.488193 0.050272
Si Si5 0.599385 0.377604 0.657962
Si Si6 0.153340 0.696594 0.449380
Si Si7 0.746287 0.651425 0.420328
O O1 0.622499 0.531950 0.000000
O O2 0.685676 0.390422 0.958470
O O3 0.023067 0.853563 0.500000
O O4 0.059583 0.750911 0.436956
O O5 0.927941 0.895522 0.435876
O O6 0.624865 0.500000 0.750000
O O7 0.636894 0.350471 0.704402
O O8 0.845921 0.588023 0.061380
O O9 0.841543 0.405954 0.075795
O O10 0.000000 0.500000 0.056969
O O11 0.877021 0.471540 0.000000
O O12 0.624795 0.486856 0.654021
O O13 0.637012 0.310754 0.622182
O O14 0.160676 0.700969 0.500000
O O15 0.240021 0.750565 0.430176
#
# Coordination Sequence:
#
# PCOD9562370 Si02
#       7
#     8  16   8  16  16  16  16
#     4  11  20  28  39  54  82 115 151 188 212 244
#     4   8  15  27  43  59  73  93 137 190 232 263
#     4   7  12  24  40  60  84 108 132 169 218 260
#     4  10  21  33  42  56  83 120 158 194 232 272
#     4   9  16  26  42  62  86 112 140 175 216 259
#     4  10  19  29  43  57  80 112 148 184 220 263
#     4  12  20  29  42  58  86 115 156 182 218 263
#
# _framework density 14.471378
#
# number of rings (size 3 to 8) (size 9 to 14) (size 15 to 20)
#    0.000    2.333    1.667    4.500    2.333    1.333 
#    0.000    0.000    0.000    0.000    0.000    0.000 
#    0.000   16.667    0.000    0.000    0.000    2.500 
#
# Total GULP energy -534531.396422 kJ/mol
# GULP energy per Si atom -5568.035379 kJ/mol
# Density = 1.443844 g / cm^3
# Si number density = 14.471378 Si / 1000 Ang^3
#
#
#
# Elastic Constant Matrix: (Units=GPa)
#
#
# Indices 1 2 3 4 5 6 
#
# 1 63.4295 -10.3219 12.2832 0.0000 0.0000 0.0000
# 2 -10.3219 63.4298 12.2832 0.0000 0.0000 0.0000
# 3 12.2832 12.2832 69.1424 0.0000 0.0000 0.0000
# 4 0.0000 0.0000 0.0000 4.6554 0.0000 0.0000
# 5 0.0000 0.0000 0.0000 0.0000 4.6556 0.0000
# 6 0.0000 0.0000 0.0000 0.0000 0.0000 34.8382
#
#
#
# Elastic Compliance Matrix: (Units=1/GPa)
#
#
# Indices 1 2 3 4 5 6 
#
# 1 0.017037 0.003478 -0.003645 0.000000 0.000000 0.000000
# 2 0.003478 0.017037 -0.003645 0.000000 0.000000 0.000000
# 3 -0.003645 -0.003645 0.015758 0.000000 0.000000 0.000000
# 4 0.000000 0.000000 0.000000 0.214806 0.000000 0.000000
# 5 0.000000 0.000000 0.000000 0.000000 0.214794 0.000000
# 6 0.000000 0.000000 0.000000 0.000000 0.000000 0.028704
#
#
# Mechanical properties :
#
#
# Convention : Reuss Voigt Hill
#
# Bulk Modulus (GPa) = 23.69074 24.94338 24.31706
# Shear Modulus (GPa) = 9.43701 20.94699 15.19200
#
# Velocity S-wave (km/s) = 2.55643 3.80870 3.24357
# Velocity P-wave (km/s) = 5.01199 6.05106 5.55587
#
# Compressibility (1/GPa) = 0.04221058
#
# Stress axis : x y z
#
# Youngs Moduli (GPa) = 58.69459 58.69493 63.46050
#
# Poissons Ratio (x) = -0.20416 0.23129
# Poissons Ratio (y) = -0.20416 0.23129
# Poissons Ratio (z) = 0.21392 0.21392
#
# Static dielectric constant tensor:
#      x y z
#    x 1.506170 0.000000 0.000000 
#    y 0.000000 1.506170 0.000000 
#    z 0.000000 0.000000 1.462190 
# 
# From -- ./inp_files/7224.got.cif
#   From: 2010.05.17/outbox.cif.g08.bks.cpg/sg124_4_cif.got.tgz:7224.got - 2010.05.20 11:49:17.
