data_PCOD9562616
_publ_section_title
;
Structure prediction by ZEFSAII (Michael W. Deem and Ramdas Pophale) SiO2 
 PCOD9562616
Probable space group: P 4/M C C
;
_chemical_formula_sum "Si O2"
_cell_formula_units_Z 96
_cell_length_a 16.030472
_cell_length_b 16.030472
_cell_length_c 20.503316
_cell_angle_alpha 90.000000
_cell_angle_beta 90.000000
_cell_angle_gamma 90.000000
_cell_volume 5268.860800
_symmetry_space_group_name_H-M "P 4/M C C"
_symmetry_group_IT_number 124
_symmetry_cell_setting 'tetragonal'
loop_
_space_group_symop_operation_xyz
x,y,z
-y,x,z
-x,-y,z
y,-x,z
x,-y,1/2-z
-x,y,1/2-z
y,x,1/2-z
-y,-x,1/2-z
-x,-y,-z
y,-x,-z
x,y,-z
-y,x,-z
-x,y,1/2+z
x,-y,1/2+z
-y,-x,1/2+z
y,x,1/2+z
loop_
_atom_site_type_symbol
_atom_site_label
_atom_site_fract_x
_atom_site_fract_y
_atom_site_fract_z
Si Si1 0.402061 0.726604 0.750797
Si Si2 0.015522 0.138693 0.429347
Si Si3 0.262470 0.605489 0.500000
Si Si4 0.279439 0.998507 0.329003
Si Si5 0.820087 0.673853 0.372652
Si Si6 0.741291 0.405642 0.000000
Si Si7 0.186618 0.688179 0.372451
O O1 0.500000 0.730265 0.750000
O O2 0.366924 0.633077 0.750000
O O3 0.367542 0.772666 0.687502
O O4 0.361216 0.771570 0.812740
O O5 0.020883 0.185458 0.500000
O O6 0.017565 0.191311 0.363990
O O7 0.088204 0.070706 0.429712
O O8 0.272075 0.505336 0.500000
O O9 0.351084 0.655436 0.500000
O O10 0.211455 0.638165 0.437284
O O11 0.306404 0.088600 0.356972
O O12 0.278059 0.000000 0.250000
O O13 0.329124 0.917755 0.355428
O O14 0.793416 0.624696 0.437191
O O15 0.778916 0.767184 0.377490
#
# Coordination Sequence:
#
# PCOD9562616 Si02
#       7
#    16  16   8  16  16   8  16
#     4  10  20  38  61  85 118 152 190 244 305 366
#     4   9  20  36  54  81 115 149 195 261 318 355
#     4  10  22  42  67  93 122 154 192 244 307 370
#     4  12  23  37  58  85 117 165 216 247 287 352
#     4  10  22  39  59  88 123 158 198 251 303 347
#     4  10  22  42  67  93 122 154 192 244 307 370
#     4  10  22  39  59  88 123 158 198 251 303 347
#
# _framework density 18.220257
#
# number of rings (size 3 to 8) (size 9 to 14) (size 15 to 20)
#    0.000    1.833    1.667    2.500    2.333    2.333 
#    0.000    5.833    0.000    6.000    0.000    0.000 
#    0.000    0.000    0.000    0.000    0.000    0.000 
#
# Total GULP energy -535279.088754 kJ/mol
# GULP energy per Si atom -5575.823841 kJ/mol
# Density = 1.817879 g / cm^3
# Si number density = 18.220257 Si / 1000 Ang^3
#
#
#
# Elastic Constant Matrix: (Units=GPa)
#
#
# Indices 1 2 3 4 5 6 
#
# 1 102.4676 25.5147 37.3348 0.0000 0.0000 0.0000
# 2 25.5147 102.4710 37.3354 0.0000 0.0000 0.0000
# 3 37.3348 37.3354 155.4959 0.0000 0.0000 0.0000
# 4 0.0000 0.0000 0.0000 22.7567 0.0000 0.0000
# 5 0.0000 0.0000 0.0000 0.0000 22.7559 0.0000
# 6 0.0000 0.0000 0.0000 0.0000 0.0000 8.7236
#
#
#
# Elastic Compliance Matrix: (Units=1/GPa)
#
#
# Indices 1 2 3 4 5 6 
#
# 1 0.011041 -0.001954 -0.002182 0.000000 0.000000 0.000000
# 2 -0.001954 0.011040 -0.002182 0.000000 0.000000 0.000000
# 3 -0.002182 -0.002182 0.007479 0.000000 0.000000 0.000000
# 4 0.000000 0.000000 0.000000 0.043943 0.000000 0.000000
# 5 0.000000 0.000000 0.000000 0.000000 0.043945 0.000000
# 6 0.000000 0.000000 0.000000 0.000000 0.000000 0.114631
#
#
# Mechanical properties :
#
#
# Convention : Reuss Voigt Hill
#
# Bulk Modulus (GPa) = 59.08522 62.31160 60.69841
# Shear Modulus (GPa) = 19.97162 28.19722 24.08442
#
# Velocity S-wave (km/s) = 3.31436 3.93819 3.63967
# Velocity P-wave (km/s) = 6.86625 7.41299 7.14485
#
# Compressibility (1/GPa) = 0.01692471
#
# Stress axis : x y z
#
# Youngs Moduli (GPa) = 90.57402 90.57713 133.71337
#
# Poissons Ratio (x) = 0.17700 0.29172
# Poissons Ratio (y) = 0.17700 0.29171
# Poissons Ratio (z) = 0.19760 0.19761
#
# Static dielectric constant tensor:
#      x y z
#    x 1.630290 0.000000 0.000000 
#    y 0.000000 1.630280 0.000000 
#    z 0.000000 0.000000 1.593590 
# 
# From -- ./inp_files/5383.got.cif
#   From: 2010.05.17/outbox.cif.g08.bks.cpg/sg124_3_cif.got.tgz:5383.got - 2010.05.20 11:49:17.
