data_PCOD9562360
_publ_section_title
;
Structure prediction by ZEFSAII (Michael W. Deem and Ramdas Pophale) SiO2 
 PCOD9562360
Probable space group: P 4/M C C
;
_chemical_formula_sum "Si O2"
_cell_formula_units_Z 96
_cell_length_a 17.066418
_cell_length_b 17.066418
_cell_length_c 18.209116
_cell_angle_alpha 90.000000
_cell_angle_beta 90.000000
_cell_angle_gamma 90.000000
_cell_volume 5303.634895
_symmetry_space_group_name_H-M "P 4/M C C"
_symmetry_group_IT_number 124
_symmetry_cell_setting 'tetragonal'
loop_
_space_group_symop_operation_xyz
x,y,z
-y,x,z
-x,-y,z
y,-x,z
x,-y,1/2-z
-x,y,1/2-z
y,x,1/2-z
-y,-x,1/2-z
-x,-y,-z
y,-x,-z
x,y,-z
-y,x,-z
-x,y,1/2+z
x,-y,1/2+z
-y,-x,1/2+z
y,x,1/2+z
loop_
_atom_site_type_symbol
_atom_site_label
_atom_site_fract_x
_atom_site_fract_y
_atom_site_fract_z
Si Si1 0.048480 0.884468 0.411590
Si Si2 0.587048 0.299845 0.226322
Si Si3 0.834321 0.688253 0.304783
Si Si4 0.472815 0.911324 0.335029
Si Si5 0.752325 0.845004 0.353015
Si Si6 0.205959 0.590451 0.414902
O O1 0.048562 0.883556 0.500000
O O2 0.087453 0.807045 0.382622
O O3 0.959772 0.900693 0.387578
O O4 0.500000 0.284940 0.250000
O O5 0.615253 0.384748 0.250000
O O6 0.640696 0.240633 0.273587
O O7 0.594373 0.279470 0.140709
O O8 0.890954 0.620610 0.337814
O O9 0.800415 0.761881 0.350927
O O10 0.866810 0.726023 0.229708
O O11 0.500000 0.900343 0.250000
O O12 0.521882 0.850730 0.384598
O O13 0.500000 0.000000 0.354260
O O14 0.674200 0.835198 0.400889
O O15 0.224602 0.579407 0.500000
#
# Coordination Sequence:
#
# PCOD9562360 Si02
#       6
#    16  16  16  16  16  16
#     4   9  19  37  56  74 107 154 193 234 301 367
#     4  11  19  38  62  82 113 149 195 230 276 352
#     4  10  18  36  57  80 108 153 193 235 283 349
#     4  11  21  37  58  83 117 162 204 233 292 366
#     4  10  19  34  57  86 111 142 198 252 291 346
#     4  11  21  35  58  88 118 152 190 244 299 341
#
# _framework density 18.100791999999998
#
# number of rings (size 3 to 8) (size 9 to 14) (size 15 to 20)
#    0.000    1.667    8.333    1.000    0.000    1.833 
#    0.000    6.667    0.000    4.000    0.000    1.167 
#    0.000    0.000    0.000    0.000    0.000    0.000 
#
# Total GULP energy -535118.985184 kJ/mol
# GULP energy per Si atom -5574.156096 kJ/mol
# Density = 1.805959 g / cm^3
# Si number density = 18.100792 Si / 1000 Ang^3
#
#
#
# Elastic Constant Matrix: (Units=GPa)
#
#
# Indices 1 2 3 4 5 6 
#
# 1 64.6264 33.2131 18.2677 0.0000 0.0000 0.0000
# 2 33.2131 64.6224 18.2666 0.0000 0.0000 0.0000
# 3 18.2677 18.2666 57.3569 0.0000 0.0000 0.0000
# 4 0.0000 0.0000 0.0000 13.9296 0.0000 0.0000
# 5 0.0000 0.0000 0.0000 0.0000 13.9285 0.0000
# 6 0.0000 0.0000 0.0000 0.0000 0.0000 23.6569
#
#
#
# Elastic Compliance Matrix: (Units=1/GPa)
#
#
# Indices 1 2 3 4 5 6 
#
# 1 0.021718 -0.010117 -0.003695 0.000000 0.000000 0.000000
# 2 -0.010117 0.021719 -0.003695 0.000000 0.000000 0.000000
# 3 -0.003695 -0.003695 0.019788 0.000000 0.000000 0.000000
# 4 0.000000 0.000000 0.000000 0.071789 0.000000 0.000000
# 5 0.000000 0.000000 0.000000 0.000000 0.071795 0.000000
# 6 0.000000 0.000000 0.000000 0.000000 0.000000 0.042271
#
#
# Mechanical properties :
#
#
# Convention : Reuss Voigt Hill
#
# Bulk Modulus (GPa) = 35.44725 36.23339 35.84032
# Shear Modulus (GPa) = 17.03595 18.09356 17.56475
#
# Velocity S-wave (km/s) = 3.07118 3.16508 3.11848
# Velocity P-wave (km/s) = 5.67468 5.78083 5.72800
#
# Compressibility (1/GPa) = 0.02821093
#
# Stress axis : x y z
#
# Youngs Moduli (GPa) = 46.04574 46.04310 50.53563
#
# Poissons Ratio (x) = 0.46584 0.18671
# Poissons Ratio (y) = 0.46587 0.18670
# Poissons Ratio (z) = 0.17013 0.17011
#
# Static dielectric constant tensor:
#      x y z
#    x 1.655820 0.000000 0.000000 
#    y 0.000000 1.655820 0.000000 
#    z 0.000000 0.000000 1.607760 
# 
# From -- ./inp_files/4258.got.cif
#   From: 2010.05.17/outbox.cif.g08.bks.cpg/sg124_3_cif.got.tgz:4258.got - 2010.05.20 11:49:17.
