data_PCOD9562918
_publ_section_title
;
Structure prediction by ZEFSAII (Michael W. Deem and Ramdas Pophale) SiO2 
 PCOD9562918
Probable space group: P 4/N B M
;
_chemical_formula_sum "Si O2"
_cell_formula_units_Z 64
_cell_length_a 20.265056
_cell_length_b 20.265056
_cell_length_c 8.582250
_cell_angle_alpha 90.000000
_cell_angle_beta 90.000000
_cell_angle_gamma 90.000000
_cell_volume 3524.494017
_symmetry_space_group_name_H-M "P 4/N B M"
_symmetry_group_IT_number 125
_space_group.IT_coordinate_system_code '2'
_symmetry_cell_setting 'tetragonal'
loop_
_space_group_symop_operation_xyz
x,y,z
1/2-y,x,z
1/2-x,1/2-y,z
y,1/2-x,z
x,1/2-y,-z
1/2-x,y,-z
y,x,-z
1/2-y,1/2-x,-z
-x,-y,-z
1/2+y,-x,-z
1/2+x,1/2+y,-z
-y,1/2+x,-z
-x,1/2+y,z
1/2+x,-y,z
-y,-x,z
1/2+y,1/2+x,z
loop_
_atom_site_type_symbol
_atom_site_label
_atom_site_fract_x
_atom_site_fract_y
_atom_site_fract_z
Si Si1 0.900011 0.289540 0.161594
Si Si2 0.534330 0.579528 0.837491
Si Si3 0.168006 0.555705 0.341487
Si Si4 0.990580 0.120538 0.659496
O O1 0.834525 0.334525 0.172237
O O2 0.908410 0.235230 0.296159
O O3 0.960845 0.339208 0.193873
O O4 0.900821 0.250000 0.000000
O O5 0.477141 0.522860 0.840237
O O6 0.496113 0.645826 0.792226
O O7 0.586257 0.558783 0.703671
O O8 0.572256 0.572256 0.000000
O O9 0.112513 0.612513 0.346455
O O10 0.163762 0.516617 0.504390
O O11 0.939991 0.060010 0.634183
#
# Coordination Sequence:
#
# PCOD9562918 Si02
#       4
#    16  16  16  16
#     4  11  22  34  47  65  94 133 174 211 246 291
#     4   9  16  28  48  71  92 115 150 201 258 306
#     4  10  19  31  48  68  92 125 164 205 250 301
#     4   9  18  32  48  67  91 120 159 208 258 302
#
# _framework density 18.158633999999999
#
# number of rings (size 3 to 8) (size 9 to 14) (size 15 to 20)
#    0.000    2.250    0.000    3.750    0.000    8.750 
#    0.000    1.250    0.000    9.000    0.000    0.000 
#    0.000    1.000    0.000   10.000    0.000    8.250 
#
# Total GULP energy -356636.608937 kJ/mol
# GULP energy per Si atom -5572.447015 kJ/mol
# Density = 1.811730 g / cm^3
# Si number density = 18.158634 Si / 1000 Ang^3
#
#
#
# Elastic Constant Matrix: (Units=GPa)
#
#
# Indices 1 2 3 4 5 6 
#
# 1 33.4231 38.1963 13.4351 0.0000 0.0000 0.0000
# 2 38.1963 33.4231 13.4351 0.0000 0.0000 0.0000
# 3 13.4351 13.4351 74.3225 0.0000 0.0000 0.0000
# 4 0.0000 0.0000 0.0000 18.2520 0.0000 0.0000
# 5 0.0000 0.0000 0.0000 0.0000 18.2520 0.0000
# 6 0.0000 0.0000 0.0000 0.0000 0.0000 19.6454
#
#
#
# Elastic Compliance Matrix: (Units=1/GPa)
#
#
# Indices 1 2 3 4 5 6 
#
# 1 -0.097263 0.112242 -0.002708 0.000000 0.000000 0.000000
# 2 0.112242 -0.097263 -0.002708 0.000000 0.000000 0.000000
# 3 -0.002708 -0.002708 0.014434 0.000000 0.000000 0.000000
# 4 0.000000 0.000000 0.000000 0.054788 0.000000 0.000000
# 5 0.000000 0.000000 0.000000 0.000000 0.054788 0.000000
# 6 0.000000 0.000000 0.000000 0.000000 0.000000 0.050903
#
#
# Mechanical properties :
#
#
# Convention : Reuss Voigt Hill
#
# Bulk Modulus (GPa) = 29.79710 30.14465 29.97087
# Shear Modulus (GPa) = -22.51456 16.30337 -3.10560
#
# Velocity S-wave (km/s) = -3.52502 2.99963 -1.30919
# Velocity P-wave (km/s) = 0.35028 5.35106 3.77565
#
# Compressibility (1/GPa) = 0.03356032
#
# Stress axis : x y z
#
# Youngs Moduli (GPa) = -10.28140 -10.28140 69.28188
#
# Poissons Ratio (x) = 1.15400 0.18759
# Poissons Ratio (y) = 1.15400 0.18759
# Poissons Ratio (z) = -0.02784 -0.02784
#
# Static dielectric constant tensor:
#      x y z
#    x 1.626820 0.000000 0.000000 
#    y 0.000000 1.626820 0.000000 
#    z 0.000000 0.000000 1.721110 
# 
# From -- ./inp_files/2336.got.cif
#   From: 2010.05.17/outbox.cif.g08.bks.cpg/sg125_2_cif.got.tgz:2336.got - 2010.05.20 11:54:10.
