data_PCOD9562288
_publ_section_title
;
Structure prediction by ZEFSAII (Michael W. Deem and Ramdas Pophale) SiO2 
 PCOD9562288
Probable space group: P 4/M M M
;
_chemical_formula_sum "Si O2"
_cell_formula_units_Z 96
_cell_length_a 21.000000
_cell_length_b 21.000000
_cell_length_c 12.000000
_cell_angle_alpha 90.000000
_cell_angle_beta 90.000000
_cell_angle_gamma 90.000000
_cell_volume 5292.000000
_symmetry_space_group_name_H-M "P 4/M M M"
_symmetry_group_IT_number 123
_symmetry_cell_setting 'tetragonal'
loop_
_space_group_symop_operation_xyz
x,y,z
-y,x,z
-x,-y,z
y,-x,z
x,-y,-z
-x,y,-z
y,x,-z
-y,-x,-z
-x,-y,-z
y,-x,-z
x,y,-z
-y,x,-z
-x,y,z
x,-y,z
-y,-x,z
y,x,z
loop_
_atom_site_type_symbol
_atom_site_label
_atom_site_fract_x
_atom_site_fract_y
_atom_site_fract_z
Si Si1 0.574370 0.931289 0.134893
Si Si2 0.201825 0.637693 0.866159
Si Si3 0.847763 0.254270 0.275028
Si Si4 0.820830 0.928414 0.874713
Si Si5 0.807990 0.302812 0.500000
Si Si6 0.272279 0.428351 0.500000
Si Si7 0.573831 0.322761 0.251770
O O1 0.500000 0.928795 0.165002
O O2 0.606572 0.865714 0.168504
O O3 0.600615 0.000000 0.173423
O O4 0.577664 0.931794 0.000000
O O5 0.194629 0.707029 0.813346
O O6 0.260443 0.601146 0.810111
O O7 0.207939 0.637998 0.000000
O O8 0.810364 0.189637 0.303014
O O9 0.911441 0.233239 0.213738
O O10 0.848770 0.291987 0.389439
O O11 0.878413 0.878413 0.866285
O O12 0.844161 0.000000 0.861329
O O13 0.793826 0.921618 0.000000
O O14 0.747722 0.252279 0.500000
O O15 0.778752 0.372611 0.500000
O O16 0.245045 0.500000 0.500000
O O17 0.311391 0.421647 0.385287
O O18 0.500000 0.331633 0.223354
O O19 0.617715 0.382286 0.221407
#
# Coordination Sequence:
#
# PCOD9562288 Si02
#       7
#    16  16  16  16   8   8  16
#     4   8  15  29  47  67  94 127 162 201 245 297
#     4  11  21  32  51  79 109 139 175 220 273 334
#     4  10  20  33  52  77 105 136 174 223 279 332
#     4   9  18  33  53  80 116 155 194 235 278 327
#     4  10  18  34  57  77 103 137 172 216 276 342
#     4  10  20  36  59  84 107 133 174 229 284 340
#     4  11  23  38  57  80 107 141 183 233 287 344
#
# _framework density 18.14059
#
# number of rings (size 3 to 8) (size 9 to 14) (size 15 to 20)
#    0.000    2.167    1.667    2.750    0.000    4.000 
#    0.000    2.917    0.000    1.500    0.000    1.750 
#    0.000    8.667    0.000    0.000    0.000    0.000 
#
# Total GULP energy -534786.215436 kJ/mol
# GULP energy per Si atom -5570.689744 kJ/mol
# Density = 1.809930 g / cm^3
# Si number density = 18.140590 Si / 1000 Ang^3
#
#
#
# Elastic Constant Matrix: (Units=GPa)
#
#
# Indices 1 2 3 4 5 6 
#
# 1 67.6105 30.5646 34.2465 0.0000 0.0000 0.0000
# 2 30.5646 67.6107 34.2469 0.0000 0.0000 0.0000
# 3 34.2465 34.2469 72.6856 0.0000 0.0000 0.0000
# 4 0.0000 0.0000 0.0000 18.5055 0.0000 0.0000
# 5 0.0000 0.0000 0.0000 0.0000 18.5056 0.0000
# 6 0.0000 0.0000 0.0000 0.0000 0.0000-1164.2781
#
#
#
# Elastic Compliance Matrix: (Units=1/GPa)
#
#
# Indices 1 2 3 4 5 6 
#
# 1 0.021084 -0.005910 -0.007149 0.000000 0.000000 0.000000
# 2 -0.005910 0.021084 -0.007149 0.000000 0.000000 0.000000
# 3 -0.007149 -0.007149 0.020495 0.000000 0.000000 0.000000
# 4 0.000000 0.000000 0.000000 0.054038 0.000000 0.000000
# 5 0.000000 0.000000 0.000000 0.000000 0.054038 0.000000
# 6 0.000000 0.000000 0.000000 0.000000 0.000000 -0.000859
#
#
# Mechanical properties :
#
#
# Convention : Reuss Voigt Hill
#
# Bulk Modulus (GPa) = 44.95372 45.11365 45.03369
# Shear Modulus (GPa) = 22.96628 -218.19681 -97.61526
#
# Velocity S-wave (km/s) = 3.56197 -10.97917 -7.34352
# Velocity P-wave (km/s) = 6.46153 11.65332 6.85742
#
# Compressibility (1/GPa) = 0.02224510
#
# Stress axis : x y z
#
# Youngs Moduli (GPa) = 47.43035 47.43023 48.79290
#
# Poissons Ratio (x) = 0.28031 0.34883
# Poissons Ratio (y) = 0.28031 0.34884
# Poissons Ratio (z) = 0.33909 0.33909
#
# Static dielectric constant tensor:
#      x y z
#    x 1.644320 0.000000 0.000000 
#    y 0.000000 1.644320 0.000000 
#    z 0.000000 0.000000 1.698800 
# 
# From -- ./inp_files/3179.got.cif
#   From: 2010.05.17/outbox.ucp.g08.bks.cvg/sg123_2_cif.got.tgz:3179.got - 2010.06.11 11:35:48.
