data_PCOD9562844
_publ_section_title
;
Structure prediction by ZEFSAII (Michael W. Deem and Ramdas Pophale) SiO2 
 PCOD9562844
Probable space group: P 4/M C C
;
_chemical_formula_sum "Si O2"
_cell_formula_units_Z 80
_cell_length_a 18.774930
_cell_length_b 18.774930
_cell_length_c 14.092642
_cell_angle_alpha 90.000000
_cell_angle_beta 90.000000
_cell_angle_gamma 90.000000
_cell_volume 4967.628070
_symmetry_space_group_name_H-M "P 4/M C C"
_symmetry_group_IT_number 124
_symmetry_cell_setting 'tetragonal'
loop_
_space_group_symop_operation_xyz
x,y,z
-y,x,z
-x,-y,z
y,-x,z
x,-y,1/2-z
-x,y,1/2-z
y,x,1/2-z
-y,-x,1/2-z
-x,-y,-z
y,-x,-z
x,y,-z
-y,x,-z
-x,y,1/2+z
x,-y,1/2+z
-y,-x,1/2+z
y,x,1/2+z
loop_
_atom_site_type_symbol
_atom_site_label
_atom_site_fract_x
_atom_site_fract_y
_atom_site_fract_z
Si Si1 0.887663 0.964478 0.114073
Si Si2 0.364794 0.889151 0.611133
Si Si3 0.328196 0.942041 0.889097
Si Si4 0.116403 0.232061 0.726551
Si Si5 0.081377 0.516557 0.384875
O O1 0.817249 0.937226 0.165433
O O2 0.955345 0.913458 0.137913
O O3 0.877994 0.961903 0.000000
O O4 0.361467 0.871480 0.500000
O O5 0.299927 0.856094 0.667475
O O6 0.445886 0.876518 0.645552
O O7 0.347576 0.974259 0.619394
O O8 0.265310 0.919651 0.820028
O O9 0.401995 0.902619 0.859689
O O10 0.312252 0.928408 0.000000
O O11 0.181207 0.181207 0.750000
O O12 0.082035 0.515733 0.500000
O O13 0.000000 0.500000 0.356699
#
# Coordination Sequence:
#
# PCOD9562844 Si02
#       5
#    16  16  16  16  16
#     4   9  21  41  58  65  75 108 162 221 267 292
#     4   9  18  33  52  72  91 113 149 196 243 287
#     4   9  19  34  51  70  94 121 147 186 239 290
#     4  12  25  32  46  69  96 121 157 196 243 297
#     4   7  12  28  52  73  91 112 142 183 232 287
#
# _framework density 16.104265000000002
#
# number of rings (size 3 to 8) (size 9 to 14) (size 15 to 20)
#    0.000    2.800    0.000    4.200    5.600    2.400 
#    0.000    4.000    0.000    0.000    0.000    1.400 
#    0.000    0.000    0.000    0.000    0.000    8.000 
#
# Total GULP energy -446492.811863 kJ/mol
# GULP energy per Si atom -5581.160148 kJ/mol
# Density = 1.606761 g / cm^3
# Si number density = 16.104265 Si / 1000 Ang^3
#
#
#
# Elastic Constant Matrix: (Units=GPa)
#
#
# Indices 1 2 3 4 5 6 
#
# 1 85.8467 31.5496 32.5244 0.0000 0.0000 0.0000
# 2 31.5496 85.8467 32.5244 0.0000 0.0000 0.0000
# 3 32.5244 32.5244 66.7493 0.0000 0.0000 0.0000
# 4 0.0000 0.0000 0.0000 13.5340 0.0000 0.0000
# 5 0.0000 0.0000 0.0000 0.0000 13.5340 0.0000
# 6 0.0000 0.0000 0.0000 0.0000 0.0000 9.1934
#
#
#
# Elastic Compliance Matrix: (Units=1/GPa)
#
#
# Indices 1 2 3 4 5 6 
#
# 1 0.015043 -0.003374 -0.005686 0.000000 0.000000 0.000000
# 2 -0.003374 0.015043 -0.005686 0.000000 0.000000 0.000000
# 3 -0.005686 -0.005686 0.020522 0.000000 0.000000 0.000000
# 4 0.000000 0.000000 0.000000 0.073888 0.000000 0.000000
# 5 0.000000 0.000000 0.000000 0.000000 0.073888 0.000000
# 6 0.000000 0.000000 0.000000 0.000000 0.000000 0.108774
#
#
# Mechanical properties :
#
#
# Convention : Reuss Voigt Hill
#
# Bulk Modulus (GPa) = 47.35576 47.95995 47.65785
# Shear Modulus (GPa) = 14.54807 16.70856 15.62832
#
# Velocity S-wave (km/s) = 3.00887 3.22456 3.11858
# Velocity P-wave (km/s) = 6.44520 6.61130 6.52878
#
# Compressibility (1/GPa) = 0.02111676
#
# Stress axis : x y z
#
# Youngs Moduli (GPa) = 66.47667 66.47667 48.72764
#
# Poissons Ratio (x) = 0.22431 0.27705
# Poissons Ratio (y) = 0.22431 0.27705
# Poissons Ratio (z) = 0.37796 0.37796
#
# Static dielectric constant tensor:
#      x y z
#    x 1.574210 0.000000 0.000000 
#    y 0.000000 1.574210 0.000000 
#    z 0.000000 0.000000 1.620370 
# 
# From -- ./inp_files/3080.got.cif
#   From: 2010.05.17/outbox.cif.g08.bks.cpg/sg124_2_cif.got.tgz:3080.got - 2010.05.20 11:49:17.
