data_PCOD9562545
_publ_section_title
;
Structure prediction by ZEFSAII (Michael W. Deem and Ramdas Pophale) SiO2 
 PCOD9562545
Probable space group: P 4/M C C
;
_chemical_formula_sum "Si O2"
_cell_formula_units_Z 96
_cell_length_a 24.627932
_cell_length_b 24.627932
_cell_length_c 8.845934
_cell_angle_alpha 90.000000
_cell_angle_beta 90.000000
_cell_angle_gamma 90.000000
_cell_volume 5365.368885
_symmetry_space_group_name_H-M "P 4/M C C"
_symmetry_group_IT_number 124
_symmetry_cell_setting 'tetragonal'
loop_
_space_group_symop_operation_xyz
x,y,z
-y,x,z
-x,-y,z
y,-x,z
x,-y,1/2-z
-x,y,1/2-z
y,x,1/2-z
-y,-x,1/2-z
-x,-y,-z
y,-x,-z
x,y,-z
-y,x,-z
-x,y,1/2+z
x,-y,1/2+z
-y,-x,1/2+z
y,x,1/2+z
loop_
_atom_site_type_symbol
_atom_site_label
_atom_site_fract_x
_atom_site_fract_y
_atom_site_fract_z
Si Si1 0.556417 0.059668 0.318996
Si Si2 0.850168 0.766585 0.819345
Si Si3 0.852489 0.352987 0.181835
Si Si4 0.557437 0.640375 0.819479
Si Si5 0.144062 0.060024 0.318438
Si Si6 0.232775 0.557501 0.181226
O O1 0.500000 0.081844 0.250000
O O2 0.550619 0.056924 0.500000
O O3 0.608611 0.096094 0.283525
O O4 0.563318 0.000000 0.250000
O O5 0.799250 0.799250 0.750000
O O6 0.854011 0.705724 0.757128
O O7 0.903532 0.802710 0.781593
O O8 0.844900 0.765701 0.000000
O O9 0.801684 0.390448 0.230477
O O10 0.850014 0.345784 0.000000
O O11 0.500000 0.622721 0.750000
O O12 0.604959 0.604959 0.750000
O O13 0.564693 0.703908 0.781296
O O14 0.556125 0.635077 0.000000
O O15 0.093246 0.093246 0.250000
O O16 0.139041 0.057323 0.500000
O O17 0.147600 0.000000 0.250000
O O18 0.214735 0.500000 0.250000
O O19 0.227151 0.553427 0.000000
#
# Coordination Sequence:
#
# PCOD9562545 Si02
#       6
#    16  16  16  16  16  16
#     4  10  20  34  53  77 109 145 181 225 273 321
#     4  10  22  39  58  80 109 145 182 223 270 318
#     4  10  21  36  55  80 108 141 182 225 268 320
#     4  10  20  35  54  76 103 133 167 208 256 311
#     4  10  21  38  60  86 115 147 183 223 268 316
#     4   9  19  35  54  77 105 136 173 219 269 319
#
# _framework density 17.892526
#
# number of rings (size 3 to 8) (size 9 to 14) (size 15 to 20)
#    0.000    2.167    0.000    3.000    0.000    6.333 
#    0.000    6.667    0.000    0.000    0.000    0.000 
#    0.000    0.000    0.000    0.000    0.000    0.000 
#
# Total GULP energy -535924.122457 kJ/mol
# GULP energy per Si atom -5582.542942 kJ/mol
# Density = 1.785180 g / cm^3
# Si number density = 17.892526 Si / 1000 Ang^3
#
#
#
# Elastic Constant Matrix: (Units=GPa)
#
#
# Indices 1 2 3 4 5 6 
#
# 1 160.4720 94.4961 62.9541 0.0000 0.0000 0.0000
# 2 94.4961 160.4720 62.9541 0.0000 0.0000 0.0000
# 3 62.9541 62.9541 54.9115 0.0000 0.0000 0.0000
# 4 0.0000 0.0000 0.0000 30.3006 0.0000 0.0000
# 5 0.0000 0.0000 0.0000 0.0000 30.3006 0.0000
# 6 0.0000 0.0000 0.0000 0.0000 0.0000 19.5012
#
#
#
# Elastic Compliance Matrix: (Units=1/GPa)
#
#
# Indices 1 2 3 4 5 6 
#
# 1 0.012099 -0.003059 -0.010364 0.000000 0.000000 0.000000
# 2 -0.003059 0.012099 -0.010364 0.000000 0.000000 0.000000
# 3 -0.010364 -0.010364 0.041975 0.000000 0.000000 0.000000
# 4 0.000000 0.000000 0.000000 0.033003 0.000000 0.000000
# 5 0.000000 0.000000 0.000000 0.000000 0.033003 0.000000
# 6 0.000000 0.000000 0.000000 0.000000 0.000000 0.051279
#
#
# Mechanical properties :
#
#
# Convention : Reuss Voigt Hill
#
# Bulk Modulus (GPa) = 53.76645 90.74045 72.25345
# Shear Modulus (GPa) = 21.07665 26.38391 23.73028
#
# Velocity S-wave (km/s) = 3.43586 3.84419 3.64575
# Velocity P-wave (km/s) = 6.77164 8.39809 7.62834
#
# Compressibility (1/GPa) = 0.01859896
#
# Stress axis : x y z
#
# Youngs Moduli (GPa) = 82.65462 82.65462 23.82361
#
# Poissons Ratio (x) = 0.25280 0.24691
# Poissons Ratio (y) = 0.25280 0.24691
# Poissons Ratio (z) = 0.85664 0.85664
#
# Static dielectric constant tensor:
#      x y z
#    x 1.598610 0.000000 0.000000 
#    y 0.000000 1.598610 0.000000 
#    z 0.000000 0.000000 1.600090 
# 
# From -- ./inp_files/1393.got.cif
#   From: 2010.05.17/outbox.cif.g08.bks.cpg/sg124_1_cif.got.tgz:1393.got - 2010.05.20 11:49:17.
