data_PCOD9562140
_publ_section_title
;
Structure prediction by ZEFSAII (Michael W. Deem and Ramdas Pophale) SiO2 
 PCOD9562140
Probable space group: P 4/M M M
;
_chemical_formula_sum "Si O2"
_cell_formula_units_Z 80
_cell_length_a 23.471385
_cell_length_b 23.471385
_cell_length_c 7.535952
_cell_angle_alpha 90.000000
_cell_angle_beta 90.000000
_cell_angle_gamma 90.000000
_cell_volume 4151.600523
_symmetry_space_group_name_H-M "P 4/M M M"
_symmetry_group_IT_number 123
_symmetry_cell_setting 'tetragonal'
loop_
_space_group_symop_operation_xyz
x,y,z
-y,x,z
-x,-y,z
y,-x,z
x,-y,-z
-x,y,-z
y,x,-z
-y,-x,-z
-x,-y,-z
y,-x,-z
x,y,-z
-y,x,-z
-x,y,z
x,-y,z
-y,-x,z
y,x,z
loop_
_atom_site_type_symbol
_atom_site_label
_atom_site_fract_x
_atom_site_fract_y
_atom_site_fract_z
Si Si1 0.000000 0.090741 0.712383
Si Si2 0.775575 0.000000 0.787079
Si Si3 0.685910 0.908989 0.786976
Si Si4 0.775096 0.315112 0.713193
Si Si5 0.561008 0.781544 0.715183
Si Si6 0.916063 0.561571 0.208214
O O1 0.055560 0.055560 0.777115
O O2 0.000000 0.085948 0.500000
O O3 0.000000 0.157642 0.748594
O O4 0.739486 0.054556 0.722277
O O5 0.771999 0.000000 0.000000
O O6 0.692739 0.841949 0.751711
O O7 0.624110 0.930828 0.718144
O O8 0.682941 0.915408 0.000000
O O9 0.770223 0.315215 0.500000
O O10 0.734858 0.265143 0.783027
O O11 0.757192 0.378470 0.775908
O O12 0.561469 0.781841 0.500000
O O13 0.500000 0.756419 0.772209
O O14 0.561278 0.847336 0.775986
O O15 0.934878 0.500000 0.283378
O O16 0.931522 0.561133 0.000000
#
# Coordination Sequence:
#
# PCOD9562140 Si02
#       6
#     8   8  16  16  16  16
#     4   9  20  40  62  79  91 104 130 172 217 258
#     4  10  21  35  50  70  96 121 142 168 206 254
#     4   9  18  31  44  61  88 118 146 176 210 249
#     4   9  17  28  42  62  87 112 140 176 215 254
#     4   8  13  22  37  56  78 106 139 173 209 247
#     4   8  13  23  40  59  79 108 146 181 208 234
#
# _framework density 19.269676
#
# number of rings (size 3 to 8) (size 9 to 14) (size 15 to 20)
#    0.000    3.300    0.000    0.300    0.000    2.400 
#    0.000    5.000    0.000    3.000    0.000    0.000 
#    0.000   17.200    0.000    5.600    0.000    0.000 
#
# Total GULP energy -445373.169171 kJ/mol
# GULP energy per Si atom -5567.164615 kJ/mol
# Density = 1.922582 g / cm^3
# Si number density = 19.269676 Si / 1000 Ang^3
#
#
#
# Elastic Constant Matrix: (Units=GPa)
#
#
# Indices 1 2 3 4 5 6 
#
# 1 163.3055 98.6458 5.9650 0.0000 0.0000 0.0000
# 2 98.6458 163.3055 5.9650 0.0000 0.0000 0.0000
# 3 5.9650 5.9650 51.2081 0.0000 0.0000 0.0000
# 4 0.0000 0.0000 0.0000 3.6600 0.0000 0.0000
# 5 0.0000 0.0000 0.0000 0.0000 3.6600 0.0000
# 6 0.0000 0.0000 0.0000 0.0000 0.0000 -46.6353
#
#
#
# Elastic Compliance Matrix: (Units=1/GPa)
#
#
# Indices 1 2 3 4 5 6 
#
# 1 0.009652 -0.005814 -0.000447 0.000000 0.000000 0.000000
# 2 -0.005814 0.009652 -0.000447 0.000000 0.000000 0.000000
# 3 -0.000447 -0.000447 0.019632 0.000000 0.000000 0.000000
# 4 0.000000 0.000000 0.000000 0.273226 0.000000 0.000000
# 5 0.000000 0.000000 0.000000 0.000000 0.273226 0.000000
# 6 0.000000 0.000000 0.000000 0.000000 0.000000 -0.021443
#
#
# Mechanical properties :
#
#
# Convention : Reuss Voigt Hill
#
# Bulk Modulus (GPa) = 39.18526 66.55232 52.86879
# Shear Modulus (GPa) = 8.53434 9.95314 9.24374
#
# Velocity S-wave (km/s) = 2.10678 2.27517 2.19259
# Velocity P-wave (km/s) = 5.12809 6.44315 5.82287
#
# Compressibility (1/GPa) = 0.02551980
#
# Stress axis : x y z
#
# Youngs Moduli (GPa) = 103.60846 103.60846 50.93646
#
# Poissons Ratio (x) = 0.60236 0.02277
# Poissons Ratio (y) = 0.60236 0.02277
# Poissons Ratio (z) = 0.04632 0.04632
#
# Static dielectric constant tensor:
#      x y z
#    x 1.704570 0.000000 0.000000 
#    y 0.000000 1.704570 0.000000 
#    z 0.000000 0.000000 1.735750 
# 
# From -- ./inp_files/1477.got.cif
#   From: 2010.05.17/outbox.cif.g08.bks.cpg/sg123_1_cif.got.tgz:1477.got - 2010.05.20 11:43:04.
