data_PCOD9562972
_publ_section_title
;
Structure prediction by ZEFSAII (Michael W. Deem and Ramdas Pophale) SiO2 
 PCOD9562972
Probable space group: P 4/N B M
;
_chemical_formula_sum "Si O2"
_cell_formula_units_Z 112
_cell_length_a 31.288929
_cell_length_b 31.288929
_cell_length_c 5.494226
_cell_angle_alpha 90.000000
_cell_angle_beta 90.000000
_cell_angle_gamma 90.000000
_cell_volume 5378.831200
_symmetry_space_group_name_H-M "P 4/N B M"
_symmetry_group_IT_number 125
_space_group.IT_coordinate_system_code '2'
_symmetry_cell_setting 'tetragonal'
loop_
_space_group_symop_operation_xyz
x,y,z
1/2-y,x,z
1/2-x,1/2-y,z
y,1/2-x,z
x,1/2-y,-z
1/2-x,y,-z
y,x,-z
1/2-y,1/2-x,-z
-x,-y,-z
1/2+y,-x,-z
1/2+x,1/2+y,-z
-y,1/2+x,-z
-x,1/2+y,z
1/2+x,-y,z
-y,-x,z
1/2+y,1/2+x,z
loop_
_atom_site_type_symbol
_atom_site_label
_atom_site_fract_x
_atom_site_fract_y
_atom_site_fract_z
Si Si1 0.337140 0.590950 0.961710
Si Si2 0.129785 0.438836 0.181331
Si Si3 0.372425 0.699780 0.464962
Si Si4 0.363959 0.160433 0.253116
Si Si5 0.700493 0.949239 0.457152
Si Si6 0.996401 0.432867 0.557776
Si Si7 0.637510 0.493916 0.807503
O O1 0.379061 0.620940 0.966513
O O2 0.310244 0.604874 0.204330
O O3 0.349648 0.541655 0.997964
O O4 0.314901 0.600131 0.702020
O O5 0.121555 0.389576 0.238631
O O6 0.177557 0.443569 0.282352
O O7 0.100086 0.471192 0.324747
O O8 0.124533 0.460554 0.921227
O O9 0.363504 0.750000 0.500000
O O10 0.329646 0.670355 0.468730
O O11 0.336523 0.163478 0.500000
O O12 0.406333 0.188992 0.297780
O O13 0.337326 0.162675 0.000000
O O14 0.750000 0.953217 0.500000
O O15 0.678846 0.991702 0.345855
O O16 0.028882 0.471119 0.500000
O O17 0.956354 0.456354 0.686344
O O18 0.978046 0.403787 0.339966
#
# Coordination Sequence:
#
# PCOD9562972 Si02
#       7
#    16  16  16  16  16  16  16
#     4  10  23  40  61  88 125 169 213 263 326 401
#     4  10  21  37  59  81 116 164 207 261 316 377
#     4  10  22  43  67  95 124 160 210 270 336 408
#     4  10  19  38  62  85 116 166 205 249 317 375
#     4  10  22  38  57  89 123 158 212 269 315 379
#     4  10  22  36  54  83 114 152 215 276 322 369
#     4  11  22  38  57  82 117 168 217 264 322 383
#
# _framework density 20.822368999999998
#
# number of rings (size 3 to 8) (size 9 to 14) (size 15 to 20)
#    0.000    1.857    1.429    3.000    4.000    2.429 
#    2.571    1.429    0.000    2.571    0.000    0.000 
#    0.000   23.143    0.000   46.286    0.000    2.143 
#
# Total GULP energy -623487.446318 kJ/mol
# GULP energy per Si atom -5566.852199 kJ/mol
# Density = 2.077498 g / cm^3
# Si number density = 20.822369 Si / 1000 Ang^3
#
#
#
# Elastic Constant Matrix: (Units=GPa)
#
#
# Indices 1 2 3 4 5 6 
#
# 1 102.0350 5.1817 6.0244 0.0000 0.0000 0.0000
# 2 5.1817 102.0352 6.0256 0.0000 0.0000 0.0000
# 3 6.0244 6.0256 85.0839 0.0000 0.0000 0.0000
# 4 0.0000 0.0000 0.0000 17.4931 0.0000 0.0000
# 5 0.0000 0.0000 0.0000 0.0000 17.4935 0.0000
# 6 0.0000 0.0000 0.0000 0.0000 0.0000 14.1641
#
#
#
# Elastic Compliance Matrix: (Units=1/GPa)
#
#
# Indices 1 2 3 4 5 6 
#
# 1 0.009863 -0.000462 -0.000666 0.000000 0.000000 0.000000
# 2 -0.000462 0.009863 -0.000666 0.000000 0.000000 0.000000
# 3 -0.000666 -0.000666 0.011847 0.000000 0.000000 0.000000
# 4 0.000000 0.000000 0.000000 0.057165 0.000000 0.000000
# 5 0.000000 0.000000 0.000000 0.000000 0.057164 0.000000
# 6 0.000000 0.000000 0.000000 0.000000 0.000000 0.070601
#
#
# Mechanical properties :
#
#
# Convention : Reuss Voigt Hill
#
# Bulk Modulus (GPa) = 35.72987 35.95751 35.84369
# Shear Modulus (GPa) = 21.79411 27.95831 24.87621
#
# Velocity S-wave (km/s) = 3.23873 3.66827 3.46017
# Velocity P-wave (km/s) = 5.58413 5.93698 5.76326
#
# Compressibility (1/GPa) = 0.02798779
#
# Stress axis : x y z
#
# Youngs Moduli (GPa) = 101.38590 101.38595 84.40674
#
# Poissons Ratio (x) = 0.04680 0.05619
# Poissons Ratio (y) = 0.04680 0.05620
# Poissons Ratio (z) = 0.06749 0.06751
#
# Static dielectric constant tensor:
#      x y z
#    x 1.655680 0.000000 0.000000 
#    y 0.000000 1.655660 0.000000 
#    z 0.000000 0.000000 1.711240 
# 
# From -- ./inp_files/1346.got.cif
#   From: 2010.05.17/outbox.cif.g08.bks.cpg/sg125_1_cif.got.tgz:1346.got - 2010.05.20 11:54:10.
