data_PCOD9562506
_publ_section_title
;
Structure prediction by ZEFSAII (Michael W. Deem and Ramdas Pophale) SiO2 
 PCOD9562506
Probable space group: P 4/M C C
;
_chemical_formula_sum "Si O2"
_cell_formula_units_Z 56
_cell_length_a 16.269986
_cell_length_b 16.269986
_cell_length_c 9.265592
_cell_angle_alpha 90.000000
_cell_angle_beta 90.000000
_cell_angle_gamma 90.000000
_cell_volume 2452.717508
_symmetry_space_group_name_H-M "P 4/M C C"
_symmetry_group_IT_number 124
_symmetry_cell_setting 'tetragonal'
loop_
_space_group_symop_operation_xyz
x,y,z
-y,x,z
-x,-y,z
y,-x,z
x,-y,1/2-z
-x,y,1/2-z
y,x,1/2-z
-y,-x,1/2-z
-x,-y,-z
y,-x,-z
x,y,-z
-y,x,-z
-x,y,1/2+z
x,-y,1/2+z
-y,-x,1/2+z
y,x,1/2+z
loop_
_atom_site_type_symbol
_atom_site_label
_atom_site_fract_x
_atom_site_fract_y
_atom_site_fract_z
Si Si1 0.079393 0.187639 0.337775
Si Si2 0.637168 0.756113 0.335850
Si Si3 0.369197 0.541534 0.500000
Si Si4 0.081624 0.614595 0.835785
O O1 0.157570 0.157570 0.250000
O O2 0.080700 0.155403 0.500000
O O3 0.076582 0.286021 0.344393
O O4 0.000000 0.158624 0.250000
O O5 0.709514 0.709514 0.250000
O O6 0.665193 0.780013 0.500000
O O7 0.567586 0.688004 0.366789
O O8 0.601996 0.834495 0.252394
O O9 0.400265 0.449141 0.500000
O O10 0.000000 0.588489 0.750000
O O11 0.084963 0.582280 0.000000
#
# Coordination Sequence:
#
# PCOD9562506 Si02
#       4
#    16  16   8  16
#     4  10  20  32  47  70 104 156 211 268 329 399
#     4  10  21  36  61  96 136 182 239 295 358 433
#     4   9  22  44  70 102 144 188 240 301 372 443
#     4  10  20  35  59  91 134 179 230 289 350 419
#
# _framework density 22.831816
#
# number of rings (size 3 to 8) (size 9 to 14) (size 15 to 20)
#    0.857    1.286    0.000    3.429    0.000    7.143 
#    0.000    2.857    0.000    0.000    0.000    6.000 
#    0.000    0.000    0.000    0.000    0.000    0.000 
#
# Total GULP energy -312984.698836 kJ/mol
# GULP energy per Si atom -5589.012479 kJ/mol
# Density = 2.277985 g / cm^3
# Si number density = 22.831816 Si / 1000 Ang^3
#
#
#
# Elastic Constant Matrix: (Units=GPa)
#
#
# Indices 1 2 3 4 5 6 
#
# 1 126.3384 58.2749 79.4150 0.0000 0.0000 0.0000
# 2 58.2749 126.3384 79.4150 0.0000 0.0000 0.0000
# 3 79.4150 79.4150 213.0196 0.0000 0.0000 0.0000
# 4 0.0000 0.0000 0.0000 5.4435 0.0000 0.0000
# 5 0.0000 0.0000 0.0000 0.0000 5.4435 0.0000
# 6 0.0000 0.0000 0.0000 0.0000 0.0000 16.3766
#
#
#
# Elastic Compliance Matrix: (Units=1/GPa)
#
#
# Indices 1 2 3 4 5 6 
#
# 1 0.011333 -0.003359 -0.002973 0.000000 0.000000 0.000000
# 2 -0.003359 0.011333 -0.002973 0.000000 0.000000 0.000000
# 3 -0.002973 -0.002973 0.006911 0.000000 0.000000 0.000000
# 4 0.000000 0.000000 0.000000 0.183705 0.000000 0.000000
# 5 0.000000 0.000000 0.000000 0.000000 0.183705 0.000000
# 6 0.000000 0.000000 0.000000 0.000000 0.000000 0.061063
#
#
# Mechanical properties :
#
#
# Convention : Reuss Voigt Hill
#
# Bulk Modulus (GPa) = 91.17222 99.98961 95.58091
# Shear Modulus (GPa) = 10.40982 22.02548 16.21765
#
# Velocity S-wave (km/s) = 2.13758 3.10931 2.66805
# Velocity P-wave (km/s) = 6.79052 7.53521 7.17254
#
# Compressibility (1/GPa) = 0.01096825
#
# Stress axis : x y z
#
# Youngs Moduli (GPa) = 88.23553 88.23553 144.69575
#
# Poissons Ratio (x) = 0.29637 0.43017
# Poissons Ratio (y) = 0.29637 0.43017
# Poissons Ratio (z) = 0.26232 0.26232
#
# Static dielectric constant tensor:
#      x y z
#    x 1.850130 0.000000 0.000000 
#    y 0.000000 1.850130 0.000000 
#    z 0.000000 0.000000 1.835700 
# 
# From -- ./inp_files/626.got.cif
#   From: 2010.05.17/outbox.cif.g08.bks.cpg/sg124_1_cif.got.tgz:626.got - 2010.05.20 11:49:17.
