data_PCOD9562593
_publ_section_title
;
Structure prediction by ZEFSAII (Michael W. Deem and Ramdas Pophale) SiO2 
 PCOD9562593
Probable space group: P 4/M C C
;
_chemical_formula_sum "Si O2"
_cell_formula_units_Z 80
_cell_length_a 16.085120
_cell_length_b 16.085120
_cell_length_c 14.084808
_cell_angle_alpha 90.000000
_cell_angle_beta 90.000000
_cell_angle_gamma 90.000000
_cell_volume 3644.177662
_symmetry_space_group_name_H-M "P 4/M C C"
_symmetry_group_IT_number 124
_symmetry_cell_setting 'tetragonal'
loop_
_space_group_symop_operation_xyz
x,y,z
-y,x,z
-x,-y,z
y,-x,z
x,-y,1/2-z
-x,y,1/2-z
y,x,1/2-z
-y,-x,1/2-z
-x,-y,-z
y,-x,-z
x,y,-z
-y,x,-z
-x,y,1/2+z
x,-y,1/2+z
-y,-x,1/2+z
y,x,1/2+z
loop_
_atom_site_type_symbol
_atom_site_label
_atom_site_fract_x
_atom_site_fract_y
_atom_site_fract_z
Si Si1 0.789997 0.411197 0.229279
Si Si2 0.412331 0.954678 0.392031
Si Si3 0.943653 0.124059 0.116181
Si Si4 0.807479 0.246526 0.112841
Si Si5 0.668915 0.882447 0.389447
O O1 0.743844 0.500000 0.250000
O O2 0.874820 0.426191 0.171283
O O3 0.768150 0.324075 0.172397
O O4 0.818287 0.387615 0.333983
O O5 0.390000 0.930848 0.500000
O O6 0.500000 0.000000 0.394531
O O7 0.347911 0.024254 0.356783
O O8 0.898387 0.211161 0.143237
O O9 0.039536 0.106438 0.144412
O O10 0.943262 0.126078 0.000000
O O11 0.756813 0.160787 0.122983
O O12 0.804312 0.266071 0.000000
O O13 0.647912 0.884010 0.500000
#
# Coordination Sequence:
#
# PCOD9562593 Si02
#       5
#    16  16  16  16  16
#     4  12  23  36  58  84 120 162 215 262 318 385
#     4  10  20  36  58  86 118 160 210 258 314 383
#     4   8  15  30  52  79 114 157 207 259 310 362
#     4  10  22  37  57  88 123 164 211 264 323 382
#     4  10  22  38  56  80 118 159 205 261 319 372
#
# _framework density 21.952828
#
# number of rings (size 3 to 8) (size 9 to 14) (size 15 to 20)
#    0.000    2.000    2.000    2.400    2.800    0.800 
#    0.000    0.000    0.000    0.000    0.000    5.600 
#    0.000    6.400    0.000   17.600    0.000    0.000 
#
# Total GULP energy -445416.587440 kJ/mol
# GULP energy per Si atom -5567.707343 kJ/mol
# Density = 2.190286 g / cm^3
# Si number density = 21.952828 Si / 1000 Ang^3
#
#
#
# Elastic Constant Matrix: (Units=GPa)
#
#
# Indices 1 2 3 4 5 6 
#
# 1 77.7760 42.8154 24.7885 0.0000 0.0000 0.0000
# 2 42.8154 77.7760 24.7885 0.0000 0.0000 0.0000
# 3 24.7885 24.7885 63.1683 0.0000 0.0000 0.0000
# 4 0.0000 0.0000 0.0000 19.8643 0.0000 0.0000
# 5 0.0000 0.0000 0.0000 0.0000 19.8643 0.0000
# 6 0.0000 0.0000 0.0000 0.0000 0.0000 22.5259
#
#
#
# Elastic Compliance Matrix: (Units=1/GPa)
#
#
# Indices 1 2 3 4 5 6 
#
# 1 0.019246 -0.009358 -0.003880 0.000000 0.000000 0.000000
# 2 -0.009358 0.019246 -0.003880 0.000000 0.000000 0.000000
# 3 -0.003880 -0.003880 0.018876 0.000000 0.000000 0.000000
# 4 0.000000 0.000000 0.000000 0.050341 0.000000 0.000000
# 5 0.000000 0.000000 0.000000 0.000000 0.050341 0.000000
# 6 0.000000 0.000000 0.000000 0.000000 0.000000 0.044393
#
#
# Mechanical properties :
#
#
# Convention : Reuss Voigt Hill
#
# Bulk Modulus (GPa) = 43.23233 44.83391 44.03312
# Shear Modulus (GPa) = 20.45908 20.87277 20.66593
#
# Velocity S-wave (km/s) = 3.05611 3.08685 3.07152
# Velocity P-wave (km/s) = 5.67354 5.75952 5.71669
#
# Compressibility (1/GPa) = 0.02313084
#
# Stress axis : x y z
#
# Youngs Moduli (GPa) = 51.95989 51.95989 52.97737
#
# Poissons Ratio (x) = 0.48624 0.20556
# Poissons Ratio (y) = 0.48624 0.20556
# Poissons Ratio (z) = 0.20161 0.20161
#
# Static dielectric constant tensor:
#      x y z
#    x 2.011680 0.000000 0.000000 
#    y 0.000000 2.011680 0.000000 
#    z 0.000000 0.000000 1.857020 
# 
# From -- ./inp_files/3118.got.cif
#   From: 2010.05.17/outbox.cif.g08.bks.cpg/sg124_2_cif.got.tgz:3118.got - 2010.05.20 11:49:17.
