data_PCOD9562060
_publ_section_title
;
Structure prediction by ZEFSAII (Michael W. Deem and Ramdas Pophale) SiO2 
 PCOD9562060
Probable space group: P 4/M M M
;
_chemical_formula_sum "Si O2"
_cell_formula_units_Z 64
_cell_length_a 19.473788
_cell_length_b 19.473788
_cell_length_c 10.398766
_cell_angle_alpha 90.000000
_cell_angle_beta 90.000000
_cell_angle_gamma 90.000000
_cell_volume 3943.507590
_symmetry_space_group_name_H-M "P 4/M M M"
_symmetry_group_IT_number 123
_symmetry_cell_setting 'tetragonal'
loop_
_space_group_symop_operation_xyz
x,y,z
-y,x,z
-x,-y,z
y,-x,z
x,-y,-z
-x,y,-z
y,x,-z
-y,-x,-z
-x,-y,-z
y,-x,-z
x,y,-z
-y,x,-z
-x,y,z
x,-y,z
-y,-x,z
y,x,z
loop_
_atom_site_type_symbol
_atom_site_label
_atom_site_fract_x
_atom_site_fract_y
_atom_site_fract_z
Si Si1 0.581960 0.786340 0.247308
Si Si2 0.582739 0.302358 0.500000
Si Si3 0.653652 0.079013 0.154793
Si Si4 0.076135 0.814771 0.844072
Si Si5 0.417852 0.305407 0.000000
O O1 0.500000 0.795172 0.245470
O O2 0.599178 0.743927 0.375284
O O3 0.614970 0.860994 0.229420
O O4 0.600629 0.739438 0.124834
O O5 0.500000 0.316936 0.500000
O O6 0.629022 0.370979 0.500000
O O7 0.734622 0.085732 0.184452
O O8 0.633078 0.000000 0.183909
O O9 0.644393 0.088316 0.000000
O O10 0.135835 0.864166 0.795386
O O11 0.000000 0.836120 0.800543
O O12 0.076162 0.818849 0.000000
O O13 0.500000 0.317138 0.000000
O O14 0.375411 0.375411 0.000000
#
# Coordination Sequence:
#
# PCOD9562060 Si02
#       5
#    16   8  16  16   8
#     4  10  20  35  52  75 102 130 169 212 255 306
#     4  10  22  39  57  77 105 137 172 218 266 318
#     4   9  17  30  48  73 103 133 169 210 253 307
#     4   8  14  23  35  56  87 121 158 198 238 284
#     4  10  20  33  51  75 101 129 166 210 258 314
#
# _framework density 16.229206999999999
#
# number of rings (size 3 to 8) (size 9 to 14) (size 15 to 20)
#    0.000    2.750    1.250    2.250    0.000    3.000 
#    0.000    3.125    0.000    6.750    0.000    0.000 
#    0.000    0.000    0.000    0.000    0.000   20.000 
#
# Total GULP energy -356467.428279 kJ/mol
# GULP energy per Si atom -5569.803567 kJ/mol
# Density = 1.619227 g / cm^3
# Si number density = 16.229207 Si / 1000 Ang^3
#
#
#
# Elastic Constant Matrix: (Units=GPa)
#
#
# Indices 1 2 3 4 5 6 
#
# 1 81.1936 69.8068 44.0848 0.0000 0.0000 0.0000
# 2 69.8068 81.1895 44.0843 0.0000 0.0000 0.0000
# 3 44.0848 44.0843 88.9603 0.0000 0.0000 0.0000
# 4 0.0000 0.0000 0.0000 10.4174 0.0000 0.0000
# 5 0.0000 0.0000 0.0000 0.0000 10.4190 0.0000
# 6 0.0000 0.0000 0.0000 0.0000 0.0000 56.1635
#
#
#
# Elastic Compliance Matrix: (Units=1/GPa)
#
#
# Indices 1 2 3 4 5 6 
#
# 1 0.048576 -0.039259 -0.004618 0.000000 0.000000 0.000000
# 2 -0.039259 0.048579 -0.004619 0.000000 0.000000 0.000000
# 3 -0.004618 -0.004619 0.015818 0.000000 0.000000 0.000000
# 4 0.000000 0.000000 0.000000 0.095993 0.000000 0.000000
# 5 0.000000 0.000000 0.000000 0.000000 0.095979 0.000000
# 6 0.000000 0.000000 0.000000 0.000000 0.000000 0.017805
#
#
# Mechanical properties :
#
#
# Convention : Reuss Voigt Hill
#
# Bulk Modulus (GPa) = 62.56335 63.03280 62.79807
# Shear Modulus (GPa) = 11.76282 21.62448 16.69365
#
# Velocity S-wave (km/s) = 2.69512 3.65422 3.21069
# Velocity P-wave (km/s) = 6.95115 7.53179 7.24729
#
# Compressibility (1/GPa) = 0.01598380
#
# Stress axis : x y z
#
# Youngs Moduli (GPa) = 20.58615 20.58493 63.21893
#
# Poissons Ratio (x) = 0.80814 0.29193
# Poissons Ratio (y) = 0.80818 0.29198
# Poissons Ratio (z) = 0.09506 0.09507
#
# Static dielectric constant tensor:
#      x y z
#    x 1.540810 0.000000 0.000000 
#    y 0.000000 1.540810 0.000000 
#    z 0.000000 0.000000 1.542550 
# 
# From -- ./inp_files/2671.got.cif
#   From: 2010.05.17/outbox.cif.g08.bks.cpg/sg123_2_cif.got.tgz:2671.got - 2010.05.20 11:43:04.
