data_PCOD9562237
_publ_section_title
;
Structure prediction by ZEFSAII (Michael W. Deem and Ramdas Pophale) SiO2 
 PCOD9562237
Probable space group: P 4/M M M
;
_chemical_formula_sum "Si O2"
_cell_formula_units_Z 32
_cell_length_a 13.137512
_cell_length_b 13.137512
_cell_length_c 8.949899
_cell_angle_alpha 90.000000
_cell_angle_beta 90.000000
_cell_angle_gamma 90.000000
_cell_volume 1544.700851
_symmetry_space_group_name_H-M "P 4/M M M"
_symmetry_group_IT_number 123
_symmetry_cell_setting 'tetragonal'
loop_
_space_group_symop_operation_xyz
x,y,z
-y,x,z
-x,-y,z
y,-x,z
x,-y,-z
-x,y,-z
y,x,-z
-y,-x,-z
-x,-y,-z
y,-x,-z
x,y,-z
-y,x,-z
-x,y,z
x,-y,z
-y,-x,z
y,x,z
loop_
_atom_site_type_symbol
_atom_site_label
_atom_site_fract_x
_atom_site_fract_y
_atom_site_fract_z
Si Si1 0.780265 0.386861 0.320621
Si Si2 0.356634 0.000000 0.171252
Si Si3 0.168933 0.000000 0.339187
O O1 0.790693 0.377182 0.500000
O O2 0.736654 0.500000 0.289553
O O3 0.704632 0.295369 0.270946
O O4 0.893322 0.385336 0.249866
O O5 0.236022 0.000000 0.194258
O O6 0.387423 0.000000 0.000000
O O7 0.097623 0.097623 0.340445
O O8 0.226522 0.000000 0.500000
#
# Coordination Sequence:
#
# PCOD9562237 Si02
#       3
#    16   8   8
#     4  10  22  41  65  91 119 154 197 246 300 356
#     4  12  24  36  55  86 122 158 197 240 288 347
#     4   9  18  33  53  77 108 150 198 245 295 351
#
# _framework density 20.715986000000001
#
# number of rings (size 3 to 8) (size 9 to 14) (size 15 to 20)
#    0.000    1.750    0.000    5.250    0.000   12.500 
#    0.000    3.750    0.000    0.000    0.000    3.500 
#    0.000    0.000    0.000    0.000    0.000    0.000 
#
# Total GULP energy -178407.571771 kJ/mol
# GULP energy per Si atom -5575.236618 kJ/mol
# Density = 2.066884 g / cm^3
# Si number density = 20.715986 Si / 1000 Ang^3
#
#
#
# Elastic Constant Matrix: (Units=GPa)
#
#
# Indices 1 2 3 4 5 6 
#
# 1 137.8885 66.4837 41.2771 0.0000 0.0000 0.0000
# 2 66.4837 137.8885 41.2771 0.0000 0.0000 0.0000
# 3 41.2771 41.2771 68.9808 0.0000 0.0000 0.0000
# 4 0.0000 0.0000 0.0000 -10.0545 0.0000 0.0000
# 5 0.0000 0.0000 0.0000 0.0000 -10.0545 0.0000
# 6 0.0000 0.0000 0.0000 0.0000 0.0000 17.2951
#
#
#
# Elastic Compliance Matrix: (Units=1/GPa)
#
#
# Indices 1 2 3 4 5 6 
#
# 1 0.010229 -0.003776 -0.003861 0.000000 0.000000 0.000000
# 2 -0.003776 0.010229 -0.003861 0.000000 0.000000 0.000000
# 3 -0.003861 -0.003861 0.019118 0.000000 0.000000 0.000000
# 4 0.000000 0.000000 0.000000 -0.099457 0.000000 0.000000
# 5 0.000000 0.000000 0.000000 0.000000 -0.099457 0.000000
# 6 0.000000 0.000000 0.000000 0.000000 0.000000 0.057820
#
#
# Mechanical properties :
#
#
# Convention : Reuss Voigt Hill
#
# Bulk Modulus (GPa) = 60.31957 71.42598 65.87278
# Shear Modulus (GPa) = -68.49593 12.48519 -28.00537
#
# Velocity S-wave (km/s) = -5.75639 2.45763 -3.68077
# Velocity P-wave (km/s) = 3.87309 6.52739 3.71524
#
# Compressibility (1/GPa) = 0.01657837
#
# Stress axis : x y z
#
# Youngs Moduli (GPa) = 97.76410 97.76410 52.30724
#
# Poissons Ratio (x) = 0.36915 0.20197
# Poissons Ratio (y) = 0.36915 0.20197
# Poissons Ratio (z) = 0.37749 0.37749
#
# Static dielectric constant tensor:
#      x y z
#    x 1.772060 0.000000 0.000000 
#    y 0.000000 1.772060 0.000000 
#    z 0.000000 0.000000 1.731390 
# 
# From -- ./inp_files/230.got.cif
#   From: 2010.05.17/outbox.cif.g08.bks.cpg/sg123_1_cif.got.tgz:230.got - 2010.05.20 11:43:04.
