data_PCOD9562591
_publ_section_title
;
Structure prediction by ZEFSAII (Michael W. Deem and Ramdas Pophale) SiO2 
 PCOD9562591
Probable space group: P 4/M C C
;
_chemical_formula_sum "Si O2"
_cell_formula_units_Z 112
_cell_length_a 15.783182
_cell_length_b 15.783182
_cell_length_c 22.365191
_cell_angle_alpha 90.000000
_cell_angle_beta 90.000000
_cell_angle_gamma 90.000000
_cell_volume 5571.366653
_symmetry_space_group_name_H-M "P 4/M C C"
_symmetry_group_IT_number 124
_symmetry_cell_setting 'tetragonal'
loop_
_space_group_symop_operation_xyz
x,y,z
-y,x,z
-x,-y,z
y,-x,z
x,-y,1/2-z
-x,y,1/2-z
y,x,1/2-z
-y,-x,1/2-z
-x,-y,-z
y,-x,-z
x,y,-z
-y,x,-z
-x,y,1/2+z
x,-y,1/2+z
-y,-x,1/2+z
y,x,1/2+z
loop_
_atom_site_type_symbol
_atom_site_label
_atom_site_fract_x
_atom_site_fract_y
_atom_site_fract_z
Si Si1 0.951047 0.133432 0.567292
Si Si2 0.404223 0.021602 0.139034
Si Si3 0.192725 0.562066 0.069667
Si Si4 0.633914 0.847994 0.430243
Si Si5 0.624265 0.442054 0.072888
Si Si6 0.838661 0.772275 0.156132
Si Si7 0.741894 0.081158 0.723440
O O1 0.938546 0.168035 0.500000
O O2 0.920165 0.193744 0.619486
O O3 0.047880 0.104502 0.571867
O O4 0.406675 0.109051 0.102241
O O5 0.338898 0.040399 0.191706
O O6 0.500000 0.000000 0.159335
O O7 0.376505 0.942801 0.097286
O O8 0.191675 0.459583 0.073543
O O9 0.284336 0.589676 0.093899
O O10 0.186122 0.585607 0.000000
O O11 0.656536 0.849765 0.500000
O O12 0.704661 0.801192 0.390465
O O13 0.608419 0.540091 0.090544
O O14 0.626957 0.440617 0.000000
O O15 0.863504 0.725177 0.217295
O O16 0.787404 0.855251 0.177315
O O17 0.793766 0.000000 0.750000
#
# Coordination Sequence:
#
# PCOD9562591 Si02
#       7
#    16  16  16  16  16  16  16
#     4   9  18  33  54  80 110 144 186 232 283 350
#     4  10  21  39  60  83 111 148 198 244 291 355
#     4   9  18  33  54  84 118 153 190 234 292 359
#     4  10  20  36  57  84 119 152 186 238 301 358
#     4   8  14  26  47  76 112 152 189 225 272 343
#     4  11  22  37  56  81 117 145 192 246 296 342
#     4  11  23  40  58  81 110 151 198 245 290 342
#
# _framework density 20.102788
#
# number of rings (size 3 to 8) (size 9 to 14) (size 15 to 20)
#    0.000    2.286    1.429    2.571    0.000    3.143 
#    0.000    3.571    0.000    3.429    0.000    0.000 
#    0.000    0.000    0.000    6.286    0.000    2.143 
#
# Total GULP energy -624524.452970 kJ/mol
# GULP energy per Si atom -5576.111187 kJ/mol
# Density = 2.005703 g / cm^3
# Si number density = 20.102788 Si / 1000 Ang^3
#
#
#
# Elastic Constant Matrix: (Units=GPa)
#
#
# Indices 1 2 3 4 5 6 
#
# 1 80.5656 19.1761 29.1439 0.0000 0.0000 0.0000
# 2 19.1761 80.5656 29.1439 0.0000 0.0000 0.0000
# 3 29.1439 29.1439 104.1788 0.0000 0.0000 0.0000
# 4 0.0000 0.0000 0.0000 24.1712 0.0000 0.0000
# 5 0.0000 0.0000 0.0000 0.0000 24.1712 0.0000
# 6 0.0000 0.0000 0.0000 0.0000 0.0000 0.8737
#
#
#
# Elastic Compliance Matrix: (Units=1/GPa)
#
#
# Indices 1 2 3 4 5 6 
#
# 1 0.014137 -0.002152 -0.003353 0.000000 0.000000 0.000000
# 2 -0.002152 0.014137 -0.003353 0.000000 0.000000 0.000000
# 3 -0.003353 -0.003353 0.011475 0.000000 0.000000 0.000000
# 4 0.000000 0.000000 0.000000 0.041371 0.000000 0.000000
# 5 0.000000 0.000000 0.000000 0.000000 0.041371 0.000000
# 6 0.000000 0.000000 0.000000 0.000000 0.000000 1.144503
#
#
# Mechanical properties :
#
#
# Convention : Reuss Voigt Hill
#
# Bulk Modulus (GPa) = 45.38467 46.69311 46.03889
# Shear Modulus (GPa) = 3.86980 22.36631 13.11806
#
# Velocity S-wave (km/s) = 1.38895 3.33918 2.55728
# Velocity P-wave (km/s) = 5.01972 6.17612 5.62770
#
# Compressibility (1/GPa) = 0.02203387
#
# Stress axis : x y z
#
# Youngs Moduli (GPa) = 70.73458 70.73458 87.14747
#
# Poissons Ratio (x) = 0.15223 0.29219
# Poissons Ratio (y) = 0.15223 0.29219
# Poissons Ratio (z) = 0.23716 0.23716
#
# Static dielectric constant tensor:
#      x y z
#    x 1.746450 0.000000 0.000000 
#    y 0.000000 1.746450 0.000000 
#    z 0.000000 0.000000 1.703520 
# 
# From -- ./inp_files/5549.got.cif
#   From: 2010.05.17/outbox.cif.g08.bks.cpg/sg124_3_cif.got.tgz:5549.got - 2010.05.20 11:49:17.
