data_PCOD9562865
_publ_section_title
;
Structure prediction by ZEFSAII (Michael W. Deem and Ramdas Pophale) SiO2 
 PCOD9562865
Probable space group: P 4/M C C
;
_chemical_formula_sum "Si O2"
_cell_formula_units_Z 112
_cell_length_a 15.000000
_cell_length_b 15.000000
_cell_length_c 24.000000
_cell_angle_alpha 90.000000
_cell_angle_beta 90.000000
_cell_angle_gamma 90.000000
_cell_volume 5400.000000
_symmetry_space_group_name_H-M "P 4/M C C"
_symmetry_group_IT_number 124
_symmetry_cell_setting 'tetragonal'
loop_
_space_group_symop_operation_xyz
x,y,z
-y,x,z
-x,-y,z
y,-x,z
x,-y,1/2-z
-x,y,1/2-z
y,x,1/2-z
-y,-x,1/2-z
-x,-y,-z
y,-x,-z
x,y,-z
-y,x,-z
-x,y,1/2+z
x,-y,1/2+z
-y,-x,1/2+z
y,x,1/2+z
loop_
_atom_site_type_symbol
_atom_site_label
_atom_site_fract_x
_atom_site_fract_y
_atom_site_fract_z
Si Si1 0.155385 0.194410 0.062147
Si Si2 0.434295 0.634670 0.165187
Si Si3 0.765687 0.902103 0.776171
Si Si4 0.181879 0.596962 0.724568
Si Si5 0.973517 0.236511 0.101347
Si Si6 0.246558 0.378030 0.064630
Si Si7 0.419402 0.932002 0.113464
O O1 0.206779 0.102192 0.059440
O O2 0.217382 0.276711 0.081723
O O3 0.065796 0.182582 0.097795
O O4 0.125374 0.221236 0.000000
O O5 0.384973 0.539960 0.173033
O O6 0.402433 0.715575 0.204512
O O7 0.414735 0.675748 0.104039
O O8 0.847787 0.847787 0.750000
O O9 0.677219 0.844016 0.764892
O O10 0.775045 0.922267 0.840813
O O11 0.755693 0.000000 0.750000
O O12 0.165119 0.500000 0.750000
O O13 0.115496 0.605094 0.671845
O O14 0.009216 0.336252 0.093811
O O15 0.154382 0.432860 0.074220
O O16 0.271596 0.378178 0.000000
O O17 0.500000 0.000000 0.119324
#
# Coordination Sequence:
#
# PCOD9562865 Si02
#       7
#    16  16  16  16  16  16  16
#     4  10  22  41  65  94 125 164 216 272 331 388
#     4  10  24  44  65  94 130 172 223 274 327 397
#     4  12  26  42  65  98 136 181 224 267 329 398
#     4  11  25  41  68  94 132 171 223 271 332 395
#     4  11  22  39  64  88 129 168 215 267 320 389
#     4   9  21  40  63  92 128 165 211 271 335 400
#     4  10  21  39  61  93 127 165 211 268 328 391
#
# _framework density 20.740741
#
# number of rings (size 3 to 8) (size 9 to 14) (size 15 to 20)
#    0.000    1.571    1.429    2.143    6.000    4.143 
#    0.000    5.000    0.000    0.000    0.000    0.000 
#    0.000    0.000    0.000    0.000    0.000    0.000 
#
# Total GULP energy -625541.158140 kJ/mol
# GULP energy per Si atom -5585.188912 kJ/mol
# Density = 2.069353 g / cm^3
# Si number density = 20.740741 Si / 1000 Ang^3
#
#
#
# Elastic Constant Matrix: (Units=GPa)
#
#
# Indices 1 2 3 4 5 6 
#
# 1 98.8718 70.6075 33.5766 0.0000 0.0000 0.0000
# 2 70.6075 98.8718 33.5766 0.0000 0.0000 0.0000
# 3 33.5766 33.5766 90.5414 0.0000 0.0000 0.0000
# 4 0.0000 0.0000 0.0000 19.2429 0.0000 0.0000
# 5 0.0000 0.0000 0.0000 0.0000 19.2429 0.0000
# 6 0.0000 0.0000 0.0000 0.0000 0.0000 36.4738
#
#
#
# Elastic Compliance Matrix: (Units=1/GPa)
#
#
# Indices 1 2 3 4 5 6 
#
# 1 0.021149 -0.014232 -0.002565 0.000000 0.000000 0.000000
# 2 -0.014232 0.021149 -0.002565 0.000000 0.000000 0.000000
# 3 -0.002565 -0.002565 0.012947 0.000000 0.000000 0.000000
# 4 0.000000 0.000000 0.000000 0.051967 0.000000 0.000000
# 5 0.000000 0.000000 0.000000 0.000000 0.051967 0.000000
# 6 0.000000 0.000000 0.000000 0.000000 0.000000 0.027417
#
#
# Mechanical properties :
#
#
# Convention : Reuss Voigt Hill
#
# Bulk Modulus (GPa) = 60.53074 62.64516 61.58795
# Shear Modulus (GPa) = 21.66132 25.02686 23.34409
#
# Velocity S-wave (km/s) = 3.23520 3.47746 3.35851
# Velocity P-wave (km/s) = 6.57291 6.81125 6.69314
#
# Compressibility (1/GPa) = 0.01652053
#
# Stress axis : x y z
#
# Youngs Moduli (GPa) = 47.28462 47.28462 77.23721
#
# Poissons Ratio (x) = 0.67294 0.19812
# Poissons Ratio (y) = 0.67294 0.19812
# Poissons Ratio (z) = 0.12129 0.12129
#
# Static dielectric constant tensor:
#      x y z
#    x 1.729310 0.000000 0.000000 
#    y 0.000000 1.729310 0.000000 
#    z 0.000000 0.000000 1.889080 
# 
# From -- ./inp_files/6098.got.cif
#   From: 2010.05.17/outbox.ucp.g08.bks.cvg/sg124_4_cif.got.tgz:6098.got - 2010.06.11 11:36:13.
