data_PCOD9562344
_publ_section_title
;
Structure prediction by ZEFSAII (Michael W. Deem and Ramdas Pophale) SiO2 
 PCOD9562344
Probable space group: P 4/M C C
;
_chemical_formula_sum "Si O2"
_cell_formula_units_Z 64
_cell_length_a 20.420931
_cell_length_b 20.420931
_cell_length_c 8.848945
_cell_angle_alpha 90.000000
_cell_angle_beta 90.000000
_cell_angle_gamma 90.000000
_cell_volume 3690.137693
_symmetry_space_group_name_H-M "P 4/M C C"
_symmetry_group_IT_number 124
_symmetry_cell_setting 'tetragonal'
loop_
_space_group_symop_operation_xyz
x,y,z
-y,x,z
-x,-y,z
y,-x,z
x,-y,1/2-z
-x,y,1/2-z
y,x,1/2-z
-y,-x,1/2-z
-x,-y,-z
y,-x,-z
x,y,-z
-y,x,-z
-x,y,1/2+z
x,-y,1/2+z
-y,-x,1/2+z
y,x,1/2+z
loop_
_atom_site_type_symbol
_atom_site_label
_atom_site_fract_x
_atom_site_fract_y
_atom_site_fract_z
Si Si1 0.429459 0.856587 0.319915
Si Si2 0.247760 0.655268 0.674497
Si Si3 0.698542 0.894556 0.674191
Si Si4 0.932139 0.832059 0.320603
O O1 0.500000 0.870273 0.250000
O O2 0.429932 0.860724 0.500000
O O3 0.405158 0.783968 0.266301
O O4 0.373010 0.902905 0.248558
O O5 0.308772 0.691229 0.750000
O O6 0.260306 0.637606 0.500000
O O7 0.185029 0.704545 0.674019
O O8 0.700523 0.916676 0.500000
O O9 0.756793 0.923929 0.770204
O O10 0.873156 0.873156 0.250000
O O11 0.932513 0.837671 0.500000
O O12 0.000000 0.856725 0.250000
#
# Coordination Sequence:
#
# PCOD9562344 Si02
#       4
#    16  16  16  16
#     4  10  18  30  48  74 108 146 184 228 278 329
#     4   9  17  27  44  70 101 136 176 219 268 319
#     4   9  19  34  54  79 108 141 180 223 272 326
#     4  12  25  42  63  87 114 146 184 229 279 335
#
# _framework density 17.343526000000001
#
# number of rings (size 3 to 8) (size 9 to 14) (size 15 to 20)
#    1.500    0.500    0.000    6.000    0.000    2.250 
#    0.000    1.250    0.000    0.750    0.000    5.250 
#    0.000    0.500    0.000    5.000    0.000    3.000 
#
# Total GULP energy -356403.156229 kJ/mol
# GULP energy per Si atom -5568.799316 kJ/mol
# Density = 1.730405 g / cm^3
# Si number density = 17.343526 Si / 1000 Ang^3
#
#
#
# Elastic Constant Matrix: (Units=GPa)
#
#
# Indices 1 2 3 4 5 6 
#
# 1 67.6840 20.7108 37.0747 0.0000 0.0000 0.0000
# 2 20.7108 67.6835 37.0758 0.0000 0.0000 0.0000
# 3 37.0747 37.0758 181.4516 0.0000 0.0000 0.0000
# 4 0.0000 0.0000 0.0000 14.9092 0.0000 0.0000
# 5 0.0000 0.0000 0.0000 0.0000 14.9091 0.0000
# 6 0.0000 0.0000 0.0000 0.0000 0.0000 -14.0131
#
#
#
# Elastic Compliance Matrix: (Units=1/GPa)
#
#
# Indices 1 2 3 4 5 6 
#
# 1 0.017471 -0.003818 -0.002790 0.000000 0.000000 0.000000
# 2 -0.003818 0.017471 -0.002790 0.000000 0.000000 0.000000
# 3 -0.002790 -0.002790 0.006651 0.000000 0.000000 0.000000
# 4 0.000000 0.000000 0.000000 0.067072 0.000000 0.000000
# 5 0.000000 0.000000 0.000000 0.000000 0.067073 0.000000
# 6 0.000000 0.000000 0.000000 0.000000 0.000000 -0.071362
#
#
# Mechanical properties :
#
#
# Convention : Reuss Voigt Hill
#
# Bulk Modulus (GPa) = 43.86246 56.28242 50.07244
# Shear Modulus (GPa) = 38.23469 17.95821 28.09645
#
# Velocity S-wave (km/s) = 4.70036 3.22132 4.02928
# Velocity P-wave (km/s) = 7.40291 6.80866 7.11200
#
# Compressibility (1/GPa) = 0.02279854
#
# Stress axis : x y z
#
# Youngs Moduli (GPa) = 57.23827 57.23742 150.35062
#
# Poissons Ratio (x) = 0.21853 0.41942
# Poissons Ratio (y) = 0.21853 0.41944
# Poissons Ratio (z) = 0.15967 0.15968
#
# Static dielectric constant tensor:
#      x y z
#    x 1.600580 0.000000 0.000000 
#    y 0.000000 1.600580 0.000000 
#    z 0.000000 0.000000 1.575510 
# 
# From -- ./inp_files/880.got.cif
#   From: 2010.05.17/outbox.cif.g08.bks.cpg/sg124_1_cif.got.tgz:880.got - 2010.05.20 11:49:17.
