data_PCOD9562423
_publ_section_title
;
Structure prediction by ZEFSAII (Michael W. Deem and Ramdas Pophale) SiO2 
 PCOD9562423
Probable space group: P 4/M C C
;
_chemical_formula_sum "Si O2"
_cell_formula_units_Z 96
_cell_length_a 24.484059
_cell_length_b 24.484059
_cell_length_c 8.497417
_cell_angle_alpha 90.000000
_cell_angle_beta 90.000000
_cell_angle_gamma 90.000000
_cell_volume 5093.939305
_symmetry_space_group_name_H-M "P 4/M C C"
_symmetry_group_IT_number 124
_symmetry_cell_setting 'tetragonal'
loop_
_space_group_symop_operation_xyz
x,y,z
-y,x,z
-x,-y,z
y,-x,z
x,-y,1/2-z
-x,y,1/2-z
y,x,1/2-z
-y,-x,1/2-z
-x,-y,-z
y,-x,-z
x,y,-z
-y,x,-z
-x,y,1/2+z
x,-y,1/2+z
-y,-x,1/2+z
y,x,1/2+z
loop_
_atom_site_type_symbol
_atom_site_label
_atom_site_fract_x
_atom_site_fract_y
_atom_site_fract_z
Si Si1 0.558036 0.211207 0.188178
Si Si2 0.241645 0.677438 0.810006
Si Si3 0.143922 0.753387 0.178994
Si Si4 0.851625 0.063243 0.690951
Si Si5 0.087133 0.443810 0.689530
Si Si6 0.951402 0.668729 0.324494
O O1 0.500000 0.235260 0.250000
O O2 0.615715 0.234277 0.249696
O O3 0.558400 0.149013 0.250038
O O4 0.557184 0.212108 0.000000
O O5 0.298451 0.701550 0.750000
O O6 0.196107 0.721882 0.748291
O O7 0.237221 0.676967 0.000000
O O8 0.106429 0.803201 0.244244
O O9 0.102462 0.703153 0.171347
O O10 0.159273 0.770480 0.000000
O O11 0.907484 0.092517 0.750000
O O12 0.849644 0.061807 0.500000
O O13 0.846253 0.000000 0.750000
O O14 0.062549 0.500000 0.750000
O O15 0.088016 0.442985 0.500000
O O16 0.059058 0.389342 0.754175
O O17 0.969310 0.657185 0.500000
O O18 0.000000 0.702296 0.250000
#
# Coordination Sequence:
#
# PCOD9562423 Si02
#       6
#    16  16  16  16  16  16
#     4  11  21  35  56  82 111 151 195 237 287 338
#     4  11  21  37  58  86 121 154 192 236 281 334
#     4   9  19  37  58  80 113 148 180 223 276 332
#     4  11  23  41  64  88 113 142 177 221 276 341
#     4  10  19  33  51  70 100 137 181 232 283 331
#     4  10  20  34  50  71 100 139 181 230 280 327
#
# _framework density 18.845925000000001
#
# number of rings (size 3 to 8) (size 9 to 14) (size 15 to 20)
#    0.000    1.667    1.667    5.000    0.000    1.833 
#    0.000    5.833    0.000    0.000    0.000    0.000 
#    0.000    0.333    0.000    3.333    0.000    2.000 
#
# Total GULP energy -534601.339166 kJ/mol
# GULP energy per Si atom -5568.763950 kJ/mol
# Density = 1.880303 g / cm^3
# Si number density = 18.845925 Si / 1000 Ang^3
#
#
#
# Elastic Constant Matrix: (Units=GPa)
#
#
# Indices 1 2 3 4 5 6 
#
# 1 103.4728 67.5579 28.8899 0.0000 0.0000 0.0000
# 2 67.5579 103.4816 28.8914 0.0000 0.0000 0.0000
# 3 28.8899 28.8914 68.8809 0.0000 0.0000 0.0000
# 4 0.0000 0.0000 0.0000 19.1440 0.0000 0.0000
# 5 0.0000 0.0000 0.0000 0.0000 19.1439 0.0000
# 6 0.0000 0.0000 0.0000 0.0000 0.0000 13.2616
#
#
#
# Elastic Compliance Matrix: (Units=1/GPa)
#
#
# Indices 1 2 3 4 5 6 
#
# 1 0.017327 -0.010514 -0.002857 0.000000 0.000000 0.000000
# 2 -0.010514 0.017325 -0.002857 0.000000 0.000000 0.000000
# 3 -0.002857 -0.002857 0.016915 0.000000 0.000000 0.000000
# 4 0.000000 0.000000 0.000000 0.052236 0.000000 0.000000
# 5 0.000000 0.000000 0.000000 0.000000 0.052236 0.000000
# 6 0.000000 0.000000 0.000000 0.000000 0.000000 0.075406
#
#
# Mechanical properties :
#
#
# Convention : Reuss Voigt Hill
#
# Bulk Modulus (GPa) = 52.32878 58.50153 55.41515
# Shear Modulus (GPa) = 18.49996 20.34297 19.42147
#
# Velocity S-wave (km/s) = 3.13652 3.28904 3.21368
# Velocity P-wave (km/s) = 6.39874 6.74782 6.57560
#
# Compressibility (1/GPa) = 0.01910994
#
# Stress axis : x y z
#
# Youngs Moduli (GPa) = 57.71396 57.71870 59.12071
#
# Poissons Ratio (x) = 0.60686 0.16892
# Poissons Ratio (y) = 0.60681 0.16892
# Poissons Ratio (z) = 0.16490 0.16491
#
# Static dielectric constant tensor:
#      x y z
#    x 1.677310 0.000000 0.000000 
#    y 0.000000 1.677300 0.000000 
#    z 0.000000 0.000000 1.671780 
# 
# From -- ./inp_files/1350.got.cif
#   From: 2010.05.17/outbox.cif.g08.bks.cpg/sg124_1_cif.got.tgz:1350.got - 2010.05.20 11:49:17.
