data_PCOD9562753
_publ_section_title
;
Structure prediction by ZEFSAII (Michael W. Deem and Ramdas Pophale) SiO2 
 PCOD9562753
Probable space group: P 4/M C C
;
_chemical_formula_sum "Si O2"
_cell_formula_units_Z 72
_cell_length_a 11.784667
_cell_length_b 11.784667
_cell_length_c 28.319557
_cell_angle_alpha 90.000000
_cell_angle_beta 90.000000
_cell_angle_gamma 90.000000
_cell_volume 3932.974094
_symmetry_space_group_name_H-M "P 4/M C C"
_symmetry_group_IT_number 124
_symmetry_cell_setting 'tetragonal'
loop_
_space_group_symop_operation_xyz
x,y,z
-y,x,z
-x,-y,z
y,-x,z
x,-y,1/2-z
-x,y,1/2-z
y,x,1/2-z
-y,-x,1/2-z
-x,-y,-z
y,-x,-z
x,y,-z
-y,x,-z
-x,y,1/2+z
x,-y,1/2+z
-y,-x,1/2+z
y,x,1/2+z
loop_
_atom_site_type_symbol
_atom_site_label
_atom_site_fract_x
_atom_site_fract_y
_atom_site_fract_z
Si Si1 0.638120 0.005759 0.195881
Si Si2 0.585559 0.786311 0.152968
Si Si3 0.655180 0.799794 0.375238
Si Si4 0.093284 0.837394 0.556550
Si Si5 0.310891 0.500000 0.750000
O O1 0.663705 0.894649 0.164805
O O2 0.500000 0.000000 0.196263
O O3 0.676603 0.000000 0.250000
O O4 0.679271 0.117465 0.169335
O O5 0.481025 0.808417 0.117573
O O6 0.670321 0.688268 0.136571
O O7 0.521031 0.757826 0.202313
O O8 0.734088 0.846813 0.416784
O O9 0.101192 0.823653 0.500000
O O10 0.959371 0.849922 0.568376
O O11 0.391194 0.391194 0.750000
#
# Coordination Sequence:
#
# PCOD9562753 Si02
#       5
#    16  16  16  16   8
#     4   9  19  32  48  72 108 149 189 230 279 327
#     4  11  21  33  52  78 111 152 192 237 282 331
#     4  11  21  35  53  81 114 149 192 235 286 348
#     4   9  19  39  66  89 108 137 183 243 305 359
#     4  11  20  32  51  76 112 151 204 239 264 326
#
# _framework density 18.306756
#
# number of rings (size 3 to 8) (size 9 to 14) (size 15 to 20)
#    0.000    1.889    2.222    4.667    0.000    0.444 
#    0.000    1.111    0.000    8.667    0.000    3.111 
#    0.000    0.000    0.000    0.000    0.000    0.000 
#
# Total GULP energy -401265.062230 kJ/mol
# GULP energy per Si atom -5573.125864 kJ/mol
# Density = 1.826509 g / cm^3
# Si number density = 18.306756 Si / 1000 Ang^3
#
#
#
# Elastic Constant Matrix: (Units=GPa)
#
#
# Indices 1 2 3 4 5 6 
#
# 1 92.8487 28.9735 35.5853 0.0000 0.0000 0.0000
# 2 28.9735 92.8487 35.5853 0.0000 0.0000 0.0000
# 3 35.5853 35.5853 62.1076 0.0000 0.0000 0.0000
# 4 0.0000 0.0000 0.0000 26.7980 0.0000 0.0000
# 5 0.0000 0.0000 0.0000 0.0000 26.7980 0.0000
# 6 0.0000 0.0000 0.0000 0.0000 0.0000 31.0454
#
#
#
# Elastic Compliance Matrix: (Units=1/GPa)
#
#
# Indices 1 2 3 4 5 6 
#
# 1 0.013997 -0.001658 -0.007070 0.000000 0.000000 0.000000
# 2 -0.001658 0.013997 -0.007070 0.000000 0.000000 0.000000
# 3 -0.007070 -0.007070 0.024202 0.000000 0.000000 0.000000
# 4 0.000000 0.000000 0.000000 0.037316 0.000000 0.000000
# 5 0.000000 0.000000 0.000000 0.000000 0.037316 0.000000
# 6 0.000000 0.000000 0.000000 0.000000 0.000000 0.032211
#
#
# Mechanical properties :
#
#
# Convention : Reuss Voigt Hill
#
# Bulk Modulus (GPa) = 48.54042 49.78814 49.16428
# Shear Modulus (GPa) = 25.31609 26.77235 26.04422
#
# Velocity S-wave (km/s) = 3.72275 3.82832 3.77590
# Velocity P-wave (km/s) = 6.71201 6.84084 6.77673
#
# Compressibility (1/GPa) = 0.02060139
#
# Stress axis : x y z
#
# Youngs Moduli (GPa) = 71.44269 71.44269 41.31813
#
# Poissons Ratio (x) = 0.11847 0.29211
# Poissons Ratio (y) = 0.11847 0.29211
# Poissons Ratio (z) = 0.50508 0.50508
#
# Static dielectric constant tensor:
#      x y z
#    x 1.679110 0.000000 0.000000 
#    y 0.000000 1.679110 0.000000 
#    z 0.000000 0.000000 1.631130 
# 
# From -- ./inp_files/6871.got.cif
#   From: 2010.05.17/outbox.cif.g08.bks.cpg/sg124_4_cif.got.tgz:6871.got - 2010.05.20 11:49:17.
