data_PCOD9562525
_publ_section_title
;
Structure prediction by ZEFSAII (Michael W. Deem and Ramdas Pophale) SiO2 
 PCOD9562525
Probable space group: P 4/M C C
;
_chemical_formula_sum "Si O2"
_cell_formula_units_Z 96
_cell_length_a 23.892694
_cell_length_b 23.892694
_cell_length_c 8.594913
_cell_angle_alpha 90.000000
_cell_angle_beta 90.000000
_cell_angle_gamma 90.000000
_cell_volume 4906.499140
_symmetry_space_group_name_H-M "P 4/M C C"
_symmetry_group_IT_number 124
_symmetry_cell_setting 'tetragonal'
loop_
_space_group_symop_operation_xyz
x,y,z
-y,x,z
-x,-y,z
y,-x,z
x,-y,1/2-z
-x,y,1/2-z
y,x,1/2-z
-y,-x,1/2-z
-x,-y,-z
y,-x,-z
x,y,-z
-y,x,-z
-x,y,1/2+z
x,-y,1/2+z
-y,-x,1/2+z
y,x,1/2+z
loop_
_atom_site_type_symbol
_atom_site_label
_atom_site_fract_x
_atom_site_fract_y
_atom_site_fract_z
Si Si1 0.060868 0.858400 0.313906
Si Si2 0.436946 0.349454 0.685978
Si Si3 0.891380 0.437246 0.185473
Si Si4 0.851459 0.231962 0.186028
Si Si5 0.226817 0.563219 0.686509
Si Si6 0.940200 0.323169 0.187883
O O1 0.082081 0.917920 0.250000
O O2 0.103321 0.813852 0.240417
O O3 0.000000 0.846171 0.250000
O O4 0.936609 0.856361 0.000000
O O5 0.500000 0.354532 0.750000
O O6 0.397766 0.397766 0.750000
O O7 0.439800 0.352241 0.500000
O O8 0.412677 0.287724 0.727451
O O9 0.900673 0.500000 0.250000
O O10 0.829786 0.415699 0.236240
O O11 0.932824 0.388004 0.237183
O O12 0.892993 0.441478 0.000000
O O13 0.791980 0.208021 0.250000
O O14 0.884238 0.288657 0.236264
O O15 0.846616 0.232981 0.000000
O O16 0.230198 0.500000 0.750000
O O17 0.220441 0.563186 0.500000
O O18 0.000000 0.301457 0.250000
O O19 0.942051 0.320640 0.000000
#
# Coordination Sequence:
#
# PCOD9562525 Si02
#       6
#    16  16  16  16  16  16
#     4  11  21  34  51  74 101 133 171 214 262 314
#     4  10  20  33  50  73 103 138 182 232 288 350
#     4  10  20  36  57  83 113 147 185 230 280 337
#     4  10  20  37  58  81 107 141 183 227 273 322
#     4   9  17  31  52  76  99 131 173 218 267 325
#     4  10  23  39  58  85 118 153 191 232 279 332
#
# _framework density 19.565885000000002
#
# number of rings (size 3 to 8) (size 9 to 14) (size 15 to 20)
#    0.000    2.000    0.000    6.000    0.000    6.667 
#    0.000    4.167    0.000    4.000    0.000    0.000 
#    0.000    0.000    0.000    0.000    0.000    0.000 
#
# Total GULP energy -535012.376967 kJ/mol
# GULP energy per Si atom -5573.045593 kJ/mol
# Density = 1.952135 g / cm^3
# Si number density = 19.565885 Si / 1000 Ang^3
#
#
#
# Elastic Constant Matrix: (Units=GPa)
#
#
# Indices 1 2 3 4 5 6 
#
# 1 92.0646 38.2264 15.8624 0.0000 0.0000 0.0000
# 2 38.2264 92.0606 15.8620 0.0000 0.0000 0.0000
# 3 15.8624 15.8620 37.2544 0.0000 0.0000 0.0000
# 4 0.0000 0.0000 0.0000 21.7908 0.0000 0.0000
# 5 0.0000 0.0000 0.0000 0.0000 21.7914 0.0000
# 6 0.0000 0.0000 0.0000 0.0000 0.0000 32.5882
#
#
#
# Elastic Compliance Matrix: (Units=1/GPa)
#
#
# Indices 1 2 3 4 5 6 
#
# 1 0.013569 -0.005006 -0.003646 0.000000 0.000000 0.000000
# 2 -0.005006 0.013569 -0.003646 0.000000 0.000000 0.000000
# 3 -0.003646 -0.003646 0.029947 0.000000 0.000000 0.000000
# 4 0.000000 0.000000 0.000000 0.045891 0.000000 0.000000
# 5 0.000000 0.000000 0.000000 0.000000 0.045890 0.000000
# 6 0.000000 0.000000 0.000000 0.000000 0.000000 0.030686
#
#
# Mechanical properties :
#
#
# Convention : Reuss Voigt Hill
#
# Bulk Modulus (GPa) = 30.77924 40.14234 35.46079
# Shear Modulus (GPa) = 23.25826 25.32931 24.29379
#
# Velocity S-wave (km/s) = 3.45152 3.60191 3.52751
# Velocity P-wave (km/s) = 5.62576 6.15300 5.89528
#
# Compressibility (1/GPa) = 0.03248943
#
# Stress axis : x y z
#
# Youngs Moduli (GPa) = 73.69937 73.69619 33.39203
#
# Poissons Ratio (x) = 0.36892 0.12175
# Poissons Ratio (y) = 0.36893 0.12175
# Poissons Ratio (z) = 0.26870 0.26870
#
# Static dielectric constant tensor:
#      x y z
#    x 1.760910 0.000000 0.000000 
#    y 0.000000 1.760930 0.000000 
#    z 0.000000 0.000000 1.657250 
# 
# From -- ./inp_files/1383.got.cif
#   From: 2010.05.17/outbox.cif.g08.bks.cpg/sg124_1_cif.got.tgz:1383.got - 2010.05.20 11:49:17.
