data_PCOD9562375
_publ_section_title
;
Structure prediction by ZEFSAII (Michael W. Deem and Ramdas Pophale) SiO2 
 PCOD9562375
Probable space group: P 4/M C C
;
_chemical_formula_sum "Si O2"
_cell_formula_units_Z 112
_cell_length_a 13.722127
_cell_length_b 13.722127
_cell_length_c 31.551192
_cell_angle_alpha 90.000000
_cell_angle_beta 90.000000
_cell_angle_gamma 90.000000
_cell_volume 5940.987524
_symmetry_space_group_name_H-M "P 4/M C C"
_symmetry_group_IT_number 124
_symmetry_cell_setting 'tetragonal'
loop_
_space_group_symop_operation_xyz
x,y,z
-y,x,z
-x,-y,z
y,-x,z
x,-y,1/2-z
-x,y,1/2-z
y,x,1/2-z
-y,-x,1/2-z
-x,-y,-z
y,-x,-z
x,y,-z
-y,x,-z
-x,y,1/2+z
x,-y,1/2+z
-y,-x,1/2+z
y,x,1/2+z
loop_
_atom_site_type_symbol
_atom_site_label
_atom_site_fract_x
_atom_site_fract_y
_atom_site_fract_z
Si Si1 0.875832 0.087531 0.298974
Si Si2 0.617979 0.614429 0.796443
Si Si3 0.370092 0.113929 0.661557
Si Si4 0.409993 0.116765 0.158605
Si Si5 0.620322 0.391119 0.549892
Si Si6 0.321964 0.115767 0.758327
Si Si7 0.278702 0.716566 0.124308
O O1 0.907793 0.092208 0.250000
O O2 0.771110 0.137826 0.289917
O O3 0.977192 0.133152 0.317268
O O4 0.501856 0.631639 0.797981
O O5 0.651898 0.651898 0.750000
O O6 0.667184 0.661313 0.836995
O O7 0.479284 0.143053 0.646824
O O8 0.345396 0.145593 0.710188
O O9 0.290496 0.168732 0.633106
O O10 0.380131 0.997125 0.658114
O O11 0.407138 0.140165 0.209125
O O12 0.333731 0.174537 0.129943
O O13 0.632352 0.506479 0.558330
O O14 0.638362 0.374940 0.500000
O O15 0.686474 0.327995 0.580567
O O16 0.309930 0.000000 0.750000
#
# Coordination Sequence:
#
# PCOD9562375 Si02
#       7
#    16  16  16  16  16  16  16
#     4   9  16  25  41  63  89 118 167 238 287 302
#     4   9  18  30  44  70 107 137 168 213 259 310
#     4  10  23  37  49  72 107 142 180 228 273 317
#     4  10  23  37  49  72 107 142 180 228 273 317
#     4   9  18  34  58  88 115 135 167 222 282 339
#     4  10  19  29  46  59  91 137 188 219 263 316
#     4  12  22  33  58  77 100 143 188 220 264 330
#
# _framework density 18.852084000000001
#
# number of rings (size 3 to 8) (size 9 to 14) (size 15 to 20)
#    0.000    2.143    1.429    4.286    4.000    2.857 
#    0.000    0.000    0.000    1.286    0.000    4.000 
#    0.000    0.000    0.000    1.286    0.000    0.286 
#
# Total GULP energy -623571.105701 kJ/mol
# GULP energy per Si atom -5567.599158 kJ/mol
# Density = 1.880918 g / cm^3
# Si number density = 18.852084 Si / 1000 Ang^3
#
#
#
# Elastic Constant Matrix: (Units=GPa)
#
#
# Indices 1 2 3 4 5 6 
#
# 1 71.1273 19.3122 15.1905 0.0000 0.0000 0.0000
# 2 19.3122 71.1272 15.1905 0.0000 0.0000 0.0000
# 3 15.1905 15.1905 43.0286 0.0000 0.0000 0.0000
# 4 0.0000 0.0000 0.0000 19.8328 0.0000 0.0000
# 5 0.0000 0.0000 0.0000 0.0000 19.8328 0.0000
# 6 0.0000 0.0000 0.0000 0.0000 0.0000 -33.1173
#
#
#
# Elastic Compliance Matrix: (Units=1/GPa)
#
#
# Indices 1 2 3 4 5 6 
#
# 1 0.015922 -0.003377 -0.004429 0.000000 0.000000 0.000000
# 2 -0.003377 0.015922 -0.004429 0.000000 0.000000 0.000000
# 3 -0.004429 -0.004429 0.026367 0.000000 0.000000 0.000000
# 4 0.000000 0.000000 0.000000 0.050421 0.000000 0.000000
# 5 0.000000 0.000000 0.000000 0.000000 0.050422 0.000000
# 6 0.000000 0.000000 0.000000 0.000000 0.000000 -0.030196
#
#
# Mechanical properties :
#
#
# Convention : Reuss Voigt Hill
#
# Bulk Modulus (GPa) = 29.63659 31.62995 30.63327
# Shear Modulus (GPa) = 30.38115 10.34899 20.36507
#
# Velocity S-wave (km/s) = 4.01877 2.34553 3.29029
# Velocity P-wave (km/s) = 6.10645 4.91423 5.54249
#
# Compressibility (1/GPa) = 0.03374207
#
# Stress axis : x y z
#
# Youngs Moduli (GPa) = 62.80573 62.80564 37.92575
#
# Poissons Ratio (x) = 0.21211 0.16796
# Poissons Ratio (y) = 0.21211 0.16796
# Poissons Ratio (z) = 0.27815 0.27815
#
# Static dielectric constant tensor:
#      x y z
#    x 1.825010 0.000000 0.000000 
#    y 0.000000 1.825020 0.000000 
#    z 0.000000 0.000000 1.607610 
# 
# From -- ./inp_files/7267.got.cif
#   From: 2010.05.17/outbox.cif.g08.bks.cpg/sg124_4_cif.got.tgz:7267.got - 2010.05.20 11:49:17.
