data_PCOD9562669
_publ_section_title
;
Structure prediction by ZEFSAII (Michael W. Deem and Ramdas Pophale) SiO2 
 PCOD9562669
Probable space group: P 4/M C C
;
_chemical_formula_sum "Si O2"
_cell_formula_units_Z 112
_cell_length_a 14.454396
_cell_length_b 14.454396
_cell_length_c 26.133194
_cell_angle_alpha 90.000000
_cell_angle_beta 90.000000
_cell_angle_gamma 90.000000
_cell_volume 5459.996821
_symmetry_space_group_name_H-M "P 4/M C C"
_symmetry_group_IT_number 124
_symmetry_cell_setting 'tetragonal'
loop_
_space_group_symop_operation_xyz
x,y,z
-y,x,z
-x,-y,z
y,-x,z
x,-y,1/2-z
-x,y,1/2-z
y,x,1/2-z
-y,-x,1/2-z
-x,-y,-z
y,-x,-z
x,y,-z
-y,x,-z
-x,y,1/2+z
x,-y,1/2+z
-y,-x,1/2+z
y,x,1/2+z
loop_
_atom_site_type_symbol
_atom_site_label
_atom_site_fract_x
_atom_site_fract_y
_atom_site_fract_z
Si Si1 0.151127 0.450905 0.902369
Si Si2 0.145833 0.015984 0.310945
Si Si3 0.440512 0.181296 0.198791
Si Si4 0.371899 0.421023 0.667603
Si Si5 0.133143 0.348753 0.445076
Si Si6 0.663735 0.984447 0.146734
Si Si7 0.666472 0.351911 0.557706
O O1 0.191443 0.492547 0.850023
O O2 0.125598 0.540512 0.935924
O O3 0.233026 0.394379 0.929229
O O4 0.060709 0.397348 0.882577
O O5 0.249912 0.031652 0.327043
O O6 0.098372 0.920559 0.329049
O O7 0.143729 0.000000 0.250000
O O8 0.500000 0.175114 0.250000
O O9 0.383049 0.277511 0.193526
O O10 0.387691 0.084914 0.186399
O O11 0.470773 0.378726 0.682759
O O12 0.369727 0.402123 0.605838
O O13 0.093021 0.324251 0.500000
O O14 0.082903 0.301699 0.398089
O O15 0.241217 0.326483 0.444033
O O16 0.637637 0.382558 0.500000
#
# Coordination Sequence:
#
# PCOD9562669 Si02
#       7
#    16  16  16  16  16  16  16
#     4  11  23  39  61  92 128 166 217 272 327 390
#     4   9  21  43  66  92 123 156 200 259 323 390
#     4  11  24  41  60  90 133 173 214 270 320 388
#     4  11  22  41  63  89 129 173 227 269 319 389
#     4  10  21  39  59  88 130 167 207 261 318 384
#     4  11  24  38  67  97 123 165 212 266 326 403
#     4  11  21  39  65  92 127 168 218 276 323 383
#
# _framework density 20.512832
#
# number of rings (size 3 to 8) (size 9 to 14) (size 15 to 20)
#    0.000    1.429    4.286    2.571    4.000    4.571 
#    0.000    1.429    0.000    0.000    0.000    1.000 
#    0.000    0.000    0.000    0.000    0.000    0.000 
#
# Total GULP energy -624564.998422 kJ/mol
# GULP energy per Si atom -5576.473200 kJ/mol
# Density = 2.046614 g / cm^3
# Si number density = 20.512832 Si / 1000 Ang^3
#
#
#
# Elastic Constant Matrix: (Units=GPa)
#
#
# Indices 1 2 3 4 5 6 
#
# 1 52.6324 16.6850 0.0769 0.0000 0.0000 0.0000
# 2 16.6850 52.6324 0.0769 0.0000 0.0000 0.0000
# 3 0.0769 0.0769 60.0118 0.0000 0.0000 0.0000
# 4 0.0000 0.0000 0.0000 5.9443 0.0000 0.0000
# 5 0.0000 0.0000 0.0000 0.0000 5.9443 0.0000
# 6 0.0000 0.0000 0.0000 0.0000 0.0000 16.0446
#
#
#
# Elastic Compliance Matrix: (Units=1/GPa)
#
#
# Indices 1 2 3 4 5 6 
#
# 1 0.021122 -0.006696 -0.000018 0.000000 0.000000 0.000000
# 2 -0.006696 0.021122 -0.000018 0.000000 0.000000 0.000000
# 3 -0.000018 -0.000018 0.016663 0.000000 0.000000 0.000000
# 4 0.000000 0.000000 0.000000 0.168228 0.000000 0.000000
# 5 0.000000 0.000000 0.000000 0.000000 0.168228 0.000000
# 6 0.000000 0.000000 0.000000 0.000000 0.000000 0.062326
#
#
# Mechanical properties :
#
#
# Convention : Reuss Voigt Hill
#
# Bulk Modulus (GPa) = 22.00592 22.10604 22.05598
# Shear Modulus (GPa) = 10.28163 15.48250 12.88207
#
# Velocity S-wave (km/s) = 2.24124 2.75029 2.50871
# Velocity P-wave (km/s) = 4.17717 4.57007 4.37803
#
# Compressibility (1/GPa) = 0.04544232
#
# Stress axis : x y z
#
# Youngs Moduli (GPa) = 47.34306 47.34306 60.01161
#
# Poissons Ratio (x) = 0.31701 0.00111
# Poissons Ratio (y) = 0.31701 0.00111
# Poissons Ratio (z) = 0.00088 0.00088
#
# Static dielectric constant tensor:
#      x y z
#    x 1.774520 0.000000 0.000000 
#    y 0.000000 1.774520 0.000000 
#    z 0.000000 0.000000 1.783050 
# 
# From -- ./inp_files/6648.got.cif
#   From: 2010.05.17/outbox.cif.g08.bks.cpg/sg124_4_cif.got.tgz:6648.got - 2010.05.20 11:49:17.
