data_PCOD9562812
_publ_section_title
;
Structure prediction by ZEFSAII (Michael W. Deem and Ramdas Pophale) SiO2 
 PCOD9562812
Probable space group: P 4/M C C
;
_chemical_formula_sum "Si O2"
_cell_formula_units_Z 52
_cell_length_a 17.599849
_cell_length_b 17.599849
_cell_length_c 8.619713
_cell_angle_alpha 90.000000
_cell_angle_beta 90.000000
_cell_angle_gamma 90.000000
_cell_volume 2669.996484
_symmetry_space_group_name_H-M "P 4/M C C"
_symmetry_group_IT_number 124
_symmetry_cell_setting 'tetragonal'
loop_
_space_group_symop_operation_xyz
x,y,z
-y,x,z
-x,-y,z
y,-x,z
x,-y,1/2-z
-x,y,1/2-z
y,x,1/2-z
-y,-x,1/2-z
-x,-y,-z
y,-x,-z
x,y,-z
-y,x,-z
-x,y,1/2+z
x,-y,1/2+z
-y,-x,1/2+z
y,x,1/2+z
loop_
_atom_site_type_symbol
_atom_site_label
_atom_site_fract_x
_atom_site_fract_y
_atom_site_fract_z
Si Si1 0.295784 0.583936 0.685792
Si Si2 0.500000 0.000000 0.750000
Si Si3 0.123909 0.630387 0.687380
Si Si4 0.083056 0.796563 0.185483
O O1 0.310860 0.500000 0.750000
O O2 0.355818 0.644183 0.750000
O O3 0.299817 0.582692 0.500000
O O4 0.210148 0.608660 0.729980
O O5 0.433677 0.066088 0.744944
O O6 0.117896 0.633308 0.500000
O O7 0.102739 0.711842 0.756671
O O8 0.145552 0.854449 0.250000
O O9 0.000000 0.816788 0.250000
O O10 0.082601 0.798123 0.000000
#
# Coordination Sequence:
#
# PCOD9562812 Si02
#       4
#    16   4  16  16
#     4  11  24  43  66  96 131 173 221 272 329 391
#     4  12  22  40  72 106 142 172 218 264 334 392
#     4  11  24  42  67 102 139 177 219 270 333 396
#     4  12  26  45  70  99 135 177 225 276 332 395
#
# _framework density 19.475683
#
# number of rings (size 3 to 8) (size 9 to 14) (size 15 to 20)
#    0.000    0.615    3.077    5.077    0.000    6.769 
#    0.000    3.077    0.000    0.000    0.000    0.000 
#    0.000    0.000    0.000    0.000    0.000    0.000 
#
# Total GULP energy -290041.945341 kJ/mol
# GULP energy per Si atom -5577.729718 kJ/mol
# Density = 1.943136 g / cm^3
# Si number density = 19.475683 Si / 1000 Ang^3
#
#
#
# Elastic Constant Matrix: (Units=GPa)
#
#
# Indices 1 2 3 4 5 6 
#
# 1 184.5605 165.2520 75.5208 0.0000 0.0000 0.0000
# 2 165.2520 184.5922 75.5256 0.0000 0.0000 0.0000
# 3 75.5208 75.5256 127.2519 0.0000 0.0000 0.0000
# 4 0.0000 0.0000 0.0000 60.0013 0.0000 0.0000
# 5 0.0000 0.0000 0.0000 0.0000 60.0115 0.0000
# 6 0.0000 0.0000 0.0000 0.0000 0.0000 50.1701
#
#
#
# Elastic Compliance Matrix: (Units=1/GPa)
#
#
# Indices 1 2 3 4 5 6 
#
# 1 0.027798 -0.023952 -0.002282 0.000000 0.000000 0.000000
# 2 -0.023952 0.027793 -0.002280 0.000000 0.000000 0.000000
# 3 -0.002282 -0.002280 0.010566 0.000000 0.000000 0.000000
# 4 0.000000 0.000000 0.000000 0.016666 0.000000 0.000000
# 5 0.000000 0.000000 0.000000 0.000000 0.016663 0.000000
# 6 0.000000 0.000000 0.000000 0.000000 0.000000 0.019932
#
#
# Mechanical properties :
#
#
# Convention : Reuss Voigt Hill
#
# Bulk Modulus (GPa) = 109.54503 125.44461 117.49482
# Shear Modulus (GPa) = 27.85645 46.04366 36.95005
#
# Velocity S-wave (km/s) = 3.78606 4.86754 4.36046
# Velocity P-wave (km/s) = 8.68801 9.80517 9.26344
#
# Compressibility (1/GPa) = 0.00912867
#
# Stress axis : x y z
#
# Youngs Moduli (GPa) = 35.97321 35.97993 94.64305
#
# Poissons Ratio (x) = 0.86181 0.21594
# Poissons Ratio (y) = 0.86165 0.21583
# Poissons Ratio (z) = 0.08208 0.08205
#
# Static dielectric constant tensor:
#      x y z
#    x 1.615910 0.000000 0.000000 
#    y 0.000000 1.615990 0.000000 
#    z 0.000000 0.000000 1.679730 
# 
# From -- ./inp_files/561.got.cif
#   From: 2010.05.17/outbox.cif.g08.bks.cpg/sg124_1_cif.got.tgz:561.got - 2010.05.20 11:49:17.
