data_PCOD9562016
_publ_section_title
;
Structure prediction by ZEFSAII (Michael W. Deem and Ramdas Pophale) SiO2 
 PCOD9562016
Probable space group: P 4/M M M
;
_chemical_formula_sum "Si O2"
_cell_formula_units_Z 112
_cell_length_a 13.996078
_cell_length_b 13.996078
_cell_length_c 36.116035
_cell_angle_alpha 90.000000
_cell_angle_beta 90.000000
_cell_angle_gamma 90.000000
_cell_volume 7074.777297
_symmetry_space_group_name_H-M "P 4/M M M"
_symmetry_group_IT_number 123
_symmetry_cell_setting 'tetragonal'
loop_
_space_group_symop_operation_xyz
x,y,z
-y,x,z
-x,-y,z
y,-x,z
x,-y,-z
-x,y,-z
y,x,-z
-y,-x,-z
-x,-y,-z
y,-x,-z
x,y,-z
-y,x,-z
-x,y,z
x,-y,z
-y,-x,z
y,x,z
loop_
_atom_site_type_symbol
_atom_site_label
_atom_site_fract_x
_atom_site_fract_y
_atom_site_fract_z
Si Si1 0.771508 0.386380 0.750499
Si Si2 0.768667 0.611566 0.543588
Si Si3 0.111380 0.611471 0.675675
Si Si4 0.885556 0.728722 0.812225
Si Si5 0.387109 0.230078 0.958851
Si Si6 0.389585 0.113843 0.885824
Si Si7 0.887260 0.729792 0.398649
O O1 0.759579 0.500000 0.756058
O O2 0.673222 0.326779 0.752688
O O3 0.820297 0.370936 0.710434
O O4 0.842680 0.341083 0.780876
O O5 0.792723 0.620429 0.500000
O O6 0.757591 0.500000 0.552246
O O7 0.671173 0.671173 0.549707
O O8 0.847736 0.660663 0.569223
O O9 0.121588 0.500000 0.664732
O O10 0.131346 0.678081 0.640645
O O11 0.000000 0.625340 0.686655
O O12 0.828218 0.828218 0.809406
O O13 0.863151 0.679297 0.851714
O O14 0.000000 0.738629 0.808670
O O15 0.500000 0.249345 0.956779
O O16 0.326013 0.326013 0.956052
O O17 0.362078 0.163320 0.924314
O O18 0.368320 0.188094 0.000000
O O19 0.500000 0.140658 0.877012
O O20 0.387627 0.000000 0.890813
O O21 0.826732 0.826732 0.400506
O O22 0.000000 0.744998 0.402311
#
# Coordination Sequence:
#
# PCOD9562016 Si02
#       7
#    16  16  16  16  16  16  16
#     4  10  20  33  50  72  98 128 160 193 229 271
#     4   9  18  32  50  73  99 125 154 190 234 285
#     4   9  17  30  50  74  96 120 154 195 237 281
#     4  10  20  33  50  71  94 121 153 190 233 279
#     4   9  17  28  42  61  86 116 148 182 220 262
#     4   9  17  29  46  67  89 114 146 184 225 270
#     4  10  20  33  49  69  95 127 163 202 240 278
#
# _framework density 15.830888
#
# number of rings (size 3 to 8) (size 9 to 14) (size 15 to 20)
#    0.000    2.571    0.000    2.143    0.000    3.571 
#    0.000    3.571    0.000    0.000    0.000    8.000 
#    0.000    0.000    0.000   13.286    0.000    0.286 
#
# Total GULP energy -624172.438919 kJ/mol
# GULP energy per Si atom -5572.968205 kJ/mol
# Density = 1.579486 g / cm^3
# Si number density = 15.830888 Si / 1000 Ang^3
#
#
#
# Elastic Constant Matrix: (Units=GPa)
#
#
# Indices 1 2 3 4 5 6 
#
# 1 97.8051 66.4812 66.5291 0.0000 0.0000 0.0000
# 2 66.4812 97.8051 66.5291 0.0000 0.0000 0.0000
# 3 66.5291 66.5291 97.2025 0.0000 0.0000 0.0000
# 4 0.0000 0.0000 0.0000 24.7726 0.0000 0.0000
# 5 0.0000 0.0000 0.0000 0.0000 24.7726 0.0000
# 6 0.0000 0.0000 0.0000 0.0000 0.0000 15.3823
#
#
#
# Elastic Compliance Matrix: (Units=1/GPa)
#
#
# Indices 1 2 3 4 5 6 
#
# 1 0.022791 -0.009133 -0.009348 0.000000 0.000000 0.000000
# 2 -0.009133 0.022791 -0.009348 0.000000 0.000000 0.000000
# 3 -0.009348 -0.009348 0.023084 0.000000 0.000000 0.000000
# 4 0.000000 0.000000 0.000000 0.040367 0.000000 0.000000
# 5 0.000000 0.000000 0.000000 0.000000 0.040367 0.000000
# 6 0.000000 0.000000 0.000000 0.000000 0.000000 0.065010
#
#
# Mechanical properties :
#
#
# Convention : Reuss Voigt Hill
#
# Bulk Modulus (GPa) = 76.87613 76.87687 76.87650
# Shear Modulus (GPa) = 18.22117 19.20371 18.71244
#
# Velocity S-wave (km/s) = 3.39630 3.48667 3.44178
# Velocity P-wave (km/s) = 8.00288 8.05456 8.02876
#
# Compressibility (1/GPa) = 0.01300794
#
# Stress axis : x y z
#
# Youngs Moduli (GPa) = 43.87633 43.87633 43.31943
#
# Poissons Ratio (x) = 0.40073 0.40496
# Poissons Ratio (y) = 0.40073 0.40496
# Poissons Ratio (z) = 0.41016 0.41016
#
# Static dielectric constant tensor:
#      x y z
#    x 1.508390 0.000000 0.000000 
#    y 0.000000 1.508390 0.000000 
#    z 0.000000 0.000000 1.528780 
# 
# From -- ./inp_files/8166.got.cif
#   From: 2010.05.17/outbox.cif.g08.bks.cpg/sg123_5_cif.got.tgz:8166.got - 2010.05.20 11:43:04.
