data_PCOD9562351
_publ_section_title
;
Structure prediction by ZEFSAII (Michael W. Deem and Ramdas Pophale) SiO2 
 PCOD9562351
Probable space group: P 4/M C C
;
_chemical_formula_sum "Si O2"
_cell_formula_units_Z 96
_cell_length_a 24.230949
_cell_length_b 24.230949
_cell_length_c 10.162430
_cell_angle_alpha 90.000000
_cell_angle_beta 90.000000
_cell_angle_gamma 90.000000
_cell_volume 5966.757864
_symmetry_space_group_name_H-M "P 4/M C C"
_symmetry_group_IT_number 124
_symmetry_cell_setting 'tetragonal'
loop_
_space_group_symop_operation_xyz
x,y,z
-y,x,z
-x,-y,z
y,-x,z
x,-y,1/2-z
-x,y,1/2-z
y,x,1/2-z
-y,-x,1/2-z
-x,-y,-z
y,-x,-z
x,y,-z
-y,x,-z
-x,y,1/2+z
x,-y,1/2+z
-y,-x,1/2+z
y,x,1/2+z
loop_
_atom_site_type_symbol
_atom_site_label
_atom_site_fract_x
_atom_site_fract_y
_atom_site_fract_z
Si Si1 0.231606 0.061729 0.500000
Si Si2 0.327133 0.761792 0.244180
Si Si3 0.846589 0.938827 0.751652
Si Si4 0.384550 0.549763 0.654741
Si Si5 0.180452 0.278498 0.500000
Si Si6 0.265027 0.815774 0.000000
Si Si7 0.252176 0.548350 0.651911
Si Si8 0.938068 0.234157 0.000000
O O1 0.192332 0.064917 0.625726
O O2 0.265389 0.118276 0.500000
O O3 0.258730 0.000536 0.500000
O O4 0.298929 0.701072 0.250000
O O5 0.309970 0.794358 0.374983
O O6 0.391695 0.760211 0.212918
O O7 0.296347 0.792841 0.126325
O O8 0.892076 0.892076 0.750000
O O9 0.805998 0.933587 0.875075
O O10 0.872210 0.000000 0.750000
O O11 0.405654 0.500000 0.750000
O O12 0.398953 0.601048 0.750000
O O13 0.404584 0.551947 0.500000
O O14 0.318770 0.543892 0.645136
O O15 0.205471 0.215596 0.500000
O O16 0.114342 0.274491 0.500000
O O17 0.232483 0.500000 0.750000
O O18 0.232120 0.544161 0.500000
#
# Coordination Sequence:
#
# PCOD9562351 Si02
#       8
#     8  16  16  16   8   8  16   8
#     4  10  20  32  51  70  97 138 170 217 266 311
#     4  10  20  34  51  78 106 137 171 212 258 306
#     4  10  19  30  45  64  91 129 174 219 263 304
#     4  10  20  34  50  70  94 128 169 211 253 292
#     4  10  20  30  51  75 104 135 170 217 262 315
#     4  10  18  32  51  73 102 137 172 209 266 313
#     4  10  21  36  53  74 103 135 168 202 247 308
#     4  10  20  34  47  72 101 130 176 217 260 319
#
# _framework density 16.089138999999999
#
# number of rings (size 3 to 8) (size 9 to 14) (size 15 to 20)
#    0.000    2.000    0.833    3.500    1.167    2.333 
#    0.000    0.833    0.000    3.000    0.000    0.000 
#    0.000    4.000    0.000    0.000    0.000    0.000 
#
# Total GULP energy -534835.873777 kJ/mol
# GULP energy per Si atom -5571.207019 kJ/mol
# Density = 1.605252 g / cm^3
# Si number density = 16.089139 Si / 1000 Ang^3
#
#
#
# Elastic Constant Matrix: (Units=GPa)
#
#
# Indices 1 2 3 4 5 6 
#
# 1 89.1781 29.1466 38.8067 0.0000 0.0000 0.0000
# 2 29.1466 89.1789 38.8082 0.0000 0.0000 0.0000
# 3 38.8067 38.8082 157.2229 0.0000 0.0000 0.0000
# 4 0.0000 0.0000 0.0000 10.9636 0.0000 0.0000
# 5 0.0000 0.0000 0.0000 0.0000 10.9621 0.0000
# 6 0.0000 0.0000 0.0000 0.0000 0.0000 22.1196
#
#
#
# Elastic Compliance Matrix: (Units=1/GPa)
#
#
# Indices 1 2 3 4 5 6 
#
# 1 0.013371 -0.003287 -0.002489 0.000000 0.000000 0.000000
# 2 -0.003287 0.013371 -0.002489 0.000000 0.000000 0.000000
# 3 -0.002489 -0.002489 0.007589 0.000000 0.000000 0.000000
# 4 0.000000 0.000000 0.000000 0.091211 0.000000 0.000000
# 5 0.000000 0.000000 0.000000 0.000000 0.091223 0.000000
# 6 0.000000 0.000000 0.000000 0.000000 0.000000 0.045209
#
#
# Mechanical properties :
#
#
# Convention : Reuss Voigt Hill
#
# Bulk Modulus (GPa) = 56.17683 61.01145 58.59414
# Shear Modulus (GPa) = 17.57856 24.06362 20.82109
#
# Velocity S-wave (km/s) = 3.30900 3.87155 3.60127
# Velocity P-wave (km/s) = 7.04209 7.61501 7.33415
#
# Compressibility (1/GPa) = 0.01780093
#
# Stress axis : x y z
#
# Youngs Moduli (GPa) = 74.78930 74.78943 131.76729
#
# Poissons Ratio (x) = 0.24583 0.32796
# Poissons Ratio (y) = 0.24583 0.32798
# Poissons Ratio (z) = 0.18615 0.18616
#
# Static dielectric constant tensor:
#      x y z
#    x 1.553490 0.000000 0.000000 
#    y 0.000000 1.553490 0.000000 
#    z 0.000000 0.000000 1.540060 
# 
# From -- ./inp_files/1475.got.cif
#   From: 2010.05.17/outbox.cif.g08.bks.cpg/sg124_1_cif.got.tgz:1475.got - 2010.05.20 11:49:17.
