data_PCOD9562868
_publ_section_title
;
Structure prediction by ZEFSAII (Michael W. Deem and Ramdas Pophale) SiO2 
 PCOD9562868
Probable space group: P 4/M C C
;
_chemical_formula_sum "Si O2"
_cell_formula_units_Z 112
_cell_length_a 15.000000
_cell_length_b 15.000000
_cell_length_c 24.000000
_cell_angle_alpha 90.000000
_cell_angle_beta 90.000000
_cell_angle_gamma 90.000000
_cell_volume 5400.000000
_symmetry_space_group_name_H-M "P 4/M C C"
_symmetry_group_IT_number 124
_symmetry_cell_setting 'tetragonal'
loop_
_space_group_symop_operation_xyz
x,y,z
-y,x,z
-x,-y,z
y,-x,z
x,-y,1/2-z
-x,y,1/2-z
y,x,1/2-z
-y,-x,1/2-z
-x,-y,-z
y,-x,-z
x,y,-z
-y,x,-z
-x,y,1/2+z
x,-y,1/2+z
-y,-x,1/2+z
y,x,1/2+z
loop_
_atom_site_type_symbol
_atom_site_label
_atom_site_fract_x
_atom_site_fract_y
_atom_site_fract_z
Si Si1 0.692861 0.719999 0.936773
Si Si2 0.204153 0.403508 0.221194
Si Si3 0.248629 0.902665 0.937539
Si Si4 0.421671 0.628260 0.858665
Si Si5 0.102150 0.106346 0.845334
Si Si6 0.699897 0.160020 0.672366
Si Si7 0.024222 0.395095 0.853773
O O1 0.799832 0.721465 0.938915
O O2 0.659168 0.622759 0.917060
O O3 0.672417 0.788769 0.885374
O O4 0.661134 0.742502 0.000000
O O5 0.202689 0.500000 0.250000
O O6 0.292097 0.395195 0.183155
O O7 0.205198 0.336573 0.272570
O O8 0.113140 0.393455 0.184855
O O9 0.151911 0.903031 0.907152
O O10 0.326948 0.953593 0.904419
O O11 0.240335 0.937913 0.000000
O O12 0.382492 0.528364 0.851758
O O13 0.192328 0.153551 0.823797
O O14 0.997780 0.119722 0.830636
O O15 0.652094 0.063026 0.672327
O O16 0.000000 0.500000 0.865693
#
# Coordination Sequence:
#
# PCOD9562868 Si02
#       7
#    16  16  16  16  16  16  16
#     4  10  23  46  71 100 139 185 233 289 357 431
#     4  12  25  46  71 105 145 190 238 295 366 434
#     4  10  22  42  69 102 143 187 238 300 361 423
#     4  11  26  48  73 105 139 180 236 299 361 428
#     4  10  21  42  69 100 138 183 238 295 354 425
#     4  11  24  42  70 106 143 187 236 297 356 432
#     4  12  24  44  69 107 146 188 245 298 363 434
#
# _framework density 20.740741
#
# number of rings (size 3 to 8) (size 9 to 14) (size 15 to 20)
#    0.000    1.143    4.286    1.286    0.000    4.286 
#    0.000    5.000    0.000    0.000    0.000    0.000 
#    0.000    0.000    0.000    0.000    0.000    0.000 
#
# Total GULP energy -624720.141237 kJ/mol
# GULP energy per Si atom -5577.858404 kJ/mol
# Density = 2.069353 g / cm^3
# Si number density = 20.740741 Si / 1000 Ang^3
#
#
#
# Elastic Constant Matrix: (Units=GPa)
#
#
# Indices 1 2 3 4 5 6 
#
# 1 115.1192 19.6987 45.8258 0.0000 0.0000 0.0000
# 2 19.6987 115.1192 45.8258 0.0000 0.0000 0.0000
# 3 45.8258 45.8258 101.5834 0.0000 0.0000 0.0000
# 4 0.0000 0.0000 0.0000 24.1934 0.0000 0.0000
# 5 0.0000 0.0000 0.0000 0.0000 24.1934 0.0000
# 6 0.0000 0.0000 0.0000 0.0000 0.0000 37.6174
#
#
#
# Elastic Compliance Matrix: (Units=1/GPa)
#
#
# Indices 1 2 3 4 5 6 
#
# 1 0.010589 0.000109 -0.004826 0.000000 0.000000 0.000000
# 2 0.000109 0.010589 -0.004826 0.000000 0.000000 0.000000
# 3 -0.004826 -0.004826 0.014198 0.000000 0.000000 0.000000
# 4 0.000000 0.000000 0.000000 0.041334 0.000000 0.000000
# 5 0.000000 0.000000 0.000000 0.000000 0.041334 0.000000
# 6 0.000000 0.000000 0.000000 0.000000 0.000000 0.026583
#
#
# Mechanical properties :
#
#
# Convention : Reuss Voigt Hill
#
# Bulk Modulus (GPa) = 61.38582 61.61358 61.49970
# Shear Modulus (GPa) = 29.56063 31.89893 30.72978
#
# Velocity S-wave (km/s) = 3.77934 3.92597 3.85335
# Velocity P-wave (km/s) = 6.97893 7.09380 7.03660
#
# Compressibility (1/GPa) = 0.01629041
#
# Stress axis : x y z
#
# Youngs Moduli (GPa) = 94.43645 94.43645 70.43024
#
# Poissons Ratio (x) = -0.01031 0.33991
# Poissons Ratio (y) = -0.01031 0.33991
# Poissons Ratio (z) = 0.45577 0.45577
#
# Static dielectric constant tensor:
#      x y z
#    x 1.766780 0.000000 0.000000 
#    y 0.000000 1.766780 0.000000 
#    z 0.000000 0.000000 1.775820 
# 
# From -- ./inp_files/6119.got.cif
#   From: 2010.05.17/outbox.ucp.g08.bks.cvg/sg124_4_cif.got.tgz:6119.got - 2010.06.11 11:36:13.
