data_PCOD9562343
_publ_section_title
;
Structure prediction by ZEFSAII (Michael W. Deem and Ramdas Pophale) SiO2 
 PCOD9562343
Probable space group: P 4/M C C
;
_chemical_formula_sum "Si O2"
_cell_formula_units_Z 88
_cell_length_a 15.107208
_cell_length_b 15.107208
_cell_length_c 23.832362
_cell_angle_alpha 90.000000
_cell_angle_beta 90.000000
_cell_angle_gamma 90.000000
_cell_volume 5439.205965
_symmetry_space_group_name_H-M "P 4/M C C"
_symmetry_group_IT_number 124
_symmetry_cell_setting 'tetragonal'
loop_
_space_group_symop_operation_xyz
x,y,z
-y,x,z
-x,-y,z
y,-x,z
x,-y,1/2-z
-x,y,1/2-z
y,x,1/2-z
-y,-x,1/2-z
-x,-y,-z
y,-x,-z
x,y,-z
-y,x,-z
-x,y,1/2+z
x,-y,1/2+z
-y,-x,1/2+z
y,x,1/2+z
loop_
_atom_site_type_symbol
_atom_site_label
_atom_site_fract_x
_atom_site_fract_y
_atom_site_fract_z
Si Si1 0.574197 0.244005 0.068122
Si Si2 0.898456 0.263217 0.102860
Si Si3 0.729125 0.374039 0.068015
Si Si4 0.960656 0.599049 0.067403
Si Si5 0.885332 0.913677 0.183469
Si Si6 0.935702 0.133921 0.000000
O O1 0.645992 0.315536 0.086790
O O2 0.475694 0.269637 0.086746
O O3 0.597884 0.142864 0.082989
O O4 0.573655 0.244912 0.000000
O O5 0.817608 0.326593 0.087994
O O6 0.877321 0.204478 0.157506
O O7 0.909947 0.190864 0.053940
O O8 0.984371 0.326883 0.100886
O O9 0.729811 0.374090 0.000000
O O10 0.000000 0.500000 0.075690
O O11 0.969376 0.618055 0.000000
O O12 0.895360 0.895360 0.250000
O O13 0.982617 0.881680 0.164900
O O14 0.040131 0.113827 0.000000
#
# Coordination Sequence:
#
# PCOD9562343 Si02
#       6
#    16  16  16  16  16   8
#     4   9  19  30  46  64 102 144 182 221 253 314
#     4  12  20  30  52  74 101 141 181 217 266 333
#     4  10  19  32  45  72 101 140 184 219 265 312
#     4  10  18  30  45  70 108 147 175 213 271 322
#     4   9  20  38  54  70  97 135 181 221 261 312
#     4  11  24  32  39  70 112 137 168 217 271 318
#
# _framework density 16.178833000000001
#
# number of rings (size 3 to 8) (size 9 to 14) (size 15 to 20)
#    0.000    1.909    3.636    1.636    5.091    1.818 
#    0.000    1.818    0.000    0.000    0.000    8.909 
#    0.000    0.000    0.000    1.636    0.000    0.182 
#
# Total GULP energy -490413.274185 kJ/mol
# GULP energy per Si atom -5572.878116 kJ/mol
# Density = 1.614201 g / cm^3
# Si number density = 16.178833 Si / 1000 Ang^3
#
#
#
# Elastic Constant Matrix: (Units=GPa)
#
#
# Indices 1 2 3 4 5 6 
#
# 1 113.0355 68.7354 16.4948 0.0000 0.0000 0.0000
# 2 68.7354 113.0355 16.4948 0.0000 0.0000 0.0000
# 3 16.4948 16.4948 22.6443 0.0000 0.0000 0.0000
# 4 0.0000 0.0000 0.0000 12.8108 0.0000 0.0000
# 5 0.0000 0.0000 0.0000 0.0000 12.8108 0.0000
# 6 0.0000 0.0000 0.0000 0.0000 0.0000 27.0601
#
#
#
# Elastic Compliance Matrix: (Units=1/GPa)
#
#
# Indices 1 2 3 4 5 6 
#
# 1 0.014456 -0.008117 -0.004618 0.000000 0.000000 0.000000
# 2 -0.008117 0.014456 -0.004618 0.000000 0.000000 0.000000
# 3 -0.004618 -0.004618 0.050889 0.000000 0.000000 0.000000
# 4 0.000000 0.000000 0.000000 0.078059 0.000000 0.000000
# 5 0.000000 0.000000 0.000000 0.000000 0.078059 0.000000
# 6 0.000000 0.000000 0.000000 0.000000 0.000000 0.036955
#
#
# Mechanical properties :
#
#
# Convention : Reuss Voigt Hill
#
# Bulk Modulus (GPa) = 22.17480 50.24059 36.20770
# Shear Modulus (GPa) = 15.49848 20.33568 17.91708
#
# Velocity S-wave (km/s) = 3.09843 3.54917 3.33143
# Velocity P-wave (km/s) = 5.15133 6.92215 6.10133
#
# Compressibility (1/GPa) = 0.04509624
#
# Stress axis : x y z
#
# Youngs Moduli (GPa) = 69.17342 69.17342 19.65069
#
# Poissons Ratio (x) = 0.56147 0.09075
# Poissons Ratio (y) = 0.56147 0.09075
# Poissons Ratio (z) = 0.31944 0.31944
#
# Static dielectric constant tensor:
#      x y z
#    x 1.554160 0.000000 0.000000 
#    y 0.000000 1.554160 0.000000 
#    z 0.000000 0.000000 1.551790 
# 
# From -- ./inp_files/5183.got.cif
#   From: 2010.05.17/outbox.cif.g08.bks.cpg/sg124_3_cif.got.tgz:5183.got - 2010.05.20 11:49:17.
