data_PCOD9562418
_publ_section_title
;
Structure prediction by ZEFSAII (Michael W. Deem and Ramdas Pophale) SiO2 
 PCOD9562418
Probable space group: P 4/M C C
;
_chemical_formula_sum "Si O2"
_cell_formula_units_Z 112
_cell_length_a 19.189801
_cell_length_b 19.189801
_cell_length_c 15.548193
_cell_angle_alpha 90.000000
_cell_angle_beta 90.000000
_cell_angle_gamma 90.000000
_cell_volume 5725.598166
_symmetry_space_group_name_H-M "P 4/M C C"
_symmetry_group_IT_number 124
_symmetry_cell_setting 'tetragonal'
loop_
_space_group_symop_operation_xyz
x,y,z
-y,x,z
-x,-y,z
y,-x,z
x,-y,1/2-z
-x,y,1/2-z
y,x,1/2-z
-y,-x,1/2-z
-x,-y,-z
y,-x,-z
x,y,-z
-y,x,-z
-x,y,1/2+z
x,-y,1/2+z
-y,-x,1/2+z
y,x,1/2+z
loop_
_atom_site_type_symbol
_atom_site_label
_atom_site_fract_x
_atom_site_fract_y
_atom_site_fract_z
Si Si1 0.666111 0.694904 0.395992
Si Si2 0.936048 0.301999 0.896124
Si Si3 0.217164 0.199451 0.849322
Si Si4 0.825457 0.419318 0.605288
Si Si5 0.284868 0.089510 0.600814
Si Si6 0.927717 0.461977 0.894894
Si Si7 0.563226 0.592306 0.105079
O O1 0.666276 0.694307 0.500000
O O2 0.739169 0.727709 0.369329
O O3 0.603922 0.747747 0.369299
O O4 0.650903 0.616876 0.365441
O O5 0.873629 0.251155 0.872139
O O6 0.925282 0.381887 0.866059
O O7 0.011781 0.276100 0.864608
O O8 0.936054 0.304367 0.000000
O O9 0.201289 0.201289 0.750000
O O10 0.144372 0.222293 0.892206
O O11 0.825406 0.420232 0.500000
O O12 0.873750 0.354788 0.635775
O O13 0.861924 0.490901 0.632670
O O14 0.299425 0.081021 0.500000
O O15 0.000000 0.500000 0.869388
O O16 0.927912 0.461309 0.000000
O O17 0.483025 0.593711 0.131595
O O18 0.562025 0.593766 0.000000
#
# Coordination Sequence:
#
# PCOD9562418 Si02
#       7
#    16  16  16  16  16  16  16
#     4   9  17  30  49  70  97 133 172 216 262 311
#     4  10  19  32  56  84 105 134 174 220 264 311
#     4  11  23  36  50  73 105 143 177 210 250 306
#     4   8  13  23  42  72 104 132 156 195 256 310
#     4   9  17  33  56  78 104 133 166 211 262 314
#     4   9  14  23  44  79 111 127 157 208 260 313
#     4   8  14  25  44  72  99 121 159 223 287 323
#
# _framework density 19.561274999999998
#
# number of rings (size 3 to 8) (size 9 to 14) (size 15 to 20)
#    0.000    2.857    1.429    2.571    0.000    1.714 
#    0.000    4.286    0.000    8.143    0.000    4.000 
#    0.000    0.000    0.000    0.000    0.000    0.000 
#
# Total GULP energy -624302.692967 kJ/mol
# GULP energy per Si atom -5574.131187 kJ/mol
# Density = 1.951675 g / cm^3
# Si number density = 19.561275 Si / 1000 Ang^3
#
#
#
# Elastic Constant Matrix: (Units=GPa)
#
#
# Indices 1 2 3 4 5 6 
#
# 1 77.6260 50.2485 -3.9534 0.0000 0.0000 0.0000
# 2 50.2485 77.6260 -3.9534 0.0000 0.0000 0.0000
# 3 -3.9534 -3.9534 15.6134 0.0000 0.0000 0.0000
# 4 0.0000 0.0000 0.0000 -12.1902 0.0000 0.0000
# 5 0.0000 0.0000 0.0000 0.0000 -12.1902 0.0000
# 6 0.0000 0.0000 0.0000 0.0000 0.0000 27.3769
#
#
#
# Elastic Compliance Matrix: (Units=1/GPa)
#
#
# Indices 1 2 3 4 5 6 
#
# 1 0.022235 -0.014291 0.002012 0.000000 0.000000 0.000000
# 2 -0.014291 0.022235 0.002012 0.000000 0.000000 0.000000
# 3 0.002012 0.002012 0.065066 0.000000 0.000000 0.000000
# 4 0.000000 0.000000 0.000000 -0.082033 0.000000 0.000000
# 5 0.000000 0.000000 0.000000 0.000000 -0.082033 0.000000
# 6 0.000000 0.000000 0.000000 0.000000 0.000000 0.036527
#
#
# Mechanical properties :
#
#
# Convention : Reuss Voigt Hill
#
# Bulk Modulus (GPa) = 11.23574 28.39431 19.81503
# Shear Modulus (GPa) = 155.27938 9.16757 82.22347
#
# Velocity S-wave (km/s) = 8.91927 2.16720 6.49038
# Velocity P-wave (km/s) = 10.57485 4.56174 8.14361
#
# Compressibility (1/GPa) = 0.08900168
#
# Stress axis : x y z
#
# Youngs Moduli (GPa) = 44.97325 44.97325 15.36896
#
# Poissons Ratio (x) = 0.64271 -0.03092
# Poissons Ratio (y) = 0.64271 -0.03092
# Poissons Ratio (z) = -0.09047 -0.09047
#
# Static dielectric constant tensor:
#      x y z
#    x 1.738650 0.000000 0.000000 
#    y 0.000000 1.738650 0.000000 
#    z 0.000000 0.000000 1.807620 
# 
# From -- ./inp_files/5528.got.cif
#   From: 2010.05.17/outbox.cif.g08.bks.cpg/sg124_3_cif.got.tgz:5528.got - 2010.05.20 11:49:17.
