data_PCOD9562690
_publ_section_title
;
Structure prediction by ZEFSAII (Michael W. Deem and Ramdas Pophale) SiO2 
 PCOD9562690
Probable space group: P 4/M C C
;
_chemical_formula_sum "Si O2"
_cell_formula_units_Z 52
_cell_length_a 16.417873
_cell_length_b 16.417873
_cell_length_c 9.269775
_cell_angle_alpha 90.000000
_cell_angle_beta 90.000000
_cell_angle_gamma 90.000000
_cell_volume 2498.635906
_symmetry_space_group_name_H-M "P 4/M C C"
_symmetry_group_IT_number 124
_symmetry_cell_setting 'tetragonal'
loop_
_space_group_symop_operation_xyz
x,y,z
-y,x,z
-x,-y,z
y,-x,z
x,-y,1/2-z
-x,y,1/2-z
y,x,1/2-z
-y,-x,1/2-z
-x,-y,-z
y,-x,-z
x,y,-z
-y,x,-z
-x,y,1/2+z
x,-y,1/2+z
-y,-x,1/2+z
y,x,1/2+z
loop_
_atom_site_type_symbol
_atom_site_label
_atom_site_fract_x
_atom_site_fract_y
_atom_site_fract_z
Si Si1 0.214888 0.089049 0.675138
Si Si2 0.626641 0.870101 0.843766
Si Si3 0.737854 0.500000 0.250000
Si Si4 0.457786 0.628957 0.000000
Si Si5 0.500000 0.000000 0.250000
O O1 0.149611 0.149611 0.750000
O O2 0.206834 0.085552 0.500000
O O3 0.305425 0.119994 0.720965
O O4 0.206262 0.000000 0.750000
O O5 0.567724 0.793049 0.826360
O O6 0.561886 0.943520 0.837378
O O7 0.668456 0.869106 0.000000
O O8 0.682920 0.449942 0.359868
O O9 0.402068 0.550725 0.000000
#
# Coordination Sequence:
#
# PCOD9562690 Si02
#       5
#    16  16   8   8   4
#     4  12  27  48  75 107 145 187 236 289 352 420
#     4  11  23  42  67 103 141 183 227 284 350 416
#     4  11  24  42  66  97 136 178 234 293 360 414
#     4  11  24  44  66  91 128 182 236 293 350 420
#     4  10  22  36  76 100 144 174 230 270 346 412
#
# _framework density 20.811354000000001
#
# number of rings (size 3 to 8) (size 9 to 14) (size 15 to 20)
#    0.000    0.769    3.077    4.154    2.154    5.231 
#    0.000    1.538    0.000    0.000    0.000    0.000 
#    0.000    0.000    0.000    0.000    0.000    0.000 
#
# Total GULP energy -290535.208362 kJ/mol
# GULP energy per Si atom -5587.215545 kJ/mol
# Density = 2.076399 g / cm^3
# Si number density = 20.811354 Si / 1000 Ang^3
#
#
#
# Elastic Constant Matrix: (Units=GPa)
#
#
# Indices 1 2 3 4 5 6 
#
# 1 90.8444 27.3698 33.1646 0.0000 0.0000 0.0000
# 2 27.3698 90.8444 33.1646 0.0000 0.0000 0.0000
# 3 33.1646 33.1646 171.6164 0.0000 0.0000 0.0000
# 4 0.0000 0.0000 0.0000 37.1504 0.0000 0.0000
# 5 0.0000 0.0000 0.0000 0.0000 37.1504 0.0000
# 6 0.0000 0.0000 0.0000 0.0000 0.0000 76.3710
#
#
#
# Elastic Compliance Matrix: (Units=1/GPa)
#
#
# Indices 1 2 3 4 5 6 
#
# 1 0.012621 -0.003133 -0.001834 0.000000 0.000000 0.000000
# 2 -0.003133 0.012621 -0.001834 0.000000 0.000000 0.000000
# 3 -0.001834 -0.001834 0.006536 0.000000 0.000000 0.000000
# 4 0.000000 0.000000 0.000000 0.026918 0.000000 0.000000
# 5 0.000000 0.000000 0.000000 0.000000 0.026918 0.000000
# 6 0.000000 0.000000 0.000000 0.000000 0.000000 0.013094
#
#
# Mechanical properties :
#
#
# Convention : Reuss Voigt Hill
#
# Bulk Modulus (GPa) = 55.01322 60.07815 57.54569
# Shear Modulus (GPa) = 42.24155 47.44142 44.84149
#
# Velocity S-wave (km/s) = 4.51015 4.77969 4.64687
# Velocity P-wave (km/s) = 7.32213 7.70657 7.51680
#
# Compressibility (1/GPa) = 0.01817745
#
# Stress axis : x y z
#
# Youngs Moduli (GPa) = 79.23197 79.23197 153.00794
#
# Poissons Ratio (x) = 0.24825 0.28055
# Poissons Ratio (y) = 0.24825 0.28055
# Poissons Ratio (z) = 0.14528 0.14528
#
# Static dielectric constant tensor:
#      x y z
#    x 1.715210 0.000000 0.000000 
#    y 0.000000 1.715210 0.000000 
#    z 0.000000 0.000000 1.748500 
# 
# From -- ./inp_files/589.got.cif
#   From: 2010.05.17/outbox.cif.g08.bks.cpg/sg124_1_cif.got.tgz:589.got - 2010.05.20 11:49:17.
