data_PCOD9562043
_publ_section_title
;
Structure prediction by ZEFSAII (Michael W. Deem and Ramdas Pophale) SiO2 
 PCOD9562043
Probable space group: P 4/M M M
;
_chemical_formula_sum "Si O2"
_cell_formula_units_Z 88
_cell_length_a 13.476420
_cell_length_b 13.476420
_cell_length_c 29.101637
_cell_angle_alpha 90.000000
_cell_angle_beta 90.000000
_cell_angle_gamma 90.000000
_cell_volume 5285.261676
_symmetry_space_group_name_H-M "P 4/M M M"
_symmetry_group_IT_number 123
_symmetry_cell_setting 'tetragonal'
loop_
_space_group_symop_operation_xyz
x,y,z
-y,x,z
-x,-y,z
y,-x,z
x,-y,-z
-x,y,-z
y,x,-z
-y,-x,-z
-x,-y,-z
y,-x,-z
x,y,-z
-y,x,-z
-x,y,z
x,-y,z
-y,-x,z
y,x,z
loop_
_atom_site_type_symbol
_atom_site_label
_atom_site_fract_x
_atom_site_fract_y
_atom_site_fract_z
Si Si1 0.885576 0.381286 0.355725
Si Si2 0.278291 0.118247 0.449564
Si Si3 0.381967 0.217331 0.088299
Si Si4 0.282914 0.118177 0.000000
Si Si5 0.717708 0.117443 0.176081
Si Si6 0.381457 0.221503 0.261304
O O1 0.885706 0.500000 0.358835
O O2 0.850948 0.339062 0.404609
O O3 0.820565 0.354618 0.311638
O O4 0.000000 0.349089 0.348205
O O5 0.323193 0.142589 0.500000
O O6 0.173675 0.173675 0.447525
O O7 0.267588 0.000000 0.447837
O O8 0.500000 0.230818 0.087138
O O9 0.320911 0.320911 0.087752
O O10 0.347603 0.158635 0.133794
O O11 0.343538 0.154739 0.044604
O O12 0.179185 0.179185 0.000000
O O13 0.269522 0.000000 0.000000
O O14 0.820459 0.179542 0.175124
O O15 0.660977 0.147393 0.222777
O O16 0.732151 0.000000 0.172714
O O17 0.500000 0.229234 0.257695
O O18 0.325575 0.325575 0.254113
#
# Coordination Sequence:
#
# PCOD9562043 Si02
#       6
#    16  16  16   8  16  16
#     4   9  17  29  46  67  89 115 149 189 233 279
#     4   9  17  28  42  61  86 116 148 183 224 270
#     4  10  21  36  54  78 106 136 172 211 251 297
#     4  10  21  36  54  78 106 136 173 214 256 304
#     4  10  21  36  54  77 103 131 165 203 243 290
#     4  10  20  33  50  72  97 126 160 197 238 285
#
# _framework density 16.650072999999999
#
# number of rings (size 3 to 8) (size 9 to 14) (size 15 to 20)
#    0.000    2.364    0.000    2.455    0.000    4.818 
#    0.000    2.727    0.000    8.182    0.000    2.545 
#    0.000    0.000    0.000   16.909    0.000    0.364 
#
# Total GULP energy -490534.021879 kJ/mol
# GULP energy per Si atom -5574.250249 kJ/mol
# Density = 1.661218 g / cm^3
# Si number density = 16.650073 Si / 1000 Ang^3
#
#
#
# Elastic Constant Matrix: (Units=GPa)
#
#
# Indices 1 2 3 4 5 6 
#
# 1 109.1655 63.2920 53.0952 0.0000 0.0000 0.0000
# 2 63.2920 109.1655 53.0952 0.0000 0.0000 0.0000
# 3 53.0952 53.0952 142.0753 0.0000 0.0000 0.0000
# 4 0.0000 0.0000 0.0000 19.3654 0.0000 0.0000
# 5 0.0000 0.0000 0.0000 0.0000 19.3654 0.0000
# 6 0.0000 0.0000 0.0000 0.0000 0.0000 12.3760
#
#
#
# Elastic Compliance Matrix: (Units=1/GPa)
#
#
# Indices 1 2 3 4 5 6 
#
# 1 0.014665 -0.007134 -0.002815 0.000000 0.000000 0.000000
# 2 -0.007134 0.014665 -0.002815 0.000000 0.000000 0.000000
# 3 -0.002815 -0.002815 0.009142 0.000000 0.000000 0.000000
# 4 0.000000 0.000000 0.000000 0.051638 0.000000 0.000000
# 5 0.000000 0.000000 0.000000 0.000000 0.051638 0.000000
# 6 0.000000 0.000000 0.000000 0.000000 0.000000 0.080802
#
#
# Mechanical properties :
#
#
# Convention : Reuss Voigt Hill
#
# Bulk Modulus (GPa) = 77.23851 77.70791 77.47321
# Shear Modulus (GPa) = 19.81038 22.94964 21.38001
#
# Velocity S-wave (km/s) = 3.45310 3.71664 3.58729
# Velocity P-wave (km/s) = 7.89864 8.07406 7.98683
#
# Compressibility (1/GPa) = 0.01294691
#
# Stress axis : x y z
#
# Youngs Moduli (GPa) = 68.18791 68.18791 109.38196
#
# Poissons Ratio (x) = 0.48643 0.30787
# Poissons Ratio (y) = 0.48643 0.30787
# Poissons Ratio (z) = 0.19193 0.19193
#
# Static dielectric constant tensor:
#      x y z
#    x 1.537230 0.000000 0.000000 
#    y 0.000000 1.537230 0.000000 
#    z 0.000000 0.000000 1.582680 
# 
# From -- ./inp_files/8484.got.cif
#   From: 2010.05.17/outbox.cif.g08.bks.cpg/sg123_5_cif.got.tgz:8484.got - 2010.05.20 11:43:04.
