data_PCOD9562705
_publ_section_title
;
Structure prediction by ZEFSAII (Michael W. Deem and Ramdas Pophale) SiO2 
 PCOD9562705
Probable space group: P 4/M C C
;
_chemical_formula_sum "Si O2"
_cell_formula_units_Z 96
_cell_length_a 24.168464
_cell_length_b 24.168464
_cell_length_c 8.820095
_cell_angle_alpha 90.000000
_cell_angle_beta 90.000000
_cell_angle_gamma 90.000000
_cell_volume 5151.946723
_symmetry_space_group_name_H-M "P 4/M C C"
_symmetry_group_IT_number 124
_symmetry_cell_setting 'tetragonal'
loop_
_space_group_symop_operation_xyz
x,y,z
-y,x,z
-x,-y,z
y,-x,z
x,-y,1/2-z
-x,y,1/2-z
y,x,1/2-z
-y,-x,1/2-z
-x,-y,-z
y,-x,-z
x,y,-z
-y,x,-z
-x,y,1/2+z
x,-y,1/2+z
-y,-x,1/2+z
y,x,1/2+z
loop_
_atom_site_type_symbol
_atom_site_label
_atom_site_fract_x
_atom_site_fract_y
_atom_site_fract_z
Si Si1 0.290568 0.057798 0.181433
Si Si2 0.647240 0.562213 0.818742
Si Si3 0.240159 0.368342 0.823396
Si Si4 0.825626 0.255453 0.677938
Si Si5 0.945372 0.586837 0.179319
Si Si6 0.450054 0.164475 0.825662
O O1 0.267110 0.116054 0.240362
O O2 0.353710 0.059308 0.240462
O O3 0.266936 0.000000 0.250000
O O4 0.289070 0.055027 0.000000
O O5 0.655152 0.500000 0.750000
O O6 0.593638 0.593638 0.750000
O O7 0.699224 0.605195 0.794111
O O8 0.641457 0.556466 0.000000
O O9 0.220739 0.304625 0.810527
O O10 0.200545 0.396552 0.701397
O O11 0.226751 0.383705 0.000000
O O12 0.798024 0.201976 0.750000
O O13 0.836958 0.249356 0.500000
O O14 0.889852 0.556187 0.224211
O O15 0.000000 0.560552 0.250000
O O16 0.950586 0.592888 0.000000
O O17 0.500000 0.198034 0.750000
O O18 0.458686 0.151391 0.000000
#
# Coordination Sequence:
#
# PCOD9562705 Si02
#       6
#    16  16  16  16  16  16
#     4  11  21  36  58  85 116 158 202 245 298 350
#     4  11  24  43  66  92 118 149 185 231 287 353
#     4  10  22  40  61  86 118 153 190 234 287 347
#     4  11  22  37  59  89 125 161 201 247 292 346
#     4  11  21  36  55  77 106 142 189 240 292 346
#     4  12  24  37  55  78 107 146 192 240 291 344
#
# _framework density 18.633731999999998
#
# number of rings (size 3 to 8) (size 9 to 14) (size 15 to 20)
#    0.000    1.000    1.667    7.500    0.000    3.833 
#    0.000    2.500    0.000    0.000    0.000    0.000 
#    0.000    0.333    0.000    3.333    0.000    2.000 
#
# Total GULP energy -535579.832291 kJ/mol
# GULP energy per Si atom -5578.956586 kJ/mol
# Density = 1.859132 g / cm^3
# Si number density = 18.633732 Si / 1000 Ang^3
#
#
#
# Elastic Constant Matrix: (Units=GPa)
#
#
# Indices 1 2 3 4 5 6 
#
# 1 86.6753 63.4882 59.2319 0.0000 0.0000 0.0000
# 2 63.4882 86.6713 59.2426 0.0000 0.0000 0.0000
# 3 59.2319 59.2426 163.2456 0.0000 0.0000 0.0000
# 4 0.0000 0.0000 0.0000 27.6729 0.0000 0.0000
# 5 0.0000 0.0000 0.0000 0.0000 27.6720 0.0000
# 6 0.0000 0.0000 0.0000 0.0000 0.0000 -10.1854
#
#
#
# Elastic Compliance Matrix: (Units=1/GPa)
#
#
# Indices 1 2 3 4 5 6 
#
# 1 0.026229 -0.016900 -0.003384 0.000000 0.000000 0.000000
# 2 -0.016900 0.026233 -0.003388 0.000000 0.000000 0.000000
# 3 -0.003384 -0.003388 0.008583 0.000000 0.000000 0.000000
# 4 0.000000 0.000000 0.000000 0.036136 0.000000 0.000000
# 5 0.000000 0.000000 0.000000 0.000000 0.036138 0.000000
# 6 0.000000 0.000000 0.000000 0.000000 0.000000 -0.098180
#
#
# Mechanical properties :
#
#
# Convention : Reuss Voigt Hill
#
# Bulk Modulus (GPa) = 72.98635 77.83527 75.41081
# Shear Modulus (GPa) = 57.43823 19.34054 38.38939
#
# Velocity S-wave (km/s) = 5.55804 3.22519 4.54388
# Velocity P-wave (km/s) = 8.96900 7.46532 8.25148
#
# Compressibility (1/GPa) = 0.01370119
#
# Stress axis : x y z
#
# Youngs Moduli (GPa) = 38.12626 38.11941 116.50860
#
# Poissons Ratio (x) = 0.64422 0.39423
# Poissons Ratio (y) = 0.64434 0.39475
# Poissons Ratio (z) = 0.12901 0.12916
#
# Static dielectric constant tensor:
#      x y z
#    x 1.530440 0.000000 0.000000 
#    y 0.000000 1.530970 0.000000 
#    z 0.000000 0.000000 1.615630 
# 
# From -- ./inp_files/1315.got.cif
#   From: 2010.05.17/outbox.cif.g08.bks.cpg/sg124_1_cif.got.tgz:1315.got - 2010.05.20 11:49:17.
