data_PCOD9562265
_publ_section_title
;
Structure prediction by ZEFSAII (Michael W. Deem and Ramdas Pophale) SiO2 
 PCOD9562265
Probable space group: P 4/M M M
;
_chemical_formula_sum "Si O2"
_cell_formula_units_Z 80
_cell_length_a 24.132009
_cell_length_b 24.132009
_cell_length_c 7.459957
_cell_angle_alpha 90.000000
_cell_angle_beta 90.000000
_cell_angle_gamma 90.000000
_cell_volume 4344.334742
_symmetry_space_group_name_H-M "P 4/M M M"
_symmetry_group_IT_number 123
_symmetry_cell_setting 'tetragonal'
loop_
_space_group_symop_operation_xyz
x,y,z
-y,x,z
-x,-y,z
y,-x,z
x,-y,-z
-x,y,-z
y,x,-z
-y,-x,-z
-x,-y,-z
y,-x,-z
x,y,-z
-y,x,-z
-x,y,z
x,-y,z
-y,-x,z
y,x,z
loop_
_atom_site_type_symbol
_atom_site_label
_atom_site_fract_x
_atom_site_fract_y
_atom_site_fract_z
Si Si1 0.649840 0.649840 0.719403
Si Si2 0.163355 0.749290 0.790360
Si Si3 0.437829 0.437829 0.281271
Si Si4 0.225848 0.363810 0.282757
Si Si5 0.562788 0.125322 0.715174
Si Si6 0.937637 0.676811 0.214942
O O1 0.650321 0.650321 0.500000
O O2 0.605872 0.605872 0.782502
O O3 0.632729 0.711172 0.776167
O O4 0.197883 0.802118 0.715596
O O5 0.202975 0.695671 0.777599
O O6 0.106094 0.722976 0.715083
O O7 0.153561 0.761573 0.000000
O O8 0.500000 0.424423 0.225526
O O9 0.437305 0.437305 0.500000
O O10 0.224343 0.363693 0.500000
O O11 0.184522 0.412464 0.222230
O O12 0.558980 0.127261 0.500000
O O13 0.500000 0.113552 0.781307
O O14 0.613732 0.083525 0.753832
O O15 0.000000 0.683602 0.282916
O O16 0.938304 0.683255 0.000000
#
# Coordination Sequence:
#
# PCOD9562265 Si02
#       6
#     8  16   8  16  16  16
#     4   9  15  22  36  55  73  98 130 162 199 245
#     4   9  16  27  44  63  82 105 131 160 197 236
#     4   8  14  23  32  45  69  98 124 152 192 241
#     4   9  16  26  40  59  82 104 130 164 203 245
#     4   9  18  30  42  58  82 112 143 174 207 242
#     4   9  18  31  45  62  84 109 138 171 203 236
#
# _framework density 18.414788000000001
#
# number of rings (size 3 to 8) (size 9 to 14) (size 15 to 20)
#    0.000    3.100    1.000    0.300    0.000    2.000 
#    0.000    6.000    0.000    0.000    0.000    0.000 
#    0.000    1.200    0.000   10.000    0.000    4.000 
#
# Total GULP energy -445526.868328 kJ/mol
# GULP energy per Si atom -5569.085854 kJ/mol
# Density = 1.837288 g / cm^3
# Si number density = 18.414788 Si / 1000 Ang^3
#
#
#
# Elastic Constant Matrix: (Units=GPa)
#
#
# Indices 1 2 3 4 5 6 
#
# 1 365.5342 -123.5209 4.7432 0.0000 0.0000 0.0000
# 2 -123.5209 365.5342 4.7432 0.0000 0.0000 0.0000
# 3 4.7432 4.7432 56.1501 0.0000 0.0000 0.0000
# 4 0.0000 0.0000 0.0000 4.7832 0.0000 0.0000
# 5 0.0000 0.0000 0.0000 0.0000 4.7832 0.0000
# 6 0.0000 0.0000 0.0000 0.0000 0.0000 19.4873
#
#
#
# Elastic Compliance Matrix: (Units=1/GPa)
#
#
# Indices 1 2 3 4 5 6 
#
# 1 0.003095 0.001050 -0.000350 0.000000 0.000000 0.000000
# 2 0.001050 0.003095 -0.000350 0.000000 0.000000 0.000000
# 3 -0.000350 -0.000350 0.017869 0.000000 0.000000 0.000000
# 4 0.000000 0.000000 0.000000 0.209067 0.000000 0.000000
# 5 0.000000 0.000000 0.000000 0.000000 0.209067 0.000000
# 6 0.000000 0.000000 0.000000 0.000000 0.000000 0.051315
#
#
# Mechanical properties :
#
#
# Convention : Reuss Voigt Hill
#
# Bulk Modulus (GPa) = 40.38899 62.12773 51.25836
# Shear Modulus (GPa) = 9.97884 65.89427 37.93655
#
# Velocity S-wave (km/s) = 2.33038 5.98841 4.54377
# Velocity P-wave (km/s) = 5.40569 9.03471 7.44471
#
# Compressibility (1/GPa) = 0.02475922
#
# Stress axis : x y z
#
# Youngs Moduli (GPa) = 323.07618 323.07618 55.96414
#
# Poissons Ratio (x) = -0.33939 0.01960
# Poissons Ratio (y) = -0.33939 0.01960
# Poissons Ratio (z) = 0.11314 0.11314
#
# Static dielectric constant tensor:
#      x y z
#    x 1.637110 0.000000 0.000000 
#    y 0.000000 1.637110 0.000000 
#    z 0.000000 0.000000 1.719480 
# 
# From -- ./inp_files/1465.got.cif
#   From: 2010.05.17/outbox.cif.g08.bks.cpg/sg123_1_cif.got.tgz:1465.got - 2010.05.20 11:43:04.
