data_PCOD9562964
_publ_section_title
;
Structure prediction by ZEFSAII (Michael W. Deem and Ramdas Pophale) SiO2 
 PCOD9562964
Probable space group: P 4/N B M
;
_chemical_formula_sum "Si O2"
_cell_formula_units_Z 128
_cell_length_a 24.218020
_cell_length_b 24.218020
_cell_length_c 10.448879
_cell_angle_alpha 90.000000
_cell_angle_beta 90.000000
_cell_angle_gamma 90.000000
_cell_volume 6128.398068
_symmetry_space_group_name_H-M "P 4/N B M"
_symmetry_group_IT_number 125
_space_group.IT_coordinate_system_code '2'
_symmetry_cell_setting 'tetragonal'
loop_
_space_group_symop_operation_xyz
x,y,z
1/2-y,x,z
1/2-x,1/2-y,z
y,1/2-x,z
x,1/2-y,-z
1/2-x,y,-z
y,x,-z
1/2-y,1/2-x,-z
-x,-y,-z
1/2+y,-x,-z
1/2+x,1/2+y,-z
-y,1/2+x,-z
-x,1/2+y,z
1/2+x,-y,z
-y,-x,z
1/2+y,1/2+x,z
loop_
_atom_site_type_symbol
_atom_site_label
_atom_site_fract_x
_atom_site_fract_y
_atom_site_fract_z
Si Si1 0.905061 0.614680 0.249850
Si Si2 0.336075 0.923256 0.026909
Si Si3 0.783536 0.054490 0.775578
Si Si4 0.100513 0.512277 0.422670
Si Si5 0.317430 0.307284 0.653306
Si Si6 0.812598 0.102300 0.326531
Si Si7 0.793848 0.536433 0.900119
Si Si8 0.992828 0.096789 0.724784
O O1 0.846954 0.632916 0.308685
O O2 0.919981 0.664246 0.155264
O O3 0.902853 0.551604 0.205037
O O4 0.956692 0.614014 0.347828
O O5 0.393853 0.893853 0.998733
O O6 0.321146 0.904358 0.171266
O O7 0.332511 0.989288 0.035800
O O8 0.294697 0.912249 0.908478
O O9 0.752149 0.089648 0.667470
O O10 0.844298 0.036016 0.739058
O O11 0.744758 0.000601 0.804284
O O12 0.045528 0.545528 0.376955
O O13 0.150264 0.555492 0.394997
O O14 0.092010 0.498809 0.571281
O O15 0.255928 0.325716 0.697004
O O16 0.311414 0.311414 0.500000
O O17 0.839293 0.160708 0.363311
O O18 0.750000 0.559751 0.000000
O O19 0.952689 0.047312 0.764443
#
# Coordination Sequence:
#
# PCOD9562964 Si02
#       8
#    16  16  16  16  16  16  16  16
#     4  12  21  36  62  84 110 159 201 245 295 367
#     4   9  16  31  58  81 107 148 190 239 299 353
#     4  10  19  36  56  83 119 154 191 249 304 357
#     4  10  20  36  54  82 124 161 197 250 297 352
#     4   9  20  37  56  82 114 144 184 244 301 344
#     4   9  17  32  58  86 110 155 208 244 292 352
#     4   9  20  37  57  83 114 149 198 249 298 352
#     4  11  25  37  53  87 128 162 196 243 309 370
#
# _framework density 20.886371
#
# number of rings (size 3 to 8) (size 9 to 14) (size 15 to 20)
#    0.000    2.125    2.500    3.375    1.750    2.000 
#    0.000    2.500    0.000    5.250    0.000    9.625 
#    0.000    6.000    0.000    0.125    0.000    0.000 
#
# Total GULP energy -713271.837487 kJ/mol
# GULP energy per Si atom -5572.436230 kJ/mol
# Density = 2.083883 g / cm^3
# Si number density = 20.886371 Si / 1000 Ang^3
#
#
#
# Elastic Constant Matrix: (Units=GPa)
#
#
# Indices 1 2 3 4 5 6 
#
# 1 102.2524 57.7547 10.3126 0.0000 0.0000 0.0000
# 2 57.7547 102.2524 10.3126 0.0000 0.0000 0.0000
# 3 10.3126 10.3126 21.1005 0.0000 0.0000 0.0000
# 4 0.0000 0.0000 0.0000 17.2108 0.0000 0.0000
# 5 0.0000 0.0000 0.0000 0.0000 17.2108 0.0000
# 6 0.0000 0.0000 0.0000 0.0000 0.0000 36.0418
#
#
#
# Elastic Compliance Matrix: (Units=1/GPa)
#
#
# Indices 1 2 3 4 5 6 
#
# 1 0.014571 -0.007902 -0.003260 0.000000 0.000000 0.000000
# 2 -0.007902 0.014571 -0.003260 0.000000 0.000000 0.000000
# 3 -0.003260 -0.003260 0.050579 0.000000 0.000000 0.000000
# 4 0.000000 0.000000 0.000000 0.058103 0.000000 0.000000
# 5 0.000000 0.000000 0.000000 0.000000 0.058103 0.000000
# 6 0.000000 0.000000 0.000000 0.000000 0.000000 0.027746
#
#
# Mechanical properties :
#
#
# Convention : Reuss Voigt Hill
#
# Bulk Modulus (GPa) = 19.65439 42.48500 31.06970
# Shear Modulus (GPa) = 18.55455 23.90771 21.23113
#
# Velocity S-wave (km/s) = 2.98377 3.38695 3.19173
# Velocity P-wave (km/s) = 4.61531 5.97331 5.33767
#
# Compressibility (1/GPa) = 0.05087921
#
# Stress axis : x y z
#
# Youngs Moduli (GPa) = 68.62719 68.62719 19.77117
#
# Poissons Ratio (x) = 0.54226 0.06445
# Poissons Ratio (y) = 0.54226 0.06445
# Poissons Ratio (z) = 0.22371 0.22371
#
# Static dielectric constant tensor:
#      x y z
#    x 1.785790 0.000000 0.000000 
#    y 0.000000 1.785790 0.000000 
#    z 0.000000 0.000000 1.829860 
# 
# From -- ./inp_files/4368.got.cif
#   From: 2010.05.17/outbox.cif.g08.bks.cpg/sg125_3_cif.got.tgz:4368.got - 2010.05.20 11:54:10.
