data_PCOD9562307
_publ_section_title
;
Structure prediction by ZEFSAII (Michael W. Deem and Ramdas Pophale) SiO2 
 PCOD9562307
Probable space group: P 4/M C C
;
_chemical_formula_sum "Si O2"
_cell_formula_units_Z 96
_cell_length_a 19.729369
_cell_length_b 19.729369
_cell_length_c 17.306494
_cell_angle_alpha 90.000000
_cell_angle_beta 90.000000
_cell_angle_gamma 90.000000
_cell_volume 6736.518196
_symmetry_space_group_name_H-M "P 4/M C C"
_symmetry_group_IT_number 124
_symmetry_cell_setting 'tetragonal'
loop_
_space_group_symop_operation_xyz
x,y,z
-y,x,z
-x,-y,z
y,-x,z
x,-y,1/2-z
-x,y,1/2-z
y,x,1/2-z
-y,-x,1/2-z
-x,-y,-z
y,-x,-z
x,y,-z
-y,x,-z
-x,y,1/2+z
x,-y,1/2+z
-y,-x,1/2+z
y,x,1/2+z
loop_
_atom_site_type_symbol
_atom_site_label
_atom_site_fract_x
_atom_site_fract_y
_atom_site_fract_z
Si Si1 0.494625 0.733944 0.087433
Si Si2 0.078368 0.419084 0.737379
Si Si3 0.384638 0.845360 0.413915
Si Si4 0.627708 0.210120 0.181539
Si Si5 0.277679 0.290948 0.409109
Si Si6 0.592919 0.673035 0.806001
O O1 0.553251 0.791430 0.087319
O O2 0.426589 0.769182 0.116270
O O3 0.520879 0.681333 0.152569
O O4 0.489132 0.707275 0.000000
O O5 0.087153 0.500000 0.750000
O O6 0.100649 0.398806 0.651451
O O7 0.133428 0.382969 0.792258
O O8 0.000000 0.402374 0.750000
O O9 0.381102 0.874305 0.500000
O O10 0.318286 0.798845 0.400179
O O11 0.700130 0.229279 0.145411
O O12 0.609850 0.259967 0.253831
O O13 0.289571 0.279969 0.500000
O O14 0.324276 0.352334 0.375764
O O15 0.610913 0.610913 0.750000
#
# Coordination Sequence:
#
# PCOD9562307 Si02
#       6
#    16  16  16  16  16  16
#     4  10  17  26  41  59  85 113 134 176 228 263
#     4  11  20  31  44  62  86 122 158 184 213 259
#     4   9  17  31  45  59  83 116 147 180 228 269
#     4  11  17  28  42  64  86 109 146 185 221 252
#     4   9  17  27  43  64  83 107 141 185 230 268
#     4   9  16  25  42  58  79 108 138 173 217 270
#
# _framework density 14.250684
#
# number of rings (size 3 to 8) (size 9 to 14) (size 15 to 20)
#    0.000    2.167    5.000    2.500    0.000    0.000 
#    0.000    3.333    0.000    0.000    0.000    0.000 
#    0.000  176.000    0.000  372.500    0.000    6.667 
#
# Total GULP energy -534649.946634 kJ/mol
# GULP energy per Si atom -5569.270277 kJ/mol
# Density = 1.421825 g / cm^3
# Si number density = 14.250684 Si / 1000 Ang^3
#
#
#
# Elastic Constant Matrix: (Units=GPa)
#
#
# Indices 1 2 3 4 5 6 
#
# 1 53.8888 33.1674 39.1801 0.0000 0.0000 0.0000
# 2 33.1674 53.8888 39.1801 0.0000 0.0000 0.0000
# 3 39.1801 39.1801 118.4724 0.0000 0.0000 0.0000
# 4 0.0000 0.0000 0.0000 16.2955 0.0000 0.0000
# 5 0.0000 0.0000 0.0000 0.0000 16.2955 0.0000
# 6 0.0000 0.0000 0.0000 0.0000 0.0000 10.1156
#
#
#
# Elastic Compliance Matrix: (Units=1/GPa)
#
#
# Indices 1 2 3 4 5 6 
#
# 1 0.032307 -0.015952 -0.005409 0.000000 0.000000 0.000000
# 2 -0.015952 0.032307 -0.005409 0.000000 0.000000 0.000000
# 3 -0.005409 -0.005409 0.012018 0.000000 0.000000 0.000000
# 4 0.000000 0.000000 0.000000 0.061367 0.000000 0.000000
# 5 0.000000 0.000000 0.000000 0.000000 0.061367 0.000000
# 6 0.000000 0.000000 0.000000 0.000000 0.000000 0.098857
#
#
# Mechanical properties :
#
#
# Convention : Reuss Voigt Hill
#
# Bulk Modulus (GPa) = 43.30209 49.92281 46.61245
# Shear Modulus (GPa) = 13.90971 16.18948 15.04960
#
# Velocity S-wave (km/s) = 3.12761 3.37419 3.25324
# Velocity P-wave (km/s) = 6.59504 7.09141 6.84772
#
# Compressibility (1/GPa) = 0.02309357
#
# Stress axis : x y z
#
# Youngs Moduli (GPa) = 30.95263 30.95263 83.20603
#
# Poissons Ratio (x) = 0.49376 0.45006
# Poissons Ratio (y) = 0.49376 0.45006
# Poissons Ratio (z) = 0.16742 0.16742
#
# Static dielectric constant tensor:
#      x y z
#    x 1.473940 0.000000 0.000000 
#    y 0.000000 1.473940 0.000000 
#    z 0.000000 0.000000 1.517860 
# 
# From -- ./inp_files/4474.got.cif
#   From: 2010.05.17/outbox.cif.g08.bks.cpg/sg124_3_cif.got.tgz:4474.got - 2010.05.20 11:49:17.
