data_PCOD9562147
_publ_section_title
;
Structure prediction by ZEFSAII (Michael W. Deem and Ramdas Pophale) SiO2 
 PCOD9562147
Probable space group: P 4/M M M
;
_chemical_formula_sum "Si O2"
_cell_formula_units_Z 56
_cell_length_a 14.752055
_cell_length_b 14.752055
_cell_length_c 13.278822
_cell_angle_alpha 90.000000
_cell_angle_beta 90.000000
_cell_angle_gamma 90.000000
_cell_volume 2889.778763
_symmetry_space_group_name_H-M "P 4/M M M"
_symmetry_group_IT_number 123
_symmetry_cell_setting 'tetragonal'
loop_
_space_group_symop_operation_xyz
x,y,z
-y,x,z
-x,-y,z
y,-x,z
x,-y,-z
-x,y,-z
y,x,-z
-y,-x,-z
-x,-y,-z
y,-x,-z
x,y,-z
-y,x,-z
-x,y,z
x,-y,z
-y,-x,z
y,x,z
loop_
_atom_site_type_symbol
_atom_site_label
_atom_site_fract_x
_atom_site_fract_y
_atom_site_fract_z
Si Si1 0.896157 0.750331 0.620984
Si Si2 0.000000 0.397175 0.879268
Si Si3 0.657360 0.801447 0.884682
Si Si4 0.602414 0.251311 0.674327
O O1 0.900458 0.758250 0.500000
O O2 0.835728 0.835728 0.658361
O O3 0.836746 0.660768 0.643049
O O4 0.000000 0.747511 0.657831
O O5 0.906966 0.346525 0.857259
O O6 0.000000 0.500000 0.836317
O O7 0.000000 0.406504 0.000000
O O8 0.756494 0.756494 0.881709
O O9 0.602604 0.751897 0.796658
O O10 0.623457 0.790415 0.000000
O O11 0.500000 0.250642 0.636984
O O12 0.661789 0.338212 0.642387
#
# Coordination Sequence:
#
# PCOD9562147 Si02
#       4
#    16   8  16  16
#     4   9  19  36  57  82 110 137 168 208 254 306
#     4   9  16  26  44  69  92 120 162 204 244 296
#     4   9  18  32  49  71 101 134 169 214 262 303
#     4  10  21  35  52  75 103 137 176 218 263 310
#
# _framework density 19.378647000000001
#
# number of rings (size 3 to 8) (size 9 to 14) (size 15 to 20)
#    0.000    2.714    0.000    0.857    2.000    3.429 
#    0.000    2.857    0.000    0.429    0.000   11.000 
#    0.000    0.000    0.000    0.000    0.000    0.000 
#
# Total GULP energy -311966.280286 kJ/mol
# GULP energy per Si atom -5570.826434 kJ/mol
# Density = 1.933454 g / cm^3
# Si number density = 19.378647 Si / 1000 Ang^3
#
#
#
# Elastic Constant Matrix: (Units=GPa)
#
#
# Indices 1 2 3 4 5 6 
#
# 1 168.3469 98.6083 2.4465 0.0000 0.0000 0.0000
# 2 98.6083 168.3469 2.4465 0.0000 0.0000 0.0000
# 3 2.4465 2.4465 37.9174 0.0000 0.0000 0.0000
# 4 0.0000 0.0000 0.0000 14.6273 0.0000 0.0000
# 5 0.0000 0.0000 0.0000 0.0000 14.6273 0.0000
# 6 0.0000 0.0000 0.0000 0.0000 0.0000 4.8493
#
#
#
# Elastic Compliance Matrix: (Units=1/GPa)
#
#
# Indices 1 2 3 4 5 6 
#
# 1 0.009045 -0.005294 -0.000242 0.000000 0.000000 0.000000
# 2 -0.005294 0.009045 -0.000242 0.000000 0.000000 0.000000
# 3 -0.000242 -0.000242 0.026404 0.000000 0.000000 0.000000
# 4 0.000000 0.000000 0.000000 0.068365 0.000000 0.000000
# 5 0.000000 0.000000 0.000000 0.000000 0.068365 0.000000
# 6 0.000000 0.000000 0.000000 0.000000 0.000000 0.206216
#
#
# Mechanical properties :
#
#
# Convention : Reuss Voigt Hill
#
# Bulk Modulus (GPa) = 30.36079 64.62372 47.49226
# Shear Modulus (GPa) = 12.19581 24.89478 18.54529
#
# Velocity S-wave (km/s) = 2.51139 3.58809 3.09689
# Velocity P-wave (km/s) = 4.91025 7.11239 6.11133
#
# Compressibility (1/GPa) = 0.03293722
#
# Stress axis : x y z
#
# Youngs Moduli (GPa) = 110.56049 110.56049 37.87252
#
# Poissons Ratio (x) = 0.58536 0.00916
# Poissons Ratio (y) = 0.58536 0.00916
# Poissons Ratio (z) = 0.02675 0.02675
#
# Static dielectric constant tensor:
#      x y z
#    x 1.678130 0.000000 0.000000 
#    y 0.000000 1.678130 0.000000 
#    z 0.000000 0.000000 1.755070 
# 
# From -- ./inp_files/3727.got.cif
#   From: 2010.05.17/outbox.cif.g08.bks.cpg/sg123_2_cif.got.tgz:3727.got - 2010.05.20 11:43:04.
