data_PCOD9562102
_publ_section_title
;
Structure prediction by ZEFSAII (Michael W. Deem and Ramdas Pophale) SiO2 
 PCOD9562102
Probable space group: P 4/M M M
;
_chemical_formula_sum "Si O2"
_cell_formula_units_Z 80
_cell_length_a 12.947968
_cell_length_b 12.947968
_cell_length_c 28.170860
_cell_angle_alpha 90.000000
_cell_angle_beta 90.000000
_cell_angle_gamma 90.000000
_cell_volume 4722.841167
_symmetry_space_group_name_H-M "P 4/M M M"
_symmetry_group_IT_number 123
_symmetry_cell_setting 'tetragonal'
loop_
_space_group_symop_operation_xyz
x,y,z
-y,x,z
-x,-y,z
y,-x,z
x,-y,-z
-x,y,-z
y,x,-z
-y,-x,-z
-x,-y,-z
y,-x,-z
x,y,-z
-y,x,-z
-x,y,z
x,-y,z
-y,-x,z
y,x,z
loop_
_atom_site_type_symbol
_atom_site_label
_atom_site_fract_x
_atom_site_fract_y
_atom_site_fract_z
Si Si1 0.120822 0.292351 0.000000
Si Si2 0.378386 0.206579 0.388209
Si Si3 0.381296 0.791030 0.198474
Si Si4 0.000000 0.374783 0.554429
Si Si5 0.709840 0.120559 0.707090
Si Si6 0.878601 0.294898 0.103673
O O1 0.141220 0.343715 0.948760
O O2 0.189900 0.189900 0.000000
O O3 0.000000 0.266270 0.000000
O O4 0.500000 0.227682 0.396465
O O5 0.304022 0.304022 0.398180
O O6 0.345517 0.105823 0.418826
O O7 0.360178 0.172794 0.333592
O O8 0.500000 0.766597 0.205973
O O9 0.310734 0.689267 0.198899
O O10 0.340319 0.861476 0.241464
O O11 0.364443 0.845804 0.147869
O O12 0.000000 0.500000 0.554572
O O13 0.000000 0.339211 0.500000
O O14 0.817933 0.182067 0.706219
O O15 0.721385 0.000000 0.697367
O O16 0.807954 0.192047 0.106734
O O17 0.000000 0.271095 0.107035
#
# Coordination Sequence:
#
# PCOD9562102 Si02
#       6
#     8  16  16   8  16  16
#     4   8  14  25  41  61  90 124 156 194 235 280
#     4  10  20  34  54  81 111 144 182 223 269 318
#     4  10  21  35  51  71  94 123 161 205 253 303
#     4   9  18  34  56  79 105 141 183 223 262 310
#     4  10  20  34  53  78 107 139 173 209 251 301
#     4   9  17  29  45  68  96 126 160 195 236 287
#
# _framework density 16.938956999999998
#
# number of rings (size 3 to 8) (size 9 to 14) (size 15 to 20)
#    0.000    2.500    1.000    1.200    0.000    3.700 
#    0.000    2.500    0.000    9.300    0.000    3.500 
#    0.000    4.000    0.000    0.000    0.000    0.000 
#
# Total GULP energy -445604.964844 kJ/mol
# GULP energy per Si atom -5570.062061 kJ/mol
# Density = 1.690040 g / cm^3
# Si number density = 16.938957 Si / 1000 Ang^3
#
#
#
# Elastic Constant Matrix: (Units=GPa)
#
#
# Indices 1 2 3 4 5 6 
#
# 1 78.3517 48.8482 29.1237 0.0000 0.0000 0.0000
# 2 48.8482 78.3517 29.1237 0.0000 0.0000 0.0000
# 3 29.1237 29.1237 96.9139 0.0000 0.0000 0.0000
# 4 0.0000 0.0000 0.0000 19.1557 0.0000 0.0000
# 5 0.0000 0.0000 0.0000 0.0000 19.1557 0.0000
# 6 0.0000 0.0000 0.0000 0.0000 0.0000 5.4510
#
#
#
# Elastic Compliance Matrix: (Units=1/GPa)
#
#
# Indices 1 2 3 4 5 6 
#
# 1 0.021505 -0.012389 -0.002739 0.000000 0.000000 0.000000
# 2 -0.012389 0.021505 -0.002739 0.000000 0.000000 0.000000
# 3 -0.002739 -0.002739 0.011965 0.000000 0.000000 0.000000
# 4 0.000000 0.000000 0.000000 0.052204 0.000000 0.000000
# 5 0.000000 0.000000 0.000000 0.000000 0.052204 0.000000
# 6 0.000000 0.000000 0.000000 0.000000 0.000000 0.183453
#
#
# Mechanical properties :
#
#
# Convention : Reuss Voigt Hill
#
# Bulk Modulus (GPa) = 51.97726 51.97873 51.97799
# Shear Modulus (GPa) = 12.98752 18.52060 15.75406
#
# Velocity S-wave (km/s) = 2.77198 3.31021 3.05298
# Velocity P-wave (km/s) = 6.40288 6.73517 6.57112
#
# Compressibility (1/GPa) = 0.01923918
#
# Stress axis : x y z
#
# Youngs Moduli (GPa) = 46.50033 46.50033 83.57755
#
# Poissons Ratio (x) = 0.57610 0.22896
# Poissons Ratio (y) = 0.57610 0.22896
# Poissons Ratio (z) = 0.12739 0.12739
#
# Static dielectric constant tensor:
#      x y z
#    x 1.544180 0.000000 0.000000 
#    y 0.000000 1.544180 0.000000 
#    z 0.000000 0.000000 1.612510 
# 
# From -- ./inp_files/8395.got.cif
#   From: 2010.05.17/outbox.cif.g08.bks.cpg/sg123_5_cif.got.tgz:8395.got - 2010.05.20 11:43:04.
