data_PCOD9562684
_publ_section_title
;
Structure prediction by ZEFSAII (Michael W. Deem and Ramdas Pophale) SiO2 
 PCOD9562684
Probable space group: P 4/M C C
;
_chemical_formula_sum "Si O2"
_cell_formula_units_Z 96
_cell_length_a 13.846644
_cell_length_b 13.846644
_cell_length_c 22.474607
_cell_angle_alpha 90.000000
_cell_angle_beta 90.000000
_cell_angle_gamma 90.000000
_cell_volume 4309.046288
_symmetry_space_group_name_H-M "P 4/M C C"
_symmetry_group_IT_number 124
_symmetry_cell_setting 'tetragonal'
loop_
_space_group_symop_operation_xyz
x,y,z
-y,x,z
-x,-y,z
y,-x,z
x,-y,1/2-z
-x,y,1/2-z
y,x,1/2-z
-y,-x,1/2-z
-x,-y,-z
y,-x,-z
x,y,-z
-y,x,-z
-x,y,1/2+z
x,-y,1/2+z
-y,-x,1/2+z
y,x,1/2+z
loop_
_atom_site_type_symbol
_atom_site_label
_atom_site_fract_x
_atom_site_fract_y
_atom_site_fract_z
Si Si1 0.046511 0.355366 0.188757
Si Si2 0.225490 0.180874 0.432572
Si Si3 0.501259 0.661333 0.184747
Si Si4 0.822014 0.449443 0.604735
Si Si5 0.084174 0.359503 0.567863
Si Si6 0.854708 0.932532 0.326204
O O1 0.980391 0.346706 0.128156
O O2 0.000000 0.385624 0.250000
O O3 0.124061 0.431200 0.167020
O O4 0.090898 0.248847 0.202611
O O5 0.211741 0.153421 0.500000
O O6 0.340850 0.187464 0.420535
O O7 0.171964 0.283604 0.423413
O O8 0.171495 0.100737 0.393006
O O9 0.407405 0.593578 0.183591
O O10 0.500000 0.710281 0.250000
O O11 0.497278 0.723582 0.125512
O O12 0.880869 0.529229 0.568727
O O13 0.044443 0.341309 0.500000
O O14 0.954891 0.877427 0.313793
#
# Coordination Sequence:
#
# PCOD9562684 Si02
#       6
#    16  16  16  16  16  16
#     4  11  26  43  64  97 133 171 220 272 334 408
#     4  10  22  41  64  97 132 170 226 274 327 404
#     4   9  19  37  61  93 128 167 216 272 332 392
#     4  11  23  39  64  93 129 173 219 267 334 395
#     4  11  24  44  67  91 133 178 221 277 333 394
#     4  10  21  42  67  95 127 169 221 275 338 394
#
# _framework density 22.278711000000001
#
# number of rings (size 3 to 8) (size 9 to 14) (size 15 to 20)
#    0.000    1.667    1.667    2.500    2.333    6.000 
#    0.000    1.667    0.000    0.000    0.000    7.000 
#    0.000    0.000    0.000    0.000    0.000    0.000 
#
# Total GULP energy -535255.231327 kJ/mol
# GULP energy per Si atom -5575.575326 kJ/mol
# Density = 2.222800 g / cm^3
# Si number density = 22.278711 Si / 1000 Ang^3
#
#
#
# Elastic Constant Matrix: (Units=GPa)
#
#
# Indices 1 2 3 4 5 6 
#
# 1 83.8844 15.1595 20.4846 0.0000 0.0000 0.0000
# 2 15.1595 83.8844 20.4846 0.0000 0.0000 0.0000
# 3 20.4846 20.4846 97.4228 0.0000 0.0000 0.0000
# 4 0.0000 0.0000 0.0000 24.9455 0.0000 0.0000
# 5 0.0000 0.0000 0.0000 0.0000 24.9455 0.0000
# 6 0.0000 0.0000 0.0000 0.0000 0.0000 39.3507
#
#
#
# Elastic Compliance Matrix: (Units=1/GPa)
#
#
# Indices 1 2 3 4 5 6 
#
# 1 0.012805 -0.001746 -0.002325 0.000000 0.000000 0.000000
# 2 -0.001746 0.012805 -0.002325 0.000000 0.000000 0.000000
# 3 -0.002325 -0.002325 0.011242 0.000000 0.000000 0.000000
# 4 0.000000 0.000000 0.000000 0.040087 0.000000 0.000000
# 5 0.000000 0.000000 0.000000 0.000000 0.040087 0.000000
# 6 0.000000 0.000000 0.000000 0.000000 0.000000 0.025413
#
#
# Mechanical properties :
#
#
# Convention : Reuss Voigt Hill
#
# Bulk Modulus (GPa) = 41.56574 41.93881 41.75228
# Shear Modulus (GPa) = 30.62761 31.78586 31.20673
#
# Velocity S-wave (km/s) = 3.71178 3.78131 3.74671
# Velocity P-wave (km/s) = 6.08830 6.15873 6.12362
#
# Compressibility (1/GPa) = 0.02405828
#
# Stress axis : x y z
#
# Youngs Moduli (GPa) = 78.09725 78.09725 88.94941
#
# Poissons Ratio (x) = 0.13637 0.20682
# Poissons Ratio (y) = 0.13637 0.20682
# Poissons Ratio (z) = 0.18159 0.18159
#
# Static dielectric constant tensor:
#      x y z
#    x 1.851520 0.000000 0.000000 
#    y 0.000000 1.851520 0.000000 
#    z 0.000000 0.000000 1.861580 
# 
# From -- ./inp_files/5299.got.cif
#   From: 2010.05.17/outbox.cif.g08.bks.cpg/sg124_3_cif.got.tgz:5299.got - 2010.05.20 11:49:17.
