data_PCOD9562171
_publ_section_title
;
Structure prediction by ZEFSAII (Michael W. Deem and Ramdas Pophale) SiO2 
 PCOD9562171
Probable space group: P 4/M M M
;
_chemical_formula_sum "Si O2"
_cell_formula_units_Z 96
_cell_length_a 24.685276
_cell_length_b 24.685276
_cell_length_c 8.967554
_cell_angle_alpha 90.000000
_cell_angle_beta 90.000000
_cell_angle_gamma 90.000000
_cell_volume 5464.494274
_symmetry_space_group_name_H-M "P 4/M M M"
_symmetry_group_IT_number 123
_symmetry_cell_setting 'tetragonal'
loop_
_space_group_symop_operation_xyz
x,y,z
-y,x,z
-x,-y,z
y,-x,z
x,-y,-z
-x,y,-z
y,x,-z
-y,-x,-z
-x,-y,-z
y,-x,-z
x,y,-z
-y,x,-z
-x,y,z
x,-y,z
-y,-x,z
y,x,z
loop_
_atom_site_type_symbol
_atom_site_label
_atom_site_fract_x
_atom_site_fract_y
_atom_site_fract_z
Si Si1 0.354743 0.733761 0.820237
Si Si2 0.564800 0.938695 0.675534
Si Si3 0.937937 0.733559 0.677795
Si Si4 0.938179 0.849566 0.823051
Si Si5 0.562670 0.650987 0.320146
Si Si6 0.646653 0.140647 0.821609
O O1 0.300803 0.699198 0.780538
O O2 0.405020 0.701400 0.749702
O O3 0.352625 0.796467 0.773384
O O4 0.359707 0.732335 0.000000
O O5 0.579058 0.933854 0.500000
O O6 0.500000 0.934866 0.687546
O O7 0.594023 0.891851 0.765981
O O8 0.580446 0.000000 0.723064
O O9 0.933863 0.729353 0.500000
O O10 0.929744 0.794943 0.731192
O O11 0.893755 0.695828 0.754020
O O12 0.000000 0.718329 0.720330
O O13 0.895533 0.895533 0.783012
O O14 0.000000 0.868001 0.799398
O O15 0.932325 0.837455 0.000000
O O16 0.563985 0.655716 0.500000
O O17 0.500000 0.648326 0.273382
O O18 0.597304 0.597304 0.280020
O O19 0.649542 0.139673 0.000000
#
# Coordination Sequence:
#
# PCOD9562171 Si02
#       6
#    16  16  16  16  16  16
#     4   9  20  38  54  70  99 137 172 208 251 297
#     4   9  19  36  55  75 103 138 171 204 248 304
#     4  10  21  36  53  74 102 135 171 213 260 309
#     4   9  18  33  53  77 105 136 170 210 257 309
#     4   9  18  33  54  80 108 137 169 206 248 293
#     4  11  22  34  53  79 102 130 172 217 261 309
#
# _framework density 17.567957
#
# number of rings (size 3 to 8) (size 9 to 14) (size 15 to 20)
#    0.000    2.500    0.000    2.000    0.000    7.333 
#    0.000    7.500    0.000    0.000    0.000    4.667 
#    0.000    0.000    0.000    0.000    0.000    0.000 
#
# Total GULP energy -535560.738183 kJ/mol
# GULP energy per Si atom -5578.757689 kJ/mol
# Density = 1.752797 g / cm^3
# Si number density = 17.567957 Si / 1000 Ang^3
#
#
#
# Elastic Constant Matrix: (Units=GPa)
#
#
# Indices 1 2 3 4 5 6 
#
# 1 151.7263 92.3248 48.1761 0.0000 0.0000 0.0000
# 2 92.3248 151.7263 48.1761 0.0000 0.0000 0.0000
# 3 48.1761 48.1761 32.1915 0.0000 0.0000 0.0000
# 4 0.0000 0.0000 0.0000 16.7660 0.0000 0.0000
# 5 0.0000 0.0000 0.0000 0.0000 16.7660 0.0000
# 6 0.0000 0.0000 0.0000 0.0000 0.0000 28.2053
#
#
#
# Elastic Compliance Matrix: (Units=1/GPa)
#
#
# Indices 1 2 3 4 5 6 
#
# 1 0.013425 -0.003410 -0.014987 0.000000 0.000000 0.000000
# 2 -0.003410 0.013425 -0.014987 0.000000 0.000000 0.000000
# 3 -0.014987 -0.014987 0.075922 0.000000 0.000000 0.000000
# 4 0.000000 0.000000 0.000000 0.059644 0.000000 0.000000
# 5 0.000000 0.000000 0.000000 0.000000 0.059644 0.000000
# 6 0.000000 0.000000 0.000000 0.000000 0.000000 0.035454
#
#
# Mechanical properties :
#
#
# Convention : Reuss Voigt Hill
#
# Bulk Modulus (GPa) = 27.77590 79.22200 53.49895
# Shear Modulus (GPa) = 14.86841 22.14529 18.50685
#
# Velocity S-wave (km/s) = 2.91234 3.55427 3.24920
# Velocity P-wave (km/s) = 5.21094 7.87631 6.67796
#
# Compressibility (1/GPa) = 0.03600243
#
# Stress axis : x y z
#
# Youngs Moduli (GPa) = 74.49047 74.49047 13.17142
#
# Poissons Ratio (x) = 0.25402 0.19740
# Poissons Ratio (y) = 0.25402 0.19740
# Poissons Ratio (z) = 1.11640 1.11640
#
# Static dielectric constant tensor:
#      x y z
#    x 1.586470 0.000000 0.000000 
#    y 0.000000 1.586470 0.000000 
#    z 0.000000 0.000000 1.589050 
# 
# From -- ./inp_files/1585.got.cif
#   From: 2010.05.17/outbox.cif.g08.bks.cpg/sg123_1_cif.got.tgz:1585.got - 2010.05.20 11:43:04.
