data_PCOD9562724
_publ_section_title
;
Structure prediction by ZEFSAII (Michael W. Deem and Ramdas Pophale) SiO2 
 PCOD9562724
Probable space group: P 4/M C C
;
_chemical_formula_sum "Si O2"
_cell_formula_units_Z 96
_cell_length_a 17.663156
_cell_length_b 17.663156
_cell_length_c 18.371876
_cell_angle_alpha 90.000000
_cell_angle_beta 90.000000
_cell_angle_gamma 90.000000
_cell_volume 5731.787945
_symmetry_space_group_name_H-M "P 4/M C C"
_symmetry_group_IT_number 124
_symmetry_cell_setting 'tetragonal'
loop_
_space_group_symop_operation_xyz
x,y,z
-y,x,z
-x,-y,z
y,-x,z
x,-y,1/2-z
-x,y,1/2-z
y,x,1/2-z
-y,-x,1/2-z
-x,-y,-z
y,-x,-z
x,y,-z
-y,x,-z
-x,y,1/2+z
x,-y,1/2+z
-y,-x,1/2+z
y,x,1/2+z
loop_
_atom_site_type_symbol
_atom_site_label
_atom_site_fract_x
_atom_site_fract_y
_atom_site_fract_z
Si Si1 0.084439 0.202556 0.218864
Si Si2 0.008384 0.408216 0.419385
Si Si3 0.591048 0.164158 0.086100
Si Si4 0.670622 0.210832 0.224228
Si Si5 0.952234 0.883516 0.084804
Si Si6 0.869562 0.449487 0.183640
O O1 0.128887 0.128887 0.250000
O O2 0.138819 0.273336 0.231744
O O3 0.075010 0.184461 0.133901
O O4 0.000000 0.210642 0.250000
O O5 0.034222 0.383594 0.500000
O O6 0.068166 0.396782 0.355494
O O7 0.000000 0.500000 0.421789
O O8 0.923255 0.380538 0.406799
O O9 0.641622 0.213358 0.140887
O O10 0.507101 0.161788 0.122357
O O11 0.589978 0.182381 0.000000
O O12 0.716675 0.283326 0.250000
O O13 0.600149 0.193535 0.276775
O O14 0.039635 0.905188 0.099911
O O15 0.945303 0.866924 0.000000
O O16 0.903663 0.500000 0.250000
#
# Coordination Sequence:
#
# PCOD9562724 Si02
#       6
#    16  16  16  16  16  16
#     4  11  21  32  48  66  91 130 179 224 266 307
#     4   8  14  25  44  73  99 117 155 212 259 290
#     4   9  18  34  56  76  97 129 169 212 256 303
#     4  10  23  35  46  72 110 141 164 200 261 318
#     4   9  17  30  48  65  79 107 164 236 286 306
#     4   9  17  30  52  74  95 127 168 210 248 300
#
# _framework density 16.748701000000001
#
# number of rings (size 3 to 8) (size 9 to 14) (size 15 to 20)
#    0.000    2.667    1.667    2.000    2.333    7.833 
#    0.000    1.667    0.000    2.000    0.000    0.000 
#    0.000   27.000    0.000   13.500    0.000    0.000 
#
# Total GULP energy -534772.621364 kJ/mol
# GULP energy per Si atom -5570.548139 kJ/mol
# Density = 1.671058 g / cm^3
# Si number density = 16.748701 Si / 1000 Ang^3
#
#
#
# Elastic Constant Matrix: (Units=GPa)
#
#
# Indices 1 2 3 4 5 6 
#
# 1 47.4860 21.9431 40.1822 0.0000 0.0000 0.0000
# 2 21.9431 47.4846 40.1821 0.0000 0.0000 0.0000
# 3 40.1822 40.1821 127.1813 0.0000 0.0000 0.0000
# 4 0.0000 0.0000 0.0000 18.4789 0.0000 0.0000
# 5 0.0000 0.0000 0.0000 0.0000 18.4785 0.0000
# 6 0.0000 0.0000 0.0000 0.0000 0.0000 17.4020
#
#
#
# Elastic Compliance Matrix: (Units=1/GPa)
#
#
# Indices 1 2 3 4 5 6 
#
# 1 0.030929 -0.008222 -0.007174 0.000000 0.000000 0.000000
# 2 -0.008222 0.030930 -0.007175 0.000000 0.000000 0.000000
# 3 -0.007174 -0.007175 0.012396 0.000000 0.000000 0.000000
# 4 0.000000 0.000000 0.000000 0.054116 0.000000 0.000000
# 5 0.000000 0.000000 0.000000 0.000000 0.054117 0.000000
# 6 0.000000 0.000000 0.000000 0.000000 0.000000 0.057465
#
#
# Mechanical properties :
#
#
# Convention : Reuss Voigt Hill
#
# Bulk Modulus (GPa) = 34.34749 47.41853 40.88301
# Shear Modulus (GPa) = 16.96079 18.86151 17.91115
#
# Velocity S-wave (km/s) = 3.18569 3.35945 3.27372
# Velocity P-wave (km/s) = 5.83811 6.58947 6.22514
#
# Compressibility (1/GPa) = 0.02911421
#
# Stress axis : x y z
#
# Youngs Moduli (GPa) = 32.33243 32.33120 80.66996
#
# Poissons Ratio (x) = 0.26581 0.57874
# Poissons Ratio (y) = 0.26582 0.57877
# Poissons Ratio (z) = 0.23196 0.23196
#
# Static dielectric constant tensor:
#      x y z
#    x 1.585430 0.000000 0.000000 
#    y 0.000000 1.585430 0.000000 
#    z 0.000000 0.000000 1.596420 
# 
# From -- ./inp_files/4278.got.cif
#   From: 2010.05.17/outbox.cif.g08.bks.cpg/sg124_3_cif.got.tgz:4278.got - 2010.05.20 11:49:17.
