data_PCOD9562241
_publ_section_title
;
Structure prediction by ZEFSAII (Michael W. Deem and Ramdas Pophale) SiO2 
 PCOD9562241
Probable space group: P 4/M M M
;
_chemical_formula_sum "Si O2"
_cell_formula_units_Z 80
_cell_length_a 24.148058
_cell_length_b 24.148058
_cell_length_c 7.391197
_cell_angle_alpha 90.000000
_cell_angle_beta 90.000000
_cell_angle_gamma 90.000000
_cell_volume 4310.019136
_symmetry_space_group_name_H-M "P 4/M M M"
_symmetry_group_IT_number 123
_symmetry_cell_setting 'tetragonal'
loop_
_space_group_symop_operation_xyz
x,y,z
-y,x,z
-x,-y,z
y,-x,z
x,-y,-z
-x,y,-z
y,x,-z
-y,-x,-z
-x,-y,-z
y,-x,-z
x,y,-z
-y,x,-z
-x,y,z
x,-y,z
-y,-x,z
y,x,z
loop_
_atom_site_type_symbol
_atom_site_label
_atom_site_fract_x
_atom_site_fract_y
_atom_site_fract_z
Si Si1 0.649058 0.649058 0.714648
Si Si2 0.165679 0.747182 0.779265
Si Si3 0.437744 0.437744 0.279158
Si Si4 0.224033 0.364417 0.212734
Si Si5 0.562967 0.125062 0.779534
Si Si6 0.937104 0.675746 0.220287
O O1 0.646843 0.646843 0.500000
O O2 0.605754 0.605754 0.789905
O O3 0.632404 0.710979 0.765340
O O4 0.196005 0.803996 0.720069
O O5 0.203876 0.695399 0.718917
O O6 0.104872 0.725082 0.724161
O O7 0.165213 0.749421 0.000000
O O8 0.500000 0.424388 0.223634
O O9 0.437215 0.437215 0.500000
O O10 0.185912 0.414867 0.278935
O O11 0.211954 0.362260 0.000000
O O12 0.500000 0.113393 0.717619
O O13 0.614656 0.085645 0.725634
O O14 0.560626 0.122668 0.000000
O O15 0.000000 0.683682 0.279834
O O16 0.936448 0.675458 0.000000
#
# Coordination Sequence:
#
# PCOD9562241 Si02
#       6
#     8  16   8  16  16  16
#     4  11  20  27  42  66  80  88 116 164 203 225
#     4   8  12  20  35  50  66  98 135 152 172 224
#     4   8  16  32  47  54  66  92 120 144 182 239
#     4   9  16  27  41  55  76 105 128 144 177 236
#     4   8  14  23  35  52  73 100 132 157 182 227
#     4   8  13  19  28  47  75 101 126 162 200 226
#
# _framework density 18.561402000000001
#
# number of rings (size 3 to 8) (size 9 to 14) (size 15 to 20)
#    0.000    3.500    1.000    3.000    0.000    1.200 
#    0.000    2.000    0.000    1.800    0.000    2.800 
#    0.000   13.200    0.000   12.800    0.000    8.000 
#
# Total GULP energy -445365.248036 kJ/mol
# GULP energy per Si atom -5567.065600 kJ/mol
# Density = 1.851916 g / cm^3
# Si number density = 18.561402 Si / 1000 Ang^3
#
#
#
# Elastic Constant Matrix: (Units=GPa)
#
#
# Indices 1 2 3 4 5 6 
#
# 1 30.2786 217.4019 -0.0180 0.0000 0.0000 0.0000
# 2 217.4019 30.2786 -0.0180 0.0000 0.0000 0.0000
# 3 -0.0180 -0.0180 57.2922 0.0000 0.0000 0.0000
# 4 0.0000 0.0000 0.0000 -0.2674 0.0000 0.0000
# 5 0.0000 0.0000 0.0000 0.0000 -0.2674 0.0000
# 6 0.0000 0.0000 0.0000 0.0000 0.0000 20.6474
#
#
#
# Elastic Compliance Matrix: (Units=1/GPa)
#
#
# Indices 1 2 3 4 5 6 
#
# 1 -0.000653 0.004691 0.000001 0.000000 0.000000 0.000000
# 2 0.004691 -0.000653 0.000001 0.000000 0.000000 0.000000
# 3 0.000001 0.000001 0.017454 0.000000 0.000000 0.000000
# 4 0.000000 0.000000 0.000000 -3.740017 0.000000 0.000000
# 5 0.000000 0.000000 0.000000 0.000000 -3.740017 0.000000
# 6 0.000000 0.000000 0.000000 0.000000 0.000000 0.048432
#
#
# Mechanical properties :
#
#
# Convention : Reuss Voigt Hill
#
# Bulk Modulus (GPa) = 39.16286 61.39789 50.28037
# Shear Modulus (GPa) = -0.67419 -2.61190 -1.64305
#
# Velocity S-wave (km/s) = -0.60333 -1.18753 -0.94187
# Velocity P-wave (km/s) = 4.54528 5.59194 5.09555
#
# Compressibility (1/GPa) = 0.02553440
#
# Stress axis : x y z
#
# Youngs Moduli (GPa) = -1530.67847 -1530.67847 57.29217
#
# Poissons Ratio (x) = 7.18005 -0.00007
# Poissons Ratio (y) = 7.18005 -0.00007
# Poissons Ratio (z) = 0.00195 0.00195
#
# Static dielectric constant tensor:
#      x y z
#    x 1.630310 0.000000 0.000000 
#    y 0.000000 1.630310 0.000000 
#    z 0.000000 0.000000 1.722530 
# 
# From -- ./inp_files/1467.got.cif
#   From: 2010.05.17/outbox.cif.g08.bks.cpg/sg123_1_cif.got.tgz:1467.got - 2010.05.20 11:43:04.
