data_PCOD9562963
_publ_section_title
;
Structure prediction by ZEFSAII (Michael W. Deem and Ramdas Pophale) SiO2 
 PCOD9562963
Probable space group: P 4/N B M
;
_chemical_formula_sum "Si O2"
_cell_formula_units_Z 120
_cell_length_a 29.806851
_cell_length_b 29.806851
_cell_length_c 7.663437
_cell_angle_alpha 90.000000
_cell_angle_beta 90.000000
_cell_angle_gamma 90.000000
_cell_volume 6808.568085
_symmetry_space_group_name_H-M "P 4/N B M"
_symmetry_group_IT_number 125
_space_group.IT_coordinate_system_code '2'
_symmetry_cell_setting 'tetragonal'
loop_
_space_group_symop_operation_xyz
x,y,z
1/2-y,x,z
1/2-x,1/2-y,z
y,1/2-x,z
x,1/2-y,-z
1/2-x,y,-z
y,x,-z
1/2-y,1/2-x,-z
-x,-y,-z
1/2+y,-x,-z
1/2+x,1/2+y,-z
-y,1/2+x,-z
-x,1/2+y,z
1/2+x,-y,z
-y,-x,z
1/2+y,1/2+x,z
loop_
_atom_site_type_symbol
_atom_site_label
_atom_site_fract_x
_atom_site_fract_y
_atom_site_fract_z
Si Si1 0.569612 0.930389 0.000000
Si Si2 0.391231 0.142741 0.749657
Si Si3 0.767046 0.036261 0.200430
Si Si4 0.416343 0.183972 0.371332
Si Si5 0.273174 0.434797 0.816758
Si Si6 0.169966 0.521382 0.680285
Si Si7 0.102812 0.529555 0.984740
Si Si8 0.142515 0.567950 0.328753
O O1 0.602027 0.918183 0.837331
O O2 0.518398 0.920049 0.957369
O O3 0.408159 0.163784 0.565288
O O4 0.341844 0.122772 0.732299
O O5 0.401344 0.186542 0.861196
O O6 0.721481 0.037367 0.312485
O O7 0.806306 0.070011 0.256531
O O8 0.786925 0.985683 0.235073
O O9 0.750000 0.041151 0.000000
O O10 0.415992 0.236418 0.319076
O O11 0.467245 0.170058 0.326924
O O12 0.250000 0.442724 0.000000
O O13 0.145704 0.533358 0.860526
O O14 0.145496 0.543674 0.515830
O O15 0.068090 0.568090 0.936304
O O16 0.117055 0.537580 0.184713
O O17 0.114253 0.614253 0.339167
#
# Coordination Sequence:
#
# PCOD9562963 Si02
#       8
#     8  16  16  16  16  16  16  16
#     4  12  21  36  54  74 110 157 202 236 284 334
#     4  11  21  33  55  77 109 143 186 237 291 346
#     4  10  19  35  60  86 113 148 194 243 297 342
#     4  10  21  35  53  84 107 140 189 243 286 345
#     4  10  20  33  55  83 109 141 188 242 299 348
#     4  11  20  38  59  81 114 151 196 239 289 338
#     4  11  23  37  53  78 116 158 200 241 282 338
#     4  11  23  38  57  86 120 156 193 238 293 348
#
# _framework density 17.624852000000001
#
# number of rings (size 3 to 8) (size 9 to 14) (size 15 to 20)
#    0.000    1.333    2.667    4.600    1.867    2.133 
#    0.000    0.000    0.000    3.600    0.000    2.800 
#    0.000   14.667    0.000    0.000    0.000    0.000 
#
# Total GULP energy -668913.612373 kJ/mol
# GULP energy per Si atom -5574.280103 kJ/mol
# Density = 1.758474 g / cm^3
# Si number density = 17.624852 Si / 1000 Ang^3
#
#
#
# Elastic Constant Matrix: (Units=GPa)
#
#
# Indices 1 2 3 4 5 6 
#
# 1 75.9784 71.0345 19.7367 0.0000 0.0000 0.0000
# 2 71.0345 75.9794 19.7381 0.0000 0.0000 0.0000
# 3 19.7367 19.7381 66.3857 0.0000 0.0000 0.0000
# 4 0.0000 0.0000 0.0000 24.9152 0.0000 0.0000
# 5 0.0000 0.0000 0.0000 0.0000 24.9154 0.0000
# 6 0.0000 0.0000 0.0000 0.0000 0.0000 28.5459
#
#
#
# Elastic Compliance Matrix: (Units=1/GPa)
#
#
# Indices 1 2 3 4 5 6 
#
# 1 0.104821 -0.097429 -0.002196 0.000000 0.000000 0.000000
# 2 -0.097429 0.104821 -0.002200 0.000000 0.000000 0.000000
# 3 -0.002196 -0.002200 0.016370 0.000000 0.000000 0.000000
# 4 0.000000 0.000000 0.000000 0.040136 0.000000 0.000000
# 5 0.000000 0.000000 0.000000 0.000000 0.040136 0.000000
# 6 0.000000 0.000000 0.000000 0.000000 0.000000 0.035031
#
#
# Mechanical properties :
#
#
# Convention : Reuss Voigt Hill
#
# Bulk Modulus (GPa) = 44.71558 48.81802 46.76680
# Shear Modulus (GPa) = 9.05110 22.86423 15.95767
#
# Velocity S-wave (km/s) = 2.26860 3.60567 3.01226
# Velocity P-wave (km/s) = 5.68225 6.71514 6.22017
#
# Compressibility (1/GPa) = 0.02236357
#
# Stress axis : x y z
#
# Youngs Moduli (GPa) = 9.54007 9.54008 61.08601
#
# Poissons Ratio (x) = 0.92948 0.13412
# Poissons Ratio (y) = 0.92948 0.13439
# Poissons Ratio (z) = 0.02095 0.02099
#
# Static dielectric constant tensor:
#      x y z
#    x 1.622360 0.000000 0.000000 
#    y 0.000000 1.622350 0.000000 
#    z 0.000000 0.000000 1.720670 
# 
# From -- ./inp_files/3114.got.cif
#   From: 2010.05.17/outbox.cif.g08.bks.cpg/sg125_2_cif.got.tgz:3114.got - 2010.05.20 11:54:10.
