data_PCOD9562259
_publ_section_title
;
Structure prediction by ZEFSAII (Michael W. Deem and Ramdas Pophale) SiO2 
 PCOD9562259
Probable space group: P 4/M M M
;
_chemical_formula_sum "Si O2"
_cell_formula_units_Z 64
_cell_length_a 20.788230
_cell_length_b 20.788230
_cell_length_c 7.398717
_cell_angle_alpha 90.000000
_cell_angle_beta 90.000000
_cell_angle_gamma 90.000000
_cell_volume 3197.359299
_symmetry_space_group_name_H-M "P 4/M M M"
_symmetry_group_IT_number 123
_symmetry_cell_setting 'tetragonal'
loop_
_space_group_symop_operation_xyz
x,y,z
-y,x,z
-x,-y,z
y,-x,z
x,-y,-z
-x,y,-z
y,x,-z
-y,-x,-z
-x,-y,-z
y,-x,-z
x,y,-z
-y,x,-z
-x,y,z
x,-y,z
-y,-x,z
y,x,z
loop_
_atom_site_type_symbol
_atom_site_label
_atom_site_fract_x
_atom_site_fract_y
_atom_site_fract_z
Si Si1 0.073441 0.323740 0.279540
Si Si2 0.073344 0.822909 0.279662
Si Si3 0.573038 0.675979 0.216599
Si Si4 0.823617 0.572858 0.284227
O O1 0.074435 0.324003 0.500000
O O2 0.088168 0.250409 0.224314
O O3 0.125111 0.375607 0.215271
O O4 0.000000 0.338839 0.225966
O O5 0.074015 0.823502 0.500000
O O6 0.125244 0.874757 0.217790
O O7 0.000000 0.837887 0.225012
O O8 0.500000 0.666730 0.285175
O O9 0.624158 0.624158 0.285740
O O10 0.592203 0.749659 0.252933
O O11 0.570473 0.669023 0.000000
O O12 0.832500 0.569702 0.500000
O O13 0.832003 0.500000 0.213398
#
# Coordination Sequence:
#
# PCOD9562259 Si02
#       4
#    16  16  16  16
#     4   8  14  24  37  55  80 108 138 172 207 243
#     4   8  13  20  29  43  66  96 129 164 200 237
#     4   9  18  32  48  65  86 112 141 174 212 254
#     4   9  17  28  43  64  87 110 138 173 211 249
#
# _framework density 20.016515999999999
#
# number of rings (size 3 to 8) (size 9 to 14) (size 15 to 20)
#    0.000    3.500    0.000    1.500    0.000    2.500 
#    0.000    7.500    0.000    0.750    0.000    7.000 
#    0.000    0.000    0.000    0.000    0.000    0.000 
#
# Total GULP energy -356895.075560 kJ/mol
# GULP energy per Si atom -5576.485556 kJ/mol
# Density = 1.997096 g / cm^3
# Si number density = 20.016516 Si / 1000 Ang^3
#
#
#
# Elastic Constant Matrix: (Units=GPa)
#
#
# Indices 1 2 3 4 5 6 
#
# 1 178.4092 164.9427 4.7032 0.0000 0.0000 0.0000
# 2 164.9427 178.4092 4.7032 0.0000 0.0000 0.0000
# 3 4.7032 4.7032 68.2816 0.0000 0.0000 0.0000
# 4 0.0000 0.0000 0.0000 10.0679 0.0000 0.0000
# 5 0.0000 0.0000 0.0000 0.0000 10.0679 0.0000
# 6 0.0000 0.0000 0.0000 0.0000 0.0000 50.9454
#
#
#
# Elastic Compliance Matrix: (Units=1/GPa)
#
#
# Indices 1 2 3 4 5 6 
#
# 1 0.038588 -0.035670 -0.000201 0.000000 0.000000 0.000000
# 2 -0.035670 0.038588 -0.000201 0.000000 0.000000 0.000000
# 3 -0.000201 -0.000201 0.014673 0.000000 0.000000 0.000000
# 4 0.000000 0.000000 0.000000 0.099326 0.000000 0.000000
# 5 0.000000 0.000000 0.000000 0.000000 0.099326 0.000000
# 6 0.000000 0.000000 0.000000 0.000000 0.000000 0.019629
#
#
# Mechanical properties :
#
#
# Convention : Reuss Voigt Hill
#
# Bulk Modulus (GPa) = 50.74880 85.97759 68.36320
# Shear Modulus (GPa) = 12.85872 30.93298 21.89585
#
# Velocity S-wave (km/s) = 2.53732 3.93539 3.31099
# Velocity P-wave (km/s) = 5.83031 7.98099 6.98888
#
# Compressibility (1/GPa) = 0.01970490
#
# Stress axis : x y z
#
# Youngs Moduli (GPa) = 25.91479 25.91479 68.15279
#
# Poissons Ratio (x) = 0.92438 0.01370
# Poissons Ratio (y) = 0.92438 0.01370
# Poissons Ratio (z) = 0.00521 0.00521
#
# Static dielectric constant tensor:
#      x y z
#    x 1.679060 0.000000 0.000000 
#    y 0.000000 1.679060 0.000000 
#    z 0.000000 0.000000 1.783760 
# 
# From -- ./inp_files/864.got.cif
#   From: 2010.05.17/outbox.cif.g08.bks.cpg/sg123_1_cif.got.tgz:864.got - 2010.05.20 11:43:04.
