data_PCOD9562779
_publ_section_title
;
Structure prediction by ZEFSAII (Michael W. Deem and Ramdas Pophale) SiO2 
 PCOD9562779
Probable space group: P 4/M C C
;
_chemical_formula_sum "Si O2"
_cell_formula_units_Z 60
_cell_length_a 14.284641
_cell_length_b 14.284641
_cell_length_c 13.991499
_cell_angle_alpha 90.000000
_cell_angle_beta 90.000000
_cell_angle_gamma 90.000000
_cell_volume 2854.978922
_symmetry_space_group_name_H-M "P 4/M C C"
_symmetry_group_IT_number 124
_symmetry_cell_setting 'tetragonal'
loop_
_space_group_symop_operation_xyz
x,y,z
-y,x,z
-x,-y,z
y,-x,z
x,-y,1/2-z
-x,y,1/2-z
y,x,1/2-z
-y,-x,1/2-z
-x,-y,-z
y,-x,-z
x,y,-z
-y,x,-z
-x,y,1/2+z
x,-y,1/2+z
-y,-x,1/2+z
y,x,1/2+z
loop_
_atom_site_type_symbol
_atom_site_label
_atom_site_fract_x
_atom_site_fract_y
_atom_site_fract_z
Si Si1 0.072426 0.137881 0.000000
Si Si2 0.646866 0.524660 0.884531
Si Si3 0.759189 0.100691 0.196949
Si Si4 0.500000 0.000000 0.250000
Si Si5 0.446855 0.862103 0.884149
O O1 0.098329 0.191599 0.905234
O O2 0.962019 0.121319 0.000000
O O3 0.574598 0.604733 0.853219
O O4 0.753705 0.538914 0.860821
O O5 0.643502 0.525271 0.000000
O O6 0.812427 0.187574 0.250000
O O7 0.649502 0.108728 0.169193
O O8 0.773929 0.000000 0.250000
O O9 0.527424 0.923048 0.167393
O O10 0.443227 0.874649 0.000000
#
# Coordination Sequence:
#
# PCOD9562779 Si02
#       5
#     8  16  16   4  16
#     4  11  22  38  64  91 124 173 224 283 346 386
#     4   8  16  36  67 101 131 161 207 269 331 392
#     4  12  24  40  63  94 130 172 222 276 329 397
#     4  12  26  44  64  92 130 172 222 268 324 396
#     4  11  24  43  67  95 132 178 219 268 334 402
#
# _framework density 21.015915
#
# number of rings (size 3 to 8) (size 9 to 14) (size 15 to 20)
#    0.000    1.467    5.333    1.200    0.000    2.400 
#    0.000    0.000    0.000    1.600    0.000    0.000 
#    0.000    0.000    0.000    0.000    0.000    0.000 
#
# Total GULP energy -334149.007852 kJ/mol
# GULP energy per Si atom -5569.150131 kJ/mol
# Density = 2.096808 g / cm^3
# Si number density = 21.015915 Si / 1000 Ang^3
#
#
#
# Elastic Constant Matrix: (Units=GPa)
#
#
# Indices 1 2 3 4 5 6 
#
# 1 86.3941 43.5166 46.2047 0.0000 0.0000 0.0000
# 2 43.5166 86.3945 46.2053 0.0000 0.0000 0.0000
# 3 46.2047 46.2053 163.5514 0.0000 0.0000 0.0000
# 4 0.0000 0.0000 0.0000 62.4835 0.0000 0.0000
# 5 0.0000 0.0000 0.0000 0.0000 62.4869 0.0000
# 6 0.0000 0.0000 0.0000 0.0000 0.0000 16.8410
#
#
#
# Elastic Compliance Matrix: (Units=1/GPa)
#
#
# Indices 1 2 3 4 5 6 
#
# 1 0.016478 -0.006844 -0.002722 0.000000 0.000000 0.000000
# 2 -0.006844 0.016478 -0.002722 0.000000 0.000000 0.000000
# 3 -0.002722 -0.002722 0.007652 0.000000 0.000000 0.000000
# 4 0.000000 0.000000 0.000000 0.016004 0.000000 0.000000
# 5 0.000000 0.000000 0.000000 0.000000 0.016003 0.000000
# 6 0.000000 0.000000 0.000000 0.000000 0.000000 0.059379
#
#
# Mechanical properties :
#
#
# Convention : Reuss Voigt Hill
#
# Bulk Modulus (GPa) = 62.37214 67.57703 64.97458
# Shear Modulus (GPa) = 30.88069 41.72316 36.30193
#
# Velocity S-wave (km/s) = 3.83743 4.46052 4.16065
# Velocity P-wave (km/s) = 7.02691 7.66507 7.35291
#
# Compressibility (1/GPa) = 0.01603280
#
# Stress axis : x y z
#
# Youngs Moduli (GPa) = 60.68758 60.68763 130.68422
#
# Poissons Ratio (x) = 0.41536 0.35566
# Poissons Ratio (y) = 0.41536 0.35567
# Poissons Ratio (z) = 0.16516 0.16517
#
# Static dielectric constant tensor:
#      x y z
#    x 1.824820 0.000000 0.000000 
#    y 0.000000 1.824820 0.000000 
#    z 0.000000 0.000000 1.736880 
# 
# From -- ./inp_files/3016.got.cif
#   From: 2010.05.17/outbox.cif.g08.bks.cpg/sg124_2_cif.got.tgz:3016.got - 2010.05.20 11:49:17.
