data_PCOD9562399
_publ_section_title
;
Structure prediction by ZEFSAII (Michael W. Deem and Ramdas Pophale) SiO2 
 PCOD9562399
Probable space group: P 4/M C C
;
_chemical_formula_sum "Si O2"
_cell_formula_units_Z 96
_cell_length_a 17.937989
_cell_length_b 17.937989
_cell_length_c 17.453595
_cell_angle_alpha 90.000000
_cell_angle_beta 90.000000
_cell_angle_gamma 90.000000
_cell_volume 5616.068560
_symmetry_space_group_name_H-M "P 4/M C C"
_symmetry_group_IT_number 124
_symmetry_cell_setting 'tetragonal'
loop_
_space_group_symop_operation_xyz
x,y,z
-y,x,z
-x,-y,z
y,-x,z
x,-y,1/2-z
-x,y,1/2-z
y,x,1/2-z
-y,-x,1/2-z
-x,-y,-z
y,-x,-z
x,y,-z
-y,x,-z
-x,y,1/2+z
x,-y,1/2+z
-y,-x,1/2+z
y,x,1/2+z
loop_
_atom_site_type_symbol
_atom_site_label
_atom_site_fract_x
_atom_site_fract_y
_atom_site_fract_z
Si Si1 0.421292 0.401933 0.085984
Si Si2 0.850976 0.515500 0.589325
Si Si3 0.719469 0.568699 0.302451
Si Si4 0.899116 0.657491 0.912288
Si Si5 0.631066 0.954850 0.825304
Si Si6 0.820493 0.699652 0.237067
O O1 0.511565 0.399633 0.092132
O O2 0.393001 0.348810 0.152829
O O3 0.400279 0.376906 0.000000
O O4 0.844960 0.536218 0.500000
O O5 0.774458 0.533031 0.633513
O O6 0.875273 0.429564 0.593183
O O7 0.912957 0.564422 0.632139
O O8 0.694114 0.500000 0.250000
O O9 0.767663 0.628665 0.255834
O O10 0.848304 0.697745 0.849995
O O11 0.984065 0.663922 0.883015
O O12 0.890534 0.681157 0.000000
O O13 0.687106 0.892069 0.792307
O O14 0.604518 0.000000 0.750000
O O15 0.773433 0.773433 0.250000
#
# Coordination Sequence:
#
# PCOD9562399 Si02
#       6
#    16  16  16  16  16  16
#     4   9  20  37  52  66  85 117 173 243 298 329
#     4  10  19  31  48  76 103 129 167 212 260 312
#     4  11  21  32  49  70  97 134 176 220 266 316
#     4  10  19  34  54  77 103 139 175 213 259 312
#     4   9  19  32  53  76 104 135 170 211 252 306
#     4  10  22  37  50  75 109 143 174 213 262 317
#
# _framework density 17.093807999999999
#
# number of rings (size 3 to 8) (size 9 to 14) (size 15 to 20)
#    0.000    2.167    1.667    2.000    2.333    3.333 
#    0.000    5.833    0.000    0.000    0.000    0.000 
#    0.000   27.000    0.000   13.500    0.000    0.000 
#
# Total GULP energy -535984.514884 kJ/mol
# GULP energy per Si atom -5583.172030 kJ/mol
# Density = 1.705490 g / cm^3
# Si number density = 17.093808 Si / 1000 Ang^3
#
#
#
# Elastic Constant Matrix: (Units=GPa)
#
#
# Indices 1 2 3 4 5 6 
#
# 1 54.6744 10.8442 37.8018 0.0000 0.0000 0.0000
# 2 10.8442 54.6744 37.8018 0.0000 0.0000 0.0000
# 3 37.8018 37.8018 125.5335 0.0000 0.0000 0.0000
# 4 0.0000 0.0000 0.0000 12.8453 0.0000 0.0000
# 5 0.0000 0.0000 0.0000 0.0000 12.8453 0.0000
# 6 0.0000 0.0000 0.0000 0.0000 0.0000 18.1334
#
#
#
# Elastic Compliance Matrix: (Units=1/GPa)
#
#
# Indices 1 2 3 4 5 6 
#
# 1 0.023103 0.000288 -0.007044 0.000000 0.000000 0.000000
# 2 0.000288 0.023103 -0.007044 0.000000 0.000000 0.000000
# 3 -0.007044 -0.007044 0.012208 0.000000 0.000000 0.000000
# 4 0.000000 0.000000 0.000000 0.077849 0.000000 0.000000
# 5 0.000000 0.000000 0.000000 0.000000 0.077849 0.000000
# 6 0.000000 0.000000 0.000000 0.000000 0.000000 0.055147
#
#
# Mechanical properties :
#
#
# Convention : Reuss Voigt Hill
#
# Bulk Modulus (GPa) = 32.45183 45.30865 38.88024
# Shear Modulus (GPa) = 16.27973 18.66044 17.47008
#
# Velocity S-wave (km/s) = 3.08941 3.30760 3.20036
# Velocity P-wave (km/s) = 5.63486 6.41485 6.03747
#
# Compressibility (1/GPa) = 0.03081491
#
# Stress axis : x y z
#
# Youngs Moduli (GPa) = 43.28448 43.28448 81.91308
#
# Poissons Ratio (x) = -0.01245 0.57696
# Poissons Ratio (y) = -0.01245 0.57696
# Poissons Ratio (z) = 0.30488 0.30488
#
# Static dielectric constant tensor:
#      x y z
#    x 1.572680 0.000000 0.000000 
#    y 0.000000 1.572680 0.000000 
#    z 0.000000 0.000000 1.606200 
# 
# From -- ./inp_files/4255.got.cif
#   From: 2010.05.17/outbox.cif.g08.bks.cpg/sg124_3_cif.got.tgz:4255.got - 2010.05.20 11:49:17.
