data_PCOD9562004
_publ_section_title
;
Structure prediction by ZEFSAII (Michael W. Deem and Ramdas Pophale) SiO2 
 PCOD9562004
Probable space group: P 4/M M M
;
_chemical_formula_sum "Si O2"
_cell_formula_units_Z 104
_cell_length_a 18.579453
_cell_length_b 18.579453
_cell_length_c 19.714483
_cell_angle_alpha 90.000000
_cell_angle_beta 90.000000
_cell_angle_gamma 90.000000
_cell_volume 6805.362128
_symmetry_space_group_name_H-M "P 4/M M M"
_symmetry_group_IT_number 123
_symmetry_cell_setting 'tetragonal'
loop_
_space_group_symop_operation_xyz
x,y,z
-y,x,z
-x,-y,z
y,-x,z
x,-y,-z
-x,y,-z
y,x,-z
-y,-x,-z
-x,-y,-z
y,-x,-z
x,y,-z
-y,x,-z
-x,y,z
x,-y,z
-y,-x,z
y,x,z
loop_
_atom_site_type_symbol
_atom_site_label
_atom_site_fract_x
_atom_site_fract_y
_atom_site_fract_z
Si Si1 0.081492 0.801903 0.272046
Si Si2 0.288865 0.914291 0.138732
Si Si3 0.793693 0.913733 0.000000
Si Si4 0.768147 0.348885 0.577805
Si Si5 0.583513 0.853589 0.780105
Si Si6 0.701317 0.582903 0.290999
Si Si7 0.918812 0.346226 0.647714
O O1 0.137589 0.862412 0.291115
O O2 0.100296 0.768341 0.198676
O O3 0.083083 0.734896 0.323199
O O4 0.000000 0.829824 0.268761
O O5 0.253467 0.897136 0.066800
O O6 0.361708 0.874320 0.160368
O O7 0.303507 0.000000 0.140729
O O8 0.865345 0.865345 0.000000
O O9 0.809291 0.000000 0.000000
O O10 0.756532 0.370384 0.500000
O O11 0.729739 0.270262 0.586572
O O12 0.728744 0.398852 0.632915
O O13 0.852635 0.351520 0.595840
O O14 0.500000 0.864687 0.796987
O O15 0.594343 0.771096 0.756465
O O16 0.604776 0.900559 0.713553
O O17 0.679306 0.500000 0.286398
O O18 0.637964 0.637964 0.274178
O O19 0.000000 0.361549 0.623147
#
# Coordination Sequence:
#
# PCOD9562004 Si02
#       7
#    16  16   8  16  16  16  16
#     4   9  16  26  40  58  81 108 140 178 217 257
#     4   9  18  30  44  64  88 116 148 181 217 253
#     4  10  20  33  47  65  91 121 156 192 222 256
#     4   9  17  29  44  60  81 111 143 175 212 253
#     4   9  17  30  48  68  89 113 142 174 209 254
#     4   9  18  31  47  68  90 112 140 172 207 250
#     4   9  17  27  41  62  84 108 139 175 215 256
#
# _framework density 15.282067
#
# number of rings (size 3 to 8) (size 9 to 14) (size 15 to 20)
#    0.000    2.923    0.000    2.308    0.000    6.538 
#    0.000    0.385    0.000    4.154    0.000    6.462 
#    0.000    0.000    0.000   14.308    0.000   12.923 
#
# Total GULP energy -579226.407329 kJ/mol
# GULP energy per Si atom -5569.484686 kJ/mol
# Density = 1.524728 g / cm^3
# Si number density = 15.282067 Si / 1000 Ang^3
#
#
#
# Elastic Constant Matrix: (Units=GPa)
#
#
# Indices 1 2 3 4 5 6 
#
# 1 80.3848 51.6478 13.4983 0.0000 0.0000 0.0000
# 2 51.6478 80.3848 13.4983 0.0000 0.0000 0.0000
# 3 13.4983 13.4983 41.9353 0.0000 0.0000 0.0000
# 4 0.0000 0.0000 0.0000 11.4239 0.0000 0.0000
# 5 0.0000 0.0000 0.0000 0.0000 11.4239 0.0000
# 6 0.0000 0.0000 0.0000 0.0000 0.0000 13.8408
#
#
#
# Elastic Compliance Matrix: (Units=1/GPa)
#
#
# Indices 1 2 3 4 5 6 
#
# 1 0.021453 -0.013345 -0.002610 0.000000 0.000000 0.000000
# 2 -0.013345 0.021453 -0.002610 0.000000 0.000000 0.000000
# 3 -0.002610 -0.002610 0.025526 0.000000 0.000000 0.000000
# 4 0.000000 0.000000 0.000000 0.087536 0.000000 0.000000
# 5 0.000000 0.000000 0.000000 0.000000 0.087536 0.000000
# 6 0.000000 0.000000 0.000000 0.000000 0.000000 0.072250
#
#
# Mechanical properties :
#
#
# Convention : Reuss Voigt Hill
#
# Bulk Modulus (GPa) = 31.94629 39.99933 35.97281
# Shear Modulus (GPa) = 13.76206 15.60841 14.68523
#
# Velocity S-wave (km/s) = 3.00415 3.19933 3.10327
# Velocity P-wave (km/s) = 5.74309 6.31494 6.03579
#
# Compressibility (1/GPa) = 0.03130254
#
# Stress axis : x y z
#
# Youngs Moduli (GPa) = 46.61362 46.61362 39.17531
#
# Poissons Ratio (x) = 0.62208 0.10223
# Poissons Ratio (y) = 0.62208 0.10223
# Poissons Ratio (z) = 0.12165 0.12165
#
# Static dielectric constant tensor:
#      x y z
#    x 1.505970 0.000000 0.000000 
#    y 0.000000 1.505970 0.000000 
#    z 0.000000 0.000000 1.495170 
# 
# From -- ./inp_files/5648.got.cif
#   From: 2010.05.17/outbox.cif.g08.bks.cpg/sg123_3_cif.got.tgz:5648.got - 2010.05.20 11:43:04.
