data_PCOD9562003
_publ_section_title
;
Structure prediction by ZEFSAII (Michael W. Deem and Ramdas Pophale) SiO2 
 PCOD9562003
Probable space group: P 4/M M M
;
_chemical_formula_sum "Si O2"
_cell_formula_units_Z 88
_cell_length_a 17.878991
_cell_length_b 17.878991
_cell_length_c 16.470140
_cell_angle_alpha 90.000000
_cell_angle_beta 90.000000
_cell_angle_gamma 90.000000
_cell_volume 5264.817269
_symmetry_space_group_name_H-M "P 4/M M M"
_symmetry_group_IT_number 123
_symmetry_cell_setting 'tetragonal'
loop_
_space_group_symop_operation_xyz
x,y,z
-y,x,z
-x,-y,z
y,-x,z
x,-y,-z
-x,y,-z
y,x,-z
-y,-x,-z
-x,-y,-z
y,-x,-z
x,y,-z
-y,x,-z
-x,y,z
x,-y,z
-y,-x,z
y,x,z
loop_
_atom_site_type_symbol
_atom_site_label
_atom_site_fract_x
_atom_site_fract_y
_atom_site_fract_z
Si Si1 0.800265 0.084852 0.597842
Si Si2 0.838914 0.349039 0.637681
Si Si3 0.850998 0.412030 0.188400
Si Si4 0.581754 0.000000 0.596844
Si Si5 0.591148 0.000000 0.905136
Si Si6 0.723008 0.593032 0.500000
Si Si7 0.299874 0.417564 0.902679
O O1 0.793968 0.082147 0.500000
O O2 0.881071 0.118930 0.618327
O O3 0.738105 0.143964 0.625741
O O4 0.788417 0.000000 0.627845
O O5 0.825729 0.369793 0.730800
O O6 0.775455 0.382379 0.577402
O O7 0.921413 0.382065 0.618803
O O8 0.860371 0.500000 0.209225
O O9 0.784646 0.406129 0.123991
O O10 0.927080 0.385462 0.145788
O O11 0.500000 0.000000 0.634988
O O12 0.577874 0.000000 0.500000
O O13 0.500000 0.000000 0.907283
O O14 0.615185 0.000000 0.000000
O O15 0.712179 0.500000 0.500000
O O16 0.646969 0.646969 0.500000
O O17 0.323768 0.500000 0.874251
O O18 0.354238 0.354238 0.870039
O O19 0.303536 0.417039 0.000000
#
# Coordination Sequence:
#
# PCOD9562003 Si02
#       7
#    16  16  16   8   8   8  16
#     4  10  20  35  53  75 104 140 178 216 261 314
#     4  12  21  35  53  81 108 139 180 227 278 329
#     4  10  20  32  50  75 105 136 172 215 259 318
#     4  11  19  29  49  75 106 133 162 207 263 321
#     4   9  17  31  51  76 107 142 172 199 248 323
#     4  12  26  42  59  77 104 148 198 248 297 340
#     4   9  18  33  52  74 100 130 166 211 265 322
#
# _framework density 16.714731
#
# number of rings (size 3 to 8) (size 9 to 14) (size 15 to 20)
#    0.000    1.636    2.727    3.273    0.000    4.818 
#    0.000    1.818    0.000    0.000    0.000    2.545 
#    0.000    0.000    0.000    0.000    0.000    0.909 
#
# Total GULP energy -490159.344783 kJ/mol
# GULP energy per Si atom -5569.992554 kJ/mol
# Density = 1.667669 g / cm^3
# Si number density = 16.714731 Si / 1000 Ang^3
#
#
#
# Elastic Constant Matrix: (Units=GPa)
#
#
# Indices 1 2 3 4 5 6 
#
# 1 83.1089 60.7253 17.3794 0.0000 0.0000 0.0000
# 2 60.7253 83.1089 17.3794 0.0000 0.0000 0.0000
# 3 17.3794 17.3794 52.5383 0.0000 0.0000 0.0000
# 4 0.0000 0.0000 0.0000 17.9488 0.0000 0.0000
# 5 0.0000 0.0000 0.0000 0.0000 17.9488 0.0000
# 6 0.0000 0.0000 0.0000 0.0000 0.0000 16.4992
#
#
#
# Elastic Compliance Matrix: (Units=1/GPa)
#
#
# Indices 1 2 3 4 5 6 
#
# 1 0.026116 -0.018559 -0.002500 0.000000 0.000000 0.000000
# 2 -0.018559 0.026116 -0.002500 0.000000 0.000000 0.000000
# 3 -0.002500 -0.002500 0.020687 0.000000 0.000000 0.000000
# 4 0.000000 0.000000 0.000000 0.055714 0.000000 0.000000
# 5 0.000000 0.000000 0.000000 0.000000 0.055714 0.000000
# 6 0.000000 0.000000 0.000000 0.000000 0.000000 0.060609
#
#
# Mechanical properties :
#
#
# Convention : Reuss Voigt Hill
#
# Bulk Modulus (GPa) = 38.75688 45.52493 42.14090
# Shear Modulus (GPa) = 16.62926 18.69750 17.66338
#
# Velocity S-wave (km/s) = 3.15760 3.34821 3.25430
# Velocity P-wave (km/s) = 6.04413 6.49945 6.27592
#
# Compressibility (1/GPa) = 0.02580187
#
# Stress axis : x y z
#
# Youngs Moduli (GPa) = 38.29068 38.29068 48.33845
#
# Poissons Ratio (x) = 0.71066 0.12083
# Poissons Ratio (y) = 0.71066 0.12083
# Poissons Ratio (z) = 0.09571 0.09571
#
# Static dielectric constant tensor:
#      x y z
#    x 1.518670 0.000000 0.000000 
#    y 0.000000 1.518670 0.000000 
#    z 0.000000 0.000000 1.475450 
# 
# From -- ./inp_files/4164.got.cif
#   From: 2010.05.17/outbox.cif.g08.bks.cpg/sg123_3_cif.got.tgz:4164.got - 2010.05.20 11:43:04.
