data_PCOD9562168
_publ_section_title
;
Structure prediction by ZEFSAII (Michael W. Deem and Ramdas Pophale) SiO2 
 PCOD9562168
Probable space group: P 4/M M M
;
_chemical_formula_sum "Si O2"
_cell_formula_units_Z 72
_cell_length_a 13.629234
_cell_length_b 13.629234
_cell_length_c 23.407541
_cell_angle_alpha 90.000000
_cell_angle_beta 90.000000
_cell_angle_gamma 90.000000
_cell_volume 4348.091641
_symmetry_space_group_name_H-M "P 4/M M M"
_symmetry_group_IT_number 123
_symmetry_cell_setting 'tetragonal'
loop_
_space_group_symop_operation_xyz
x,y,z
-y,x,z
-x,-y,z
y,-x,z
x,-y,-z
-x,y,-z
y,x,-z
-y,-x,-z
-x,-y,-z
y,-x,-z
x,y,-z
-y,x,-z
-x,y,z
x,-y,z
-y,-x,z
y,x,z
loop_
_atom_site_type_symbol
_atom_site_label
_atom_site_fract_x
_atom_site_fract_y
_atom_site_fract_z
Si Si1 0.615804 0.778178 0.707762
Si Si2 0.116277 0.279312 0.606152
Si Si3 0.776209 0.613370 0.160311
Si Si4 0.886322 0.722521 0.064580
Si Si5 0.616965 0.779680 0.500000
O O1 0.500000 0.766248 0.696147
O O2 0.676464 0.676464 0.700609
O O3 0.665359 0.854488 0.664612
O O4 0.627526 0.809254 0.773964
O O5 0.177388 0.177388 0.604404
O O6 0.159790 0.345825 0.555064
O O7 0.000000 0.266092 0.600761
O O8 0.751821 0.500000 0.153045
O O9 0.681231 0.681231 0.151989
O O10 0.854423 0.647683 0.113637
O O11 0.817840 0.817840 0.070820
O O12 0.000000 0.747963 0.069917
O O13 0.869960 0.683474 0.000000
O O14 0.500000 0.767339 0.500000
O O15 0.676909 0.676909 0.500000
#
# Coordination Sequence:
#
# PCOD9562168 Si02
#       5
#    16  16  16  16   8
#     4   9  18  32  50  73  99 127 160 197 238 285
#     4  10  21  36  53  74 100 130 166 206 245 287
#     4   9  18  32  49  70  97 127 159 196 236 280
#     4   9  18  32  49  69  93 121 154 194 239 285
#     4  10  21  36  54  78 106 134 165 200 240 288
#
# _framework density 16.558989
#
# number of rings (size 3 to 8) (size 9 to 14) (size 15 to 20)
#    0.000    2.667    0.000    1.000    0.000    5.000 
#    0.000    6.667    0.000    6.000    0.000    9.333 
#    0.000    0.000    0.000    0.000    0.000    0.000 
#
# Total GULP energy -401269.342137 kJ/mol
# GULP energy per Si atom -5573.185307 kJ/mol
# Density = 1.652130 g / cm^3
# Si number density = 16.558989 Si / 1000 Ang^3
#
#
#
# Elastic Constant Matrix: (Units=GPa)
#
#
# Indices 1 2 3 4 5 6 
#
# 1 114.0673 49.7973 60.9218 0.0000 0.0000 0.0000
# 2 49.7973 114.0673 60.9218 0.0000 0.0000 0.0000
# 3 60.9218 60.9218 96.0301 0.0000 0.0000 0.0000
# 4 0.0000 0.0000 0.0000 22.1169 0.0000 0.0000
# 5 0.0000 0.0000 0.0000 0.0000 22.1169 0.0000
# 6 0.0000 0.0000 0.0000 0.0000 0.0000 3.9438
#
#
#
# Elastic Compliance Matrix: (Units=1/GPa)
#
#
# Indices 1 2 3 4 5 6 
#
# 1 0.013556 -0.002004 -0.007328 0.000000 0.000000 0.000000
# 2 -0.002004 0.013556 -0.007328 0.000000 0.000000 0.000000
# 3 -0.007328 -0.007328 0.019712 0.000000 0.000000 0.000000
# 4 0.000000 0.000000 0.000000 0.045214 0.000000 0.000000
# 5 0.000000 0.000000 0.000000 0.000000 0.045214 0.000000
# 6 0.000000 0.000000 0.000000 0.000000 0.000000 0.253561
#
#
# Mechanical properties :
#
#
# Convention : Reuss Voigt Hill
#
# Bulk Modulus (GPa) = 74.06610 74.16071 74.11340
# Shear Modulus (GPa) = 11.66496 19.80381 15.73438
#
# Velocity S-wave (km/s) = 2.65702 3.46201 3.08588
# Velocity P-wave (km/s) = 7.36470 7.80152 7.58625
#
# Compressibility (1/GPa) = 0.01350145
#
# Stress axis : x y z
#
# Youngs Moduli (GPa) = 73.77044 73.77044 50.73100
#
# Poissons Ratio (x) = 0.14782 0.37178
# Poissons Ratio (y) = 0.14782 0.37178
# Poissons Ratio (z) = 0.54063 0.54063
#
# Static dielectric constant tensor:
#      x y z
#    x 1.527790 0.000000 0.000000 
#    y 0.000000 1.527790 0.000000 
#    z 0.000000 0.000000 1.581990 
# 
# From -- ./inp_files/7845.got.cif
#   From: 2010.05.17/outbox.cif.g08.bks.cpg/sg123_4_cif.got.tgz:7845.got - 2010.05.20 11:43:04.
