data_PCOD9562841
_publ_section_title
;
Structure prediction by ZEFSAII (Michael W. Deem and Ramdas Pophale) SiO2 
 PCOD9562841
Probable space group: P 4/M C C
;
_chemical_formula_sum "Si O2"
_cell_formula_units_Z 56
_cell_length_a 10.051317
_cell_length_b 10.051317
_cell_length_c 21.052342
_cell_angle_alpha 90.000000
_cell_angle_beta 90.000000
_cell_angle_gamma 90.000000
_cell_volume 2126.896501
_symmetry_space_group_name_H-M "P 4/M C C"
_symmetry_group_IT_number 124
_symmetry_cell_setting 'tetragonal'
loop_
_space_group_symop_operation_xyz
x,y,z
-y,x,z
-x,-y,z
y,-x,z
x,-y,1/2-z
-x,y,1/2-z
y,x,1/2-z
-y,-x,1/2-z
-x,-y,-z
y,-x,-z
x,y,-z
-y,x,-z
-x,y,1/2+z
x,-y,1/2+z
-y,-x,1/2+z
y,x,1/2+z
loop_
_atom_site_type_symbol
_atom_site_label
_atom_site_fract_x
_atom_site_fract_y
_atom_site_fract_z
Si Si1 0.226454 0.013152 0.500000
Si Si2 0.775253 0.009893 0.135188
Si Si3 0.709638 0.578789 0.429334
Si Si4 0.830936 0.365804 0.788979
O O1 0.295905 0.022113 0.432613
O O2 0.132272 0.882852 0.500000
O O3 0.674149 0.981977 0.190541
O O4 0.870469 0.879371 0.139130
O O5 0.574810 0.665598 0.429401
O O6 0.774148 0.602188 0.500000
O O7 0.775203 0.609865 0.361419
O O8 0.813583 0.500000 0.750000
O O9 0.746611 0.253390 0.750000
#
# Coordination Sequence:
#
# PCOD9562841 Si02
#       4
#     8  16  16  16
#     4   7  12  30  64  98 122 155 216 277 315 373
#     4   9  20  41  67  95 128 173 226 270 323 393
#     4   9  18  35  61  88 119 170 229 273 324 404
#     4  12  24  38  61  93 134 175 211 270 336 397
#
# _framework density 26.329445
#
# number of rings (size 3 to 8) (size 9 to 14) (size 15 to 20)
#    0.000    2.429    2.857    2.571    2.000    1.429 
#    0.000    4.286    0.000    0.000    0.000   10.000 
#    0.000    0.000    0.000    0.000    0.000    0.000 
#
# Total GULP energy -313009.900689 kJ/mol
# GULP energy per Si atom -5589.462512 kJ/mol
# Density = 2.626952 g / cm^3
# Si number density = 26.329445 Si / 1000 Ang^3
#
#
#
# Elastic Constant Matrix: (Units=GPa)
#
#
# Indices 1 2 3 4 5 6 
#
# 1 53.7841 22.5709 30.8204 0.0000 0.0000 0.0000
# 2 22.5709 53.7833 30.8196 0.0000 0.0000 0.0000
# 3 30.8204 30.8196 248.8607 0.0000 0.0000 0.0000
# 4 0.0000 0.0000 0.0000 39.3448 0.0000 0.0000
# 5 0.0000 0.0000 0.0000 0.0000 39.3452 0.0000
# 6 0.0000 0.0000 0.0000 0.0000 0.0000 33.6985
#
#
#
# Elastic Compliance Matrix: (Units=1/GPa)
#
#
# Indices 1 2 3 4 5 6 
#
# 1 0.023295 -0.008743 -0.001802 0.000000 0.000000 0.000000
# 2 -0.008743 0.023295 -0.001802 0.000000 0.000000 0.000000
# 3 -0.001802 -0.001802 0.004465 0.000000 0.000000 0.000000
# 4 0.000000 0.000000 0.000000 0.025416 0.000000 0.000000
# 5 0.000000 0.000000 0.000000 0.000000 0.025416 0.000000
# 6 0.000000 0.000000 0.000000 0.000000 0.000000 0.029675
#
#
# Mechanical properties :
#
#
# Convention : Reuss Voigt Hill
#
# Bulk Modulus (GPa) = 37.93717 58.31667 48.12692
# Shear Modulus (GPa) = 30.29507 40.62550 35.46028
#
# Velocity S-wave (km/s) = 3.39575 3.93233 3.67385
# Velocity P-wave (km/s) = 5.46029 6.54328 6.02616
#
# Compressibility (1/GPa) = 0.02635937
#
# Stress axis : x y z
#
# Youngs Moduli (GPa) = 42.92815 42.92757 223.98012
#
# Poissons Ratio (x) = 0.37533 0.40365
# Poissons Ratio (y) = 0.37533 0.40364
# Poissons Ratio (z) = 0.07736 0.07736
#
# Static dielectric constant tensor:
#      x y z
#    x 2.064890 0.000000 0.000000 
#    y 0.000000 2.064890 0.000000 
#    z 0.000000 0.000000 2.138660 
# 
# From -- ./inp_files/4832.got.cif
#   From: 2010.05.17/outbox.cif.g08.bks.cpg/sg124_3_cif.got.tgz:4832.got - 2010.05.20 11:49:17.
