data_PCOD9562661
_publ_section_title
;
Structure prediction by ZEFSAII (Michael W. Deem and Ramdas Pophale) SiO2 
 PCOD9562661
Probable space group: P 4/M C C
;
_chemical_formula_sum "Si O2"
_cell_formula_units_Z 72
_cell_length_a 14.642958
_cell_length_b 14.642958
_cell_length_c 14.249497
_cell_angle_alpha 90.000000
_cell_angle_beta 90.000000
_cell_angle_gamma 90.000000
_cell_volume 3055.323269
_symmetry_space_group_name_H-M "P 4/M C C"
_symmetry_group_IT_number 124
_symmetry_cell_setting 'tetragonal'
loop_
_space_group_symop_operation_xyz
x,y,z
-y,x,z
-x,-y,z
y,-x,z
x,-y,1/2-z
-x,y,1/2-z
y,x,1/2-z
-y,-x,1/2-z
-x,-y,-z
y,-x,-z
x,y,-z
-y,x,-z
-x,y,1/2+z
x,-y,1/2+z
-y,-x,1/2+z
y,x,1/2+z
loop_
_atom_site_type_symbol
_atom_site_label
_atom_site_fract_x
_atom_site_fract_y
_atom_site_fract_z
Si Si1 0.023696 0.144976 0.385620
Si Si2 0.857762 0.300214 0.113766
Si Si3 0.757808 0.336380 0.387778
Si Si4 0.393059 0.393059 0.750000
Si Si5 0.893806 0.503082 0.886061
O O1 0.021718 0.146529 0.500000
O O2 0.052330 0.245746 0.354686
O O3 0.928138 0.101171 0.357328
O O4 0.770638 0.236914 0.136632
O O5 0.851518 0.405494 0.144091
O O6 0.861144 0.304652 0.000000
O O7 0.752861 0.342914 0.500000
O O8 0.661767 0.360447 0.340604
O O9 0.835706 0.407913 0.356693
O O10 0.500000 0.376352 0.750000
O O11 0.000000 0.500000 0.858088
O O12 0.892956 0.505586 0.000000
#
# Coordination Sequence:
#
# PCOD9562661 Si02
#       5
#    16  16  16   8  16
#     4   8  14  23  38  67 107 144 184 236 287 347
#     4   9  17  28  48  75 108 152 194 239 300 360
#     4  10  21  38  60  87 123 162 202 255 313 378
#     4  11  24  40  62  88 116 157 206 258 314 373
#     4   9  18  31  51  83 120 157 204 259 317 384
#
# _framework density 23.565425999999999
#
# number of rings (size 3 to 8) (size 9 to 14) (size 15 to 20)
#    0.000    2.778    0.000    2.000    3.111    2.667 
#    0.000    1.111    0.000    6.000    0.000    0.000 
#    0.000    1.778    0.000    0.222    0.000    0.000 
#
# Total GULP energy -401947.938331 kJ/mol
# GULP energy per Si atom -5582.610255 kJ/mol
# Density = 2.351179 g / cm^3
# Si number density = 23.565426 Si / 1000 Ang^3
#
#
#
# Elastic Constant Matrix: (Units=GPa)
#
#
# Indices 1 2 3 4 5 6 
#
# 1 119.3580 47.6537 16.0694 0.0000 0.0000 0.0000
# 2 47.6537 119.3580 16.0694 0.0000 0.0000 0.0000
# 3 16.0694 16.0694 101.4582 0.0000 0.0000 0.0000
# 4 0.0000 0.0000 0.0000 -16.7768 0.0000 0.0000
# 5 0.0000 0.0000 0.0000 0.0000 -16.7768 0.0000
# 6 0.0000 0.0000 0.0000 0.0000 0.0000 40.3305
#
#
#
# Elastic Compliance Matrix: (Units=1/GPa)
#
#
# Indices 1 2 3 4 5 6 
#
# 1 0.010061 -0.003885 -0.000978 0.000000 0.000000 0.000000
# 2 -0.003885 0.010061 -0.000978 0.000000 0.000000 0.000000
# 3 -0.000978 -0.000978 0.010166 0.000000 0.000000 0.000000
# 4 0.000000 0.000000 0.000000 -0.059606 0.000000 0.000000
# 5 0.000000 0.000000 0.000000 0.000000 -0.059606 0.000000
# 6 0.000000 0.000000 0.000000 0.000000 0.000000 0.024795
#
#
# Mechanical properties :
#
#
# Convention : Reuss Voigt Hill
#
# Bulk Modulus (GPa) = 53.74852 55.52881 54.63867
# Shear Modulus (GPa) = -108.12127 18.71416 -44.70356
#
# Velocity S-wave (km/s) = -6.78092 2.82110 -4.36018
# Velocity P-wave (km/s) = 6.20082 5.85033 1.45325
#
# Compressibility (1/GPa) = 0.01860516
#
# Stress axis : x y z
#
# Youngs Moduli (GPa) = 99.39372 99.39372 98.36590
#
# Poissons Ratio (x) = 0.38616 0.09622
# Poissons Ratio (y) = 0.38616 0.09622
# Poissons Ratio (z) = 0.09722 0.09722
#
# Static dielectric constant tensor:
#      x y z
#    x 1.823980 0.000000 0.000000 
#    y 0.000000 1.823980 0.000000 
#    z 0.000000 0.000000 1.905130 
# 
# From -- ./inp_files/4065.got.cif
#   From: 2010.05.17/outbox.cif.g08.bks.cpg/sg124_3_cif.got.tgz:4065.got - 2010.05.20 11:49:17.
