data_PCOD9562279
_publ_section_title
;
Structure prediction by ZEFSAII (Michael W. Deem and Ramdas Pophale) SiO2 
 PCOD9562279
Probable space group: P 4/M M M
;
_chemical_formula_sum "Si O2"
_cell_formula_units_Z 56
_cell_length_a 20.266273
_cell_length_b 20.266273
_cell_length_c 7.772894
_cell_angle_alpha 90.000000
_cell_angle_beta 90.000000
_cell_angle_gamma 90.000000
_cell_volume 3192.497181
_symmetry_space_group_name_H-M "P 4/M M M"
_symmetry_group_IT_number 123
_symmetry_cell_setting 'tetragonal'
loop_
_space_group_symop_operation_xyz
x,y,z
-y,x,z
-x,-y,z
y,-x,z
x,-y,-z
-x,y,-z
y,x,-z
-y,-x,-z
-x,-y,-z
y,-x,-z
x,y,-z
-y,x,-z
-x,y,z
x,-y,z
-y,-x,z
y,x,z
loop_
_atom_site_type_symbol
_atom_site_label
_atom_site_fract_x
_atom_site_fract_y
_atom_site_fract_z
Si Si1 0.574049 0.854368 0.701446
Si Si2 0.818065 0.924750 0.792746
Si Si3 0.579417 0.000000 0.192939
Si Si4 0.182458 0.712096 0.292277
O O1 0.569172 0.837982 0.500000
O O2 0.500000 0.845836 0.776223
O O3 0.637383 0.817121 0.775916
O O4 0.593989 0.931489 0.715593
O O5 0.879381 0.879381 0.730567
O O6 0.751838 0.884468 0.749270
O O7 0.818545 0.000000 0.728642
O O8 0.822512 0.927223 0.000000
O O9 0.500000 0.000000 0.180253
O O10 0.607637 0.000000 0.000000
O O11 0.186572 0.708933 0.500000
O O12 0.242187 0.757814 0.228695
#
# Coordination Sequence:
#
# PCOD9562279 Si02
#       4
#    16  16   8  16
#     4   9  17  29  44  61  82 108 137 168 203 243
#     4   9  18  31  45  61  80 104 136 173 212 251
#     4   9  17  27  39  59  85 109 134 165 200 237
#     4   9  18  31  45  61  82 108 137 169 205 246
#
# _framework density 17.541126999999999
#
# number of rings (size 3 to 8) (size 9 to 14) (size 15 to 20)
#    0.000    3.000    0.000    0.429    2.000    3.714 
#    0.000    1.429    0.000    0.000    0.000    4.000 
#    0.000    0.571    0.000    8.000    0.000    0.000 
#
# Total GULP energy -311838.440617 kJ/mol
# GULP energy per Si atom -5568.543582 kJ/mol
# Density = 1.750120 g / cm^3
# Si number density = 17.541127 Si / 1000 Ang^3
#
#
#
# Elastic Constant Matrix: (Units=GPa)
#
#
# Indices 1 2 3 4 5 6 
#
# 1 133.0145 62.6679 2.7412 0.0000 0.0000 0.0000
# 2 62.6679 133.0145 2.7412 0.0000 0.0000 0.0000
# 3 2.7412 2.7412 26.1249 0.0000 0.0000 0.0000
# 4 0.0000 0.0000 0.0000 5.6479 0.0000 0.0000
# 5 0.0000 0.0000 0.0000 0.0000 5.6479 0.0000
# 6 0.0000 0.0000 0.0000 0.0000 0.0000 -0.3036
#
#
#
# Elastic Compliance Matrix: (Units=1/GPa)
#
#
# Indices 1 2 3 4 5 6 
#
# 1 0.009670 -0.004545 -0.000538 0.000000 0.000000 0.000000
# 2 -0.004545 0.009670 -0.000538 0.000000 0.000000 0.000000
# 3 -0.000538 -0.000538 0.038390 0.000000 0.000000 0.000000
# 4 0.000000 0.000000 0.000000 0.177058 0.000000 0.000000
# 5 0.000000 0.000000 0.000000 0.000000 0.177058 0.000000
# 6 0.000000 0.000000 0.000000 0.000000 0.000000 -3.294187
#
#
# Mechanical properties :
#
#
# Convention : Reuss Voigt Hill
#
# Bulk Modulus (GPa) = 21.50996 47.60604 34.55800
# Shear Modulus (GPa) = -1.75094 17.13202 7.69054
#
# Velocity S-wave (km/s) = -1.00018 3.12857 2.09614
# Velocity P-wave (km/s) = 3.30989 6.34423 5.05987
#
# Compressibility (1/GPa) = 0.04649010
#
# Stress axis : x y z
#
# Youngs Moduli (GPa) = 103.40880 103.40880 26.04815
#
# Poissons Ratio (x) = 0.46999 0.01401
# Poissons Ratio (y) = 0.46999 0.01401
# Poissons Ratio (z) = 0.05561 0.05561
#
# Static dielectric constant tensor:
#      x y z
#    x 1.621500 0.000000 0.000000 
#    y 0.000000 1.621500 0.000000 
#    z 0.000000 0.000000 1.648670 
# 
# From -- ./inp_files/737.got.cif
#   From: 2010.05.17/outbox.cif.g08.bks.cpg/sg123_1_cif.got.tgz:737.got - 2010.05.20 11:43:04.
