data_PCOD9562379
_publ_section_title
;
Structure prediction by ZEFSAII (Michael W. Deem and Ramdas Pophale) SiO2 
 PCOD9562379
Probable space group: P 4/M C C
;
_chemical_formula_sum "Si O2"
_cell_formula_units_Z 96
_cell_length_a 25.138654
_cell_length_b 25.138654
_cell_length_c 9.314523
_cell_angle_alpha 90.000000
_cell_angle_beta 90.000000
_cell_angle_gamma 90.000000
_cell_volume 5886.330740
_symmetry_space_group_name_H-M "P 4/M C C"
_symmetry_group_IT_number 124
_symmetry_cell_setting 'tetragonal'
loop_
_space_group_symop_operation_xyz
x,y,z
-y,x,z
-x,-y,z
y,-x,z
x,-y,1/2-z
-x,y,1/2-z
y,x,1/2-z
-y,-x,1/2-z
-x,-y,-z
y,-x,-z
x,y,-z
-y,x,-z
-x,y,1/2+z
x,-y,1/2+z
-y,-x,1/2+z
y,x,1/2+z
loop_
_atom_site_type_symbol
_atom_site_label
_atom_site_fract_x
_atom_site_fract_y
_atom_site_fract_z
Si Si1 0.338122 0.740322 0.669114
Si Si2 0.552557 0.747712 0.665146
Si Si3 0.251290 0.051988 0.164238
Si Si4 0.948261 0.123092 0.836048
Si Si5 0.752635 0.170223 0.331200
Si Si6 0.620010 0.449191 0.338041
O O1 0.308259 0.691742 0.750000
O O2 0.346484 0.727594 0.500000
O O3 0.393096 0.755811 0.746425
O O4 0.297039 0.789627 0.678595
O O5 0.500000 0.767094 0.750000
O O6 0.555175 0.767225 0.500000
O O7 0.547650 0.683565 0.656721
O O8 0.186912 0.050111 0.162303
O O9 0.262637 0.111275 0.222777
O O10 0.269887 0.000000 0.250000
O O11 0.270431 0.048759 0.000000
O O12 0.897700 0.102301 0.750000
O O13 0.000000 0.103821 0.750000
O O14 0.947730 0.104303 0.000000
O O15 0.801296 0.198705 0.250000
O O16 0.766841 0.164404 0.500000
O O17 0.599910 0.500000 0.250000
O O18 0.601810 0.398191 0.250000
O O19 0.599542 0.447748 0.500000
#
# Coordination Sequence:
#
# PCOD9562379 Si02
#       6
#    16  16  16  16  16  16
#     4  10  19  31  48  70  97 127 158 193 233 277
#     4  10  20  33  49  68  91 119 151 187 227 273
#     4   9  18  31  46  65  89 117 149 185 225 270
#     4  10  19  30  43  58  77 103 138 179 222 265
#     4   9  18  31  47  69  96 125 157 193 233 277
#     4  10  20  32  45  60  79 105 139 179 220 260
#
# _framework density 16.308972000000001
#
# number of rings (size 3 to 8) (size 9 to 14) (size 15 to 20)
#    0.000    2.333    0.000    3.000    0.000    5.667 
#    0.000    1.667    0.000    0.000    0.000    0.000 
#    0.000    0.667    0.000    7.667    0.000    2.333 
#
# Total GULP energy -535128.386738 kJ/mol
# GULP energy per Si atom -5574.254029 kJ/mol
# Density = 1.627185 g / cm^3
# Si number density = 16.308972 Si / 1000 Ang^3
#
#
#
# Elastic Constant Matrix: (Units=GPa)
#
#
# Indices 1 2 3 4 5 6 
#
# 1 70.3786 6.4560 36.5465 0.0000 0.0000 0.0000
# 2 6.4560 70.3786 36.5476 0.0000 0.0000 0.0000
# 3 36.5465 36.5476 118.0747 0.0000 0.0000 0.0000
# 4 0.0000 0.0000 0.0000 16.1132 0.0000 0.0000
# 5 0.0000 0.0000 0.0000 0.0000 16.1138 0.0000
# 6 0.0000 0.0000 0.0000 0.0000 0.0000 14.6691
#
#
#
# Elastic Compliance Matrix: (Units=1/GPa)
#
#
# Indices 1 2 3 4 5 6 
#
# 1 0.017045 0.001401 -0.005710 0.000000 0.000000 0.000000
# 2 0.001401 0.017045 -0.005710 0.000000 0.000000 0.000000
# 3 -0.005710 -0.005710 0.012004 0.000000 0.000000 0.000000
# 4 0.000000 0.000000 0.000000 0.062061 0.000000 0.000000
# 5 0.000000 0.000000 0.000000 0.000000 0.062059 0.000000
# 6 0.000000 0.000000 0.000000 0.000000 0.000000 0.068171
#
#
# Mechanical properties :
#
#
# Convention : Reuss Voigt Hill
#
# Bulk Modulus (GPa) = 38.37534 46.43690 42.40612
# Shear Modulus (GPa) = 18.71910 21.33133 20.02522
#
# Velocity S-wave (km/s) = 3.39156 3.62048 3.50789
# Velocity P-wave (km/s) = 6.23845 6.78323 6.51654
#
# Compressibility (1/GPa) = 0.02605840
#
# Stress axis : x y z
#
# Youngs Moduli (GPa) = 58.66740 58.66681 83.30680
#
# Poissons Ratio (x) = -0.08222 0.47565
# Poissons Ratio (y) = -0.08222 0.47567
# Poissons Ratio (z) = 0.33497 0.33498
#
# Static dielectric constant tensor:
#      x y z
#    x 1.557460 0.000000 0.000000 
#    y 0.000000 1.557460 0.000000 
#    z 0.000000 0.000000 1.573380 
# 
# From -- ./inp_files/1399.got.cif
#   From: 2010.05.17/outbox.cif.g08.bks.cpg/sg124_1_cif.got.tgz:1399.got - 2010.05.20 11:49:17.
