data_PCOD9562374
_publ_section_title
;
Structure prediction by ZEFSAII (Michael W. Deem and Ramdas Pophale) SiO2 
 PCOD9562374
Probable space group: P 4/M C C
;
_chemical_formula_sum "Si O2"
_cell_formula_units_Z 88
_cell_length_a 14.453708
_cell_length_b 14.453708
_cell_length_c 25.078522
_cell_angle_alpha 90.000000
_cell_angle_beta 90.000000
_cell_angle_gamma 90.000000
_cell_volume 5239.145879
_symmetry_space_group_name_H-M "P 4/M C C"
_symmetry_group_IT_number 124
_symmetry_cell_setting 'tetragonal'
loop_
_space_group_symop_operation_xyz
x,y,z
-y,x,z
-x,-y,z
y,-x,z
x,-y,1/2-z
-x,y,1/2-z
y,x,1/2-z
-y,-x,1/2-z
-x,-y,-z
y,-x,-z
x,y,-z
-y,x,-z
-x,y,1/2+z
x,-y,1/2+z
-y,-x,1/2+z
y,x,1/2+z
loop_
_atom_site_type_symbol
_atom_site_label
_atom_site_fract_x
_atom_site_fract_y
_atom_site_fract_z
Si Si1 0.343288 0.749889 0.598268
Si Si2 0.305147 0.148052 0.435687
Si Si3 0.578567 0.367109 0.500000
Si Si4 0.511302 0.890238 0.063970
Si Si5 0.975180 0.147035 0.564772
Si Si6 0.599737 0.384477 0.313275
O O1 0.236212 0.753469 0.582675
O O2 0.388922 0.685721 0.552482
O O3 0.403205 0.843238 0.594326
O O4 0.350880 0.694564 0.653369
O O5 0.307704 0.148246 0.500000
O O6 0.412289 0.152874 0.419068
O O7 0.249124 0.056392 0.418478
O O8 0.622449 0.468659 0.500000
O O9 0.500000 0.000000 0.071522
O O10 0.524825 0.874915 0.000000
O O11 0.977400 0.147716 0.500000
O O12 0.072657 0.103384 0.581328
O O13 0.625251 0.490492 0.326765
O O14 0.618718 0.381283 0.250000
#
# Coordination Sequence:
#
# PCOD9562374 Si02
#       6
#    16  16   8  16  16  16
#     4  12  20  31  48  68 100 135 170 206 249 312
#     4  10  19  29  45  65  94 131 168 201 245 306
#     4  11  20  28  43  66  98 131 167 204 244 294
#     4  10  21  33  44  66 104 142 174 213 259 313
#     4   8  15  27  43  61  85 118 162 207 245 284
#     4   9  18  32  50  72  96 123 162 211 256 297
#
# _framework density 16.796631000000001
#
# number of rings (size 3 to 8) (size 9 to 14) (size 15 to 20)
#    0.000    2.091    1.818    4.364    2.545    1.455 
#    0.000    0.000    0.000    0.000    0.000   10.182 
#    0.000    0.000    0.000    2.000    0.000    0.182 
#
# Total GULP energy -490510.834410 kJ/mol
# GULP energy per Si atom -5573.986755 kJ/mol
# Density = 1.675840 g / cm^3
# Si number density = 16.796631 Si / 1000 Ang^3
#
#
#
# Elastic Constant Matrix: (Units=GPa)
#
#
# Indices 1 2 3 4 5 6 
#
# 1 -155.6739 227.8214 6.8696 0.0000 0.0000 0.0000
# 2 227.8214 -155.6721 6.8692 0.0000 0.0000 0.0000
# 3 6.8696 6.8692 19.8903 0.0000 0.0000 0.0000
# 4 0.0000 0.0000 0.0000 9.3348 0.0000 0.0000
# 5 0.0000 0.0000 0.0000 0.0000 9.3348 0.0000
# 6 0.0000 0.0000 0.0000 0.0000 0.0000 -61.6358
#
#
#
# Elastic Compliance Matrix: (Units=1/GPa)
#
#
# Indices 1 2 3 4 5 6 
#
# 1 0.006114 0.008722 -0.005124 0.000000 0.000000 0.000000
# 2 0.008722 0.006114 -0.005124 0.000000 0.000000 0.000000
# 3 -0.005124 -0.005124 0.053815 0.000000 0.000000 0.000000
# 4 0.000000 0.000000 0.000000 0.107126 0.000000 0.000000
# 5 0.000000 0.000000 0.000000 0.000000 0.107126 0.000000
# 6 0.000000 0.000000 0.000000 0.000000 0.000000 -0.016224
#
#
# Mechanical properties :
#
#
# Convention : Reuss Voigt Hill
#
# Bulk Modulus (GPa) = 15.87510 21.29608 18.58559
# Shear Modulus (GPa) = 17.35387 -44.12764 -13.38688
#
# Velocity S-wave (km/s) = 3.21779 -5.13116 -2.82618
# Velocity P-wave (km/s) = 4.82467 4.73273 0.66286
#
# Compressibility (1/GPa) = 0.06299171
#
# Stress axis : x y z
#
# Youngs Moduli (GPa) = 163.55434 163.55213 18.58215
#
# Poissons Ratio (x) = -1.42647 0.09521
# Poissons Ratio (y) = -1.42649 0.09521
# Poissons Ratio (z) = 0.83802 0.83803
#
# Static dielectric constant tensor:
#      x y z
#    x 1.608570 0.000000 0.000000 
#    y 0.000000 1.608570 0.000000 
#    z 0.000000 0.000000 1.529360 
# 
# From -- ./inp_files/5191.got.cif
#   From: 2010.05.17/outbox.cif.g08.bks.cpg/sg124_3_cif.got.tgz:5191.got - 2010.05.20 11:49:17.
