data_PCOD9562994
_publ_section_title
;
Structure prediction by ZEFSAII (Michael W. Deem and Ramdas Pophale) SiO2 
 PCOD9562994
Probable space group: P 4/N B M
;
_chemical_formula_sum "Si O2"
_cell_formula_units_Z 128
_cell_length_a 24.071919
_cell_length_b 24.071919
_cell_length_c 11.599848
_cell_angle_alpha 90.000000
_cell_angle_beta 90.000000
_cell_angle_gamma 90.000000
_cell_volume 6721.616421
_symmetry_space_group_name_H-M "P 4/N B M"
_symmetry_group_IT_number 125
_space_group.IT_coordinate_system_code '2'
_symmetry_cell_setting 'tetragonal'
loop_
_space_group_symop_operation_xyz
x,y,z
1/2-y,x,z
1/2-x,1/2-y,z
y,1/2-x,z
x,1/2-y,-z
1/2-x,y,-z
y,x,-z
1/2-y,1/2-x,-z
-x,-y,-z
1/2+y,-x,-z
1/2+x,1/2+y,-z
-y,1/2+x,-z
-x,1/2+y,z
1/2+x,-y,z
-y,-x,z
1/2+y,1/2+x,z
loop_
_atom_site_type_symbol
_atom_site_label
_atom_site_fract_x
_atom_site_fract_y
_atom_site_fract_z
Si Si1 0.085528 0.004821 0.068812
Si Si2 0.551690 0.190532 0.009299
Si Si3 0.104136 0.985375 0.423305
Si Si4 0.105833 0.981873 0.698469
Si Si5 0.091462 0.682287 0.727228
Si Si6 0.106179 0.088362 0.270412
Si Si7 0.305021 0.607984 0.775059
Si Si8 0.813345 0.818071 0.637874
O O1 0.113083 0.043519 0.167136
O O2 0.043979 0.043979 0.000000
O O3 0.048089 0.951912 0.110466
O O4 0.134680 0.982568 0.987305
O O5 0.599505 0.198580 0.913694
O O6 0.520496 0.250000 0.000000
O O7 0.571933 0.179581 0.139356
O O8 0.046975 0.953026 0.391865
O O9 0.108840 0.982599 0.559965
O O10 0.153222 0.952419 0.357668
O O11 0.104848 0.048204 0.381303
O O12 0.047281 0.952720 0.732927
O O13 0.153958 0.941052 0.738340
O O14 0.111674 0.044084 0.742539
O O15 0.147549 0.647549 0.715069
O O16 0.100602 0.747265 0.710773
O O17 0.150189 0.137476 0.291036
O O18 0.334233 0.665768 0.748888
O O19 0.747264 0.826130 0.660747
O O20 0.824521 0.824521 0.500000
#
# Coordination Sequence:
#
# PCOD9562994 Si02
#       8
#    16  16  16  16  16  16  16  16
#     4  11  22  37  58  86 120 154 188 233 292 357
#     4  10  20  37  58  79 109 150 192 235 287 341
#     4  10  20  34  53  79 115 150 179 222 284 345
#     4  10  21  35  51  80 118 147 177 224 284 346
#     4  10  20  35  56  79 107 148 192 234 282 338
#     4  12  21  34  60  89 111 143 191 234 278 344
#     4  10  21  36  55  79 110 148 188 238 288 329
#     4   9  20  40  61  81 111 151 192 238 290 337
#
# _framework density 19.043037999999999
#
# number of rings (size 3 to 8) (size 9 to 14) (size 15 to 20)
#    0.000    1.750    1.250    4.500    0.000    4.750 
#    2.250    0.000    0.000    2.250    0.000    4.375 
#    0.000    0.000    0.000    0.000    0.000    0.000 
#
# Total GULP energy -714092.074031 kJ/mol
# GULP energy per Si atom -5578.844328 kJ/mol
# Density = 1.899970 g / cm^3
# Si number density = 19.043038 Si / 1000 Ang^3
#
#
#
# Elastic Constant Matrix: (Units=GPa)
#
#
# Indices 1 2 3 4 5 6 
#
# 1 116.0374 55.9929 14.3682 0.0000 0.0000 0.0000
# 2 55.9929 116.0374 14.3682 0.0000 0.0000 0.0000
# 3 14.3682 14.3682 33.4652 0.0000 0.0000 0.0000
# 4 0.0000 0.0000 0.0000 11.4134 0.0000 0.0000
# 5 0.0000 0.0000 0.0000 0.0000 11.4134 0.0000
# 6 0.0000 0.0000 0.0000 0.0000 0.0000 26.5334
#
#
#
# Elastic Compliance Matrix: (Units=1/GPa)
#
#
# Indices 1 2 3 4 5 6 
#
# 1 0.011458 -0.005196 -0.002689 0.000000 0.000000 0.000000
# 2 -0.005196 0.011458 -0.002689 0.000000 0.000000 0.000000
# 3 -0.002689 -0.002689 0.032190 0.000000 0.000000 0.000000
# 4 0.000000 0.000000 0.000000 0.087616 0.000000 0.000000
# 5 0.000000 0.000000 0.000000 0.000000 0.087616 0.000000
# 6 0.000000 0.000000 0.000000 0.000000 0.000000 0.037688
#
#
# Mechanical properties :
#
#
# Convention : Reuss Voigt Hill
#
# Bulk Modulus (GPa) = 29.44625 48.33318 38.88972
# Shear Modulus (GPa) = 16.63923 21.92610 19.28267
#
# Velocity S-wave (km/s) = 2.95917 3.39691 3.18556
# Velocity P-wave (km/s) = 5.21269 6.38916 5.83068
#
# Compressibility (1/GPa) = 0.03396018
#
# Stress axis : x y z
#
# Youngs Moduli (GPa) = 87.27395 87.27395 31.06513
#
# Poissons Ratio (x) = 0.45349 0.08352
# Poissons Ratio (y) = 0.45349 0.08352
# Poissons Ratio (z) = 0.23464 0.23464
#
# Static dielectric constant tensor:
#      x y z
#    x 1.679190 0.000000 0.000000 
#    y 0.000000 1.679190 0.000000 
#    z 0.000000 0.000000 1.708350 
# 
# From -- ./inp_files/4371.got.cif
#   From: 2010.05.17/outbox.cif.g08.bks.cpg/sg125_3_cif.got.tgz:4371.got - 2010.05.20 11:54:10.
