data_PCOD9562746
_publ_section_title
;
Structure prediction by ZEFSAII (Michael W. Deem and Ramdas Pophale) SiO2 
 PCOD9562746
Probable space group: P 4/M C C
;
_chemical_formula_sum "Si O2"
_cell_formula_units_Z 72
_cell_length_a 9.849106
_cell_length_b 9.849106
_cell_length_c 29.276769
_cell_angle_alpha 90.000000
_cell_angle_beta 90.000000
_cell_angle_gamma 90.000000
_cell_volume 2839.989727
_symmetry_space_group_name_H-M "P 4/M C C"
_symmetry_group_IT_number 124
_symmetry_cell_setting 'tetragonal'
loop_
_space_group_symop_operation_xyz
x,y,z
-y,x,z
-x,-y,z
y,-x,z
x,-y,1/2-z
-x,y,1/2-z
y,x,1/2-z
-y,-x,1/2-z
-x,-y,-z
y,-x,-z
x,y,-z
-y,x,-z
-x,y,1/2+z
x,-y,1/2+z
-y,-x,1/2+z
y,x,1/2+z
loop_
_atom_site_type_symbol
_atom_site_label
_atom_site_fract_x
_atom_site_fract_y
_atom_site_fract_z
Si Si1 0.468406 0.728594 0.000000
Si Si2 0.536020 0.725368 0.400038
Si Si3 0.980849 0.229075 0.049742
Si Si4 0.318119 0.947528 0.851965
Si Si5 0.780577 0.877078 0.787465
O O1 0.353437 0.610524 0.000000
O O2 0.456074 0.794688 0.950420
O O3 0.393061 0.649504 0.397644
O O4 0.576246 0.830838 0.361917
O O5 0.981941 0.299062 0.098813
O O6 0.858837 0.119724 0.049786
O O7 0.971635 0.300634 0.000000
O O8 0.181535 0.876252 0.829066
O O9 0.344017 0.059684 0.814001
O O10 0.760190 0.760190 0.750000
O O11 0.816913 0.000000 0.750000
#
# Coordination Sequence:
#
# PCOD9562746 Si02
#       5
#     8  16  16  16  16
#     4   7  12  28  52  76 102 141 196 242 264 297
#     4   9  19  35  55  79 110 152 200 237 270 321
#     4   9  17  27  42  71 115 151 178 214 264 335
#     4  11  18  31  55  80 108 147 184 228 274 334
#     4   9  20  33  53  82 104 129 172 227 284 341
#
# _framework density 25.352202999999999
#
# number of rings (size 3 to 8) (size 9 to 14) (size 15 to 20)
#    0.000    2.778    2.222    2.000    1.556   10.444 
#    0.000    1.111    0.000   16.000    0.000   21.778 
#    0.000    0.000    0.000    0.000    0.000    0.000 
#
# Total GULP energy -401175.813569 kJ/mol
# GULP energy per Si atom -5571.886300 kJ/mol
# Density = 2.529450 g / cm^3
# Si number density = 25.352203 Si / 1000 Ang^3
#
#
#
# Elastic Constant Matrix: (Units=GPa)
#
#
# Indices 1 2 3 4 5 6 
#
# 1 58.2742 48.4533 67.9186 0.0000 0.0000 0.0000
# 2 48.4533 58.2742 67.9186 0.0000 0.0000 0.0000
# 3 67.9186 67.9186 218.0238 0.0000 0.0000 0.0000
# 4 0.0000 0.0000 0.0000 31.9498 0.0000 0.0000
# 5 0.0000 0.0000 0.0000 0.0000 31.9498 0.0000
# 6 0.0000 0.0000 0.0000 0.0000 0.0000 32.5864
#
#
#
# Elastic Compliance Matrix: (Units=1/GPa)
#
#
# Indices 1 2 3 4 5 6 
#
# 1 0.058674 -0.043149 -0.004836 0.000000 0.000000 0.000000
# 2 -0.043149 0.058674 -0.004836 0.000000 0.000000 0.000000
# 3 -0.004836 -0.004836 0.007600 0.000000 0.000000 0.000000
# 4 0.000000 0.000000 0.000000 0.031299 0.000000 0.000000
# 5 0.000000 0.000000 0.000000 0.000000 0.031299 0.000000
# 6 0.000000 0.000000 0.000000 0.000000 0.000000 0.030688
#
#
# Mechanical properties :
#
#
# Convention : Reuss Voigt Hill
#
# Bulk Modulus (GPa) = 51.80090 78.12814 64.96452
# Shear Modulus (GPa) = 15.13721 29.31598 22.22660
#
# Velocity S-wave (km/s) = 2.44617 3.40420 2.96415
# Velocity P-wave (km/s) = 5.33434 6.80702 6.11517
#
# Compressibility (1/GPa) = 0.01930468
#
# Stress axis : x y z
#
# Youngs Moduli (GPa) = 17.04333 17.04333 131.58052
#
# Poissons Ratio (x) = 0.73540 0.63637
# Poissons Ratio (y) = 0.73540 0.63637
# Poissons Ratio (z) = 0.08243 0.08243
#
# Static dielectric constant tensor:
#      x y z
#    x 2.182870 0.000000 0.000000 
#    y 0.000000 2.182870 0.000000 
#    z 0.000000 0.000000 2.078080 
# 
# From -- ./inp_files/6850.got.cif
#   From: 2010.05.17/outbox.cif.g08.bks.cpg/sg124_4_cif.got.tgz:6850.got - 2010.05.20 11:49:17.
