data_PCOD9562693
_publ_section_title
;
Structure prediction by ZEFSAII (Michael W. Deem and Ramdas Pophale) SiO2 
 PCOD9562693
Probable space group: P 4/M C C
;
_chemical_formula_sum "Si O2"
_cell_formula_units_Z 96
_cell_length_a 14.138172
_cell_length_b 14.138172
_cell_length_c 21.804212
_cell_angle_alpha 90.000000
_cell_angle_beta 90.000000
_cell_angle_gamma 90.000000
_cell_volume 4358.398311
_symmetry_space_group_name_H-M "P 4/M C C"
_symmetry_group_IT_number 124
_symmetry_cell_setting 'tetragonal'
loop_
_space_group_symop_operation_xyz
x,y,z
-y,x,z
-x,-y,z
y,-x,z
x,-y,1/2-z
-x,y,1/2-z
y,x,1/2-z
-y,-x,1/2-z
-x,-y,-z
y,-x,-z
x,y,-z
-y,x,-z
-x,y,1/2+z
x,-y,1/2+z
-y,-x,1/2+z
y,x,1/2+z
loop_
_atom_site_type_symbol
_atom_site_label
_atom_site_fract_x
_atom_site_fract_y
_atom_site_fract_z
Si Si1 0.341629 0.509953 0.314499
Si Si2 0.686677 0.134665 0.380885
Si Si3 0.881235 0.097123 0.573777
Si Si4 0.594195 0.944791 0.636625
Si Si5 0.272266 0.888113 0.245886
Si Si6 0.504358 0.782587 0.931579
O O1 0.404138 0.415235 0.314419
O O2 0.286484 0.500000 0.250000
O O3 0.285194 0.520948 0.376187
O O4 0.795387 0.152820 0.396486
O O5 0.672238 0.142045 0.307826
O O6 0.615071 0.195314 0.420613
O O7 0.659972 0.025378 0.392746
O O8 0.874866 0.102415 0.500000
O O9 0.986512 0.127433 0.591666
O O10 0.655929 0.889377 0.687907
O O11 0.553614 0.877111 0.584294
O O12 0.500000 0.000000 0.662326
O O13 0.181240 0.818761 0.250000
O O14 0.244180 0.000000 0.250000
O O15 0.486367 0.748796 0.000000
#
# Coordination Sequence:
#
# PCOD9562693 Si02
#       6
#    16  16  16  16  16  16
#     4   9  21  44  70  93 122 166 211 253 317 400
#     4  10  22  37  61  88 125 168 209 270 318 390
#     4   9  19  36  58  83 118 170 221 262 317 384
#     4   9  22  42  62  87 127 175 215 258 331 397
#     4  10  23  40  61  93 129 174 225 275 336 397
#     4  11  24  40  65  99 129 163 211 269 330 386
#
# _framework density 22.026440999999998
#
# number of rings (size 3 to 8) (size 9 to 14) (size 15 to 20)
#    0.000    2.333    0.000    1.500    7.000   12.833 
#    0.000    0.833    0.000    0.000    0.000    0.000 
#    0.000    0.000    0.000    0.000    0.000    0.000 
#
# Total GULP energy -535722.206824 kJ/mol
# GULP energy per Si atom -5580.439654 kJ/mol
# Density = 2.197631 g / cm^3
# Si number density = 22.026441 Si / 1000 Ang^3
#
#
#
# Elastic Constant Matrix: (Units=GPa)
#
#
# Indices 1 2 3 4 5 6 
#
# 1 58.9890 7.1474 26.5949 0.0000 0.0000 0.0000
# 2 7.1474 58.9873 26.5950 0.0000 0.0000 0.0000
# 3 26.5949 26.5950 121.2156 0.0000 0.0000 0.0000
# 4 0.0000 0.0000 0.0000 -64.9018 0.0000 0.0000
# 5 0.0000 0.0000 0.0000 0.0000 -64.9036 0.0000
# 6 0.0000 0.0000 0.0000 0.0000 0.0000 55.5031
#
#
#
# Elastic Compliance Matrix: (Units=1/GPa)
#
#
# Indices 1 2 3 4 5 6 
#
# 1 0.018825 -0.000465 -0.004028 0.000000 0.000000 0.000000
# 2 -0.000465 0.018825 -0.004028 0.000000 0.000000 0.000000
# 3 -0.004028 -0.004028 0.010017 0.000000 0.000000 0.000000
# 4 0.000000 0.000000 0.000000 -0.015408 0.000000 0.000000
# 5 0.000000 0.000000 0.000000 0.000000 -0.015407 0.000000
# 6 0.000000 0.000000 0.000000 0.000000 0.000000 0.018017
#
#
# Mechanical properties :
#
#
# Convention : Reuss Voigt Hill
#
# Bulk Modulus (GPa) = 32.65331 39.98516 36.31924
# Shear Modulus (GPa) = 80.48925 -2.93682 38.77621
#
# Velocity S-wave (km/s) = 6.05156 -1.15595 4.20031
# Velocity P-wave (km/s) = 7.98031 4.05106 6.32837
#
# Compressibility (1/GPa) = 0.03062476
#
# Stress axis : x y z
#
# Youngs Moduli (GPa) = 53.12161 53.11986 99.82639
#
# Poissons Ratio (x) = 0.02469 0.40212
# Poissons Ratio (y) = 0.02469 0.40214
# Poissons Ratio (z) = 0.21398 0.21399
#
# Static dielectric constant tensor:
#      x y z
#    x 1.835780 0.000000 0.000000 
#    y 0.000000 1.835780 0.000000 
#    z 0.000000 0.000000 1.817040 
# 
# From -- ./inp_files/5296.got.cif
#   From: 2010.05.17/outbox.cif.g08.bks.cpg/sg124_3_cif.got.tgz:5296.got - 2010.05.20 11:49:17.
