data_PCOD9562111
_publ_section_title
;
Structure prediction by ZEFSAII (Michael W. Deem and Ramdas Pophale) SiO2 
 PCOD9562111
Probable space group: P 4/M M M
;
_chemical_formula_sum "Si O2"
_cell_formula_units_Z 120
_cell_length_a 17.816410
_cell_length_b 17.816410
_cell_length_c 20.379644
_cell_angle_alpha 90.000000
_cell_angle_beta 90.000000
_cell_angle_gamma 90.000000
_cell_volume 6468.997599
_symmetry_space_group_name_H-M "P 4/M M M"
_symmetry_group_IT_number 123
_symmetry_cell_setting 'tetragonal'
loop_
_space_group_symop_operation_xyz
x,y,z
-y,x,z
-x,-y,z
y,-x,z
x,-y,-z
-x,y,-z
y,x,-z
-y,-x,-z
-x,-y,-z
y,-x,-z
x,y,-z
-y,x,-z
-x,y,z
x,-y,z
-y,-x,z
y,x,z
loop_
_atom_site_type_symbol
_atom_site_label
_atom_site_fract_x
_atom_site_fract_y
_atom_site_fract_z
Si Si1 0.701348 0.585790 0.172189
Si Si2 0.914532 0.722922 0.254485
Si Si3 0.500000 0.083136 0.079429
Si Si4 0.087798 0.790484 0.603670
Si Si5 0.666085 0.793316 0.572881
Si Si6 0.644367 0.820737 0.924784
Si Si7 0.414134 0.808343 0.291326
Si Si8 0.088867 0.209750 0.888593
O O1 0.706798 0.500000 0.149493
O O2 0.618447 0.618447 0.170929
O O3 0.752729 0.637139 0.125327
O O4 0.735018 0.589811 0.245442
O O5 0.906480 0.775793 0.317990
O O6 0.862046 0.650750 0.262681
O O7 0.902294 0.769572 0.188443
O O8 0.000000 0.695351 0.253215
O O9 0.575859 0.125557 0.096859
O O10 0.500000 0.000000 0.107087
O O11 0.500000 0.078940 0.000000
O O12 0.135530 0.864471 0.586176
O O13 0.132200 0.718555 0.575431
O O14 0.000000 0.793940 0.585860
O O15 0.632675 0.787444 0.500000
O O16 0.724531 0.724531 0.582319
O O17 0.608802 0.794790 0.633211
O O18 0.721288 0.867174 0.922137
O O19 0.631815 0.796318 0.000000
O O20 0.500000 0.836975 0.286479
O O21 0.132950 0.132950 0.903130
O O22 0.000000 0.207999 0.904308
#
# Coordination Sequence:
#
# PCOD9562111 Si02
#       8
#    16  16   8  16  16  16  16  16
#     4  11  23  39  60  86 116 150 188 231 281 337
#     4   9  18  33  51  74 106 143 180 222 277 338
#     4   9  18  34  56  82 115 147 178 228 289 342
#     4   9  17  29  47  71 100 136 180 228 276 327
#     4   9  18  33  53  75 103 143 183 218 263 322
#     4  11  22  38  59  87 117 150 193 237 287 344
#     4  10  20  34  55  84 112 140 177 222 273 327
#     4  11  23  38  58  83 113 153 198 243 292 344
#
# _framework density 18.550014999999998
#
# number of rings (size 3 to 8) (size 9 to 14) (size 15 to 20)
#    0.000    2.067    2.000    1.600    0.000    4.133 
#    0.000    0.000    0.000    2.400    0.000    7.467 
#    0.000    0.000    0.000   12.400    0.000    0.000 
#
# Total GULP energy -669468.501508 kJ/mol
# GULP energy per Si atom -5578.904179 kJ/mol
# Density = 1.850779 g / cm^3
# Si number density = 18.550015 Si / 1000 Ang^3
#
#
#
# Elastic Constant Matrix: (Units=GPa)
#
#
# Indices 1 2 3 4 5 6 
#
# 1 80.0298 60.2229 13.7577 0.0000 0.0000 0.0000
# 2 60.2229 80.0298 13.7577 0.0000 0.0000 0.0000
# 3 13.7577 13.7577 73.2547 0.0000 0.0000 0.0000
# 4 0.0000 0.0000 0.0000 10.5456 0.0000 0.0000
# 5 0.0000 0.0000 0.0000 0.0000 10.5456 0.0000
# 6 0.0000 0.0000 0.0000 0.0000 0.0000 19.5793
#
#
#
# Elastic Compliance Matrix: (Units=1/GPa)
#
#
# Indices 1 2 3 4 5 6 
#
# 1 0.028945 -0.021542 -0.001390 0.000000 0.000000 0.000000
# 2 -0.021542 0.028945 -0.001390 0.000000 0.000000 0.000000
# 3 -0.001390 -0.001390 0.014173 0.000000 0.000000 0.000000
# 4 0.000000 0.000000 0.000000 0.094826 0.000000 0.000000
# 5 0.000000 0.000000 0.000000 0.000000 0.094826 0.000000
# 6 0.000000 0.000000 0.000000 0.000000 0.000000 0.051074
#
#
# Mechanical properties :
#
#
# Convention : Reuss Voigt Hill
#
# Bulk Modulus (GPa) = 42.70298 45.42120 44.06209
# Shear Modulus (GPa) = 13.54129 17.83919 15.69024
#
# Velocity S-wave (km/s) = 2.70476 3.10446 2.91148
# Velocity P-wave (km/s) = 5.72929 6.11467 5.92511
#
# Compressibility (1/GPa) = 0.02341757
#
# Stress axis : x y z
#
# Youngs Moduli (GPa) = 34.54824 34.54824 70.55569
#
# Poissons Ratio (x) = 0.74425 0.09809
# Poissons Ratio (y) = 0.74425 0.09809
# Poissons Ratio (z) = 0.04803 0.04803
#
# Static dielectric constant tensor:
#      x y z
#    x 1.632890 0.000000 0.000000 
#    y 0.000000 1.632890 0.000000 
#    z 0.000000 0.000000 1.666630 
# 
# From -- ./inp_files/6779.got.cif
#   From: 2010.05.17/outbox.cif.g08.bks.cpg/sg123_4_cif.got.tgz:6779.got - 2010.05.20 11:43:04.
