data_PCOD9562156
_publ_section_title
;
Structure prediction by ZEFSAII (Michael W. Deem and Ramdas Pophale) SiO2 
 PCOD9562156
Probable space group: P 4/M M M
;
_chemical_formula_sum "Si O2"
_cell_formula_units_Z 80
_cell_length_a 13.946665
_cell_length_b 13.946665
_cell_length_c 25.161300
_cell_angle_alpha 90.000000
_cell_angle_beta 90.000000
_cell_angle_gamma 90.000000
_cell_volume 4894.110992
_symmetry_space_group_name_H-M "P 4/M M M"
_symmetry_group_IT_number 123
_symmetry_cell_setting 'tetragonal'
loop_
_space_group_symop_operation_xyz
x,y,z
-y,x,z
-x,-y,z
y,-x,z
x,-y,-z
-x,y,-z
y,x,-z
-y,-x,-z
-x,-y,-z
y,-x,-z
x,y,-z
-y,x,-z
-x,y,z
x,-y,z
-y,-x,z
y,x,z
loop_
_atom_site_type_symbol
_atom_site_label
_atom_site_fract_x
_atom_site_fract_y
_atom_site_fract_z
Si Si1 0.611093 0.769352 0.858096
Si Si2 0.273176 0.886462 0.646840
Si Si3 0.387296 0.770522 0.733338
Si Si4 0.768246 0.388269 0.436666
Si Si5 0.270778 0.111641 0.061170
O O1 0.500000 0.751216 0.868326
O O2 0.675071 0.675071 0.867392
O O3 0.621907 0.795064 0.795808
O O4 0.652343 0.850038 0.896900
O O5 0.174357 0.825644 0.647084
O O6 0.335535 0.849168 0.696908
O O7 0.333988 0.850688 0.595845
O O8 0.259304 0.000000 0.647383
O O9 0.500000 0.761380 0.720888
O O10 0.328358 0.671643 0.724542
O O11 0.784593 0.382547 0.500000
O O12 0.761674 0.500000 0.421888
O O13 0.670435 0.329565 0.424903
O O14 0.175846 0.175846 0.068308
O O15 0.250839 0.000000 0.068792
O O16 0.303413 0.125784 0.000000
#
# Coordination Sequence:
#
# PCOD9562156 Si02
#       5
#    16  16  16  16  16
#     4   9  18  32  49  70  97 127 158 192 229 272
#     4  10  21  36  52  70  94 124 160 202 243 283
#     4   9  18  32  50  73  99 126 156 190 230 277
#     4   9  18  32  50  74 103 132 161 193 231 278
#     4   9  18  32  49  69  93 121 154 194 239 284
#
# _framework density 16.346177000000001
#
# number of rings (size 3 to 8) (size 9 to 14) (size 15 to 20)
#    0.000    2.800    0.000    0.600    0.000    4.600 
#    0.000    8.000    0.000    3.600    0.000   11.200 
#    0.000    0.000    0.000    0.000    0.000    0.000 
#
# Total GULP energy -445860.914733 kJ/mol
# GULP energy per Si atom -5573.261434 kJ/mol
# Density = 1.630897 g / cm^3
# Si number density = 16.346177 Si / 1000 Ang^3
#
#
#
# Elastic Constant Matrix: (Units=GPa)
#
#
# Indices 1 2 3 4 5 6 
#
# 1 133.9054 58.4190 57.3985 0.0000 0.0000 0.0000
# 2 58.4190 133.9054 57.3985 0.0000 0.0000 0.0000
# 3 57.3985 57.3985 67.1174 0.0000 0.0000 0.0000
# 4 0.0000 0.0000 0.0000 24.2420 0.0000 0.0000
# 5 0.0000 0.0000 0.0000 0.0000 24.2420 0.0000
# 6 0.0000 0.0000 0.0000 0.0000 0.0000 4.8657
#
#
#
# Elastic Compliance Matrix: (Units=1/GPa)
#
#
# Indices 1 2 3 4 5 6 
#
# 1 0.011934 -0.001313 -0.009083 0.000000 0.000000 0.000000
# 2 -0.001313 0.011934 -0.009083 0.000000 0.000000 0.000000
# 3 -0.009083 -0.009083 0.030435 0.000000 0.000000 0.000000
# 4 0.000000 0.000000 0.000000 0.041251 0.000000 0.000000
# 5 0.000000 0.000000 0.000000 0.000000 0.041251 0.000000
# 6 0.000000 0.000000 0.000000 0.000000 0.000000 0.205519
#
#
# Mechanical properties :
#
#
# Convention : Reuss Voigt Hill
#
# Bulk Modulus (GPa) = 65.16917 75.70673 70.43795
# Shear Modulus (GPa) = 12.94000 21.45074 17.19537
#
# Velocity S-wave (km/s) = 2.81663 3.62647 3.24690
# Velocity P-wave (km/s) = 7.10863 7.99689 7.56580
#
# Compressibility (1/GPa) = 0.01534468
#
# Stress axis : x y z
#
# Youngs Moduli (GPa) = 83.79173 83.79173 32.85669
#
# Poissons Ratio (x) = 0.11002 0.29845
# Poissons Ratio (y) = 0.11002 0.29845
# Poissons Ratio (z) = 0.76110 0.76110
#
# Static dielectric constant tensor:
#      x y z
#    x 1.521890 0.000000 0.000000 
#    y 0.000000 1.521890 0.000000 
#    z 0.000000 0.000000 1.568440 
# 
# From -- ./inp_files/8319.got.cif
#   From: 2010.05.17/outbox.cif.g08.bks.cpg/sg123_5_cif.got.tgz:8319.got - 2010.05.20 11:43:04.
