data_PCOD9562139
_publ_section_title
;
Structure prediction by ZEFSAII (Michael W. Deem and Ramdas Pophale) SiO2 
 PCOD9562139
Probable space group: P 4/M M M
;
_chemical_formula_sum "Si O2"
_cell_formula_units_Z 72
_cell_length_a 13.388648
_cell_length_b 13.388648
_cell_length_c 24.550595
_cell_angle_alpha 90.000000
_cell_angle_beta 90.000000
_cell_angle_gamma 90.000000
_cell_volume 4400.838886
_symmetry_space_group_name_H-M "P 4/M M M"
_symmetry_group_IT_number 123
_symmetry_cell_setting 'tetragonal'
loop_
_space_group_symop_operation_xyz
x,y,z
-y,x,z
-x,-y,z
y,-x,z
x,-y,-z
-x,y,-z
y,x,-z
-y,-x,-z
-x,-y,-z
y,-x,-z
x,y,-z
-y,x,-z
-x,y,z
x,-y,z
-y,-x,z
y,x,z
loop_
_atom_site_type_symbol
_atom_site_label
_atom_site_fract_x
_atom_site_fract_y
_atom_site_fract_z
Si Si1 0.000000 0.620882 0.437159
Si Si2 0.221731 0.614964 0.253517
Si Si3 0.719420 0.886819 0.840262
Si Si4 0.383833 0.782459 0.062002
Si Si5 0.381236 0.786926 0.616680
O O1 0.893687 0.649137 0.409688
O O2 0.000000 0.500000 0.435534
O O3 0.000000 0.653352 0.500000
O O4 0.238282 0.500000 0.240371
O O5 0.319993 0.680008 0.241940
O O6 0.136537 0.658982 0.214936
O O7 0.200349 0.623590 0.317829
O O8 0.813022 0.813022 0.841409
O O9 0.651473 0.858874 0.892044
O O10 0.751230 0.000000 0.842429
O O11 0.500000 0.759137 0.068665
O O12 0.315879 0.684122 0.068443
O O13 0.368359 0.819760 0.000000
O O14 0.500000 0.766417 0.603309
O O15 0.304648 0.695353 0.602501
#
# Coordination Sequence:
#
# PCOD9562139 Si02
#       5
#     8  16  16  16  16
#     4   9  18  32  50  73 101 135 172 207 246 293
#     4   9  18  31  48  73 102 130 160 195 238 289
#     4  10  21  35  50  69  93 123 162 207 251 293
#     4   9  18  32  49  71  99 128 159 195 236 287
#     4   9  18  32  51  76 105 136 170 209 253 302
#
# _framework density 16.360516000000001
#
# number of rings (size 3 to 8) (size 9 to 14) (size 15 to 20)
#    0.000    2.778    0.000    0.667    1.556    3.556 
#    0.000    4.444    0.000    4.333    0.000    7.000 
#    0.000    0.000    0.000    0.000    0.000    0.000 
#
# Total GULP energy -400957.260184 kJ/mol
# GULP energy per Si atom -5568.850836 kJ/mol
# Density = 1.632328 g / cm^3
# Si number density = 16.360516 Si / 1000 Ang^3
#
#
#
# Elastic Constant Matrix: (Units=GPa)
#
#
# Indices 1 2 3 4 5 6 
#
# 1 93.8434 27.2518 41.2621 0.0000 0.0000 0.0000
# 2 27.2518 93.8434 41.2621 0.0000 0.0000 0.0000
# 3 41.2621 41.2621 50.4950 0.0000 0.0000 0.0000
# 4 0.0000 0.0000 0.0000 17.3128 0.0000 0.0000
# 5 0.0000 0.0000 0.0000 0.0000 17.3128 0.0000
# 6 0.0000 0.0000 0.0000 0.0000 0.0000 7.4849
#
#
#
# Elastic Compliance Matrix: (Units=1/GPa)
#
#
# Indices 1 2 3 4 5 6 
#
# 1 0.016826 0.001809 -0.015228 0.000000 0.000000 0.000000
# 2 0.001809 0.016826 -0.015228 0.000000 0.000000 0.000000
# 3 -0.015228 -0.015228 0.044692 0.000000 0.000000 0.000000
# 4 0.000000 0.000000 0.000000 0.057761 0.000000 0.000000
# 5 0.000000 0.000000 0.000000 0.000000 0.057761 0.000000
# 6 0.000000 0.000000 0.000000 0.000000 0.000000 0.133602
#
#
# Mechanical properties :
#
#
# Convention : Reuss Voigt Hill
#
# Bulk Modulus (GPa) = 47.50584 50.85933 49.18259
# Shear Modulus (GPa) = 12.76231 16.98247 14.87239
#
# Velocity S-wave (km/s) = 2.79600 3.22532 3.01830
# Velocity P-wave (km/s) = 6.28676 6.71002 6.50184
#
# Compressibility (1/GPa) = 0.02105004
#
# Stress axis : x y z
#
# Youngs Moduli (GPa) = 59.43067 59.43067 22.37559
#
# Poissons Ratio (x) = -0.10753 0.34074
# Poissons Ratio (y) = -0.10753 0.34074
# Poissons Ratio (z) = 0.90502 0.90502
#
# Static dielectric constant tensor:
#      x y z
#    x 1.527320 0.000000 0.000000 
#    y 0.000000 1.527320 0.000000 
#    z 0.000000 0.000000 1.566730 
# 
# From -- ./inp_files/7785.got.cif
#   From: 2010.05.17/outbox.cif.g08.bks.cpg/sg123_4_cif.got.tgz:7785.got - 2010.05.20 11:43:04.
