data_PCOD9562571
_publ_section_title
;
Structure prediction by ZEFSAII (Michael W. Deem and Ramdas Pophale) SiO2 
 PCOD9562571
Probable space group: P 4/M C C
;
_chemical_formula_sum "Si O2"
_cell_formula_units_Z 96
_cell_length_a 24.372761
_cell_length_b 24.372761
_cell_length_c 8.272679
_cell_angle_alpha 90.000000
_cell_angle_beta 90.000000
_cell_angle_gamma 90.000000
_cell_volume 4914.231740
_symmetry_space_group_name_H-M "P 4/M C C"
_symmetry_group_IT_number 124
_symmetry_cell_setting 'tetragonal'
loop_
_space_group_symop_operation_xyz
x,y,z
-y,x,z
-x,-y,z
y,-x,z
x,-y,1/2-z
-x,y,1/2-z
y,x,1/2-z
-y,-x,1/2-z
-x,-y,-z
y,-x,-z
x,y,-z
-y,x,-z
-x,y,1/2+z
x,-y,1/2+z
-y,-x,1/2+z
y,x,1/2+z
loop_
_atom_site_type_symbol
_atom_site_label
_atom_site_fract_x
_atom_site_fract_y
_atom_site_fract_z
Si Si1 0.825911 0.556727 0.185369
Si Si2 0.822842 0.258257 0.690816
Si Si3 0.349514 0.436035 0.694519
Si Si4 0.059017 0.577136 0.811463
Si Si5 0.058024 0.701610 0.303804
Si Si6 0.249152 0.642269 0.816802
O O1 0.802533 0.500000 0.250000
O O2 0.891130 0.555868 0.203439
O O3 0.802211 0.601558 0.304854
O O4 0.810802 0.568051 0.000000
O O5 0.798914 0.201087 0.750000
O O6 0.825647 0.258370 0.500000
O O7 0.884721 0.270531 0.747342
O O8 0.777621 0.304559 0.735991
O O9 0.345031 0.500000 0.750000
O O10 0.405639 0.405639 0.750000
O O11 0.346966 0.436746 0.500000
O O12 0.299889 0.394569 0.751359
O O13 0.059304 0.642488 0.782169
O O14 0.000000 0.558362 0.750000
O O15 0.067279 0.564397 0.000000
O O16 0.057867 0.694557 0.500000
O O17 0.000000 0.727868 0.250000
O O18 0.263937 0.656871 0.000000
#
# Coordination Sequence:
#
# PCOD9562571 Si02
#       6
#    16  16  16  16  16  16
#     4  12  24  38  55  78 108 145 192 241 290 344
#     4  11  23  37  58  88 123 159 200 244 290 343
#     4  11  25  44  67  93 119 148 185 229 284 350
#     4  11  21  35  55  77 105 143 188 238 291 343
#     4  10  20  35  56  83 114 155 198 242 291 343
#     4  11  23  40  62  88 117 153 191 233 290 347
#
# _framework density 19.535098000000001
#
# number of rings (size 3 to 8) (size 9 to 14) (size 15 to 20)
#    0.000    1.000    1.667    7.000    0.000    7.833 
#    0.000    2.500    0.000    0.000    0.000    0.000 
#    0.000    0.333    0.000    3.667    0.000    2.667 
#
# Total GULP energy -535905.341092 kJ/mol
# GULP energy per Si atom -5582.347303 kJ/mol
# Density = 1.949064 g / cm^3
# Si number density = 19.535098 Si / 1000 Ang^3
#
#
#
# Elastic Constant Matrix: (Units=GPa)
#
#
# Indices 1 2 3 4 5 6 
#
# 1 103.8918 63.6357 13.6001 0.0000 0.0000 0.0000
# 2 63.6357 103.8970 13.5967 0.0000 0.0000 0.0000
# 3 13.6001 13.5967 72.2422 0.0000 0.0000 0.0000
# 4 0.0000 0.0000 0.0000 32.3174 0.0000 0.0000
# 5 0.0000 0.0000 0.0000 0.0000 32.3145 0.0000
# 6 0.0000 0.0000 0.0000 0.0000 0.0000 -16.2618
#
#
#
# Elastic Compliance Matrix: (Units=1/GPa)
#
#
# Indices 1 2 3 4 5 6 
#
# 1 0.015499 -0.009341 -0.001160 0.000000 0.000000 0.000000
# 2 -0.009341 0.015498 -0.001158 0.000000 0.000000 0.000000
# 3 -0.001160 -0.001158 0.014279 0.000000 0.000000 0.000000
# 4 0.000000 0.000000 0.000000 0.030943 0.000000 0.000000
# 5 0.000000 0.000000 0.000000 0.000000 0.030946 0.000000
# 6 0.000000 0.000000 0.000000 0.000000 0.000000 -0.061494
#
#
# Mechanical properties :
#
#
# Convention : Reuss Voigt Hill
#
# Bulk Modulus (GPa) = 45.54331 51.29954 48.42143
# Shear Modulus (GPa) = 65.52435 22.28726 43.90581
#
# Velocity S-wave (km/s) = 5.79782 3.38136 4.74596
# Velocity P-wave (km/s) = 8.25735 6.44686 7.40762
#
# Compressibility (1/GPa) = 0.02195712
#
# Stress axis : x y z
#
# Youngs Moduli (GPa) = 64.52121 64.52535 70.03464
#
# Poissons Ratio (x) = 0.60273 0.08122
# Poissons Ratio (y) = 0.60270 0.08112
# Poissons Ratio (z) = 0.07482 0.07474
#
# Static dielectric constant tensor:
#      x y z
#    x 1.749270 0.000000 0.000000 
#    y 0.000000 1.749270 0.000000 
#    z 0.000000 0.000000 1.669200 
# 
# From -- ./inp_files/1368.got.cif
#   From: 2010.05.17/outbox.cif.g08.bks.cpg/sg124_1_cif.got.tgz:1368.got - 2010.05.20 11:49:17.
