data_PCOD9562743
_publ_section_title
;
Structure prediction by ZEFSAII (Michael W. Deem and Ramdas Pophale) SiO2 
 PCOD9562743
Probable space group: P 4/M C C
;
_chemical_formula_sum "Si O2"
_cell_formula_units_Z 112
_cell_length_a 14.102536
_cell_length_b 14.102536
_cell_length_c 24.592633
_cell_angle_alpha 90.000000
_cell_angle_beta 90.000000
_cell_angle_gamma 90.000000
_cell_volume 4891.020272
_symmetry_space_group_name_H-M "P 4/M C C"
_symmetry_group_IT_number 124
_symmetry_cell_setting 'tetragonal'
loop_
_space_group_symop_operation_xyz
x,y,z
-y,x,z
-x,-y,z
y,-x,z
x,-y,1/2-z
-x,y,1/2-z
y,x,1/2-z
-y,-x,1/2-z
-x,-y,-z
y,-x,-z
x,y,-z
-y,x,-z
-x,y,1/2+z
x,-y,1/2+z
-y,-x,1/2+z
y,x,1/2+z
loop_
_atom_site_type_symbol
_atom_site_label
_atom_site_fract_x
_atom_site_fract_y
_atom_site_fract_z
Si Si1 0.263554 0.564891 0.939091
Si Si2 0.241806 0.388814 0.763380
Si Si3 0.351729 0.057377 0.797827
Si Si4 0.768387 0.912153 0.439012
Si Si5 0.257282 0.645431 0.610378
Si Si6 0.015560 0.849031 0.331483
Si Si7 0.404189 0.051007 0.920693
O O1 0.254122 0.456847 0.918882
O O2 0.318299 0.635129 0.898305
O O3 0.156774 0.603088 0.941645
O O4 0.305752 0.568807 0.000000
O O5 0.237187 0.500000 0.750000
O O6 0.342906 0.342906 0.750000
O O7 0.162895 0.338223 0.725564
O O8 0.226299 0.369962 0.827331
O O9 0.256267 0.997428 0.809645
O O10 0.403563 0.060284 0.855163
O O11 0.401425 0.000000 0.750000
O O12 0.805434 0.898251 0.500000
O O13 0.722256 0.814356 0.416240
O O14 0.838676 0.959826 0.395613
O O15 0.681577 0.985879 0.439155
O O16 0.099476 0.918568 0.314438
O O17 0.500000 0.000000 0.937587
#
# Coordination Sequence:
#
# PCOD9562743 Si02
#       7
#    16  16  16  16  16  16  16
#     4  12  26  46  73 102 142 188 236 299 367 431
#     4  12  27  46  74 105 145 194 242 299 373 435
#     4  11  26  41  70 101 139 182 237 294 361 421
#     4  11  24  41  68 100 137 184 236 298 364 425
#     4  12  26  47  69 107 142 184 245 299 358 443
#     4  10  25  47  68  98 140 186 237 290 351 438
#     4  11  23  42  67 100 138 177 233 288 348 433
#
# _framework density 22.899108999999999
#
# number of rings (size 3 to 8) (size 9 to 14) (size 15 to 20)
#    0.000    0.714    1.429    6.000   10.000    1.571 
#    0.000    3.571    0.000    0.000    0.000    0.000 
#    0.000    0.000    0.000    0.000    0.000    0.000 
#
# Total GULP energy -626623.536077 kJ/mol
# GULP energy per Si atom -5594.853001 kJ/mol
# Density = 2.284699 g / cm^3
# Si number density = 22.899109 Si / 1000 Ang^3
#
#
#
# Elastic Constant Matrix: (Units=GPa)
#
#
# Indices 1 2 3 4 5 6 
#
# 1 68.9057 30.4774 15.0939 0.0000 0.0000 0.0000
# 2 30.4774 68.9057 15.0939 0.0000 0.0000 0.0000
# 3 15.0939 15.0939 178.7945 0.0000 0.0000 0.0000
# 4 0.0000 0.0000 0.0000 18.2874 0.0000 0.0000
# 5 0.0000 0.0000 0.0000 0.0000 18.2874 0.0000
# 6 0.0000 0.0000 0.0000 0.0000 0.0000 14.9935
#
#
#
# Elastic Compliance Matrix: (Units=1/GPa)
#
#
# Indices 1 2 3 4 5 6 
#
# 1 0.018175 -0.007848 -0.000872 0.000000 0.000000 0.000000
# 2 -0.007848 0.018175 -0.000872 0.000000 0.000000 0.000000
# 3 -0.000872 -0.000872 0.005740 0.000000 0.000000 0.000000
# 4 0.000000 0.000000 0.000000 0.054683 0.000000 0.000000
# 5 0.000000 0.000000 0.000000 0.000000 0.054683 0.000000
# 6 0.000000 0.000000 0.000000 0.000000 0.000000 0.066695
#
#
# Mechanical properties :
#
#
# Convention : Reuss Voigt Hill
#
# Bulk Modulus (GPa) = 43.65520 48.65960 46.15740
# Shear Modulus (GPa) = 20.41080 27.37638 23.89359
#
# Velocity S-wave (km/s) = 2.98876 3.46138 3.23372
# Velocity P-wave (km/s) = 5.56918 6.10496 5.84322
#
# Compressibility (1/GPa) = 0.02290678
#
# Stress axis : x y z
#
# Youngs Moduli (GPa) = 55.02165 55.02165 174.20973
#
# Poissons Ratio (x) = 0.43180 0.15188
# Poissons Ratio (y) = 0.43180 0.15188
# Poissons Ratio (z) = 0.04797 0.04797
#
# Static dielectric constant tensor:
#      x y z
#    x 1.844160 0.000000 0.000000 
#    y 0.000000 1.844160 0.000000 
#    z 0.000000 0.000000 1.891840 
# 
# From -- ./inp_files/6072.got.cif
#   From: 2010.05.17/outbox.cif.g08.bks.cpg/sg124_4_cif.got.tgz:6072.got - 2010.05.20 11:49:17.
