data_PCOD9562607
_publ_section_title
;
Structure prediction by ZEFSAII (Michael W. Deem and Ramdas Pophale) SiO2 
 PCOD9562607
Probable space group: P 4/M C C
;
_chemical_formula_sum "Si O2"
_cell_formula_units_Z 40
_cell_length_a 10.595914
_cell_length_b 10.595914
_cell_length_c 15.147930
_cell_angle_alpha 90.000000
_cell_angle_beta 90.000000
_cell_angle_gamma 90.000000
_cell_volume 1700.709506
_symmetry_space_group_name_H-M "P 4/M C C"
_symmetry_group_IT_number 124
_symmetry_cell_setting 'tetragonal'
loop_
_space_group_symop_operation_xyz
x,y,z
-y,x,z
-x,-y,z
y,-x,z
x,-y,1/2-z
-x,y,1/2-z
y,x,1/2-z
-y,-x,1/2-z
-x,-y,-z
y,-x,-z
x,y,-z
-y,x,-z
-x,y,1/2+z
x,-y,1/2+z
-y,-x,1/2+z
y,x,1/2+z
loop_
_atom_site_type_symbol
_atom_site_label
_atom_site_fract_x
_atom_site_fract_y
_atom_site_fract_z
Si Si1 0.228542 0.500000 0.250000
Si Si2 0.294532 0.943339 0.840293
Si Si3 0.679811 0.786355 0.097206
O O1 0.137180 0.411734 0.193973
O O2 0.282331 0.596964 0.174473
O O3 0.221042 0.831574 0.888563
O O4 0.233591 0.000000 0.750000
O O5 0.339484 0.063289 0.894924
O O6 0.646582 0.739234 0.000000
#
# Coordination Sequence:
#
# PCOD9562607 Si02
#       3
#     8  16  16
#     4  10  21  38  58  83 116 155 194 242 291 342
#     4  10  20  37  59  85 117 154 193 240 297 351
#     4  11  22  36  59  89 119 153 194 240 293 355
#
# _framework density 23.519596
#
# number of rings (size 3 to 8) (size 9 to 14) (size 15 to 20)
#    0.000    1.600    0.000   11.400    0.000    5.600 
#    0.000    8.000    0.000    9.600    0.000   11.200 
#    0.000    0.000    0.000    0.000    0.000    0.000 
#
# Total GULP energy -222703.352632 kJ/mol
# GULP energy per Si atom -5567.583816 kJ/mol
# Density = 2.346606 g / cm^3
# Si number density = 23.519596 Si / 1000 Ang^3
#
#
#
# Elastic Constant Matrix: (Units=GPa)
#
#
# Indices 1 2 3 4 5 6 
#
# 1 45.6016 1.3795 33.1742 0.0000 0.0000 0.0000
# 2 1.3795 45.6016 33.1742 0.0000 0.0000 0.0000
# 3 33.1742 33.1742 184.1255 0.0000 0.0000 0.0000
# 4 0.0000 0.0000 0.0000 10.5873 0.0000 0.0000
# 5 0.0000 0.0000 0.0000 0.0000 10.5873 0.0000
# 6 0.0000 0.0000 0.0000 0.0000 0.0000 5.8133
#
#
#
# Elastic Compliance Matrix: (Units=1/GPa)
#
#
# Indices 1 2 3 4 5 6 
#
# 1 0.025581 0.002968 -0.005144 0.000000 0.000000 0.000000
# 2 0.002968 0.025581 -0.005144 0.000000 0.000000 0.000000
# 3 -0.005144 -0.005144 0.007285 0.000000 0.000000 0.000000
# 4 0.000000 0.000000 0.000000 0.094453 0.000000 0.000000
# 5 0.000000 0.000000 0.000000 0.000000 0.094453 0.000000
# 6 0.000000 0.000000 0.000000 0.000000 0.000000 0.172018
#
#
# Mechanical properties :
#
#
# Convention : Reuss Voigt Hill
#
# Bulk Modulus (GPa) = 22.82674 45.64273 34.23473
# Shear Modulus (GPa) = 11.14545 19.23762 15.19154
#
# Velocity S-wave (km/s) = 2.17924 2.86307 2.54423
# Velocity P-wave (km/s) = 4.00732 5.51162 4.81853
#
# Compressibility (1/GPa) = 0.04380828
#
# Stress axis : x y z
#
# Youngs Moduli (GPa) = 39.09108 39.09108 137.27563
#
# Poissons Ratio (x) = -0.11603 0.70612
# Poissons Ratio (y) = -0.11603 0.70612
# Poissons Ratio (z) = 0.20108 0.20108
#
# Static dielectric constant tensor:
#      x y z
#    x 1.960240 0.000000 0.000000 
#    y 0.000000 1.960240 0.000000 
#    z 0.000000 0.000000 1.991700 
# 
# From -- ./inp_files/2710.got.cif
#   From: 2010.05.17/outbox.cif.g08.bks.cpg/sg124_2_cif.got.tgz:2710.got - 2010.05.20 11:49:17.
