data_PCOD9562356
_publ_section_title
;
Structure prediction by ZEFSAII (Michael W. Deem and Ramdas Pophale) SiO2 
 PCOD9562356
Probable space group: P 4/M C C
;
_chemical_formula_sum "Si O2"
_cell_formula_units_Z 64
_cell_length_a 19.403567
_cell_length_b 19.403567
_cell_length_c 10.095012
_cell_angle_alpha 90.000000
_cell_angle_beta 90.000000
_cell_angle_gamma 90.000000
_cell_volume 3800.755990
_symmetry_space_group_name_H-M "P 4/M C C"
_symmetry_group_IT_number 124
_symmetry_cell_setting 'tetragonal'
loop_
_space_group_symop_operation_xyz
x,y,z
-y,x,z
-x,-y,z
y,-x,z
x,-y,1/2-z
-x,y,1/2-z
y,x,1/2-z
-y,-x,1/2-z
-x,-y,-z
y,-x,-z
x,y,-z
-y,x,-z
-x,y,1/2+z
x,-y,1/2+z
-y,-x,1/2+z
y,x,1/2+z
loop_
_atom_site_type_symbol
_atom_site_label
_atom_site_fract_x
_atom_site_fract_y
_atom_site_fract_z
Si Si1 0.773751 0.435111 0.662485
Si Si2 0.289324 0.289324 0.250000
Si Si3 0.776671 0.214684 0.500000
Si Si4 0.383692 0.076775 0.742720
Si Si5 0.924579 0.711407 0.500000
Si Si6 0.074292 0.721164 0.500000
O O1 0.748610 0.500000 0.750000
O O2 0.770492 0.442020 0.500000
O O3 0.730691 0.367575 0.709507
O O4 0.854130 0.425283 0.706760
O O5 0.245158 0.263040 0.374018
O O6 0.767571 0.133982 0.500000
O O7 0.856398 0.235538 0.500000
O O8 0.327824 0.074878 0.626706
O O9 0.417602 0.000000 0.750000
O O10 0.340066 0.084180 0.876376
O O11 0.997558 0.750522 0.500000
#
# Coordination Sequence:
#
# PCOD9562356 Si02
#       6
#    16   8   8  16   8   8
#     4  12  26  41  60  89 122 155 194 244 297 351
#     4  12  22  40  62  85 114 153 202 250 282 350
#     4  12  18  34  62  83 110 159 204 254 296 340
#     4  10  19  35  53  79 118 155 192 236 289 357
#     4  10  20  28  56  86 110 156 198 246 302 344
#     4  10  18  34  50  82 122 148 198 252 294 348
#
# _framework density 16.838754999999999
#
# number of rings (size 3 to 8) (size 9 to 14) (size 15 to 20)
#    0.000    1.000    7.500    0.000    3.500    0.500 
#    0.000    1.250    0.000    0.750    0.000    1.750 
#    0.000    8.000    0.000    0.000    0.000    2.000 
#
# Total GULP energy -356479.296156 kJ/mol
# GULP energy per Si atom -5569.989002 kJ/mol
# Density = 1.680043 g / cm^3
# Si number density = 16.838755 Si / 1000 Ang^3
#
#
#
# Elastic Constant Matrix: (Units=GPa)
#
#
# Indices 1 2 3 4 5 6 
#
# 1 119.1412 51.0546 43.0422 0.0000 0.0000 0.0000
# 2 51.0546 119.1412 43.0422 0.0000 0.0000 0.0000
# 3 43.0422 43.0422 162.2728 0.0000 0.0000 0.0000
# 4 0.0000 0.0000 0.0000 21.1127 0.0000 0.0000
# 5 0.0000 0.0000 0.0000 0.0000 21.1127 0.0000
# 6 0.0000 0.0000 0.0000 0.0000 0.0000 12.5995
#
#
#
# Elastic Compliance Matrix: (Units=1/GPa)
#
#
# Indices 1 2 3 4 5 6 
#
# 1 0.010737 -0.003951 -0.001800 0.000000 0.000000 0.000000
# 2 -0.003951 0.010737 -0.001800 0.000000 0.000000 0.000000
# 3 -0.001800 -0.001800 0.007117 0.000000 0.000000 0.000000
# 4 0.000000 0.000000 0.000000 0.047365 0.000000 0.000000
# 5 0.000000 0.000000 0.000000 0.000000 0.047365 0.000000
# 6 0.000000 0.000000 0.000000 0.000000 0.000000 0.079368
#
#
# Mechanical properties :
#
#
# Convention : Reuss Voigt Hill
#
# Bulk Modulus (GPa) = 74.13180 74.98147 74.55663
# Shear Modulus (GPa) = 22.49354 28.52605 25.50979
#
# Velocity S-wave (km/s) = 3.65885 4.12037 3.89645
# Velocity P-wave (km/s) = 7.87208 8.20137 8.03841
#
# Compressibility (1/GPa) = 0.01348949
#
# Stress axis : x y z
#
# Youngs Moduli (GPa) = 93.13951 93.13951 140.50219
#
# Poissons Ratio (x) = 0.36796 0.25290
# Poissons Ratio (y) = 0.36796 0.25290
# Poissons Ratio (z) = 0.16765 0.16765
#
# Static dielectric constant tensor:
#      x y z
#    x 1.592530 0.000000 0.000000 
#    y 0.000000 1.592530 0.000000 
#    z 0.000000 0.000000 1.562570 
# 
# From -- ./inp_files/936.got.cif
#   From: 2010.05.17/outbox.cif.g08.bks.cpg/sg124_1_cif.got.tgz:936.got - 2010.05.20 11:49:17.
