data_PCOD9562692
_publ_section_title
;
Structure prediction by ZEFSAII (Michael W. Deem and Ramdas Pophale) SiO2 
 PCOD9562692
Probable space group: P 4/M C C
;
_chemical_formula_sum "Si O2"
_cell_formula_units_Z 96
_cell_length_a 14.510516
_cell_length_b 14.510516
_cell_length_c 21.905260
_cell_angle_alpha 90.000000
_cell_angle_beta 90.000000
_cell_angle_gamma 90.000000
_cell_volume 4612.263653
_symmetry_space_group_name_H-M "P 4/M C C"
_symmetry_group_IT_number 124
_symmetry_cell_setting 'tetragonal'
loop_
_space_group_symop_operation_xyz
x,y,z
-y,x,z
-x,-y,z
y,-x,z
x,-y,1/2-z
-x,y,1/2-z
y,x,1/2-z
-y,-x,1/2-z
-x,-y,-z
y,-x,-z
x,y,-z
-y,x,-z
-x,y,1/2+z
x,-y,1/2+z
-y,-x,1/2+z
y,x,1/2+z
loop_
_atom_site_type_symbol
_atom_site_label
_atom_site_fract_x
_atom_site_fract_y
_atom_site_fract_z
Si Si1 0.576054 0.921380 0.566303
Si Si2 0.627416 0.412327 0.434907
Si Si3 0.841890 0.816209 0.817851
Si Si4 0.717573 0.023888 0.362646
Si Si5 0.667626 0.688560 0.815655
Si Si6 0.134690 0.459592 0.681668
O O1 0.578407 0.872117 0.500000
O O2 0.537133 0.872517 0.628146
O O3 0.500000 0.000000 0.560276
O O4 0.671308 0.975939 0.578268
O O5 0.622600 0.522129 0.434338
O O6 0.667372 0.380578 0.500000
O O7 0.670367 0.376784 0.373322
O O8 0.855114 0.855114 0.750000
O O9 0.789481 0.890629 0.861082
O O10 0.768572 0.733487 0.812223
O O11 0.939158 0.774235 0.835503
O O12 0.624729 0.060965 0.327872
O O13 0.645243 0.645243 0.750000
O O14 0.592793 0.768571 0.825277
O O15 0.125459 0.500000 0.750000
#
# Coordination Sequence:
#
# PCOD9562692 Si02
#       6
#    16  16  16  16  16  16
#     4   9  20  38  62  90 122 158 209 261 308 379
#     4   9  20  39  60  83 117 165 214 255 307 384
#     4  10  22  37  60  86 125 160 208 267 317 385
#     4  10  22  40  59  91 123 165 207 261 328 372
#     4  10  23  37  55  89 127 158 202 272 317 378
#     4  10  23  37  64  92 124 166 209 257 324 381
#
# _framework density 20.814074000000002
#
# number of rings (size 3 to 8) (size 9 to 14) (size 15 to 20)
#    0.000    2.333    0.000    1.000   11.667    3.333 
#    0.000    7.500    0.000    0.000    0.000    1.167 
#    0.000    0.000    0.000    0.000    0.000    0.000 
#
# Total GULP energy -534906.274822 kJ/mol
# GULP energy per Si atom -5571.940363 kJ/mol
# Density = 2.076670 g / cm^3
# Si number density = 20.814074 Si / 1000 Ang^3
#
#
#
# Elastic Constant Matrix: (Units=GPa)
#
#
# Indices 1 2 3 4 5 6 
#
# 1 39.7159 77.4014 46.7421 0.0000 0.0000 0.0000
# 2 77.4014 39.7159 46.7421 0.0000 0.0000 0.0000
# 3 46.7421 46.7421 152.0615 0.0000 0.0000 0.0000
# 4 0.0000 0.0000 0.0000 2.6452 0.0000 0.0000
# 5 0.0000 0.0000 0.0000 0.0000 2.6452 0.0000
# 6 0.0000 0.0000 0.0000 0.0000 0.0000 36.3707
#
#
#
# Elastic Compliance Matrix: (Units=1/GPa)
#
#
# Indices 1 2 3 4 5 6 
#
# 1 -0.007610 0.018925 -0.003478 0.000000 0.000000 0.000000
# 2 0.018925 -0.007610 -0.003478 0.000000 0.000000 0.000000
# 3 -0.003478 -0.003478 0.008714 0.000000 0.000000 0.000000
# 4 0.000000 0.000000 0.000000 0.378043 0.000000 0.000000
# 5 0.000000 0.000000 0.000000 0.000000 0.378043 0.000000
# 6 0.000000 0.000000 0.000000 0.000000 0.000000 0.027495
#
#
# Mechanical properties :
#
#
# Convention : Reuss Voigt Hill
#
# Bulk Modulus (GPa) = 57.36661 63.69607 60.53134
# Shear Modulus (GPa) = 6.58808 12.37273 9.48041
#
# Velocity S-wave (km/s) = 1.78103 2.44076 2.13651
# Velocity P-wave (km/s) = 5.64364 6.21385 5.93560
#
# Compressibility (1/GPa) = 0.01743174
#
# Stress axis : x y z
#
# Youngs Moduli (GPa) = -131.39967 -131.39967 114.75145
#
# Poissons Ratio (x) = 2.48674 0.39911
# Poissons Ratio (y) = 2.48674 0.39911
# Poissons Ratio (z) = -0.45701 -0.45701
#
# Static dielectric constant tensor:
#      x y z
#    x 1.766600 0.000000 0.000000 
#    y 0.000000 1.766600 0.000000 
#    z 0.000000 0.000000 1.824460 
# 
# From -- ./inp_files/5270.got.cif
#   From: 2010.05.17/outbox.cif.g08.bks.cpg/sg124_3_cif.got.tgz:5270.got - 2010.05.20 11:49:17.
