data_PCOD9562831
_publ_section_title
;
Structure prediction by ZEFSAII (Michael W. Deem and Ramdas Pophale) SiO2 
 PCOD9562831
Probable space group: P 4/M C C
;
_chemical_formula_sum "Si O2"
_cell_formula_units_Z 40
_cell_length_a 10.550635
_cell_length_b 10.550635
_cell_length_c 16.230254
_cell_angle_alpha 90.000000
_cell_angle_beta 90.000000
_cell_angle_gamma 90.000000
_cell_volume 1806.685313
_symmetry_space_group_name_H-M "P 4/M C C"
_symmetry_group_IT_number 124
_symmetry_cell_setting 'tetragonal'
loop_
_space_group_symop_operation_xyz
x,y,z
-y,x,z
-x,-y,z
y,-x,z
x,-y,1/2-z
-x,y,1/2-z
y,x,1/2-z
-y,-x,1/2-z
-x,-y,-z
y,-x,-z
x,y,-z
-y,x,-z
-x,y,1/2+z
x,-y,1/2+z
-y,-x,1/2+z
y,x,1/2+z
loop_
_atom_site_type_symbol
_atom_site_label
_atom_site_fract_x
_atom_site_fract_y
_atom_site_fract_z
Si Si1 0.376325 0.667895 0.651835
Si Si2 0.355733 0.051704 0.909281
Si Si3 0.000000 0.210161 0.750000
O O1 0.331061 0.526893 0.629548
O O2 0.339672 0.660329 0.750000
O O3 0.334964 0.798247 0.609740
O O4 0.292237 0.986845 0.831553
O O5 0.500000 0.000000 0.909232
O O6 0.303009 0.023237 0.000000
O O7 0.120513 0.120513 0.750000
#
# Coordination Sequence:
#
# PCOD9562831 Si02
#       3
#    16  16   8
#     4   9  20  39  67 103 138 177 221 272 341 415
#     4  11  26  43  68 103 137 178 227 282 345 411
#     4  11  27  48  70  94 129 183 236 284 334 397
#
# _framework density 22.139993
#
# number of rings (size 3 to 8) (size 9 to 14) (size 15 to 20)
#    0.000    1.800    0.000    3.000   16.800    3.200 
#    0.000    4.000    0.000    0.000    0.000    0.000 
#    0.000    0.000    0.000    0.000    0.000    0.000 
#
# Total GULP energy -222996.478700 kJ/mol
# GULP energy per Si atom -5574.911968 kJ/mol
# Density = 2.208960 g / cm^3
# Si number density = 22.139993 Si / 1000 Ang^3
#
#
#
# Elastic Constant Matrix: (Units=GPa)
#
#
# Indices 1 2 3 4 5 6 
#
# 1 59.0246 13.6119 57.7120 0.0000 0.0000 0.0000
# 2 13.6119 59.0245 57.7119 0.0000 0.0000 0.0000
# 3 57.7120 57.7119 177.1048 0.0000 0.0000 0.0000
# 4 0.0000 0.0000 0.0000 6.0416 0.0000 0.0000
# 5 0.0000 0.0000 0.0000 0.0000 6.0419 0.0000
# 6 0.0000 0.0000 0.0000 0.0000 0.0000 10.4334
#
#
#
# Elastic Compliance Matrix: (Units=1/GPa)
#
#
# Indices 1 2 3 4 5 6 
#
# 1 0.025286 0.003266 -0.009304 0.000000 0.000000 0.000000
# 2 0.003266 0.025286 -0.009304 0.000000 0.000000 0.000000
# 3 -0.009304 -0.009304 0.011710 0.000000 0.000000 0.000000
# 4 0.000000 0.000000 0.000000 0.165518 0.000000 0.000000
# 5 0.000000 0.000000 0.000000 0.000000 0.165510 0.000000
# 6 0.000000 0.000000 0.000000 0.000000 0.000000 0.095846
#
#
# Mechanical properties :
#
#
# Convention : Reuss Voigt Hill
#
# Bulk Modulus (GPa) = 31.64789 61.46950 46.55870
# Shear Modulus (GPa) = 9.42734 15.57794 12.50264
#
# Velocity S-wave (km/s) = 2.06574 2.65544 2.37894
# Velocity P-wave (km/s) = 4.47384 6.10132 5.34983
#
# Compressibility (1/GPa) = 0.03159768
#
# Stress axis : x y z
#
# Youngs Moduli (GPa) = 39.54757 39.54746 85.39696
#
# Poissons Ratio (x) = -0.12915 0.79453
# Poissons Ratio (y) = -0.12915 0.79453
# Poissons Ratio (z) = 0.36795 0.36795
#
# Static dielectric constant tensor:
#      x y z
#    x 1.861290 0.000000 0.000000 
#    y 0.000000 1.861290 0.000000 
#    z 0.000000 0.000000 1.838670 
# 
# From -- ./inp_files/2712.got.cif
#   From: 2010.05.17/outbox.cif.g08.bks.cpg/sg124_2_cif.got.tgz:2712.got - 2010.05.20 11:49:17.
