data_PCOD9562373
_publ_section_title
;
Structure prediction by ZEFSAII (Michael W. Deem and Ramdas Pophale) SiO2 
 PCOD9562373
Probable space group: P 4/M C C
;
_chemical_formula_sum "Si O2"
_cell_formula_units_Z 96
_cell_length_a 26.297547
_cell_length_b 26.297547
_cell_length_c 8.795374
_cell_angle_alpha 90.000000
_cell_angle_beta 90.000000
_cell_angle_gamma 90.000000
_cell_volume 6082.537447
_symmetry_space_group_name_H-M "P 4/M C C"
_symmetry_group_IT_number 124
_symmetry_cell_setting 'tetragonal'
loop_
_space_group_symop_operation_xyz
x,y,z
-y,x,z
-x,-y,z
y,-x,z
x,-y,1/2-z
-x,y,1/2-z
y,x,1/2-z
-y,-x,1/2-z
-x,-y,-z
y,-x,-z
x,y,-z
-y,x,-z
-x,y,1/2+z
x,-y,1/2+z
-y,-x,1/2+z
y,x,1/2+z
loop_
_atom_site_type_symbol
_atom_site_label
_atom_site_fract_x
_atom_site_fract_y
_atom_site_fract_z
Si Si1 0.637819 0.867874 0.172075
Si Si2 0.453226 0.211167 0.829366
Si Si3 0.056637 0.443901 0.816506
Si Si4 0.217201 0.705628 0.319304
Si Si5 0.708704 0.609127 0.825755
Si Si6 0.623665 0.447833 0.175098
O O1 0.594510 0.825160 0.157892
O O2 0.605628 0.910516 0.263987
O O3 0.684596 0.835924 0.247550
O O4 0.651028 0.885153 0.000000
O O5 0.500000 0.183725 0.750000
O O6 0.437060 0.253024 0.707127
O O7 0.463898 0.230434 0.000000
O O8 0.072120 0.500000 0.750000
O O9 0.000000 0.436344 0.750000
O O10 0.056973 0.447157 0.000000
O O11 0.243917 0.756084 0.250000
O O12 0.210418 0.711698 0.500000
O O13 0.259222 0.660348 0.298056
O O14 0.665255 0.595773 0.706519
O O15 0.690444 0.608513 0.000000
O O16 0.641088 0.500000 0.250000
O O17 0.572127 0.427874 0.250000
O O18 0.616410 0.455928 0.000000
#
# Coordination Sequence:
#
# PCOD9562373 Si02
#       6
#    16  16  16  16  16  16
#     4  10  20  33  48  67  91 120 154 190 229 273
#     4  10  19  29  43  63  88 115 141 172 209 251
#     4  11  21  34  51  71  96 126 161 199 241 287
#     4  10  20  33  50  71  95 122 150 181 219 263
#     4  10  20  34  51  70  90 111 134 160 194 238
#     4  12  25  41  57  71  84  98 118 144 179 223
#
# _framework density 15.782888
#
# number of rings (size 3 to 8) (size 9 to 14) (size 15 to 20)
#    0.000    1.500    0.000    7.000    0.000    6.833 
#    0.000    0.833    0.000    0.000    0.000    0.000 
#    0.000    0.000    0.000    0.000    0.000    0.000 
#
# Total GULP energy -534842.406205 kJ/mol
# GULP energy per Si atom -5571.275065 kJ/mol
# Density = 1.574696 g / cm^3
# Si number density = 15.782888 Si / 1000 Ang^3
#
#
#
# Elastic Constant Matrix: (Units=GPa)
#
#
# Indices 1 2 3 4 5 6 
#
# 1 53.1218 32.8327 34.8748 0.0000 0.0000 0.0000
# 2 32.8327 53.1199 34.8719 0.0000 0.0000 0.0000
# 3 34.8748 34.8719 120.5381 0.0000 0.0000 0.0000
# 4 0.0000 0.0000 0.0000 31.4634 0.0000 0.0000
# 5 0.0000 0.0000 0.0000 0.0000 31.4677 0.0000
# 6 0.0000 0.0000 0.0000 0.0000 0.0000 20.4310
#
#
#
# Elastic Compliance Matrix: (Units=1/GPa)
#
#
# Indices 1 2 3 4 5 6 
#
# 1 0.032247 -0.017043 -0.004399 0.000000 0.000000 0.000000
# 2 -0.017043 0.032247 -0.004398 0.000000 0.000000 0.000000
# 3 -0.004399 -0.004398 0.010841 0.000000 0.000000 0.000000
# 4 0.000000 0.000000 0.000000 0.031783 0.000000 0.000000
# 5 0.000000 0.000000 0.000000 0.000000 0.031779 0.000000
# 6 0.000000 0.000000 0.000000 0.000000 0.000000 0.048945
#
#
# Mechanical properties :
#
#
# Convention : Reuss Voigt Hill
#
# Bulk Modulus (GPa) = 42.27647 47.99316 45.13482
# Shear Modulus (GPa) = 20.20966 24.95246 22.58106
#
# Velocity S-wave (km/s) = 3.58226 3.98047 3.78660
# Velocity P-wave (km/s) = 6.62982 7.18331 6.91211
#
# Compressibility (1/GPa) = 0.02365382
#
# Stress axis : x y z
#
# Youngs Moduli (GPa) = 31.01112 31.01097 92.24034
#
# Poissons Ratio (x) = 0.52853 0.40578
# Poissons Ratio (y) = 0.52853 0.40567
# Poissons Ratio (z) = 0.13642 0.13639
#
# Static dielectric constant tensor:
#      x y z
#    x 1.653860 0.000000 0.000000 
#    y 0.000000 1.654470 0.000000 
#    z 0.000000 0.000000 1.555920 
# 
# From -- ./inp_files/1559.got.cif
#   From: 2010.05.17/outbox.cif.g08.bks.cpg/sg124_1_cif.got.tgz:1559.got - 2010.05.20 11:49:17.
