data_PCOD9562174
_publ_section_title
;
Structure prediction by ZEFSAII (Michael W. Deem and Ramdas Pophale) SiO2 
 PCOD9562174
Probable space group: P 4/M M M
;
_chemical_formula_sum "Si O2"
_cell_formula_units_Z 96
_cell_length_a 24.730780
_cell_length_b 24.730780
_cell_length_c 8.607878
_cell_angle_alpha 90.000000
_cell_angle_beta 90.000000
_cell_angle_gamma 90.000000
_cell_volume 5264.676998
_symmetry_space_group_name_H-M "P 4/M M M"
_symmetry_group_IT_number 123
_symmetry_cell_setting 'tetragonal'
loop_
_space_group_symop_operation_xyz
x,y,z
-y,x,z
-x,-y,z
y,-x,z
x,-y,-z
-x,y,-z
y,x,-z
-y,-x,-z
-x,-y,-z
y,-x,-z
x,y,-z
-y,x,-z
-x,y,z
x,-y,z
-y,-x,z
y,x,z
loop_
_atom_site_type_symbol
_atom_site_label
_atom_site_fract_x
_atom_site_fract_y
_atom_site_fract_z
Si Si1 0.061373 0.850797 0.187414
Si Si2 0.938563 0.269749 0.687723
Si Si3 0.769493 0.561560 0.185444
Si Si4 0.639430 0.858648 0.322266
Si Si5 0.563435 0.064086 0.173348
Si Si6 0.561414 0.350867 0.687640
O O1 0.105692 0.894309 0.238351
O O2 0.069864 0.791726 0.259655
O O3 0.000000 0.868026 0.226415
O O4 0.064409 0.846046 0.000000
O O5 0.938535 0.272982 0.500000
O O6 0.889295 0.307634 0.744138
O O7 0.000000 0.286013 0.739505
O O8 0.785650 0.500000 0.238105
O O9 0.808824 0.609269 0.241317
O O10 0.708856 0.571011 0.245974
O O11 0.769774 0.560842 0.000000
O O12 0.650115 0.843627 0.500000
O O13 0.595426 0.906215 0.306411
O O14 0.500000 0.075796 0.182629
O O15 0.570329 0.000000 0.181601
O O16 0.581839 0.082197 0.000000
O O17 0.563742 0.347804 0.500000
O O18 0.500000 0.366903 0.730436
O O19 0.605617 0.394384 0.739980
#
# Coordination Sequence:
#
# PCOD9562174 Si02
#       6
#    16  16  16  16  16  16
#     4   9  18  33  54  80 107 133 162 198 243 297
#     4   9  19  35  52  72 101 135 170 210 255 301
#     4  10  21  36  53  74 103 139 177 217 260 305
#     4  11  21  32  49  72  97 130 174 219 262 307
#     4   9  18  31  45  64  93 127 163 208 262 314
#     4   9  18  34  57  84 112 139 167 203 250 305
#
# _framework density 18.234736000000002
#
# number of rings (size 3 to 8) (size 9 to 14) (size 15 to 20)
#    0.000    2.500    0.000    2.500    0.000    6.667 
#    0.000    5.000    0.000    1.000    0.000    4.667 
#    0.000    0.000    0.000    0.000    0.000    0.000 
#
# Total GULP energy -535047.390596 kJ/mol
# GULP energy per Si atom -5573.410319 kJ/mol
# Density = 1.819323 g / cm^3
# Si number density = 18.234736 Si / 1000 Ang^3
#
#
#
# Elastic Constant Matrix: (Units=GPa)
#
#
# Indices 1 2 3 4 5 6 
#
# 1 116.3892 92.1827 22.1413 0.0000 0.0000 0.0000
# 2 92.1827 116.3892 22.1413 0.0000 0.0000 0.0000
# 3 22.1413 22.1413 13.0973 0.0000 0.0000 0.0000
# 4 0.0000 0.0000 0.0000 21.3392 0.0000 0.0000
# 5 0.0000 0.0000 0.0000 0.0000 21.3392 0.0000
# 6 0.0000 0.0000 0.0000 0.0000 0.0000 38.1127
#
#
#
# Elastic Compliance Matrix: (Units=1/GPa)
#
#
# Indices 1 2 3 4 5 6 
#
# 1 0.024395 -0.016916 -0.012643 0.000000 0.000000 0.000000
# 2 -0.016916 0.024395 -0.012643 0.000000 0.000000 0.000000
# 3 -0.012643 -0.012643 0.119099 0.000000 0.000000 0.000000
# 4 0.000000 0.000000 0.000000 0.046862 0.000000 0.000000
# 5 0.000000 0.000000 0.000000 0.000000 0.046862 0.000000
# 6 0.000000 0.000000 0.000000 0.000000 0.000000 0.026238
#
#
# Mechanical properties :
#
#
# Convention : Reuss Voigt Hill
#
# Bulk Modulus (GPa) = 11.97831 57.64514 34.81172
# Shear Modulus (GPa) = 12.49734 23.45221 17.97477
#
# Velocity S-wave (km/s) = 2.62078 3.59015 3.14306
# Velocity P-wave (km/s) = 3.96751 6.99050 5.68367
#
# Compressibility (1/GPa) = 0.08348425
#
# Stress axis : x y z
#
# Youngs Moduli (GPa) = 40.99196 40.99196 8.39634
#
# Poissons Ratio (x) = 0.69343 0.10616
# Poissons Ratio (y) = 0.69343 0.10616
# Poissons Ratio (z) = 0.51827 0.51827
#
# Static dielectric constant tensor:
#      x y z
#    x 1.624550 0.000000 0.000000 
#    y 0.000000 1.624550 0.000000 
#    z 0.000000 0.000000 1.647650 
# 
# From -- ./inp_files/1643.got.cif
#   From: 2010.05.17/outbox.cif.g08.bks.cpg/sg123_1_cif.got.tgz:1643.got - 2010.05.20 11:43:04.
