data_PCOD9562078
_publ_section_title
;
Structure prediction by ZEFSAII (Michael W. Deem and Ramdas Pophale) SiO2 
 PCOD9562078
Probable space group: P 4/M M M
;
_chemical_formula_sum "Si O2"
_cell_formula_units_Z 76
_cell_length_a 17.391947
_cell_length_b 17.391947
_cell_length_c 15.736298
_cell_angle_alpha 90.000000
_cell_angle_beta 90.000000
_cell_angle_gamma 90.000000
_cell_volume 4759.912594
_symmetry_space_group_name_H-M "P 4/M M M"
_symmetry_group_IT_number 123
_symmetry_cell_setting 'tetragonal'
loop_
_space_group_symop_operation_xyz
x,y,z
-y,x,z
-x,-y,z
y,-x,z
x,-y,-z
-x,y,-z
y,x,-z
-y,-x,-z
-x,-y,-z
y,-x,-z
x,y,-z
-y,x,-z
-x,y,z
x,-y,z
-y,-x,z
y,x,z
loop_
_atom_site_type_symbol
_atom_site_label
_atom_site_fract_x
_atom_site_fract_y
_atom_site_fract_z
Si Si1 0.859608 0.333581 0.654951
Si Si2 0.090619 0.222599 0.500000
Si Si3 0.589644 0.410357 0.500000
Si Si4 0.500000 0.906738 0.099958
Si Si5 0.693251 0.306750 0.597320
Si Si6 0.092940 0.221158 0.000000
Si Si7 0.331979 0.907515 0.158253
Si Si8 0.500000 0.908848 0.404350
O O1 0.893118 0.276606 0.582589
O O2 0.768634 0.336011 0.642411
O O3 0.880181 0.306595 0.749128
O O4 0.888221 0.420537 0.640903
O O5 0.150007 0.150007 0.500000
O O6 0.000000 0.200626 0.500000
O O7 0.604790 0.500000 0.500000
O O8 0.629395 0.370606 0.580901
O O9 0.419339 0.879642 0.139653
O O10 0.500000 0.000000 0.107018
O O11 0.500000 0.888642 0.000000
O O12 0.715963 0.284038 0.500000
O O13 0.112153 0.273448 0.917503
O O14 0.144144 0.144144 0.000000
O O15 0.000000 0.207046 0.000000
O O16 0.335542 0.000000 0.159802
O O17 0.500000 0.874376 0.500000
O O18 0.500000 0.000000 0.411780
#
# Coordination Sequence:
#
# PCOD9562078 Si02
#       8
#    16   8   4   8   8   8  16   8
#     4  12  21  36  53  80 111 144 173 214 272 330
#     4  12  23  39  55  73 104 142 186 231 269 313
#     4   9  20  38  60  76  96 144 197 228 256 300
#     4   9  15  31  53  76 107 133 160 200 252 320
#     4  10  21  36  54  77 109 141 174 214 271 309
#     4  10  22  38  55  77 101 135 182 234 277 312
#     4  10  20  33  54  79 105 139 174 210 261 324
#     4  11  21  31  51  80 111 143 172 213 262 320
#
# _framework density 15.96668
#
# number of rings (size 3 to 8) (size 9 to 14) (size 15 to 20)
#    0.316    1.105    4.211    2.526    2.947    1.053 
#    0.000    0.000    0.000    0.000    0.000    2.947 
#    0.000    0.000    0.000    0.000    0.000    5.684 
#
# Total GULP energy -423705.449387 kJ/mol
# GULP energy per Si atom -5575.071702 kJ/mol
# Density = 1.593034 g / cm^3
# Si number density = 15.966680 Si / 1000 Ang^3
#
#
#
# Elastic Constant Matrix: (Units=GPa)
#
#
# Indices 1 2 3 4 5 6 
#
# 1 91.7418 59.4971 39.8565 0.0000 0.0000 0.0000
# 2 59.4971 91.7419 39.8564 0.0000 0.0000 0.0000
# 3 39.8565 39.8564 131.8915 0.0000 0.0000 0.0000
# 4 0.0000 0.0000 0.0000 4.7825 0.0000 0.0000
# 5 0.0000 0.0000 0.0000 0.0000 4.7934 0.0000
# 6 0.0000 0.0000 0.0000 0.0000 0.0000 18.2898
#
#
#
# Elastic Compliance Matrix: (Units=1/GPa)
#
#
# Indices 1 2 3 4 5 6 
#
# 1 0.019439 -0.011574 -0.002377 0.000000 0.000000 0.000000
# 2 -0.011574 0.019439 -0.002377 0.000000 0.000000 0.000000
# 3 -0.002377 -0.002377 0.009018 0.000000 0.000000 0.000000
# 4 0.000000 0.000000 0.000000 0.209098 0.000000 0.000000
# 5 0.000000 0.000000 0.000000 0.000000 0.208619 0.000000
# 6 0.000000 0.000000 0.000000 0.000000 0.000000 0.054675
#
#
# Mechanical properties :
#
#
# Convention : Reuss Voigt Hill
#
# Bulk Modulus (GPa) = 65.61154 65.97724 65.79439
# Shear Modulus (GPa) = 8.96021 17.31749 13.13885
#
# Velocity S-wave (km/s) = 2.37150 3.29690 2.87172
# Velocity P-wave (km/s) = 6.97715 7.47692 7.23135
#
# Compressibility (1/GPa) = 0.01524122
#
# Stress axis : x y z
#
# Youngs Moduli (GPa) = 51.44360 51.44372 110.88458
#
# Poissons Ratio (x) = 0.59541 0.26354
# Poissons Ratio (y) = 0.59541 0.26353
# Poissons Ratio (z) = 0.12226 0.12226
#
# Static dielectric constant tensor:
#      x y z
#    x 1.525240 0.000000 0.000000 
#    y 0.000000 1.525240 0.000000 
#    z 0.000000 0.000000 1.559930 
# 
# From -- ./inp_files/4027.got.cif
#   From: 2010.05.17/outbox.cif.g08.bks.cpg/sg123_3_cif.got.tgz:4027.got - 2010.05.20 11:43:04.
