data_PCOD9562319
_publ_section_title
;
Structure prediction by ZEFSAII (Michael W. Deem and Ramdas Pophale) SiO2 
 PCOD9562319
Probable space group: P 4/M C C
;
_chemical_formula_sum "Si O2"
_cell_formula_units_Z 64
_cell_length_a 22.529913
_cell_length_b 22.529913
_cell_length_c 5.564863
_cell_angle_alpha 90.000000
_cell_angle_beta 90.000000
_cell_angle_gamma 90.000000
_cell_volume 2824.707652
_symmetry_space_group_name_H-M "P 4/M C C"
_symmetry_group_IT_number 124
_symmetry_cell_setting 'tetragonal'
loop_
_space_group_symop_operation_xyz
x,y,z
-y,x,z
-x,-y,z
y,-x,z
x,-y,1/2-z
-x,y,1/2-z
y,x,1/2-z
-y,-x,1/2-z
-x,-y,-z
y,-x,-z
x,y,-z
-y,x,-z
-x,y,1/2+z
x,-y,1/2+z
-y,-x,1/2+z
y,x,1/2+z
loop_
_atom_site_type_symbol
_atom_site_label
_atom_site_fract_x
_atom_site_fract_y
_atom_site_fract_z
Si Si1 0.821405 0.482197 0.000000
Si Si2 0.145658 0.333406 0.000000
Si Si3 0.182589 0.723839 0.000000
Si Si4 0.031314 0.738032 0.000000
Si Si5 0.622456 0.266400 0.500000
Si Si6 0.412101 0.734654 0.000000
Si Si7 0.836117 0.868005 0.000000
Si Si8 0.984294 0.393136 0.500000
O O1 0.852220 0.500000 0.250000
O O2 0.796709 0.415430 0.000000
O O3 0.760798 0.521672 0.000000
O O4 0.150369 0.297987 0.252655
O O5 0.083608 0.369313 0.000000
O O6 0.204280 0.373850 0.000000
O O7 0.190802 0.794703 0.000000
O O8 0.246124 0.690454 0.000000
O O9 0.000000 0.753514 0.750000
O O10 0.085948 0.782612 0.000000
O O11 0.027338 0.666072 0.000000
O O12 0.603797 0.295944 0.749757
O O13 0.870767 0.870767 0.250000
O O14 0.000000 0.424191 0.250000
#
# Coordination Sequence:
#
# PCOD9562319 Si02
#       8
#     8   8   8   8   8   8   8   8
#     4   8  12  20  31  50  76  99 126 164 202 226
#     4  10  17  28  44  64  84 107 136 162 189 222
#     4  10  18  30  44  60  85 113 138 160 185 228
#     4  10  19  34  53  70  89 114 137 160 186 222
#     4   8  14  22  36  53  74 103 136 164 188 223
#     4   8  14  21  34  54  80 101 124 164 202 227
#     4  12  24  36  50  72 100 120 134 159 200 240
#     4  10  18  27  42  61  80 101 131 163 188 214
#
# _framework density 22.657212999999999
#
# number of rings (size 3 to 8) (size 9 to 14) (size 15 to 20)
#    0.000    2.500    0.000    5.250    0.000    0.000 
#    0.000    0.000    0.000    0.000    0.000    0.000 
#    0.000  115.500    0.000    0.000    0.000    0.000 
#
# Total GULP energy -356934.355128 kJ/mol
# GULP energy per Si atom -5577.099299 kJ/mol
# Density = 2.260564 g / cm^3
# Si number density = 22.657213 Si / 1000 Ang^3
#
#
#
# Elastic Constant Matrix: (Units=GPa)
#
#
# Indices 1 2 3 4 5 6 
#
# 1 29.6963 9.6711 13.1767 0.0000 0.0000 0.0000
# 2 9.6711 29.6963 13.1767 0.0000 0.0000 0.0000
# 3 13.1767 13.1767 274.4134 0.0000 0.0000 0.0000
# 4 0.0000 0.0000 0.0000 19.8864 0.0000 0.0000
# 5 0.0000 0.0000 0.0000 0.0000 19.8864 0.0000
# 6 0.0000 0.0000 0.0000 0.0000 0.0000 8.9017
#
#
#
# Elastic Compliance Matrix: (Units=1/GPa)
#
#
# Indices 1 2 3 4 5 6 
#
# 1 0.038091 -0.011846 -0.001260 0.000000 0.000000 0.000000
# 2 -0.011846 0.038091 -0.001260 0.000000 0.000000 0.000000
# 3 -0.001260 -0.001260 0.003765 0.000000 0.000000 0.000000
# 4 0.000000 0.000000 0.000000 0.050286 0.000000 0.000000
# 5 0.000000 0.000000 0.000000 0.000000 0.050286 0.000000
# 6 0.000000 0.000000 0.000000 0.000000 0.000000 0.112338
#
#
# Mechanical properties :
#
#
# Convention : Reuss Voigt Hill
#
# Bulk Modulus (GPa) = 19.52556 45.09500 32.31028
# Shear Modulus (GPa) = 14.76399 29.58697 22.17548
#
# Velocity S-wave (km/s) = 2.55546 3.61758 3.13187
# Velocity P-wave (km/s) = 4.16458 6.11519 5.23160
#
# Compressibility (1/GPa) = 0.05121491
#
# Stress axis : x y z
#
# Youngs Moduli (GPa) = 26.25273 26.25273 265.59259
#
# Poissons Ratio (x) = 0.31099 0.33471
# Poissons Ratio (y) = 0.31099 0.33471
# Poissons Ratio (z) = 0.03308 0.03308
#
# Static dielectric constant tensor:
#      x y z
#    x 1.897760 0.000000 0.000000 
#    y 0.000000 1.897760 0.000000 
#    z 0.000000 0.000000 2.001170 
# 
# From -- ./inp_files/89.got.cif
#   From: 2010.05.17/outbox.cif.g08.bks.cpg/sg124_1_cif.got.tgz:89.got - 2010.05.20 11:49:17.
