data_PCOD9562055
_publ_section_title
;
Structure prediction by ZEFSAII (Michael W. Deem and Ramdas Pophale) SiO2 
 PCOD9562055
Probable space group: P 4/M M M
;
_chemical_formula_sum "Si O2"
_cell_formula_units_Z 72
_cell_length_a 13.508236
_cell_length_b 13.508236
_cell_length_c 23.408188
_cell_angle_alpha 90.000000
_cell_angle_beta 90.000000
_cell_angle_gamma 90.000000
_cell_volume 4271.349176
_symmetry_space_group_name_H-M "P 4/M M M"
_symmetry_group_IT_number 123
_symmetry_cell_setting 'tetragonal'
loop_
_space_group_symop_operation_xyz
x,y,z
-y,x,z
-x,-y,z
y,-x,z
x,-y,-z
-x,y,-z
y,x,-z
-y,-x,-z
-x,-y,-z
y,-x,-z
x,y,-z
-y,x,-z
-x,y,z
x,-y,z
-y,-x,z
y,x,z
loop_
_atom_site_type_symbol
_atom_site_label
_atom_site_fract_x
_atom_site_fract_y
_atom_site_fract_z
Si Si1 0.116031 0.278952 0.933323
Si Si2 0.618321 0.220428 0.617947
Si Si3 0.619873 0.112922 0.500000
Si Si4 0.718720 0.883064 0.724566
Si Si5 0.780350 0.616135 0.831536
O O1 0.177328 0.177328 0.924634
O O2 0.164510 0.357398 0.890605
O O3 0.000000 0.266309 0.921320
O O4 0.127091 0.306846 0.000000
O O5 0.500000 0.231563 0.620334
O O6 0.675871 0.324129 0.623357
O O7 0.646982 0.170434 0.557624
O O8 0.656706 0.151329 0.669198
O O9 0.500000 0.108395 0.500000
O O10 0.657051 0.000000 0.500000
O O11 0.820600 0.820600 0.724059
O O12 0.658413 0.847563 0.780243
O O13 0.734109 0.000000 0.724990
O O14 0.764475 0.500000 0.825303
O O15 0.678834 0.678834 0.830026
#
# Coordination Sequence:
#
# PCOD9562055 Si02
#       5
#    16  16   8  16  16
#     4   9  18  32  50  74 103 133 166 204 246 294
#     4  10  20  33  50  74 103 135 172 211 251 298
#     4   9  17  30  49  71  95 127 167 209 252 295
#     4  10  21  36  54  77 103 131 165 204 247 297
#     4  10  21  36  53  74 100 130 166 207 249 295
#
# _framework density 16.8565
#
# number of rings (size 3 to 8) (size 9 to 14) (size 15 to 20)
#    0.000    2.333    0.000    2.333    0.000    5.333 
#    0.000    2.222    0.000   10.000    0.000    3.111 
#    0.000    8.000    0.000    0.000    0.000    0.000 
#
# Total GULP energy -401686.156631 kJ/mol
# GULP energy per Si atom -5578.974398 kJ/mol
# Density = 1.681813 g / cm^3
# Si number density = 16.856500 Si / 1000 Ang^3
#
#
#
# Elastic Constant Matrix: (Units=GPa)
#
#
# Indices 1 2 3 4 5 6 
#
# 1 150.5941 53.2140 59.0183 0.0000 0.0000 0.0000
# 2 53.2140 150.5941 59.0183 0.0000 0.0000 0.0000
# 3 59.0183 59.0183 96.0021 0.0000 0.0000 0.0000
# 4 0.0000 0.0000 0.0000 21.8278 0.0000 0.0000
# 5 0.0000 0.0000 0.0000 0.0000 21.8278 0.0000
# 6 0.0000 0.0000 0.0000 0.0000 0.0000 4.1695
#
#
#
# Elastic Compliance Matrix: (Units=1/GPa)
#
#
# Indices 1 2 3 4 5 6 
#
# 1 0.008944 -0.001325 -0.004684 0.000000 0.000000 0.000000
# 2 -0.001325 0.008944 -0.004684 0.000000 0.000000 0.000000
# 3 -0.004684 -0.004684 0.016176 0.000000 0.000000 0.000000
# 4 0.000000 0.000000 0.000000 0.045813 0.000000 0.000000
# 5 0.000000 0.000000 0.000000 0.000000 0.045813 0.000000
# 6 0.000000 0.000000 0.000000 0.000000 0.000000 0.239837
#
#
# Mechanical properties :
#
#
# Convention : Reuss Voigt Hill
#
# Bulk Modulus (GPa) = 78.87665 82.18795 80.53230
# Shear Modulus (GPa) = 12.78316 24.62767 18.70541
#
# Velocity S-wave (km/s) = 2.75681 3.82647 3.33481
# Velocity P-wave (km/s) = 7.55168 8.26957 7.91877
#
# Compressibility (1/GPa) = 0.01267802
#
# Stress axis : x y z
#
# Youngs Moduli (GPa) = 111.80402 111.80402 61.82132
#
# Poissons Ratio (x) = 0.14812 0.28958
# Poissons Ratio (y) = 0.14812 0.28958
# Poissons Ratio (z) = 0.52370 0.52370
#
# Static dielectric constant tensor:
#      x y z
#    x 1.542540 0.000000 0.000000 
#    y 0.000000 1.542540 0.000000 
#    z 0.000000 0.000000 1.577490 
# 
# From -- ./inp_files/7804.got.cif
#   From: 2010.05.17/outbox.cif.g08.bks.cpg/sg123_4_cif.got.tgz:7804.got - 2010.05.20 11:43:04.
