data_PCOD9562793
_publ_section_title
;
Structure prediction by ZEFSAII (Michael W. Deem and Ramdas Pophale) SiO2 
 PCOD9562793
Probable space group: P 4/M C C
;
_chemical_formula_sum "Si O2"
_cell_formula_units_Z 88
_cell_length_a 14.663399
_cell_length_b 14.663399
_cell_length_c 18.481886
_cell_angle_alpha 90.000000
_cell_angle_beta 90.000000
_cell_angle_gamma 90.000000
_cell_volume 3973.887713
_symmetry_space_group_name_H-M "P 4/M C C"
_symmetry_group_IT_number 124
_symmetry_cell_setting 'tetragonal'
loop_
_space_group_symop_operation_xyz
x,y,z
-y,x,z
-x,-y,z
y,-x,z
x,-y,1/2-z
-x,y,1/2-z
y,x,1/2-z
-y,-x,1/2-z
-x,-y,-z
y,-x,-z
x,y,-z
-y,x,-z
-x,y,1/2+z
x,-y,1/2+z
-y,-x,1/2+z
y,x,1/2+z
loop_
_atom_site_type_symbol
_atom_site_label
_atom_site_fract_x
_atom_site_fract_y
_atom_site_fract_z
Si Si1 0.500000 0.754260 0.250000
Si Si2 0.267987 0.246491 0.081739
Si Si3 0.124204 0.638037 0.323617
Si Si4 0.576944 0.366978 0.363737
Si Si5 0.062142 0.689262 0.162790
Si Si6 0.000437 0.847503 0.079554
O O1 0.546430 0.818190 0.309832
O O2 0.425416 0.690595 0.288714
O O3 0.189883 0.294499 0.131029
O O4 0.359622 0.307259 0.085254
O O5 0.299027 0.147952 0.110512
O O6 0.233916 0.240668 0.000000
O O7 0.102602 0.674551 0.242352
O O8 0.021735 0.620544 0.353285
O O9 0.617827 0.468377 0.370794
O O10 0.006966 0.782531 0.147812
O O11 0.913265 0.912253 0.081912
O O12 0.000113 0.800943 0.000000
#
# Coordination Sequence:
#
# PCOD9562793 Si02
#       6
#     8  16  16  16  16  16
#     4  12  22  48  76 100 140 178 236 292 354 434
#     4  12  26  46  71 105 149 191 238 294 356 434
#     4  11  26  45  71 101 139 190 240 294 352 416
#     4  11  24  44  76 110 137 171 222 293 369 429
#     4  11  23  40  65 102 138 182 237 292 343 408
#     4   9  18  35  61  93 131 178 230 286 350 413
#
# _framework density 22.144559999999998
#
# number of rings (size 3 to 8) (size 9 to 14) (size 15 to 20)
#    0.000    1.091    3.636    3.273    0.000    7.273 
#    0.000    0.909    0.000    5.455    0.000    0.000 
#    0.000    0.000    0.000    0.000    0.000    0.000 
#
# Total GULP energy -490842.175403 kJ/mol
# GULP energy per Si atom -5577.751993 kJ/mol
# Density = 2.209416 g / cm^3
# Si number density = 22.144560 Si / 1000 Ang^3
#
#
#
# Elastic Constant Matrix: (Units=GPa)
#
#
# Indices 1 2 3 4 5 6 
#
# 1 118.8069 57.6053 38.3474 0.0000 0.0000 0.0000
# 2 57.6053 118.8069 38.3474 0.0000 0.0000 0.0000
# 3 38.3474 38.3474 66.8450 0.0000 0.0000 0.0000
# 4 0.0000 0.0000 0.0000 8.1439 0.0000 0.0000
# 5 0.0000 0.0000 0.0000 0.0000 8.1439 0.0000
# 6 0.0000 0.0000 0.0000 0.0000 0.0000 26.7518
#
#
#
# Elastic Compliance Matrix: (Units=1/GPa)
#
#
# Indices 1 2 3 4 5 6 
#
# 1 0.011946 -0.004394 -0.004332 0.000000 0.000000 0.000000
# 2 -0.004394 0.011946 -0.004332 0.000000 0.000000 0.000000
# 3 -0.004332 -0.004332 0.019931 0.000000 0.000000 0.000000
# 4 0.000000 0.000000 0.000000 0.122791 0.000000 0.000000
# 5 0.000000 0.000000 0.000000 0.000000 0.122791 0.000000
# 6 0.000000 0.000000 0.000000 0.000000 0.000000 0.037381
#
#
# Mechanical properties :
#
#
# Convention : Reuss Voigt Hill
#
# Bulk Modulus (GPa) = 56.48066 63.67324 60.07695
# Shear Modulus (GPa) = 13.93520 19.95184 16.94352
#
# Velocity S-wave (km/s) = 2.51127 3.00489 2.76910
# Velocity P-wave (km/s) = 5.82833 6.39179 6.11656
#
# Compressibility (1/GPa) = 0.01770518
#
# Stress axis : x y z
#
# Youngs Moduli (GPa) = 83.71180 83.71180 50.17355
#
# Poissons Ratio (x) = 0.36780 0.21737
# Poissons Ratio (y) = 0.36780 0.21737
# Poissons Ratio (z) = 0.36268 0.36268
#
# Static dielectric constant tensor:
#      x y z
#    x 1.858180 0.000000 0.000000 
#    y 0.000000 1.858180 0.000000 
#    z 0.000000 0.000000 1.829540 
# 
# From -- ./inp_files/5217.got.cif
#   From: 2010.05.17/outbox.cif.g08.bks.cpg/sg124_3_cif.got.tgz:5217.got - 2010.05.20 11:49:17.
