data_PCOD9562033
_publ_section_title
;
Structure prediction by ZEFSAII (Michael W. Deem and Ramdas Pophale) SiO2 
 PCOD9562033
Probable space group: P 4/M M M
;
_chemical_formula_sum "Si O2"
_cell_formula_units_Z 72
_cell_length_a 19.292631
_cell_length_b 19.292631
_cell_length_c 10.998362
_cell_angle_alpha 90.000000
_cell_angle_beta 90.000000
_cell_angle_gamma 90.000000
_cell_volume 4093.652047
_symmetry_space_group_name_H-M "P 4/M M M"
_symmetry_group_IT_number 123
_symmetry_cell_setting 'tetragonal'
loop_
_space_group_symop_operation_xyz
x,y,z
-y,x,z
-x,-y,z
y,-x,z
x,-y,-z
-x,y,-z
y,x,-z
-y,-x,-z
-x,-y,-z
y,-x,-z
x,y,-z
-y,x,-z
-x,y,z
x,-y,z
-y,-x,z
y,x,z
loop_
_atom_site_type_symbol
_atom_site_label
_atom_site_fract_x
_atom_site_fract_y
_atom_site_fract_z
Si Si1 0.580016 0.811648 0.295348
Si Si2 0.421209 0.310069 0.855828
Si Si3 0.421358 0.305332 0.500000
Si Si4 0.699122 0.082464 0.359901
Si Si5 0.081788 0.196981 0.862255
O O1 0.500000 0.834939 0.296487
O O2 0.596171 0.770156 0.171860
O O3 0.587088 0.747363 0.388023
O O4 0.631371 0.872179 0.332075
O O5 0.500000 0.323088 0.810043
O O6 0.364817 0.364817 0.807425
O O7 0.423228 0.318897 0.000000
O O8 0.500000 0.332426 0.500000
O O9 0.365224 0.365224 0.500000
O O10 0.722220 0.097171 0.500000
O O11 0.753212 0.098628 0.251599
O O12 0.685029 0.000000 0.353515
O O13 0.129182 0.129182 0.853346
O O14 0.000000 0.180807 0.853828
O O15 0.093230 0.226564 0.000000
#
# Coordination Sequence:
#
# PCOD9562033 Si02
#       5
#    16  16   8  16  16
#     4  10  20  35  52  73 100 132 173 219 265 314
#     4   9  18  32  50  73 102 136 174 217 264 316
#     4  10  20  33  49  71  99 131 168 210 254 304
#     4  10  21  37  56  80 108 138 177 224 272 318
#     4   9  19  36  57  82 112 144 177 214 258 312
#
# _framework density 17.588208000000002
#
# number of rings (size 3 to 8) (size 9 to 14) (size 15 to 20)
#    0.000    2.444    1.111    0.667    0.000    4.111 
#    0.000    5.556    0.000    4.000    0.000    9.333 
#    0.000    0.000    0.000    0.000    0.000    0.000 
#
# Total GULP energy -400851.671434 kJ/mol
# GULP energy per Si atom -5567.384325 kJ/mol
# Density = 1.754818 g / cm^3
# Si number density = 17.588208 Si / 1000 Ang^3
#
#
#
# Elastic Constant Matrix: (Units=GPa)
#
#
# Indices 1 2 3 4 5 6 
#
# 1 64.0267 56.3351 51.1294 0.0000 0.0000 0.0000
# 2 56.3351 64.0267 51.1294 0.0000 0.0000 0.0000
# 3 51.1294 51.1294 106.2044 0.0000 0.0000 0.0000
# 4 0.0000 0.0000 0.0000 25.2992 0.0000 0.0000
# 5 0.0000 0.0000 0.0000 0.0000 25.2992 0.0000
# 6 0.0000 0.0000 0.0000 0.0000 0.0000 60.8878
#
#
#
# Elastic Compliance Matrix: (Units=1/GPa)
#
#
# Indices 1 2 3 4 5 6 
#
# 1 0.072035 -0.057977 -0.006768 0.000000 0.000000 0.000000
# 2 -0.057977 0.072035 -0.006768 0.000000 0.000000 0.000000
# 3 -0.006768 -0.006768 0.015932 0.000000 0.000000 0.000000
# 4 0.000000 0.000000 0.000000 0.039527 0.000000 0.000000
# 5 0.000000 0.000000 0.000000 0.000000 0.039527 0.000000
# 6 0.000000 0.000000 0.000000 0.000000 0.000000 0.016424
#
#
# Mechanical properties :
#
#
# Convention : Reuss Voigt Hill
#
# Bulk Modulus (GPa) = 58.90329 61.27175 60.08752
# Shear Modulus (GPa) = 12.37116 27.34152 19.85634
#
# Velocity S-wave (km/s) = 2.65500 3.94704 3.36364
# Velocity P-wave (km/s) = 6.55451 7.46221 7.02304
#
# Compressibility (1/GPa) = 0.01697698
#
# Stress axis : x y z
#
# Youngs Moduli (GPa) = 13.88206 13.88206 62.76508
#
# Poissons Ratio (x) = 0.80484 0.42480
# Poissons Ratio (y) = 0.80484 0.42480
# Poissons Ratio (z) = 0.09395 0.09395
#
# Static dielectric constant tensor:
#      x y z
#    x 1.575990 0.000000 0.000000 
#    y 0.000000 1.575990 0.000000 
#    z 0.000000 0.000000 1.773760 
# 
# From -- ./inp_files/2733.got.cif
#   From: 2010.05.17/outbox.cif.g08.bks.cpg/sg123_2_cif.got.tgz:2733.got - 2010.05.20 11:43:04.
