data_PCOD9562771
_publ_section_title
;
Structure prediction by ZEFSAII (Michael W. Deem and Ramdas Pophale) SiO2 
 PCOD9562771
Probable space group: P 4/M C C
;
_chemical_formula_sum "Si O2"
_cell_formula_units_Z 96
_cell_length_a 15.588598
_cell_length_b 15.588598
_cell_length_c 20.233316
_cell_angle_alpha 90.000000
_cell_angle_beta 90.000000
_cell_angle_gamma 90.000000
_cell_volume 4916.784564
_symmetry_space_group_name_H-M "P 4/M C C"
_symmetry_group_IT_number 124
_symmetry_cell_setting 'tetragonal'
loop_
_space_group_symop_operation_xyz
x,y,z
-y,x,z
-x,-y,z
y,-x,z
x,-y,1/2-z
-x,y,1/2-z
y,x,1/2-z
-y,-x,1/2-z
-x,-y,-z
y,-x,-z
x,y,-z
-y,x,-z
-x,y,1/2+z
x,-y,1/2+z
-y,-x,1/2+z
y,x,1/2+z
loop_
_atom_site_type_symbol
_atom_site_label
_atom_site_fract_x
_atom_site_fract_y
_atom_site_fract_z
Si Si1 0.537908 0.223205 0.847063
Si Si2 0.039681 0.290517 0.676319
Si Si3 0.221187 0.640699 0.220353
Si Si4 0.058717 0.583657 0.574514
Si Si5 0.570352 0.374300 0.927968
Si Si6 0.027912 0.141431 0.426810
O O1 0.440041 0.247292 0.827011
O O2 0.588168 0.188128 0.784006
O O3 0.549446 0.151811 0.902806
O O4 0.587768 0.308230 0.870545
O O5 0.139373 0.316328 0.685759
O O6 0.037844 0.203413 0.634679
O O7 0.000000 0.284886 0.750000
O O8 0.984657 0.355274 0.629758
O O9 0.291587 0.708414 0.250000
O O10 0.062775 0.621380 0.500000
O O11 0.000000 0.500000 0.571929
O O12 0.610502 0.467945 0.924918
O O13 0.592088 0.337464 0.000000
O O14 0.036930 0.182875 0.500000
O O15 0.935065 0.096752 0.424000
#
# Coordination Sequence:
#
# PCOD9562771 Si02
#       6
#    16  16  16  16  16  16
#     4  11  21  40  61  83 122 163 204 253 311 371
#     4  12  24  39  63  91 128 163 204 257 315 373
#     4  11  25  39  58  88 123 161 207 252 306 369
#     4  11  23  40  62  90 120 161 212 257 311 376
#     4   9  18  34  58  87 117 152 199 254 310 367
#     4   9  21  43  67  92 124 162 205 256 315 376
#
# _framework density 19.524954999999999
#
# number of rings (size 3 to 8) (size 9 to 14) (size 15 to 20)
#    0.000    1.500    3.333    3.000    2.333    0.333 
#    0.000    0.833    0.000    6.000    0.000    0.000 
#    0.000    0.000    0.000    0.000    0.000    0.000 
#
# Total GULP energy -534829.658954 kJ/mol
# GULP energy per Si atom -5571.142281 kJ/mol
# Density = 1.948052 g / cm^3
# Si number density = 19.524955 Si / 1000 Ang^3
#
#
#
# Elastic Constant Matrix: (Units=GPa)
#
#
# Indices 1 2 3 4 5 6 
#
# 1 63.5534 12.5837 40.1595 0.0000 0.0000 0.0000
# 2 12.5837 63.5526 40.1592 0.0000 0.0000 0.0000
# 3 40.1595 40.1592 149.9312 0.0000 0.0000 0.0000
# 4 0.0000 0.0000 0.0000 22.2168 0.0000 0.0000
# 5 0.0000 0.0000 0.0000 0.0000 22.2166 0.0000
# 6 0.0000 0.0000 0.0000 0.0000 0.0000 -4.5808
#
#
#
# Elastic Compliance Matrix: (Units=1/GPa)
#
#
# Indices 1 2 3 4 5 6 
#
# 1 0.018963 -0.000656 -0.004904 0.000000 0.000000 0.000000
# 2 -0.000656 0.018964 -0.004904 0.000000 0.000000 0.000000
# 3 -0.004904 -0.004904 0.009297 0.000000 0.000000 0.000000
# 4 0.000000 0.000000 0.000000 0.045011 0.000000 0.000000
# 5 0.000000 0.000000 0.000000 0.000000 0.045011 0.000000
# 6 0.000000 0.000000 0.000000 0.000000 0.000000 -0.218301
#
#
# Mechanical properties :
#
#
# Convention : Reuss Voigt Hill
#
# Bulk Modulus (GPa) = 38.02774 51.42687 44.72731
# Shear Modulus (GPa) = -97.34717 20.24617 -38.55050
#
# Velocity S-wave (km/s) = -7.06867 3.22365 -4.44827
# Velocity P-wave (km/s) = 6.86314 6.34445 1.85075
#
# Compressibility (1/GPa) = 0.02629659
#
# Stress axis : x y z
#
# Youngs Moduli (GPa) = 52.73335 52.73270 107.56599
#
# Poissons Ratio (x) = 0.03460 0.52746
# Poissons Ratio (y) = 0.03460 0.52747
# Poissons Ratio (z) = 0.25858 0.25858
#
# Static dielectric constant tensor:
#      x y z
#    x 1.680590 0.000000 0.000000 
#    y 0.000000 1.680590 0.000000 
#    z 0.000000 0.000000 1.709190 
# 
# From -- ./inp_files/5289.got.cif
#   From: 2010.05.17/outbox.cif.g08.bks.cpg/sg124_3_cif.got.tgz:5289.got - 2010.05.20 11:49:17.
