data_PCOD9562651
_publ_section_title
;
Structure prediction by ZEFSAII (Michael W. Deem and Ramdas Pophale) SiO2 
 PCOD9562651
Probable space group: P 4/M C C
;
_chemical_formula_sum "Si O2"
_cell_formula_units_Z 112
_cell_length_a 15.453410
_cell_length_b 15.453410
_cell_length_c 24.206101
_cell_angle_alpha 90.000000
_cell_angle_beta 90.000000
_cell_angle_gamma 90.000000
_cell_volume 5780.607678
_symmetry_space_group_name_H-M "P 4/M C C"
_symmetry_group_IT_number 124
_symmetry_cell_setting 'tetragonal'
loop_
_space_group_symop_operation_xyz
x,y,z
-y,x,z
-x,-y,z
y,-x,z
x,-y,1/2-z
-x,y,1/2-z
y,x,1/2-z
-y,-x,1/2-z
-x,-y,-z
y,-x,-z
x,y,-z
-y,x,-z
-x,y,1/2+z
x,-y,1/2+z
-y,-x,1/2+z
y,x,1/2+z
loop_
_atom_site_type_symbol
_atom_site_label
_atom_site_fract_x
_atom_site_fract_y
_atom_site_fract_z
Si Si1 0.940895 0.578333 0.934795
Si Si2 0.908944 0.684079 0.605350
Si Si3 0.398400 0.911871 0.727712
Si Si4 0.939137 0.868193 0.565610
Si Si5 0.389767 0.727316 0.597653
Si Si6 0.596239 0.729186 0.771163
Si Si7 0.254220 0.417871 0.064509
O O1 0.843997 0.584782 0.911125
O O2 0.000000 0.500000 0.911904
O O3 0.002406 0.659958 0.925929
O O4 0.929913 0.561600 0.000000
O O5 0.913532 0.631923 0.663622
O O6 0.906292 0.788248 0.602787
O O7 0.820466 0.647569 0.578333
O O8 0.500000 0.911491 0.750000
O O9 0.365248 0.820318 0.749729
O O10 0.360218 0.000000 0.750000
O O11 0.928532 0.846727 0.500000
O O12 0.041039 0.889018 0.574999
O O13 0.405132 0.732470 0.663039
O O14 0.320793 0.651376 0.588585
O O15 0.483666 0.713321 0.571020
O O16 0.500000 0.720763 0.750000
O O17 0.651507 0.651507 0.750000
O O18 0.247879 0.396376 0.000000
#
# Coordination Sequence:
#
# PCOD9562651 Si02
#       7
#    16  16  16  16  16  16  16
#     4  10  21  36  57  87 120 154 192 245 306 358
#     4  11  22  36  62  92 119 158 208 257 309 374
#     4   9  21  38  59  85 114 154 194 246 311 360
#     4   9  20  39  61  89 129 171 208 254 315 383
#     4  11  24  40  60  87 119 158 210 252 306 368
#     4  10  21  39  61  85 112 144 190 251 305 353
#     4  11  24  40  58  85 123 165 201 245 300 367
#
# _framework density 19.375126000000002
#
# number of rings (size 3 to 8) (size 9 to 14) (size 15 to 20)
#    0.000    1.857    1.429    2.143    4.000    4.429 
#    2.571    2.143    0.000    0.000    0.000    1.000 
#    0.000    0.000    0.000    0.000    0.000    0.000 
#
# Total GULP energy -623853.116095 kJ/mol
# GULP energy per Si atom -5570.117108 kJ/mol
# Density = 1.933103 g / cm^3
# Si number density = 19.375126 Si / 1000 Ang^3
#
#
#
# Elastic Constant Matrix: (Units=GPa)
#
#
# Indices 1 2 3 4 5 6 
#
# 1 122.7736 61.2457 24.0599 0.0000 0.0000 0.0000
# 2 61.2457 122.7736 24.0599 0.0000 0.0000 0.0000
# 3 24.0599 24.0599 46.1613 0.0000 0.0000 0.0000
# 4 0.0000 0.0000 0.0000 23.5427 0.0000 0.0000
# 5 0.0000 0.0000 0.0000 0.0000 23.5427 0.0000
# 6 0.0000 0.0000 0.0000 0.0000 0.0000 19.8081
#
#
#
# Elastic Compliance Matrix: (Units=1/GPa)
#
#
# Indices 1 2 3 4 5 6 
#
# 1 0.011272 -0.004981 -0.003279 0.000000 0.000000 0.000000
# 2 -0.004981 0.011272 -0.003279 0.000000 0.000000 0.000000
# 3 -0.003279 -0.003279 0.025082 0.000000 0.000000 0.000000
# 4 0.000000 0.000000 0.000000 0.042476 0.000000 0.000000
# 5 0.000000 0.000000 0.000000 0.000000 0.042476 0.000000
# 6 0.000000 0.000000 0.000000 0.000000 0.000000 0.050484
#
#
# Mechanical properties :
#
#
# Convention : Reuss Voigt Hill
#
# Bulk Modulus (GPa) = 40.73694 56.71551 48.72623
# Shear Modulus (GPa) = 23.32920 25.53489 24.43205
#
# Velocity S-wave (km/s) = 3.47375 3.63426 3.55491
# Velocity P-wave (km/s) = 6.09592 6.85174 6.48485
#
# Compressibility (1/GPa) = 0.02454774
#
# Stress axis : x y z
#
# Youngs Moduli (GPa) = 88.71325 88.71325 39.86981
#
# Poissons Ratio (x) = 0.44184 0.13075
# Poissons Ratio (y) = 0.44184 0.13075
# Poissons Ratio (z) = 0.29092 0.29092
#
# Static dielectric constant tensor:
#      x y z
#    x 1.697790 0.000000 0.000000 
#    y 0.000000 1.697790 0.000000 
#    z 0.000000 0.000000 1.715090 
# 
# From -- ./inp_files/6084.got.cif
#   From: 2010.05.17/outbox.cif.g08.bks.cpg/sg124_4_cif.got.tgz:6084.got - 2010.05.20 11:49:17.
