data_PCOD9562731
_publ_section_title
;
Structure prediction by ZEFSAII (Michael W. Deem and Ramdas Pophale) SiO2 
 PCOD9562731
Probable space group: P 4/M C C
;
_chemical_formula_sum "Si O2"
_cell_formula_units_Z 96
_cell_length_a 14.992979
_cell_length_b 14.992979
_cell_length_c 21.521365
_cell_angle_alpha 90.000000
_cell_angle_beta 90.000000
_cell_angle_gamma 90.000000
_cell_volume 4837.775141
_symmetry_space_group_name_H-M "P 4/M C C"
_symmetry_group_IT_number 124
_symmetry_cell_setting 'tetragonal'
loop_
_space_group_symop_operation_xyz
x,y,z
-y,x,z
-x,-y,z
y,-x,z
x,-y,1/2-z
-x,y,1/2-z
y,x,1/2-z
-y,-x,1/2-z
-x,-y,-z
y,-x,-z
x,y,-z
-y,x,-z
-x,y,1/2+z
x,-y,1/2+z
-y,-x,1/2+z
y,x,1/2+z
loop_
_atom_site_type_symbol
_atom_site_label
_atom_site_fract_x
_atom_site_fract_y
_atom_site_fract_z
Si Si1 0.200570 0.590629 0.899245
Si Si2 0.912784 0.443923 0.335068
Si Si3 0.326145 0.820571 0.732543
Si Si4 0.983791 0.856323 0.885378
Si Si5 0.984463 0.330709 0.933820
Si Si6 0.448161 0.354665 0.000000
Si Si7 0.218841 0.000000 0.250000
O O1 0.147929 0.500050 0.882459
O O2 0.215537 0.631568 0.830940
O O3 0.288044 0.574217 0.941445
O O4 0.121839 0.652612 0.927853
O O5 0.848469 0.401449 0.283079
O O6 0.962870 0.371604 0.376366
O O7 0.000000 0.500000 0.312961
O O8 0.252339 0.747662 0.750000
O O9 0.276555 0.915747 0.726998
O O10 0.987199 0.770693 0.927890
O O11 0.076211 0.905235 0.898068
O O12 0.974279 0.834768 0.811693
O O13 0.012321 0.370374 0.000000
O O14 0.552785 0.388960 0.000000
#
# Coordination Sequence:
#
# PCOD9562731 Si02
#       7
#    16  16  16  16  16   8   8
#     4  11  24  44  73 101 135 171 223 282 349 421
#     4  10  23  42  69  99 141 181 221 281 358 414
#     4  12  24  40  69 107 140 175 230 289 340 403
#     4  11  23  39  58  85 131 191 239 280 332 392
#     4  11  23  40  64  97 134 178 236 291 336 402
#     4  11  28  54  79 102 136 177 220 273 357 445
#     4  12  20  37  61  94 136 180 230 278 337 389
#
# _framework density 19.843831000000002
#
# number of rings (size 3 to 8) (size 9 to 14) (size 15 to 20)
#    0.000    0.917    4.167    3.000    3.500    4.333 
#    0.000    0.833    0.000    0.000    0.000    0.000 
#    0.000    0.000    0.000    0.000    0.000    0.000 
#
# Total GULP energy -535359.640802 kJ/mol
# GULP energy per Si atom -5576.662925 kJ/mol
# Density = 1.979867 g / cm^3
# Si number density = 19.843831 Si / 1000 Ang^3
#
#
#
# Elastic Constant Matrix: (Units=GPa)
#
#
# Indices 1 2 3 4 5 6 
#
# 1 93.9585 35.1959 49.4900 0.0000 0.0000 0.0000
# 2 35.1959 93.9573 49.4896 0.0000 0.0000 0.0000
# 3 49.4900 49.4896 126.3813 0.0000 0.0000 0.0000
# 4 0.0000 0.0000 0.0000 -385.7953 0.0000 0.0000
# 5 0.0000 0.0000 0.0000 0.0000 -392.2474 0.0000
# 6 0.0000 0.0000 0.0000 0.0000 0.0000 35.2474
#
#
#
# Elastic Compliance Matrix: (Units=1/GPa)
#
#
# Indices 1 2 3 4 5 6 
#
# 1 0.014040 -0.002978 -0.004332 0.000000 0.000000 0.000000
# 2 -0.002978 0.014040 -0.004332 0.000000 0.000000 0.000000
# 3 -0.004332 -0.004332 0.011305 0.000000 0.000000 0.000000
# 4 0.000000 0.000000 0.000000 -0.002592 0.000000 0.000000
# 5 0.000000 0.000000 0.000000 0.000000 -0.002549 0.000000
# 6 0.000000 0.000000 0.000000 0.000000 0.000000 0.028371
#
#
# Mechanical properties :
#
#
# Convention : Reuss Voigt Hill
#
# Bulk Modulus (GPa) = 62.10217 64.73866 63.42041
# Shear Modulus (GPa) = 54.78496 -136.55094 -40.88299
#
# Velocity S-wave (km/s) = 5.26004 -8.30435 -4.54391
# Velocity P-wave (km/s) = 8.26160 7.69771 2.12125
#
# Compressibility (1/GPa) = 0.01610250
#
# Stress axis : x y z
#
# Youngs Moduli (GPa) = 71.22441 71.22352 88.45384
#
# Poissons Ratio (x) = 0.21207 0.38318
# Poissons Ratio (y) = 0.21208 0.38319
# Poissons Ratio (z) = 0.30855 0.30854
#
# Static dielectric constant tensor:
#      x y z
#    x 1.722100 0.000000 0.000000 
#    y 0.000000 1.722100 0.000000 
#    z 0.000000 0.000000 1.751110 
# 
# From -- ./inp_files/5386.got.cif
#   From: 2010.05.17/outbox.cif.g08.bks.cpg/sg124_3_cif.got.tgz:5386.got - 2010.05.20 11:49:17.
