data_PCOD9562258
_publ_section_title
;
Structure prediction by ZEFSAII (Michael W. Deem and Ramdas Pophale) SiO2 
 PCOD9562258
Probable space group: P 4/M M M
;
_chemical_formula_sum "Si O2"
_cell_formula_units_Z 96
_cell_length_a 25.104867
_cell_length_b 25.104867
_cell_length_c 7.302155
_cell_angle_alpha 90.000000
_cell_angle_beta 90.000000
_cell_angle_gamma 90.000000
_cell_volume 4602.214932
_symmetry_space_group_name_H-M "P 4/M M M"
_symmetry_group_IT_number 123
_symmetry_cell_setting 'tetragonal'
loop_
_space_group_symop_operation_xyz
x,y,z
-y,x,z
-x,-y,z
y,-x,z
x,-y,-z
-x,y,-z
y,x,-z
-y,-x,-z
-x,-y,-z
y,-x,-z
x,y,-z
-y,x,-z
-x,y,z
x,-y,z
-y,-x,z
y,x,z
loop_
_atom_site_type_symbol
_atom_site_label
_atom_site_fract_x
_atom_site_fract_y
_atom_site_fract_z
Si Si1 0.144545 0.059639 0.720615
Si Si2 0.647248 0.144371 0.223728
Si Si3 0.647292 0.733467 0.777061
Si Si4 0.438917 0.647272 0.777070
Si Si5 0.059521 0.268392 0.785239
Si Si6 0.059033 0.561383 0.222431
O O1 0.141837 0.059300 0.500000
O O2 0.104087 0.104087 0.788196
O O3 0.205720 0.070078 0.769150
O O4 0.130895 0.000000 0.783938
O O5 0.647200 0.205486 0.285086
O O6 0.697380 0.108754 0.285422
O O7 0.596829 0.108635 0.280490
O O8 0.647384 0.146642 0.000000
O O9 0.699104 0.699104 0.721821
O O10 0.595553 0.698999 0.721908
O O11 0.647281 0.734006 0.000000
O O12 0.500000 0.647305 0.715601
O O13 0.404488 0.595513 0.721987
O O14 0.439680 0.647273 0.000000
O O15 0.000000 0.278573 0.708485
O O16 0.056086 0.281891 0.000000
O O17 0.063916 0.500000 0.278589
O O18 0.000000 0.581175 0.278526
O O19 0.058951 0.562238 0.000000
#
# Coordination Sequence:
#
# PCOD9562258 Si02
#       6
#    16  16  16  16  16  16
#     4   9  18  32  48  65  85 108 134 166 205 248
#     4   9  15  22  34  50  69  97 129 157 191 237
#     4   8  14  22  28  37  56  80 107 141 180 222
#     4   8  13  20  28  37  51  74 107 150 196 236
#     4   9  17  28  42  61  84 108 135 168 202 237
#     4   8  13  20  29  43  65  91 118 149 184 222
#
# _framework density 20.859521000000001
#
# number of rings (size 3 to 8) (size 9 to 14) (size 15 to 20)
#    0.000    3.500    0.000    2.000    0.000    4.000 
#    0.000    6.667    0.000    0.000    0.000    2.333 
#    0.000    0.667    0.000    6.167    0.000    6.000 
#
# Total GULP energy -535483.658672 kJ/mol
# GULP energy per Si atom -5577.954778 kJ/mol
# Density = 2.081204 g / cm^3
# Si number density = 20.859521 Si / 1000 Ang^3
#
#
#
# Elastic Constant Matrix: (Units=GPa)
#
#
# Indices 1 2 3 4 5 6 
#
# 1 208.5070 142.2158 3.3044 0.0000 0.0000 0.0000
# 2 142.2158 208.5070 3.3044 0.0000 0.0000 0.0000
# 3 3.3044 3.3044 85.0120 0.0000 0.0000 0.0000
# 4 0.0000 0.0000 0.0000 -6.8294 0.0000 0.0000
# 5 0.0000 0.0000 0.0000 0.0000 -6.8294 0.0000
# 6 0.0000 0.0000 0.0000 0.0000 0.0000 23.2324
#
#
#
# Elastic Compliance Matrix: (Units=1/GPa)
#
#
# Indices 1 2 3 4 5 6 
#
# 1 0.008969 -0.006116 -0.000111 0.000000 0.000000 0.000000
# 2 -0.006116 0.008969 -0.000111 0.000000 0.000000 0.000000
# 3 -0.000111 -0.000111 0.011772 0.000000 0.000000 0.000000
# 4 0.000000 0.000000 0.000000 -0.146426 0.000000 0.000000
# 5 0.000000 0.000000 0.000000 0.000000 -0.146426 0.000000
# 6 0.000000 0.000000 0.000000 0.000000 0.000000 0.043043
#
#
# Mechanical properties :
#
#
# Convention : Reuss Voigt Hill
#
# Bulk Modulus (GPa) = 58.70362 88.85278 73.77820
# Shear Modulus (GPa) = -24.78378 25.46148 0.33885
#
# Velocity S-wave (km/s) = -3.45066 3.49752 0.40348
# Velocity P-wave (km/s) = 3.51103 7.68105 5.97184
#
# Compressibility (1/GPa) = 0.01703472
#
# Stress axis : x y z
#
# Youngs Moduli (GPa) = 111.49321 111.49321 84.94974
#
# Poissons Ratio (x) = 0.68187 0.00942
# Poissons Ratio (y) = 0.68187 0.00942
# Poissons Ratio (z) = 0.01237 0.01237
#
# Static dielectric constant tensor:
#      x y z
#    x 1.714550 0.000000 0.000000 
#    y 0.000000 1.714550 0.000000 
#    z 0.000000 0.000000 1.809370 
# 
# From -- ./inp_files/3292.got.cif
#   From: 2010.05.17/outbox.cif.g08.bks.cpg/sg123_2_cif.got.tgz:3292.got - 2010.05.20 11:43:04.
