data_PCOD9562628
_publ_section_title
;
Structure prediction by ZEFSAII (Michael W. Deem and Ramdas Pophale) SiO2 
 PCOD9562628
Probable space group: P 4/M C C
;
_chemical_formula_sum "Si O2"
_cell_formula_units_Z 96
_cell_length_a 16.558928
_cell_length_b 16.558928
_cell_length_c 19.576866
_cell_angle_alpha 90.000000
_cell_angle_beta 90.000000
_cell_angle_gamma 90.000000
_cell_volume 5367.939393
_symmetry_space_group_name_H-M "P 4/M C C"
_symmetry_group_IT_number 124
_symmetry_cell_setting 'tetragonal'
loop_
_space_group_symop_operation_xyz
x,y,z
-y,x,z
-x,-y,z
y,-x,z
x,-y,1/2-z
-x,y,1/2-z
y,x,1/2-z
-y,-x,1/2-z
-x,-y,-z
y,-x,-z
x,y,-z
-y,x,-z
-x,y,1/2+z
x,-y,1/2+z
-y,-x,1/2+z
y,x,1/2+z
loop_
_atom_site_type_symbol
_atom_site_label
_atom_site_fract_x
_atom_site_fract_y
_atom_site_fract_z
Si Si1 0.500000 0.329159 0.250000
Si Si2 0.612607 0.435444 0.892447
Si Si3 0.084812 0.604972 0.353704
Si Si4 0.301929 0.328992 0.500000
Si Si5 0.411090 0.850794 0.500000
Si Si6 0.905133 0.584543 0.650963
Si Si7 0.164877 0.595087 0.500000
Si Si8 0.352971 0.218720 0.258107
O O1 0.451052 0.374768 0.189116
O O2 0.430606 0.271995 0.281427
O O3 0.605542 0.528397 0.913531
O O4 0.675978 0.381757 0.932448
O O5 0.095867 0.510850 0.331960
O O6 0.110129 0.608514 0.432953
O O7 0.148884 0.658283 0.313266
O O8 0.992527 0.622242 0.334003
O O9 0.206027 0.332817 0.500000
O O10 0.348073 0.244125 0.500000
O O11 0.410734 0.899406 0.569560
O O12 0.500296 0.808172 0.500000
O O13 0.829326 0.623940 0.689092
O O14 0.278438 0.278438 0.250000
#
# Coordination Sequence:
#
# PCOD9562628 Si02
#       8
#     8  16  16   8   8  16   8  16
#     4  12  24  37  51  74 112 152 206 252 290 326
#     4  11  23  37  49  66  98 157 209 249 281 322
#     4  10  21  39  62  80 111 147 195 239 293 357
#     4  12  24  33  56  76 117 141 191 247 297 352
#     4  10  21  34  57  80 108 144 188 233 285 346
#     4  10  20  40  60  84 107 150 193 240 292 349
#     4  10  23  36  55  88 109 149 188 246 303 343
#     4  12  24  35  56  84 116 149 195 244 289 336
#
# _framework density 17.883956999999999
#
# number of rings (size 3 to 8) (size 9 to 14) (size 15 to 20)
#    0.000    1.167    1.667    5.000    9.333    4.667 
#    0.000    0.000    0.000    0.000    0.000    0.000 
#    0.000    5.333    0.000    1.500    0.000    0.000 
#
# Total GULP energy -535799.145561 kJ/mol
# GULP energy per Si atom -5581.241100 kJ/mol
# Density = 1.784325 g / cm^3
# Si number density = 17.883957 Si / 1000 Ang^3
#
#
#
# Elastic Constant Matrix: (Units=GPa)
#
#
# Indices 1 2 3 4 5 6 
#
# 1 75.6778 39.6035 15.5849 0.0000 0.0000 0.0000
# 2 39.6035 75.6778 15.5849 0.0000 0.0000 0.0000
# 3 15.5849 15.5849 91.7910 0.0000 0.0000 0.0000
# 4 0.0000 0.0000 0.0000 -1.6784 0.0000 0.0000
# 5 0.0000 0.0000 0.0000 0.0000 -1.6784 0.0000
# 6 0.0000 0.0000 0.0000 0.0000 0.0000 16.8053
#
#
#
# Elastic Compliance Matrix: (Units=1/GPa)
#
#
# Indices 1 2 3 4 5 6 
#
# 1 0.018406 -0.009314 -0.001544 0.000000 0.000000 0.000000
# 2 -0.009314 0.018406 -0.001544 0.000000 0.000000 0.000000
# 3 -0.001544 -0.001544 0.011419 0.000000 0.000000 0.000000
# 4 0.000000 0.000000 0.000000 -0.595811 0.000000 0.000000
# 5 0.000000 0.000000 0.000000 0.000000 -0.595811 0.000000
# 6 0.000000 0.000000 0.000000 0.000000 0.000000 0.059505
#
#
# Mechanical properties :
#
#
# Convention : Reuss Voigt Hill
#
# Bulk Modulus (GPa) = 42.68499 42.74370 42.71434
# Shear Modulus (GPa) = -4.75614 14.18126 4.71256
#
# Velocity S-wave (km/s) = -1.63255 2.81901 1.62505
# Velocity P-wave (km/s) = 4.51286 5.87777 5.23995
#
# Compressibility (1/GPa) = 0.02342744
#
# Stress axis : x y z
#
# Youngs Moduli (GPa) = 54.32957 54.32957 87.57716
#
# Poissons Ratio (x) = 0.50605 0.13519
# Poissons Ratio (y) = 0.50605 0.13519
# Poissons Ratio (z) = 0.08387 0.08387
#
# Static dielectric constant tensor:
#      x y z
#    x 1.616310 0.000000 0.000000 
#    y 0.000000 1.616310 0.000000 
#    z 0.000000 0.000000 1.700490 
# 
# From -- ./inp_files/5393.got.cif
#   From: 2010.05.17/outbox.cif.g08.bks.cpg/sg124_3_cif.got.tgz:5393.got - 2010.05.20 11:49:17.
