data_PCOD9562952
_publ_section_title
;
Structure prediction by ZEFSAII (Michael W. Deem and Ramdas Pophale) SiO2 
 PCOD9562952
Probable space group: P 4/N B M
;
_chemical_formula_sum "Si O2"
_cell_formula_units_Z 128
_cell_length_a 18.363064
_cell_length_b 18.363064
_cell_length_c 23.762791
_cell_angle_alpha 90.000000
_cell_angle_beta 90.000000
_cell_angle_gamma 90.000000
_cell_volume 8012.863490
_symmetry_space_group_name_H-M "P 4/N B M"
_symmetry_group_IT_number 125
_space_group.IT_coordinate_system_code '2'
_symmetry_cell_setting 'tetragonal'
loop_
_space_group_symop_operation_xyz
x,y,z
1/2-y,x,z
1/2-x,1/2-y,z
y,1/2-x,z
x,1/2-y,-z
1/2-x,y,-z
y,x,-z
1/2-y,1/2-x,-z
-x,-y,-z
1/2+y,-x,-z
1/2+x,1/2+y,-z
-y,1/2+x,-z
-x,1/2+y,z
1/2+x,-y,z
-y,-x,z
1/2+y,1/2+x,z
loop_
_atom_site_type_symbol
_atom_site_label
_atom_site_fract_x
_atom_site_fract_y
_atom_site_fract_z
Si Si1 0.999123 0.620871 0.257551
Si Si2 0.879124 0.500870 0.257550
Si Si3 0.750001 0.127476 0.563849
Si Si4 0.249998 0.498832 0.346679
Si Si5 0.562434 0.937565 0.935436
Si Si6 0.372274 0.250001 0.563085
Si Si7 0.042101 0.835096 0.132103
Si Si8 0.664902 0.457904 0.132107
O O1 0.924060 0.575935 0.252662
O O2 0.061699 0.561699 0.269921
O O3 0.997083 0.680229 0.306182
O O4 0.019497 0.655811 0.197450
O O5 0.938296 0.438296 0.269925
O O6 0.819762 0.502912 0.306177
O O7 0.844191 0.480494 0.197447
O O8 0.750000 0.096709 0.500000
O O9 0.820013 0.179988 0.568662
O O10 0.679991 0.179991 0.568662
O O11 0.749999 0.068854 0.612910
O O12 0.250002 0.430677 0.388312
O O13 0.524103 0.870341 0.903692
O O14 0.500000 0.000000 0.935015
O O15 0.629658 0.975892 0.903689
O O16 0.580015 0.919986 0.000000
O O17 0.319859 0.319860 0.567503
O O18 0.404543 0.250000 0.500000
O O19 0.113484 0.886517 0.122873
O O20 0.054419 0.749998 0.119273
O O21 0.613477 0.386524 0.122880
#
# Coordination Sequence:
#
# PCOD9562952 Si02
#       8
#    16  16  16  16  16  16  16  16
#     4  10  20  33  48  71 104 137 166 209 260 306
#     4  10  20  33  48  71 104 137 166 209 260 306
#     4   9  19  35  51  69  99 136 170 208 253 304
#     4  12  19  30  52  78  95 126 172 212 253 311
#     4   9  18  34  58  81 103 141 190 222 244 300
#     4   9  19  35  51  69  95 124 159 208 260 309
#     4  10  19  34  54  79 111 144 178 217 265 314
#     4  10  19  34  54  79 111 144 178 217 265 314
#
# _framework density 15.974315000000001
#
# number of rings (size 3 to 8) (size 9 to 14) (size 15 to 20)
#    0.000    2.125    2.500    2.625    0.000    0.750 
#    0.000    0.000    0.000    0.375    0.000   14.875 
#    0.000    0.000    0.000    0.000    0.000    0.000 
#
# Total GULP energy -713641.719488 kJ/mol
# GULP energy per Si atom -5575.325933 kJ/mol
# Density = 1.593796 g / cm^3
# Si number density = 15.974315 Si / 1000 Ang^3
#
#
#
# Elastic Constant Matrix: (Units=GPa)
#
#
# Indices 1 2 3 4 5 6 
#
# 1 103.8506 47.2881 55.4830 0.0000 0.0000 0.0000
# 2 47.2881 103.8507 55.4831 0.0000 0.0000 0.0000
# 3 55.4830 55.4831 116.4932 0.0000 0.0000 0.0000
# 4 0.0000 0.0000 0.0000 18.2678 0.0000 0.0000
# 5 0.0000 0.0000 0.0000 0.0000 18.2679 0.0000
# 6 0.0000 0.0000 0.0000 0.0000 0.0000 6.8224
#
#
#
# Elastic Compliance Matrix: (Units=1/GPa)
#
#
# Indices 1 2 3 4 5 6 
#
# 1 0.013927 -0.003753 -0.004846 0.000000 0.000000 0.000000
# 2 -0.003753 0.013927 -0.004846 0.000000 0.000000 0.000000
# 3 -0.004846 -0.004846 0.013200 0.000000 0.000000 0.000000
# 4 0.000000 0.000000 0.000000 0.054741 0.000000 0.000000
# 5 0.000000 0.000000 0.000000 0.000000 0.054741 0.000000
# 6 0.000000 0.000000 0.000000 0.000000 0.000000 0.146576
#
#
# Mechanical properties :
#
#
# Convention : Reuss Voigt Hill
#
# Bulk Modulus (GPa) = 70.59430 71.18921 70.89175
# Shear Modulus (GPa) = 15.21042 19.73430 17.47236
#
# Velocity S-wave (km/s) = 3.08909 3.51861 3.31082
# Velocity P-wave (km/s) = 7.55060 7.82106 7.68702
#
# Compressibility (1/GPa) = 0.01416545
#
# Stress axis : x y z
#
# Youngs Moduli (GPa) = 71.80365 71.80374 75.75753
#
# Poissons Ratio (x) = 0.26946 0.36710
# Poissons Ratio (y) = 0.26946 0.36710
# Poissons Ratio (z) = 0.34794 0.34794
#
# Static dielectric constant tensor:
#      x y z
#    x 1.517220 0.000000 0.000000 
#    y 0.000000 1.517220 0.000000 
#    z 0.000000 0.000000 1.522090 
# 
# From -- ./inp_files/6308.got.cif
#   From: 2010.05.17/outbox.cif.g08.bks.cpg/sg125_4_cif.got.tgz:6308.got - 2010.05.20 11:54:10.
