data_PCOD9562899
_publ_section_title
;
Structure prediction by ZEFSAII (Michael W. Deem and Ramdas Pophale) SiO2 
 PCOD9562899
Probable space group: P 4/N B M
;
_chemical_formula_sum "Si O2"
_cell_formula_units_Z 112
_cell_length_a 14.876252
_cell_length_b 14.876252
_cell_length_c 29.839725
_cell_angle_alpha 90.000000
_cell_angle_beta 90.000000
_cell_angle_gamma 90.000000
_cell_volume 6603.616889
_symmetry_space_group_name_H-M "P 4/N B M"
_symmetry_group_IT_number 125
_space_group.IT_coordinate_system_code '2'
_symmetry_cell_setting 'tetragonal'
loop_
_space_group_symop_operation_xyz
x,y,z
1/2-y,x,z
1/2-x,1/2-y,z
y,1/2-x,z
x,1/2-y,-z
1/2-x,y,-z
y,x,-z
1/2-y,1/2-x,-z
-x,-y,-z
1/2+y,-x,-z
1/2+x,1/2+y,-z
-y,1/2+x,-z
-x,1/2+y,z
1/2+x,-y,z
-y,-x,z
1/2+y,1/2+x,z
loop_
_atom_site_type_symbol
_atom_site_label
_atom_site_fract_x
_atom_site_fract_y
_atom_site_fract_z
Si Si1 0.599319 0.253644 0.550396
Si Si2 0.958404 0.194868 0.358256
Si Si3 0.853494 0.638824 0.050874
Si Si4 0.674420 0.174420 0.209875
Si Si5 0.987055 0.743352 0.188701
Si Si6 0.326321 0.673680 0.310222
Si Si7 0.069564 0.421456 0.142027
Si Si8 0.603375 0.711854 0.716519
O O1 0.561921 0.250000 0.500000
O O2 0.651339 0.348662 0.558044
O O3 0.679482 0.179482 0.551557
O O4 0.532817 0.223460 0.589812
O O5 0.892876 0.107125 0.355353
O O6 0.905154 0.278676 0.336646
O O7 0.045194 0.187187 0.327221
O O8 0.871753 0.745674 0.056003
O O9 0.899376 0.581851 0.089731
O O10 0.882289 0.617711 0.000000
O O11 0.750000 0.250000 0.212187
O O12 0.587491 0.218574 0.188330
O O13 0.646565 0.146565 0.260441
O O14 0.930150 0.827750 0.169787
O O15 0.975359 0.657186 0.157655
O O16 0.957051 0.711366 0.238409
O O17 0.250000 0.750000 0.306610
O O18 0.981075 0.481075 0.150787
O O19 0.687804 0.644631 0.716852
#
# Coordination Sequence:
#
# PCOD9562899 Si02
#       8
#    16  16  16   8  16   8  16  16
#     4   8  13  23  45  78 111 140 170 213 276 337
#     4  10  18  32  52  80 108 137 178 224 271 322
#     4   9  18  35  61  87 110 144 190 238 288 338
#     4  11  22  38  54  80 119 155 183 227 278 333
#     4  12  23  38  58  84 113 150 192 233 277 335
#     4   9  16  26  50  74 102 139 168 208 268 316
#     4  12  24  37  59  88 116 152 195 233 285 344
#     4  11  24  40  55  74 106 148 187 225 273 326
#
# _framework density 16.960401999999998
#
# number of rings (size 3 to 8) (size 9 to 14) (size 15 to 20)
#    0.000    1.714    5.714    1.286    0.000    1.143 
#    2.571    0.000    0.000    0.857    0.000    4.000 
#    0.000    2.286    0.000    0.000    0.000    0.000 
#
# Total GULP energy -624137.528543 kJ/mol
# GULP energy per Si atom -5572.656505 kJ/mol
# Density = 1.692180 g / cm^3
# Si number density = 16.960402 Si / 1000 Ang^3
#
#
#
# Elastic Constant Matrix: (Units=GPa)
#
#
# Indices 1 2 3 4 5 6 
#
# 1 46.5110 11.0517 24.2823 0.0000 0.0000 0.0000
# 2 11.0517 46.5111 24.2823 0.0000 0.0000 0.0000
# 3 24.2823 24.2823 104.5340 0.0000 0.0000 0.0000
# 4 0.0000 0.0000 0.0000 14.3038 0.0000 0.0000
# 5 0.0000 0.0000 0.0000 0.0000 14.3038 0.0000
# 6 0.0000 0.0000 0.0000 0.0000 0.0000 16.5714
#
#
#
# Elastic Compliance Matrix: (Units=1/GPa)
#
#
# Indices 1 2 3 4 5 6 
#
# 1 0.024904 -0.003297 -0.005019 0.000000 0.000000 0.000000
# 2 -0.003297 0.024904 -0.005019 0.000000 0.000000 0.000000
# 3 -0.005019 -0.005019 0.011898 0.000000 0.000000 0.000000
# 4 0.000000 0.000000 0.000000 0.069911 0.000000 0.000000
# 5 0.000000 0.000000 0.000000 0.000000 0.069911 0.000000
# 6 0.000000 0.000000 0.000000 0.000000 0.000000 0.060345
#
#
# Mechanical properties :
#
#
# Convention : Reuss Voigt Hill
#
# Bulk Modulus (GPa) = 28.54254 35.19874 31.87064
# Shear Modulus (GPa) = 16.65429 18.23180 17.44305
#
# Velocity S-wave (km/s) = 3.13701 3.28222 3.21044
# Velocity P-wave (km/s) = 5.47600 5.92980 5.70741
#
# Compressibility (1/GPa) = 0.03503542
#
# Stress axis : x y z
#
# Youngs Moduli (GPa) = 40.15403 40.15409 84.04747
#
# Poissons Ratio (x) = 0.13240 0.42184
# Poissons Ratio (y) = 0.13240 0.42184
# Poissons Ratio (z) = 0.20154 0.20154
#
# Static dielectric constant tensor:
#      x y z
#    x 1.578950 0.000000 0.000000 
#    y 0.000000 1.578950 0.000000 
#    z 0.000000 0.000000 1.604230 
# 
# From -- ./inp_files/6477.got.cif
#   From: 2010.05.17/outbox.cif.g08.bks.cpg/sg125_4_cif.got.tgz:6477.got - 2010.05.20 11:54:10.
