data_PCOD9562052
_publ_section_title
;
Structure prediction by ZEFSAII (Michael W. Deem and Ramdas Pophale) SiO2 
 PCOD9562052
Probable space group: P 4/M M M
;
_chemical_formula_sum "Si O2"
_cell_formula_units_Z 64
_cell_length_a 20.493112
_cell_length_b 20.493112
_cell_length_c 8.208596
_cell_angle_alpha 90.000000
_cell_angle_beta 90.000000
_cell_angle_gamma 90.000000
_cell_volume 3447.344685
_symmetry_space_group_name_H-M "P 4/M M M"
_symmetry_group_IT_number 123
_symmetry_cell_setting 'tetragonal'
loop_
_space_group_symop_operation_xyz
x,y,z
-y,x,z
-x,-y,z
y,-x,z
x,-y,-z
-x,y,-z
y,x,-z
-y,-x,-z
-x,-y,-z
y,-x,-z
x,y,-z
-y,x,-z
-x,y,z
x,-y,z
-y,-x,z
y,x,z
loop_
_atom_site_type_symbol
_atom_site_label
_atom_site_fract_x
_atom_site_fract_y
_atom_site_fract_z
Si Si1 0.358216 0.105844 0.696154
Si Si2 0.099318 0.500000 0.310716
Si Si3 0.745671 0.358803 0.806507
Si Si4 0.000000 0.894452 0.698824
Si Si5 0.500000 0.257863 0.312609
Si Si6 0.000000 0.254893 0.699450
O O1 0.361830 0.099810 0.500000
O O2 0.429230 0.081778 0.760644
O O3 0.350143 0.181886 0.735579
O O4 0.297569 0.062438 0.751537
O O5 0.078002 0.500000 0.500000
O O6 0.178469 0.500000 0.308826
O O7 0.695035 0.304966 0.743431
O O8 0.722092 0.432124 0.767762
O O9 0.750832 0.352213 0.000000
O O10 0.000000 0.819843 0.755664
O O11 0.063433 0.936568 0.748245
O O12 0.000000 0.893474 0.500000
O O13 0.500000 0.277980 0.500000
O O14 0.000000 0.252939 0.500000
#
# Coordination Sequence:
#
# PCOD9562052 Si02
#       6
#    16   8  16   8   8   8
#     4   9  17  29  45  67  95 126 162 202 244 290
#     4   7  12  24  41  61  87 119 149 180 225 282
#     4  10  20  33  50  73 102 135 168 202 245 299
#     4   8  14  25  39  55  81 118 154 191 244 303
#     4   9  17  31  52  75  98 128 168 210 250 291
#     4   9  17  27  42  68  95 120 159 210 254 289
#
# _framework density 18.565014999999999
#
# number of rings (size 3 to 8) (size 9 to 14) (size 15 to 20)
#    0.000    3.125    0.000    3.000    0.000    3.500 
#    0.000    5.625    0.000    0.375    0.000    7.875 
#    0.000    0.000    0.000    5.500    0.000    4.500 
#
# Total GULP energy -356501.206648 kJ/mol
# GULP energy per Si atom -5570.331354 kJ/mol
# Density = 1.852276 g / cm^3
# Si number density = 18.565015 Si / 1000 Ang^3
#
#
#
# Elastic Constant Matrix: (Units=GPa)
#
#
# Indices 1 2 3 4 5 6 
#
# 1 155.6858 95.9531 4.9565 0.0000 0.0000 0.0000
# 2 95.9531 155.6858 4.9565 0.0000 0.0000 0.0000
# 3 4.9565 4.9565 7.4430 0.0000 0.0000 0.0000
# 4 0.0000 0.0000 0.0000 -10.6191 0.0000 0.0000
# 5 0.0000 0.0000 0.0000 0.0000 -10.6191 0.0000
# 6 0.0000 0.0000 0.0000 0.0000 0.0000 58.3623
#
#
#
# Elastic Compliance Matrix: (Units=1/GPa)
#
#
# Indices 1 2 3 4 5 6 
#
# 1 0.010411 -0.006330 -0.002718 0.000000 0.000000 0.000000
# 2 -0.006330 0.010411 -0.002718 0.000000 0.000000 0.000000
# 3 -0.002718 -0.002718 0.137973 0.000000 0.000000 0.000000
# 4 0.000000 0.000000 0.000000 -0.094170 0.000000 0.000000
# 5 0.000000 0.000000 0.000000 0.000000 -0.094170 0.000000
# 6 0.000000 0.000000 0.000000 0.000000 0.000000 0.017134
#
#
# Mechanical properties :
#
#
# Convention : Reuss Voigt Hill
#
# Bulk Modulus (GPa) = 7.39291 58.94966 33.17129
# Shear Modulus (GPa) = 88.95223 21.62137 55.28680
#
# Velocity S-wave (km/s) = 6.92950 3.41637 5.46303
# Velocity P-wave (km/s) = 8.24710 6.88361 7.59601
#
# Compressibility (1/GPa) = 0.13526475
#
# Stress axis : x y z
#
# Youngs Moduli (GPa) = 96.05112 96.05112 7.24777
#
# Poissons Ratio (x) = 0.60801 0.01970
# Poissons Ratio (y) = 0.60801 0.01970
# Poissons Ratio (z) = 0.26104 0.26104
#
# Static dielectric constant tensor:
#      x y z
#    x 1.652110 0.000000 0.000000 
#    y 0.000000 1.652110 0.000000 
#    z 0.000000 0.000000 1.637580 
# 
# From -- ./inp_files/1009.got.cif
#   From: 2010.05.17/outbox.cif.g08.bks.cpg/sg123_1_cif.got.tgz:1009.got - 2010.05.20 11:43:04.
