data_PCOD9562167
_publ_section_title
;
Structure prediction by ZEFSAII (Michael W. Deem and Ramdas Pophale) SiO2 
 PCOD9562167
Probable space group: P 4/M M M
;
_chemical_formula_sum "Si O2"
_cell_formula_units_Z 96
_cell_length_a 23.886773
_cell_length_b 23.886773
_cell_length_c 8.704464
_cell_angle_alpha 90.000000
_cell_angle_beta 90.000000
_cell_angle_gamma 90.000000
_cell_volume 4966.575002
_symmetry_space_group_name_H-M "P 4/M M M"
_symmetry_group_IT_number 123
_symmetry_cell_setting 'tetragonal'
loop_
_space_group_symop_operation_xyz
x,y,z
-y,x,z
-x,-y,z
y,-x,z
x,-y,-z
-x,y,-z
y,x,-z
-y,-x,-z
-x,-y,-z
y,-x,-z
x,y,-z
-y,x,-z
-x,y,z
x,-y,z
-y,-x,z
y,x,z
loop_
_atom_site_type_symbol
_atom_site_label
_atom_site_fract_x
_atom_site_fract_y
_atom_site_fract_z
Si Si1 0.655471 0.564872 0.685308
Si Si2 0.436908 0.892180 0.684393
Si Si3 0.678466 0.937939 0.685357
Si Si4 0.763438 0.148610 0.819678
Si Si5 0.432253 0.773009 0.825967
Si Si6 0.151577 0.064495 0.321862
O O1 0.658342 0.565534 0.500000
O O2 0.646710 0.500000 0.732307
O O3 0.605004 0.605004 0.734382
O O4 0.714827 0.585784 0.750184
O O5 0.439484 0.895032 0.500000
O O6 0.500000 0.904024 0.743296
O O7 0.386380 0.931857 0.734126
O O8 0.420462 0.829130 0.732287
O O9 0.681164 0.937320 0.500000
O O10 0.710840 0.882638 0.742973
O O11 0.700050 0.000000 0.734572
O O12 0.793157 0.206844 0.763101
O O13 0.810708 0.101863 0.787516
O O14 0.752686 0.155436 0.000000
O O15 0.500000 0.769903 0.830230
O O16 0.411330 0.777920 0.000000
O O17 0.171188 0.072243 0.500000
O O18 0.089393 0.089393 0.315572
O O19 0.154189 0.000000 0.284593
#
# Coordination Sequence:
#
# PCOD9562167 Si02
#       6
#    16  16  16  16  16  16
#     4   9  17  29  46  69  98 133 174 221 274 333
#     4   9  18  34  56  80 107 139 172 208 255 313
#     4  10  21  36  56  84 114 142 174 213 259 313
#     4  10  21  36  53  73  99 134 176 218 257 298
#     4   9  17  30  49  71  95 126 166 210 253 301
#     4   9  17  29  46  68  94 125 161 202 248 297
#
# _framework density 19.329215999999999
#
# number of rings (size 3 to 8) (size 9 to 14) (size 15 to 20)
#    0.000    2.667    0.000    1.500    0.000    7.333 
#    0.000    4.167    0.000    1.000    0.000    8.167 
#    0.000    0.000    0.000    0.000    0.000    0.000 
#
# Total GULP energy -534582.808812 kJ/mol
# GULP energy per Si atom -5568.570925 kJ/mol
# Density = 1.928522 g / cm^3
# Si number density = 19.329216 Si / 1000 Ang^3
#
#
#
# Elastic Constant Matrix: (Units=GPa)
#
#
# Indices 1 2 3 4 5 6 
#
# 1 78.5115 41.2028 9.9041 0.0000 0.0000 0.0000
# 2 41.2028 78.5115 9.9041 0.0000 0.0000 0.0000
# 3 9.9041 9.9041 8.1900 0.0000 0.0000 0.0000
# 4 0.0000 0.0000 0.0000 -0.6752 0.0000 0.0000
# 5 0.0000 0.0000 0.0000 0.0000 -0.6752 0.0000
# 6 0.0000 0.0000 0.0000 0.0000 0.0000 25.1832
#
#
#
# Elastic Compliance Matrix: (Units=1/GPa)
#
#
# Indices 1 2 3 4 5 6 
#
# 1 0.018623 -0.008180 -0.012628 0.000000 0.000000 0.000000
# 2 -0.008180 0.018623 -0.012628 0.000000 0.000000 0.000000
# 3 -0.012628 -0.012628 0.152643 0.000000 0.000000 0.000000
# 4 0.000000 0.000000 0.000000 -1.481145 0.000000 0.000000
# 5 0.000000 0.000000 0.000000 0.000000 -1.481145 0.000000
# 6 0.000000 0.000000 0.000000 0.000000 0.000000 0.039709
#
#
# Mechanical properties :
#
#
# Convention : Reuss Voigt Hill
#
# Bulk Modulus (GPa) = 8.12906 31.91499 20.02202
# Shear Modulus (GPa) = -1.90490 11.71338 4.90424
#
# Velocity S-wave (km/s) = -0.99380 2.46436 1.59459
# Velocity P-wave (km/s) = 1.70231 4.96433 3.71096
#
# Compressibility (1/GPa) = 0.12301540
#
# Stress axis : x y z
#
# Youngs Moduli (GPa) = 53.69684 53.69684 6.55122
#
# Poissons Ratio (x) = 0.43926 0.08273
# Poissons Ratio (y) = 0.43926 0.08273
# Poissons Ratio (z) = 0.67810 0.67810
#
# Static dielectric constant tensor:
#      x y z
#    x 1.698610 0.000000 0.000000 
#    y 0.000000 1.698610 0.000000 
#    z 0.000000 0.000000 1.675080 
# 
# From -- ./inp_files/1613.got.cif
#   From: 2010.05.17/outbox.cif.g08.bks.cpg/sg123_1_cif.got.tgz:1613.got - 2010.05.20 11:43:04.
