data_PCOD9562342
_publ_section_title
;
Structure prediction by ZEFSAII (Michael W. Deem and Ramdas Pophale) SiO2 
 PCOD9562342
Probable space group: P 4/M C C
;
_chemical_formula_sum "Si O2"
_cell_formula_units_Z 88
_cell_length_a 15.125668
_cell_length_b 15.125668
_cell_length_c 24.307438
_cell_angle_alpha 90.000000
_cell_angle_beta 90.000000
_cell_angle_gamma 90.000000
_cell_volume 5561.197437
_symmetry_space_group_name_H-M "P 4/M C C"
_symmetry_group_IT_number 124
_symmetry_cell_setting 'tetragonal'
loop_
_space_group_symop_operation_xyz
x,y,z
-y,x,z
-x,-y,z
y,-x,z
x,-y,1/2-z
-x,y,1/2-z
y,x,1/2-z
-y,-x,1/2-z
-x,-y,-z
y,-x,-z
x,y,-z
-y,x,-z
-x,y,1/2+z
x,-y,1/2+z
-y,-x,1/2+z
y,x,1/2+z
loop_
_atom_site_type_symbol
_atom_site_label
_atom_site_fract_x
_atom_site_fract_y
_atom_site_fract_z
Si Si1 0.129221 0.926432 0.500000
Si Si2 0.051869 0.584312 0.435396
Si Si3 0.984140 0.854345 0.314733
Si Si4 0.914919 0.267960 0.905658
Si Si5 0.369945 0.739392 0.432912
Si Si6 0.424399 0.249353 0.433369
O O1 0.185690 0.900359 0.553262
O O2 0.032393 0.883959 0.500000
O O3 0.064998 0.564468 0.500000
O O4 0.150331 0.597522 0.413128
O O5 0.000000 0.500000 0.411156
O O6 0.989867 0.668543 0.430447
O O7 0.955657 0.769698 0.349355
O O8 0.074539 0.906664 0.328085
O O9 0.000000 0.836502 0.250000
O O10 0.824460 0.323917 0.905206
O O11 0.363351 0.751769 0.500000
O O12 0.473617 0.732346 0.419069
O O13 0.318641 0.650376 0.416277
O O14 0.420507 0.251057 0.500000
#
# Coordination Sequence:
#
# PCOD9562342 Si02
#       6
#     8  16  16  16  16  16
#     4  11  24  32  39  70 110 131 154 197 255 302
#     4  10  18  30  45  69 103 138 163 195 252 311
#     4   9  20  38  54  69  95 134 176 208 241 293
#     4  12  20  30  52  73  99 132 170 208 252 306
#     4  10  19  32  45  72 101 138 180 213 256 302
#     4   9  19  30  46  64 100 140 178 215 243 302
#
# _framework density 15.823929
#
# number of rings (size 3 to 8) (size 9 to 14) (size 15 to 20)
#    0.000    1.909    3.636    1.636    5.091    1.818 
#    0.000    1.818    0.000    0.545    0.000    0.000 
#    0.000    0.000    0.000    0.000    2.909    0.000 
#
# Total GULP energy -490170.928425 kJ/mol
# GULP energy per Si atom -5570.124187 kJ/mol
# Density = 1.578791 g / cm^3
# Si number density = 15.823929 Si / 1000 Ang^3
#
#
#
# Elastic Constant Matrix: (Units=GPa)
#
#
# Indices 1 2 3 4 5 6 
#
# 1 85.3794 45.8147 10.9707 0.0000 0.0000 0.0000
# 2 45.8147 85.3794 10.9707 0.0000 0.0000 0.0000
# 3 10.9707 10.9707 25.5597 0.0000 0.0000 0.0000
# 4 0.0000 0.0000 0.0000 12.8587 0.0000 0.0000
# 5 0.0000 0.0000 0.0000 0.0000 12.8587 0.0000
# 6 0.0000 0.0000 0.0000 0.0000 0.0000 26.8180
#
#
#
# Elastic Compliance Matrix: (Units=1/GPa)
#
#
# Indices 1 2 3 4 5 6 
#
# 1 0.016743 -0.008532 -0.003525 0.000000 0.000000 0.000000
# 2 -0.008532 0.016743 -0.003525 0.000000 0.000000 0.000000
# 3 -0.003525 -0.003525 0.042150 0.000000 0.000000 0.000000
# 4 0.000000 0.000000 0.000000 0.077768 0.000000 0.000000
# 5 0.000000 0.000000 0.000000 0.000000 0.077768 0.000000
# 6 0.000000 0.000000 0.000000 0.000000 0.000000 0.037288
#
#
# Mechanical properties :
#
#
# Convention : Reuss Voigt Hill
#
# Bulk Modulus (GPa) = 22.48466 36.87007 29.67737
# Shear Modulus (GPa) = 15.90086 19.07792 17.48939
#
# Velocity S-wave (km/s) = 3.17339 3.47600 3.32814
# Velocity P-wave (km/s) = 5.25998 6.28179 5.79345
#
# Compressibility (1/GPa) = 0.04447477
#
# Stress axis : x y z
#
# Youngs Moduli (GPa) = 59.72493 59.72493 23.72489
#
# Poissons Ratio (x) = 0.50955 0.08362
# Poissons Ratio (y) = 0.50955 0.08362
# Poissons Ratio (z) = 0.21051 0.21051
#
# Static dielectric constant tensor:
#      x y z
#    x 1.540990 0.000000 0.000000 
#    y 0.000000 1.540990 0.000000 
#    z 0.000000 0.000000 1.525650 
# 
# From -- ./inp_files/6543.got.cif
#   From: 2010.05.17/outbox.cif.g08.bks.cpg/sg124_4_cif.got.tgz:6543.got - 2010.05.20 11:49:17.
