data_PCOD9562309
_publ_section_title
;
Structure prediction by ZEFSAII (Michael W. Deem and Ramdas Pophale) SiO2 
 PCOD9562309
Probable space group: P 4/M C C
;
_chemical_formula_sum "Si O2"
_cell_formula_units_Z 96
_cell_length_a 26.118411
_cell_length_b 26.118411
_cell_length_c 8.698522
_cell_angle_alpha 90.000000
_cell_angle_beta 90.000000
_cell_angle_gamma 90.000000
_cell_volume 5933.882871
_symmetry_space_group_name_H-M "P 4/M C C"
_symmetry_group_IT_number 124
_symmetry_cell_setting 'tetragonal'
loop_
_space_group_symop_operation_xyz
x,y,z
-y,x,z
-x,-y,z
y,-x,z
x,-y,1/2-z
-x,y,1/2-z
y,x,1/2-z
-y,-x,1/2-z
-x,-y,-z
y,-x,-z
x,y,-z
-y,x,-z
-x,y,1/2+z
x,-y,1/2+z
-y,-x,1/2+z
y,x,1/2+z
loop_
_atom_site_type_symbol
_atom_site_label
_atom_site_fract_x
_atom_site_fract_y
_atom_site_fract_z
Si Si1 0.137625 0.552297 0.816606
Si Si2 0.864090 0.659671 0.186078
Si Si3 0.665178 0.744978 0.315404
Si Si4 0.253411 0.448182 0.815567
Si Si5 0.863730 0.944005 0.315416
Si Si6 0.745863 0.055620 0.185019
O O1 0.113703 0.500000 0.750000
O O2 0.116316 0.606238 0.756691
O O3 0.195816 0.552872 0.751722
O O4 0.138183 0.550302 0.000000
O O5 0.804756 0.668864 0.233035
O O6 0.900403 0.706419 0.232722
O O7 0.864374 0.655001 0.000000
O O8 0.709285 0.709285 0.250000
O O9 0.668474 0.744554 0.500000
O O10 0.607880 0.725253 0.273876
O O11 0.278279 0.500000 0.750000
O O12 0.250498 0.451784 0.000000
O O13 0.901608 0.901608 0.250000
O O14 0.866593 0.944979 0.500000
O O15 0.804646 0.933392 0.269329
O O16 0.877011 0.000000 0.250000
O O17 0.731796 0.000000 0.250000
O O18 0.744738 0.053017 0.000000
#
# Coordination Sequence:
#
# PCOD9562309 Si02
#       6
#    16  16  16  16  16  16
#     4  10  17  26  43  67  91 118 152 192 233 276
#     4   9  18  33  48  66  93 125 156 190 231 276
#     4   9  18  29  42  63  94 125 153 185 226 270
#     4   9  16  27  42  61  86 119 156 193 230 273
#     4  10  20  35  54  77 101 127 156 191 233 280
#     4   9  19  35  54  72  95 124 156 193 232 272
#
# _framework density 16.178277000000001
#
# number of rings (size 3 to 8) (size 9 to 14) (size 15 to 20)
#    0.000    2.667    0.000    4.500    0.000    5.500 
#    0.000    0.833    0.000    0.500    0.000    3.500 
#    0.000    0.333    0.000    3.667    0.000    2.833 
#
# Total GULP energy -534697.434485 kJ/mol
# GULP energy per Si atom -5569.764943 kJ/mol
# Density = 1.614145 g / cm^3
# Si number density = 16.178277 Si / 1000 Ang^3
#
#
#
# Elastic Constant Matrix: (Units=GPa)
#
#
# Indices 1 2 3 4 5 6 
#
# 1 105.8982 84.7909 32.1903 0.0000 0.0000 0.0000
# 2 84.7909 105.8982 32.1903 0.0000 0.0000 0.0000
# 3 32.1903 32.1903 46.3428 0.0000 0.0000 0.0000
# 4 0.0000 0.0000 0.0000 25.3234 0.0000 0.0000
# 5 0.0000 0.0000 0.0000 0.0000 25.3234 0.0000
# 6 0.0000 0.0000 0.0000 0.0000 0.0000 -2.4387
#
#
#
# Elastic Compliance Matrix: (Units=1/GPa)
#
#
# Indices 1 2 3 4 5 6 
#
# 1 0.027114 -0.020263 -0.004759 0.000000 0.000000 0.000000
# 2 -0.020263 0.027114 -0.004759 0.000000 0.000000 0.000000
# 3 -0.004759 -0.004759 0.028189 0.000000 0.000000 0.000000
# 4 0.000000 0.000000 0.000000 0.039489 0.000000 0.000000
# 5 0.000000 0.000000 0.000000 0.000000 0.039489 0.000000
# 6 0.000000 0.000000 0.000000 0.000000 0.000000 -0.410047
#
#
# Mechanical properties :
#
#
# Convention : Reuss Voigt Hill
#
# Bulk Modulus (GPa) = 43.75192 61.83134 52.79163
# Shear Modulus (GPa) = -27.55241 16.90613 -5.32314
#
# Velocity S-wave (km/s) = -4.13128 3.23614 -1.81589
# Velocity P-wave (km/s) = 2.08464 7.22946 5.32028
#
# Compressibility (1/GPa) = 0.02285614
#
# Stress axis : x y z
#
# Youngs Moduli (GPa) = 36.88152 36.88152 35.47470
#
# Poissons Ratio (x) = 0.74733 0.16881
# Poissons Ratio (y) = 0.74733 0.16881
# Poissons Ratio (z) = 0.17550 0.17550
#
# Static dielectric constant tensor:
#      x y z
#    x 1.553020 0.000000 0.000000 
#    y 0.000000 1.553020 0.000000 
#    z 0.000000 0.000000 1.543500 
# 
# From -- ./inp_files/1511.got.cif
#   From: 2010.05.17/outbox.cif.g08.bks.cpg/sg124_1_cif.got.tgz:1511.got - 2010.05.20 11:49:17.
