data_PCOD9562979
_publ_section_title
;
Structure prediction by ZEFSAII (Michael W. Deem and Ramdas Pophale) SiO2 
 PCOD9562979
Probable space group: P 4/N B M
;
_chemical_formula_sum "Si O2"
_cell_formula_units_Z 40
_cell_length_a 11.093399
_cell_length_b 11.093399
_cell_length_c 13.207977
_cell_angle_alpha 90.000000
_cell_angle_beta 90.000000
_cell_angle_gamma 90.000000
_cell_volume 1625.419896
_symmetry_space_group_name_H-M "P 4/N B M"
_symmetry_group_IT_number 125
_space_group.IT_coordinate_system_code '2'
_symmetry_cell_setting 'tetragonal'
loop_
_space_group_symop_operation_xyz
x,y,z
1/2-y,x,z
1/2-x,1/2-y,z
y,1/2-x,z
x,1/2-y,-z
1/2-x,y,-z
y,x,-z
1/2-y,1/2-x,-z
-x,-y,-z
1/2+y,-x,-z
1/2+x,1/2+y,-z
-y,1/2+x,-z
-x,1/2+y,z
1/2+x,-y,z
-y,-x,z
1/2+y,1/2+x,z
loop_
_atom_site_type_symbol
_atom_site_label
_atom_site_fract_x
_atom_site_fract_y
_atom_site_fract_z
Si Si1 0.254827 0.545726 0.719799
Si Si2 0.545279 0.250000 0.500000
Si Si3 0.167900 0.024549 0.076659
O O1 0.379140 0.620861 0.729671
O O2 0.149463 0.649463 0.720329
O O3 0.248993 0.483738 0.609590
O O4 0.234582 0.462144 0.816800
O O5 0.634322 0.365679 0.496942
O O6 0.045578 0.954423 0.100733
O O7 0.250000 0.946968 0.000000
O O8 0.129582 0.129582 0.000000
#
# Coordination Sequence:
#
# PCOD9562979 Si02
#       3
#    16   8  16
#     4   8  13  23  42  67  93 121 155 197 241 282
#     4   7  10  18  36  64  92 117 150 192 238 283
#     4  10  20  32  47  68  94 124 158 196 237 284
#
# _framework density 24.609024999999999
#
# number of rings (size 3 to 8) (size 9 to 14) (size 15 to 20)
#    0.000    3.400    0.000    3.600    0.000    2.400 
#    0.000    0.000    0.000    2.400    0.000   14.000 
#    0.000    3.200    0.000    0.400    0.000    0.800 
#
# Total GULP energy -222799.231918 kJ/mol
# GULP energy per Si atom -5569.980798 kJ/mol
# Density = 2.455301 g / cm^3
# Si number density = 24.609025 Si / 1000 Ang^3
#
#
#
# Elastic Constant Matrix: (Units=GPa)
#
#
# Indices 1 2 3 4 5 6 
#
# 1 41.0169 29.0088 47.9047 0.0000 0.0000 0.0000
# 2 29.0088 41.0169 47.9047 0.0000 0.0000 0.0000
# 3 47.9047 47.9047 356.0575 0.0000 0.0000 0.0000
# 4 0.0000 0.0000 0.0000 -5.5903 0.0000 0.0000
# 5 0.0000 0.0000 0.0000 0.0000 -5.5903 0.0000
# 6 0.0000 0.0000 0.0000 0.0000 0.0000 13.2026
#
#
#
# Elastic Compliance Matrix: (Units=1/GPa)
#
#
# Indices 1 2 3 4 5 6 
#
# 1 0.050390 -0.032887 -0.002355 0.000000 0.000000 0.000000
# 2 -0.032887 0.050390 -0.002355 0.000000 0.000000 0.000000
# 3 -0.002355 -0.002355 0.003442 0.000000 0.000000 0.000000
# 4 0.000000 0.000000 0.000000 -0.178882 0.000000 0.000000
# 5 0.000000 0.000000 0.000000 0.000000 -0.178882 0.000000
# 6 0.000000 0.000000 0.000000 0.000000 0.000000 0.075743
#
#
# Mechanical properties :
#
#
# Convention : Reuss Voigt Hill
#
# Bulk Modulus (GPa) = 34.45000 76.41422 55.43211
# Shear Modulus (GPa) = -53.80339 21.28929 -16.25705
#
# Velocity S-wave (km/s) = -4.68089 2.94445 -2.57303
# Velocity P-wave (km/s) = 3.89679 6.53287 3.70766
#
# Compressibility (1/GPa) = 0.02902757
#
# Stress axis : x y z
#
# Youngs Moduli (GPa) = 19.84534 19.84534 290.51414
#
# Poissons Ratio (x) = 0.65266 0.68410
# Poissons Ratio (y) = 0.65266 0.68410
# Poissons Ratio (z) = 0.04673 0.04673
#
# Static dielectric constant tensor:
#      x y z
#    x 2.110220 0.000000 0.000000 
#    y 0.000000 2.110220 0.000000 
#    z 0.000000 0.000000 1.971990 
# 
# From -- ./inp_files/3294.got.cif
#   From: 2010.05.17/outbox.cif.g08.bks.cpg/sg125_2_cif.got.tgz:3294.got - 2010.05.20 11:54:10.
