data_PCOD9562415
_publ_section_title
;
Structure prediction by ZEFSAII (Michael W. Deem and Ramdas Pophale) SiO2 
 PCOD9562415
Probable space group: P 4/M C C
;
_chemical_formula_sum "Si O2"
_cell_formula_units_Z 96
_cell_length_a 16.988133
_cell_length_b 16.988133
_cell_length_c 15.648551
_cell_angle_alpha 90.000000
_cell_angle_beta 90.000000
_cell_angle_gamma 90.000000
_cell_volume 4516.119597
_symmetry_space_group_name_H-M "P 4/M C C"
_symmetry_group_IT_number 124
_symmetry_cell_setting 'tetragonal'
loop_
_space_group_symop_operation_xyz
x,y,z
-y,x,z
-x,-y,z
y,-x,z
x,-y,1/2-z
-x,y,1/2-z
y,x,1/2-z
-y,-x,1/2-z
-x,-y,-z
y,-x,-z
x,y,-z
-y,x,-z
-x,y,1/2+z
x,-y,1/2+z
-y,-x,1/2+z
y,x,1/2+z
loop_
_atom_site_type_symbol
_atom_site_label
_atom_site_fract_x
_atom_site_fract_y
_atom_site_fract_z
Si Si1 0.557253 0.701991 0.166877
Si Si2 0.128533 0.986060 0.601543
Si Si3 0.997826 0.299436 0.153666
Si Si4 0.685942 0.600972 0.094660
Si Si5 0.826513 0.289119 0.355881
Si Si6 0.829460 0.305374 0.152479
O O1 0.500000 0.709184 0.250000
O O2 0.616196 0.628288 0.157275
O O3 0.491869 0.694339 0.094747
O O4 0.618409 0.773256 0.153012
O O5 0.147203 0.984134 0.500000
O O6 0.206157 0.981808 0.655837
O O7 0.067208 0.916825 0.618878
O O8 0.914694 0.326912 0.114346
O O9 0.000000 0.333331 0.250000
O O10 0.084549 0.303667 0.111383
O O11 0.767963 0.639180 0.124584
O O12 0.668534 0.631619 0.000000
O O13 0.837649 0.284740 0.253458
O O14 0.772660 0.214357 0.384927
#
# Coordination Sequence:
#
# PCOD9562415 Si02
#       6
#    16  16  16  16  16  16
#     4  11  21  40  66  89 120 161 196 236 301 371
#     4   9  18  31  45  67 105 152 199 249 309 368
#     4  10  19  32  54  83 113 149 202 259 298 340
#     4  11  23  39  62  93 125 154 193 245 301 365
#     4   9  18  34  55  80 120 157 198 249 304 353
#     4   9  18  34  57  85 112 155 209 246 287 361
#
# _framework density 21.257186999999998
#
# number of rings (size 3 to 8) (size 9 to 14) (size 15 to 20)
#    0.000    2.167    1.667    2.500    0.000    3.000 
#    0.000    9.167    0.000    1.000    0.000    0.000 
#    0.000    0.000    0.000    0.000    0.000    0.000 
#
# Total GULP energy -534745.799148 kJ/mol
# GULP energy per Si atom -5570.268741 kJ/mol
# Density = 2.120880 g / cm^3
# Si number density = 21.257187 Si / 1000 Ang^3
#
#
#
# Elastic Constant Matrix: (Units=GPa)
#
#
# Indices 1 2 3 4 5 6 
#
# 1 42.2928 140.8448 10.5409 0.0000 0.0000 0.0000
# 2 140.8448 42.2928 10.5409 0.0000 0.0000 0.0000
# 3 10.5409 10.5409 53.1337 0.0000 0.0000 0.0000
# 4 0.0000 0.0000 0.0000 7.9961 0.0000 0.0000
# 5 0.0000 0.0000 0.0000 0.0000 7.9961 0.0000
# 6 0.0000 0.0000 0.0000 0.0000 0.0000 -1.3522
#
#
#
# Elastic Compliance Matrix: (Units=1/GPa)
#
#
# Indices 1 2 3 4 5 6 
#
# 1 -0.002279 0.007867 -0.001109 0.000000 0.000000 0.000000
# 2 0.007867 -0.002279 -0.001109 0.000000 0.000000 0.000000
# 3 -0.001109 -0.001109 0.019260 0.000000 0.000000 0.000000
# 4 0.000000 0.000000 0.000000 0.125060 0.000000 0.000000
# 5 0.000000 0.000000 0.000000 0.000000 0.125060 0.000000
# 6 0.000000 0.000000 0.000000 0.000000 0.000000 -0.739539
#
#
# Mechanical properties :
#
#
# Convention : Reuss Voigt Hill
#
# Bulk Modulus (GPa) = 38.45860 51.28584 44.87222
# Shear Modulus (GPa) = -10.47450 1.31419 -4.58015
#
# Velocity S-wave (km/s) = -2.22221 0.78713 -1.46946
# Velocity P-wave (km/s) = 3.39809 5.00048 4.27504
#
# Compressibility (1/GPa) = 0.02600199
#
# Stress axis : x y z
#
# Youngs Moduli (GPa) = -438.69871 -438.69871 51.92028
#
# Poissons Ratio (x) = 3.45144 0.05756
# Poissons Ratio (y) = 3.45144 0.05756
# Poissons Ratio (z) = -0.48633 -0.48633
#
# Static dielectric constant tensor:
#      x y z
#    x 1.784790 0.000000 0.000000 
#    y 0.000000 1.784790 0.000000 
#    z 0.000000 0.000000 1.922690 
# 
# From -- ./inp_files/4296.got.cif
#   From: 2010.05.17/outbox.cif.g08.bks.cpg/sg124_3_cif.got.tgz:4296.got - 2010.05.20 11:49:17.
