data_PCOD9562518
_publ_section_title
;
Structure prediction by ZEFSAII (Michael W. Deem and Ramdas Pophale) SiO2 
 PCOD9562518
Probable space group: P 4/M C C
;
_chemical_formula_sum "Si O2"
_cell_formula_units_Z 96
_cell_length_a 29.626685
_cell_length_b 29.626685
_cell_length_c 9.040443
_cell_angle_alpha 90.000000
_cell_angle_beta 90.000000
_cell_angle_gamma 90.000000
_cell_volume 7935.162634
_symmetry_space_group_name_H-M "P 4/M C C"
_symmetry_group_IT_number 124
_symmetry_cell_setting 'tetragonal'
loop_
_space_group_symop_operation_xyz
x,y,z
-y,x,z
-x,-y,z
y,-x,z
x,-y,1/2-z
-x,y,1/2-z
y,x,1/2-z
-y,-x,1/2-z
-x,-y,-z
y,-x,-z
x,y,-z
-y,x,-z
-x,y,1/2+z
x,-y,1/2+z
-y,-x,1/2+z
y,x,1/2+z
loop_
_atom_site_type_symbol
_atom_site_label
_atom_site_fract_x
_atom_site_fract_y
_atom_site_fract_z
Si Si1 0.308658 0.886655 0.670722
Si Si2 0.384758 0.807571 0.668711
Si Si3 0.256002 0.320578 0.169091
Si Si4 0.756800 0.177762 0.828302
Si Si5 0.622957 0.049338 0.821769
Si Si6 0.883948 0.450793 0.820024
O O1 0.302158 0.900531 0.500000
O O2 0.345953 0.846390 0.669365
O O3 0.264286 0.864535 0.741733
O O4 0.331314 0.925625 0.768375
O O5 0.390892 0.792872 0.500000
O O6 0.364908 0.766422 0.761169
O O7 0.428917 0.835053 0.717795
O O8 0.298647 0.298647 0.250000
O O9 0.216704 0.282068 0.175245
O O10 0.267234 0.328542 0.000000
O O11 0.799907 0.200094 0.750000
O O12 0.765325 0.167464 0.000000
O O13 0.582155 0.078774 0.751989
O O14 0.621292 0.000000 0.750000
O O15 0.620026 0.048138 0.000000
O O16 0.888327 0.500000 0.750000
O O17 0.888259 0.450755 0.000000
#
# Coordination Sequence:
#
# PCOD9562518 Si02
#       6
#    16  16  16  16  16  16
#     4   9  16  27  40  54  71  90 111 137 169 207
#     4   8  15  26  38  51  69  88 107 132 164 201
#     4   9  15  21  32  49  69  90 111 131 155 189
#     4   9  15  22  33  51  72  94 115 135 160 194
#     4  11  21  33  46  58  71  88 112 144 183 226
#     4  10  20  33  46  59  72  88 111 143 182 223
#
# _framework density 12.098051
#
# number of rings (size 3 to 8) (size 9 to 14) (size 15 to 20)
#    0.000    2.667    0.000    4.500    0.000    9.000 
#    0.000    1.667    0.000    0.000    0.000    0.000 
#    0.000    0.000    0.000    0.000    0.000    0.000 
#
# Total GULP energy -534438.333242 kJ/mol
# GULP energy per Si atom -5567.065971 kJ/mol
# Density = 1.207052 g / cm^3
# Si number density = 12.098051 Si / 1000 Ang^3
#
#
#
# Elastic Constant Matrix: (Units=GPa)
#
#
# Indices 1 2 3 4 5 6 
#
# 1 50.6911 51.4816 45.5375 0.0000 0.0000 0.0000
# 2 51.4816 50.6916 45.5378 0.0000 0.0000 0.0000
# 3 45.5375 45.5378 103.5419 0.0000 0.0000 0.0000
# 4 0.0000 0.0000 0.0000 16.0202 0.0000 0.0000
# 5 0.0000 0.0000 0.0000 0.0000 16.0199 0.0000
# 6 0.0000 0.0000 0.0000 0.0000 0.0000 14.1475
#
#
#
# Elastic Compliance Matrix: (Units=1/GPa)
#
#
# Indices 1 2 3 4 5 6 
#
# 1 -0.624648 0.640744 -0.007080 0.000000 0.000000 0.000000
# 2 0.640744 -0.624643 -0.007080 0.000000 0.000000 0.000000
# 3 -0.007080 -0.007080 0.015886 0.000000 0.000000 0.000000
# 4 0.000000 0.000000 0.000000 0.062421 0.000000 0.000000
# 5 0.000000 0.000000 0.000000 0.000000 0.062422 0.000000
# 6 0.000000 0.000000 0.000000 0.000000 0.000000 0.070684
#
#
# Mechanical properties :
#
#
# Convention : Reuss Voigt Hill
#
# Bulk Modulus (GPa) = 50.60199 54.44869 52.52534
# Shear Modulus (GPa) = -2.18870 13.39536 5.60333
#
# Velocity S-wave (km/s) = -1.34650 3.33112 2.15445
# Velocity P-wave (km/s) = 6.28490 7.73945 7.04979
#
# Compressibility (1/GPa) = 0.01976207
#
# Stress axis : x y z
#
# Youngs Moduli (GPa) = -1.60090 -1.60091 62.95034
#
# Poissons Ratio (x) = 1.02578 0.44572
# Poissons Ratio (y) = 1.02577 0.44567
# Poissons Ratio (z) = -0.01134 -0.01133
#
# Static dielectric constant tensor:
#      x y z
#    x 1.381570 0.000000 0.000000 
#    y 0.000000 1.381570 0.000000 
#    z 0.000000 0.000000 1.408720 
# 
# From -- ./inp_files/1524.got.cif
#   From: 2010.05.17/outbox.cif.g08.bks.cpg/sg124_1_cif.got.tgz:1524.got - 2010.05.20 11:49:17.
