data_PCOD9562427
_publ_section_title
;
Structure prediction by ZEFSAII (Michael W. Deem and Ramdas Pophale) SiO2 
 PCOD9562427
Probable space group: P 4/M C C
;
_chemical_formula_sum "Si O2"
_cell_formula_units_Z 112
_cell_length_a 15.835890
_cell_length_b 15.835890
_cell_length_c 27.650885
_cell_angle_alpha 90.000000
_cell_angle_beta 90.000000
_cell_angle_gamma 90.000000
_cell_volume 6934.162081
_symmetry_space_group_name_H-M "P 4/M C C"
_symmetry_group_IT_number 124
_symmetry_cell_setting 'tetragonal'
loop_
_space_group_symop_operation_xyz
x,y,z
-y,x,z
-x,-y,z
y,-x,z
x,-y,1/2-z
-x,y,1/2-z
y,x,1/2-z
-y,-x,1/2-z
-x,-y,-z
y,-x,-z
x,y,-z
-y,x,-z
-x,y,1/2+z
x,-y,1/2+z
-y,-x,1/2+z
y,x,1/2+z
loop_
_atom_site_type_symbol
_atom_site_label
_atom_site_fract_x
_atom_site_fract_y
_atom_site_fract_z
Si Si1 0.904170 0.670883 0.309867
Si Si2 0.400022 0.597173 0.808572
Si Si3 0.489242 0.755842 0.055744
Si Si4 0.260912 0.733442 0.654692
Si Si5 0.495984 0.091731 0.128293
Si Si6 0.689100 0.323755 0.944342
Si Si7 0.092359 0.653381 0.303335
O O1 0.826175 0.730307 0.322612
O O2 0.893518 0.594025 0.347218
O O3 0.894708 0.644236 0.253936
O O4 0.002251 0.698903 0.313176
O O5 0.383086 0.498393 0.822143
O O6 0.397508 0.602493 0.750000
O O7 0.330814 0.663283 0.828482
O O8 0.481955 0.833175 0.092396
O O9 0.410128 0.694136 0.062024
O O10 0.578339 0.710274 0.063372
O O11 0.487563 0.785768 0.000000
O O12 0.269991 0.735777 0.596711
O O13 0.172548 0.696887 0.672609
O O14 0.562387 0.085905 0.171884
O O15 0.500000 0.000000 0.103368
O O16 0.711320 0.302328 0.000000
#
# Coordination Sequence:
#
# PCOD9562427 Si02
#       7
#    16  16  16  16  16  16  16
#     4  10  21  35  52  78 109 139 174 215 262 320
#     4   9  20  34  46  70 105 135 170 214 253 298
#     4  10  20  37  53  72 100 137 182 226 266 307
#     4  12  21  34  58  76 100 141 181 215 262 316
#     4  10  19  33  51  76 106 139 169 209 266 318
#     4  10  22  36  52  73 101 136 179 225 264 305
#     4  10  21  35  52  78 109 139 174 215 262 320
#
# _framework density 16.151914999999999
#
# number of rings (size 3 to 8) (size 9 to 14) (size 15 to 20)
#    0.000    1.857    2.857    2.143    4.000    2.286 
#    0.000    1.429    0.000    1.286    0.000    2.000 
#    0.000    0.000    0.000    1.286    0.000    0.143 
#
# Total GULP energy -624557.799469 kJ/mol
# GULP energy per Si atom -5576.408924 kJ/mol
# Density = 1.611515 g / cm^3
# Si number density = 16.151915 Si / 1000 Ang^3
#
#
#
# Elastic Constant Matrix: (Units=GPa)
#
#
# Indices 1 2 3 4 5 6 
#
# 1 59.2920 27.3869 20.5168 0.0000 0.0000 0.0000
# 2 27.3869 59.2920 20.5167 0.0000 0.0000 0.0000
# 3 20.5168 20.5167 75.8736 0.0000 0.0000 0.0000
# 4 0.0000 0.0000 0.0000 18.6341 0.0000 0.0000
# 5 0.0000 0.0000 0.0000 0.0000 18.6341 0.0000
# 6 0.0000 0.0000 0.0000 0.0000 0.0000 16.4601
#
#
#
# Elastic Compliance Matrix: (Units=1/GPa)
#
#
# Indices 1 2 3 4 5 6 
#
# 1 0.022287 -0.009056 -0.003578 0.000000 0.000000 0.000000
# 2 -0.009056 0.022287 -0.003578 0.000000 0.000000 0.000000
# 3 -0.003578 -0.003578 0.015115 0.000000 0.000000 0.000000
# 4 0.000000 0.000000 0.000000 0.053665 0.000000 0.000000
# 5 0.000000 0.000000 0.000000 0.000000 0.053665 0.000000
# 6 0.000000 0.000000 0.000000 0.000000 0.000000 0.060753
#
#
# Mechanical properties :
#
#
# Convention : Reuss Voigt Hill
#
# Bulk Modulus (GPa) = 36.67689 36.81092 36.74391
# Shear Modulus (GPa) = 18.56789 19.14816 18.85802
#
# Velocity S-wave (km/s) = 3.39422 3.44685 3.42064
# Velocity P-wave (km/s) = 6.17396 6.21940 6.19672
#
# Compressibility (1/GPa) = 0.02726513
#
# Stress axis : x y z
#
# Youngs Moduli (GPa) = 44.86982 44.86983 66.16105
#
# Poissons Ratio (x) = 0.40635 0.23670
# Poissons Ratio (y) = 0.40635 0.23670
# Poissons Ratio (z) = 0.16053 0.16053
#
# Static dielectric constant tensor:
#      x y z
#    x 1.542780 0.000000 0.000000 
#    y 0.000000 1.542780 0.000000 
#    z 0.000000 0.000000 1.559670 
# 
# From -- ./inp_files/6628.got.cif
#   From: 2010.05.17/outbox.cif.g08.bks.cpg/sg124_4_cif.got.tgz:6628.got - 2010.05.20 11:49:17.
