data_PCOD9562280
_publ_section_title
;
Structure prediction by ZEFSAII (Michael W. Deem and Ramdas Pophale) SiO2 
 PCOD9562280
Probable space group: P 4/M M M
;
_chemical_formula_sum "Si O2"
_cell_formula_units_Z 112
_cell_length_a 18.757521
_cell_length_b 18.757521
_cell_length_c 22.573624
_cell_angle_alpha 90.000000
_cell_angle_beta 90.000000
_cell_angle_gamma 90.000000
_cell_volume 7942.407573
_symmetry_space_group_name_H-M "P 4/M M M"
_symmetry_group_IT_number 123
_symmetry_cell_setting 'tetragonal'
loop_
_space_group_symop_operation_xyz
x,y,z
-y,x,z
-x,-y,z
y,-x,z
x,-y,-z
-x,y,-z
y,x,-z
-y,-x,-z
-x,-y,-z
y,-x,-z
x,y,-z
-y,x,-z
-x,y,z
x,-y,z
-y,-x,z
y,x,z
loop_
_atom_site_type_symbol
_atom_site_label
_atom_site_fract_x
_atom_site_fract_y
_atom_site_fract_z
Si Si1 0.298487 0.583029 0.704525
Si Si2 0.083587 0.799222 0.317723
Si Si3 0.796463 0.584313 0.179313
Si Si4 0.348213 0.916917 0.250523
Si Si5 0.582668 0.152870 0.636012
Si Si6 0.416561 0.701619 0.931579
Si Si7 0.707321 0.084689 0.567366
O O1 0.320202 0.500000 0.701584
O O2 0.362755 0.637246 0.695379
O O3 0.262334 0.595267 0.768945
O O4 0.234130 0.594117 0.657783
O O5 0.135920 0.864081 0.305044
O O6 0.095150 0.732403 0.273574
O O7 0.098832 0.767294 0.383261
O O8 0.000000 0.818704 0.315180
O O9 0.814745 0.500000 0.180783
O O10 0.864834 0.629863 0.197711
O O11 0.761886 0.601548 0.116259
O O12 0.397886 0.894812 0.306315
O O13 0.357119 0.000000 0.237025
O O14 0.500000 0.143680 0.620279
O O15 0.637507 0.128769 0.585857
O O16 0.500000 0.683352 0.922863
O O17 0.366473 0.633528 0.922040
O O18 0.407787 0.724686 0.000000
O O19 0.729154 0.099277 0.500000
O O20 0.690623 0.000000 0.572400
#
# Coordination Sequence:
#
# PCOD9562280 Si02
#       7
#    16  16  16  16  16  16  16
#     4   9  17  28  41  58  80 104 132 167 204 242
#     4   9  18  31  45  62  83 105 131 163 196 232
#     4   9  17  27  40  60  84 109 137 169 203 239
#     4   9  17  28  43  63  84 106 133 164 198 239
#     4   9  17  27  40  60  83 105 131 164 199 237
#     4   9  17  28  41  58  82 112 146 182 214 243
#     4   9  18  30  42  59  83 108 132 158 191 233
#
# _framework density 14.101516999999999
#
# number of rings (size 3 to 8) (size 9 to 14) (size 15 to 20)
#    0.000    3.000    0.000    3.000    0.000    8.714 
#    0.000    1.429    0.000    3.000    0.000    4.000 
#    0.000    0.000    0.000    3.143    0.000    0.000 
#
# Total GULP energy -623816.456174 kJ/mol
# GULP energy per Si atom -5569.789787 kJ/mol
# Density = 1.406942 g / cm^3
# Si number density = 14.101517 Si / 1000 Ang^3
#
#
#
# Elastic Constant Matrix: (Units=GPa)
#
#
# Indices 1 2 3 4 5 6 
#
# 1 74.6079 64.4093 31.0616 0.0000 0.0000 0.0000
# 2 64.4093 74.6079 31.0616 0.0000 0.0000 0.0000
# 3 31.0616 31.0616 60.0108 0.0000 0.0000 0.0000
# 4 0.0000 0.0000 0.0000 15.2542 0.0000 0.0000
# 5 0.0000 0.0000 0.0000 0.0000 15.2542 0.0000
# 6 0.0000 0.0000 0.0000 0.0000 0.0000 2.9229
#
#
#
# Elastic Compliance Matrix: (Units=1/GPa)
#
#
# Indices 1 2 3 4 5 6 
#
# 1 0.053705 -0.044347 -0.004844 0.000000 0.000000 0.000000
# 2 -0.044347 0.053705 -0.004844 0.000000 0.000000 0.000000
# 3 -0.004844 -0.004844 0.021678 0.000000 0.000000 0.000000
# 4 0.000000 0.000000 0.000000 0.065556 0.000000 0.000000
# 5 0.000000 0.000000 0.000000 0.000000 0.065556 0.000000
# 6 0.000000 0.000000 0.000000 0.000000 0.000000 0.342123
#
#
# Mechanical properties :
#
#
# Convention : Reuss Voigt Hill
#
# Bulk Modulus (GPa) = 47.57604 51.36575 49.47090
# Shear Modulus (GPa) = 6.96964 12.19922 9.58443
#
# Velocity S-wave (km/s) = 2.22558 2.94445 2.60988
# Velocity P-wave (km/s) = 6.35734 6.93285 6.65132
#
# Compressibility (1/GPa) = 0.02101898
#
# Stress axis : x y z
#
# Youngs Moduli (GPa) = 18.62022 18.62022 46.13010
#
# Poissons Ratio (x) = 0.82575 0.22344
# Poissons Ratio (y) = 0.82575 0.22344
# Poissons Ratio (z) = 0.09019 0.09019
#
# Static dielectric constant tensor:
#      x y z
#    x 1.454780 0.000000 0.000000 
#    y 0.000000 1.454780 0.000000 
#    z 0.000000 0.000000 1.464200 
# 
# From -- ./inp_files/7561.got.cif
#   From: 2010.05.17/outbox.cif.g08.bks.cpg/sg123_4_cif.got.tgz:7561.got - 2010.05.20 11:43:04.
