data_PCOD9562857
_publ_section_title
;
Structure prediction by ZEFSAII (Michael W. Deem and Ramdas Pophale) SiO2 
 PCOD9562857
Probable space group: P 4/M C C
;
_chemical_formula_sum "Si O2"
_cell_formula_units_Z 112
_cell_length_a 15.000000
_cell_length_b 15.000000
_cell_length_c 27.000000
_cell_angle_alpha 90.000000
_cell_angle_beta 90.000000
_cell_angle_gamma 90.000000
_cell_volume 6075.000000
_symmetry_space_group_name_H-M "P 4/M C C"
_symmetry_group_IT_number 124
_symmetry_cell_setting 'tetragonal'
loop_
_space_group_symop_operation_xyz
x,y,z
-y,x,z
-x,-y,z
y,-x,z
x,-y,1/2-z
-x,y,1/2-z
y,x,1/2-z
-y,-x,1/2-z
-x,-y,-z
y,-x,-z
x,y,-z
-y,x,-z
-x,y,1/2+z
x,-y,1/2+z
-y,-x,1/2+z
y,x,1/2+z
loop_
_atom_site_type_symbol
_atom_site_label
_atom_site_fract_x
_atom_site_fract_y
_atom_site_fract_z
Si Si1 0.568266 0.778909 0.677374
Si Si2 0.988759 0.858697 0.060018
Si Si3 0.599897 0.612059 0.000000
Si Si4 0.401622 0.973964 0.157176
Si Si5 0.824678 0.356431 0.165353
Si Si6 0.698660 0.698660 0.750000
Si Si7 0.312720 0.716336 0.911962
Si Si8 0.669215 0.918064 0.442701
O O1 0.616030 0.877319 0.682471
O O2 0.462037 0.796924 0.672506
O O3 0.605591 0.715960 0.721078
O O4 0.608937 0.732979 0.628338
O O5 0.973824 0.756885 0.072340
O O6 0.079022 0.906698 0.076883
O O7 0.988773 0.861792 0.000000
O O8 0.493375 0.621690 0.000000
O O9 0.644795 0.656844 0.047769
O O10 0.401292 0.946746 0.098866
O O11 0.500000 0.000000 0.173956
O O12 0.349546 0.067449 0.164767
O O13 0.777095 0.301572 0.209356
O O14 0.775710 0.318548 0.116163
O O15 0.304083 0.814086 0.936781
O O16 0.644901 0.934554 0.500000
#
# Coordination Sequence:
#
# PCOD9562857 Si02
#       8
#    16  16   8  16  16   8  16  16
#     4   9  19  37  58  82 114 140 178 233 286 345
#     4   8  15  27  43  65  95 131 174 226 274 312
#     4  11  22  36  54  74 102 153 206 232 272 341
#     4   9  20  36  53  79 113 149 181 227 286 340
#     4  10  20  36  57  83 113 144 182 227 289 348
#     4  10  20  34  60  85 106 139 176 222 286 342
#     4  10  20  35  53  78 112 149 187 239 285 324
#     4  10  19  32  51  75 111 148 196 243 273 328
#
# _framework density 18.436214
#
# number of rings (size 3 to 8) (size 9 to 14) (size 15 to 20)
#    0.000    2.500    0.714    1.714    2.000    0.857 
#    1.286    2.143    0.000   16.286    0.000    0.000 
#    0.000    2.857    0.000    0.000    0.000    0.000 
#
# Total GULP energy -623614.055799 kJ/mol
# GULP energy per Si atom -5567.982641 kJ/mol
# Density = 1.839425 g / cm^3
# Si number density = 18.436214 Si / 1000 Ang^3
#
#
#
# Elastic Constant Matrix: (Units=GPa)
#
#
# Indices 1 2 3 4 5 6 
#
# 1 61.0517 10.7796 15.5514 0.0000 0.0000 0.0000
# 2 10.7796 61.0517 15.5514 0.0000 0.0000 0.0000
# 3 15.5514 15.5514 62.2263 0.0000 0.0000 0.0000
# 4 0.0000 0.0000 0.0000 23.0811 0.0000 0.0000
# 5 0.0000 0.0000 0.0000 0.0000 23.0811 0.0000
# 6 0.0000 0.0000 0.0000 0.0000 0.0000 26.1197
#
#
#
# Elastic Compliance Matrix: (Units=1/GPa)
#
#
# Indices 1 2 3 4 5 6 
#
# 1 0.017751 -0.002140 -0.003901 0.000000 0.000000 0.000000
# 2 -0.002140 0.017751 -0.003901 0.000000 0.000000 0.000000
# 3 -0.003901 -0.003901 0.018020 0.000000 0.000000 0.000000
# 4 0.000000 0.000000 0.000000 0.043326 0.000000 0.000000
# 5 0.000000 0.000000 0.000000 0.000000 0.043326 0.000000
# 6 0.000000 0.000000 0.000000 0.000000 0.000000 0.038285
#
#
# Mechanical properties :
#
#
# Convention : Reuss Voigt Hill
#
# Bulk Modulus (GPa) = 29.72969 29.78830 29.75899
# Shear Modulus (GPa) = 23.85974 23.95286 23.90630
#
# Velocity S-wave (km/s) = 3.60137 3.60839 3.60488
# Velocity P-wave (km/s) = 5.78393 5.79251 5.78823
#
# Compressibility (1/GPa) = 0.03363641
#
# Stress axis : x y z
#
# Youngs Moduli (GPa) = 56.33401 56.33401 55.49253
#
# Poissons Ratio (x) = 0.12058 0.21650
# Poissons Ratio (y) = 0.12058 0.21650
# Poissons Ratio (z) = 0.21978 0.21978
#
# Static dielectric constant tensor:
#      x y z
#    x 1.647570 0.000000 0.000000 
#    y 0.000000 1.647570 0.000000 
#    z 0.000000 0.000000 1.657440 
# 
# From -- ./inp_files/6675.got.cif
#   From: 2010.05.17/outbox.ucp.g08.bks.cvg/sg124_4_cif.got.tgz:6675.got - 2010.06.11 11:36:13.
