data_PCOD9562805
_publ_section_title
;
Structure prediction by ZEFSAII (Michael W. Deem and Ramdas Pophale) SiO2 
 PCOD9562805
Probable space group: P 4/M C C
;
_chemical_formula_sum "Si O2"
_cell_formula_units_Z 40
_cell_length_a 12.125830
_cell_length_b 12.125830
_cell_length_c 10.980592
_cell_angle_alpha 90.000000
_cell_angle_beta 90.000000
_cell_angle_gamma 90.000000
_cell_volume 1614.539615
_symmetry_space_group_name_H-M "P 4/M C C"
_symmetry_group_IT_number 124
_symmetry_cell_setting 'tetragonal'
loop_
_space_group_symop_operation_xyz
x,y,z
-y,x,z
-x,-y,z
y,-x,z
x,-y,1/2-z
-x,y,1/2-z
y,x,1/2-z
-y,-x,1/2-z
-x,-y,-z
y,-x,-z
x,y,-z
-y,x,-z
-x,y,1/2+z
x,-y,1/2+z
-y,-x,1/2+z
y,x,1/2+z
loop_
_atom_site_type_symbol
_atom_site_label
_atom_site_fract_x
_atom_site_fract_y
_atom_site_fract_z
Si Si1 0.164826 0.914484 0.000000
Si Si2 0.542617 0.733190 0.131982
Si Si3 0.877217 0.341874 0.704223
O O1 0.236002 0.885357 0.880842
O O2 0.143085 0.046074 0.000000
O O3 0.500000 0.666816 0.250000
O O4 0.651541 0.797170 0.177114
O O5 0.445225 0.825517 0.129805
O O6 0.557550 0.682191 0.000000
O O7 0.000000 0.365154 0.750000
#
# Coordination Sequence:
#
# PCOD9562805 Si02
#       3
#     8  16  16
#     4  11  24  40  51  62 100 168 229 251 252 304
#     4   8  15  27  53  86 107 112 148 242 336 385
#     4   9  18  29  52  74  96 121 182 248 299 341
#
# _framework density 24.774864000000001
#
# number of rings (size 3 to 8) (size 9 to 14) (size 15 to 20)
#    2.400    0.200    2.000    2.400    2.800    3.200 
#    0.000    2.000    0.000    0.000    0.000    0.000 
#    0.000    0.000    0.000    0.000    0.000   96.000 
#
# Total GULP energy -222866.382674 kJ/mol
# GULP energy per Si atom -5571.659567 kJ/mol
# Density = 2.471847 g / cm^3
# Si number density = 24.774864 Si / 1000 Ang^3
#
#
#
# Elastic Constant Matrix: (Units=GPa)
#
#
# Indices 1 2 3 4 5 6 
#
# 1 135.4442 74.5831 42.8591 0.0000 0.0000 0.0000
# 2 74.5831 135.4442 42.8591 0.0000 0.0000 0.0000
# 3 42.8591 42.8591 220.9411 0.0000 0.0000 0.0000
# 4 0.0000 0.0000 0.0000 -132.5921 0.0000 0.0000
# 5 0.0000 0.0000 0.0000 0.0000 -132.5921 0.0000
# 6 0.0000 0.0000 0.0000 0.0000 0.0000 37.2122
#
#
#
# Elastic Compliance Matrix: (Units=1/GPa)
#
#
# Indices 1 2 3 4 5 6 
#
# 1 0.010801 -0.005630 -0.001003 0.000000 0.000000 0.000000
# 2 -0.005630 0.010801 -0.001003 0.000000 0.000000 0.000000
# 3 -0.001003 -0.001003 0.004915 0.000000 0.000000 0.000000
# 4 0.000000 0.000000 0.000000 -0.007542 0.000000 0.000000
# 5 0.000000 0.000000 0.000000 0.000000 -0.007542 0.000000
# 6 0.000000 0.000000 0.000000 0.000000 0.000000 0.026873
#
#
# Mechanical properties :
#
#
# Convention : Reuss Voigt Hill
#
# Bulk Modulus (GPa) = 88.93286 90.27021 89.60153
# Shear Modulus (GPa) = 87.22007 -23.49250 31.86379
#
# Velocity S-wave (km/s) = 5.93982 -3.08269 3.59016
# Velocity P-wave (km/s) = 9.11133 4.88310 7.30962
#
# Compressibility (1/GPa) = 0.01124444
#
# Stress axis : x y z
#
# Youngs Moduli (GPa) = 92.58608 92.58608 203.44913
#
# Poissons Ratio (x) = 0.52127 0.20406
# Poissons Ratio (y) = 0.52127 0.20406
# Poissons Ratio (z) = 0.09287 0.09287
#
# Static dielectric constant tensor:
#      x y z
#    x 1.935480 0.000000 0.000000 
#    y 0.000000 1.935480 0.000000 
#    z 0.000000 0.000000 2.076460 
# 
# From -- ./inp_files/1935.got.cif
#   From: 2010.05.17/outbox.cif.g08.bks.cpg/sg124_1_cif.got.tgz:1935.got - 2010.05.20 11:49:17.
