data_PCOD9562047
_publ_section_title
;
Structure prediction by ZEFSAII (Michael W. Deem and Ramdas Pophale) SiO2 
 PCOD9562047
Probable space group: P 4/M M M
;
_chemical_formula_sum "Si O2"
_cell_formula_units_Z 88
_cell_length_a 13.465984
_cell_length_b 13.465984
_cell_length_c 28.993528
_cell_angle_alpha 90.000000
_cell_angle_beta 90.000000
_cell_angle_gamma 90.000000
_cell_volume 5257.475442
_symmetry_space_group_name_H-M "P 4/M M M"
_symmetry_group_IT_number 123
_symmetry_cell_setting 'tetragonal'
loop_
_space_group_symop_operation_xyz
x,y,z
-y,x,z
-x,-y,z
y,-x,z
x,-y,-z
-x,y,-z
y,x,-z
-y,-x,-z
-x,-y,-z
y,-x,-z
x,y,-z
-y,x,-z
-x,y,z
x,-y,z
-y,-x,z
y,x,z
loop_
_atom_site_type_symbol
_atom_site_label
_atom_site_fract_x
_atom_site_fract_y
_atom_site_fract_z
Si Si1 0.118487 0.278171 0.762224
Si Si2 0.388402 0.120418 0.855984
Si Si3 0.382572 0.782445 0.323138
Si Si4 0.381812 0.783013 0.500000
Si Si5 0.279945 0.117988 0.051356
Si Si6 0.282772 0.118040 0.411313
O O1 0.174034 0.174034 0.754667
O O2 0.145782 0.319347 0.812840
O O3 0.160611 0.352856 0.723730
O O4 0.000000 0.270174 0.758733
O O5 0.500000 0.157293 0.848705
O O6 0.346774 0.151058 0.905732
O O7 0.391982 0.000000 0.856789
O O8 0.500000 0.767754 0.326578
O O9 0.320174 0.679827 0.324040
O O10 0.341490 0.847782 0.365616
O O11 0.500000 0.769469 0.500000
O O12 0.320719 0.679282 0.500000
O O13 0.345371 0.843642 0.544801
O O14 0.177235 0.177235 0.054155
O O15 0.264037 0.000000 0.055276
O O16 0.322793 0.136755 0.000000
O O17 0.179203 0.179203 0.411845
O O18 0.269095 0.000000 0.412495
#
# Coordination Sequence:
#
# PCOD9562047 Si02
#       6
#    16  16  16   8  16  16
#     4  10  20  33  50  73 100 130 164 200 240 290
#     4   9  17  29  45  64  87 118 155 193 234 279
#     4  10  21  36  54  77 103 132 169 210 251 297
#     4  10  21  36  54  78 106 136 173 214 256 304
#     4   9  17  28  42  62  89 120 153 189 230 280
#     4  10  21  36  54  78 106 136 172 211 252 302
#
# _framework density 16.738071000000001
#
# number of rings (size 3 to 8) (size 9 to 14) (size 15 to 20)
#    0.000    2.364    0.000    2.455    0.000    4.818 
#    0.000    2.727    0.000   11.455    0.000    0.000 
#    0.000    3.273    0.000    8.000    0.000    0.727 
#
# Total GULP energy -490619.462598 kJ/mol
# GULP energy per Si atom -5575.221166 kJ/mol
# Density = 1.669997 g / cm^3
# Si number density = 16.738071 Si / 1000 Ang^3
#
#
#
# Elastic Constant Matrix: (Units=GPa)
#
#
# Indices 1 2 3 4 5 6 
#
# 1 112.5819 66.9010 45.4822 0.0000 0.0000 0.0000
# 2 66.9010 112.5807 45.4824 0.0000 0.0000 0.0000
# 3 45.4822 45.4824 121.8922 0.0000 0.0000 0.0000
# 4 0.0000 0.0000 0.0000 16.1147 0.0000 0.0000
# 5 0.0000 0.0000 0.0000 0.0000 16.1146 0.0000
# 6 0.0000 0.0000 0.0000 0.0000 0.0000 5.8307
#
#
#
# Elastic Compliance Matrix: (Units=1/GPa)
#
#
# Indices 1 2 3 4 5 6 
#
# 1 0.014381 -0.007510 -0.002564 0.000000 0.000000 0.000000
# 2 -0.007510 0.014381 -0.002564 0.000000 0.000000 0.000000
# 3 -0.002564 -0.002564 0.010117 0.000000 0.000000 0.000000
# 4 0.000000 0.000000 0.000000 0.062055 0.000000 0.000000
# 5 0.000000 0.000000 0.000000 0.000000 0.062055 0.000000
# 6 0.000000 0.000000 0.000000 0.000000 0.000000 0.171505
#
#
# Mechanical properties :
#
#
# Convention : Reuss Voigt Hill
#
# Bulk Modulus (GPa) = 73.50789 73.64288 73.57539
# Shear Modulus (GPa) = 13.72475 20.22462 16.97469
#
# Velocity S-wave (km/s) = 2.86662 3.47983 3.18801
# Velocity P-wave (km/s) = 7.41408 7.76134 7.58970
#
# Compressibility (1/GPa) = 0.01360398
#
# Stress axis : x y z
#
# Youngs Moduli (GPa) = 69.53609 69.53509 98.84104
#
# Poissons Ratio (x) = 0.52222 0.25340
# Poissons Ratio (y) = 0.52223 0.25341
# Poissons Ratio (z) = 0.17827 0.17828
#
# Static dielectric constant tensor:
#      x y z
#    x 1.539930 0.000000 0.000000 
#    y 0.000000 1.539930 0.000000 
#    z 0.000000 0.000000 1.584870 
# 
# From -- ./inp_files/8456.got.cif
#   From: 2010.05.17/outbox.cif.g08.bks.cpg/sg123_5_cif.got.tgz:8456.got - 2010.05.20 11:43:04.
