data_PCOD9562889
_publ_section_title
;
Structure prediction by ZEFSAII (Michael W. Deem and Ramdas Pophale) SiO2 
 PCOD9562889
Probable space group: P 4/N B M
;
_chemical_formula_sum "Si O2"
_cell_formula_units_Z 96
_cell_length_a 25.340643
_cell_length_b 25.340643
_cell_length_c 10.243836
_cell_angle_alpha 90.000000
_cell_angle_beta 90.000000
_cell_angle_gamma 90.000000
_cell_volume 6578.060722
_symmetry_space_group_name_H-M "P 4/N B M"
_symmetry_group_IT_number 125
_space_group.IT_coordinate_system_code '2'
_symmetry_cell_setting 'tetragonal'
loop_
_space_group_symop_operation_xyz
x,y,z
1/2-y,x,z
1/2-x,1/2-y,z
y,1/2-x,z
x,1/2-y,-z
1/2-x,y,-z
y,x,-z
1/2-y,1/2-x,-z
-x,-y,-z
1/2+y,-x,-z
1/2+x,1/2+y,-z
-y,1/2+x,-z
-x,1/2+y,z
1/2+x,-y,z
-y,-x,z
1/2+y,1/2+x,z
loop_
_atom_site_type_symbol
_atom_site_label
_atom_site_fract_x
_atom_site_fract_y
_atom_site_fract_z
Si Si1 0.420533 0.008848 0.404605
Si Si2 0.093212 0.819705 0.243987
Si Si3 0.292720 0.880482 0.298252
Si Si4 0.158780 0.568727 0.044663
Si Si5 0.309334 0.528403 0.493440
Si Si6 0.514637 0.575853 0.896791
O O1 0.452547 0.047454 0.500000
O O2 0.422919 0.029271 0.255678
O O3 0.452385 0.952385 0.407054
O O4 0.360095 0.001497 0.449373
O O5 0.127413 0.872588 0.255169
O O6 0.128447 0.769499 0.285321
O O7 0.045109 0.820768 0.344991
O O8 0.074112 0.813855 0.095119
O O9 0.328741 0.828741 0.301547
O O10 0.307878 0.914632 0.170236
O O11 0.304820 0.917653 0.421536
O O12 0.111980 0.611980 0.041822
O O13 0.130806 0.512823 0.065553
O O14 0.250000 0.504267 0.500000
O O15 0.469037 0.530964 0.906493
O O16 0.558853 0.558853 0.000000
#
# Coordination Sequence:
#
# PCOD9562889 Si02
#       6
#    16  16  16  16  16  16
#     4  10  19  30  48  71  94 118 150 193 235 273
#     4  10  20  29  42  63  82 110 156 202 235 269
#     4  10  18  31  46  57  79 117 155 195 242 277
#     4   9  17  29  43  57  81 109 141 184 230 279
#     4  10  20  33  47  64  90 123 154 182 228 290
#     4   9  17  28  43  64  86 112 141 178 232 285
#
# _framework density 14.593966999999999
#
# number of rings (size 3 to 8) (size 9 to 14) (size 15 to 20)
#    0.000    2.333    1.667    2.000    2.333    0.333 
#    0.000    0.000    0.000    6.000    0.000    0.000 
#    0.000    0.333    0.000    0.000    0.000    0.000 
#
# Total GULP energy -534709.207466 kJ/mol
# GULP energy per Si atom -5569.887578 kJ/mol
# Density = 1.456075 g / cm^3
# Si number density = 14.593967 Si / 1000 Ang^3
#
#
#
# Elastic Constant Matrix: (Units=GPa)
#
#
# Indices 1 2 3 4 5 6 
#
# 1 44.3863 20.0323 18.3506 0.0000 0.0000 0.0000
# 2 20.0323 44.3883 18.3506 0.0000 0.0000 0.0000
# 3 18.3506 18.3506 82.1883 0.0000 0.0000 0.0000
# 4 0.0000 0.0000 0.0000 19.0959 0.0000 0.0000
# 5 0.0000 0.0000 0.0000 0.0000 19.0959 0.0000
# 6 0.0000 0.0000 0.0000 0.0000 0.0000 17.6455
#
#
#
# Elastic Compliance Matrix: (Units=1/GPa)
#
#
# Indices 1 2 3 4 5 6 
#
# 1 0.029423 -0.011637 -0.003971 0.000000 0.000000 0.000000
# 2 -0.011637 0.029422 -0.003971 0.000000 0.000000 0.000000
# 3 -0.003971 -0.003971 0.013940 0.000000 0.000000 0.000000
# 4 0.000000 0.000000 0.000000 0.052367 0.000000 0.000000
# 5 0.000000 0.000000 0.000000 0.000000 0.052367 0.000000
# 6 0.000000 0.000000 0.000000 0.000000 0.000000 0.056672
#
#
# Mechanical properties :
#
#
# Convention : Reuss Voigt Hill
#
# Bulk Modulus (GPa) = 29.73768 31.60334 30.67051
# Shear Modulus (GPa) = 17.57104 18.78273 18.17689
#
# Velocity S-wave (km/s) = 3.47363 3.59140 3.53300
# Velocity P-wave (km/s) = 6.04227 6.23696 6.14038
#
# Compressibility (1/GPa) = 0.03362738
#
# Stress axis : x y z
#
# Youngs Moduli (GPa) = 33.98671 33.98848 71.73355
#
# Poissons Ratio (x) = 0.39552 0.28487
# Poissons Ratio (y) = 0.39550 0.28485
# Poissons Ratio (z) = 0.13497 0.13497
#
# Static dielectric constant tensor:
#      x y z
#    x 1.474780 0.000000 0.000000 
#    y 0.000000 1.474780 0.000000 
#    z 0.000000 0.000000 1.508770 
# 
# From -- ./inp_files/2837.got.cif
#   From: 2010.05.17/outbox.cif.g08.bks.cpg/sg125_2_cif.got.tgz:2837.got - 2010.05.20 11:54:10.
