data_PCOD9562446
_publ_section_title
;
Structure prediction by ZEFSAII (Michael W. Deem and Ramdas Pophale) SiO2 
 PCOD9562446
Probable space group: P 4/M C C
;
_chemical_formula_sum "Si O2"
_cell_formula_units_Z 96
_cell_length_a 19.269621
_cell_length_b 19.269621
_cell_length_c 14.747742
_cell_angle_alpha 90.000000
_cell_angle_beta 90.000000
_cell_angle_gamma 90.000000
_cell_volume 5476.106392
_symmetry_space_group_name_H-M "P 4/M C C"
_symmetry_group_IT_number 124
_symmetry_cell_setting 'tetragonal'
loop_
_space_group_symop_operation_xyz
x,y,z
-y,x,z
-x,-y,z
y,-x,z
x,-y,1/2-z
-x,y,1/2-z
y,x,1/2-z
-y,-x,1/2-z
-x,-y,-z
y,-x,-z
x,y,-z
-y,x,-z
-x,y,1/2+z
x,-y,1/2+z
-y,-x,1/2+z
y,x,1/2+z
loop_
_atom_site_type_symbol
_atom_site_label
_atom_site_fract_x
_atom_site_fract_y
_atom_site_fract_z
Si Si1 0.429108 0.156448 0.391012
Si Si2 0.938630 0.090641 0.641997
Si Si3 0.198239 0.313918 0.246367
Si Si4 0.147232 0.586651 0.108541
Si Si5 0.620366 0.007497 0.893113
Si Si6 0.061589 0.236833 0.818224
O O1 0.417063 0.161270 0.500000
O O2 0.371023 0.197210 0.334555
O O3 0.509004 0.173628 0.372259
O O4 0.421064 0.075419 0.362757
O O5 0.924848 0.075153 0.750000
O O6 0.913267 0.168770 0.627675
O O7 0.018292 0.091893 0.607430
O O8 0.263390 0.263390 0.250000
O O9 0.191111 0.356690 0.338782
O O10 0.128244 0.268500 0.231822
O O11 0.067439 0.597558 0.142192
O O12 0.148257 0.596152 0.000000
O O13 0.700385 0.026177 0.873063
O O14 0.609059 0.003564 0.000000
O O15 0.000000 0.213685 0.750000
#
# Coordination Sequence:
#
# PCOD9562446 Si02
#       6
#    16  16  16  16  16  16
#     4   9  19  35  55  75 103 136 171 212 257 307
#     4   9  16  25  40  60  78 108 166 228 270 298
#     4  11  23  33  48  77 108 141 171 211 263 313
#     4  10  19  34  54  76 101 136 175 213 253 306
#     4   9  18  31  47  72 101 128 163 209 257 306
#     4  11  18  28  45  65  96 125 171 214 261 302
#
# _framework density 17.530704
#
# number of rings (size 3 to 8) (size 9 to 14) (size 15 to 20)
#    0.000    2.167    3.333    2.000    0.000    2.667 
#    0.000    1.667    0.000    1.000    0.000    1.167 
#    0.000    5.333    0.000   14.667    0.000    0.000 
#
# Total GULP energy -534685.482580 kJ/mol
# GULP energy per Si atom -5569.640444 kJ/mol
# Density = 1.749080 g / cm^3
# Si number density = 17.530704 Si / 1000 Ang^3
#
#
#
# Elastic Constant Matrix: (Units=GPa)
#
#
# Indices 1 2 3 4 5 6 
#
# 1 108.7875 51.7170 33.6743 0.0000 0.0000 0.0000
# 2 51.7170 108.7874 33.6742 0.0000 0.0000 0.0000
# 3 33.6743 33.6742 62.3707 0.0000 0.0000 0.0000
# 4 0.0000 0.0000 0.0000 4.7806 0.0000 0.0000
# 5 0.0000 0.0000 0.0000 0.0000 4.7808 0.0000
# 6 0.0000 0.0000 0.0000 0.0000 0.0000 -1.0022
#
#
#
# Elastic Compliance Matrix: (Units=1/GPa)
#
#
# Indices 1 2 3 4 5 6 
#
# 1 0.012789 -0.004733 -0.004349 0.000000 0.000000 0.000000
# 2 -0.004733 0.012789 -0.004349 0.000000 0.000000 0.000000
# 3 -0.004349 -0.004349 0.020729 0.000000 0.000000 0.000000
# 4 0.000000 0.000000 0.000000 0.209180 0.000000 0.000000
# 5 0.000000 0.000000 0.000000 0.000000 0.209168 0.000000
# 6 0.000000 0.000000 0.000000 0.000000 0.000000 -0.997828
#
#
# Mechanical properties :
#
#
# Convention : Reuss Voigt Hill
#
# Bulk Modulus (GPa) = 51.43090 57.56407 54.49748
# Shear Modulus (GPa) = -10.00343 12.43719 1.21688
#
# Velocity S-wave (km/s) = -2.39136 2.66644 0.83406
# Velocity P-wave (km/s) = 4.66653 6.51055 5.66409
#
# Compressibility (1/GPa) = 0.01944357
#
# Stress axis : x y z
#
# Youngs Moduli (GPa) = 78.19389 78.19385 48.24077
#
# Poissons Ratio (x) = 0.37013 0.20980
# Poissons Ratio (y) = 0.37013 0.20980
# Poissons Ratio (z) = 0.34007 0.34007
#
# Static dielectric constant tensor:
#      x y z
#    x 1.607030 0.000000 0.000000 
#    y 0.000000 1.607030 0.000000 
#    z 0.000000 0.000000 1.674950 
# 
# From -- ./inp_files/3405.got.cif
#   From: 2010.05.17/outbox.cif.g08.bks.cpg/sg124_2_cif.got.tgz:3405.got - 2010.05.20 11:49:17.
