data_PCOD9562682
_publ_section_title
;
Structure prediction by ZEFSAII (Michael W. Deem and Ramdas Pophale) SiO2 
 PCOD9562682
Probable space group: P 4/M C C
;
_chemical_formula_sum "Si O2"
_cell_formula_units_Z 88
_cell_length_a 17.418896
_cell_length_b 17.418896
_cell_length_c 14.458232
_cell_angle_alpha 90.000000
_cell_angle_beta 90.000000
_cell_angle_gamma 90.000000
_cell_volume 4386.886939
_symmetry_space_group_name_H-M "P 4/M C C"
_symmetry_group_IT_number 124
_symmetry_cell_setting 'tetragonal'
loop_
_space_group_symop_operation_xyz
x,y,z
-y,x,z
-x,-y,z
y,-x,z
x,-y,1/2-z
-x,y,1/2-z
y,x,1/2-z
-y,-x,1/2-z
-x,-y,-z
y,-x,-z
x,y,-z
-y,x,-z
-x,y,1/2+z
x,-y,1/2+z
-y,-x,1/2+z
y,x,1/2+z
loop_
_atom_site_type_symbol
_atom_site_label
_atom_site_fract_x
_atom_site_fract_y
_atom_site_fract_z
Si Si1 0.405775 0.584358 0.139957
Si Si2 0.526529 0.137753 0.500000
Si Si3 0.790312 0.192981 0.000000
Si Si4 0.231734 0.071565 0.106106
Si Si5 0.000000 0.128206 0.750000
Si Si6 0.639206 0.283026 0.500000
Si Si7 0.904555 0.361918 0.500000
Si Si8 0.393506 0.032523 0.849317
O O1 0.395626 0.493987 0.116025
O O2 0.402859 0.597142 0.250000
O O3 0.339912 0.629277 0.086857
O O4 0.575719 0.215427 0.500000
O O5 0.435700 0.151671 0.500000
O O6 0.549895 0.085681 0.589651
O O7 0.847714 0.188374 0.088375
O O8 0.758332 0.279311 0.000000
O O9 0.719254 0.136799 0.000000
O O10 0.313151 0.079262 0.156785
O O11 0.181313 0.010868 0.160760
O O12 0.247705 0.047211 0.000000
O O13 0.926640 0.073361 0.750000
O O14 0.958833 0.373116 0.588558
O O15 0.416916 0.000000 0.750000
#
# Coordination Sequence:
#
# PCOD9562682 Si02
#       8
#    16   8   8  16   8   8   8  16
#     4   9  20  39  63  92 128 181 234 278 333 406
#     4  11  24  44  63  99 137 164 220 297 322 396
#     4  10  24  42  63  93 135 179 212 265 340 403
#     4  10  21  41  68  89 135 175 209 265 335 393
#     4  11  26  40  64 104 129 160 220 269 318 406
#     4  12  21  40  64  93 138 168 217 282 354 383
#     4  11  25  41  68  95 129 170 233 269 327 399
#     4  11  21  43  71  94 122 178 220 277 330 389
#
# _framework density 20.059784000000001
#
# number of rings (size 3 to 8) (size 9 to 14) (size 15 to 20)
#    0.545    1.000    4.545    2.182    5.091    2.909 
#    3.273    1.818    0.000    0.000    0.000    0.000 
#    0.000    0.000    0.000    0.000    0.000    0.000 
#
# Total GULP energy -491004.868895 kJ/mol
# GULP energy per Si atom -5579.600783 kJ/mol
# Density = 2.001413 g / cm^3
# Si number density = 20.059784 Si / 1000 Ang^3
#
#
#
# Elastic Constant Matrix: (Units=GPa)
#
#
# Indices 1 2 3 4 5 6 
#
# 1 84.0113 42.3270 30.2269 0.0000 0.0000 0.0000
# 2 42.3270 84.0109 30.2268 0.0000 0.0000 0.0000
# 3 30.2269 30.2268 116.8428 0.0000 0.0000 0.0000
# 4 0.0000 0.0000 0.0000 20.0686 0.0000 0.0000
# 5 0.0000 0.0000 0.0000 0.0000 20.0687 0.0000
# 6 0.0000 0.0000 0.0000 0.0000 0.0000 32.1412
#
#
#
# Elastic Compliance Matrix: (Units=1/GPa)
#
#
# Indices 1 2 3 4 5 6 
#
# 1 0.016512 -0.007478 -0.002337 0.000000 0.000000 0.000000
# 2 -0.007478 0.016512 -0.002337 0.000000 0.000000 0.000000
# 3 -0.002337 -0.002337 0.009768 0.000000 0.000000 0.000000
# 4 0.000000 0.000000 0.000000 0.049829 0.000000 0.000000
# 5 0.000000 0.000000 0.000000 0.000000 0.049829 0.000000
# 6 0.000000 0.000000 0.000000 0.000000 0.000000 0.031113
#
#
# Mechanical properties :
#
#
# Convention : Reuss Voigt Hill
#
# Bulk Modulus (GPa) = 54.09239 54.49182 54.29211
# Shear Modulus (GPa) = 24.50640 26.59464 25.55052
#
# Velocity S-wave (km/s) = 3.49903 3.64506 3.57279
# Velocity P-wave (km/s) = 6.58395 6.70365 6.64407
#
# Compressibility (1/GPa) = 0.01848689
#
# Stress axis : x y z
#
# Youngs Moduli (GPa) = 60.56313 60.56290 102.37903
#
# Poissons Ratio (x) = 0.45290 0.23925
# Poissons Ratio (y) = 0.45290 0.23925
# Poissons Ratio (z) = 0.14153 0.14153
#
# Static dielectric constant tensor:
#      x y z
#    x 1.728550 0.000000 0.000000 
#    y 0.000000 1.728560 0.000000 
#    z 0.000000 0.000000 1.720310 
# 
# From -- ./inp_files/3294.got.cif
#   From: 2010.05.17/outbox.cif.g08.bks.cpg/sg124_2_cif.got.tgz:3294.got - 2010.05.20 11:49:17.
