data_PCOD9562610
_publ_section_title
;
Structure prediction by ZEFSAII (Michael W. Deem and Ramdas Pophale) SiO2 
 PCOD9562610
Probable space group: P 4/M C C
;
_chemical_formula_sum "Si O2"
_cell_formula_units_Z 120
_cell_length_a 21.024878
_cell_length_b 21.024878
_cell_length_c 14.453444
_cell_angle_alpha 90.000000
_cell_angle_beta 90.000000
_cell_angle_gamma 90.000000
_cell_volume 6389.079806
_symmetry_space_group_name_H-M "P 4/M C C"
_symmetry_group_IT_number 124
_symmetry_cell_setting 'tetragonal'
loop_
_space_group_symop_operation_xyz
x,y,z
-y,x,z
-x,-y,z
y,-x,z
x,-y,1/2-z
-x,y,1/2-z
y,x,1/2-z
-y,-x,1/2-z
-x,-y,-z
y,-x,-z
x,y,-z
-y,x,-z
-x,y,1/2+z
x,-y,1/2+z
-y,-x,1/2+z
y,x,1/2+z
loop_
_atom_site_type_symbol
_atom_site_label
_atom_site_fract_x
_atom_site_fract_y
_atom_site_fract_z
Si Si1 0.994020 0.247996 0.361047
Si Si2 0.075200 0.569013 0.738458
Si Si3 0.666269 0.884495 0.896486
Si Si4 0.334775 0.431949 0.301658
Si Si5 0.873703 0.662565 0.105071
Si Si6 0.997793 0.897629 0.137596
Si Si7 0.331050 0.227003 0.228818
Si Si8 0.540892 0.600757 0.000000
O O1 0.056602 0.284816 0.395429
O O2 0.994608 0.175001 0.392229
O O3 0.000000 0.249875 0.250000
O O4 0.928059 0.283054 0.385707
O O5 0.104050 0.500000 0.750000
O O6 0.099040 0.613022 0.821247
O O7 0.090547 0.599152 0.639576
O O8 0.000000 0.566534 0.750000
O O9 0.691422 0.818058 0.855638
O O10 0.641946 0.876917 0.000000
O O11 0.331914 0.500000 0.250000
O O12 0.386663 0.386663 0.250000
O O13 0.266610 0.395357 0.294477
O O14 0.359498 0.442807 0.406902
O O15 0.817386 0.667101 0.179736
O O16 0.851560 0.659980 0.000000
O O17 0.937010 0.939667 0.109291
O O18 0.000000 0.896989 0.250000
O O19 0.279427 0.279427 0.250000
O O20 0.466098 0.580257 0.000000
#
# Coordination Sequence:
#
# PCOD9562610 Si02
#       8
#    16  16  16  16  16  16  16   8
#     4  11  18  35  61  90 119 161 207 268 327 374
#     4  10  20  37  60  88 119 148 188 246 315 375
#     4  11  22  39  62  89 119 158 211 265 308 369
#     4  11  23  44  67  96 139 178 212 265 315 371
#     4  11  22  41  64  88 119 160 214 268 316 377
#     4   8  16  30  51  85 121 154 193 243 314 393
#     4  10  25  44  61  86 126 172 214 254 306 374
#     4  11  22  38  74 116 138 170 219 261 323 382
#
# _framework density 18.782049000000001
#
# number of rings (size 3 to 8) (size 9 to 14) (size 15 to 20)
#    0.000    1.667    5.333    0.800    0.933    4.400 
#    4.800    1.333    0.000    2.400    0.000    3.733 
#    0.000    0.000    0.000    0.000    0.000    0.000 
#
# Total GULP energy -669147.953504 kJ/mol
# GULP energy per Si atom -5576.232946 kJ/mol
# Density = 1.873930 g / cm^3
# Si number density = 18.782049 Si / 1000 Ang^3
#
#
#
# Elastic Constant Matrix: (Units=GPa)
#
#
# Indices 1 2 3 4 5 6 
#
# 1 124.9838 47.4294 38.2365 0.0000 0.0000 0.0000
# 2 47.4294 124.9838 38.2365 0.0000 0.0000 0.0000
# 3 38.2365 38.2365 149.7444 0.0000 0.0000 0.0000
# 4 0.0000 0.0000 0.0000 -26.8741 0.0000 0.0000
# 5 0.0000 0.0000 0.0000 0.0000 -26.8741 0.0000
# 6 0.0000 0.0000 0.0000 0.0000 0.0000 -10.1717
#
#
#
# Elastic Compliance Matrix: (Units=1/GPa)
#
#
# Indices 1 2 3 4 5 6 
#
# 1 0.009717 -0.003177 -0.001670 0.000000 0.000000 0.000000
# 2 -0.003177 0.009717 -0.001670 0.000000 0.000000 0.000000
# 3 -0.001670 -0.001670 0.007531 0.000000 0.000000 0.000000
# 4 0.000000 0.000000 0.000000 -0.037211 0.000000 0.000000
# 5 0.000000 0.000000 0.000000 0.000000 -0.037211 0.000000
# 6 0.000000 0.000000 0.000000 0.000000 0.000000 -0.098312
#
#
# Mechanical properties :
#
#
# Convention : Reuss Voigt Hill
#
# Bulk Modulus (GPa) = 71.77749 71.94634 71.86191
# Shear Modulus (GPa) = -39.03520 5.60333 -16.71594
#
# Velocity S-wave (km/s) = -4.56381 1.72911 -2.98652
# Velocity P-wave (km/s) = 3.24466 6.50965 5.14312
#
# Compressibility (1/GPa) = 0.01393194
#
# Stress axis : x y z
#
# Youngs Moduli (GPa) = 102.90714 102.90714 132.78481
#
# Poissons Ratio (x) = 0.32690 0.22177
# Poissons Ratio (y) = 0.32690 0.22177
# Poissons Ratio (z) = 0.17187 0.17187
#
# Static dielectric constant tensor:
#      x y z
#    x 1.702390 0.000000 0.000000 
#    y 0.000000 1.702390 0.000000 
#    z 0.000000 0.000000 1.656500 
# 
# From -- ./inp_files/3492.got.cif
#   From: 2010.05.17/outbox.cif.g08.bks.cpg/sg124_2_cif.got.tgz:3492.got - 2010.05.20 11:49:17.
