data_PCOD9562513
_publ_section_title
;
Structure prediction by ZEFSAII (Michael W. Deem and Ramdas Pophale) SiO2 
 PCOD9562513
Probable space group: P 4/M C C
;
_chemical_formula_sum "Si O2"
_cell_formula_units_Z 128
_cell_length_a 20.108145
_cell_length_b 20.108145
_cell_length_c 17.929437
_cell_angle_alpha 90.000000
_cell_angle_beta 90.000000
_cell_angle_gamma 90.000000
_cell_volume 7249.543649
_symmetry_space_group_name_H-M "P 4/M C C"
_symmetry_group_IT_number 124
_symmetry_cell_setting 'tetragonal'
loop_
_space_group_symop_operation_xyz
x,y,z
-y,x,z
-x,-y,z
y,-x,z
x,-y,1/2-z
-x,y,1/2-z
y,x,1/2-z
-y,-x,1/2-z
-x,-y,-z
y,-x,-z
x,y,-z
-y,x,-z
-x,y,1/2+z
x,-y,1/2+z
-y,-x,1/2+z
y,x,1/2+z
loop_
_atom_site_type_symbol
_atom_site_label
_atom_site_fract_x
_atom_site_fract_y
_atom_site_fract_z
Si Si1 0.544577 0.141908 0.178275
Si Si2 0.793223 0.300478 0.151574
Si Si3 0.774221 0.918591 0.089574
Si Si4 0.308072 0.189865 0.327826
Si Si5 0.420170 0.857625 0.411789
Si Si6 0.084778 0.063319 0.909376
Si Si7 0.942099 0.284510 0.415876
Si Si8 0.574112 0.005746 0.120060
O O1 0.500000 0.159694 0.250000
O O2 0.612244 0.182120 0.166807
O O3 0.497286 0.152803 0.107175
O O4 0.561578 0.062286 0.183201
O O5 0.857239 0.270163 0.111255
O O6 0.807764 0.296750 0.239359
O O7 0.728117 0.255117 0.138417
O O8 0.798140 0.375988 0.122129
O O9 0.848616 0.902245 0.116088
O O10 0.750443 0.991441 0.115653
O O11 0.773732 0.924234 0.000000
O O12 0.278561 0.123511 0.366118
O O13 0.408129 0.866211 0.500000
O O14 0.405703 0.928493 0.369859
O O15 0.013684 0.089730 0.885710
O O16 0.083342 0.064887 0.000000
O O17 0.928986 0.259423 0.500000
O O18 0.961883 0.362662 0.420282
O O19 0.500000 0.000000 0.084563
#
# Coordination Sequence:
#
# PCOD9562513 Si02
#       8
#    16  16  16  16  16  16  16  16
#     4  10  20  38  57  81 110 150 190 237 285 336
#     4  11  22  39  54  75 112 150 190 224 280 342
#     4  10  20  32  50  74 102 139 179 226 285 339
#     4  10  24  39  56  78 107 150 190 233 278 334
#     4  11  21  35  57  83 113 150 189 229 278 340
#     4   8  15  28  46  68  90 116 165 232 291 338
#     4  10  20  34  50  75 104 135 183 231 275 326
#     4   9  19  30  49  75 109 138 181 222 276 322
#
# _framework density 17.656283999999999
#
# number of rings (size 3 to 8) (size 9 to 14) (size 15 to 20)
#    0.000    2.125    2.500    1.125    1.750   10.750 
#    0.000    0.000    0.000    0.000    0.000    0.000 
#    0.000    0.500    1.000    1.125    0.000    0.000 
#
# Total GULP energy -712563.294389 kJ/mol
# GULP energy per Si atom -5566.900737 kJ/mol
# Density = 1.761610 g / cm^3
# Si number density = 17.656284 Si / 1000 Ang^3
#
#
#
# Elastic Constant Matrix: (Units=GPa)
#
#
# Indices 1 2 3 4 5 6 
#
# 1 75.3269 40.9035 14.6989 0.0000 0.0000 0.0000
# 2 40.9035 75.3269 14.6989 0.0000 0.0000 0.0000
# 3 14.6989 14.6989 33.1971 0.0000 0.0000 0.0000
# 4 0.0000 0.0000 0.0000 17.1851 0.0000 0.0000
# 5 0.0000 0.0000 0.0000 0.0000 17.1851 0.0000
# 6 0.0000 0.0000 0.0000 0.0000 0.0000 31.2051
#
#
#
# Elastic Compliance Matrix: (Units=1/GPa)
#
#
# Indices 1 2 3 4 5 6 
#
# 1 0.019369 -0.009681 -0.004290 0.000000 0.000000 0.000000
# 2 -0.009681 0.019369 -0.004290 0.000000 0.000000 0.000000
# 3 -0.004290 -0.004290 0.033922 0.000000 0.000000 0.000000
# 4 0.000000 0.000000 0.000000 0.058190 0.000000 0.000000
# 5 0.000000 0.000000 0.000000 0.000000 0.058190 0.000000
# 6 0.000000 0.000000 0.000000 0.000000 0.000000 0.032046
#
#
# Mechanical properties :
#
#
# Convention : Reuss Voigt Hill
#
# Bulk Modulus (GPa) = 27.67042 36.05041 31.86041
# Shear Modulus (GPa) = 18.54228 20.68504 19.61366
#
# Velocity S-wave (km/s) = 3.24416 3.42649 3.33657
# Velocity P-wave (km/s) = 5.45331 6.00971 5.73826
#
# Compressibility (1/GPa) = 0.03613968
#
# Stress axis : x y z
#
# Youngs Moduli (GPa) = 51.62806 51.62806 29.47939
#
# Poissons Ratio (x) = 0.49979 0.12646
# Poissons Ratio (y) = 0.49979 0.12646
# Poissons Ratio (z) = 0.22148 0.22148
#
# Static dielectric constant tensor:
#      x y z
#    x 1.642110 0.000000 0.000000 
#    y 0.000000 1.642110 0.000000 
#    z 0.000000 0.000000 1.637310 
# 
# From -- ./inp_files/4561.got.cif
#   From: 2010.05.17/outbox.cif.g08.bks.cpg/sg124_3_cif.got.tgz:4561.got - 2010.05.20 11:49:17.
