data_PCOD9562539
_publ_section_title
;
Structure prediction by ZEFSAII (Michael W. Deem and Ramdas Pophale) SiO2 
 PCOD9562539
Probable space group: P 4/M C C
;
_chemical_formula_sum "Si O2"
_cell_formula_units_Z 52
_cell_length_a 19.228200
_cell_length_b 19.228200
_cell_length_c 8.804762
_cell_angle_alpha 90.000000
_cell_angle_beta 90.000000
_cell_angle_gamma 90.000000
_cell_volume 3255.328966
_symmetry_space_group_name_H-M "P 4/M C C"
_symmetry_group_IT_number 124
_symmetry_cell_setting 'tetragonal'
loop_
_space_group_symop_operation_xyz
x,y,z
-y,x,z
-x,-y,z
y,-x,z
x,-y,1/2-z
-x,y,1/2-z
y,x,1/2-z
-y,-x,1/2-z
-x,-y,-z
y,-x,-z
x,y,-z
-y,x,-z
-x,y,1/2+z
x,-y,1/2+z
-y,-x,1/2+z
y,x,1/2+z
loop_
_atom_site_type_symbol
_atom_site_label
_atom_site_fract_x
_atom_site_fract_y
_atom_site_fract_z
Si Si1 0.640026 0.930455 0.673305
Si Si2 0.575485 0.677896 0.317805
Si Si3 0.787000 0.314956 0.818218
Si Si4 0.500000 0.000000 0.250000
O O1 0.661794 0.921253 0.500000
O O2 0.663329 0.864303 0.769549
O O3 0.556458 0.948064 0.673016
O O4 0.670221 0.000000 0.750000
O O5 0.500000 0.690346 0.250000
O O6 0.606828 0.606828 0.250000
O O7 0.575377 0.676693 0.500000
O O8 0.626777 0.737522 0.256716
O O9 0.757493 0.242508 0.750000
O O10 0.779340 0.314840 0.000000
#
# Coordination Sequence:
#
# PCOD9562539 Si02
#       4
#    16  16  16   4
#     4  10  20  34  52  77 108 140 178 217 261 316
#     4  11  22  37  53  71  93 122 163 210 261 312
#     4  11  22  37  55  76 104 139 177 218 264 316
#     4   8  22  32  54  76 114 140 178 212 274 312
#
# _framework density 15.973808
#
# number of rings (size 3 to 8) (size 9 to 14) (size 15 to 20)
#    0.923    0.615    0.000    8.769    2.154    0.308 
#    0.000    1.538    0.000    0.000    0.000    0.000 
#    0.000    0.615    0.000    6.154    0.000    3.692 
#
# Total GULP energy -289547.977266 kJ/mol
# GULP energy per Si atom -5568.230332 kJ/mol
# Density = 1.593745 g / cm^3
# Si number density = 15.973808 Si / 1000 Ang^3
#
#
#
# Elastic Constant Matrix: (Units=GPa)
#
#
# Indices 1 2 3 4 5 6 
#
# 1 91.0706 31.1637 39.8094 0.0000 0.0000 0.0000
# 2 31.1637 91.0765 39.8112 0.0000 0.0000 0.0000
# 3 39.8094 39.8112 179.5015 0.0000 0.0000 0.0000
# 4 0.0000 0.0000 0.0000 31.8269 0.0000 0.0000
# 5 0.0000 0.0000 0.0000 0.0000 31.8259 0.0000
# 6 0.0000 0.0000 0.0000 0.0000 0.0000 16.9529
#
#
#
# Elastic Compliance Matrix: (Units=1/GPa)
#
#
# Indices 1 2 3 4 5 6 
#
# 1 0.013127 -0.003565 -0.002121 0.000000 0.000000 0.000000
# 2 -0.003565 0.013127 -0.002121 0.000000 0.000000 0.000000
# 3 -0.002121 -0.002121 0.006512 0.000000 0.000000 0.000000
# 4 0.000000 0.000000 0.000000 0.031420 0.000000 0.000000
# 5 0.000000 0.000000 0.000000 0.000000 0.031421 0.000000
# 6 0.000000 0.000000 0.000000 0.000000 0.000000 0.058987
#
#
# Mechanical properties :
#
#
# Convention : Reuss Voigt Hill
#
# Bulk Modulus (GPa) = 58.29848 64.80192 61.55020
# Shear Modulus (GPa) = 28.42143 32.84543 30.63343
#
# Velocity S-wave (km/s) = 4.22269 4.53946 4.38394
# Velocity P-wave (km/s) = 7.76855 8.25417 8.01504
#
# Compressibility (1/GPa) = 0.01715311
#
# Stress axis : x y z
#
# Youngs Moduli (GPa) = 76.17675 76.18147 153.57055
#
# Poissons Ratio (x) = 0.27157 0.32568
# Poissons Ratio (y) = 0.27155 0.32568
# Poissons Ratio (z) = 0.16155 0.16156
#
# Static dielectric constant tensor:
#      x y z
#    x 1.548370 0.000000 0.000000 
#    y 0.000000 1.548370 0.000000 
#    z 0.000000 0.000000 1.539720 
# 
# From -- ./inp_files/567.got.cif
#   From: 2010.05.17/outbox.cif.g08.bks.cpg/sg124_1_cif.got.tgz:567.got - 2010.05.20 11:49:17.
