data_PCOD9562380
_publ_section_title
;
Structure prediction by ZEFSAII (Michael W. Deem and Ramdas Pophale) SiO2 
 PCOD9562380
Probable space group: P 4/M C C
;
_chemical_formula_sum "Si O2"
_cell_formula_units_Z 64
_cell_length_a 19.796545
_cell_length_b 19.796545
_cell_length_c 9.293150
_cell_angle_alpha 90.000000
_cell_angle_beta 90.000000
_cell_angle_gamma 90.000000
_cell_volume 3642.015167
_symmetry_space_group_name_H-M "P 4/M C C"
_symmetry_group_IT_number 124
_symmetry_cell_setting 'tetragonal'
loop_
_space_group_symop_operation_xyz
x,y,z
-y,x,z
-x,-y,z
y,-x,z
x,-y,1/2-z
-x,y,1/2-z
y,x,1/2-z
-y,-x,1/2-z
-x,-y,-z
y,-x,-z
x,y,-z
-y,x,-z
-x,y,1/2+z
x,-y,1/2+z
-y,-x,1/2+z
y,x,1/2+z
loop_
_atom_site_type_symbol
_atom_site_label
_atom_site_fract_x
_atom_site_fract_y
_atom_site_fract_z
Si Si1 0.929705 0.169574 0.829387
Si Si2 0.433853 0.819341 0.664557
Si Si3 0.565785 0.656537 0.835825
Si Si4 0.716749 0.184422 0.670510
O O1 0.892313 0.107688 0.750000
O O2 0.879255 0.233351 0.814384
O O3 0.000000 0.182457 0.750000
O O4 0.938614 0.156588 0.000000
O O5 0.500000 0.843007 0.750000
O O6 0.437725 0.843714 0.500000
O O7 0.436301 0.737574 0.662401
O O8 0.358628 0.833551 0.723509
O O9 0.500000 0.632060 0.750000
O O10 0.630083 0.630083 0.750000
O O11 0.566500 0.632591 0.000000
O O12 0.753256 0.246745 0.750000
O O13 0.710794 0.200770 0.500000
#
# Coordination Sequence:
#
# PCOD9562380 Si02
#       4
#    16  16  16  16
#     4  10  20  35  55  80 110 141 173 207 245 291
#     4   9  18  31  47  69  95 123 157 201 250 297
#     4  10  19  30  43  59  81 109 144 186 235 290
#     4   9  18  32  51  75 102 132 168 210 254 301
#
# _framework density 17.572689
#
# number of rings (size 3 to 8) (size 9 to 14) (size 15 to 20)
#    0.000    2.500    0.000    2.250    0.000    3.500 
#    0.000    2.500    0.000    0.750    0.000    5.250 
#    0.000    0.000    0.000    0.000    0.000    0.000 
#
# Total GULP energy -356742.875473 kJ/mol
# GULP energy per Si atom -5574.107429 kJ/mol
# Density = 1.753269 g / cm^3
# Si number density = 17.572689 Si / 1000 Ang^3
#
#
#
# Elastic Constant Matrix: (Units=GPa)
#
#
# Indices 1 2 3 4 5 6 
#
# 1 83.8815 13.8707 41.8323 0.0000 0.0000 0.0000
# 2 13.8707 83.8844 41.8318 0.0000 0.0000 0.0000
# 3 41.8323 41.8318 100.5543 0.0000 0.0000 0.0000
# 4 0.0000 0.0000 0.0000 22.8705 0.0000 0.0000
# 5 0.0000 0.0000 0.0000 0.0000 22.8707 0.0000
# 6 0.0000 0.0000 0.0000 0.0000 0.0000 10.9183
#
#
#
# Elastic Compliance Matrix: (Units=1/GPa)
#
#
# Indices 1 2 3 4 5 6 
#
# 1 0.015085 0.000801 -0.006609 0.000000 0.000000 0.000000
# 2 0.000801 0.015084 -0.006609 0.000000 0.000000 0.000000
# 3 -0.006609 -0.006609 0.015444 0.000000 0.000000 0.000000
# 4 0.000000 0.000000 0.000000 0.043724 0.000000 0.000000
# 5 0.000000 0.000000 0.000000 0.000000 0.043724 0.000000
# 6 0.000000 0.000000 0.000000 0.000000 0.000000 0.091590
#
#
# Mechanical properties :
#
#
# Convention : Reuss Voigt Hill
#
# Bulk Modulus (GPa) = 48.12221 51.48775 49.80498
# Shear Modulus (GPa) = 19.49998 22.71758 21.10878
#
# Velocity S-wave (km/s) = 3.33479 3.59942 3.46963
# Velocity P-wave (km/s) = 6.50168 6.82920 6.66745
#
# Compressibility (1/GPa) = 0.02078043
#
# Stress axis : x y z
#
# Youngs Moduli (GPa) = 66.29090 66.29417 64.75160
#
# Poissons Ratio (x) = -0.05313 0.42795
# Poissons Ratio (y) = -0.05313 0.42792
# Poissons Ratio (z) = 0.43812 0.43812
#
# Static dielectric constant tensor:
#      x y z
#    x 1.603400 0.000000 0.000000 
#    y 0.000000 1.603400 0.000000 
#    z 0.000000 0.000000 1.603380 
# 
# From -- ./inp_files/850.got.cif
#   From: 2010.05.17/outbox.cif.g08.bks.cpg/sg124_1_cif.got.tgz:850.got - 2010.05.20 11:49:17.
