data_PCOD9562773
_publ_section_title
;
Structure prediction by ZEFSAII (Michael W. Deem and Ramdas Pophale) SiO2 
 PCOD9562773
Probable space group: P 4/M C C
;
_chemical_formula_sum "Si O2"
_cell_formula_units_Z 104
_cell_length_a 20.540318
_cell_length_b 20.540318
_cell_length_c 14.189377
_cell_angle_alpha 90.000000
_cell_angle_beta 90.000000
_cell_angle_gamma 90.000000
_cell_volume 5986.564329
_symmetry_space_group_name_H-M "P 4/M C C"
_symmetry_group_IT_number 124
_symmetry_cell_setting 'tetragonal'
loop_
_space_group_symop_operation_xyz
x,y,z
-y,x,z
-x,-y,z
y,-x,z
x,-y,1/2-z
-x,y,1/2-z
y,x,1/2-z
-y,-x,1/2-z
-x,-y,-z
y,-x,-z
x,y,-z
-y,x,-z
-x,y,1/2+z
x,-y,1/2+z
-y,-x,1/2+z
y,x,1/2+z
loop_
_atom_site_type_symbol
_atom_site_label
_atom_site_fract_x
_atom_site_fract_y
_atom_site_fract_z
Si Si1 0.164949 0.697707 0.893528
Si Si2 0.948957 0.095791 0.112638
Si Si3 0.500000 0.285213 0.750000
Si Si4 0.074722 0.775079 0.226298
Si Si5 0.744698 0.825465 0.608133
Si Si6 0.395795 0.477511 0.388257
Si Si7 0.358017 0.750868 0.766407
O O1 0.098806 0.717444 0.842183
O O2 0.203695 0.766516 0.892821
O O3 0.208090 0.650568 0.829621
O O4 0.157284 0.675374 0.000000
O O5 0.921913 0.156009 0.171330
O O6 0.026154 0.084981 0.132650
O O7 0.942188 0.107587 0.000000
O O8 0.529882 0.330744 0.668644
O O9 0.565542 0.252638 0.789242
O O10 0.119479 0.769388 0.319585
O O11 0.000000 0.765901 0.250000
O O12 0.735903 0.847639 0.500000
O O13 0.681143 0.791470 0.654034
O O14 0.451737 0.425774 0.364478
O O15 0.386179 0.474627 0.500000
O O16 0.317122 0.682879 0.750000
#
# Coordination Sequence:
#
# PCOD9562773 Si02
#       7
#    16  16   8  16  16  16  16
#     4   9  19  37  55  71  98 137 178 220 267 315
#     4   9  20  35  48  69 108 153 184 210 253 305
#     4  12  20  29  52  82 105 132 174 226 272 320
#     4  11  22  31  53  80 103 129 178 229 262 306
#     4   9  20  38  55  70  99 142 181 221 270 318
#     4   9  18  30  42  64 105 151 185 208 237 289
#     4   9  19  34  52  77 107 139 177 216 265 317
#
# _framework density 17.372235
#
# number of rings (size 3 to 8) (size 9 to 14) (size 15 to 20)
#    0.000    2.462    0.000    4.154    4.308    3.077 
#    0.000    3.846    0.000    0.000    0.000    9.692 
#    0.000    9.846    0.000    0.000    0.000    0.000 
#
# Total GULP energy -580313.959837 kJ/mol
# GULP energy per Si atom -5579.941922 kJ/mol
# Density = 1.733270 g / cm^3
# Si number density = 17.372235 Si / 1000 Ang^3
#
#
#
# Elastic Constant Matrix: (Units=GPa)
#
#
# Indices 1 2 3 4 5 6 
#
# 1 64.7422 22.5865 17.1500 0.0000 0.0000 0.0000
# 2 22.5865 64.7426 17.1500 0.0000 0.0000 0.0000
# 3 17.1500 17.1500 87.6193 0.0000 0.0000 0.0000
# 4 0.0000 0.0000 0.0000 0.9065 0.0000 0.0000
# 5 0.0000 0.0000 0.0000 0.0000 0.9071 0.0000
# 6 0.0000 0.0000 0.0000 0.0000 0.0000 -2.1470
#
#
#
# Elastic Compliance Matrix: (Units=1/GPa)
#
#
# Indices 1 2 3 4 5 6 
#
# 1 0.018063 -0.005658 -0.002428 0.000000 0.000000 0.000000
# 2 -0.005658 0.018063 -0.002428 0.000000 0.000000 0.000000
# 3 -0.002428 -0.002428 0.012363 0.000000 0.000000 0.000000
# 4 0.000000 0.000000 0.000000 1.103187 0.000000 0.000000
# 5 0.000000 0.000000 0.000000 0.000000 1.102431 0.000000
# 6 0.000000 0.000000 0.000000 0.000000 0.000000 -0.465757
#
#
# Mechanical properties :
#
#
# Convention : Reuss Voigt Hill
#
# Bulk Modulus (GPa) = 36.41566 36.76413 36.58989
# Shear Modulus (GPa) = 2.74947 10.61447 6.68197
#
# Velocity S-wave (km/s) = 1.25941 2.47453 1.96334
# Velocity P-wave (km/s) = 4.80857 5.41968 5.12324
#
# Compressibility (1/GPa) = 0.02746072
#
# Stress axis : x y z
#
# Youngs Moduli (GPa) = 55.36153 55.36184 80.88331
#
# Poissons Ratio (x) = 0.31326 0.19639
# Poissons Ratio (y) = 0.31326 0.19638
# Poissons Ratio (z) = 0.13442 0.13442
#
# Static dielectric constant tensor:
#      x y z
#    x 1.596090 0.000000 0.000000 
#    y 0.000000 1.596090 0.000000 
#    z 0.000000 0.000000 1.630770 
# 
# From -- ./inp_files/3431.got.cif
#   From: 2010.05.17/outbox.cif.g08.bks.cpg/sg124_2_cif.got.tgz:3431.got - 2010.05.20 11:49:17.
