data_PCOD9562400
_publ_section_title
;
Structure prediction by ZEFSAII (Michael W. Deem and Ramdas Pophale) SiO2 
 PCOD9562400
Probable space group: P 4/M C C
;
_chemical_formula_sum "Si O2"
_cell_formula_units_Z 96
_cell_length_a 16.300991
_cell_length_b 16.300991
_cell_length_c 14.136267
_cell_angle_alpha 90.000000
_cell_angle_beta 90.000000
_cell_angle_gamma 90.000000
_cell_volume 3756.321488
_symmetry_space_group_name_H-M "P 4/M C C"
_symmetry_group_IT_number 124
_symmetry_cell_setting 'tetragonal'
loop_
_space_group_symop_operation_xyz
x,y,z
-y,x,z
-x,-y,z
y,-x,z
x,-y,1/2-z
-x,y,1/2-z
y,x,1/2-z
-y,-x,1/2-z
-x,-y,-z
y,-x,-z
x,y,-z
-y,x,-z
-x,y,1/2+z
x,-y,1/2+z
-y,-x,1/2+z
y,x,1/2+z
loop_
_atom_site_type_symbol
_atom_site_label
_atom_site_fract_x
_atom_site_fract_y
_atom_site_fract_z
Si Si1 0.638619 0.155952 0.383088
Si Si2 0.677276 0.024151 0.887817
Si Si3 0.600201 0.416385 0.863230
Si Si4 0.550621 0.837019 0.615510
Si Si5 0.019866 0.869552 0.361155
Si Si6 0.268864 0.699631 0.604549
O O1 0.641302 0.158915 0.500000
O O2 0.662616 0.066027 0.348900
O O3 0.543701 0.171225 0.353095
O O4 0.713731 0.213805 0.348363
O O5 0.601724 0.081883 0.857464
O O6 0.774285 0.043941 0.877403
O O7 0.665015 0.019388 0.000000
O O8 0.610761 0.509799 0.892768
O O9 0.594824 0.405177 0.750000
O O10 0.671731 0.363003 0.903535
O O11 0.546022 0.832526 0.500000
O O12 0.618049 0.770068 0.648047
O O13 0.932529 0.909041 0.395385
O O14 0.000000 0.873906 0.250000
O O15 0.230667 0.710613 0.500000
#
# Coordination Sequence:
#
# PCOD9562400 Si02
#       6
#    16  16  16  16  16  16
#     4   9  18  32  50  76 111 146 177 216 271 324
#     4  10  20  33  57  83 108 140 182 225 262 312
#     4   9  18  32  48  68  98 133 167 209 264 318
#     4   9  18  32  50  76 111 146 177 216 271 324
#     4   9  20  39  59  80 112 150 179 210 265 330
#     4  10  19  31  51  76 101 133 178 224 258 305
#
# _framework density 25.556916999999999
#
# number of rings (size 3 to 8) (size 9 to 14) (size 15 to 20)
#    0.000    2.667    0.000    2.500    2.333    4.667 
#    0.000    3.333    0.000    4.000    0.000    0.000 
#    0.000    0.000    0.000    0.000    0.000    0.000 
#
# Total GULP energy -535390.240895 kJ/mol
# GULP energy per Si atom -5576.981676 kJ/mol
# Density = 2.549875 g / cm^3
# Si number density = 25.556917 Si / 1000 Ang^3
#
#
#
# Elastic Constant Matrix: (Units=GPa)
#
#
# Indices 1 2 3 4 5 6 
#
# 1 98.2667 39.4488 -12.5693 0.0000 0.0000 0.0000
# 2 39.4488 98.2665 -12.5690 0.0000 0.0000 0.0000
# 3 -12.5693 -12.5690 92.9114 0.0000 0.0000 0.0000
# 4 0.0000 0.0000 0.0000 18.6096 0.0000 0.0000
# 5 0.0000 0.0000 0.0000 0.0000 18.6096 0.0000
# 6 0.0000 0.0000 0.0000 0.0000 0.0000 41.0902
#
#
#
# Elastic Compliance Matrix: (Units=1/GPa)
#
#
# Indices 1 2 3 4 5 6 
#
# 1 0.012223 -0.004778 0.001007 0.000000 0.000000 0.000000
# 2 -0.004778 0.012223 0.001007 0.000000 0.000000 0.000000
# 3 0.001007 0.001007 0.011035 0.000000 0.000000 0.000000
# 4 0.000000 0.000000 0.000000 0.053736 0.000000 0.000000
# 5 0.000000 0.000000 0.000000 0.000000 0.053736 0.000000
# 6 0.000000 0.000000 0.000000 0.000000 0.000000 0.024337
#
#
# Mechanical properties :
#
#
# Convention : Reuss Voigt Hill
#
# Bulk Modulus (GPa) = 33.38381 35.34062 34.36221
# Shear Modulus (GPa) = 27.35185 34.00415 30.67800
#
# Velocity S-wave (km/s) = 3.27499 3.65160 3.46841
# Velocity P-wave (km/s) = 5.23370 5.62469 5.43271
#
# Compressibility (1/GPa) = 0.02995464
#
# Stress axis : x y z
#
# Youngs Moduli (GPa) = 81.81013 81.80999 90.61701
#
# Poissons Ratio (x) = 0.39091 -0.09127
# Poissons Ratio (y) = 0.39091 -0.09127
# Poissons Ratio (z) = -0.08240 -0.08240
#
# Static dielectric constant tensor:
#      x y z
#    x 2.068570 0.000000 0.000000 
#    y 0.000000 2.068570 0.000000 
#    z 0.000000 0.000000 2.060820 
# 
# From -- ./inp_files/5277.got.cif
#   From: 2010.05.17/outbox.cif.g08.bks.cpg/sg124_3_cif.got.tgz:5277.got - 2010.05.20 11:49:17.
