data_PCOD9562881
_publ_section_title
;
Structure prediction by ZEFSAII (Michael W. Deem and Ramdas Pophale) SiO2 
 PCOD9562881
Probable space group: P 4/N B M
;
_chemical_formula_sum "Si O2"
_cell_formula_units_Z 96
_cell_length_a 16.081219
_cell_length_b 16.081219
_cell_length_c 20.972405
_cell_angle_alpha 90.000000
_cell_angle_beta 90.000000
_cell_angle_gamma 90.000000
_cell_volume 5423.581473
_symmetry_space_group_name_H-M "P 4/N B M"
_symmetry_group_IT_number 125
_space_group.IT_coordinate_system_code '2'
_symmetry_cell_setting 'tetragonal'
loop_
_space_group_symop_operation_xyz
x,y,z
1/2-y,x,z
1/2-x,1/2-y,z
y,1/2-x,z
x,1/2-y,-z
1/2-x,y,-z
y,x,-z
1/2-y,1/2-x,-z
-x,-y,-z
1/2+y,-x,-z
1/2+x,1/2+y,-z
-y,1/2+x,-z
-x,1/2+y,z
1/2+x,-y,z
-y,-x,z
1/2+y,1/2+x,z
loop_
_atom_site_type_symbol
_atom_site_label
_atom_site_fract_x
_atom_site_fract_y
_atom_site_fract_z
Si Si1 0.542816 0.316678 0.555863
Si Si2 0.889117 0.246163 0.071762
Si Si3 0.387794 0.754491 0.315610
Si Si4 0.677619 0.463852 0.807266
Si Si5 0.679770 0.867799 0.250268
Si Si6 0.131358 0.319195 0.402737
O O1 0.551471 0.250000 0.500000
O O2 0.611033 0.388968 0.549788
O O3 0.559643 0.267397 0.622050
O O4 0.449450 0.351298 0.561269
O O5 0.841157 0.158844 0.082948
O O6 0.815726 0.315726 0.073002
O O7 0.951790 0.272278 0.127205
O O8 0.923906 0.250000 0.000000
O O9 0.313524 0.686477 0.314824
O O10 0.343861 0.843861 0.318306
O O11 0.438281 0.737917 0.251322
O O12 0.601591 0.398410 0.807542
O O13 0.646599 0.555757 0.790601
O O14 0.640228 0.778323 0.236701
O O15 0.670619 0.881002 0.326452
O O16 0.140696 0.220605 0.417526
#
# Coordination Sequence:
#
# PCOD9562881 Si02
#       6
#    16  16  16  16  16  16
#     4  11  22  36  54  75 105 140 172 209 257 314
#     4   8  14  25  43  71 107 142 171 201 248 310
#     4   9  17  29  45  68  99 133 165 198 243 302
#     4  10  17  28  51  78 102 128 165 215 259 295
#     4   9  18  34  55  75 100 135 172 208 254 311
#     4   9  19  38  61  78  97 131 175 219 264 310
#
# _framework density 17.700481
#
# number of rings (size 3 to 8) (size 9 to 14) (size 15 to 20)
#    0.000    2.667    1.667    2.500    0.000    3.500 
#    0.000    5.000    0.000    1.000    0.000    4.667 
#    0.000    0.000    0.000    0.000    0.000    0.000 
#
# Total GULP energy -535292.662455 kJ/mol
# GULP energy per Si atom -5575.965234 kJ/mol
# Density = 1.766019 g / cm^3
# Si number density = 17.700481 Si / 1000 Ang^3
#
#
#
# Elastic Constant Matrix: (Units=GPa)
#
#
# Indices 1 2 3 4 5 6 
#
# 1 53.8618 3.8913 22.1613 0.0000 0.0000 0.0000
# 2 3.8913 53.8618 22.1613 0.0000 0.0000 0.0000
# 3 22.1613 22.1613 97.7559 0.0000 0.0000 0.0000
# 4 0.0000 0.0000 0.0000 18.3959 0.0000 0.0000
# 5 0.0000 0.0000 0.0000 0.0000 18.3959 0.0000
# 6 0.0000 0.0000 0.0000 0.0000 0.0000 5.9010
#
#
#
# Elastic Compliance Matrix: (Units=1/GPa)
#
#
# Indices 1 2 3 4 5 6 
#
# 1 0.020487 0.000475 -0.004752 0.000000 0.000000 0.000000
# 2 0.000475 0.020487 -0.004752 0.000000 0.000000 0.000000
# 3 -0.004752 -0.004752 0.012384 0.000000 0.000000 0.000000
# 4 0.000000 0.000000 0.000000 0.054360 0.000000 0.000000
# 5 0.000000 0.000000 0.000000 0.000000 0.054360 0.000000
# 6 0.000000 0.000000 0.000000 0.000000 0.000000 0.169464
#
#
# Mechanical properties :
#
#
# Convention : Reuss Voigt Hill
#
# Bulk Modulus (GPa) = 28.32868 33.54524 30.93696
# Shear Modulus (GPa) = 13.83638 19.02294 16.42966
#
# Velocity S-wave (km/s) = 2.79891 3.28184 3.04995
# Velocity P-wave (km/s) = 5.14630 5.77524 5.46982
#
# Compressibility (1/GPa) = 0.03529991
#
# Stress axis : x y z
#
# Youngs Moduli (GPa) = 48.81155 48.81155 80.74825
#
# Poissons Ratio (x) = -0.02319 0.38372
# Poissons Ratio (y) = -0.02319 0.38372
# Poissons Ratio (z) = 0.23196 0.23196
#
# Static dielectric constant tensor:
#      x y z
#    x 1.608590 0.000000 0.000000 
#    y 0.000000 1.608590 0.000000 
#    z 0.000000 0.000000 1.608530 
# 
# From -- ./inp_files/5920.got.cif
#   From: 2010.05.17/outbox.cif.g08.bks.cpg/sg125_3_cif.got.tgz:5920.got - 2010.05.20 11:54:10.
