data_PCOD9562317
_publ_section_title
;
Structure prediction by ZEFSAII (Michael W. Deem and Ramdas Pophale) SiO2 
 PCOD9562317
Probable space group: P 4/M C C
;
_chemical_formula_sum "Si O2"
_cell_formula_units_Z 104
_cell_length_a 21.555128
_cell_length_b 21.555128
_cell_length_c 13.939106
_cell_angle_alpha 90.000000
_cell_angle_beta 90.000000
_cell_angle_gamma 90.000000
_cell_volume 6476.436817
_symmetry_space_group_name_H-M "P 4/M C C"
_symmetry_group_IT_number 124
_symmetry_cell_setting 'tetragonal'
loop_
_space_group_symop_operation_xyz
x,y,z
-y,x,z
-x,-y,z
y,-x,z
x,-y,1/2-z
-x,y,1/2-z
y,x,1/2-z
-y,-x,1/2-z
-x,-y,-z
y,-x,-z
x,y,-z
-y,x,-z
-x,y,1/2+z
x,-y,1/2+z
-y,-x,1/2+z
y,x,1/2+z
loop_
_atom_site_type_symbol
_atom_site_label
_atom_site_fract_x
_atom_site_fract_y
_atom_site_fract_z
Si Si1 0.235388 0.465742 0.883557
Si Si2 0.097112 0.383311 0.390007
Si Si3 0.240120 0.392596 0.617662
Si Si4 0.313644 0.349648 0.106910
Si Si5 0.909710 0.531877 0.110247
Si Si6 0.569740 0.429352 0.365172
Si Si7 0.000000 0.607461 0.250000
O O1 0.254406 0.535692 0.851516
O O2 0.272061 0.404758 0.848490
O O3 0.162386 0.457599 0.863797
O O4 0.242803 0.466482 0.000000
O O5 0.091398 0.362416 0.500000
O O6 0.168608 0.378359 0.358992
O O7 0.083016 0.457539 0.388707
O O8 0.046705 0.355274 0.318667
O O9 0.243734 0.393494 0.500000
O O10 0.285156 0.337240 0.651704
O O11 0.380208 0.382821 0.097788
O O12 0.287774 0.336702 0.000000
O O13 0.955200 0.566214 0.182292
O O14 0.920377 0.552205 0.000000
O O15 0.584721 0.499646 0.393767
O O16 0.572119 0.427882 0.250000
#
# Coordination Sequence:
#
# PCOD9562317 Si02
#       7
#    16  16  16  16  16  16   8
#     4   8  15  27  40  56  79 101 122 157 202 239
#     4   9  17  28  40  57  82 102 118 151 193 231
#     4   8  15  27  40  56  79 101 122 157 202 239
#     4  10  17  27  45  60  70  94 130 160 194 240
#     4   9  17  28  40  57  82 102 118 151 193 231
#     4   9  18  30  38  48  70  94 118 156 204 244
#     4  12  19  26  44  64  74  94 128 148 180 247
#
# _framework density 16.058212999999999
#
# number of rings (size 3 to 8) (size 9 to 14) (size 15 to 20)
#    0.000    2.923    0.000    5.077    0.000    3.077 
#    2.769    0.769    0.000    0.000    0.000    0.000 
#    0.000    0.000    0.000    0.000    0.000    0.000 
#
# Total GULP energy -580192.836847 kJ/mol
# GULP energy per Si atom -5578.777277 kJ/mol
# Density = 1.602166 g / cm^3
# Si number density = 16.058213 Si / 1000 Ang^3
#
#
#
# Elastic Constant Matrix: (Units=GPa)
#
#
# Indices 1 2 3 4 5 6 
#
# 1 40.0146 50.8809 22.1373 0.0000 0.0000 0.0000
# 2 50.8809 40.0142 22.1379 0.0000 0.0000 0.0000
# 3 22.1373 22.1379 72.6975 0.0000 0.0000 0.0000
# 4 0.0000 0.0000 0.0000 14.6482 0.0000 0.0000
# 5 0.0000 0.0000 0.0000 0.0000 14.6481 0.0000
# 6 0.0000 0.0000 0.0000 0.0000 0.0000 8.3545
#
#
#
# Elastic Compliance Matrix: (Units=1/GPa)
#
#
# Indices 1 2 3 4 5 6 
#
# 1 -0.039554 0.052472 -0.003934 0.000000 0.000000 0.000000
# 2 0.052472 -0.039555 -0.003933 0.000000 0.000000 0.000000
# 3 -0.003934 -0.003933 0.016151 0.000000 0.000000 0.000000
# 4 0.000000 0.000000 0.000000 0.068268 0.000000 0.000000
# 5 0.000000 0.000000 0.000000 0.000000 0.068268 0.000000
# 6 0.000000 0.000000 0.000000 0.000000 0.000000 0.119695
#
#
# Mechanical properties :
#
#
# Convention : Reuss Voigt Hill
#
# Bulk Modulus (GPa) = 38.09204 38.11539 38.10372
# Shear Modulus (GPa) = 44.31993 11.36818 27.84406
#
# Velocity S-wave (km/s) = 5.25923 2.66359 4.16858
# Velocity P-wave (km/s) = 7.78794 5.76601 6.85197
#
# Compressibility (1/GPa) = 0.02625220
#
# Stress axis : x y z
#
# Youngs Moduli (GPa) = -25.28202 -25.28153 61.91422
#
# Poissons Ratio (x) = 1.32657 0.24358
# Poissons Ratio (y) = 1.32660 0.24352
# Poissons Ratio (z) = -0.09946 -0.09944
#
# Static dielectric constant tensor:
#      x y z
#    x 1.550680 0.000000 0.000000 
#    y 0.000000 1.550680 0.000000 
#    z 0.000000 0.000000 1.667290 
# 
# From -- ./inp_files/3437.got.cif
#   From: 2010.05.17/outbox.cif.g08.bks.cpg/sg124_2_cif.got.tgz:3437.got - 2010.05.20 11:49:17.
