data_PCOD9562535
_publ_section_title
;
Structure prediction by ZEFSAII (Michael W. Deem and Ramdas Pophale) SiO2 
 PCOD9562535
Probable space group: P 4/M C C
;
_chemical_formula_sum "Si O2"
_cell_formula_units_Z 64
_cell_length_a 18.704698
_cell_length_b 18.704698
_cell_length_c 9.980429
_cell_angle_alpha 90.000000
_cell_angle_beta 90.000000
_cell_angle_gamma 90.000000
_cell_volume 3491.810051
_symmetry_space_group_name_H-M "P 4/M C C"
_symmetry_group_IT_number 124
_symmetry_cell_setting 'tetragonal'
loop_
_space_group_symop_operation_xyz
x,y,z
-y,x,z
-x,-y,z
y,-x,z
x,-y,1/2-z
-x,y,1/2-z
y,x,1/2-z
-y,-x,1/2-z
-x,-y,-z
y,-x,-z
x,y,-z
-y,x,-z
-x,y,1/2+z
x,-y,1/2+z
-y,-x,1/2+z
y,x,1/2+z
loop_
_atom_site_type_symbol
_atom_site_label
_atom_site_fract_x
_atom_site_fract_y
_atom_site_fract_z
Si Si1 0.065279 0.152379 0.156086
Si Si2 0.323949 0.935567 0.154738
Si Si3 0.341815 0.774457 0.246304
Si Si4 0.295560 0.584463 0.000000
Si Si5 0.695983 0.414971 0.500000
O O1 0.132190 0.132190 0.250000
O O2 0.058419 0.237715 0.147362
O O3 0.000000 0.125077 0.250000
O O4 0.067898 0.126195 0.000000
O O5 0.338970 0.858705 0.220964
O O6 0.349906 0.000000 0.250000
O O7 0.350164 0.938751 0.000000
O O8 0.263670 0.736331 0.250000
O O9 0.384784 0.748899 0.375613
O O10 0.384487 0.738370 0.125862
O O11 0.304506 0.499868 0.000000
O O12 0.374247 0.620196 0.000000
#
# Coordination Sequence:
#
# PCOD9562535 Si02
#       5
#    16  16  16   8   8
#     4  10  20  34  50  73 102 138 180 230 289 348
#     4  10  21  36  56  82 113 146 190 247 298 346
#     4  10  20  37  59  87 118 158 202 243 291 350
#     4  10  22  35  63  91 121 161 194 238 288 350
#     4  10  20  39  59  91 125 155 198 236 290 346
#
# _framework density 18.328603000000001
#
# number of rings (size 3 to 8) (size 9 to 14) (size 15 to 20)
#    0.000    2.000    1.250    2.250    1.750    1.500 
#    0.000    1.250    0.000    9.000    0.000    0.000 
#    0.000    0.000    0.000    0.000    0.000    0.000 
#
# Total GULP energy -356669.684046 kJ/mol
# GULP energy per Si atom -5572.963813 kJ/mol
# Density = 1.828689 g / cm^3
# Si number density = 18.328603 Si / 1000 Ang^3
#
#
#
# Elastic Constant Matrix: (Units=GPa)
#
#
# Indices 1 2 3 4 5 6 
#
# 1 120.2507 43.6468 58.9488 0.0000 0.0000 0.0000
# 2 43.6468 120.2445 58.9444 0.0000 0.0000 0.0000
# 3 58.9488 58.9444 188.0077 0.0000 0.0000 0.0000
# 4 0.0000 0.0000 0.0000 -156.7597 0.0000 0.0000
# 5 0.0000 0.0000 0.0000 0.0000 -156.8978 0.0000
# 6 0.0000 0.0000 0.0000 0.0000 0.0000 11.4044
#
#
#
# Elastic Compliance Matrix: (Units=1/GPa)
#
#
# Indices 1 2 3 4 5 6 
#
# 1 0.010466 -0.002588 -0.002470 0.000000 0.000000 0.000000
# 2 -0.002588 0.010467 -0.002470 0.000000 0.000000 0.000000
# 3 -0.002470 -0.002470 0.006868 0.000000 0.000000 0.000000
# 4 0.000000 0.000000 0.000000 -0.006379 0.000000 0.000000
# 5 0.000000 0.000000 0.000000 0.000000 -0.006374 0.000000
# 6 0.000000 0.000000 0.000000 0.000000 0.000000 0.087685
#
#
# Mechanical properties :
#
#
# Convention : Reuss Voigt Hill
#
# Bulk Modulus (GPa) = 78.46817 83.50921 80.98869
# Shear Modulus (GPa) = 40.97081 -42.65310 -0.84114
#
# Velocity S-wave (km/s) = 4.73308 -4.82927 -0.67817
# Velocity P-wave (km/s) = 8.53078 3.81646 6.60831
#
# Compressibility (1/GPa) = 0.01274402
#
# Stress axis : x y z
#
# Youngs Moduli (GPa) = 95.54457 95.54134 145.60595
#
# Poissons Ratio (x) = 0.24728 0.35968
# Poissons Ratio (y) = 0.24729 0.35965
# Poissons Ratio (z) = 0.23601 0.23599
#
# Static dielectric constant tensor:
#      x y z
#    x 1.651630 0.000000 0.000000 
#    y 0.000000 1.651630 0.000000 
#    z 0.000000 0.000000 1.616530 
# 
# From -- ./inp_files/913.got.cif
#   From: 2010.05.17/outbox.cif.g08.bks.cpg/sg124_1_cif.got.tgz:913.got - 2010.05.20 11:49:17.
