data_PCOD9562296
_publ_section_title
;
Structure prediction by ZEFSAII (Michael W. Deem and Ramdas Pophale) SiO2 
 PCOD9562296
Probable space group: P 4/M M M
;
_chemical_formula_sum "Si O2"
_cell_formula_units_Z 96
_cell_length_a 24.000000
_cell_length_b 24.000000
_cell_length_c 9.000000
_cell_angle_alpha 90.000000
_cell_angle_beta 90.000000
_cell_angle_gamma 90.000000
_cell_volume 5184.000000
_symmetry_space_group_name_H-M "P 4/M M M"
_symmetry_group_IT_number 123
_symmetry_cell_setting 'tetragonal'
loop_
_space_group_symop_operation_xyz
x,y,z
-y,x,z
-x,-y,z
y,-x,z
x,-y,-z
-x,y,-z
y,x,-z
-y,-x,-z
-x,-y,-z
y,-x,-z
x,y,-z
-y,x,-z
-x,y,z
x,-y,z
-y,-x,z
y,x,z
loop_
_atom_site_type_symbol
_atom_site_label
_atom_site_fract_x
_atom_site_fract_y
_atom_site_fract_z
Si Si1 0.062926 0.062926 0.822297
Si Si2 0.564518 0.891353 0.667028
Si Si3 0.885529 0.271008 0.668898
Si Si4 0.226854 0.563112 0.822572
Si Si5 0.600330 0.000000 0.162515
Si Si6 0.677500 0.230505 0.679660
Si Si7 0.730192 0.000000 0.158940
Si Si8 0.856840 0.143161 0.339187
O O1 0.108021 0.108021 0.776118
O O2 0.000000 0.076867 0.769855
O O3 0.061039 0.061039 0.000000
O O4 0.585442 0.879268 0.500000
O O5 0.500000 0.905687 0.652970
O O6 0.566665 0.837231 0.769639
O O7 0.590008 0.944764 0.743553
O O8 0.898183 0.288846 0.500000
O O9 0.833719 0.308476 0.726516
O O10 0.942665 0.262732 0.755522
O O11 0.863477 0.208663 0.667247
O O12 0.246281 0.500000 0.779157
O O13 0.251139 0.618487 0.745427
O O14 0.231329 0.567335 0.000000
O O15 0.664898 0.000000 0.136675
O O16 0.571386 0.000000 0.000000
O O17 0.675014 0.229936 0.500000
O O18 0.727680 0.272321 0.722370
O O19 0.760556 0.000000 0.000000
O O20 0.877274 0.122727 0.500000
#
# Coordination Sequence:
#
# PCOD9562296 Si02
#       8
#     8  16  16  16   8  16   8   8
#     4   9  20  38  56  76 104 134 164 208 270 333
#     4  10  20  33  50  72  98 133 179 225 268 318
#     4  10  21  39  58  78 105 138 176 221 275 328
#     4  10  21  36  54  79 112 147 183 226 275 325
#     4  11  22  34  47  68 100 133 169 218 269 320
#     4  10  20  37  61  86 113 147 188 234 281 332
#     4  11  25  38  50  73 103 133 172 216 261 319
#     4  10  21  37  57  78 100 126 164 212 263 321
#
# _framework density 18.518519000000001
#
# number of rings (size 3 to 8) (size 9 to 14) (size 15 to 20)
#    0.000    1.917    0.833    3.000    1.167    9.000 
#    0.000    0.417    0.000    0.000    0.000    0.000 
#    0.000    0.333    0.000    3.667    0.000    2.667 
#
# Total GULP energy -534513.170775 kJ/mol
# GULP energy per Si atom -5567.845529 kJ/mol
# Density = 1.847637 g / cm^3
# Si number density = 18.518519 Si / 1000 Ang^3
#
#
#
# Elastic Constant Matrix: (Units=GPa)
#
#
# Indices 1 2 3 4 5 6 
#
# 1 49.9800 37.6612 23.9723 0.0000 0.0000 0.0000
# 2 37.6612 49.9813 23.9728 0.0000 0.0000 0.0000
# 3 23.9723 23.9728 41.4147 0.0000 0.0000 0.0000
# 4 0.0000 0.0000 0.0000 8.4400 0.0000 0.0000
# 5 0.0000 0.0000 0.0000 0.0000 8.4429 0.0000
# 6 0.0000 0.0000 0.0000 0.0000 0.0000 -135.6986
#
#
#
# Elastic Compliance Matrix: (Units=1/GPa)
#
#
# Indices 1 2 3 4 5 6 
#
# 1 0.048935 -0.032237 -0.009665 0.000000 0.000000 0.000000
# 2 -0.032237 0.048934 -0.009665 0.000000 0.000000 0.000000
# 3 -0.009665 -0.009665 0.035335 0.000000 0.000000 0.000000
# 4 0.000000 0.000000 0.000000 0.118483 0.000000 0.000000
# 5 0.000000 0.000000 0.000000 0.000000 0.118443 0.000000
# 6 0.000000 0.000000 0.000000 0.000000 0.000000 -0.007369
#
#
# Mechanical properties :
#
#
# Convention : Reuss Voigt Hill
#
# Bulk Modulus (GPa) = 33.25637 34.73206 33.99421
# Shear Modulus (GPa) = 10.50596 -20.04515 -4.76959
#
# Velocity S-wave (km/s) = 2.38444 -3.29361 -1.60660
# Velocity P-wave (km/s) = 5.05748 2.08139 3.86719
#
# Compressibility (1/GPa) = 0.03006943
#
# Stress axis : x y z
#
# Youngs Moduli (GPa) = 20.43511 20.43556 28.30037
#
# Poissons Ratio (x) = 0.65879 0.27352
# Poissons Ratio (y) = 0.65877 0.27353
# Poissons Ratio (z) = 0.19751 0.19752
#
# Static dielectric constant tensor:
#      x y z
#    x 1.373080 0.000000 0.000000 
#    y 0.000000 1.373070 0.000000 
#    z 0.000000 0.000000 1.956270 
# 
# From -- ./inp_files/1741.got.cif
#   From: 2010.05.17/outbox.ucp.g08.bks.cvg/sg123_1_cif.got.tgz:1741.got - 2010.06.11 11:35:48.
