data_PCOD9562718
_publ_section_title
;
Structure prediction by ZEFSAII (Michael W. Deem and Ramdas Pophale) SiO2 
 PCOD9562718
Probable space group: P 4/M C C
;
_chemical_formula_sum "Si O2"
_cell_formula_units_Z 72
_cell_length_a 15.443205
_cell_length_b 15.443205
_cell_length_c 14.399554
_cell_angle_alpha 90.000000
_cell_angle_beta 90.000000
_cell_angle_gamma 90.000000
_cell_volume 3434.186794
_symmetry_space_group_name_H-M "P 4/M C C"
_symmetry_group_IT_number 124
_symmetry_cell_setting 'tetragonal'
loop_
_space_group_symop_operation_xyz
x,y,z
-y,x,z
-x,-y,z
y,-x,z
x,-y,1/2-z
-x,y,1/2-z
y,x,1/2-z
-y,-x,1/2-z
-x,-y,-z
y,-x,-z
x,y,-z
-y,x,-z
-x,y,1/2+z
x,-y,1/2+z
-y,-x,1/2+z
y,x,1/2+z
loop_
_atom_site_type_symbol
_atom_site_label
_atom_site_fract_x
_atom_site_fract_y
_atom_site_fract_z
Si Si1 0.360316 0.495317 0.112359
Si Si2 0.923549 0.879536 0.390519
Si Si3 0.639192 0.901250 0.738869
Si Si4 0.158063 0.489868 0.611309
Si Si5 0.799798 0.799798 0.250000
O O1 0.418447 0.412974 0.141958
O O2 0.259488 0.495226 0.137093
O O3 0.361866 0.495046 0.000000
O O4 0.914758 0.864378 0.500000
O O5 0.870856 0.813547 0.329838
O O6 0.025167 0.885164 0.369321
O O7 0.565521 0.897613 0.659607
O O8 0.596378 0.872508 0.836179
O O9 0.707573 0.827049 0.711212
O O10 0.671475 0.000000 0.750000
O O11 0.149360 0.487098 0.500000
#
# Coordination Sequence:
#
# PCOD9562718 Si02
#       5
#    16  16  16  16   8
#     4   8  15  30  57  93 127 157 194 242 298 361
#     4   9  18  34  58  88 120 157 200 244 306 383
#     4  11  26  43  60  91 124 158 213 257 303 381
#     4  10  22  42  68  88 122 168 208 254 302 360
#     4  12  24  39  62  88 125 160 200 268 324 354
#
# _framework density 20.965662999999999
#
# number of rings (size 3 to 8) (size 9 to 14) (size 15 to 20)
#    0.000    2.222    0.000    4.667    3.111    4.444 
#    0.000    0.000    0.000    5.333    0.000    0.000 
#    0.000    0.000    0.000    0.000    0.000    0.000 
#
# Total GULP energy -401965.794605 kJ/mol
# GULP energy per Si atom -5582.858258 kJ/mol
# Density = 2.091794 g / cm^3
# Si number density = 20.965663 Si / 1000 Ang^3
#
#
#
# Elastic Constant Matrix: (Units=GPa)
#
#
# Indices 1 2 3 4 5 6 
#
# 1 61.8879 22.7709 7.4055 0.0000 0.0000 0.0000
# 2 22.7709 61.8879 7.4055 0.0000 0.0000 0.0000
# 3 7.4055 7.4055 93.7076 0.0000 0.0000 0.0000
# 4 0.0000 0.0000 0.0000 -38.0882 0.0000 0.0000
# 5 0.0000 0.0000 0.0000 0.0000 -38.0882 0.0000
# 6 0.0000 0.0000 0.0000 0.0000 0.0000 27.3470
#
#
#
# Elastic Compliance Matrix: (Units=1/GPa)
#
#
# Indices 1 2 3 4 5 6 
#
# 1 0.018771 -0.006793 -0.000947 0.000000 0.000000 0.000000
# 2 -0.006793 0.018771 -0.000947 0.000000 0.000000 0.000000
# 3 -0.000947 -0.000947 0.010821 0.000000 0.000000 0.000000
# 4 0.000000 0.000000 0.000000 -0.026255 0.000000 0.000000
# 5 0.000000 0.000000 0.000000 0.000000 -0.026255 0.000000
# 6 0.000000 0.000000 0.000000 0.000000 0.000000 0.036567
#
#
# Mechanical properties :
#
#
# Convention : Reuss Voigt Hill
#
# Bulk Modulus (GPa) = 32.26821 32.51637 32.39229
# Shear Modulus (GPa) = 83.16212 2.22756 42.69484
#
# Velocity S-wave (km/s) = 6.30492 1.03188 4.51756
# Velocity P-wave (km/s) = 8.27206 4.11858 6.53413
#
# Compressibility (1/GPa) = 0.03099025
#
# Stress axis : x y z
#
# Youngs Moduli (GPa) = 53.27357 53.27357 92.41203
#
# Poissons Ratio (x) = 0.36190 0.08748
# Poissons Ratio (y) = 0.36190 0.08748
# Poissons Ratio (z) = 0.05043 0.05043
#
# Static dielectric constant tensor:
#      x y z
#    x 1.772120 0.000000 0.000000 
#    y 0.000000 1.772120 0.000000 
#    z 0.000000 0.000000 1.731590 
# 
# From -- ./inp_files/4096.got.cif
#   From: 2010.05.17/outbox.cif.g08.bks.cpg/sg124_3_cif.got.tgz:4096.got - 2010.05.20 11:49:17.
