data_PCOD9562039
_publ_section_title
;
Structure prediction by ZEFSAII (Michael W. Deem and Ramdas Pophale) SiO2 
 PCOD9562039
Probable space group: P 4/M M M
;
_chemical_formula_sum "Si O2"
_cell_formula_units_Z 80
_cell_length_a 13.817128
_cell_length_b 13.817128
_cell_length_c 25.877921
_cell_angle_alpha 90.000000
_cell_angle_beta 90.000000
_cell_angle_gamma 90.000000
_cell_volume 4940.432209
_symmetry_space_group_name_H-M "P 4/M M M"
_symmetry_group_IT_number 123
_symmetry_cell_setting 'tetragonal'
loop_
_space_group_symop_operation_xyz
x,y,z
-y,x,z
-x,-y,z
y,-x,z
x,-y,-z
-x,y,-z
y,x,-z
-y,-x,-z
-x,-y,-z
y,-x,-z
x,y,-z
-y,x,-z
-x,y,z
x,-y,z
-y,-x,z
y,x,z
loop_
_atom_site_type_symbol
_atom_site_label
_atom_site_fract_x
_atom_site_fract_y
_atom_site_fract_z
Si Si1 0.227063 0.385269 0.557146
Si Si2 0.115785 0.726551 0.235555
Si Si3 0.775468 0.385471 0.145257
Si Si4 0.729172 0.887316 0.938489
Si Si5 0.611758 0.884483 0.660540
O O1 0.183803 0.364694 0.500000
O O2 0.243721 0.500000 0.559677
O O3 0.325893 0.325893 0.560419
O O4 0.162390 0.358415 0.606269
O O5 0.172252 0.827749 0.229960
O O6 0.159356 0.655115 0.192292
O O7 0.139526 0.679968 0.291347
O O8 0.000000 0.735098 0.230516
O O9 0.761786 0.500000 0.148290
O O10 0.675568 0.324432 0.146280
O O11 0.833172 0.353488 0.093744
O O12 0.827981 0.827981 0.927389
O O13 0.736523 0.000000 0.924007
O O14 0.711924 0.881647 0.000000
O O15 0.500000 0.855556 0.671675
O O16 0.612709 0.000000 0.654825
#
# Coordination Sequence:
#
# PCOD9562039 Si02
#       5
#    16  16  16  16  16
#     4   9  17  28  42  61  86 116 148 183 224 269
#     4  10  20  33  50  72  97 125 156 190 230 277
#     4  10  21  36  53  73  97 125 159 199 240 283
#     4   9  18  32  50  74 103 133 165 200 238 281
#     4   9  17  29  46  67  89 115 149 188 229 272
#
# _framework density 16.192916
#
# number of rings (size 3 to 8) (size 9 to 14) (size 15 to 20)
#    0.000    2.600    0.000    1.800    0.000    4.000 
#    0.000    5.000    0.000    3.600    0.000    5.600 
#    0.000    0.000    0.000   18.600    0.000    0.400 
#
# Total GULP energy -445760.187050 kJ/mol
# GULP energy per Si atom -5572.002338 kJ/mol
# Density = 1.615606 g / cm^3
# Si number density = 16.192916 Si / 1000 Ang^3
#
#
#
# Elastic Constant Matrix: (Units=GPa)
#
#
# Indices 1 2 3 4 5 6 
#
# 1 99.0720 59.4273 50.5310 0.0000 0.0000 0.0000
# 2 59.4273 99.0720 50.5310 0.0000 0.0000 0.0000
# 3 50.5310 50.5310 77.4284 0.0000 0.0000 0.0000
# 4 0.0000 0.0000 0.0000 23.8509 0.0000 0.0000
# 5 0.0000 0.0000 0.0000 0.0000 23.8509 0.0000
# 6 0.0000 0.0000 0.0000 0.0000 0.0000 14.0351
#
#
#
# Elastic Compliance Matrix: (Units=1/GPa)
#
#
# Indices 1 2 3 4 5 6 
#
# 1 0.018015 -0.007209 -0.007052 0.000000 0.000000 0.000000
# 2 -0.007209 0.018015 -0.007052 0.000000 0.000000 0.000000
# 3 -0.007052 -0.007052 0.022120 0.000000 0.000000 0.000000
# 4 0.000000 0.000000 0.000000 0.041927 0.000000 0.000000
# 5 0.000000 0.000000 0.000000 0.000000 0.041927 0.000000
# 6 0.000000 0.000000 0.000000 0.000000 0.000000 0.071250
#
#
# Mechanical properties :
#
#
# Convention : Reuss Voigt Hill
#
# Bulk Modulus (GPa) = 64.42012 66.28347 65.35180
# Shear Modulus (GPa) = 19.15313 20.01958 19.58635
#
# Velocity S-wave (km/s) = 3.44293 3.51994 3.48165
# Velocity P-wave (km/s) = 7.46152 7.58568 7.52386
#
# Compressibility (1/GPa) = 0.01552310
#
# Stress axis : x y z
#
# Youngs Moduli (GPa) = 55.50985 55.50985 45.20886
#
# Poissons Ratio (x) = 0.40018 0.31881
# Poissons Ratio (y) = 0.40018 0.31881
# Poissons Ratio (z) = 0.39145 0.39145
#
# Static dielectric constant tensor:
#      x y z
#    x 1.521030 0.000000 0.000000 
#    y 0.000000 1.521030 0.000000 
#    z 0.000000 0.000000 1.566400 
# 
# From -- ./inp_files/8318.got.cif
#   From: 2010.05.17/outbox.cif.g08.bks.cpg/sg123_5_cif.got.tgz:8318.got - 2010.05.20 11:43:04.
