data_PCOD9562861
_publ_section_title
;
Structure prediction by ZEFSAII (Michael W. Deem and Ramdas Pophale) SiO2 
 PCOD9562861
Probable space group: P 4/M C C
;
_chemical_formula_sum "Si O2"
_cell_formula_units_Z 116
_cell_length_a 18.000000
_cell_length_b 18.000000
_cell_length_c 18.000000
_cell_angle_alpha 90.000000
_cell_angle_beta 90.000000
_cell_angle_gamma 90.000000
_cell_volume 5832.000000
_symmetry_space_group_name_H-M "P 4/M C C"
_symmetry_group_IT_number 124
_symmetry_cell_setting 'tetragonal'
loop_
_space_group_symop_operation_xyz
x,y,z
-y,x,z
-x,-y,z
y,-x,z
x,-y,1/2-z
-x,y,1/2-z
y,x,1/2-z
-y,-x,1/2-z
-x,-y,-z
y,-x,-z
x,y,-z
-y,x,-z
-x,y,1/2+z
x,-y,1/2+z
-y,-x,1/2+z
y,x,1/2+z
loop_
_atom_site_type_symbol
_atom_site_label
_atom_site_fract_x
_atom_site_fract_y
_atom_site_fract_z
Si Si1 0.696799 0.799948 0.228748
Si Si2 0.121086 0.987484 0.661114
Si Si3 0.225514 0.464309 0.912357
Si Si4 0.904773 0.621970 0.168246
Si Si5 0.822883 0.633360 0.584017
Si Si6 0.976955 0.280573 0.913679
Si Si7 0.500000 0.000000 0.250000
Si Si8 0.682931 0.422747 0.287452
O O1 0.779961 0.779961 0.250000
O O2 0.668511 0.877367 0.259915
O O3 0.686378 0.784313 0.142621
O O4 0.639634 0.742986 0.267082
O O5 0.064291 0.921040 0.638743
O O6 0.126683 0.000000 0.750000
O O7 0.202437 0.970145 0.629059
O O8 0.162745 0.410243 0.879848
O O9 0.196696 0.548509 0.894931
O O10 0.303339 0.441761 0.873529
O O11 0.230590 0.458564 0.000000
O O12 0.953849 0.675453 0.118887
O O13 0.950088 0.552433 0.199027
O O14 0.798615 0.644085 0.500000
O O15 0.907870 0.661186 0.590498
O O16 0.986583 0.262843 0.000000
O O17 0.704337 0.500000 0.250000
O O18 0.607419 0.392582 0.250000
#
# Coordination Sequence:
#
# PCOD9562861 Si02
#       8
#    16  16  16  16  16  16   4  16
#     4  10  21  37  57  85 115 158 202 241 297 370
#     4   9  21  43  67  88 115 162 219 268 323 393
#     4  10  20  38  62  86 121 170 210 248 311 383
#     4  11  22  36  58  86 126 162 208 259 309 372
#     4  10  21  37  59  86 120 159 202 250 308 373
#     4  11  24  38  56  92 128 155 201 263 323 377
#     4  12  24  36  62  96 116 166 224 268 300 376
#     4  10  20  37  61  87 118 150 201 253 295 360
#
# _framework density 19.890260999999999
#
# number of rings (size 3 to 8) (size 9 to 14) (size 15 to 20)
#    0.000    1.793    1.379    3.310    4.828    1.793 
#    0.000   12.414    0.000    0.000    0.000    0.966 
#    0.000    0.000    0.000    0.000    0.000    0.000 
#
# Total GULP energy -646080.117107 kJ/mol
# GULP energy per Si atom -5569.656182 kJ/mol
# Density = 1.984499 g / cm^3
# Si number density = 19.890261 Si / 1000 Ang^3
#
#
#
# Elastic Constant Matrix: (Units=GPa)
#
#
# Indices 1 2 3 4 5 6 
#
# 1 57.2851 40.5515 40.3549 0.0000 0.0000 0.0000
# 2 40.5515 57.2810 40.3552 0.0000 0.0000 0.0000
# 3 40.3549 40.3552 99.4574 0.0000 0.0000 0.0000
# 4 0.0000 0.0000 0.0000 185.1409 0.0000 0.0000
# 5 0.0000 0.0000 0.0000 0.0000 185.1744 0.0000
# 6 0.0000 0.0000 0.0000 0.0000 0.0000 22.4931
#
#
#
# Elastic Compliance Matrix: (Units=1/GPa)
#
#
# Indices 1 2 3 4 5 6 
#
# 1 0.037564 -0.022202 -0.006233 0.000000 0.000000 0.000000
# 2 -0.022202 0.037568 -0.006235 0.000000 0.000000 0.000000
# 3 -0.006233 -0.006235 0.015114 0.000000 0.000000 0.000000
# 4 0.000000 0.000000 0.000000 0.005401 0.000000 0.000000
# 5 0.000000 0.000000 0.000000 0.000000 0.005400 0.000000
# 6 0.000000 0.000000 0.000000 0.000000 0.000000 0.044458
#
#
# Mechanical properties :
#
#
# Convention : Reuss Voigt Hill
#
# Bulk Modulus (GPa) = 47.83382 50.72742 49.28062
# Shear Modulus (GPa) = 22.54155 84.74579 53.64367
#
# Velocity S-wave (km/s) = 3.37010 6.53446 5.19888
# Velocity P-wave (km/s) = 6.26454 9.08247 7.80179
#
# Compressibility (1/GPa) = 0.02090571
#
# Stress axis : x y z
#
# Youngs Moduli (GPa) = 26.62142 26.61857 66.16586
#
# Poissons Ratio (x) = 0.59097 0.41242
# Poissons Ratio (y) = 0.59104 0.41254
# Poissons Ratio (z) = 0.16594 0.16597
#
# Static dielectric constant tensor:
#      x y z
#    x 1.942450 0.000000 0.000000 
#    y 0.000000 1.942450 0.000000 
#    z 0.000000 0.000000 1.737700 
# 
# From -- ./inp_files/4422.got.cif
#   From: 2010.05.17/outbox.ucp.g08.bks.cvg/sg124_3_cif.got.tgz:4422.got - 2010.06.11 11:36:13.
