data_PCOD9562145
_publ_section_title
;
Structure prediction by ZEFSAII (Michael W. Deem and Ramdas Pophale) SiO2 
 PCOD9562145
Probable space group: P 4/M M M
;
_chemical_formula_sum "Si O2"
_cell_formula_units_Z 96
_cell_length_a 24.498318
_cell_length_b 24.498318
_cell_length_c 8.785399
_cell_angle_alpha 90.000000
_cell_angle_beta 90.000000
_cell_angle_gamma 90.000000
_cell_volume 5272.711700
_symmetry_space_group_name_H-M "P 4/M M M"
_symmetry_group_IT_number 123
_symmetry_cell_setting 'tetragonal'
loop_
_space_group_symop_operation_xyz
x,y,z
-y,x,z
-x,-y,z
y,-x,z
x,-y,-z
-x,y,-z
y,x,-z
-y,-x,-z
-x,-y,-z
y,-x,-z
x,y,-z
-y,x,-z
-x,y,z
x,-y,z
-y,-x,z
y,x,z
loop_
_atom_site_type_symbol
_atom_site_label
_atom_site_fract_x
_atom_site_fract_y
_atom_site_fract_z
Si Si1 0.377501 0.752407 0.682200
Si Si2 0.063661 0.224516 0.318216
Si Si3 0.748970 0.251031 0.683853
Si Si4 0.064196 0.658628 0.181208
Si Si5 0.562661 0.648813 0.182741
Si Si6 0.437809 0.855758 0.183946
Si Si7 0.835047 0.835047 0.818810
O O1 0.379649 0.753719 0.500000
O O2 0.314087 0.760510 0.727075
O O3 0.400638 0.695150 0.740888
O O4 0.415384 0.799229 0.751351
O O5 0.067346 0.220438 0.500000
O O6 0.079517 0.285862 0.267074
O O7 0.105938 0.183248 0.242482
O O8 0.000000 0.216348 0.273453
O O9 0.753415 0.246586 0.500000
O O10 0.790953 0.209048 0.757818
O O11 0.098467 0.606043 0.229766
O O12 0.000000 0.649059 0.205968
O O13 0.072673 0.667212 0.000000
O O14 0.500000 0.652052 0.233208
O O15 0.590718 0.590718 0.213999
O O16 0.563893 0.657249 0.000000
O O17 0.500000 0.866442 0.233070
O O18 0.437785 0.853269 0.000000
O O19 0.834694 0.834694 0.000000
#
# Coordination Sequence:
#
# PCOD9562145 Si02
#       7
#    16  16   8  16  16  16   8
#     4  11  22  37  55  77 105 139 178 223 276 330
#     4  10  21  38  60  85 117 156 192 230 279 332
#     4  10  22  38  56  80 112 144 180 229 280 334
#     4   9  18  34  56  81 109 144 189 237 281 327
#     4  10  21  37  57  79 103 133 169 213 267 329
#     4  10  21  35  51  75 108 145 184 226 276 335
#     4  12  24  36  58  91 121 151 189 234 279 323
#
# _framework density 18.206951
#
# number of rings (size 3 to 8) (size 9 to 14) (size 15 to 20)
#    0.000    1.833    0.833    3.250    0.000    8.833 
#    0.000    2.500    0.000    0.250    0.000    6.417 
#    0.000    0.000    0.000    0.000    0.000    0.000 
#
# Total GULP energy -536245.253698 kJ/mol
# GULP energy per Si atom -5585.888059 kJ/mol
# Density = 1.816551 g / cm^3
# Si number density = 18.206951 Si / 1000 Ang^3
#
#
#
# Elastic Constant Matrix: (Units=GPa)
#
#
# Indices 1 2 3 4 5 6 
#
# 1 111.7797 74.6997 39.3125 0.0000 0.0000 0.0000
# 2 74.6997 111.7799 39.3128 0.0000 0.0000 0.0000
# 3 39.3125 39.3128 29.2014 0.0000 0.0000 0.0000
# 4 0.0000 0.0000 0.0000 19.7716 0.0000 0.0000
# 5 0.0000 0.0000 0.0000 0.0000 19.7714 0.0000
# 6 0.0000 0.0000 0.0000 0.0000 0.0000 26.6044
#
#
#
# Elastic Compliance Matrix: (Units=1/GPa)
#
#
# Indices 1 2 3 4 5 6 
#
# 1 0.019685 -0.007283 -0.016697 0.000000 0.000000 0.000000
# 2 -0.007283 0.019686 -0.016697 0.000000 0.000000 0.000000
# 3 -0.016697 -0.016697 0.079201 0.000000 0.000000 0.000000
# 4 0.000000 0.000000 0.000000 0.050578 0.000000 0.000000
# 5 0.000000 0.000000 0.000000 0.000000 0.050578 0.000000
# 6 0.000000 0.000000 0.000000 0.000000 0.000000 0.037588
#
#
# Mechanical properties :
#
#
# Convention : Reuss Voigt Hill
#
# Bulk Modulus (GPa) = 26.86811 62.15679 44.51245
# Shear Modulus (GPa) = 14.24194 19.85854 17.05024
#
# Velocity S-wave (km/s) = 2.79986 3.30618 3.06350
# Velocity P-wave (km/s) = 5.02408 6.98481 6.08395
#
# Compressibility (1/GPa) = 0.03721885
#
# Stress axis : x y z
#
# Youngs Moduli (GPa) = 50.79887 50.79853 12.62605
#
# Poissons Ratio (x) = 0.36997 0.21081
# Poissons Ratio (y) = 0.36998 0.21082
# Poissons Ratio (z) = 0.84817 0.84818
#
# Static dielectric constant tensor:
#      x y z
#    x 1.613950 0.000000 0.000000 
#    y 0.000000 1.613950 0.000000 
#    z 0.000000 0.000000 1.613590 
# 
# From -- ./inp_files/1671.got.cif
#   From: 2010.05.17/outbox.cif.g08.bks.cpg/sg123_1_cif.got.tgz:1671.got - 2010.05.20 11:43:04.
