data_PCOD9562748
_publ_section_title
;
Structure prediction by ZEFSAII (Michael W. Deem and Ramdas Pophale) SiO2 
 PCOD9562748
Probable space group: P 4/M C C
;
_chemical_formula_sum "Si O2"
_cell_formula_units_Z 120
_cell_length_a 22.287359
_cell_length_b 22.287359
_cell_length_c 14.305025
_cell_angle_alpha 90.000000
_cell_angle_beta 90.000000
_cell_angle_gamma 90.000000
_cell_volume 7105.683158
_symmetry_space_group_name_H-M "P 4/M C C"
_symmetry_group_IT_number 124
_symmetry_cell_setting 'tetragonal'
loop_
_space_group_symop_operation_xyz
x,y,z
-y,x,z
-x,-y,z
y,-x,z
x,-y,1/2-z
-x,y,1/2-z
y,x,1/2-z
-y,-x,1/2-z
-x,-y,-z
y,-x,-z
x,y,-z
-y,x,-z
-x,y,1/2+z
x,-y,1/2+z
-y,-x,1/2+z
y,x,1/2+z
loop_
_atom_site_type_symbol
_atom_site_label
_atom_site_fract_x
_atom_site_fract_y
_atom_site_fract_z
Si Si1 0.694656 0.658460 0.892060
Si Si2 0.771073 0.157910 0.606735
Si Si3 0.405456 0.761969 0.605790
Si Si4 0.120964 0.744906 0.607306
Si Si5 0.068644 0.830080 0.757343
Si Si6 0.597080 0.484989 0.000000
Si Si7 0.192615 0.672076 0.740757
Si Si8 0.691416 0.484440 0.643026
O O1 0.635999 0.701130 0.879930
O O2 0.746684 0.676063 0.820049
O O3 0.687452 0.586446 0.877613
O O4 0.713771 0.667762 0.000000
O O5 0.750138 0.150438 0.500000
O O6 0.822227 0.209186 0.605818
O O7 0.796893 0.096115 0.650834
O O8 0.722422 0.182183 0.679977
O O9 0.390720 0.782987 0.500000
O O10 0.386970 0.802509 0.694375
O O11 0.476375 0.748005 0.608979
O O12 0.103022 0.734256 0.500000
O O13 0.076110 0.782582 0.672300
O O14 0.141397 0.685616 0.663842
O O15 0.113185 0.886816 0.750000
O O16 0.000000 0.849193 0.750000
O O17 0.565320 0.548492 0.000000
O O18 0.637580 0.483517 0.089835
O O19 0.686015 0.500000 0.750000
#
# Coordination Sequence:
#
# PCOD9562748 Si02
#       8
#    16  16  16  16  16   8  16  16
#     4  11  21  32  47  65  86 113 147 191 243 299
#     4   9  17  30  47  68  96 127 161 201 245 293
#     4  11  21  32  47  65  86 113 147 191 243 299
#     4   9  17  30  47  68  96 127 161 201 245 293
#     4   9  18  31  48  72 103 141 184 222 249 271
#     4  11  24  40  52  60  76 108 156 208 251 294
#     4  11  19  29  47  71  90 112 150 195 246 303
#     4  12  23  35  49  64  84 112 148 192 246 299
#
# _framework density 16.887889999999999
#
# number of rings (size 3 to 8) (size 9 to 14) (size 15 to 20)
#    0.000    1.667    2.667    4.800    0.000    4.400 
#    0.000    0.667    0.000    0.000    0.000    3.733 
#    0.000    0.000    0.000   38.400    0.000  142.933 
#
# Total GULP energy -668221.445987 kJ/mol
# GULP energy per Si atom -5568.512050 kJ/mol
# Density = 1.684945 g / cm^3
# Si number density = 16.887890 Si / 1000 Ang^3
#
#
#
# Elastic Constant Matrix: (Units=GPa)
#
#
# Indices 1 2 3 4 5 6 
#
# 1 35.2490 20.7687 19.0006 0.0000 0.0000 0.0000
# 2 20.7687 35.2476 19.0003 0.0000 0.0000 0.0000
# 3 19.0006 19.0003 143.6555 0.0000 0.0000 0.0000
# 4 0.0000 0.0000 0.0000 11.1678 0.0000 0.0000
# 5 0.0000 0.0000 0.0000 0.0000 11.1685 0.0000
# 6 0.0000 0.0000 0.0000 0.0000 0.0000 12.9558
#
#
#
# Elastic Compliance Matrix: (Units=1/GPa)
#
#
# Indices 1 2 3 4 5 6 
#
# 1 0.044336 -0.024726 -0.002594 0.000000 0.000000 0.000000
# 2 -0.024726 0.044338 -0.002594 0.000000 0.000000 0.000000
# 3 -0.002594 -0.002594 0.007647 0.000000 0.000000 0.000000
# 4 0.000000 0.000000 0.000000 0.089543 0.000000 0.000000
# 5 0.000000 0.000000 0.000000 0.000000 0.089537 0.000000
# 6 0.000000 0.000000 0.000000 0.000000 0.000000 0.077186
#
#
# Mechanical properties :
#
#
# Convention : Reuss Voigt Hill
#
# Bulk Modulus (GPa) = 27.40141 36.85458 32.12800
# Shear Modulus (GPa) = 11.77637 17.41725 14.59681
#
# Velocity S-wave (km/s) = 2.64356 3.21494 2.94315
# Velocity P-wave (km/s) = 5.05753 5.97090 5.53309
#
# Compressibility (1/GPa) = 0.03649447
#
# Stress axis : x y z
#
# Youngs Moduli (GPa) = 22.55499 22.55409 130.76589
#
# Poissons Ratio (x) = 0.55766 0.33918
# Poissons Ratio (y) = 0.55769 0.33920
# Poissons Ratio (z) = 0.05850 0.05850
#
# Static dielectric constant tensor:
#      x y z
#    x 1.592130 0.000000 0.000000 
#    y 0.000000 1.592130 0.000000 
#    z 0.000000 0.000000 1.613190 
# 
# From -- ./inp_files/3485.got.cif
#   From: 2010.05.17/outbox.cif.g08.bks.cpg/sg124_2_cif.got.tgz:3485.got - 2010.05.20 11:49:17.
