data_PCOD9562689
_publ_section_title
;
Structure prediction by ZEFSAII (Michael W. Deem and Ramdas Pophale) SiO2 
 PCOD9562689
Probable space group: P 4/M C C
;
_chemical_formula_sum "Si O2"
_cell_formula_units_Z 40
_cell_length_a 13.462962
_cell_length_b 13.462962
_cell_length_c 10.346065
_cell_angle_alpha 90.000000
_cell_angle_beta 90.000000
_cell_angle_gamma 90.000000
_cell_volume 1875.238205
_symmetry_space_group_name_H-M "P 4/M C C"
_symmetry_group_IT_number 124
_symmetry_cell_setting 'tetragonal'
loop_
_space_group_symop_operation_xyz
x,y,z
-y,x,z
-x,-y,z
y,-x,z
x,-y,1/2-z
-x,y,1/2-z
y,x,1/2-z
-y,-x,1/2-z
-x,-y,-z
y,-x,-z
x,y,-z
-y,x,-z
-x,y,1/2+z
x,-y,1/2+z
-y,-x,1/2+z
y,x,1/2+z
loop_
_atom_site_type_symbol
_atom_site_label
_atom_site_fract_x
_atom_site_fract_y
_atom_site_fract_z
Si Si1 0.342195 0.070649 0.353688
Si Si2 0.001965 0.835326 0.500000
Si Si3 0.636445 0.403355 0.000000
Si Si4 0.709952 0.709952 0.750000
O O1 0.386988 0.081580 0.500000
O O2 0.240170 0.011043 0.382990
O O3 0.313437 0.178687 0.299376
O O4 0.394948 0.000000 0.250000
O O5 0.906288 0.902860 0.500000
O O6 0.633703 0.522359 0.000000
O O7 0.687454 0.361569 0.128836
#
# Coordination Sequence:
#
# PCOD9562689 Si02
#       4
#    16   8   8   8
#     4  10  22  35  57  88 130 183 229 266 313 383
#     4   9  17  30  46  76 121 171 228 276 318 353
#     4  11  25  46  76 108 129 155 206 282 362 423
#     4  12  22  43  68  99 138 176 218 270 340 402
#
# _framework density 21.330624
#
# number of rings (size 3 to 8) (size 9 to 14) (size 15 to 20)
#    1.200    0.400    2.000    3.600    2.800    1.600 
#    0.000    2.000    0.000    7.200    0.000    0.000 
#    0.000    0.000    0.000    0.000    0.000    0.000 
#
# Total GULP energy -223018.858022 kJ/mol
# GULP energy per Si atom -5575.471451 kJ/mol
# Density = 2.128207 g / cm^3
# Si number density = 21.330624 Si / 1000 Ang^3
#
#
#
# Elastic Constant Matrix: (Units=GPa)
#
#
# Indices 1 2 3 4 5 6 
#
# 1 34.6912 38.1002 46.5113 0.0000 0.0000 0.0000
# 2 38.1002 34.6912 46.5113 0.0000 0.0000 0.0000
# 3 46.5113 46.5113 207.9486 0.0000 0.0000 0.0000
# 4 0.0000 0.0000 0.0000 89.3381 0.0000 0.0000
# 5 0.0000 0.0000 0.0000 0.0000 89.3381 0.0000
# 6 0.0000 0.0000 0.0000 0.0000 0.0000 -541.5209
#
#
#
# Elastic Compliance Matrix: (Units=1/GPa)
#
#
# Indices 1 2 3 4 5 6 
#
# 1 -0.137050 0.156287 -0.004303 0.000000 0.000000 0.000000
# 2 0.156287 -0.137050 -0.004303 0.000000 0.000000 0.000000
# 3 -0.004303 -0.004303 0.006734 0.000000 0.000000 0.000000
# 4 0.000000 0.000000 0.000000 0.011193 0.000000 0.000000
# 5 0.000000 0.000000 0.000000 0.000000 0.011193 0.000000
# 6 0.000000 0.000000 0.000000 0.000000 0.000000 -0.001847
#
#
# Mechanical properties :
#
#
# Convention : Reuss Voigt Hill
#
# Bulk Modulus (GPa) = 35.71949 59.95298 47.83623
# Shear Modulus (GPa) = -9.38335 -62.82176 -36.10256
#
# Velocity S-wave (km/s) = -2.09966 -5.43281 -4.11849
# Velocity P-wave (km/s) = 3.30211 3.34459 0.37575
#
# Compressibility (1/GPa) = 0.02799592
#
# Stress axis : x y z
#
# Youngs Moduli (GPa) = -7.29658 -7.29658 148.51014
#
# Poissons Ratio (x) = 1.14036 0.63897
# Poissons Ratio (y) = 1.14036 0.63897
# Poissons Ratio (z) = -0.03139 -0.03139
#
# Static dielectric constant tensor:
#      x y z
#    x 1.728950 0.000000 0.000000 
#    y 0.000000 1.728950 0.000000 
#    z 0.000000 0.000000 1.846890 
# 
# From -- ./inp_files/347.got.cif
#   From: 2010.05.17/outbox.cif.g08.bks.cpg/sg124_1_cif.got.tgz:347.got - 2010.05.20 11:49:17.
