data_PCOD9562193
_publ_section_title
;
Structure prediction by ZEFSAII (Michael W. Deem and Ramdas Pophale) SiO2 
 PCOD9562193
Probable space group: P 4/M M M
;
_chemical_formula_sum "Si O2"
_cell_formula_units_Z 72
_cell_length_a 19.759597
_cell_length_b 19.759597
_cell_length_c 10.567158
_cell_angle_alpha 90.000000
_cell_angle_beta 90.000000
_cell_angle_gamma 90.000000
_cell_volume 4125.858855
_symmetry_space_group_name_H-M "P 4/M M M"
_symmetry_group_IT_number 123
_symmetry_cell_setting 'tetragonal'
loop_
_space_group_symop_operation_xyz
x,y,z
-y,x,z
-x,-y,z
y,-x,z
x,-y,-z
-x,y,-z
y,x,-z
-y,-x,-z
-x,-y,-z
y,-x,-z
x,y,-z
-y,x,-z
-x,y,z
x,-y,z
-y,-x,z
y,x,z
loop_
_atom_site_type_symbol
_atom_site_label
_atom_site_fract_x
_atom_site_fract_y
_atom_site_fract_z
Si Si1 0.500000 0.284065 0.861040
Si Si2 0.500000 0.075882 0.153640
Si Si3 0.154162 0.733259 0.647245
Si Si4 0.777261 0.000000 0.645152
Si Si5 0.613422 0.500000 0.636168
Si Si6 0.825008 0.380801 0.148008
Si Si7 0.000000 0.113602 0.861859
O O1 0.500000 0.336728 0.750701
O O2 0.567128 0.237888 0.851300
O O3 0.500000 0.316079 0.000000
O O4 0.431048 0.114059 0.188442
O O5 0.500000 0.000000 0.200704
O O6 0.500000 0.076722 0.000000
O O7 0.166408 0.712358 0.500000
O O8 0.195931 0.804070 0.663827
O O9 0.072605 0.740286 0.662182
O O10 0.179694 0.680122 0.752636
O O11 0.802265 0.000000 0.500000
O O12 0.836180 0.000000 0.746869
O O13 0.564585 0.564585 0.641287
O O14 0.649180 0.500000 0.500000
O O15 0.834247 0.359054 0.000000
O O16 0.935248 0.064753 0.856212
O O17 0.000000 0.148119 0.000000
#
# Coordination Sequence:
#
# PCOD9562193 Si02
#       7
#     8   8  16   8   8  16   8
#     4   9  19  36  55  80 113 145 180 222 266 316
#     4   8  15  30  54  81 107 135 169 212 261 313
#     4  10  22  38  54  76 109 145 182 230 283 331
#     4  10  21  37  55  73  99 138 184 226 271 328
#     4   9  19  35  54  79 109 140 179 223 264 312
#     4   9  19  35  55  80 108 139 179 222 264 319
#     4   9  18  32  50  74 101 125 157 210 272 329
#
# _framework density 17.450913
#
# number of rings (size 3 to 8) (size 9 to 14) (size 15 to 20)
#    0.000    2.778    0.000    2.667    1.556    4.889 
#    0.000    7.222    0.000    0.667    0.000    0.000 
#    0.000    0.000    0.000    0.000    0.000    0.000 
#
# Total GULP energy -400864.500390 kJ/mol
# GULP energy per Si atom -5567.562505 kJ/mol
# Density = 1.741119 g / cm^3
# Si number density = 17.450913 Si / 1000 Ang^3
#
#
#
# Elastic Constant Matrix: (Units=GPa)
#
#
# Indices 1 2 3 4 5 6 
#
# 1 77.6057 10.1423 57.9703 0.0000 0.0000 0.0000
# 2 10.1423 77.6057 57.9703 0.0000 0.0000 0.0000
# 3 57.9703 57.9703 137.9988 0.0000 0.0000 0.0000
# 4 0.0000 0.0000 0.0000 62.5733 0.0000 0.0000
# 5 0.0000 0.0000 0.0000 0.0000 62.5733 0.0000
# 6 0.0000 0.0000 0.0000 0.0000 0.0000 25.1514
#
#
#
# Elastic Compliance Matrix: (Units=1/GPa)
#
#
# Indices 1 2 3 4 5 6 
#
# 1 0.020218 0.005395 -0.010759 0.000000 0.000000 0.000000
# 2 0.005395 0.020218 -0.010759 0.000000 0.000000 0.000000
# 3 -0.010759 -0.010759 0.016286 0.000000 0.000000 0.000000
# 4 0.000000 0.000000 0.000000 0.015981 0.000000 0.000000
# 5 0.000000 0.000000 0.000000 0.000000 0.015981 0.000000
# 6 0.000000 0.000000 0.000000 0.000000 0.000000 0.039759
#
#
# Mechanical properties :
#
#
# Convention : Reuss Voigt Hill
#
# Bulk Modulus (GPa) = 40.86020 60.59732 50.72876
# Shear Modulus (GPa) = 29.61249 41.20141 35.40695
#
# Velocity S-wave (km/s) = 4.12382 4.86427 4.50927
# Velocity P-wave (km/s) = 6.79262 8.14543 7.49959
#
# Compressibility (1/GPa) = 0.02447369
#
# Stress axis : x y z
#
# Youngs Moduli (GPa) = 49.46203 49.46203 61.40326
#
# Poissons Ratio (x) = -0.26683 0.66065
# Poissons Ratio (y) = -0.26683 0.66065
# Poissons Ratio (z) = 0.53217 0.53217
#
# Static dielectric constant tensor:
#      x y z
#    x 1.594570 0.000000 0.000000 
#    y 0.000000 1.594570 0.000000 
#    z 0.000000 0.000000 1.581830 
# 
# From -- ./inp_files/1255.got.cif
#   From: 2010.05.17/outbox.cif.g08.bks.cpg/sg123_1_cif.got.tgz:1255.got - 2010.05.20 11:43:04.
