data_PCOD9562704
_publ_section_title
;
Structure prediction by ZEFSAII (Michael W. Deem and Ramdas Pophale) SiO2 
 PCOD9562704
Probable space group: P 4/M C C
;
_chemical_formula_sum "Si O2"
_cell_formula_units_Z 64
_cell_length_a 10.343601
_cell_length_b 10.343601
_cell_length_c 23.465338
_cell_angle_alpha 90.000000
_cell_angle_beta 90.000000
_cell_angle_gamma 90.000000
_cell_volume 2510.558428
_symmetry_space_group_name_H-M "P 4/M C C"
_symmetry_group_IT_number 124
_symmetry_cell_setting 'tetragonal'
loop_
_space_group_symop_operation_xyz
x,y,z
-y,x,z
-x,-y,z
y,-x,z
x,-y,1/2-z
-x,y,1/2-z
y,x,1/2-z
-y,-x,1/2-z
-x,-y,-z
y,-x,-z
x,y,-z
-y,x,-z
-x,y,1/2+z
x,-y,1/2+z
-y,-x,1/2+z
y,x,1/2+z
loop_
_atom_site_type_symbol
_atom_site_label
_atom_site_fract_x
_atom_site_fract_y
_atom_site_fract_z
Si Si1 0.645169 0.122505 0.600083
Si Si2 0.779034 0.993131 0.500000
Si Si3 0.149522 0.842736 0.188277
Si Si4 0.512178 0.285214 0.682427
Si Si5 0.706036 0.449715 0.000000
O O1 0.692425 0.005823 0.558000
O O2 0.773973 0.179783 0.629483
O O3 0.544114 0.147022 0.652832
O O4 0.576594 0.212074 0.554928
O O5 0.871668 0.122698 0.500000
O O6 0.202528 0.797473 0.250000
O O7 0.994344 0.824076 0.188215
O O8 0.630022 0.384868 0.667895
O O9 0.500000 0.266381 0.750000
O O10 0.650158 0.590464 0.000000
#
# Coordination Sequence:
#
# PCOD9562704 Si02
#       5
#    16   8  16  16   8
#     4  11  20  32  63  93 112 155 204 255 304 355
#     4  10  22  40  62  92 126 164 216 262 300 360
#     4   9  19  36  58  87 119 153 196 243 290 355
#     4   9  19  35  56  86 116 153 203 255 301 361
#     4  10  22  40  58  82 114 150 202 254 294 352
#
# _framework density 25.492335000000001
#
# number of rings (size 3 to 8) (size 9 to 14) (size 15 to 20)
#    0.000    2.250    0.000    4.500    3.500    4.000 
#    0.000    0.000    0.000   61.500    0.000    0.000 
#    0.000    0.000    0.000    0.000    0.000    0.000 
#
# Total GULP energy -356641.365690 kJ/mol
# GULP energy per Si atom -5572.521339 kJ/mol
# Density = 2.543431 g / cm^3
# Si number density = 25.492335 Si / 1000 Ang^3
#
#
#
# Elastic Constant Matrix: (Units=GPa)
#
#
# Indices 1 2 3 4 5 6 
#
# 1 50.3044 30.6225 13.1686 0.0000 0.0000 0.0000
# 2 30.6225 50.3044 13.1687 0.0000 0.0000 0.0000
# 3 13.1686 13.1687 114.5232 0.0000 0.0000 0.0000
# 4 0.0000 0.0000 0.0000 64.6186 0.0000 0.0000
# 5 0.0000 0.0000 0.0000 0.0000 64.6181 0.0000
# 6 0.0000 0.0000 0.0000 0.0000 0.0000 43.9857
#
#
#
# Elastic Compliance Matrix: (Units=1/GPa)
#
#
# Indices 1 2 3 4 5 6 
#
# 1 0.031823 -0.018985 -0.001476 0.000000 0.000000 0.000000
# 2 -0.018985 0.031823 -0.001476 0.000000 0.000000 0.000000
# 3 -0.001476 -0.001476 0.009071 0.000000 0.000000 0.000000
# 4 0.000000 0.000000 0.000000 0.015475 0.000000 0.000000
# 5 0.000000 0.000000 0.000000 0.000000 0.015476 0.000000
# 6 0.000000 0.000000 0.000000 0.000000 0.000000 0.022735
#
#
# Mechanical properties :
#
#
# Convention : Reuss Voigt Hill
#
# Bulk Modulus (GPa) = 34.67246 36.56128 35.61687
# Shear Modulus (GPa) = 27.79455 45.18930 36.49193
#
# Velocity S-wave (km/s) = 3.30557 4.21487 3.78760
# Velocity P-wave (km/s) = 5.31034 6.16928 5.75585
#
# Compressibility (1/GPa) = 0.02884133
#
# Stress axis : x y z
#
# Youngs Moduli (GPa) = 31.42412 31.42416 110.23751
#
# Poissons Ratio (x) = 0.59660 0.16272
# Poissons Ratio (y) = 0.59660 0.16272
# Poissons Ratio (z) = 0.04639 0.04639
#
# Static dielectric constant tensor:
#      x y z
#    x 2.083900 0.000000 0.000000 
#    y 0.000000 2.083900 0.000000 
#    z 0.000000 0.000000 2.139100 
# 
# From -- ./inp_files/5884.got.cif
#   From: 2010.05.17/outbox.cif.g08.bks.cpg/sg124_3_cif.got.tgz:5884.got - 2010.05.20 11:49:17.
