data_PCOD9562606
_publ_section_title
;
Structure prediction by ZEFSAII (Michael W. Deem and Ramdas Pophale) SiO2 
 PCOD9562606
Probable space group: P 4/M C C
;
_chemical_formula_sum "Si O2"
_cell_formula_units_Z 96
_cell_length_a 24.610227
_cell_length_b 24.610227
_cell_length_c 8.741608
_cell_angle_alpha 90.000000
_cell_angle_beta 90.000000
_cell_angle_gamma 90.000000
_cell_volume 5294.470912
_symmetry_space_group_name_H-M "P 4/M C C"
_symmetry_group_IT_number 124
_symmetry_cell_setting 'tetragonal'
loop_
_space_group_symop_operation_xyz
x,y,z
-y,x,z
-x,-y,z
y,-x,z
x,-y,1/2-z
-x,y,1/2-z
y,x,1/2-z
-y,-x,1/2-z
-x,-y,-z
y,-x,-z
x,y,-z
-y,x,-z
-x,y,1/2+z
x,-y,1/2+z
-y,-x,1/2+z
y,x,1/2+z
loop_
_atom_site_type_symbol
_atom_site_label
_atom_site_fract_x
_atom_site_fract_y
_atom_site_fract_z
Si Si1 0.557225 0.060438 0.316911
Si Si2 0.850118 0.766304 0.815976
Si Si3 0.854672 0.359659 0.316124
Si Si4 0.557879 0.641086 0.819037
Si Si5 0.145171 0.060526 0.315989
Si Si6 0.230766 0.558842 0.182627
O O1 0.500000 0.082207 0.250000
O O2 0.554266 0.059320 0.500000
O O3 0.607283 0.096137 0.259746
O O4 0.562877 0.000000 0.250000
O O5 0.798458 0.798458 0.750000
O O6 0.853170 0.703485 0.768287
O O7 0.903331 0.801791 0.773182
O O8 0.846438 0.767357 0.000000
O O9 0.859386 0.361906 0.500000
O O10 0.801971 0.392854 0.261688
O O11 0.500000 0.624378 0.750000
O O12 0.605770 0.605770 0.750000
O O13 0.565425 0.705080 0.787523
O O14 0.556211 0.633824 0.000000
O O15 0.093800 0.093800 0.250000
O O16 0.141641 0.058638 0.500000
O O17 0.147905 0.000000 0.250000
O O18 0.214834 0.500000 0.250000
O O19 0.221094 0.559172 0.000000
#
# Coordination Sequence:
#
# PCOD9562606 Si02
#       6
#    16  16  16  16  16  16
#     4  11  22  38  58  82 113 148 184 228 278 329
#     4   9  21  39  58  80 111 147 185 227 274 322
#     4  11  22  37  57  83 112 146 187 229 272 328
#     4  10  21  37  57  80 109 141 179 223 274 331
#     4  10  20  37  59  85 114 147 183 223 269 317
#     4  10  21  37  56  80 108 142 181 227 278 328
#
# _framework density 18.132124000000001
#
# number of rings (size 3 to 8) (size 9 to 14) (size 15 to 20)
#    0.000    1.833    0.000    4.500    0.000    5.667 
#    0.000    6.667    0.000    0.000    0.000    0.000 
#    0.000    0.000    0.000    0.000    0.000    0.000 
#
# Total GULP energy -536286.802466 kJ/mol
# GULP energy per Si atom -5586.320859 kJ/mol
# Density = 1.809085 g / cm^3
# Si number density = 18.132124 Si / 1000 Ang^3
#
#
#
# Elastic Constant Matrix: (Units=GPa)
#
#
# Indices 1 2 3 4 5 6 
#
# 1 154.9556 93.2960 66.9498 0.0000 0.0000 0.0000
# 2 93.2960 154.9556 66.9498 0.0000 0.0000 0.0000
# 3 66.9498 66.9498 81.1890 0.0000 0.0000 0.0000
# 4 0.0000 0.0000 0.0000 32.0215 0.0000 0.0000
# 5 0.0000 0.0000 0.0000 0.0000 32.0215 0.0000
# 6 0.0000 0.0000 0.0000 0.0000 0.0000 24.6175
#
#
#
# Elastic Compliance Matrix: (Units=1/GPa)
#
#
# Indices 1 2 3 4 5 6 
#
# 1 0.011737 -0.004482 -0.005983 0.000000 0.000000 0.000000
# 2 -0.004482 0.011737 -0.005983 0.000000 0.000000 0.000000
# 3 -0.005983 -0.005983 0.022184 0.000000 0.000000 0.000000
# 4 0.000000 0.000000 0.000000 0.031229 0.000000 0.000000
# 5 0.000000 0.000000 0.000000 0.000000 0.031229 0.000000
# 6 0.000000 0.000000 0.000000 0.000000 0.000000 0.040622
#
#
# Mechanical properties :
#
#
# Convention : Reuss Voigt Hill
#
# Bulk Modulus (GPa) = 78.34994 93.94351 86.14673
# Shear Modulus (GPa) = 26.89846 28.65906 27.77876
#
# Velocity S-wave (km/s) = 3.85576 3.97995 3.91835
# Velocity P-wave (km/s) = 7.94524 8.54652 8.25136
#
# Compressibility (1/GPa) = 0.01276325
#
# Stress axis : x y z
#
# Youngs Moduli (GPa) = 85.20392 85.20392 45.07825
#
# Poissons Ratio (x) = 0.38184 0.26969
# Poissons Ratio (y) = 0.38184 0.26969
# Poissons Ratio (z) = 0.50974 0.50974
#
# Static dielectric constant tensor:
#      x y z
#    x 1.604030 0.000000 0.000000 
#    y 0.000000 1.604030 0.000000 
#    z 0.000000 0.000000 1.607940 
# 
# From -- ./inp_files/1357.got.cif
#   From: 2010.05.17/outbox.cif.g08.bks.cpg/sg124_1_cif.got.tgz:1357.got - 2010.05.20 11:49:17.
