data_PCOD9562648
_publ_section_title
;
Structure prediction by ZEFSAII (Michael W. Deem and Ramdas Pophale) SiO2 
 PCOD9562648
Probable space group: P 4/M C C
;
_chemical_formula_sum "Si O2"
_cell_formula_units_Z 104
_cell_length_a 19.115833
_cell_length_b 19.115833
_cell_length_c 18.335072
_cell_angle_alpha 90.000000
_cell_angle_beta 90.000000
_cell_angle_gamma 90.000000
_cell_volume 6699.911642
_symmetry_space_group_name_H-M "P 4/M C C"
_symmetry_group_IT_number 124
_symmetry_cell_setting 'tetragonal'
loop_
_space_group_symop_operation_xyz
x,y,z
-y,x,z
-x,-y,z
y,-x,z
x,-y,1/2-z
-x,y,1/2-z
y,x,1/2-z
-y,-x,1/2-z
-x,-y,-z
y,-x,-z
x,y,-z
-y,x,-z
-x,y,1/2+z
x,-y,1/2+z
-y,-x,1/2+z
y,x,1/2+z
loop_
_atom_site_type_symbol
_atom_site_label
_atom_site_fract_x
_atom_site_fract_y
_atom_site_fract_z
Si Si1 0.144171 0.772994 0.809734
Si Si2 0.905199 0.353452 0.911058
Si Si3 0.975209 0.891544 0.901767
Si Si4 0.783610 0.872547 0.580472
Si Si5 0.927529 0.358831 0.412614
Si Si6 0.499355 0.915082 0.334351
Si Si7 0.834350 0.000000 0.250000
O O1 0.205312 0.794689 0.750000
O O2 0.134387 0.701003 0.856406
O O3 0.163399 0.828854 0.871890
O O4 0.068305 0.790143 0.774273
O O5 0.890782 0.432064 0.880780
O O6 0.989597 0.346017 0.899695
O O7 0.892234 0.346427 0.000000
O O8 0.949977 0.816305 0.926335
O O9 0.049977 0.919837 0.924157
O O10 0.976773 0.883222 0.815530
O O11 0.777654 0.841660 0.500000
O O12 0.707681 0.883458 0.613845
O O13 0.920086 0.364376 0.500000
O O14 0.899491 0.428150 0.374532
O O15 0.500000 0.891336 0.250000
O O16 0.500000 0.000000 0.333042
#
# Coordination Sequence:
#
# PCOD9562648 Si02
#       7
#    16  16  16  16  16  16   8
#     4  12  24  35  52  70  92 128 171 216 259 315
#     4  10  21  36  54  72  99 131 162 206 264 326
#     4  11  21  33  46  60  81 113 160 210 262 315
#     4  11  23  37  49  65  92 123 159 208 264 315
#     4   9  19  34  53  73  97 125 158 208 268 325
#     4   9  18  31  53  81 100 120 153 202 258 326
#     4  12  20  37  48  64  83 118 158 220 266 305
#
# _framework density 15.522592
#
# number of rings (size 3 to 8) (size 9 to 14) (size 15 to 20)
#    0.000    1.538    3.077    2.308    2.154    4.308 
#    0.000    0.769    0.000    0.000    0.000    0.000 
#    0.000    0.000    0.000    0.000    0.000    0.769 
#
# Total GULP energy -579078.616170 kJ/mol
# GULP energy per Si atom -5568.063617 kJ/mol
# Density = 1.548726 g / cm^3
# Si number density = 15.522592 Si / 1000 Ang^3
#
#
#
# Elastic Constant Matrix: (Units=GPa)
#
#
# Indices 1 2 3 4 5 6 
#
# 1 75.1471 31.6518 35.4024 0.0000 0.0000 0.0000
# 2 31.6518 75.1473 35.4019 0.0000 0.0000 0.0000
# 3 35.4024 35.4019 97.5759 0.0000 0.0000 0.0000
# 4 0.0000 0.0000 0.0000 36.5427 0.0000 0.0000
# 5 0.0000 0.0000 0.0000 0.0000 36.5430 0.0000
# 6 0.0000 0.0000 0.0000 0.0000 0.0000 7.7205
#
#
#
# Elastic Compliance Matrix: (Units=1/GPa)
#
#
# Indices 1 2 3 4 5 6 
#
# 1 0.017660 -0.005331 -0.004473 0.000000 0.000000 0.000000
# 2 -0.005331 0.017660 -0.004473 0.000000 0.000000 0.000000
# 3 -0.004473 -0.004473 0.013494 0.000000 0.000000 0.000000
# 4 0.000000 0.000000 0.000000 0.027365 0.000000 0.000000
# 5 0.000000 0.000000 0.000000 0.000000 0.027365 0.000000
# 6 0.000000 0.000000 0.000000 0.000000 0.000000 0.129526
#
#
# Mechanical properties :
#
#
# Convention : Reuss Voigt Hill
#
# Bulk Modulus (GPa) = 49.35932 50.30916 49.83424
# Shear Modulus (GPa) = 18.63044 25.85551 22.24297
#
# Velocity S-wave (km/s) = 3.46817 4.08569 3.78953
# Velocity P-wave (km/s) = 6.92134 7.39850 7.16390
#
# Compressibility (1/GPa) = 0.02025960
#
# Stress axis : x y z
#
# Youngs Moduli (GPa) = 56.62507 56.62556 74.10534
#
# Poissons Ratio (x) = 0.30187 0.33149
# Poissons Ratio (y) = 0.30187 0.33148
# Poissons Ratio (z) = 0.25330 0.25329
#
# Static dielectric constant tensor:
#      x y z
#    x 1.518970 0.000000 0.000000 
#    y 0.000000 1.518970 0.000000 
#    z 0.000000 0.000000 1.610400 
# 
# From -- ./inp_files/4353.got.cif
#   From: 2010.05.17/outbox.cif.g08.bks.cpg/sg124_3_cif.got.tgz:4353.got - 2010.05.20 11:49:17.
