data_PCOD9562250
_publ_section_title
;
Structure prediction by ZEFSAII (Michael W. Deem and Ramdas Pophale) SiO2 
 PCOD9562250
Probable space group: P 4/M M M
;
_chemical_formula_sum "Si O2"
_cell_formula_units_Z 56
_cell_length_a 18.570569
_cell_length_b 18.570569
_cell_length_c 8.222141
_cell_angle_alpha 90.000000
_cell_angle_beta 90.000000
_cell_angle_gamma 90.000000
_cell_volume 2835.537149
_symmetry_space_group_name_H-M "P 4/M M M"
_symmetry_group_IT_number 123
_symmetry_cell_setting 'tetragonal'
loop_
_space_group_symop_operation_xyz
x,y,z
-y,x,z
-x,-y,z
y,-x,z
x,-y,-z
-x,y,-z
y,x,-z
-y,-x,-z
-x,-y,-z
y,-x,-z
x,y,-z
-y,x,-z
-x,y,z
x,-y,z
-y,-x,z
y,x,z
loop_
_atom_site_type_symbol
_atom_site_label
_atom_site_fract_x
_atom_site_fract_y
_atom_site_fract_z
Si Si1 0.000000 0.581795 0.306241
Si Si2 0.197192 0.802809 0.304215
Si Si3 0.419479 0.697920 0.198698
Si Si4 0.918576 0.918576 0.301700
Si Si5 0.644252 0.847966 0.806120
O O1 0.073902 0.620847 0.256245
O O2 0.000000 0.500000 0.239600
O O3 0.000000 0.578372 0.500000
O O4 0.198220 0.801781 0.500000
O O5 0.138928 0.861073 0.246339
O O6 0.274954 0.826844 0.242493
O O7 0.500000 0.676097 0.247875
O O8 0.357384 0.642617 0.253360
O O9 0.403446 0.779865 0.251925
O O10 0.417374 0.697829 0.000000
O O11 0.918237 0.918237 0.500000
O O12 0.000000 0.901336 0.250469
O O13 0.638656 0.850241 0.000000
#
# Coordination Sequence:
#
# PCOD9562250 Si02
#       5
#     8   8  16   8  16
#     4  11  25  43  63  91 124 157 200 253 311 380
#     4  11  22  35  58  88 119 157 201 250 303 356
#     4   9  17  31  53  82 116 151 191 242 297 354
#     4   8  16  32  53  78 108 143 184 231 285 348
#     4  11  22  39  60  86 121 161 204 249 302 367
#
# _framework density 19.749345000000002
#
# number of rings (size 3 to 8) (size 9 to 14) (size 15 to 20)
#    0.000    2.000    1.429    3.000    2.000    2.571 
#    0.000    1.429    0.000    0.000    0.000    4.000 
#    0.000    1.143    0.000    0.000    0.000    0.000 
#
# Total GULP energy -312656.924502 kJ/mol
# GULP energy per Si atom -5583.159366 kJ/mol
# Density = 1.970439 g / cm^3
# Si number density = 19.749345 Si / 1000 Ang^3
#
#
#
# Elastic Constant Matrix: (Units=GPa)
#
#
# Indices 1 2 3 4 5 6 
#
# 1 151.1703 100.1030 16.9168 0.0000 0.0000 0.0000
# 2 100.1030 151.1701 16.9166 0.0000 0.0000 0.0000
# 3 16.9168 16.9166 26.1776 0.0000 0.0000 0.0000
# 4 0.0000 0.0000 0.0000 6.9452 0.0000 0.0000
# 5 0.0000 0.0000 0.0000 0.0000 6.9449 0.0000
# 6 0.0000 0.0000 0.0000 0.0000 0.0000 25.2673
#
#
#
# Elastic Compliance Matrix: (Units=1/GPa)
#
#
# Indices 1 2 3 4 5 6 
#
# 1 0.011971 -0.007612 -0.002817 0.000000 0.000000 0.000000
# 2 -0.007612 0.011971 -0.002817 0.000000 0.000000 0.000000
# 3 -0.002817 -0.002817 0.041841 0.000000 0.000000 0.000000
# 4 0.000000 0.000000 0.000000 0.143984 0.000000 0.000000
# 5 0.000000 0.000000 0.000000 0.000000 0.143991 0.000000
# 6 0.000000 0.000000 0.000000 0.000000 0.000000 0.039577
#
#
# Mechanical properties :
#
#
# Convention : Reuss Voigt Hill
#
# Bulk Modulus (GPa) = 25.45064 66.26565 45.85815
# Shear Modulus (GPa) = 11.54941 20.80357 16.17649
#
# Velocity S-wave (km/s) = 2.42089 3.24910 2.86508
# Velocity P-wave (km/s) = 4.55292 6.90664 5.84939
#
# Compressibility (1/GPa) = 0.03929174
#
# Stress axis : x y z
#
# Youngs Moduli (GPa) = 83.53838 83.53844 23.89977
#
# Poissons Ratio (x) = 0.63585 0.06733
# Poissons Ratio (y) = 0.63585 0.06732
# Poissons Ratio (z) = 0.23533 0.23532
#
# Static dielectric constant tensor:
#      x y z
#    x 1.666610 0.000000 0.000000 
#    y 0.000000 1.666610 0.000000 
#    z 0.000000 0.000000 1.687320 
# 
# From -- ./inp_files/632.got.cif
#   From: 2010.05.17/outbox.cif.g08.bks.cpg/sg123_1_cif.got.tgz:632.got - 2010.05.20 11:43:04.
