data_PCOD9562114
_publ_section_title
;
Structure prediction by ZEFSAII (Michael W. Deem and Ramdas Pophale) SiO2 
 PCOD9562114
Probable space group: P 4/M M M
;
_chemical_formula_sum "Si O2"
_cell_formula_units_Z 120
_cell_length_a 28.703496
_cell_length_b 28.703496
_cell_length_c 7.798734
_cell_angle_alpha 90.000000
_cell_angle_beta 90.000000
_cell_angle_gamma 90.000000
_cell_volume 6425.304279
_symmetry_space_group_name_H-M "P 4/M M M"
_symmetry_group_IT_number 123
_symmetry_cell_setting 'tetragonal'
loop_
_space_group_symop_operation_xyz
x,y,z
-y,x,z
-x,-y,z
y,-x,z
x,-y,-z
-x,y,-z
y,x,-z
-y,-x,-z
-x,-y,-z
y,-x,-z
x,y,-z
-y,x,-z
-x,y,z
x,-y,z
-y,-x,z
y,x,z
loop_
_atom_site_type_symbol
_atom_site_label
_atom_site_fract_x
_atom_site_fract_y
_atom_site_fract_z
Si Si1 0.444568 0.634441 0.000000
Si Si2 0.607140 0.315546 0.306131
Si Si3 0.132962 0.553536 0.708543
Si Si4 0.127338 0.797341 0.292727
Si Si5 0.128119 0.052861 0.709519
Si Si6 0.690671 0.129632 0.200819
Si Si7 0.052442 0.621257 0.702765
Si Si8 0.625000 0.210808 0.799276
O O1 0.428564 0.664748 0.165169
O O2 0.500000 0.625826 0.000000
O O3 0.412677 0.587324 0.000000
O O4 0.590337 0.324001 0.500000
O O5 0.654379 0.345622 0.281828
O O6 0.618075 0.260949 0.284620
O O7 0.134399 0.556419 0.500000
O O8 0.131548 0.500000 0.758248
O O9 0.086940 0.581048 0.770223
O O10 0.178571 0.579522 0.777013
O O11 0.127068 0.795778 0.500000
O O12 0.171317 0.828684 0.239515
O O13 0.081418 0.825910 0.238450
O O14 0.130153 0.745427 0.226523
O O15 0.127889 0.052235 0.500000
O O16 0.083660 0.083660 0.762240
O O17 0.127011 0.000000 0.769936
O O18 0.667935 0.082915 0.276308
O O19 0.665752 0.176510 0.270722
O O20 0.679332 0.128640 0.000000
O O21 0.048070 0.612804 0.500000
O O22 0.000000 0.623215 0.774423
O O23 0.633830 0.219748 0.000000
#
# Coordination Sequence:
#
# PCOD9562114 Si02
#       8
#     8  16  16  16  16  16  16  16
#     4  10  22  41  64  92 126 160 197 241 283 329
#     4  10  21  38  61  88 119 156 196 238 285 337
#     4   9  18  32  50  74 103 133 170 218 267 319
#     4   9  18  32  48  68  97 130 164 203 248 304
#     4   8  14  25  42  65  92 121 154 196 248 307
#     4  10  21  34  50  73 101 134 173 220 268 318
#     4   9  18  33  52  72  96 130 171 214 263 318
#     4  10  20  35  53  75 108 145 180 224 277 330
#
# _framework density 18.676158999999998
#
# number of rings (size 3 to 8) (size 9 to 14) (size 15 to 20)
#    0.000    2.667    0.667    1.600    0.000    4.733 
#    0.000    6.000    0.000    0.000    0.000    5.600 
#    0.000    0.000    0.000    2.933    0.000    2.933 
#
# Total GULP energy -669157.990456 kJ/mol
# GULP energy per Si atom -5576.316587 kJ/mol
# Density = 1.863365 g / cm^3
# Si number density = 18.676159 Si / 1000 Ang^3
#
#
#
# Elastic Constant Matrix: (Units=GPa)
#
#
# Indices 1 2 3 4 5 6 
#
# 1 150.4405 59.7659 21.7631 0.0000 0.0000 0.0000
# 2 59.7659 150.4401 21.7630 0.0000 0.0000 0.0000
# 3 21.7631 21.7630 52.4475 0.0000 0.0000 0.0000
# 4 0.0000 0.0000 0.0000 6.0604 0.0000 0.0000
# 5 0.0000 0.0000 0.0000 0.0000 6.0602 0.0000
# 6 0.0000 0.0000 0.0000 0.0000 0.0000 4.9679
#
#
#
# Elastic Compliance Matrix: (Units=1/GPa)
#
#
# Indices 1 2 3 4 5 6 
#
# 1 0.008116 -0.002912 -0.002160 0.000000 0.000000 0.000000
# 2 -0.002912 0.008116 -0.002160 0.000000 0.000000 0.000000
# 3 -0.002160 -0.002160 0.020859 0.000000 0.000000 0.000000
# 4 0.000000 0.000000 0.000000 0.165006 0.000000 0.000000
# 5 0.000000 0.000000 0.000000 0.000000 0.165010 0.000000
# 6 0.000000 0.000000 0.000000 0.000000 0.000000 0.201291
#
#
# Mechanical properties :
#
#
# Convention : Reuss Voigt Hill
#
# Bulk Modulus (GPa) = 44.19018 62.21246 53.20132
# Shear Modulus (GPa) = 8.46876 20.08678 14.27777
#
# Velocity S-wave (km/s) = 2.13175 3.28309 2.76794
# Velocity P-wave (km/s) = 5.45636 6.91050 6.22603
#
# Compressibility (1/GPa) = 0.02262946
#
# Stress axis : x y z
#
# Youngs Moduli (GPa) = 123.20694 123.20662 47.94113
#
# Poissons Ratio (x) = 0.35878 0.10353
# Poissons Ratio (y) = 0.35878 0.10353
# Poissons Ratio (z) = 0.26607 0.26607
#
# Static dielectric constant tensor:
#      x y z
#    x 1.624170 0.000000 0.000000 
#    y 0.000000 1.624170 0.000000 
#    z 0.000000 0.000000 1.694400 
# 
# From -- ./inp_files/2067.got.cif
#   From: 2010.05.17/outbox.cif.g08.bks.cpg/sg123_2_cif.got.tgz:2067.got - 2010.05.20 11:43:04.
