data_PCOD9562863
_publ_section_title
;
Structure prediction by ZEFSAII (Michael W. Deem and Ramdas Pophale) SiO2 
 PCOD9562863
Probable space group: P 4/M C C
;
_chemical_formula_sum "Si O2"
_cell_formula_units_Z 116
_cell_length_a 18.000000
_cell_length_b 18.000000
_cell_length_c 18.000000
_cell_angle_alpha 90.000000
_cell_angle_beta 90.000000
_cell_angle_gamma 90.000000
_cell_volume 5832.000000
_symmetry_space_group_name_H-M "P 4/M C C"
_symmetry_group_IT_number 124
_symmetry_cell_setting 'tetragonal'
loop_
_space_group_symop_operation_xyz
x,y,z
-y,x,z
-x,-y,z
y,-x,z
x,-y,1/2-z
-x,y,1/2-z
y,x,1/2-z
-y,-x,1/2-z
-x,-y,-z
y,-x,-z
x,y,-z
-y,x,-z
-x,y,1/2+z
x,-y,1/2+z
-y,-x,1/2+z
y,x,1/2+z
loop_
_atom_site_type_symbol
_atom_site_label
_atom_site_fract_x
_atom_site_fract_y
_atom_site_fract_z
Si Si1 0.380527 0.868869 0.412673
Si Si2 0.196990 0.755099 0.827851
Si Si3 0.000000 0.000000 0.376878
Si Si4 0.512598 0.381638 0.338666
Si Si5 0.233035 0.487972 0.088187
Si Si6 0.160955 0.040646 0.170849
Si Si7 0.696435 0.979447 0.588113
Si Si8 0.332442 0.817447 0.911232
O O1 0.361582 0.852118 0.500000
O O2 0.325241 0.827967 0.356177
O O3 0.463828 0.841077 0.401023
O O4 0.362890 0.955200 0.401659
O O5 0.239613 0.760388 0.750000
O O6 0.123913 0.806928 0.821431
O O7 0.254031 0.785111 0.888450
O O8 0.082876 0.960671 0.371523
O O9 0.578528 0.436308 0.363132
O O10 0.500000 0.378612 0.250000
O O11 0.525460 0.301452 0.371325
O O12 0.225415 0.404336 0.117245
O O13 0.247967 0.486670 0.000000
O O14 0.226819 0.998278 0.128543
O O15 0.147694 0.000000 0.250000
O O16 0.711556 0.974259 0.500000
O O17 0.665759 0.901804 0.616285
O O18 0.339078 0.818490 0.000000
#
# Coordination Sequence:
#
# PCOD9562863 Si02
#       8
#    16  16   4  16  16  16  16  16
#     4   9  20  38  57  80 111 146 185 232 283 334
#     4  11  22  36  57  83 111 150 190 232 285 338
#     4  12  21  32  53  78 109 148 185 234 285 332
#     4   9  20  39  60  82 113 150 183 220 271 332
#     4  10  22  37  57  86 115 144 184 232 277 329
#     4  11  21  35  55  80 111 146 191 238 281 334
#     4   9  19  37  58  77 106 147 186 230 284 336
#     4  10  21  37  57  83 113 146 188 235 282 338
#
# _framework density 19.890260999999999
#
# number of rings (size 3 to 8) (size 9 to 14) (size 15 to 20)
#    0.000    2.069    0.000    3.931    1.931    2.759 
#    0.000    4.483    0.000    0.000    0.000    3.862 
#    0.000    0.000    0.000    0.000    0.000    0.000 
#
# Total GULP energy -645946.022263 kJ/mol
# GULP energy per Si atom -5568.500192 kJ/mol
# Density = 1.984499 g / cm^3
# Si number density = 19.890261 Si / 1000 Ang^3
#
#
#
# Elastic Constant Matrix: (Units=GPa)
#
#
# Indices 1 2 3 4 5 6 
#
# 1 22.6119 12.6250 -10.0674 0.0000 0.0000 0.0000
# 2 12.6250 22.6092 -10.0687 0.0000 0.0000 0.0000
# 3 -10.0674 -10.0687 -16.3775 0.0000 0.0000 0.0000
# 4 0.0000 0.0000 0.0000 -51.9011 0.0000 0.0000
# 5 0.0000 0.0000 0.0000 0.0000 -51.8883 0.0000
# 6 0.0000 0.0000 0.0000 0.0000 0.0000 10.7612
#
#
#
# Elastic Compliance Matrix: (Units=1/GPa)
#
#
# Indices 1 2 3 4 5 6 
#
# 1 0.060572 -0.039571 -0.012906 0.000000 0.000000 0.000000
# 2 -0.039571 0.060575 -0.012916 0.000000 0.000000 0.000000
# 3 -0.012906 -0.012916 -0.045185 0.000000 0.000000 0.000000
# 4 0.000000 0.000000 0.000000 -0.019267 0.000000 0.000000
# 5 0.000000 0.000000 0.000000 0.000000 -0.019272 0.000000
# 6 0.000000 0.000000 0.000000 0.000000 0.000000 0.092927
#
#
# Mechanical properties :
#
#
# Convention : Reuss Voigt Hill
#
# Bulk Modulus (GPa) = -18.23972 1.53571 -8.35200
# Shear Modulus (GPa) = 20.58793 -16.18200 2.20297
#
# Velocity S-wave (km/s) = 3.22075 -2.85540 1.05355
# Velocity P-wave (km/s) = 2.15427 3.17762 1.65173
#
# Compressibility (1/GPa) = -0.05482540
#
# Stress axis : x y z
#
# Youngs Moduli (GPa) = 16.50922 16.50855 -22.13108
#
# Poissons Ratio (x) = 0.65327 -0.28563
# Poissons Ratio (y) = 0.65329 -0.28584
# Poissons Ratio (z) = 0.21308 0.21322
#
# Static dielectric constant tensor:
#      x y z
#    x 1.703590 0.000000 0.000000 
#    y 0.000000 1.703590 0.000000 
#    z 0.000000 0.000000 1.716470 
# 
# From -- ./inp_files/4414.got.cif
#   From: 2010.05.17/outbox.ucp.g08.bks.cvg/sg124_3_cif.got.tgz:4414.got - 2010.06.11 11:36:13.
