data_PCOD9562686
_publ_section_title
;
Structure prediction by ZEFSAII (Michael W. Deem and Ramdas Pophale) SiO2 
 PCOD9562686
Probable space group: P 4/M C C
;
_chemical_formula_sum "Si O2"
_cell_formula_units_Z 76
_cell_length_a 13.472326
_cell_length_b 13.472326
_cell_length_c 25.550364
_cell_angle_alpha 90.000000
_cell_angle_beta 90.000000
_cell_angle_gamma 90.000000
_cell_volume 4637.482226
_symmetry_space_group_name_H-M "P 4/M C C"
_symmetry_group_IT_number 124
_symmetry_cell_setting 'tetragonal'
loop_
_space_group_symop_operation_xyz
x,y,z
-y,x,z
-x,-y,z
y,-x,z
x,-y,1/2-z
-x,y,1/2-z
y,x,1/2-z
-y,-x,1/2-z
-x,-y,-z
y,-x,-z
x,y,-z
-y,x,-z
-x,y,1/2+z
x,-y,1/2+z
-y,-x,1/2+z
y,x,1/2+z
loop_
_atom_site_type_symbol
_atom_site_label
_atom_site_fract_x
_atom_site_fract_y
_atom_site_fract_z
Si Si1 0.194554 0.246482 0.097301
Si Si2 0.444636 0.899725 0.061509
Si Si3 0.500000 0.500000 0.907966
Si Si4 0.114886 0.121172 0.000000
Si Si5 0.584497 0.292266 0.438297
Si Si6 0.884421 0.881871 0.811788
O O1 0.127899 0.345429 0.092551
O O2 0.307837 0.276268 0.086410
O O3 0.178080 0.189606 0.151437
O O4 0.160890 0.172542 0.050971
O O5 0.521319 0.808617 0.064656
O O6 0.500000 0.000000 0.078183
O O7 0.416360 0.911111 0.000000
O O8 0.476518 0.380349 0.912073
O O9 0.996209 0.135282 0.000000
O O10 0.597096 0.318928 0.500000
O O11 0.866860 0.866860 0.750000
O O12 0.001667 0.864967 0.822684
#
# Coordination Sequence:
#
# PCOD9562686 Si02
#       6
#    16  16   4   8  16  16
#     4  12  21  34  57  83 111 151 189 233 290 339
#     4  10  22  34  48  76 119 153 181 222 284 348
#     4  12  21  36  56  76 113 154 209 240 260 337
#     4  11  24  34  47  80 121 153 180 221 279 355
#     4  11  21  34  52  79 112 153 191 231 272 326
#     4   9  20  39  61  84 110 147 193 237 282 342
#
# _framework density 16.388203000000001
#
# number of rings (size 3 to 8) (size 9 to 14) (size 15 to 20)
#    0.000    1.368    4.211    2.842    5.895    1.684 
#    0.000    0.000    0.000    1.263    0.000    0.737 
#    0.000    0.000    0.000    0.000    0.000    0.000 
#
# Total GULP energy -423466.469667 kJ/mol
# GULP energy per Si atom -5571.927232 kJ/mol
# Density = 1.635090 g / cm^3
# Si number density = 16.388203 Si / 1000 Ang^3
#
#
#
# Elastic Constant Matrix: (Units=GPa)
#
#
# Indices 1 2 3 4 5 6 
#
# 1 70.7014 11.9206 15.4912 0.0000 0.0000 0.0000
# 2 11.9206 70.7014 15.4912 0.0000 0.0000 0.0000
# 3 15.4912 15.4912 29.0822 0.0000 0.0000 0.0000
# 4 0.0000 0.0000 0.0000 -30.8881 0.0000 0.0000
# 5 0.0000 0.0000 0.0000 0.0000 -30.8881 0.0000
# 6 0.0000 0.0000 0.0000 0.0000 0.0000 34.0125
#
#
#
# Elastic Compliance Matrix: (Units=1/GPa)
#
#
# Indices 1 2 3 4 5 6 
#
# 1 0.016068 -0.000944 -0.008056 0.000000 0.000000 0.000000
# 2 -0.000944 0.016068 -0.008056 0.000000 0.000000 0.000000
# 3 -0.008056 -0.008056 0.042968 0.000000 0.000000 0.000000
# 4 0.000000 0.000000 0.000000 -0.032375 0.000000 0.000000
# 5 0.000000 0.000000 0.000000 0.000000 -0.032375 0.000000
# 6 0.000000 0.000000 0.000000 0.000000 0.000000 0.029401
#
#
# Mechanical properties :
#
#
# Convention : Reuss Voigt Hill
#
# Bulk Modulus (GPa) = 24.39529 28.47677 26.43603
# Shear Modulus (GPa) = 57.12152 2.95271 30.03712
#
# Velocity S-wave (km/s) = 5.91024 1.34374 4.28582
# Velocity P-wave (km/s) = 7.84173 4.45215 6.37630
#
# Compressibility (1/GPa) = 0.04099152
#
# Stress axis : x y z
#
# Youngs Moduli (GPa) = 62.23416 62.23416 23.27319
#
# Poissons Ratio (x) = 0.05875 0.18749
# Poissons Ratio (y) = 0.05875 0.18749
# Poissons Ratio (z) = 0.50137 0.50137
#
# Static dielectric constant tensor:
#      x y z
#    x 1.549950 0.000000 0.000000 
#    y 0.000000 1.549950 0.000000 
#    z 0.000000 0.000000 1.533790 
# 
# From -- ./inp_files/7027.got.cif
#   From: 2010.05.17/outbox.cif.g08.bks.cpg/sg124_4_cif.got.tgz:7027.got - 2010.05.20 11:49:17.
