data_PCOD9562484
_publ_section_title
;
Structure prediction by ZEFSAII (Michael W. Deem and Ramdas Pophale) SiO2 
 PCOD9562484
Probable space group: P 4/M C C
;
_chemical_formula_sum "Si O2"
_cell_formula_units_Z 80
_cell_length_a 13.977589
_cell_length_b 13.977589
_cell_length_c 22.520317
_cell_angle_alpha 90.000000
_cell_angle_beta 90.000000
_cell_angle_gamma 90.000000
_cell_volume 4399.861764
_symmetry_space_group_name_H-M "P 4/M C C"
_symmetry_group_IT_number 124
_symmetry_cell_setting 'tetragonal'
loop_
_space_group_symop_operation_xyz
x,y,z
-y,x,z
-x,-y,z
y,-x,z
x,-y,1/2-z
-x,y,1/2-z
y,x,1/2-z
-y,-x,1/2-z
-x,-y,-z
y,-x,-z
x,y,-z
-y,x,-z
-x,y,1/2+z
x,-y,1/2+z
-y,-x,1/2+z
y,x,1/2+z
loop_
_atom_site_type_symbol
_atom_site_label
_atom_site_fract_x
_atom_site_fract_y
_atom_site_fract_z
Si Si1 0.609260 0.884854 0.631440
Si Si2 0.381475 0.102229 0.873855
Si Si3 0.252979 0.262532 0.929317
Si Si4 0.106171 0.732700 0.751019
Si Si5 0.119816 0.090899 0.427850
O O1 0.494696 0.887287 0.634856
O O2 0.638818 0.784895 0.599114
O O3 0.660680 0.884477 0.695385
O O4 0.635258 0.991435 0.603455
O O5 0.339848 0.192072 0.911429
O O6 0.328573 0.111269 0.811015
O O7 0.161315 0.200346 0.908667
O O8 0.255181 0.273330 0.000000
O O9 0.187852 0.812149 0.750000
O O10 0.000000 0.777183 0.750000
O O11 0.119188 0.090007 0.500000
O O12 0.017287 0.129036 0.407759
#
# Coordination Sequence:
#
# PCOD9562484 Si02
#       5
#    16  16  16  16  16
#     4  10  21  37  58  84 113 147 189 236 284 337
#     4  10  21  37  58  84 113 147 189 236 284 337
#     4  11  21  33  52  78 110 150 191 230 276 330
#     4  10  19  36  61  88 116 146 181 226 284 346
#     4   8  14  25  41  63  95 135 174 209 249 307
#
# _framework density 18.182389000000001
#
# number of rings (size 3 to 8) (size 9 to 14) (size 15 to 20)
#    0.000    2.200    2.000    2.400    0.000    5.800 
#    0.000    2.000    0.000    0.600    0.000    2.800 
#    0.000    0.000    0.000    0.000    0.000    0.000 
#
# Total GULP energy -445423.326888 kJ/mol
# GULP energy per Si atom -5567.791586 kJ/mol
# Density = 1.814100 g / cm^3
# Si number density = 18.182389 Si / 1000 Ang^3
#
#
#
# Elastic Constant Matrix: (Units=GPa)
#
#
# Indices 1 2 3 4 5 6 
#
# 1 77.0435 39.8634 18.9693 0.0000 0.0000 0.0000
# 2 39.8634 77.0450 18.9708 0.0000 0.0000 0.0000
# 3 18.9693 18.9708 63.2993 0.0000 0.0000 0.0000
# 4 0.0000 0.0000 0.0000 13.7037 0.0000 0.0000
# 5 0.0000 0.0000 0.0000 0.0000 13.7038 0.0000
# 6 0.0000 0.0000 0.0000 0.0000 0.0000 32.5941
#
#
#
# Elastic Compliance Matrix: (Units=1/GPa)
#
#
# Indices 1 2 3 4 5 6 
#
# 1 0.018186 -0.008710 -0.002839 0.000000 0.000000 0.000000
# 2 -0.008710 0.018185 -0.002840 0.000000 0.000000 0.000000
# 3 -0.002839 -0.002840 0.017500 0.000000 0.000000 0.000000
# 4 0.000000 0.000000 0.000000 0.072973 0.000000 0.000000
# 5 0.000000 0.000000 0.000000 0.000000 0.072973 0.000000
# 6 0.000000 0.000000 0.000000 0.000000 0.000000 0.030680
#
#
# Mechanical properties :
#
#
# Convention : Reuss Voigt Hill
#
# Bulk Modulus (GPa) = 39.85325 41.44385 40.64855
# Shear Modulus (GPa) = 18.68183 21.30594 19.99389
#
# Velocity S-wave (km/s) = 3.20889 3.42686 3.31966
# Velocity P-wave (km/s) = 5.97457 6.20489 6.09082
#
# Compressibility (1/GPa) = 0.02509206
#
# Stress axis : x y z
#
# Youngs Moduli (GPa) = 54.98882 54.98925 57.14292
#
# Poissons Ratio (x) = 0.47896 0.16225
# Poissons Ratio (y) = 0.47896 0.16228
# Poissons Ratio (z) = 0.15613 0.15617
#
# Static dielectric constant tensor:
#      x y z
#    x 1.660630 0.000000 0.000000 
#    y 0.000000 1.660630 0.000000 
#    z 0.000000 0.000000 1.638550 
# 
# From -- ./inp_files/5078.got.cif
#   From: 2010.05.17/outbox.cif.g08.bks.cpg/sg124_3_cif.got.tgz:5078.got - 2010.05.20 11:49:17.
