data_PCOD9562810
_publ_section_title
;
Structure prediction by ZEFSAII (Michael W. Deem and Ramdas Pophale) SiO2 
 PCOD9562810
Probable space group: P 4/M C C
;
_chemical_formula_sum "Si O2"
_cell_formula_units_Z 40
_cell_length_a 9.138634
_cell_length_b 9.138634
_cell_length_c 24.005778
_cell_angle_alpha 90.000000
_cell_angle_beta 90.000000
_cell_angle_gamma 90.000000
_cell_volume 2004.833701
_symmetry_space_group_name_H-M "P 4/M C C"
_symmetry_group_IT_number 124
_symmetry_cell_setting 'tetragonal'
loop_
_space_group_symop_operation_xyz
x,y,z
-y,x,z
-x,-y,z
y,-x,z
x,-y,1/2-z
-x,y,1/2-z
y,x,1/2-z
-y,-x,1/2-z
-x,-y,-z
y,-x,-z
x,y,-z
-y,x,-z
-x,y,1/2+z
x,-y,1/2+z
-y,-x,1/2+z
y,x,1/2+z
loop_
_atom_site_type_symbol
_atom_site_label
_atom_site_fract_x
_atom_site_fract_y
_atom_site_fract_z
Si Si1 0.389355 0.275755 0.599703
Si Si2 0.220915 0.881914 0.000000
Si Si3 0.158527 0.638020 0.277036
O O1 0.563948 0.310704 0.596099
O O2 0.316265 0.175303 0.552329
O O3 0.365583 0.190001 0.657785
O O4 0.057693 0.807917 0.000000
O O5 0.241994 0.500000 0.250000
O O6 0.218799 0.781202 0.250000
O O7 0.000000 0.632042 0.250000
#
# Coordination Sequence:
#
# PCOD9562810 Si02
#       3
#    16   8  16
#     4  11  24  44  72 102 136 178 232 287 336 402
#     4  11  28  47  68 100 140 183 226 283 348 412
#     4  11  24  41  66 102 139 179 221 274 341 404
#
# _framework density 19.951779999999999
#
# number of rings (size 3 to 8) (size 9 to 14) (size 15 to 20)
#    0.000    1.000    4.000    1.200    5.600    5.600 
#    0.000    0.000    0.000    0.000    0.000    0.000 
#    0.000    0.000    0.000    0.000    0.000    0.000 
#
# Total GULP energy -222748.637259 kJ/mol
# GULP energy per Si atom -5568.715931 kJ/mol
# Density = 1.990637 g / cm^3
# Si number density = 19.951780 Si / 1000 Ang^3
#
#
#
# Elastic Constant Matrix: (Units=GPa)
#
#
# Indices 1 2 3 4 5 6 
#
# 1 98.2856 55.5215 66.4998 0.0000 0.0000 0.0000
# 2 55.5215 98.2841 66.4980 0.0000 0.0000 0.0000
# 3 66.4998 66.4980 229.1626 0.0000 0.0000 0.0000
# 4 0.0000 0.0000 0.0000 65.5952 0.0000 0.0000
# 5 0.0000 0.0000 0.0000 0.0000 65.5991 0.0000
# 6 0.0000 0.0000 0.0000 0.0000 0.0000 35.3186
#
#
#
# Elastic Compliance Matrix: (Units=1/GPa)
#
#
# Indices 1 2 3 4 5 6 
#
# 1 0.016032 -0.007352 -0.002519 0.000000 0.000000 0.000000
# 2 -0.007352 0.016032 -0.002519 0.000000 0.000000 0.000000
# 3 -0.002519 -0.002519 0.005825 0.000000 0.000000 0.000000
# 4 0.000000 0.000000 0.000000 0.015245 0.000000 0.000000
# 5 0.000000 0.000000 0.000000 0.000000 0.015244 0.000000
# 6 0.000000 0.000000 0.000000 0.000000 0.000000 0.028314
#
#
# Mechanical properties :
#
#
# Convention : Reuss Voigt Hill
#
# Bulk Modulus (GPa) = 76.27772 89.19678 82.73725
# Shear Modulus (GPa) = 39.73236 49.11676 44.42456
#
# Velocity S-wave (km/s) = 4.46737 4.96701 4.72380
# Velocity P-wave (km/s) = 8.05754 8.81465 8.44459
#
# Compressibility (1/GPa) = 0.01310999
#
# Stress axis : x y z
#
# Youngs Moduli (GPa) = 62.37522 62.37485 171.66028
#
# Poissons Ratio (x) = 0.45861 0.43237
# Poissons Ratio (y) = 0.45861 0.43234
# Poissons Ratio (z) = 0.15711 0.15710
#
# Static dielectric constant tensor:
#      x y z
#    x 1.663520 0.000000 0.000000 
#    y 0.000000 1.663520 0.000000 
#    z 0.000000 0.000000 1.662800 
# 
# From -- ./inp_files/5693.got.cif
#   From: 2010.05.17/outbox.cif.g08.bks.cpg/sg124_3_cif.got.tgz:5693.got - 2010.05.20 11:49:17.
