data_PCOD9562262
_publ_section_title
;
Structure prediction by ZEFSAII (Michael W. Deem and Ramdas Pophale) SiO2 
 PCOD9562262
Probable space group: P 4/M M M
;
_chemical_formula_sum "Si O2"
_cell_formula_units_Z 96
_cell_length_a 25.069960
_cell_length_b 25.069960
_cell_length_c 7.431959
_cell_angle_alpha 90.000000
_cell_angle_beta 90.000000
_cell_angle_gamma 90.000000
_cell_volume 4671.007743
_symmetry_space_group_name_H-M "P 4/M M M"
_symmetry_group_IT_number 123
_symmetry_cell_setting 'tetragonal'
loop_
_space_group_symop_operation_xyz
x,y,z
-y,x,z
-x,-y,z
y,-x,z
x,-y,-z
-x,y,-z
y,x,-z
-y,-x,-z
-x,-y,-z
y,-x,-z
x,y,-z
-y,x,-z
-x,y,z
x,-y,z
-y,-x,z
y,x,z
loop_
_atom_site_type_symbol
_atom_site_label
_atom_site_fract_x
_atom_site_fract_y
_atom_site_fract_z
Si Si1 0.938551 0.440937 0.281143
Si Si2 0.355302 0.559701 0.217173
Si Si3 0.147854 0.766461 0.715144
Si Si4 0.146578 0.060702 0.215727
Si Si5 0.440410 0.231597 0.287924
Si Si6 0.146996 0.355281 0.279624
O O1 0.937606 0.441010 0.500000
O O2 0.918562 0.500000 0.225874
O O3 0.903435 0.391072 0.223242
O O4 0.000000 0.436254 0.225762
O O5 0.369315 0.500000 0.278896
O O6 0.395852 0.604149 0.283925
O O7 0.294244 0.569995 0.267706
O O8 0.357565 0.559588 0.000000
O O9 0.154355 0.763479 0.500000
O O10 0.196235 0.803766 0.784779
O O11 0.093517 0.799298 0.747995
O O12 0.147181 0.705812 0.782983
O O13 0.097789 0.097789 0.283400
O O14 0.146753 0.000000 0.283749
O O15 0.141153 0.058069 0.000000
O O16 0.443648 0.219163 0.500000
O O17 0.500000 0.220783 0.212810
O O18 0.391091 0.197145 0.219231
O O19 0.146845 0.353195 0.500000
#
# Coordination Sequence:
#
# PCOD9562262 Si02
#       6
#    16  16  16  16  16  16
#     4   8  13  21  34  55  84 113 140 176 220 259
#     4   9  18  32  48  66  89 116 147 185 229 277
#     4   9  18  31  45  64  92 123 153 185 220 258
#     4   9  18  33  52  72  94 120 149 183 224 268
#     4   9  17  29  46  68  93 120 150 187 230 271
#     4   9  16  26  42  63  87 118 154 185 216 262
#
# _framework density 20.552309999999999
#
# number of rings (size 3 to 8) (size 9 to 14) (size 15 to 20)
#    0.000    3.167    0.000    1.000    0.000    4.333 
#    0.000    5.833    0.000    2.000    0.000    4.667 
#    0.000    0.000    0.000   11.500    0.000   10.333 
#
# Total GULP energy -535415.387390 kJ/mol
# GULP energy per Si atom -5577.243619 kJ/mol
# Density = 2.050553 g / cm^3
# Si number density = 20.552310 Si / 1000 Ang^3
#
#
#
# Elastic Constant Matrix: (Units=GPa)
#
#
# Indices 1 2 3 4 5 6 
#
# 1 192.1185 131.7662 2.1470 0.0000 0.0000 0.0000
# 2 131.7662 192.1185 2.1470 0.0000 0.0000 0.0000
# 3 2.1470 2.1470 64.3353 0.0000 0.0000 0.0000
# 4 0.0000 0.0000 0.0000 16.5614 0.0000 0.0000
# 5 0.0000 0.0000 0.0000 0.0000 16.5614 0.0000
# 6 0.0000 0.0000 0.0000 0.0000 0.0000 21.9989
#
#
#
# Elastic Compliance Matrix: (Units=1/GPa)
#
#
# Indices 1 2 3 4 5 6 
#
# 1 0.009829 -0.006740 -0.000103 0.000000 0.000000 0.000000
# 2 -0.006740 0.009829 -0.000103 0.000000 0.000000 0.000000
# 3 -0.000103 -0.000103 0.015550 0.000000 0.000000 0.000000
# 4 0.000000 0.000000 0.000000 0.060381 0.000000 0.000000
# 5 0.000000 0.000000 0.000000 0.000000 0.060381 0.000000
# 6 0.000000 0.000000 0.000000 0.000000 0.000000 0.045457
#
#
# Mechanical properties :
#
#
# Convention : Reuss Voigt Hill
#
# Bulk Modulus (GPa) = 46.91338 80.07698 63.49518
# Shear Modulus (GPa) = 22.47938 31.85850 27.16894
#
# Velocity S-wave (km/s) = 3.31080 3.94142 3.63980
# Velocity P-wave (km/s) = 6.12299 7.73047 6.97321
#
# Compressibility (1/GPa) = 0.02131588
#
# Stress axis : x y z
#
# Youngs Moduli (GPa) = 101.73833 101.73833 64.30683
#
# Poissons Ratio (x) = 0.68574 0.00663
# Poissons Ratio (y) = 0.68574 0.00663
# Poissons Ratio (z) = 0.01049 0.01049
#
# Static dielectric constant tensor:
#      x y z
#    x 1.712050 0.000000 0.000000 
#    y 0.000000 1.712050 0.000000 
#    z 0.000000 0.000000 1.802680 
# 
# From -- ./inp_files/1619.got.cif
#   From: 2010.05.17/outbox.cif.g08.bks.cpg/sg123_1_cif.got.tgz:1619.got - 2010.05.20 11:43:04.
