data_PCOD9562624
_publ_section_title
;
Structure prediction by ZEFSAII (Michael W. Deem and Ramdas Pophale) SiO2 
 PCOD9562624
Probable space group: P 4/M C C
;
_chemical_formula_sum "Si O2"
_cell_formula_units_Z 56
_cell_length_a 14.358110
_cell_length_b 14.358110
_cell_length_c 10.993261
_cell_angle_alpha 90.000000
_cell_angle_beta 90.000000
_cell_angle_gamma 90.000000
_cell_volume 2266.319270
_symmetry_space_group_name_H-M "P 4/M C C"
_symmetry_group_IT_number 124
_symmetry_cell_setting 'tetragonal'
loop_
_space_group_symop_operation_xyz
x,y,z
-y,x,z
-x,-y,z
y,-x,z
x,-y,1/2-z
-x,y,1/2-z
y,x,1/2-z
-y,-x,1/2-z
-x,-y,-z
y,-x,-z
x,y,-z
-y,x,-z
-x,y,1/2+z
x,-y,1/2+z
-y,-x,1/2+z
y,x,1/2+z
loop_
_atom_site_type_symbol
_atom_site_label
_atom_site_fract_x
_atom_site_fract_y
_atom_site_fract_z
Si Si1 0.968917 0.392356 0.624327
Si Si2 0.767313 0.604863 0.203207
Si Si3 0.802455 0.802455 0.250000
Si Si4 0.375898 0.594586 0.500000
Si Si5 0.898742 0.122561 0.500000
O O1 0.004790 0.348133 0.500000
O O2 0.858712 0.399804 0.620986
O O3 0.000000 0.500000 0.627190
O O4 0.000000 0.346895 0.750000
O O5 0.754447 0.500000 0.250000
O O6 0.802815 0.691734 0.284445
O O7 0.677630 0.626339 0.120492
O O8 0.830991 0.859086 0.372962
O O9 0.374345 0.482245 0.500000
O O10 0.011967 0.126495 0.500000
#
# Coordination Sequence:
#
# PCOD9562624 Si02
#       5
#    16  16   8   8   8
#     4  10  20  39  62  98 140 195 240 292 392 496
#     4  12  24  45  69 105 162 201 253 329 402 475
#     4  12  28  49  80 125 152 210 280 328 396 502
#     4  11  25  46  73 102 141 213 282 324 374 454
#     4  11  27  58  88 114 157 211 271 348 402 461
#
# _framework density 24.709667
#
# number of rings (size 3 to 8) (size 9 to 14) (size 15 to 20)
#    0.000    0.857    4.286    3.429    0.000    4.571 
#    2.571    1.429    0.000    0.000    0.000    0.000 
#    0.000    0.000    0.000    0.000    0.000    0.000 
#
# Total GULP energy -312131.234038 kJ/mol
# GULP energy per Si atom -5573.772036 kJ/mol
# Density = 2.465343 g / cm^3
# Si number density = 24.709667 Si / 1000 Ang^3
#
#
#
# Elastic Constant Matrix: (Units=GPa)
#
#
# Indices 1 2 3 4 5 6 
#
# 1 154.5515 20.1881 45.3730 0.0000 0.0000 0.0000
# 2 20.1881 154.5515 45.3730 0.0000 0.0000 0.0000
# 3 45.3730 45.3730 204.2641 0.0000 0.0000 0.0000
# 4 0.0000 0.0000 0.0000 38.0931 0.0000 0.0000
# 5 0.0000 0.0000 0.0000 0.0000 38.0931 0.0000
# 6 0.0000 0.0000 0.0000 0.0000 0.0000 20.9146
#
#
#
# Elastic Compliance Matrix: (Units=1/GPa)
#
#
# Indices 1 2 3 4 5 6 
#
# 1 0.006956 -0.000487 -0.001437 0.000000 0.000000 0.000000
# 2 -0.000487 0.006956 -0.001437 0.000000 0.000000 0.000000
# 3 -0.001437 -0.001437 0.005534 0.000000 0.000000 0.000000
# 4 0.000000 0.000000 0.000000 0.026251 0.000000 0.000000
# 5 0.000000 0.000000 0.000000 0.000000 0.026251 0.000000
# 6 0.000000 0.000000 0.000000 0.000000 0.000000 0.047813
#
#
# Mechanical properties :
#
#
# Convention : Reuss Voigt Hill
#
# Bulk Modulus (GPa) = 78.59011 81.69281 80.14146
# Shear Modulus (GPa) = 38.24832 46.24902 42.24867
#
# Velocity S-wave (km/s) = 3.93862 4.33101 4.13946
# Velocity P-wave (km/s) = 7.24969 7.62516 7.43979
#
# Compressibility (1/GPa) = 0.01272425
#
# Stress axis : x y z
#
# Youngs Moduli (GPa) = 143.76537 143.76537 180.70088
#
# Poissons Ratio (x) = 0.06997 0.25966
# Poissons Ratio (y) = 0.06997 0.25966
# Poissons Ratio (z) = 0.20659 0.20659
#
# Static dielectric constant tensor:
#      x y z
#    x 2.010380 0.000000 0.000000 
#    y 0.000000 2.010380 0.000000 
#    z 0.000000 0.000000 2.058530 
# 
# From -- ./inp_files/2137.got.cif
#   From: 2010.05.17/outbox.cif.g08.bks.cpg/sg124_2_cif.got.tgz:2137.got - 2010.05.20 11:49:17.
