data_PCOD9562109
_publ_section_title
;
Structure prediction by ZEFSAII (Michael W. Deem and Ramdas Pophale) SiO2 
 PCOD9562109
Probable space group: P 4/M M M
;
_chemical_formula_sum "Si O2"
_cell_formula_units_Z 92
_cell_length_a 24.974244
_cell_length_b 24.974244
_cell_length_c 8.342087
_cell_angle_alpha 90.000000
_cell_angle_beta 90.000000
_cell_angle_gamma 90.000000
_cell_volume 5203.066969
_symmetry_space_group_name_H-M "P 4/M M M"
_symmetry_group_IT_number 123
_symmetry_cell_setting 'tetragonal'
loop_
_space_group_symop_operation_xyz
x,y,z
-y,x,z
-x,-y,z
y,-x,z
x,-y,-z
-x,y,-z
y,x,-z
-y,-x,-z
-x,-y,-z
y,-x,-z
x,y,-z
-y,x,-z
-x,y,z
x,-y,z
-y,-x,z
y,x,z
loop_
_atom_site_type_symbol
_atom_site_label
_atom_site_fract_x
_atom_site_fract_y
_atom_site_fract_z
Si Si1 0.279335 0.436364 0.809990
Si Si2 0.561904 0.836767 0.310377
Si Si3 0.563263 0.563263 0.000000
Si Si4 0.935397 0.261131 0.680939
Si Si5 0.383921 0.383921 0.684757
Si Si6 0.852835 0.938462 0.806428
Si Si7 0.938546 0.624903 0.187406
O O1 0.284638 0.500000 0.766664
O O2 0.217970 0.419859 0.775300
O O3 0.322139 0.400661 0.714522
O O4 0.290227 0.431834 0.000000
O O5 0.564782 0.827046 0.500000
O O6 0.500000 0.844394 0.263565
O O7 0.592272 0.891398 0.270208
O O8 0.500000 0.573723 0.000000
O O9 0.586396 0.586396 0.833244
O O10 0.916434 0.270795 0.500000
O O11 0.916896 0.204138 0.746026
O O12 0.924583 0.312609 0.788302
O O13 0.000000 0.257034 0.677459
O O14 0.398292 0.398292 0.500000
O O15 0.900905 0.900905 0.751847
O O16 0.859932 0.000000 0.753486
O O17 0.851751 0.938706 0.000000
O O18 0.000000 0.616604 0.248965
O O19 0.938880 0.611773 0.000000
#
# Coordination Sequence:
#
# PCOD9562109 Si02
#       7
#    16  16   4  16   8  16  16
#     4  10  20  37  60  84 113 150 193 237 281 333
#     4  10  21  36  55  82 114 147 184 225 271 326
#     4  11  24  40  56  84 124 156 190 242 298 346
#     4   9  17  30  49  71  95 127 168 212 258 312
#     4  12  23  37  61  88 116 154 200 244 288 344
#     4   9  17  29  46  69  98 131 168 209 254 308
#     4  10  20  34  54  79 107 141 180 222 272 329
#
# _framework density 17.68188
#
# number of rings (size 3 to 8) (size 9 to 14) (size 15 to 20)
#    0.000    2.130    0.870    2.609    0.000    7.130 
#    0.000    3.043    1.913    0.000    0.000    2.435 
#    0.000    0.000    0.000    0.000    0.000    0.000 
#
# Total GULP energy -512830.214959 kJ/mol
# GULP energy per Si atom -5574.241467 kJ/mol
# Density = 1.764164 g / cm^3
# Si number density = 17.681880 Si / 1000 Ang^3
#
#
#
# Elastic Constant Matrix: (Units=GPa)
#
#
# Indices 1 2 3 4 5 6 
#
# 1 141.5936 -10.8898 22.9164 0.0000 0.0000 0.0000
# 2 -10.8898 141.5936 22.9164 0.0000 0.0000 0.0000
# 3 22.9164 22.9164 54.8409 0.0000 0.0000 0.0000
# 4 0.0000 0.0000 0.0000 22.9417 0.0000 0.0000
# 5 0.0000 0.0000 0.0000 0.0000 22.9417 0.0000
# 6 0.0000 0.0000 0.0000 0.0000 0.0000 14.1103
#
#
#
# Elastic Compliance Matrix: (Units=1/GPa)
#
#
# Indices 1 2 3 4 5 6 
#
# 1 0.007761 0.001203 -0.003746 0.000000 0.000000 0.000000
# 2 0.001203 0.007761 -0.003746 0.000000 0.000000 0.000000
# 3 -0.003746 -0.003746 0.021365 0.000000 0.000000 0.000000
# 4 0.000000 0.000000 0.000000 0.043589 0.000000 0.000000
# 5 0.000000 0.000000 0.000000 0.000000 0.043589 0.000000
# 6 0.000000 0.000000 0.000000 0.000000 0.000000 0.070870
#
#
# Mechanical properties :
#
#
# Convention : Reuss Voigt Hill
#
# Bulk Modulus (GPa) = 41.13499 45.32381 43.22940
# Shear Modulus (GPa) = 23.18928 32.20438 27.69683
#
# Velocity S-wave (km/s) = 3.62535 4.27232 3.96207
# Velocity P-wave (km/s) = 6.39051 7.07287 6.74033
#
# Compressibility (1/GPa) = 0.02431021
#
# Stress axis : x y z
#
# Youngs Moduli (GPa) = 128.84473 128.84473 46.80497
#
# Poissons Ratio (x) = -0.15502 0.17533
# Poissons Ratio (y) = -0.15502 0.17533
# Poissons Ratio (z) = 0.48265 0.48265
#
# Static dielectric constant tensor:
#      x y z
#    x 1.598120 0.000000 0.000000 
#    y 0.000000 1.598120 0.000000 
#    z 0.000000 0.000000 1.621060 
# 
# From -- ./inp_files/1670.got.cif
#   From: 2010.05.17/outbox.cif.g08.bks.cpg/sg123_1_cif.got.tgz:1670.got - 2010.05.20 11:43:04.
