data_PCOD9562799
_publ_section_title
;
Structure prediction by ZEFSAII (Michael W. Deem and Ramdas Pophale) SiO2 
 PCOD9562799
Probable space group: P 4/M C C
;
_chemical_formula_sum "Si O2"
_cell_formula_units_Z 96
_cell_length_a 14.315573
_cell_length_b 14.315573
_cell_length_c 20.583276
_cell_angle_alpha 90.000000
_cell_angle_beta 90.000000
_cell_angle_gamma 90.000000
_cell_volume 4218.246641
_symmetry_space_group_name_H-M "P 4/M C C"
_symmetry_group_IT_number 124
_symmetry_cell_setting 'tetragonal'
loop_
_space_group_symop_operation_xyz
x,y,z
-y,x,z
-x,-y,z
y,-x,z
x,-y,1/2-z
-x,y,1/2-z
y,x,1/2-z
-y,-x,1/2-z
-x,-y,-z
y,-x,-z
x,y,-z
-y,x,-z
-x,y,1/2+z
x,-y,1/2+z
-y,-x,1/2+z
y,x,1/2+z
loop_
_atom_site_type_symbol
_atom_site_label
_atom_site_fract_x
_atom_site_fract_y
_atom_site_fract_z
Si Si1 0.273619 0.702820 0.500000
Si Si2 0.709011 0.048845 0.000000
Si Si3 0.993251 0.845821 0.113859
Si Si4 0.517723 0.890747 0.630664
Si Si5 0.752696 0.332345 0.643470
Si Si6 0.254841 0.000000 0.750000
Si Si7 0.588463 0.876969 0.000000
Si Si8 0.189802 0.360914 0.718830
O O1 0.160903 0.711090 0.500000
O O2 0.294680 0.655665 0.571439
O O3 0.325434 0.803619 0.500000
O O4 0.763792 0.012669 0.062828
O O5 0.615908 0.986778 0.000000
O O6 0.906084 0.914185 0.103044
O O7 0.990222 0.808490 0.186661
O O8 0.624712 0.855931 0.629957
O O9 0.473262 0.860934 0.562876
O O10 0.455440 0.834995 0.682383
O O11 0.500000 0.000000 0.641828
O O12 0.714732 0.231374 0.666819
O O13 0.745044 0.375856 0.717338
O O14 0.316760 0.907805 0.741812
#
# Coordination Sequence:
#
# PCOD9562799 Si02
#       8
#     8   8  16  16  16   8   8  16
#     4  12  23  44  67 103 134 191 236 305 362 447
#     4  12  24  37  64  87 132 185 236 302 352 439
#     4  11  24  38  53  83 125 183 240 294 355 422
#     4  12  24  46  72 108 151 191 245 315 383 456
#     4  11  25  43  71  99 145 183 243 293 372 447
#     4  12  24  39  65  92 138 168 234 293 352 441
#     4  12  24  42  68 108 146 192 256 306 386 452
#     4  11  25  43  69 108 137 192 235 298 371 452
#
# _framework density 22.758272000000002
#
# number of rings (size 3 to 8) (size 9 to 14) (size 15 to 20)
#    0.000    0.500    1.667    7.250    7.000    2.000 
#    0.000    0.000    0.000    0.500    0.000    3.500 
#    0.000    0.000    0.000    0.000    0.000    0.000 
#
# Total GULP energy -535334.359162 kJ/mol
# GULP energy per Si atom -5576.399575 kJ/mol
# Density = 2.270647 g / cm^3
# Si number density = 22.758272 Si / 1000 Ang^3
#
#
#
# Elastic Constant Matrix: (Units=GPa)
#
#
# Indices 1 2 3 4 5 6 
#
# 1 76.3188 39.6549 26.9611 0.0000 0.0000 0.0000
# 2 39.6549 76.3188 26.9611 0.0000 0.0000 0.0000
# 3 26.9611 26.9611 183.7084 0.0000 0.0000 0.0000
# 4 0.0000 0.0000 0.0000 112.0598 0.0000 0.0000
# 5 0.0000 0.0000 0.0000 0.0000 112.0598 0.0000
# 6 0.0000 0.0000 0.0000 0.0000 0.0000 37.7908
#
#
#
# Elastic Compliance Matrix: (Units=1/GPa)
#
#
# Indices 1 2 3 4 5 6 
#
# 1 0.018264 -0.009010 -0.001358 0.000000 0.000000 0.000000
# 2 -0.009010 0.018264 -0.001358 0.000000 0.000000 0.000000
# 3 -0.001358 -0.001358 0.005842 0.000000 0.000000 0.000000
# 4 0.000000 0.000000 0.000000 0.008924 0.000000 0.000000
# 5 0.000000 0.000000 0.000000 0.000000 0.008924 0.000000
# 6 0.000000 0.000000 0.000000 0.000000 0.000000 0.026461
#
#
# Mechanical properties :
#
#
# Convention : Reuss Voigt Hill
#
# Bulk Modulus (GPa) = 52.86044 58.16668 55.51356
# Shear Modulus (GPa) = 42.94087 68.56665 55.75376
#
# Velocity S-wave (km/s) = 4.34847 5.49487 4.95494
# Velocity P-wave (km/s) = 6.96345 8.11617 7.56180
#
# Compressibility (1/GPa) = 0.01891774
#
# Stress axis : x y z
#
# Youngs Moduli (GPa) = 54.75115 54.75115 171.17277
#
# Poissons Ratio (x) = 0.49333 0.23248
# Poissons Ratio (y) = 0.49333 0.23248
# Poissons Ratio (z) = 0.07436 0.07436
#
# Static dielectric constant tensor:
#      x y z
#    x 1.867010 0.000000 0.000000 
#    y 0.000000 1.867010 0.000000 
#    z 0.000000 0.000000 1.916480 
# 
# From -- ./inp_files/5419.got.cif
#   From: 2010.05.17/outbox.cif.g08.bks.cpg/sg124_3_cif.got.tgz:5419.got - 2010.05.20 11:49:17.
