data_PCOD9562668
_publ_section_title
;
Structure prediction by ZEFSAII (Michael W. Deem and Ramdas Pophale) SiO2 
 PCOD9562668
Probable space group: P 4/M C C
;
_chemical_formula_sum "Si O2"
_cell_formula_units_Z 108
_cell_length_a 15.818128
_cell_length_b 15.818128
_cell_length_c 23.947686
_cell_angle_alpha 90.000000
_cell_angle_beta 90.000000
_cell_angle_gamma 90.000000
_cell_volume 5992.026510
_symmetry_space_group_name_H-M "P 4/M C C"
_symmetry_group_IT_number 124
_symmetry_cell_setting 'tetragonal'
loop_
_space_group_symop_operation_xyz
x,y,z
-y,x,z
-x,-y,z
y,-x,z
x,-y,1/2-z
-x,y,1/2-z
y,x,1/2-z
-y,-x,1/2-z
-x,-y,-z
y,-x,-z
x,y,-z
-y,x,-z
-x,y,1/2+z
x,-y,1/2+z
-y,-x,1/2+z
y,x,1/2+z
loop_
_atom_site_type_symbol
_atom_site_label
_atom_site_fract_x
_atom_site_fract_y
_atom_site_fract_z
Si Si1 0.824160 0.315071 0.250000
Si Si2 0.350540 0.206955 0.937078
Si Si3 0.300008 0.500000 0.125830
Si Si4 0.350540 0.206955 0.562922
Si Si5 0.240194 0.098653 0.637210
Si Si6 0.247944 0.500000 0.750000
Si Si7 0.500000 0.500000 0.398666
Si Si8 0.098653 0.240194 0.637210
O O1 0.733816 0.266185 0.250000
O O2 0.873486 0.283439 0.304564
O O3 0.807473 0.414737 0.250000
O O4 0.873487 0.283439 0.195436
O O5 0.420181 0.247517 0.896809
O O6 0.276140 0.276140 0.939480
O O7 0.307134 0.124979 0.910452
O O8 0.382950 0.193991 0.000000
O O9 0.247516 0.420181 0.103191
O O10 0.301912 0.500000 0.193041
O O11 0.395007 0.499999 0.102645
O O12 0.382951 0.193991 0.500000
O O13 0.307134 0.124979 0.589548
O O14 0.156844 0.156844 0.630789
O O15 0.220975 1.000000 0.636648
#
# Coordination Sequence:
#
# PCOD9562668 Si02
#       8
#    16  16  16  16  16   8   4  16
#     4  10  21  39  59  86 121 167 207 245 298 368
#     4  10  21  39  60  82 119 165 206 245 295 357
#     4  12  23  41  57  92 124 163 207 257 297 346
#     4  10  21  39  60  82 119 165 206 245 295 357
#     4  10  21  39  64  92 120 154 197 248 310 373
#     4  12  24  35  65  84 122 166 204 246 297 357
#     4  12  28  37  61  96 134 160 217 257 296 342
#     4  10  21  39  64  92 120 154 197 248 310 373
#
# _framework density 18.023952000000001
#
# number of rings (size 3 to 8) (size 9 to 14) (size 15 to 20)
#    0.000    1.481    4.444    0.889    2.074    1.185 
#    0.000    5.185    0.000    4.444    0.000    4.148 
#    0.000    0.000    0.000    0.000    0.000    0.000 
#
# Total GULP energy -601762.682643 kJ/mol
# GULP energy per Si atom -5571.876691 kJ/mol
# Density = 1.798293 g / cm^3
# Si number density = 18.023952 Si / 1000 Ang^3
#
#
#
# Elastic Constant Matrix: (Units=GPa)
#
#
# Indices 1 2 3 4 5 6 
#
# 1 118.4123 39.2609 17.5844 0.0000 0.0000 0.0000
# 2 39.2609 118.4125 17.5845 0.0000 0.0000 0.0000
# 3 17.5844 17.5845 93.8579 0.0000 0.0000 0.0000
# 4 0.0000 0.0000 0.0000 11.6939 0.0000 0.0000
# 5 0.0000 0.0000 0.0000 0.0000 11.6938 0.0000
# 6 0.0000 0.0000 0.0000 0.0000 0.0000 13.2220
#
#
#
# Elastic Compliance Matrix: (Units=1/GPa)
#
#
# Indices 1 2 3 4 5 6 
#
# 1 0.009626 -0.003008 -0.001240 0.000000 0.000000 0.000000
# 2 -0.003008 0.009626 -0.001240 0.000000 0.000000 0.000000
# 3 -0.001240 -0.001240 0.011119 0.000000 0.000000 0.000000
# 4 0.000000 0.000000 0.000000 0.085515 0.000000 0.000000
# 5 0.000000 0.000000 0.000000 0.000000 0.085515 0.000000
# 6 0.000000 0.000000 0.000000 0.000000 0.000000 0.075632
#
#
# Mechanical properties :
#
#
# Convention : Reuss Voigt Hill
#
# Bulk Modulus (GPa) = 51.55569 53.28248 52.41908
# Shear Modulus (GPa) = 16.97940 24.40546 20.69243
#
# Velocity S-wave (km/s) = 3.07261 3.68374 3.39197
# Velocity P-wave (km/s) = 6.42293 6.90793 6.66984
#
# Compressibility (1/GPa) = 0.01939650
#
# Stress axis : x y z
#
# Youngs Moduli (GPa) = 103.88082 103.88093 89.93568
#
# Poissons Ratio (x) = 0.31243 0.11152
# Poissons Ratio (y) = 0.31243 0.11153
# Poissons Ratio (z) = 0.12882 0.12882
#
# Static dielectric constant tensor:
#      x y z
#    x 1.593980 0.000000 0.000000 
#    y 0.000000 1.593980 0.000000 
#    z 0.000000 0.000000 1.655120 
# 
# From -- ./inp_files/6139.got.cif
#   From: 2010.05.17/outbox.cif.g08.bks.cpg/sg124_4_cif.got.tgz:6139.got - 2010.05.20 11:49:17.
