data_PCOD9562460
_publ_section_title
;
Structure prediction by ZEFSAII (Michael W. Deem and Ramdas Pophale) SiO2 
 PCOD9562460
Probable space group: P 4/M C C
;
_chemical_formula_sum "Si O2"
_cell_formula_units_Z 116
_cell_length_a 17.236307
_cell_length_b 17.236307
_cell_length_c 18.477028
_cell_angle_alpha 90.000000
_cell_angle_beta 90.000000
_cell_angle_gamma 90.000000
_cell_volume 5489.345404
_symmetry_space_group_name_H-M "P 4/M C C"
_symmetry_group_IT_number 124
_symmetry_cell_setting 'tetragonal'
loop_
_space_group_symop_operation_xyz
x,y,z
-y,x,z
-x,-y,z
y,-x,z
x,-y,1/2-z
-x,y,1/2-z
y,x,1/2-z
-y,-x,1/2-z
-x,-y,-z
y,-x,-z
x,y,-z
-y,x,-z
-x,y,1/2+z
x,-y,1/2+z
-y,-x,1/2+z
y,x,1/2+z
loop_
_atom_site_type_symbol
_atom_site_label
_atom_site_fract_x
_atom_site_fract_y
_atom_site_fract_z
Si Si1 0.000000 0.000000 0.618989
Si Si2 0.111719 0.622567 0.308489
Si Si3 0.948946 0.335468 0.849136
Si Si4 0.246851 0.507506 0.672104
Si Si5 0.980070 0.820457 0.914527
Si Si6 0.816663 0.745845 0.916306
Si Si7 0.545279 0.381864 0.913865
Si Si8 0.359509 0.796615 0.581802
O O1 0.904452 0.002417 0.614164
O O2 0.096088 0.656040 0.227725
O O3 0.163700 0.546472 0.313615
O O4 0.157772 0.683554 0.357566
O O5 0.026158 0.613462 0.341669
O O6 0.889279 0.362541 0.909634
O O7 0.979579 0.249249 0.869537
O O8 0.285949 0.500000 0.750000
O O9 0.301061 0.562326 0.623597
O O10 0.236882 0.424646 0.634320
O O11 0.886554 0.808434 0.911821
O O12 0.002149 0.814884 0.000000
O O13 0.729765 0.775137 0.901739
O O14 0.818183 0.716979 0.000000
O O15 0.595859 0.456528 0.894276
O O16 0.549994 0.373911 0.000000
O O17 0.376743 0.771152 0.500000
#
# Coordination Sequence:
#
# PCOD9562460 Si02
#       8
#     4  16  16  16  16  16  16  16
#     4  12  21  32  60 101 142 177 213 282 341 388
#     4  10  23  43  66  90 128 173 217 268 329 394
#     4  10  21  42  64  88 125 179 222 272 327 386
#     4  12  25  42  62  99 130 168 214 264 325 395
#     4  10  19  34  61  98 135 176 225 272 334 398
#     4   9  21  40  65  95 129 170 218 274 330 393
#     4   9  21  44  71  98 133 173 206 253 324 398
#     4  11  23  41  64  94 128 166 217 274 328 386
#
# _framework density 21.131844999999998
#
# number of rings (size 3 to 8) (size 9 to 14) (size 15 to 20)
#    0.000    1.793    1.379    2.690    1.931    4.414 
#    0.000    2.759    0.000    9.103    0.000    0.000 
#    0.000    0.000    0.000    0.000    0.000    0.000 
#
# Total GULP energy -646662.439641 kJ/mol
# GULP energy per Si atom -5574.676204 kJ/mol
# Density = 2.108375 g / cm^3
# Si number density = 21.131845 Si / 1000 Ang^3
#
#
#
# Elastic Constant Matrix: (Units=GPa)
#
#
# Indices 1 2 3 4 5 6 
#
# 1 85.7238 28.6922 41.1208 0.0000 0.0000 0.0000
# 2 28.6922 85.7238 41.1208 0.0000 0.0000 0.0000
# 3 41.1208 41.1208 64.2450 0.0000 0.0000 0.0000
# 4 0.0000 0.0000 0.0000 4593.5959 0.0000 0.0000
# 5 0.0000 0.0000 0.0000 0.0000 4593.5959 0.0000
# 6 0.0000 0.0000 0.0000 0.0000 0.0000 27.5352
#
#
#
# Elastic Compliance Matrix: (Units=1/GPa)
#
#
# Indices 1 2 3 4 5 6 
#
# 1 0.016861 -0.000673 -0.010361 0.000000 0.000000 0.000000
# 2 -0.000673 0.016861 -0.010361 0.000000 0.000000 0.000000
# 3 -0.010361 -0.010361 0.028829 0.000000 0.000000 0.000000
# 4 0.000000 0.000000 0.000000 0.000218 0.000000 0.000000
# 5 0.000000 0.000000 0.000000 0.000000 0.000218 0.000000
# 6 0.000000 0.000000 0.000000 0.000000 0.000000 0.036317
#
#
# Mechanical properties :
#
#
# Convention : Reuss Voigt Hill
#
# Bulk Modulus (GPa) = 50.60795 50.84004 50.72399
# Shear Modulus (GPa) = 33.62923 1851.26265 942.44594
#
# Velocity S-wave (km/s) = 3.99356 29.63031 21.14124
# Velocity P-wave (km/s) = 6.72796 34.56469 24.89963
#
# Compressibility (1/GPa) = 0.01975974
#
# Stress axis : x y z
#
# Youngs Moduli (GPa) = 59.30912 59.30912 34.68754
#
# Poissons Ratio (x) = 0.03993 0.35940
# Poissons Ratio (y) = 0.03993 0.35940
# Poissons Ratio (z) = 0.61450 0.61450
#
# Static dielectric constant tensor:
#      x y z
#    x 1.777260 0.000000 0.000000 
#    y 0.000000 1.777260 0.000000 
#    z 0.000000 0.000000 1.785460 
# 
# From -- ./inp_files/4447.got.cif
#   From: 2010.05.17/outbox.cif.g08.bks.cpg/sg124_3_cif.got.tgz:4447.got - 2010.05.20 11:49:17.
