data_PCOD9562076
_publ_section_title
;
Structure prediction by ZEFSAII (Michael W. Deem and Ramdas Pophale) SiO2 
 PCOD9562076
Probable space group: P 4/M M M
;
_chemical_formula_sum "Si O2"
_cell_formula_units_Z 120
_cell_length_a 18.395490
_cell_length_b 18.395490
_cell_length_c 19.166228
_cell_angle_alpha 90.000000
_cell_angle_beta 90.000000
_cell_angle_gamma 90.000000
_cell_volume 6485.737561
_symmetry_space_group_name_H-M "P 4/M M M"
_symmetry_group_IT_number 123
_symmetry_cell_setting 'tetragonal'
loop_
_space_group_symop_operation_xyz
x,y,z
-y,x,z
-x,-y,z
y,-x,z
x,-y,-z
-x,y,-z
y,x,-z
-y,-x,-z
-x,-y,-z
y,-x,-z
x,y,-z
-y,x,-z
-x,y,z
x,-y,z
-y,-x,z
y,x,z
loop_
_atom_site_type_symbol
_atom_site_label
_atom_site_fract_x
_atom_site_fract_y
_atom_site_fract_z
Si Si1 0.136661 0.412516 0.576248
Si Si2 0.796531 0.913707 0.500000
Si Si3 0.585597 0.769888 0.783074
Si Si4 0.086397 0.206061 0.344878
Si Si5 0.220462 0.666811 0.080452
Si Si6 0.916796 0.355399 0.279883
Si Si7 0.918569 0.418788 0.083513
Si Si8 0.413040 0.704614 0.367987
O O1 0.112520 0.386649 0.500000
O O2 0.132985 0.500000 0.576772
O O3 0.090791 0.386034 0.641648
O O4 0.221618 0.394515 0.589932
O O5 0.875487 0.875487 0.500000
O O6 0.765699 0.893656 0.576380
O O7 0.801639 0.000000 0.500000
O O8 0.500000 0.764737 0.791671
O O9 0.623350 0.745062 0.854639
O O10 0.606989 0.853513 0.764431
O O11 0.603166 0.725075 0.712962
O O12 0.136414 0.136414 0.331604
O O13 0.099482 0.269848 0.289482
O O14 0.000000 0.189967 0.344626
O O15 0.251788 0.748213 0.084679
O O16 0.136227 0.647949 0.093136
O O17 0.236364 0.642110 0.000000
O O18 0.000000 0.365711 0.257371
O O19 0.893009 0.500000 0.106890
O O20 0.000000 0.407381 0.109719
O O21 0.923208 0.424406 0.000000
O O22 0.500000 0.691507 0.375016
O O23 0.363144 0.636857 0.388749
#
# Coordination Sequence:
#
# PCOD9562076 Si02
#       8
#    16   8  16  16  16  16  16  16
#     4   9  19  34  50  70  97 129 162 198 248 309
#     4   8  14  25  40  60  89 123 161 209 260 310
#     4  10  21  36  53  72 100 139 174 207 255 316
#     4   9  18  31  47  69  98 132 172 218 266 316
#     4  10  20  33  52  80 110 138 173 218 267 320
#     4  10  21  34  51  75 101 130 170 218 261 304
#     4   8  14  26  45  70 102 139 175 210 252 307
#     4   9  18  33  51  71  96 126 164 208 252 300
#
# _framework density 18.502136
#
# number of rings (size 3 to 8) (size 9 to 14) (size 15 to 20)
#    0.000    2.800    0.000    2.400    0.933    5.933 
#    0.000    2.000    0.000    0.000    0.000    1.867 
#    0.000    2.667    0.000   50.400    0.000    0.000 
#
# Total GULP energy -668065.070695 kJ/mol
# GULP energy per Si atom -5567.208922 kJ/mol
# Density = 1.846002 g / cm^3
# Si number density = 18.502136 Si / 1000 Ang^3
#
#
#
# Elastic Constant Matrix: (Units=GPa)
#
#
# Indices 1 2 3 4 5 6 
#
# 1 61.4744 38.7842 0.1832 0.0000 0.0000 0.0000
# 2 38.7842 61.4744 0.1832 0.0000 0.0000 0.0000
# 3 0.1832 0.1832 75.3676 0.0000 0.0000 0.0000
# 4 0.0000 0.0000 0.0000 14.1675 0.0000 0.0000
# 5 0.0000 0.0000 0.0000 0.0000 14.1675 0.0000
# 6 0.0000 0.0000 0.0000 0.0000 0.0000 27.7030
#
#
#
# Elastic Compliance Matrix: (Units=1/GPa)
#
#
# Indices 1 2 3 4 5 6 
#
# 1 0.027023 -0.017049 -0.000024 0.000000 0.000000 0.000000
# 2 -0.017049 0.027023 -0.000024 0.000000 0.000000 0.000000
# 3 -0.000024 -0.000024 0.013268 0.000000 0.000000 0.000000
# 4 0.000000 0.000000 0.000000 0.070584 0.000000 0.000000
# 5 0.000000 0.000000 0.000000 0.000000 0.070584 0.000000
# 6 0.000000 0.000000 0.000000 0.000000 0.000000 0.036097
#
#
# Mechanical properties :
#
#
# Convention : Reuss Voigt Hill
#
# Bulk Modulus (GPa) = 30.19321 30.73529 30.46425
# Shear Modulus (GPa) = 17.25241 21.81864 19.53552
#
# Velocity S-wave (km/s) = 3.05693 3.43775 3.25291
# Velocity P-wave (km/s) = 5.36786 5.69256 5.53259
#
# Compressibility (1/GPa) = 0.03312003
#
# Stress axis : x y z
#
# Youngs Moduli (GPa) = 37.00541 37.00541 75.36689
#
# Poissons Ratio (x) = 0.63090 0.00183
# Poissons Ratio (y) = 0.63090 0.00183
# Poissons Ratio (z) = 0.00090 0.00090
#
# Static dielectric constant tensor:
#      x y z
#    x 1.642860 0.000000 0.000000 
#    y 0.000000 1.642860 0.000000 
#    z 0.000000 0.000000 1.697790 
# 
# From -- ./inp_files/6775.got.cif
#   From: 2010.05.17/outbox.cif.g08.bks.cpg/sg123_4_cif.got.tgz:6775.got - 2010.05.20 11:43:04.
