data_PCOD9562468
_publ_section_title
;
Structure prediction by ZEFSAII (Michael W. Deem and Ramdas Pophale) SiO2 
 PCOD9562468
Probable space group: P 4/M C C
;
_chemical_formula_sum "Si O2"
_cell_formula_units_Z 120
_cell_length_a 18.376633
_cell_length_b 18.376633
_cell_length_c 19.934918
_cell_angle_alpha 90.000000
_cell_angle_beta 90.000000
_cell_angle_gamma 90.000000
_cell_volume 6732.034575
_symmetry_space_group_name_H-M "P 4/M C C"
_symmetry_group_IT_number 124
_symmetry_cell_setting 'tetragonal'
loop_
_space_group_symop_operation_xyz
x,y,z
-y,x,z
-x,-y,z
y,-x,z
x,-y,1/2-z
-x,y,1/2-z
y,x,1/2-z
-y,-x,1/2-z
-x,-y,-z
y,-x,-z
x,y,-z
-y,x,-z
-x,y,1/2+z
x,-y,1/2+z
-y,-x,1/2+z
y,x,1/2+z
loop_
_atom_site_type_symbol
_atom_site_label
_atom_site_fract_x
_atom_site_fract_y
_atom_site_fract_z
Si Si1 0.685954 0.862114 0.077310
Si Si2 0.326641 0.261661 0.319161
Si Si3 0.817824 0.818395 0.331044
Si Si4 0.100856 0.069373 0.578429
Si Si5 0.530806 0.618672 0.000000
Si Si6 0.715951 0.401373 0.888119
Si Si7 0.536915 0.924543 0.920468
Si Si8 0.516024 0.807612 0.319859
O O1 0.749629 0.858506 0.132613
O O2 0.639611 0.786624 0.080952
O O3 0.623420 0.920828 0.093859
O O4 0.712161 0.871378 0.000000
O O5 0.292584 0.292584 0.250000
O O6 0.266482 0.203271 0.343256
O O7 0.331619 0.333559 0.364184
O O8 0.404253 0.224968 0.316099
O O9 0.826601 0.826601 0.250000
O O10 0.846335 0.888721 0.370819
O O11 0.120022 0.082562 0.500000
O O12 0.017837 0.097720 0.588385
O O13 0.450182 0.585609 0.000000
O O14 0.548701 0.670156 0.937432
O O15 0.746036 0.454006 0.829941
O O16 0.496061 0.861074 0.881382
O O17 0.500000 0.000000 0.902403
O O18 0.529887 0.913084 0.000000
O O19 0.500000 0.847130 0.250000
#
# Coordination Sequence:
#
# PCOD9562468 Si02
#       8
#    16  16  16  16   8  16  16  16
#     4   9  17  34  60  81 110 154 191 229 285 342
#     4  10  20  37  54  81 115 150 194 242 281 342
#     4  10  21  34  56  86 121 151 190 238 283 339
#     4   9  19  39  65  88 114 151 191 231 283 350
#     4  11  22  34  50  78 113 142 184 245 299 342
#     4  10  19  35  56  78 107 145 192 236 291 338
#     4   9  20  39  60  85 116 148 191 240 289 348
#     4  11  21  35  61  82 111 155 197 233 289 348
#
# _framework density 17.825220000000002
#
# number of rings (size 3 to 8) (size 9 to 14) (size 15 to 20)
#    0.000    2.200    2.000    1.600    2.800    0.800 
#    3.600    0.667    0.000    0.000    0.000    0.000 
#    0.000    0.000    0.000    0.000    0.000    0.000 
#
# Total GULP energy -668462.387971 kJ/mol
# GULP energy per Si atom -5570.519900 kJ/mol
# Density = 1.778465 g / cm^3
# Si number density = 17.825220 Si / 1000 Ang^3
#
#
#
# Elastic Constant Matrix: (Units=GPa)
#
#
# Indices 1 2 3 4 5 6 
#
# 1 54.1243 30.1916 32.3046 0.0000 0.0000 0.0000
# 2 30.1916 54.1243 32.3046 0.0000 0.0000 0.0000
# 3 32.3046 32.3046 72.0562 0.0000 0.0000 0.0000
# 4 0.0000 0.0000 0.0000 18.8953 0.0000 0.0000
# 5 0.0000 0.0000 0.0000 0.0000 18.8953 0.0000
# 6 0.0000 0.0000 0.0000 0.0000 0.0000 24.0440
#
#
#
# Elastic Compliance Matrix: (Units=1/GPa)
#
#
# Indices 1 2 3 4 5 6 
#
# 1 0.029925 -0.011859 -0.008100 0.000000 0.000000 0.000000
# 2 -0.011859 0.029925 -0.008100 0.000000 0.000000 0.000000
# 3 -0.008100 -0.008100 0.021141 0.000000 0.000000 0.000000
# 4 0.000000 0.000000 0.000000 0.052923 0.000000 0.000000
# 5 0.000000 0.000000 0.000000 0.000000 0.052923 0.000000
# 6 0.000000 0.000000 0.000000 0.000000 0.000000 0.041590
#
#
# Mechanical properties :
#
#
# Convention : Reuss Voigt Hill
#
# Bulk Modulus (GPa) = 40.20071 41.10071 40.65071
# Shear Modulus (GPa) = 17.07437 18.06717 17.57077
#
# Velocity S-wave (km/s) = 3.09832 3.18712 3.14303
# Velocity P-wave (km/s) = 5.94988 6.05403 6.00218
#
# Compressibility (1/GPa) = 0.02487518
#
# Stress axis : x y z
#
# Youngs Moduli (GPa) = 33.41644 33.41644 47.30194
#
# Poissons Ratio (x) = 0.39627 0.38314
# Poissons Ratio (y) = 0.39627 0.38314
# Poissons Ratio (z) = 0.27067 0.27067
#
# Static dielectric constant tensor:
#      x y z
#    x 1.606010 0.000000 0.000000 
#    y 0.000000 1.606010 0.000000 
#    z 0.000000 0.000000 1.654330 
# 
# From -- ./inp_files/5619.got.cif
#   From: 2010.05.17/outbox.cif.g08.bks.cpg/sg124_3_cif.got.tgz:5619.got - 2010.05.20 11:49:17.
