data_PCOD9562107
_publ_section_title
;
Structure prediction by ZEFSAII (Michael W. Deem and Ramdas Pophale) SiO2 
 PCOD9562107
Probable space group: P 4/M M M
;
_chemical_formula_sum "Si O2"
_cell_formula_units_Z 120
_cell_length_a 28.853031
_cell_length_b 28.853031
_cell_length_c 8.121703
_cell_angle_alpha 90.000000
_cell_angle_beta 90.000000
_cell_angle_gamma 90.000000
_cell_volume 6761.296614
_symmetry_space_group_name_H-M "P 4/M M M"
_symmetry_group_IT_number 123
_symmetry_cell_setting 'tetragonal'
loop_
_space_group_symop_operation_xyz
x,y,z
-y,x,z
-x,-y,z
y,-x,z
x,-y,-z
-x,y,-z
y,x,-z
-y,-x,-z
-x,-y,-z
y,-x,-z
x,y,-z
-y,x,-z
-x,y,z
x,-y,z
-y,-x,z
y,x,z
loop_
_atom_site_type_symbol
_atom_site_label
_atom_site_fract_x
_atom_site_fract_y
_atom_site_fract_z
Si Si1 0.444772 0.371123 0.500000
Si Si2 0.789873 0.602907 0.195527
Si Si3 0.215600 0.142881 0.698548
Si Si4 0.552368 0.880596 0.693912
Si Si5 0.218040 0.291465 0.800672
Si Si6 0.736082 0.052611 0.696836
Si Si7 0.947237 0.365984 0.804800
Si Si8 0.555695 0.690523 0.186826
O O1 0.500000 0.375250 0.500000
O O2 0.420055 0.420055 0.500000
O O3 0.431121 0.343482 0.334590
O O4 0.829068 0.571769 0.277698
O O5 0.788314 0.655922 0.257125
O O6 0.739699 0.580067 0.213986
O O7 0.800685 0.604152 0.000000
O O8 0.212600 0.140486 0.500000
O O9 0.169233 0.169233 0.758876
O O10 0.258192 0.176787 0.742402
O O11 0.228737 0.091722 0.761078
O O12 0.550469 0.889622 0.500000
O O13 0.500000 0.885452 0.761505
O O14 0.590524 0.915145 0.766675
O O15 0.265814 0.265814 0.749649
O O16 0.217733 0.292399 0.000000
O O17 0.741979 0.050175 0.500000
O O18 0.683089 0.068213 0.729290
O O19 0.741275 0.000000 0.762923
O O20 0.000000 0.374513 0.746763
O O21 0.947836 0.359176 0.000000
O O22 0.500000 0.696789 0.193466
O O23 0.567201 0.674541 0.000000
#
# Coordination Sequence:
#
# PCOD9562107 Si02
#       8
#     8  16  16  16  16  16  16  16
#     4  10  22  39  60  86 112 140 173 209 251 305
#     4  10  20  34  54  76  99 130 166 207 251 298
#     4   9  17  29  44  64  93 127 159 193 236 285
#     4  11  24  37  51  72  97 128 165 208 256 307
#     4   9  18  31  46  67  95 125 156 189 229 281
#     4   9  17  30  49  71  94 122 159 202 245 292
#     4  10  21  36  53  72  95 125 163 211 263 308
#     4   9  19  36  57  80 107 139 172 210 256 304
#
# _framework density 17.748076000000001
#
# number of rings (size 3 to 8) (size 9 to 14) (size 15 to 20)
#    0.000    2.400    0.000    2.000    0.933    6.733 
#    0.000    2.667    0.000    0.000    0.000    1.867 
#    0.000    0.267    0.000    3.733    0.000    0.000 
#
# Total GULP energy -669287.686078 kJ/mol
# GULP energy per Si atom -5577.397384 kJ/mol
# Density = 1.770768 g / cm^3
# Si number density = 17.748076 Si / 1000 Ang^3
#
#
#
# Elastic Constant Matrix: (Units=GPa)
#
#
# Indices 1 2 3 4 5 6 
#
# 1 68.4799 69.0420 18.6035 0.0000 0.0000 0.0000
# 2 69.0420 68.4799 18.6035 0.0000 0.0000 0.0000
# 3 18.6035 18.6035 33.6722 0.0000 0.0000 0.0000
# 4 0.0000 0.0000 0.0000 4.3268 0.0000 0.0000
# 5 0.0000 0.0000 0.0000 0.0000 4.3268 0.0000
# 6 0.0000 0.0000 0.0000 0.0000 0.0000 103.5792
#
#
#
# Elastic Compliance Matrix: (Units=1/GPa)
#
#
# Indices 1 2 3 4 5 6 
#
# 1 -0.885223 0.893772 -0.004724 0.000000 0.000000 0.000000
# 2 0.893772 -0.885223 -0.004724 0.000000 0.000000 0.000000
# 3 -0.004724 -0.004724 0.034917 0.000000 0.000000 0.000000
# 4 0.000000 0.000000 0.000000 0.231118 0.000000 0.000000
# 5 0.000000 0.000000 0.000000 0.000000 0.231118 0.000000
# 6 0.000000 0.000000 0.000000 0.000000 0.000000 0.009654
#
#
# Mechanical properties :
#
#
# Convention : Reuss Voigt Hill
#
# Bulk Modulus (GPa) = 30.19103 42.57001 36.38052
# Shear Modulus (GPa) = -1.65495 26.73875 12.54190
#
# Velocity S-wave (km/s) = -0.96669 3.88567 2.66120
# Velocity P-wave (km/s) = 3.97515 6.64598 5.47589
#
# Compressibility (1/GPa) = 0.03312242
#
# Stress axis : x y z
#
# Youngs Moduli (GPa) = -1.12966 -1.12966 28.63900
#
# Poissons Ratio (x) = 1.00966 0.13528
# Poissons Ratio (y) = 1.00966 0.13528
# Poissons Ratio (z) = -0.00534 -0.00534
#
# Static dielectric constant tensor:
#      x y z
#    x 1.602650 0.000000 0.000000 
#    y 0.000000 1.602650 0.000000 
#    z 0.000000 0.000000 1.632150 
# 
# From -- ./inp_files/2036.got.cif
#   From: 2010.05.17/outbox.cif.g08.bks.cpg/sg123_2_cif.got.tgz:2036.got - 2010.05.20 11:43:04.
