data_PCOD9562028
_publ_section_title
;
Structure prediction by ZEFSAII (Michael W. Deem and Ramdas Pophale) SiO2 
 PCOD9562028
Probable space group: P 4/M M M
;
_chemical_formula_sum "Si O2"
_cell_formula_units_Z 120
_cell_length_a 28.828388
_cell_length_b 28.828388
_cell_length_c 8.299572
_cell_angle_alpha 90.000000
_cell_angle_beta 90.000000
_cell_angle_gamma 90.000000
_cell_volume 6897.574723
_symmetry_space_group_name_H-M "P 4/M M M"
_symmetry_group_IT_number 123
_symmetry_cell_setting 'tetragonal'
loop_
_space_group_symop_operation_xyz
x,y,z
-y,x,z
-x,-y,z
y,-x,z
x,-y,-z
-x,y,-z
y,x,-z
-y,-x,-z
-x,-y,-z
y,-x,-z
x,y,-z
-y,x,-z
-x,y,z
x,-y,z
-y,-x,z
y,x,z
loop_
_atom_site_type_symbol
_atom_site_label
_atom_site_fract_x
_atom_site_fract_y
_atom_site_fract_z
Si Si1 0.107083 0.286125 0.691130
Si Si2 0.130831 0.445791 0.193759
Si Si3 0.714633 0.641374 0.690159
Si Si4 0.764784 0.552991 0.806189
Si Si5 0.055733 0.811316 0.684413
Si Si6 0.052520 0.376046 0.693853
Si Si7 0.211597 0.714455 0.809704
Si Si8 0.055210 0.870740 0.000000
O O1 0.113737 0.293352 0.500000
O O2 0.081312 0.237371 0.710837
O O3 0.074542 0.327634 0.752928
O O4 0.157771 0.286231 0.768017
O O5 0.124719 0.500000 0.233072
O O6 0.183066 0.432631 0.249064
O O7 0.089445 0.415433 0.262672
O O8 0.129894 0.441187 0.000000
O O9 0.708600 0.636717 0.500000
O O10 0.670027 0.670027 0.755797
O O11 0.727272 0.591123 0.758173
O O12 0.758727 0.674610 0.723558
O O13 0.756039 0.500000 0.750395
O O14 0.766727 0.551570 0.000000
O O15 0.066704 0.827512 0.500000
O O16 0.068368 0.843986 0.834785
O O17 0.000000 0.804530 0.689776
O O18 0.049714 0.373506 0.500000
O O19 0.000000 0.383641 0.754519
O O20 0.236812 0.763189 0.768340
O O21 0.217116 0.706778 0.000000
O O22 0.080494 0.919507 0.000000
O O23 0.000000 0.875153 0.000000
#
# Coordination Sequence:
#
# PCOD9562028 Si02
#       8
#    16  16  16  16  16  16  16   8
#     4  10  20  34  53  74  98 130 166 209 258 307
#     4   9  19  35  51  69  96 128 164 211 264 310
#     4  10  20  33  49  71 102 138 173 209 250 298
#     4   9  18  33  53  76 101 130 167 211 256 304
#     4   9  19  37  58  79 107 141 172 208 257 308
#     4  10  21  35  50  70  95 124 163 210 258 308
#     4  10  21  34  48  69  99 133 166 203 248 300
#     4  10  22  39  60  86 112 138 171 207 245 301
#
# _framework density 17.39742
#
# number of rings (size 3 to 8) (size 9 to 14) (size 15 to 20)
#    0.000    2.400    0.000    2.800    0.933    8.333 
#    0.000    4.000    0.000    0.000    0.000    1.867 
#    0.000    0.267    0.000    2.933    0.000    2.133 
#
# Total GULP energy -669181.568155 kJ/mol
# GULP energy per Si atom -5576.513068 kJ/mol
# Density = 1.735782 g / cm^3
# Si number density = 17.397420 Si / 1000 Ang^3
#
#
#
# Elastic Constant Matrix: (Units=GPa)
#
#
# Indices 1 2 3 4 5 6 
#
# 1 76.8508 73.1486 28.5775 0.0000 0.0000 0.0000
# 2 73.1486 76.8343 28.5758 0.0000 0.0000 0.0000
# 3 28.5775 28.5758 37.6401 0.0000 0.0000 0.0000
# 4 0.0000 0.0000 0.0000 24.3871 0.0000 0.0000
# 5 0.0000 0.0000 0.0000 0.0000 24.3886 0.0000
# 6 0.0000 0.0000 0.0000 0.0000 0.0000 4.9369
#
#
#
# Elastic Compliance Matrix: (Units=1/GPa)
#
#
# Indices 1 2 3 4 5 6 
#
# 1 0.140031 -0.130667 -0.007115 0.000000 0.000000 0.000000
# 2 -0.130667 0.140066 -0.007129 0.000000 0.000000 0.000000
# 3 -0.007115 -0.007129 0.037382 0.000000 0.000000 0.000000
# 4 0.000000 0.000000 0.000000 0.041005 0.000000 0.000000
# 5 0.000000 0.000000 0.000000 0.000000 0.041003 0.000000
# 6 0.000000 0.000000 0.000000 0.000000 0.000000 0.202557
#
#
# Mechanical properties :
#
#
# Convention : Reuss Voigt Hill
#
# Bulk Modulus (GPa) = 36.15951 50.21433 43.18692
# Shear Modulus (GPa) = 5.54887 14.81074 10.17981
#
# Velocity S-wave (km/s) = 1.78785 2.92090 2.42158
# Velocity P-wave (km/s) = 5.00913 6.34833 5.71807
#
# Compressibility (1/GPa) = 0.02765524
#
# Stress axis : x y z
#
# Youngs Moduli (GPa) = 7.14130 7.13951 26.75111
#
# Poissons Ratio (x) = 0.93290 0.19034
# Poissons Ratio (y) = 0.93313 0.19071
# Poissons Ratio (z) = 0.05081 0.05090
#
# Static dielectric constant tensor:
#      x y z
#    x 1.584900 0.000000 0.000000 
#    y 0.000000 1.584900 0.000000 
#    z 0.000000 0.000000 1.612450 
# 
# From -- ./inp_files/2065.got.cif
#   From: 2010.05.17/outbox.cif.g08.bks.cpg/sg123_2_cif.got.tgz:2065.got - 2010.05.20 11:43:04.
