data_PCOD9562852
_publ_section_title
;
Structure prediction by ZEFSAII (Michael W. Deem and Ramdas Pophale) SiO2 
 PCOD9562852
Probable space group: P 4/M C C
;
_chemical_formula_sum "Si O2"
_cell_formula_units_Z 112
_cell_length_a 18.351930
_cell_length_b 18.351930
_cell_length_c 14.358507
_cell_angle_alpha 90.000000
_cell_angle_beta 90.000000
_cell_angle_gamma 90.000000
_cell_volume 4835.849454
_symmetry_space_group_name_H-M "P 4/M C C"
_symmetry_group_IT_number 124
_symmetry_cell_setting 'tetragonal'
loop_
_space_group_symop_operation_xyz
x,y,z
-y,x,z
-x,-y,z
y,-x,z
x,-y,1/2-z
-x,y,1/2-z
y,x,1/2-z
-y,-x,1/2-z
-x,-y,-z
y,-x,-z
x,y,-z
-y,x,-z
-x,y,1/2+z
x,-y,1/2+z
-y,-x,1/2+z
y,x,1/2+z
loop_
_atom_site_type_symbol
_atom_site_label
_atom_site_fract_x
_atom_site_fract_y
_atom_site_fract_z
Si Si1 0.285858 0.239707 0.387631
Si Si2 0.069428 0.196504 0.366695
Si Si3 0.450377 0.230407 0.613236
Si Si4 0.662745 0.838384 0.104535
Si Si5 0.492271 0.381730 0.113023
Si Si6 0.080903 0.522161 0.886322
Si Si7 0.806851 0.094448 0.144188
O O1 0.285258 0.248561 0.500000
O O2 0.368339 0.245780 0.356338
O O3 0.233866 0.303878 0.349302
O O4 0.250830 0.159686 0.371527
O O5 0.111923 0.266294 0.402198
O O6 0.079767 0.195122 0.254802
O O7 0.116129 0.125456 0.392101
O O8 0.986048 0.203593 0.394952
O O9 0.451251 0.230618 0.500000
O O10 0.502814 0.297259 0.642319
O O11 0.470636 0.148297 0.640675
O O12 0.600427 0.888933 0.146720
O O13 0.636136 0.818241 0.000000
O O14 0.566467 0.424886 0.140782
O O15 0.490519 0.381329 0.000000
O O16 0.000000 0.500000 0.855039
O O17 0.076699 0.523461 0.000000
#
# Coordination Sequence:
#
# PCOD9562852 Si02
#       7
#    16  16  16  16  16  16  16
#     4   9  18  30  46  70  94 123 161 198 233 276
#     4   9  18  32  50  70  92 122 152 192 237 282
#     4   9  17  26  41  62  88 122 157 193 231 275
#     4   9  18  31  48  69  95 124 157 194 233 277
#     4   8  14  23  36  57  87 122 154 187 234 284
#     4   9  18  29  41  63  92 124 158 190 229 276
#     4   9  18  32  49  70  93 119 157 191 236 285
#
# _framework density 23.160357000000001
#
# number of rings (size 3 to 8) (size 9 to 14) (size 15 to 20)
#    0.000    3.143    0.000    0.429    4.000    0.857 
#    0.000    1.429    0.000    0.857    0.000    4.000 
#    0.000    0.000    0.000    0.000    0.286    0.000 
#
# Total GULP energy -624750.451801 kJ/mol
# GULP energy per Si atom -5578.129034 kJ/mol
# Density = 2.310764 g / cm^3
# Si number density = 23.160357 Si / 1000 Ang^3
#
#
#
# Elastic Constant Matrix: (Units=GPa)
#
#
# Indices 1 2 3 4 5 6 
#
# 1 132.6657 45.1421 -3.4165 0.0000 0.0000 0.0000
# 2 45.1421 132.6657 -3.4165 0.0000 0.0000 0.0000
# 3 -3.4165 -3.4165 86.4309 0.0000 0.0000 0.0000
# 4 0.0000 0.0000 0.0000 -2.6493 0.0000 0.0000
# 5 0.0000 0.0000 0.0000 0.0000 -2.6493 0.0000
# 6 0.0000 0.0000 0.0000 0.0000 0.0000 16.0182
#
#
#
# Elastic Compliance Matrix: (Units=1/GPa)
#
#
# Indices 1 2 3 4 5 6 
#
# 1 0.008529 -0.002896 0.000223 0.000000 0.000000 0.000000
# 2 -0.002896 0.008529 0.000223 0.000000 0.000000 0.000000
# 3 0.000223 0.000223 0.011588 0.000000 0.000000 0.000000
# 4 0.000000 0.000000 0.000000 -0.377461 0.000000 0.000000
# 5 0.000000 0.000000 0.000000 0.000000 -0.377461 0.000000
# 6 0.000000 0.000000 0.000000 0.000000 0.000000 0.062429
#
#
# Mechanical properties :
#
#
# Convention : Reuss Voigt Hill
#
# Bulk Modulus (GPa) = 42.11708 47.59786 44.85747
# Shear Modulus (GPa) = -7.68013 23.04081 7.68034
#
# Velocity S-wave (km/s) = -1.82298 3.15753 1.82301
# Velocity P-wave (km/s) = 3.71395 5.82146 4.88277
#
# Compressibility (1/GPa) = 0.02374334
#
# Stress axis : x y z
#
# Youngs Moduli (GPa) = 117.24641 117.24641 86.29959
#
# Poissons Ratio (x) = 0.33960 -0.01921
# Poissons Ratio (y) = 0.33960 -0.01921
# Poissons Ratio (z) = -0.02610 -0.02610
#
# Static dielectric constant tensor:
#      x y z
#    x 1.861220 0.000000 0.000000 
#    y 0.000000 1.861220 0.000000 
#    z 0.000000 0.000000 1.942690 
# 
# From -- ./inp_files/5559.got.cif
#   From: 2010.05.17/outbox.cif.g08.bks.cpg/sg124_3_cif.got.tgz:5559.got - 2010.05.20 11:49:17.
