data_PCOD9562369
_publ_section_title
;
Structure prediction by ZEFSAII (Michael W. Deem and Ramdas Pophale) SiO2 
 PCOD9562369
Probable space group: P 4/M C C
;
_chemical_formula_sum "Si O2"
_cell_formula_units_Z 64
_cell_length_a 23.355277
_cell_length_b 23.355277
_cell_length_c 9.172898
_cell_angle_alpha 90.000000
_cell_angle_beta 90.000000
_cell_angle_gamma 90.000000
_cell_volume 5003.531167
_symmetry_space_group_name_H-M "P 4/M C C"
_symmetry_group_IT_number 124
_symmetry_cell_setting 'tetragonal'
loop_
_space_group_symop_operation_xyz
x,y,z
-y,x,z
-x,-y,z
y,-x,z
x,-y,1/2-z
-x,y,1/2-z
y,x,1/2-z
-y,-x,1/2-z
-x,-y,-z
y,-x,-z
x,y,-z
-y,x,-z
-x,y,1/2+z
x,-y,1/2+z
-y,-x,1/2+z
y,x,1/2+z
loop_
_atom_site_type_symbol
_atom_site_label
_atom_site_fract_x
_atom_site_fract_y
_atom_site_fract_z
Si Si1 0.562022 0.945766 0.172681
Si Si2 0.647391 0.727857 0.333527
Si Si3 0.447824 0.370519 0.662598
Si Si4 0.814895 0.437145 0.826402
O O1 0.500000 0.943035 0.250000
O O2 0.583522 0.880935 0.191075
O O3 0.592121 0.000000 0.250000
O O4 0.556748 0.956636 0.000000
O O5 0.702888 0.702888 0.250000
O O6 0.660233 0.745973 0.500000
O O7 0.603600 0.674389 0.344156
O O8 0.610754 0.774655 0.245450
O O9 0.500000 0.343536 0.750000
O O10 0.425078 0.425078 0.750000
O O11 0.465899 0.385293 0.500000
O O12 0.808378 0.500000 0.750000
O O13 0.803425 0.443651 0.000000
#
# Coordination Sequence:
#
# PCOD9562369 Si02
#       4
#    16  16  16  16
#     4   9  16  25  38  56  78 101 122 146 175 211
#     4  10  20  32  45  58  73  93 116 146 181 216
#     4  10  20  32  44  56  68  82 102 130 166 208
#     4  10  19  29  42  60  79  99 124 151 182 222
#
# _framework density 12.790965999999999
#
# number of rings (size 3 to 8) (size 9 to 14) (size 15 to 20)
#    0.000    2.250    0.000    4.500    0.000    8.250 
#    0.000    1.250    0.000    0.000    0.000    0.000 
#    0.000    0.000    0.000    0.000    0.000    0.000 
#
# Total GULP energy -356294.517438 kJ/mol
# GULP energy per Si atom -5567.101835 kJ/mol
# Density = 1.276185 g / cm^3
# Si number density = 12.790966 Si / 1000 Ang^3
#
#
#
# Elastic Constant Matrix: (Units=GPa)
#
#
# Indices 1 2 3 4 5 6 
#
# 1 58.7393 19.7527 43.1171 0.0000 0.0000 0.0000
# 2 19.7527 58.7393 43.1171 0.0000 0.0000 0.0000
# 3 43.1171 43.1171 125.2959 0.0000 0.0000 0.0000
# 4 0.0000 0.0000 0.0000 15.3788 0.0000 0.0000
# 5 0.0000 0.0000 0.0000 0.0000 15.3788 0.0000
# 6 0.0000 0.0000 0.0000 0.0000 0.0000 3.6798
#
#
#
# Elastic Compliance Matrix: (Units=1/GPa)
#
#
# Indices 1 2 3 4 5 6 
#
# 1 0.023067 -0.002583 -0.007049 0.000000 0.000000 0.000000
# 2 -0.002583 0.023067 -0.007049 0.000000 0.000000 0.000000
# 3 -0.007049 -0.007049 0.012833 0.000000 0.000000 0.000000
# 4 0.000000 0.000000 0.000000 0.065025 0.000000 0.000000
# 5 0.000000 0.000000 0.000000 0.000000 0.065025 0.000000
# 6 0.000000 0.000000 0.000000 0.000000 0.000000 0.271750
#
#
# Mechanical properties :
#
#
# Convention : Reuss Voigt Hill
#
# Bulk Modulus (GPa) = 39.05461 50.52758 44.79109
# Shear Modulus (GPa) = 9.94701 16.00666 12.97683
#
# Velocity S-wave (km/s) = 2.79168 3.54136 3.18863
# Velocity P-wave (km/s) = 6.40239 7.50399 6.97497
#
# Compressibility (1/GPa) = 0.02560517
#
# Stress axis : x y z
#
# Youngs Moduli (GPa) = 43.35142 43.35142 77.92580
#
# Poissons Ratio (x) = 0.11196 0.54932
# Poissons Ratio (y) = 0.11196 0.54932
# Poissons Ratio (z) = 0.30560 0.30560
#
# Static dielectric constant tensor:
#      x y z
#    x 1.429760 0.000000 0.000000 
#    y 0.000000 1.429760 0.000000 
#    z 0.000000 0.000000 1.452050 
# 
# From -- ./inp_files/862.got.cif
#   From: 2010.05.17/outbox.cif.g08.bks.cpg/sg124_1_cif.got.tgz:862.got - 2010.05.20 11:49:17.
