data_PCOD9562909
_publ_section_title
;
Structure prediction by ZEFSAII (Michael W. Deem and Ramdas Pophale) SiO2 
 PCOD9562909
Probable space group: P 4/N B M
;
_chemical_formula_sum "Si O2"
_cell_formula_units_Z 64
_cell_length_a 17.643702
_cell_length_b 17.643702
_cell_length_c 10.531457
_cell_angle_alpha 90.000000
_cell_angle_beta 90.000000
_cell_angle_gamma 90.000000
_cell_volume 3278.444884
_symmetry_space_group_name_H-M "P 4/N B M"
_symmetry_group_IT_number 125
_space_group.IT_coordinate_system_code '2'
_symmetry_cell_setting 'tetragonal'
loop_
_space_group_symop_operation_xyz
x,y,z
1/2-y,x,z
1/2-x,1/2-y,z
y,1/2-x,z
x,1/2-y,-z
1/2-x,y,-z
y,x,-z
1/2-y,1/2-x,-z
-x,-y,-z
1/2+y,-x,-z
1/2+x,1/2+y,-z
-y,1/2+x,-z
-x,1/2+y,z
1/2+x,-y,z
-y,-x,z
1/2+y,1/2+x,z
loop_
_atom_site_type_symbol
_atom_site_label
_atom_site_fract_x
_atom_site_fract_y
_atom_site_fract_z
Si Si1 0.480727 0.642207 0.862085
Si Si2 0.640996 0.859005 0.000000
Si Si3 0.555536 0.937322 0.650975
Si Si4 0.142019 0.198164 0.728730
Si Si5 0.750000 0.374450 0.000000
O O1 0.429002 0.570999 0.903331
O O2 0.556704 0.648272 0.943310
O O3 0.511029 0.619343 0.721959
O O4 0.428542 0.715217 0.890117
O O5 0.646518 0.802549 0.881608
O O6 0.560739 0.939262 0.500000
O O7 0.569840 0.851318 0.693402
O O8 0.476093 0.976093 0.689026
O O9 0.216632 0.152335 0.682278
O O10 0.818320 0.318320 0.041491
#
# Coordination Sequence:
#
# PCOD9562909 Si02
#       5
#    16   8  16  16   8
#     4   9  18  31  51  78 110 146 183 226 276 337
#     4  10  19  29  52  74 112 140 177 219 276 332
#     4   9  19  36  56  77 104 141 186 231 275 326
#     4  10  21  34  52  78 109 143 176 219 275 335
#     4   9  18  32  52  82 119 152 184 232 297 364
#
# _framework density 19.521450999999999
#
# number of rings (size 3 to 8) (size 9 to 14) (size 15 to 20)
#    0.000    2.625    0.000    1.125    7.000    3.000 
#    0.000    1.250    0.000    0.000    0.000    0.000 
#    0.000    2.000    0.000   27.250    0.000    1.750 
#
# Total GULP energy -356538.896728 kJ/mol
# GULP energy per Si atom -5570.920261 kJ/mol
# Density = 1.947702 g / cm^3
# Si number density = 19.521451 Si / 1000 Ang^3
#
#
#
# Elastic Constant Matrix: (Units=GPa)
#
#
# Indices 1 2 3 4 5 6 
#
# 1 84.5690 43.3498 18.9856 0.0000 0.0000 0.0000
# 2 43.3498 84.5684 18.9862 0.0000 0.0000 0.0000
# 3 18.9856 18.9862 46.7023 0.0000 0.0000 0.0000
# 4 0.0000 0.0000 0.0000 11.3533 0.0000 0.0000
# 5 0.0000 0.0000 0.0000 0.0000 11.3532 0.0000
# 6 0.0000 0.0000 0.0000 0.0000 0.0000 34.7322
#
#
#
# Elastic Compliance Matrix: (Units=1/GPa)
#
#
# Indices 1 2 3 4 5 6 
#
# 1 0.016575 -0.007685 -0.003614 0.000000 0.000000 0.000000
# 2 -0.007685 0.016576 -0.003614 0.000000 0.000000 0.000000
# 3 -0.003614 -0.003614 0.024351 0.000000 0.000000 0.000000
# 4 0.000000 0.000000 0.000000 0.088080 0.000000 0.000000
# 5 0.000000 0.000000 0.000000 0.000000 0.088081 0.000000
# 6 0.000000 0.000000 0.000000 0.000000 0.000000 0.028792
#
#
# Mechanical properties :
#
#
# Convention : Reuss Voigt Hill
#
# Bulk Modulus (GPa) = 36.13411 42.05365 39.09388
# Shear Modulus (GPa) = 16.58338 20.45561 18.51950
#
# Velocity S-wave (km/s) = 2.91777 3.24057 3.08340
# Velocity P-wave (km/s) = 5.46821 5.96580 5.72242
#
# Compressibility (1/GPa) = 0.02767468
#
# Stress axis : x y z
#
# Youngs Moduli (GPa) = 60.33030 60.32946 41.06647
#
# Poissons Ratio (x) = 0.46364 0.14841
# Poissons Ratio (y) = 0.46365 0.14843
# Poissons Ratio (z) = 0.21803 0.21805
#
# Static dielectric constant tensor:
#      x y z
#    x 1.725890 0.000000 0.000000 
#    y 0.000000 1.725890 0.000000 
#    z 0.000000 0.000000 1.703060 
# 
# From -- ./inp_files/3728.got.cif
#   From: 2010.05.17/outbox.cif.g08.bks.cpg/sg125_2_cif.got.tgz:3728.got - 2010.05.20 11:54:10.
