data_PCOD9562906
_publ_section_title
;
Structure prediction by ZEFSAII (Michael W. Deem and Ramdas Pophale) SiO2 
 PCOD9562906
Probable space group: P 4/N B M
;
_chemical_formula_sum "Si O2"
_cell_formula_units_Z 58
_cell_length_a 15.430456
_cell_length_b 15.430456
_cell_length_c 13.291824
_cell_angle_alpha 90.000000
_cell_angle_beta 90.000000
_cell_angle_gamma 90.000000
_cell_volume 3164.769635
_symmetry_space_group_name_H-M "P 4/N B M"
_symmetry_group_IT_number 125
_space_group.IT_coordinate_system_code '2'
_symmetry_cell_setting 'tetragonal'
loop_
_space_group_symop_operation_xyz
x,y,z
1/2-y,x,z
1/2-x,1/2-y,z
y,1/2-x,z
x,1/2-y,-z
1/2-x,y,-z
y,x,-z
1/2-y,1/2-x,-z
-x,-y,-z
1/2+y,-x,-z
1/2+x,1/2+y,-z
-y,1/2+x,-z
-x,1/2+y,z
1/2+x,-y,z
-y,-x,z
1/2+y,1/2+x,z
loop_
_atom_site_type_symbol
_atom_site_label
_atom_site_fract_x
_atom_site_fract_y
_atom_site_fract_z
Si Si1 0.579297 0.932660 0.813129
Si Si2 0.250000 0.750000 0.000000
Si Si3 0.006387 0.763341 0.117780
Si Si4 0.818753 0.181248 0.806226
Si Si5 0.147847 0.354245 0.616335
O O1 0.557659 0.845002 0.873819
O O2 0.671334 0.969760 0.847783
O O3 0.590989 0.905138 0.696824
O O4 0.503401 0.003401 0.827467
O O5 0.194092 0.805909 0.074072
O O6 0.082222 0.790123 0.198524
O O7 0.029230 0.750000 0.000000
O O8 0.750000 0.250000 0.760067
O O9 0.132207 0.251118 0.631674
O O10 0.126827 0.373174 0.500000
#
# Coordination Sequence:
#
# PCOD9562906 Si02
#       5
#    16   2  16   8  16
#     4  12  25  38  61  91 119 155 202 248 300 353
#     4   8  16  32  60  72  96 156 218 236 272 316
#     4  12  24  39  56  85 123 161 203 244 287 345
#     4  10  18  36  58  77 108 159 212 241 279 335
#     4   9  18  38  65  86 110 148 192 244 303 363
#
# _framework density 18.32677
#
# number of rings (size 3 to 8) (size 9 to 14) (size 15 to 20)
#    0.414    0.828    5.517    2.483    1.931    2.207 
#    0.000    1.379    0.000    0.000    0.000    0.000 
#    0.000    4.414    0.000    0.000    0.000    0.000 
#
# Total GULP energy -322897.373380 kJ/mol
# GULP energy per Si atom -5567.196093 kJ/mol
# Density = 1.828506 g / cm^3
# Si number density = 18.326770 Si / 1000 Ang^3
#
#
#
# Elastic Constant Matrix: (Units=GPa)
#
#
# Indices 1 2 3 4 5 6 
#
# 1 100.8198 47.1147 23.1001 0.0000 0.0000 0.0000
# 2 47.1147 100.8195 23.1000 0.0000 0.0000 0.0000
# 3 23.1001 23.1000 62.9304 0.0000 0.0000 0.0000
# 4 0.0000 0.0000 0.0000 6.9403 0.0000 0.0000
# 5 0.0000 0.0000 0.0000 0.0000 6.9403 0.0000
# 6 0.0000 0.0000 0.0000 0.0000 0.0000 27.0254
#
#
#
# Elastic Compliance Matrix: (Units=1/GPa)
#
#
# Indices 1 2 3 4 5 6 
#
# 1 0.013128 -0.005493 -0.002803 0.000000 0.000000 0.000000
# 2 -0.005493 0.013128 -0.002803 0.000000 0.000000 0.000000
# 3 -0.002803 -0.002803 0.017948 0.000000 0.000000 0.000000
# 4 0.000000 0.000000 0.000000 0.144086 0.000000 0.000000
# 5 0.000000 0.000000 0.000000 0.000000 0.144085 0.000000
# 6 0.000000 0.000000 0.000000 0.000000 0.000000 0.037002
#
#
# Mechanical properties :
#
#
# Convention : Reuss Voigt Hill
#
# Bulk Modulus (GPa) = 45.43867 50.13326 47.78596
# Shear Modulus (GPa) = 12.53421 19.59821 16.06621
#
# Velocity S-wave (km/s) = 2.61804 3.27368 2.96404
# Velocity P-wave (km/s) = 5.82978 6.45786 6.15184
#
# Compressibility (1/GPa) = 0.02200769
#
# Stress axis : x y z
#
# Youngs Moduli (GPa) = 76.17539 76.17517 55.71625
#
# Poissons Ratio (x) = 0.41840 0.15615
# Poissons Ratio (y) = 0.41840 0.15615
# Poissons Ratio (z) = 0.21349 0.21349
#
# Static dielectric constant tensor:
#      x y z
#    x 1.693070 0.000000 0.000000 
#    y 0.000000 1.693070 0.000000 
#    z 0.000000 0.000000 1.625570 
# 
# From -- ./inp_files/4661.got.cif
#   From: 2010.05.17/outbox.cif.g08.bks.cpg/sg125_3_cif.got.tgz:4661.got - 2010.05.20 11:54:10.
