data_PCOD9562940
_publ_section_title
;
Structure prediction by ZEFSAII (Michael W. Deem and Ramdas Pophale) SiO2 
 PCOD9562940
Probable space group: P 4/N B M
;
_chemical_formula_sum "Si O2"
_cell_formula_units_Z 80
_cell_length_a 27.926790
_cell_length_b 27.926790
_cell_length_c 5.231059
_cell_angle_alpha 90.000000
_cell_angle_beta 90.000000
_cell_angle_gamma 90.000000
_cell_volume 4079.732206
_symmetry_space_group_name_H-M "P 4/N B M"
_symmetry_group_IT_number 125
_space_group.IT_coordinate_system_code '2'
_symmetry_cell_setting 'tetragonal'
loop_
_space_group_symop_operation_xyz
x,y,z
1/2-y,x,z
1/2-x,1/2-y,z
y,1/2-x,z
x,1/2-y,-z
1/2-x,y,-z
y,x,-z
1/2-y,1/2-x,-z
-x,-y,-z
1/2+y,-x,-z
1/2+x,1/2+y,-z
-y,1/2+x,-z
-x,1/2+y,z
1/2+x,-y,z
-y,-x,z
1/2+y,1/2+x,z
loop_
_atom_site_type_symbol
_atom_site_label
_atom_site_fract_x
_atom_site_fract_y
_atom_site_fract_z
Si Si1 0.637759 0.440555 0.602475
Si Si2 0.192589 0.436293 0.999233
Si Si3 0.805286 0.451240 0.920216
Si Si4 0.062101 0.479714 0.747746
Si Si5 0.382275 0.192321 0.502967
O O1 0.597368 0.402633 0.521591
O O2 0.676280 0.443920 0.370730
O O3 0.609485 0.489432 0.679328
O O4 0.662921 0.424886 0.866465
O O5 0.175176 0.413132 0.738266
O O6 0.250000 0.429240 0.000000
O O7 0.186231 0.492392 0.030932
O O8 0.174226 0.408337 0.243687
O O9 0.750000 0.441859 0.000000
O O10 0.051390 0.448611 0.500000
O O11 0.020921 0.520921 0.767968
O O12 0.053310 0.446691 0.000000
O O13 0.380974 0.250000 0.500000
O O14 0.329853 0.170148 0.500000
#
# Coordination Sequence:
#
# PCOD9562940 Si02
#       5
#    16  16  16  16  16
#     4  11  22  37  59  88 120 151 187 235 286 338
#     4   9  19  35  53  71  97 137 179 221 269 321
#     4  11  22  39  60  82 112 151 192 231 281 338
#     4   9  17  31  50  72 105 149 186 217 266 330
#     4  10  19  33  52  74 103 137 178 233 290 338
#
# _framework density 19.609128999999999
#
# number of rings (size 3 to 8) (size 9 to 14) (size 15 to 20)
#    0.000    2.000    0.000    4.200    0.000    6.600 
#    0.000   10.000    0.000    3.600    0.000    0.000 
#    0.000   28.000    0.000    0.000    0.000    0.000 
#
# Total GULP energy -446112.567784 kJ/mol
# GULP energy per Si atom -5576.407097 kJ/mol
# Density = 1.956450 g / cm^3
# Si number density = 19.609129 Si / 1000 Ang^3
#
#
#
# Elastic Constant Matrix: (Units=GPa)
#
#
# Indices 1 2 3 4 5 6 
#
# 1 56.9160 23.4843 28.6188 0.0000 0.0000 0.0000
# 2 23.4843 56.9124 28.6178 0.0000 0.0000 0.0000
# 3 28.6188 28.6178 155.8811 0.0000 0.0000 0.0000
# 4 0.0000 0.0000 0.0000 24.6248 0.0000 0.0000
# 5 0.0000 0.0000 0.0000 0.0000 24.6236 0.0000
# 6 0.0000 0.0000 0.0000 0.0000 0.0000 25.7041
#
#
#
# Elastic Compliance Matrix: (Units=1/GPa)
#
#
# Indices 1 2 3 4 5 6 
#
# 1 0.022110 -0.007803 -0.002627 0.000000 0.000000 0.000000
# 2 -0.007803 0.022111 -0.002627 0.000000 0.000000 0.000000
# 3 -0.002627 -0.002627 0.007380 0.000000 0.000000 0.000000
# 4 0.000000 0.000000 0.000000 0.040609 0.000000 0.000000
# 5 0.000000 0.000000 0.000000 0.000000 0.040611 0.000000
# 6 0.000000 0.000000 0.000000 0.000000 0.000000 0.038904
#
#
# Mechanical properties :
#
#
# Convention : Reuss Voigt Hill
#
# Bulk Modulus (GPa) = 39.23329 47.90570 43.56949
# Shear Modulus (GPa) = 24.23244 27.58974 25.91109
#
# Velocity S-wave (km/s) = 3.51917 3.75505 3.63902
# Velocity P-wave (km/s) = 6.04680 6.57905 6.31853
#
# Compressibility (1/GPa) = 0.02548856
#
# Stress axis : x y z
#
# Youngs Moduli (GPa) = 45.22838 45.22551 135.50735
#
# Poissons Ratio (x) = 0.35288 0.35595
# Poissons Ratio (y) = 0.35290 0.35596
# Poissons Ratio (z) = 0.11881 0.11880
#
# Static dielectric constant tensor:
#      x y z
#    x 1.694990 0.000000 0.000000 
#    y 0.000000 1.694990 0.000000 
#    z 0.000000 0.000000 1.732330 
# 
# From -- ./inp_files/1159.got.cif
#   From: 2010.05.17/outbox.cif.g08.bks.cpg/sg125_1_cif.got.tgz:1159.got - 2010.05.20 11:54:10.
