data_PCOD9562152
_publ_section_title
;
Structure prediction by ZEFSAII (Michael W. Deem and Ramdas Pophale) SiO2 
 PCOD9562152
Probable space group: P 4/M M M
;
_chemical_formula_sum "Si O2"
_cell_formula_units_Z 48
_cell_length_a 13.996833
_cell_length_b 13.996833
_cell_length_c 15.622125
_cell_angle_alpha 90.000000
_cell_angle_beta 90.000000
_cell_angle_gamma 90.000000
_cell_volume 3060.551349
_symmetry_space_group_name_H-M "P 4/M M M"
_symmetry_group_IT_number 123
_symmetry_cell_setting 'tetragonal'
loop_
_space_group_symop_operation_xyz
x,y,z
-y,x,z
-x,-y,z
y,-x,z
x,-y,-z
-x,y,-z
y,x,-z
-y,-x,-z
-x,-y,-z
y,-x,-z
x,y,-z
-y,x,-z
-x,y,z
x,-y,z
-y,-x,z
y,x,z
loop_
_atom_site_type_symbol
_atom_site_label
_atom_site_fract_x
_atom_site_fract_y
_atom_site_fract_z
Si Si1 0.116379 0.392382 0.000000
Si Si2 0.266758 0.887999 0.839805
Si Si3 0.614082 0.774116 0.500000
Si Si4 0.886495 0.271921 0.642069
O O1 0.145317 0.338503 0.913510
O O2 0.151540 0.500000 0.000000
O O3 0.000000 0.394592 0.000000
O O4 0.169671 0.830330 0.849420
O O5 0.300288 0.874953 0.741874
O O6 0.250158 0.000000 0.852042
O O7 0.500000 0.761194 0.500000
O O8 0.675271 0.675271 0.500000
O O9 0.651240 0.835901 0.581086
O O10 0.827275 0.172726 0.629690
O O11 0.000000 0.261885 0.624463
#
# Coordination Sequence:
#
# PCOD9562152 Si02
#       4
#     8  16   8  16
#     4   9  17  28  41  59  85 117 153 191 227 262
#     4   9  17  29  45  66  93 122 151 184 221 266
#     4  10  21  36  52  70  92 118 153 198 242 282
#     4   9  18  31  47  70  98 126 156 188 225 274
#
# _framework density 15.683449
#
# number of rings (size 3 to 8) (size 9 to 14) (size 15 to 20)
#    0.000    2.833    0.000    1.000    0.000    3.500 
#    0.000    6.667    0.000    6.000    0.000    0.000 
#    0.000    5.333    0.000    0.000    0.000    1.000 
#
# Total GULP energy -267242.558334 kJ/mol
# GULP energy per Si atom -5567.553299 kJ/mol
# Density = 1.564775 g / cm^3
# Si number density = 15.683449 Si / 1000 Ang^3
#
#
#
# Elastic Constant Matrix: (Units=GPa)
#
#
# Indices 1 2 3 4 5 6 
#
# 1 100.2985 55.0147 71.0130 0.0000 0.0000 0.0000
# 2 55.0147 100.2985 71.0130 0.0000 0.0000 0.0000
# 3 71.0130 71.0130 112.8868 0.0000 0.0000 0.0000
# 4 0.0000 0.0000 0.0000 17.5004 0.0000 0.0000
# 5 0.0000 0.0000 0.0000 0.0000 17.5004 0.0000
# 6 0.0000 0.0000 0.0000 0.0000 0.0000 6.5931
#
#
#
# Elastic Compliance Matrix: (Units=1/GPa)
#
#
# Indices 1 2 3 4 5 6 
#
# 1 0.018621 -0.003462 -0.009536 0.000000 0.000000 0.000000
# 2 -0.003462 0.018621 -0.009536 0.000000 0.000000 0.000000
# 3 -0.009536 -0.009536 0.020856 0.000000 0.000000 0.000000
# 4 0.000000 0.000000 0.000000 0.057142 0.000000 0.000000
# 5 0.000000 0.000000 0.000000 0.000000 0.057142 0.000000
# 6 0.000000 0.000000 0.000000 0.000000 0.000000 0.151674
#
#
# Mechanical properties :
#
#
# Convention : Reuss Voigt Hill
#
# Bulk Modulus (GPa) = 76.74687 78.61837 77.68262
# Shear Modulus (GPa) = 13.38814 16.08164 14.73489
#
# Velocity S-wave (km/s) = 2.92490 3.20564 3.06848
# Velocity P-wave (km/s) = 7.77482 7.99616 7.88627
#
# Compressibility (1/GPa) = 0.01302985
#
# Stress axis : x y z
#
# Youngs Moduli (GPa) = 53.70358 53.70358 47.94895
#
# Poissons Ratio (x) = 0.18593 0.45722
# Poissons Ratio (y) = 0.18593 0.45722
# Poissons Ratio (z) = 0.51210 0.51210
#
# Static dielectric constant tensor:
#      x y z
#    x 1.500030 0.000000 0.000000 
#    y 0.000000 1.500030 0.000000 
#    z 0.000000 0.000000 1.560670 
# 
# From -- ./inp_files/4833.got.cif
#   From: 2010.05.17/outbox.cif.g08.bks.cpg/sg123_3_cif.got.tgz:4833.got - 2010.05.20 11:43:04.
