data_PCOD9562816
_publ_section_title
;
Structure prediction by ZEFSAII (Michael W. Deem and Ramdas Pophale) SiO2 
 PCOD9562816
Probable space group: P 4/M C C
;
_chemical_formula_sum "Si O2"
_cell_formula_units_Z 60
_cell_length_a 11.486066
_cell_length_b 11.486066
_cell_length_c 19.931883
_cell_angle_alpha 90.000000
_cell_angle_beta 90.000000
_cell_angle_gamma 90.000000
_cell_volume 2629.607587
_symmetry_space_group_name_H-M "P 4/M C C"
_symmetry_group_IT_number 124
_symmetry_cell_setting 'tetragonal'
loop_
_space_group_symop_operation_xyz
x,y,z
-y,x,z
-x,-y,z
y,-x,z
x,-y,1/2-z
-x,y,1/2-z
y,x,1/2-z
-y,-x,1/2-z
-x,-y,-z
y,-x,-z
x,y,-z
-y,x,-z
-x,y,1/2+z
x,-y,1/2+z
-y,-x,1/2+z
y,x,1/2+z
loop_
_atom_site_type_symbol
_atom_site_label
_atom_site_fract_x
_atom_site_fract_y
_atom_site_fract_z
Si Si1 0.123120 0.564958 0.928003
Si Si2 0.500000 0.500000 0.633391
Si Si3 0.803992 0.196009 0.250000
Si Si4 0.070212 0.177564 0.383856
Si Si5 0.733746 0.432335 0.681284
O O1 0.107358 0.702675 0.917854
O O2 0.182635 0.508196 0.864060
O O3 0.000000 0.500000 0.931551
O O4 0.184453 0.543985 0.000000
O O5 0.614708 0.414518 0.640203
O O6 0.806515 0.092347 0.303930
O O7 0.794970 0.313247 0.295144
O O8 0.937008 0.145820 0.400820
O O9 0.702097 0.500000 0.750000
#
# Coordination Sequence:
#
# PCOD9562816 Si02
#       5
#    16   4   8  16  16
#     4  11  26  47  68  98 138 182 231 283 346 425
#     4  12  21  40  65 102 137 168 225 286 353 412
#     4  12  22  40  68 102 142 180 230 292 352 408
#     4  11  24  43  68 100 136 181 233 286 345 410
#     4  12  21  39  71 101 134 180 229 288 349 417
#
# _framework density 22.817094000000001
#
# number of rings (size 3 to 8) (size 9 to 14) (size 15 to 20)
#    0.000    0.533    5.333    2.800    0.000    2.667 
#    0.000   10.000    0.000    0.000    0.000    0.000 
#    0.000    0.000    0.000    0.000    0.000    0.000 
#
# Total GULP energy -334573.314784 kJ/mol
# GULP energy per Si atom -5576.221913 kJ/mol
# Density = 2.276516 g / cm^3
# Si number density = 22.817094 Si / 1000 Ang^3
#
#
#
# Elastic Constant Matrix: (Units=GPa)
#
#
# Indices 1 2 3 4 5 6 
#
# 1 95.7229 26.1273 25.4265 0.0000 0.0000 0.0000
# 2 26.1273 95.7242 25.4264 0.0000 0.0000 0.0000
# 3 25.4265 25.4264 53.7923 0.0000 0.0000 0.0000
# 4 0.0000 0.0000 0.0000 -22.7015 0.0000 0.0000
# 5 0.0000 0.0000 0.0000 0.0000 -22.7023 0.0000
# 6 0.0000 0.0000 0.0000 0.0000 0.0000 26.8731
#
#
#
# Elastic Compliance Matrix: (Units=1/GPa)
#
#
# Indices 1 2 3 4 5 6 
#
# 1 0.012296 -0.002073 -0.004832 0.000000 0.000000 0.000000
# 2 -0.002073 0.012296 -0.004832 0.000000 0.000000 0.000000
# 3 -0.004832 -0.004832 0.023158 0.000000 0.000000 0.000000
# 4 0.000000 0.000000 0.000000 -0.044050 0.000000 0.000000
# 5 0.000000 0.000000 0.000000 0.000000 -0.044048 0.000000
# 6 0.000000 0.000000 0.000000 0.000000 0.000000 0.037212
#
#
# Mechanical properties :
#
#
# Convention : Reuss Voigt Hill
#
# Bulk Modulus (GPa) = 41.19346 44.35552 42.77449
# Shear Modulus (GPa) = 175.86552 7.51114 91.68833
#
# Velocity S-wave (km/s) = 8.78883 1.81633 6.34597
# Velocity P-wave (km/s) = 11.00383 4.88677 8.51366
#
# Compressibility (1/GPa) = 0.02427570
#
# Stress axis : x y z
#
# Youngs Moduli (GPa) = 81.32629 81.32762 43.18088
#
# Poissons Ratio (x) = 0.16855 0.20867
# Poissons Ratio (y) = 0.16855 0.20867
# Poissons Ratio (z) = 0.39301 0.39300
#
# Static dielectric constant tensor:
#      x y z
#    x 1.888370 0.000000 0.000000 
#    y 0.000000 1.888370 0.000000 
#    z 0.000000 0.000000 1.867810 
# 
# From -- ./inp_files/4978.got.cif
#   From: 2010.05.17/outbox.cif.g08.bks.cpg/sg124_3_cif.got.tgz:4978.got - 2010.05.20 11:49:17.
