data_PCOD9562112
_publ_section_title
;
Structure prediction by ZEFSAII (Michael W. Deem and Ramdas Pophale) SiO2 
 PCOD9562112
Probable space group: P 4/M M M
;
_chemical_formula_sum "Si O2"
_cell_formula_units_Z 120
_cell_length_a 17.829365
_cell_length_b 17.829365
_cell_length_c 20.203228
_cell_angle_alpha 90.000000
_cell_angle_beta 90.000000
_cell_angle_gamma 90.000000
_cell_volume 6422.328514
_symmetry_space_group_name_H-M "P 4/M M M"
_symmetry_group_IT_number 123
_symmetry_cell_setting 'tetragonal'
loop_
_space_group_symop_operation_xyz
x,y,z
-y,x,z
-x,-y,z
y,-x,z
x,-y,-z
-x,y,-z
y,x,-z
-y,-x,-z
-x,-y,-z
y,-x,-z
x,y,-z
-y,x,-z
-x,y,z
x,-y,z
-y,-x,z
y,x,z
loop_
_atom_site_type_symbol
_atom_site_label
_atom_site_fract_x
_atom_site_fract_y
_atom_site_fract_z
Si Si1 0.708728 0.587037 0.164354
Si Si2 0.914825 0.722870 0.253486
Si Si3 0.588758 0.000000 0.076698
Si Si4 0.087775 0.790309 0.603681
Si Si5 0.665810 0.793078 0.573493
Si Si6 0.648050 0.843243 0.924785
Si Si7 0.413823 0.807202 0.289419
Si Si8 0.087693 0.203755 0.889110
O O1 0.702394 0.500000 0.146140
O O2 0.633333 0.633333 0.155189
O O3 0.773693 0.624796 0.119755
O O4 0.735922 0.591084 0.240676
O O5 0.907119 0.776379 0.317227
O O6 0.861846 0.651362 0.262586
O O7 0.902766 0.770286 0.187242
O O8 0.000000 0.694885 0.252439
O O9 0.615863 0.078703 0.105345
O O10 0.500000 0.000000 0.076496
O O11 0.616157 0.000000 0.000000
O O12 0.136195 0.863806 0.585718
O O13 0.132043 0.717703 0.576206
O O14 0.000000 0.793942 0.585376
O O15 0.632249 0.787482 0.500000
O O16 0.724859 0.724859 0.582447
O O17 0.608568 0.792646 0.634447
O O18 0.735910 0.861028 0.926413
O O19 0.619379 0.833575 0.000000
O O20 0.500000 0.835171 0.284587
O O21 0.121893 0.121893 0.898679
O O22 0.000000 0.209956 0.906759
#
# Coordination Sequence:
#
# PCOD9562112 Si02
#       8
#    16  16   8  16  16  16  16  16
#     4  11  24  41  62  88 117 151 190 234 285 339
#     4   9  18  33  51  74 105 143 182 222 276 337
#     4   9  18  34  56  82 115 147 178 228 289 343
#     4   9  17  29  47  71 100 136 180 228 275 324
#     4   9  18  33  53  75 103 143 183 217 260 319
#     4  11  22  38  59  87 117 150 193 236 284 342
#     4  10  20  34  55  84 113 140 175 222 274 328
#     4  11  22  36  56  81 112 152 196 240 287 338
#
# _framework density 18.684811
#
# number of rings (size 3 to 8) (size 9 to 14) (size 15 to 20)
#    0.000    2.067    2.000    1.600    0.000    4.133 
#    0.000    0.000    0.000    2.400    0.000    7.467 
#    0.000    0.000    0.000   12.400    0.000    0.000 
#
# Total GULP energy -669470.936468 kJ/mol
# GULP energy per Si atom -5578.924471 kJ/mol
# Density = 1.864228 g / cm^3
# Si number density = 18.684811 Si / 1000 Ang^3
#
#
#
# Elastic Constant Matrix: (Units=GPa)
#
#
# Indices 1 2 3 4 5 6 
#
# 1 80.4305 65.0192 16.2195 0.0000 0.0000 0.0000
# 2 65.0192 80.4305 16.2195 0.0000 0.0000 0.0000
# 3 16.2195 16.2195 83.2268 0.0000 0.0000 0.0000
# 4 0.0000 0.0000 0.0000 12.4189 0.0000 0.0000
# 5 0.0000 0.0000 0.0000 0.0000 12.4189 0.0000
# 6 0.0000 0.0000 0.0000 0.0000 0.0000 8.1082
#
#
#
# Elastic Compliance Matrix: (Units=1/GPa)
#
#
# Indices 1 2 3 4 5 6 
#
# 1 0.036037 -0.028850 -0.001401 0.000000 0.000000 0.000000
# 2 -0.028850 0.036037 -0.001401 0.000000 0.000000 0.000000
# 3 -0.001401 -0.001401 0.012561 0.000000 0.000000 0.000000
# 4 0.000000 0.000000 0.000000 0.080522 0.000000 0.000000
# 5 0.000000 0.000000 0.000000 0.000000 0.080522 0.000000
# 6 0.000000 0.000000 0.000000 0.000000 0.000000 0.123331
#
#
# Mechanical properties :
#
#
# Convention : Reuss Voigt Hill
#
# Bulk Modulus (GPa) = 46.87445 48.77827 47.82636
# Shear Modulus (GPa) = 11.37849 16.36453 13.87151
#
# Velocity S-wave (km/s) = 2.47041 2.96264 2.72765
# Velocity P-wave (km/s) = 5.76876 6.15349 5.96423
#
# Compressibility (1/GPa) = 0.02133359
#
# Stress axis : x y z
#
# Youngs Moduli (GPa) = 27.74893 27.74893 79.60944
#
# Poissons Ratio (x) = 0.80055 0.11151
# Poissons Ratio (y) = 0.80055 0.11151
# Poissons Ratio (z) = 0.03887 0.03887
#
# Static dielectric constant tensor:
#      x y z
#    x 1.635890 0.000000 0.000000 
#    y 0.000000 1.635890 0.000000 
#    z 0.000000 0.000000 1.696560 
# 
# From -- ./inp_files/6778.got.cif
#   From: 2010.05.17/outbox.cif.g08.bks.cpg/sg123_4_cif.got.tgz:6778.got - 2010.05.20 11:43:04.
