data_PCOD9562548
_publ_section_title
;
Structure prediction by ZEFSAII (Michael W. Deem and Ramdas Pophale) SiO2 
 PCOD9562548
Probable space group: P 4/M C C
;
_chemical_formula_sum "Si O2"
_cell_formula_units_Z 128
_cell_length_a 19.767208
_cell_length_b 19.767208
_cell_length_c 18.720347
_cell_angle_alpha 90.000000
_cell_angle_beta 90.000000
_cell_angle_gamma 90.000000
_cell_volume 7314.835414
_symmetry_space_group_name_H-M "P 4/M C C"
_symmetry_group_IT_number 124
_symmetry_cell_setting 'tetragonal'
loop_
_space_group_symop_operation_xyz
x,y,z
-y,x,z
-x,-y,z
y,-x,z
x,-y,1/2-z
-x,y,1/2-z
y,x,1/2-z
-y,-x,1/2-z
-x,-y,-z
y,-x,-z
x,y,-z
-y,x,-z
-x,y,1/2+z
x,-y,1/2+z
-y,-x,1/2+z
y,x,1/2+z
loop_
_atom_site_type_symbol
_atom_site_label
_atom_site_fract_x
_atom_site_fract_y
_atom_site_fract_z
Si Si1 0.927872 0.264385 0.415169
Si Si2 0.417080 0.889752 0.086822
Si Si3 0.752885 0.423179 0.079091
Si Si4 0.691508 0.304991 0.667270
Si Si5 0.197265 0.193647 0.664850
Si Si6 0.913574 0.437718 0.080625
Si Si7 0.571162 0.266020 0.084793
Si Si8 0.717653 0.081907 0.585802
O O1 0.911830 0.260478 0.500000
O O2 0.917768 0.343462 0.393340
O O3 0.877487 0.215016 0.372809
O O4 0.007471 0.250273 0.406112
O O5 0.486572 0.926632 0.111878
O O6 0.418649 0.811506 0.109662
O O7 0.421038 0.890975 0.000000
O O8 0.741857 0.367046 0.137114
O O9 0.832089 0.439815 0.074673
O O10 0.715930 0.493138 0.096538
O O11 0.732121 0.398970 0.000000
O O12 0.682813 0.317188 0.750000
O O13 0.761322 0.265032 0.655640
O O14 0.689806 0.374427 0.624575
O O15 0.185440 0.185440 0.750000
O O16 0.137494 0.237591 0.627398
O O17 0.924647 0.361668 0.110581
O O18 0.943530 0.435497 0.000000
O O19 0.583010 0.267250 0.000000
O O20 0.715062 0.098603 0.500000
#
# Coordination Sequence:
#
# PCOD9562548 Si02
#       8
#    16  16  16  16  16  16  16  16
#     4  10  20  34  56  83 108 138 176 221 267 305
#     4   8  14  26  46  75 109 140 170 206 252 305
#     4   9  17  30  50  74 100 135 176 217 263 310
#     4  11  21  31  49  76 103 138 179 219 262 304
#     4  11  23  37  53  76 107 144 179 213 256 310
#     4   8  14  26  46  75 109 140 170 206 252 305
#     4   9  17  30  50  74 100 135 176 217 263 310
#     4  10  20  34  56  83 108 138 176 221 267 305
#
# _framework density 17.498684999999998
#
# number of rings (size 3 to 8) (size 9 to 14) (size 15 to 20)
#    0.000    2.500    2.500    2.250    0.000    2.500 
#    0.000    2.500    0.000    1.500    0.000    7.000 
#    0.000    0.000    0.000    0.000    0.000    0.000 
#
# Total GULP energy -712573.069394 kJ/mol
# GULP energy per Si atom -5566.977105 kJ/mol
# Density = 1.745886 g / cm^3
# Si number density = 17.498685 Si / 1000 Ang^3
#
#
#
# Elastic Constant Matrix: (Units=GPa)
#
#
# Indices 1 2 3 4 5 6 
#
# 1 7.4707 73.2223 24.1122 0.0000 0.0000 0.0000
# 2 73.2223 7.4719 24.1111 0.0000 0.0000 0.0000
# 3 24.1122 24.1111 35.5264 0.0000 0.0000 0.0000
# 4 0.0000 0.0000 0.0000 11.5451 0.0000 0.0000
# 5 0.0000 0.0000 0.0000 0.0000 11.5455 0.0000
# 6 0.0000 0.0000 0.0000 0.0000 0.0000 9.6209
#
#
#
# Elastic Compliance Matrix: (Units=1/GPa)
#
#
# Indices 1 2 3 4 5 6 
#
# 1 0.002819 0.018029 -0.014149 0.000000 0.000000 0.000000
# 2 0.018029 0.002820 -0.014150 0.000000 0.000000 0.000000
# 3 -0.014149 -0.014150 0.047355 0.000000 0.000000 0.000000
# 4 0.000000 0.000000 0.000000 0.086617 0.000000 0.000000
# 5 0.000000 0.000000 0.000000 0.000000 0.086614 0.000000
# 6 0.000000 0.000000 0.000000 0.000000 0.000000 0.103940
#
#
# Mechanical properties :
#
#
# Convention : Reuss Voigt Hill
#
# Bulk Modulus (GPa) = 30.81404 32.59558 31.70481
# Shear Modulus (GPa) = 13.83029 1.81053 7.82041
#
# Velocity S-wave (km/s) = 2.81439 1.01829 2.11633
# Velocity P-wave (km/s) = 5.31118 4.47777 4.91218
#
# Compressibility (1/GPa) = 0.03245274
#
# Stress axis : x y z
#
# Youngs Moduli (GPa) = 354.68063 354.57136 21.11712
#
# Poissons Ratio (x) = -6.39249 0.29879
# Poissons Ratio (y) = -6.39446 0.29882
# Poissons Ratio (z) = 5.01850 5.01733
#
# Static dielectric constant tensor:
#      x y z
#    x 1.618260 0.000000 0.000000 
#    y 0.000000 1.618260 0.000000 
#    z 0.000000 0.000000 1.578260 
# 
# From -- ./inp_files/4564.got.cif
#   From: 2010.05.17/outbox.cif.g08.bks.cpg/sg124_3_cif.got.tgz:4564.got - 2010.05.20 11:49:17.
