data_PCOD9562059
_publ_section_title
;
Structure prediction by ZEFSAII (Michael W. Deem and Ramdas Pophale) SiO2 
 PCOD9562059
Probable space group: P 4/M M M
;
_chemical_formula_sum "Si O2"
_cell_formula_units_Z 88
_cell_length_a 18.461358
_cell_length_b 18.461358
_cell_length_c 15.631238
_cell_angle_alpha 90.000000
_cell_angle_beta 90.000000
_cell_angle_gamma 90.000000
_cell_volume 5327.465721
_symmetry_space_group_name_H-M "P 4/M M M"
_symmetry_group_IT_number 123
_symmetry_cell_setting 'tetragonal'
loop_
_space_group_symop_operation_xyz
x,y,z
-y,x,z
-x,-y,z
y,-x,z
x,-y,-z
-x,y,-z
y,x,-z
-y,-x,-z
-x,-y,-z
y,-x,-z
x,y,-z
-y,x,-z
-x,y,z
x,-y,z
-y,-x,z
y,x,z
loop_
_atom_site_type_symbol
_atom_site_label
_atom_site_fract_x
_atom_site_fract_y
_atom_site_fract_z
Si Si1 0.203646 0.914331 0.149755
Si Si2 0.297536 0.581573 0.404510
Si Si3 0.084946 0.282414 0.327061
Si Si4 0.795190 0.912058 0.500000
Si Si5 0.584179 0.824658 0.739315
Si Si6 0.679149 0.800744 0.097044
O O1 0.130189 0.869812 0.131577
O O2 0.225222 0.905204 0.249814
O O3 0.269509 0.872055 0.103633
O O4 0.199752 0.000000 0.130404
O O5 0.263795 0.590558 0.500000
O O6 0.327515 0.500000 0.401673
O O7 0.359680 0.640321 0.395901
O O8 0.241360 0.588115 0.327585
O O9 0.111878 0.248859 0.415724
O O10 0.118780 0.358359 0.299043
O O11 0.000000 0.293742 0.337509
O O12 0.872279 0.872279 0.500000
O O13 0.802535 0.000000 0.500000
O O14 0.500000 0.847796 0.744765
O O15 0.616866 0.804441 0.831991
O O16 0.733667 0.733667 0.115278
O O17 0.652257 0.794110 0.000000
#
# Coordination Sequence:
#
# PCOD9562059 Si02
#       6
#    16  16  16   8  16  16
#     4   9  17  30  48  70  98 129 162 202 246 295
#     4   9  18  31  47  70  99 128 158 192 232 281
#     4   9  19  34  48  67  96 130 168 206 249 300
#     4  10  20  33  51  75 101 133 174 214 252 296
#     4  10  20  33  51  74  99 126 163 211 252 288
#     4   9  18  33  52  72  96 129 165 201 250 308
#
# _framework density 16.518173000000001
#
# number of rings (size 3 to 8) (size 9 to 14) (size 15 to 20)
#    0.000    2.727    0.000    1.091    1.273    3.727 
#    0.000    0.909    0.000    4.909    0.000    7.636 
#    0.000    0.000    0.000   16.909    0.000    0.182 
#
# Total GULP energy -490124.514921 kJ/mol
# GULP energy per Si atom -5569.596760 kJ/mol
# Density = 1.648058 g / cm^3
# Si number density = 16.518173 Si / 1000 Ang^3
#
#
#
# Elastic Constant Matrix: (Units=GPa)
#
#
# Indices 1 2 3 4 5 6 
#
# 1 66.0316 36.1901 25.9543 0.0000 0.0000 0.0000
# 2 36.1901 66.0316 25.9543 0.0000 0.0000 0.0000
# 3 25.9543 25.9543 89.7944 0.0000 0.0000 0.0000
# 4 0.0000 0.0000 0.0000 16.8798 0.0000 0.0000
# 5 0.0000 0.0000 0.0000 0.0000 16.8798 0.0000
# 6 0.0000 0.0000 0.0000 0.0000 0.0000 36.6725
#
#
#
# Elastic Compliance Matrix: (Units=1/GPa)
#
#
# Indices 1 2 3 4 5 6 
#
# 1 0.022488 -0.011022 -0.003314 0.000000 0.000000 0.000000
# 2 -0.011022 0.022488 -0.003314 0.000000 0.000000 0.000000
# 3 -0.003314 -0.003314 0.013052 0.000000 0.000000 0.000000
# 4 0.000000 0.000000 0.000000 0.059242 0.000000 0.000000
# 5 0.000000 0.000000 0.000000 0.000000 0.059242 0.000000
# 6 0.000000 0.000000 0.000000 0.000000 0.000000 0.027268
#
#
# Mechanical properties :
#
#
# Convention : Reuss Voigt Hill
#
# Bulk Modulus (GPa) = 43.99987 44.22832 44.11409
# Shear Modulus (GPa) = 20.27099 23.00370 21.63735
#
# Velocity S-wave (km/s) = 3.50693 3.73584 3.62320
# Velocity P-wave (km/s) = 6.56454 6.74110 6.65340
#
# Compressibility (1/GPa) = 0.02272734
#
# Stress axis : x y z
#
# Youngs Moduli (GPa) = 44.46825 44.46825 76.61475
#
# Poissons Ratio (x) = 0.49015 0.25390
# Poissons Ratio (y) = 0.49015 0.25390
# Poissons Ratio (z) = 0.14737 0.14737
#
# Static dielectric constant tensor:
#      x y z
#    x 1.541340 0.000000 0.000000 
#    y 0.000000 1.541340 0.000000 
#    z 0.000000 0.000000 1.585140 
# 
# From -- ./inp_files/4050.got.cif
#   From: 2010.05.17/outbox.cif.g08.bks.cpg/sg123_3_cif.got.tgz:4050.got - 2010.05.20 11:43:04.
