data_PCOD9562674
_publ_section_title
;
Structure prediction by ZEFSAII (Michael W. Deem and Ramdas Pophale) SiO2 
 PCOD9562674
Probable space group: P 4/M C C
;
_chemical_formula_sum "Si O2"
_cell_formula_units_Z 112
_cell_length_a 14.591223
_cell_length_b 14.591223
_cell_length_c 25.693466
_cell_angle_alpha 90.000000
_cell_angle_beta 90.000000
_cell_angle_gamma 90.000000
_cell_volume 5470.236255
_symmetry_space_group_name_H-M "P 4/M C C"
_symmetry_group_IT_number 124
_symmetry_cell_setting 'tetragonal'
loop_
_space_group_symop_operation_xyz
x,y,z
-y,x,z
-x,-y,z
y,-x,z
x,-y,1/2-z
-x,y,1/2-z
y,x,1/2-z
-y,-x,1/2-z
-x,-y,-z
y,-x,-z
x,y,-z
-y,x,-z
-x,y,1/2+z
x,-y,1/2+z
-y,-x,1/2+z
y,x,1/2+z
loop_
_atom_site_type_symbol
_atom_site_label
_atom_site_fract_x
_atom_site_fract_y
_atom_site_fract_z
Si Si1 0.409139 0.255037 0.438189
Si Si2 0.384297 0.742013 0.603705
Si Si3 0.119477 0.092242 0.637233
Si Si4 0.088905 0.315985 0.119238
Si Si5 0.913536 0.602766 0.225097
Si Si6 0.601092 0.264873 0.272555
Si Si7 0.250049 0.902792 0.562007
O O1 0.404678 0.263914 0.500000
O O2 0.514368 0.248577 0.420180
O O3 0.354959 0.339513 0.412225
O O4 0.354134 0.165087 0.419495
O O5 0.393329 0.746420 0.665934
O O6 0.315751 0.821036 0.582584
O O7 0.223650 0.121656 0.649937
O O8 0.114504 0.144001 0.579971
O O9 0.015869 0.120446 0.652402
O O10 0.075931 0.393124 0.163439
O O11 0.996598 0.287015 0.088889
O O12 0.912086 0.500000 0.250000
O O13 0.821334 0.648218 0.244748
O O14 0.000000 0.651765 0.250000
O O15 0.500000 0.266557 0.250000
O O16 0.646184 0.353817 0.250000
O O17 0.255433 0.908437 0.500000
#
# Coordination Sequence:
#
# PCOD9562674 Si02
#       7
#    16  16  16  16  16  16  16
#     4  12  25  43  65  92 131 176 217 265 333 406
#     4  12  25  44  65  93 130 169 218 278 331 406
#     4   9  20  38  64  96 137 178 222 265 330 395
#     4  11  22  40  67  99 135 174 221 283 335 401
#     4  10  21  40  63  92 126 169 219 270 331 389
#     4  11  23  41  66  93 118 155 207 266 330 384
#     4  11  23  40  65  99 136 177 223 272 338 411
#
# _framework density 20.474437000000002
#
# number of rings (size 3 to 8) (size 9 to 14) (size 15 to 20)
#    0.000    1.143    1.429    6.000    0.000    4.429 
#    0.000    6.429    0.000    0.000    0.000    8.000 
#    0.000    0.000    0.000    0.000    0.000    0.000 
#
# Total GULP energy -623584.778989 kJ/mol
# GULP energy per Si atom -5567.721241 kJ/mol
# Density = 2.042784 g / cm^3
# Si number density = 20.474437 Si / 1000 Ang^3
#
#
#
# Elastic Constant Matrix: (Units=GPa)
#
#
# Indices 1 2 3 4 5 6 
#
# 1 82.0619 19.7179 9.5935 0.0000 0.0000 0.0000
# 2 19.7179 82.0571 9.5980 0.0000 0.0000 0.0000
# 3 9.5935 9.5980 119.6838 0.0000 0.0000 0.0000
# 4 0.0000 0.0000 0.0000 -66.4143 0.0000 0.0000
# 5 0.0000 0.0000 0.0000 0.0000 -66.2537 0.0000
# 6 0.0000 0.0000 0.0000 0.0000 0.0000 -6.1792
#
#
#
# Elastic Compliance Matrix: (Units=1/GPa)
#
#
# Indices 1 2 3 4 5 6 
#
# 1 0.013008 -0.003032 -0.000800 0.000000 0.000000 0.000000
# 2 -0.003032 0.013009 -0.000800 0.000000 0.000000 0.000000
# 3 -0.000800 -0.000800 0.008484 0.000000 0.000000 0.000000
# 4 0.000000 0.000000 0.000000 -0.015057 0.000000 0.000000
# 5 0.000000 0.000000 0.000000 0.000000 -0.015094 0.000000
# 6 0.000000 0.000000 0.000000 0.000000 0.000000 -0.161832
#
#
# Mechanical properties :
#
#
# Convention : Reuss Voigt Hill
#
# Bulk Modulus (GPa) = 39.62501 40.18017 39.90259
# Shear Modulus (GPa) = -35.76384 -11.44321 -23.60353
#
# Velocity S-wave (km/s) = -4.18395 -2.36668 -3.39902
# Velocity P-wave (km/s) = 1.98626 3.49270 2.03147
#
# Compressibility (1/GPa) = 0.02523658
#
# Stress axis : x y z
#
# Youngs Moduli (GPa) = 76.87593 76.87064 117.87444
#
# Poissons Ratio (x) = 0.23309 0.09424
# Poissons Ratio (y) = 0.23311 0.09432
# Poissons Ratio (z) = 0.06146 0.06151
#
# Static dielectric constant tensor:
#      x y z
#    x 1.760190 0.000000 0.000000 
#    y 0.000000 1.760200 0.000000 
#    z 0.000000 0.000000 1.709130 
# 
# From -- ./inp_files/6117.got.cif
#   From: 2010.05.17/outbox.cif.g08.bks.cpg/sg124_4_cif.got.tgz:6117.got - 2010.05.20 11:49:17.
