data_PCOD9562361
_publ_section_title
;
Structure prediction by ZEFSAII (Michael W. Deem and Ramdas Pophale) SiO2 
 PCOD9562361
Probable space group: P 4/M C C
;
_chemical_formula_sum "Si O2"
_cell_formula_units_Z 112
_cell_length_a 15.153684
_cell_length_b 15.153684
_cell_length_c 25.428657
_cell_angle_alpha 90.000000
_cell_angle_beta 90.000000
_cell_angle_gamma 90.000000
_cell_volume 5839.287750
_symmetry_space_group_name_H-M "P 4/M C C"
_symmetry_group_IT_number 124
_symmetry_cell_setting 'tetragonal'
loop_
_space_group_symop_operation_xyz
x,y,z
-y,x,z
-x,-y,z
y,-x,z
x,-y,1/2-z
-x,y,1/2-z
y,x,1/2-z
-y,-x,1/2-z
-x,-y,-z
y,-x,-z
x,y,-z
-y,x,-z
-x,y,1/2+z
x,-y,1/2+z
-y,-x,1/2+z
y,x,1/2+z
loop_
_atom_site_type_symbol
_atom_site_label
_atom_site_fract_x
_atom_site_fract_y
_atom_site_fract_z
Si Si1 0.895207 0.404071 0.237415
Si Si2 0.308368 0.323736 0.063948
Si Si3 0.236263 0.018409 0.395898
Si Si4 0.487104 0.236914 0.063363
Si Si5 0.775300 0.906422 0.279665
Si Si6 0.420028 0.065456 0.878404
Si Si7 0.837761 0.185001 0.939894
O O1 0.856551 0.500000 0.250000
O O2 0.862727 0.320972 0.270580
O O3 0.889767 0.386661 0.175432
O O4 0.000000 0.408911 0.250000
O O5 0.409860 0.305772 0.078553
O O6 0.267016 0.416171 0.082342
O O7 0.251769 0.237980 0.079966
O O8 0.304402 0.325492 0.000000
O O9 0.339215 0.992448 0.399893
O O10 0.188455 0.925205 0.404746
O O11 0.215943 0.066615 0.340529
O O12 0.204684 0.088597 0.438388
O O13 0.456645 0.141591 0.084126
O O14 0.489455 0.233444 0.000000
O O15 0.846796 0.846796 0.250000
O O16 0.775528 0.000000 0.250000
O O17 0.500000 0.000000 0.864755
O O18 0.860979 0.209962 0.000000
#
# Coordination Sequence:
#
# PCOD9562361 Si02
#       7
#    16  16  16  16  16  16  16
#     4  10  18  37  58  85 118 148 182 241 307 357
#     4   9  19  37  57  84 123 161 199 253 310 364
#     4  12  23  38  62  84 114 167 209 250 312 368
#     4  10  21  36  58  88 124 164 204 256 312 371
#     4  11  22  38  59  88 121 153 196 254 302 360
#     4  12  21  35  61  92 117 157 206 249 311 370
#     4  11  24  41  58  83 122 161 208 260 307 369
#
# _framework density 19.180420000000002
#
# number of rings (size 3 to 8) (size 9 to 14) (size 15 to 20)
#    0.000    1.286    5.714    2.143    0.000    1.571 
#    0.000    3.571    0.000    0.000    0.000    0.000 
#    0.000    0.286    0.000    0.143    0.000    0.143 
#
# Total GULP energy -624853.478910 kJ/mol
# GULP energy per Si atom -5579.048919 kJ/mol
# Density = 1.913676 g / cm^3
# Si number density = 19.180420 Si / 1000 Ang^3
#
#
#
# Elastic Constant Matrix: (Units=GPa)
#
#
# Indices 1 2 3 4 5 6 
#
# 1 102.3428 44.4259 28.8926 0.0000 0.0000 0.0000
# 2 44.4259 102.3428 28.8926 0.0000 0.0000 0.0000
# 3 28.8926 28.8926 60.1765 0.0000 0.0000 0.0000
# 4 0.0000 0.0000 0.0000 10.3353 0.0000 0.0000
# 5 0.0000 0.0000 0.0000 0.0000 10.3353 0.0000
# 6 0.0000 0.0000 0.0000 0.0000 0.0000 20.8788
#
#
#
# Elastic Compliance Matrix: (Units=1/GPa)
#
#
# Indices 1 2 3 4 5 6 
#
# 1 0.012834 -0.004432 -0.004034 0.000000 0.000000 0.000000
# 2 -0.004432 0.012834 -0.004034 0.000000 0.000000 0.000000
# 3 -0.004034 -0.004034 0.020491 0.000000 0.000000 0.000000
# 4 0.000000 0.000000 0.000000 0.096756 0.000000 0.000000
# 5 0.000000 0.000000 0.000000 0.000000 0.096756 0.000000
# 6 0.000000 0.000000 0.000000 0.000000 0.000000 0.047896
#
#
# Mechanical properties :
#
#
# Convention : Reuss Voigt Hill
#
# Bulk Modulus (GPa) = 47.26097 52.14269 49.70183
# Shear Modulus (GPa) = 15.64363 19.15328 17.39845
#
# Velocity S-wave (km/s) = 2.85898 3.16347 3.01507
# Velocity P-wave (km/s) = 5.96591 6.37085 6.17170
#
# Compressibility (1/GPa) = 0.02115911
#
# Stress axis : x y z
#
# Youngs Moduli (GPa) = 77.91871 77.91871 48.80107
#
# Poissons Ratio (x) = 0.34535 0.19686
# Poissons Ratio (y) = 0.34535 0.19686
# Poissons Ratio (z) = 0.31432 0.31432
#
# Static dielectric constant tensor:
#      x y z
#    x 1.701190 0.000000 0.000000 
#    y 0.000000 1.701190 0.000000 
#    z 0.000000 0.000000 1.717980 
# 
# From -- ./inp_files/6646.got.cif
#   From: 2010.05.17/outbox.cif.g08.bks.cpg/sg124_4_cif.got.tgz:6646.got - 2010.05.20 11:49:17.
