data_PCOD9562159
_publ_section_title
;
Structure prediction by ZEFSAII (Michael W. Deem and Ramdas Pophale) SiO2 
 PCOD9562159
Probable space group: P 4/M M M
;
_chemical_formula_sum "Si O2"
_cell_formula_units_Z 96
_cell_length_a 25.008748
_cell_length_b 25.008748
_cell_length_c 8.192719
_cell_angle_alpha 90.000000
_cell_angle_beta 90.000000
_cell_angle_gamma 90.000000
_cell_volume 5124.033497
_symmetry_space_group_name_H-M "P 4/M M M"
_symmetry_group_IT_number 123
_symmetry_cell_setting 'tetragonal'
loop_
_space_group_symop_operation_xyz
x,y,z
-y,x,z
-x,-y,z
y,-x,z
x,-y,-z
-x,y,-z
y,x,-z
-y,-x,-z
-x,-y,-z
y,-x,-z
x,y,-z
-y,x,-z
-x,y,z
x,-y,z
-y,-x,z
y,x,z
loop_
_atom_site_type_symbol
_atom_site_label
_atom_site_fract_x
_atom_site_fract_y
_atom_site_fract_z
Si Si1 0.146624 0.060343 0.302876
Si Si2 0.059144 0.438660 0.196495
Si Si3 0.265367 0.648036 0.699489
Si Si4 0.856182 0.647026 0.307003
Si Si5 0.561323 0.351954 0.300849
Si Si6 0.060084 0.732590 0.193079
O O1 0.151623 0.063587 0.500000
O O2 0.104204 0.104204 0.248542
O O3 0.204965 0.068444 0.227927
O O4 0.128943 0.000000 0.262768
O O5 0.065146 0.500000 0.250936
O O6 0.108033 0.402487 0.249395
O O7 0.000000 0.419396 0.251749
O O8 0.058012 0.438448 0.000000
O O9 0.264680 0.648319 0.500000
O O10 0.300169 0.699832 0.749283
O O11 0.204373 0.648455 0.759740
O O12 0.299789 0.595792 0.748075
O O13 0.851024 0.643237 0.500000
O O14 0.892069 0.698461 0.266424
O O15 0.560338 0.352098 0.500000
O O16 0.500000 0.352071 0.244344
O O17 0.596184 0.403817 0.251383
O O18 0.000000 0.719031 0.256256
O O19 0.059652 0.722508 0.000000
#
# Coordination Sequence:
#
# PCOD9562159 Si02
#       6
#    16  16  16  16  16  16
#     4   9  18  33  53  77 104 132 163 202 249 300
#     4   9  19  36  54  71  97 133 165 194 239 301
#     4   8  16  30  43  59  90 128 158 188 235 290
#     4  11  21  31  50  77  98 122 164 213 252 291
#     4   8  13  22  37  57  84 119 155 190 228 270
#     4  10  21  36  52  70  96 130 165 202 247 300
#
# _framework density 18.735240999999998
#
# number of rings (size 3 to 8) (size 9 to 14) (size 15 to 20)
#    0.000    2.833    0.000    3.000    0.000    5.667 
#    0.000    5.833    0.000    1.500    0.000    2.333 
#    0.000    0.000    0.000    0.000    0.000    0.500 
#
# Total GULP energy -535233.715344 kJ/mol
# GULP energy per Si atom -5575.351202 kJ/mol
# Density = 1.869260 g / cm^3
# Si number density = 18.735241 Si / 1000 Ang^3
#
#
#
# Elastic Constant Matrix: (Units=GPa)
#
#
# Indices 1 2 3 4 5 6 
#
# 1 161.2913 98.8528 9.1456 0.0000 0.0000 0.0000
# 2 98.8528 161.2913 9.1456 0.0000 0.0000 0.0000
# 3 9.1456 9.1456 6.8024 0.0000 0.0000 0.0000
# 4 0.0000 0.0000 0.0000 16.6420 0.0000 0.0000
# 5 0.0000 0.0000 0.0000 0.0000 16.6420 0.0000
# 6 0.0000 0.0000 0.0000 0.0000 0.0000 27.9611
#
#
#
# Elastic Compliance Matrix: (Units=1/GPa)
#
#
# Indices 1 2 3 4 5 6 
#
# 1 0.010131 -0.005885 -0.005708 0.000000 0.000000 0.000000
# 2 -0.005885 0.010131 -0.005708 0.000000 0.000000 0.000000
# 3 -0.005708 -0.005708 0.162355 0.000000 0.000000 0.000000
# 4 0.000000 0.000000 0.000000 0.060089 0.000000 0.000000
# 5 0.000000 0.000000 0.000000 0.000000 0.060089 0.000000
# 6 0.000000 0.000000 0.000000 0.000000 0.000000 0.035764
#
#
# Mechanical properties :
#
#
# Convention : Reuss Voigt Hill
#
# Bulk Modulus (GPa) = 6.75609 62.63033 34.69321
# Shear Modulus (GPa) = 11.83439 26.39840 19.11639
#
# Velocity S-wave (km/s) = 2.51602 3.75777 3.19775
# Velocity P-wave (km/s) = 3.47194 7.23391 5.67379
#
# Compressibility (1/GPa) = 0.14801452
#
# Stress axis : x y z
#
# Youngs Moduli (GPa) = 98.71125 98.71125 6.15935
#
# Poissons Ratio (x) = 0.58094 0.03516
# Poissons Ratio (y) = 0.58094 0.03516
# Poissons Ratio (z) = 0.56342 0.56342
#
# Static dielectric constant tensor:
#      x y z
#    x 1.646210 0.000000 0.000000 
#    y 0.000000 1.646210 0.000000 
#    z 0.000000 0.000000 1.661590 
# 
# From -- ./inp_files/1555.got.cif
#   From: 2010.05.17/outbox.cif.g08.bks.cpg/sg123_1_cif.got.tgz:1555.got - 2010.05.20 11:43:04.
