data_PCOD9562645
_publ_section_title
;
Structure prediction by ZEFSAII (Michael W. Deem and Ramdas Pophale) SiO2 
 PCOD9562645
Probable space group: P 4/M C C
;
_chemical_formula_sum "Si O2"
_cell_formula_units_Z 120
_cell_length_a 14.308405
_cell_length_b 14.308405
_cell_length_c 25.853900
_cell_angle_alpha 90.000000
_cell_angle_beta 90.000000
_cell_angle_gamma 90.000000
_cell_volume 5293.080675
_symmetry_space_group_name_H-M "P 4/M C C"
_symmetry_group_IT_number 124
_symmetry_cell_setting 'tetragonal'
loop_
_space_group_symop_operation_xyz
x,y,z
-y,x,z
-x,-y,z
y,-x,z
x,-y,1/2-z
-x,y,1/2-z
y,x,1/2-z
-y,-x,1/2-z
-x,-y,-z
y,-x,-z
x,y,-z
-y,x,-z
-x,y,1/2+z
x,-y,1/2+z
-y,-x,1/2+z
y,x,1/2+z
loop_
_atom_site_type_symbol
_atom_site_label
_atom_site_fract_x
_atom_site_fract_y
_atom_site_fract_z
Si Si1 0.320560 0.113462 0.558651
Si Si2 0.382059 0.605947 0.000000
Si Si3 0.205889 0.363019 0.158986
Si Si4 0.275208 0.620940 0.897651
Si Si5 0.584440 0.927830 0.060374
Si Si6 0.786352 0.091399 0.785697
Si Si7 0.650807 0.490861 0.318800
Si Si8 0.080479 0.871306 0.601502
O O1 0.344712 0.138888 0.500000
O O2 0.382938 0.161669 0.602723
O O3 0.213174 0.132926 0.573127
O O4 0.330877 0.001380 0.563550
O O5 0.372635 0.492391 0.000000
O O6 0.327824 0.644874 0.049646
O O7 0.294928 0.296540 0.143005
O O8 0.127173 0.310841 0.191244
O O9 0.248038 0.448383 0.192192
O O10 0.165809 0.602625 0.907270
O O11 0.327288 0.526113 0.877503
O O12 0.500000 0.000000 0.073560
O O13 0.570851 0.900256 0.000000
O O14 0.828226 0.171775 0.750000
O O15 0.850898 0.081729 0.836752
O O16 0.781686 0.000000 0.750000
O O17 0.592171 0.581077 0.303601
O O18 0.971097 0.876901 0.588188
#
# Coordination Sequence:
#
# PCOD9562645 Si02
#       8
#    16   8  16  16  16  16  16  16
#     4  10  23  37  55  80 126 177 223 266 308 384
#     4  11  22  34  55  94 134 174 230 285 321 368
#     4  10  23  37  61  95 126 169 215 267 335 396
#     4  11  21  36  59  87 127 178 227 275 330 382
#     4  10  21  36  51  73 114 178 239 276 314 370
#     4  11  22  39  66  96 128 154 202 273 337 399
#     4   9  18  37  62  92 129 171 215 264 326 382
#     4  10  21  37  60  91 120 155 206 259 328 391
#
# _framework density 22.671106000000002
#
# number of rings (size 3 to 8) (size 9 to 14) (size 15 to 20)
#    0.000    1.800    2.000    2.400    4.667    2.800 
#    1.200    0.667    0.000    3.200    0.000   18.667 
#    0.000    0.000    0.000    0.000    0.000    0.000 
#
# Total GULP energy -668699.039906 kJ/mol
# GULP energy per Si atom -5572.491999 kJ/mol
# Density = 2.261951 g / cm^3
# Si number density = 22.671106 Si / 1000 Ang^3
#
#
#
# Elastic Constant Matrix: (Units=GPa)
#
#
# Indices 1 2 3 4 5 6 
#
# 1 28.8827 40.2751 27.5142 0.0000 0.0000 0.0000
# 2 40.2751 28.8794 27.5134 0.0000 0.0000 0.0000
# 3 27.5142 27.5134 81.3854 0.0000 0.0000 0.0000
# 4 0.0000 0.0000 0.0000 309.7697 0.0000 0.0000
# 5 0.0000 0.0000 0.0000 0.0000 309.4112 0.0000
# 6 0.0000 0.0000 0.0000 0.0000 0.0000 33.0658
#
#
#
# Elastic Compliance Matrix: (Units=1/GPa)
#
#
# Indices 1 2 3 4 5 6 
#
# 1 -0.033990 0.053773 -0.006688 0.000000 0.000000 0.000000
# 2 0.053773 -0.033994 -0.006687 0.000000 0.000000 0.000000
# 3 -0.006688 -0.006687 0.016809 0.000000 0.000000 0.000000
# 4 0.000000 0.000000 0.000000 0.003228 0.000000 0.000000
# 5 0.000000 0.000000 0.000000 0.000000 0.003232 0.000000
# 6 0.000000 0.000000 0.000000 0.000000 0.000000 0.030243
#
#
# Mechanical properties :
#
#
# Convention : Reuss Voigt Hill
#
# Bulk Modulus (GPa) = 33.75911 36.63922 35.19917
# Shear Modulus (GPa) = -58.55135 133.37234 37.41050
#
# Velocity S-wave (km/s) = -5.08748 7.67834 4.06660
# Velocity P-wave (km/s) = 4.42570 9.73681 6.13265
#
# Compressibility (1/GPa) = 0.02962163
#
# Stress axis : x y z
#
# Youngs Moduli (GPa) = -29.42070 -29.41674 59.49266
#
# Poissons Ratio (x) = 1.58183 0.39787
# Poissons Ratio (y) = 1.58204 0.39783
# Poissons Ratio (z) = -0.19676 -0.19671
#
# Static dielectric constant tensor:
#      x y z
#    x 1.870810 0.000000 0.000000 
#    y 0.000000 1.870810 0.000000 
#    z 0.000000 0.000000 1.870600 
# 
# From -- ./inp_files/7348.got.cif
#   From: 2010.05.17/outbox.cif.g08.bks.cpg/sg124_4_cif.got.tgz:7348.got - 2010.05.20 11:49:17.
