data_PCOD9562491
_publ_section_title
;
Structure prediction by ZEFSAII (Michael W. Deem and Ramdas Pophale) SiO2 
 PCOD9562491
Probable space group: P 4/M C C
;
_chemical_formula_sum "Si O2"
_cell_formula_units_Z 92
_cell_length_a 15.760603
_cell_length_b 15.760603
_cell_length_c 21.498656
_cell_angle_alpha 90.000000
_cell_angle_beta 90.000000
_cell_angle_gamma 90.000000
_cell_volume 5340.193204
_symmetry_space_group_name_H-M "P 4/M C C"
_symmetry_group_IT_number 124
_symmetry_cell_setting 'tetragonal'
loop_
_space_group_symop_operation_xyz
x,y,z
-y,x,z
-x,-y,z
y,-x,z
x,-y,1/2-z
-x,y,1/2-z
y,x,1/2-z
-y,-x,1/2-z
-x,-y,-z
y,-x,-z
x,y,-z
-y,x,-z
-x,y,1/2+z
x,-y,1/2+z
-y,-x,1/2+z
y,x,1/2+z
loop_
_atom_site_type_symbol
_atom_site_label
_atom_site_fract_x
_atom_site_fract_y
_atom_site_fract_z
Si Si1 0.515860 0.750591 0.000000
Si Si2 0.212386 0.199718 0.099890
Si Si3 0.516689 0.879280 0.607619
Si Si4 0.679148 0.301109 0.000000
Si Si5 0.097542 0.105517 0.000000
Si Si6 0.883477 0.678395 0.187689
Si Si7 0.000000 0.500000 0.000000
Si Si8 0.917846 0.658715 0.330023
O O1 0.521229 0.807444 0.937695
O O2 0.597940 0.692125 0.000000
O O3 0.420780 0.715411 0.000000
O O4 0.142305 0.150988 0.058641
O O5 0.167533 0.243939 0.158441
O O6 0.283157 0.133235 0.121967
O O7 0.257620 0.272393 0.058267
O O8 0.593409 0.853871 0.651859
O O9 0.439142 0.912931 0.649077
O O10 0.548050 0.946165 0.555398
O O11 0.995644 0.115986 0.000000
O O12 0.877417 0.668959 0.261669
O O13 0.984000 0.685621 0.173479
#
# Coordination Sequence:
#
# PCOD9562491 Si02
#       8
#     8  16  16   8   8  16   4  16
#     4  11  22  38  58  89 112 148 186 233 287 339
#     4  11  22  38  56  85 112 153 194 242 291 339
#     4  11  20  35  56  87 117 144 187 227 292 346
#     4  11  22  38  62  82 118 143 190 238 278 351
#     4  10  22  39  58  81 114 152 196 252 300 352
#     4  11  22  37  57  83 118 155 194 235 282 347
#     4  10  20  28  54  82 112 150 166 232 284 344
#     4  11  22  37  57  83 118 155 194 235 282 347
#
# _framework density 17.227841000000002
#
# number of rings (size 3 to 8) (size 9 to 14) (size 15 to 20)
#    0.000    1.130    5.217    2.087    0.000    1.565 
#    3.130    0.000    0.000    0.000    0.000    7.304 
#    0.000    2.783    0.000    0.000    0.000    0.000 
#
# Total GULP energy -512164.010592 kJ/mol
# GULP energy per Si atom -5567.000115 kJ/mol
# Density = 1.718863 g / cm^3
# Si number density = 17.227841 Si / 1000 Ang^3
#
#
#
# Elastic Constant Matrix: (Units=GPa)
#
#
# Indices 1 2 3 4 5 6 
#
# 1 63.8638 20.6505 19.3203 0.0000 0.0000 0.0000
# 2 20.6505 63.8638 19.3203 0.0000 0.0000 0.0000
# 3 19.3203 19.3203 88.6759 0.0000 0.0000 0.0000
# 4 0.0000 0.0000 0.0000 24.4416 0.0000 0.0000
# 5 0.0000 0.0000 0.0000 0.0000 24.4416 0.0000
# 6 0.0000 0.0000 0.0000 0.0000 0.0000 29.0475
#
#
#
# Elastic Compliance Matrix: (Units=1/GPa)
#
#
# Indices 1 2 3 4 5 6 
#
# 1 0.018141 -0.005000 -0.002863 0.000000 0.000000 0.000000
# 2 -0.005000 0.018141 -0.002863 0.000000 0.000000 0.000000
# 3 -0.002863 -0.002863 0.012525 0.000000 0.000000 0.000000
# 4 0.000000 0.000000 0.000000 0.040914 0.000000 0.000000
# 5 0.000000 0.000000 0.000000 0.000000 0.040914 0.000000
# 6 0.000000 0.000000 0.000000 0.000000 0.000000 0.034426
#
#
# Mechanical properties :
#
#
# Convention : Reuss Voigt Hill
#
# Bulk Modulus (GPa) = 36.55680 37.22063 36.88871
# Shear Modulus (GPa) = 25.55822 26.06030 25.80926
#
# Velocity S-wave (km/s) = 3.85586 3.89354 3.87475
# Velocity P-wave (km/s) = 6.41008 6.47030 6.44026
#
# Compressibility (1/GPa) = 0.02735469
#
# Stress axis : x y z
#
# Youngs Moduli (GPa) = 55.12319 55.12319 79.84252
#
# Poissons Ratio (x) = 0.27560 0.22860
# Poissons Ratio (y) = 0.27560 0.22860
# Poissons Ratio (z) = 0.15783 0.15783
#
# Static dielectric constant tensor:
#      x y z
#    x 1.577270 0.000000 0.000000 
#    y 0.000000 1.577270 0.000000 
#    z 0.000000 0.000000 1.559760 
# 
# From -- ./inp_files/5418.got.cif
#   From: 2010.05.17/outbox.cif.g08.bks.cpg/sg124_3_cif.got.tgz:5418.got - 2010.05.20 11:49:17.
