data_PCOD9562849
_publ_section_title
;
Structure prediction by ZEFSAII (Michael W. Deem and Ramdas Pophale) SiO2 
 PCOD9562849
Probable space group: P 4/M C C
;
_chemical_formula_sum "Si O2"
_cell_formula_units_Z 112
_cell_length_a 19.339750
_cell_length_b 19.339750
_cell_length_c 14.235138
_cell_angle_alpha 90.000000
_cell_angle_beta 90.000000
_cell_angle_gamma 90.000000
_cell_volume 5324.310730
_symmetry_space_group_name_H-M "P 4/M C C"
_symmetry_group_IT_number 124
_symmetry_cell_setting 'tetragonal'
loop_
_space_group_symop_operation_xyz
x,y,z
-y,x,z
-x,-y,z
y,-x,z
x,-y,1/2-z
-x,y,1/2-z
y,x,1/2-z
-y,-x,1/2-z
-x,-y,-z
y,-x,-z
x,y,-z
-y,x,-z
-x,y,1/2+z
x,-y,1/2+z
-y,-x,1/2+z
y,x,1/2+z
loop_
_atom_site_type_symbol
_atom_site_label
_atom_site_fract_x
_atom_site_fract_y
_atom_site_fract_z
Si Si1 0.404727 0.778779 0.886353
Si Si2 0.197369 0.558713 0.885015
Si Si3 0.038707 0.570950 0.885564
Si Si4 0.082943 0.071442 0.861937
Si Si5 0.835094 0.796786 0.109702
Si Si6 0.078364 0.672768 0.613837
Si Si7 0.303940 0.727159 0.385431
O O1 0.483722 0.775195 0.855244
O O2 0.375323 0.855222 0.865035
O O3 0.349079 0.721301 0.856082
O O4 0.405406 0.775017 0.000000
O O5 0.118032 0.570004 0.854058
O O6 0.244145 0.622651 0.853145
O O7 0.196431 0.558657 0.000000
O O8 0.000000 0.500000 0.859336
O O9 0.991845 0.635769 0.854735
O O10 0.040495 0.571716 0.000000
O O11 0.074612 0.074612 0.750000
O O12 0.142955 0.124383 0.884869
O O13 0.006683 0.094562 0.895187
O O14 0.896448 0.747928 0.149639
O O15 0.758985 0.777639 0.144679
O O16 0.831848 0.778039 0.000000
O O17 0.071539 0.675981 0.500000
O O18 0.307239 0.727448 0.500000
#
# Coordination Sequence:
#
# PCOD9562849 Si02
#       7
#    16  16  16  16  16  16  16
#     4   8  12  20  31  41  64 102 136 160 194 243
#     4   9  14  19  30  45  65 100 135 164 200 242
#     4   9  13  17  27  45  68  96 131 161 191 244
#     4   9  19  35  50  61  77 108 148 183 210 243
#     4   9  17  28  43  63  89 112 131 171 227 265
#     4   8  13  21  32  51  78 106 129 157 202 252
#     4   8  15  24  33  52  79 104 130 162 207 257
#
# _framework density 21.035587
#
# number of rings (size 3 to 8) (size 9 to 14) (size 15 to 20)
#    0.000    3.429    1.429    2.143    0.000    1.714 
#    0.000    3.571    0.000    0.429    0.000    3.000 
#    0.000    4.571    0.571    0.000    0.000    0.000 
#
# Total GULP energy -624772.906982 kJ/mol
# GULP energy per Si atom -5578.329527 kJ/mol
# Density = 2.098771 g / cm^3
# Si number density = 21.035587 Si / 1000 Ang^3
#
#
#
# Elastic Constant Matrix: (Units=GPa)
#
#
# Indices 1 2 3 4 5 6 
#
# 1 125.3564 88.6493 -4.4557 0.0000 0.0000 0.0000
# 2 88.6493 125.3564 -4.4557 0.0000 0.0000 0.0000
# 3 -4.4557 -4.4557 63.9049 0.0000 0.0000 0.0000
# 4 0.0000 0.0000 0.0000 5.4294 0.0000 0.0000
# 5 0.0000 0.0000 0.0000 0.0000 5.4294 0.0000
# 6 0.0000 0.0000 0.0000 0.0000 0.0000 33.0377
#
#
#
# Elastic Compliance Matrix: (Units=1/GPa)
#
#
# Indices 1 2 3 4 5 6 
#
# 1 0.015965 -0.011278 0.000327 0.000000 0.000000 0.000000
# 2 -0.011278 0.015965 0.000327 0.000000 0.000000 0.000000
# 3 0.000327 0.000327 0.015694 0.000000 0.000000 0.000000
# 4 0.000000 0.000000 0.000000 0.184184 0.000000 0.000000
# 5 0.000000 0.000000 0.000000 0.000000 0.184184 0.000000
# 6 0.000000 0.000000 0.000000 0.000000 0.000000 0.030268
#
#
# Mechanical properties :
#
#
# Convention : Reuss Voigt Hill
#
# Bulk Modulus (GPa) = 37.91674 52.67706 45.29690
# Shear Modulus (GPa) = 10.49759 24.43793 17.46776
#
# Velocity S-wave (km/s) = 2.23634 3.41213 2.88478
# Velocity P-wave (km/s) = 4.97318 6.37336 5.71630
#
# Compressibility (1/GPa) = 0.02637358
#
# Stress axis : x y z
#
# Youngs Moduli (GPa) = 62.63887 62.63887 63.71941
#
# Poissons Ratio (x) = 0.70645 -0.02082
# Poissons Ratio (y) = 0.70645 -0.02082
# Poissons Ratio (z) = -0.02047 -0.02047
#
# Static dielectric constant tensor:
#      x y z
#    x 1.740230 0.000000 0.000000 
#    y 0.000000 1.740230 0.000000 
#    z 0.000000 0.000000 1.841450 
# 
# From -- ./inp_files/5520.got.cif
#   From: 2010.05.17/outbox.cif.g08.bks.cpg/sg124_3_cif.got.tgz:5520.got - 2010.05.20 11:49:17.
