data_PCOD9562153
_publ_section_title
;
Structure prediction by ZEFSAII (Michael W. Deem and Ramdas Pophale) SiO2 
 PCOD9562153
Probable space group: P 4/M M M
;
_chemical_formula_sum "Si O2"
_cell_formula_units_Z 72
_cell_length_a 13.934622
_cell_length_b 13.934622
_cell_length_c 23.063548
_cell_angle_alpha 90.000000
_cell_angle_beta 90.000000
_cell_angle_gamma 90.000000
_cell_volume 4478.334226
_symmetry_space_group_name_H-M "P 4/M M M"
_symmetry_group_IT_number 123
_symmetry_cell_setting 'tetragonal'
loop_
_space_group_symop_operation_xyz
x,y,z
-y,x,z
-x,-y,z
y,-x,z
x,-y,-z
-x,y,-z
y,x,-z
-y,-x,-z
-x,-y,-z
y,-x,-z
x,y,-z
-y,x,-z
-x,y,z
x,-y,z
-y,-x,z
y,x,z
loop_
_atom_site_type_symbol
_atom_site_label
_atom_site_fract_x
_atom_site_fract_y
_atom_site_fract_z
Si Si1 0.891760 0.616924 0.000000
Si Si2 0.768083 0.387220 0.109704
Si Si3 0.388326 0.231798 0.430798
Si Si4 0.613860 0.227235 0.757221
Si Si5 0.886278 0.273695 0.339875
O O1 0.838071 0.646169 0.058693
O O2 0.893592 0.500000 0.000000
O O3 0.000000 0.651835 0.000000
O O4 0.752139 0.500000 0.102258
O O5 0.669821 0.330180 0.104018
O O6 0.803607 0.372807 0.175604
O O7 0.383360 0.216664 0.500000
O O8 0.500000 0.238021 0.414102
O O9 0.329577 0.329577 0.417515
O O10 0.333493 0.148745 0.396118
O O11 0.500000 0.238151 0.746554
O O12 0.673278 0.326723 0.749620
O O13 0.662638 0.151638 0.714097
O O14 0.825107 0.174894 0.339125
O O15 0.000000 0.259793 0.338740
#
# Coordination Sequence:
#
# PCOD9562153 Si02
#       5
#     8  16  16  16  16
#     4   9  17  28  41  59  85 117 153 191 227 262
#     4   9  17  29  45  66  93 122 151 184 222 269
#     4   9  18  32  50  74 103 132 161 192 227 272
#     4   9  18  31  47  70  98 126 156 189 228 278
#     4  10  21  36  52  70  93 121 157 202 246 286
#
# _framework density 16.077406
#
# number of rings (size 3 to 8) (size 9 to 14) (size 15 to 20)
#    0.000    2.778    0.000    1.000    0.000    4.000 
#    0.000    6.667    0.000    6.000    0.000    3.111 
#    0.000    3.556    0.000    0.000    0.000    0.667 
#
# Total GULP energy -401085.608020 kJ/mol
# GULP energy per Si atom -5570.633445 kJ/mol
# Density = 1.604081 g / cm^3
# Si number density = 16.077406 Si / 1000 Ang^3
#
#
#
# Elastic Constant Matrix: (Units=GPa)
#
#
# Indices 1 2 3 4 5 6 
#
# 1 113.1937 59.7618 55.1938 0.0000 0.0000 0.0000
# 2 59.7618 113.1937 55.1938 0.0000 0.0000 0.0000
# 3 55.1938 55.1938 77.8989 0.0000 0.0000 0.0000
# 4 0.0000 0.0000 0.0000 18.6725 0.0000 0.0000
# 5 0.0000 0.0000 0.0000 0.0000 18.6725 0.0000
# 6 0.0000 0.0000 0.0000 0.0000 0.0000 5.4062
#
#
#
# Elastic Compliance Matrix: (Units=1/GPa)
#
#
# Indices 1 2 3 4 5 6 
#
# 1 0.014635 -0.004080 -0.007479 0.000000 0.000000 0.000000
# 2 -0.004080 0.014635 -0.007479 0.000000 0.000000 0.000000
# 3 -0.007479 -0.007479 0.023435 0.000000 0.000000 0.000000
# 4 0.000000 0.000000 0.000000 0.053555 0.000000 0.000000
# 5 0.000000 0.000000 0.000000 0.000000 0.053555 0.000000
# 6 0.000000 0.000000 0.000000 0.000000 0.000000 0.184971
#
#
# Mechanical properties :
#
#
# Convention : Reuss Voigt Hill
#
# Bulk Modulus (GPa) = 68.35030 71.62059 69.98544
# Shear Modulus (GPa) = 12.89533 17.49271 15.19402
#
# Velocity S-wave (km/s) = 2.83517 3.30211 3.07751
# Velocity P-wave (km/s) = 7.30227 7.69302 7.50019
#
# Compressibility (1/GPa) = 0.01463051
#
# Stress axis : x y z
#
# Youngs Moduli (GPa) = 68.32854 68.32854 42.67180
#
# Poissons Ratio (x) = 0.27880 0.31912
# Poissons Ratio (y) = 0.27880 0.31912
# Poissons Ratio (z) = 0.51100 0.51100
#
# Static dielectric constant tensor:
#      x y z
#    x 1.513740 0.000000 0.000000 
#    y 0.000000 1.513740 0.000000 
#    z 0.000000 0.000000 1.574160 
# 
# From -- ./inp_files/7863.got.cif
#   From: 2010.05.17/outbox.cif.g08.bks.cpg/sg123_4_cif.got.tgz:7863.got - 2010.05.20 11:43:04.
