data_PCOD9562072
_publ_section_title
;
Structure prediction by ZEFSAII (Michael W. Deem and Ramdas Pophale) SiO2 
 PCOD9562072
Probable space group: P 4/M M M
;
_chemical_formula_sum "Si O2"
_cell_formula_units_Z 96
_cell_length_a 23.879948
_cell_length_b 23.879948
_cell_length_c 7.483594
_cell_angle_alpha 90.000000
_cell_angle_beta 90.000000
_cell_angle_gamma 90.000000
_cell_volume 4267.533821
_symmetry_space_group_name_H-M "P 4/M M M"
_symmetry_group_IT_number 123
_symmetry_cell_setting 'tetragonal'
loop_
_space_group_symop_operation_xyz
x,y,z
-y,x,z
-x,-y,z
y,-x,z
x,-y,-z
-x,y,-z
y,x,-z
-y,-x,-z
-x,-y,-z
y,-x,-z
x,y,-z
-y,x,-z
-x,y,z
x,-y,z
-y,-x,z
y,x,z
loop_
_atom_site_type_symbol
_atom_site_label
_atom_site_fract_x
_atom_site_fract_y
_atom_site_fract_z
Si Si1 0.567408 0.777287 0.797967
Si Si2 0.154114 0.240380 0.216006
Si Si3 0.146744 0.938329 0.783465
Si Si4 0.938937 0.319238 0.205327
Si Si5 0.655504 0.564688 0.781210
Si Si6 0.437280 0.096839 0.295962
O O1 0.500000 0.770681 0.807985
O O2 0.585725 0.717233 0.722679
O O3 0.575604 0.836532 0.705786
O O4 0.589738 0.783354 0.000000
O O5 0.212945 0.212945 0.280838
O O6 0.106918 0.193881 0.258311
O O7 0.119923 0.295055 0.280305
O O8 0.161169 0.245421 0.000000
O O9 0.087833 0.912168 0.725556
O O10 0.157854 0.000000 0.715164
O O11 0.146037 0.940784 0.000000
O O12 0.933609 0.386019 0.204627
O O13 0.000000 0.303821 0.284878
O O14 0.940899 0.298975 0.000000
O O15 0.646593 0.500000 0.726038
O O16 0.606065 0.606065 0.725909
O O17 0.657276 0.564552 0.000000
O O18 0.438316 0.077544 0.500000
O O19 0.500000 0.089650 0.219959
#
# Coordination Sequence:
#
# PCOD9562072 Si02
#       6
#    16  16  16  16  16  16
#     4   8  14  27  47  67  88 118 157 198 237 281
#     4   8  14  26  44  65  90 121 157 195 231 266
#     4   8  12  17  27  46  75 111 147 182 219 257
#     4  10  20  33  52  78 104 131 165 202 238 282
#     4   8  13  21  36  62  95 129 165 206 254 308
#     4  10  21  36  53  72  95 125 160 199 248 305
#
# _framework density 22.495429000000001
#
# number of rings (size 3 to 8) (size 9 to 14) (size 15 to 20)
#    0.000    3.333    0.000    3.000    0.000    4.000 
#    0.000    4.167    0.000    6.000    0.000    0.000 
#    0.000    0.000    0.000    6.500    0.000    6.667 
#
# Total GULP energy -534499.136950 kJ/mol
# GULP energy per Si atom -5567.699343 kJ/mol
# Density = 2.244423 g / cm^3
# Si number density = 22.495429 Si / 1000 Ang^3
#
#
#
# Elastic Constant Matrix: (Units=GPa)
#
#
# Indices 1 2 3 4 5 6 
#
# 1 91.1116 33.5929 0.3623 0.0000 0.0000 0.0000
# 2 33.5929 91.1116 0.3623 0.0000 0.0000 0.0000
# 3 0.3623 0.3623 58.3897 0.0000 0.0000 0.0000
# 4 0.0000 0.0000 0.0000 181.2656 0.0000 0.0000
# 5 0.0000 0.0000 0.0000 0.0000 181.2656 0.0000
# 6 0.0000 0.0000 0.0000 0.0000 0.0000 19.8269
#
#
#
# Elastic Compliance Matrix: (Units=1/GPa)
#
#
# Indices 1 2 3 4 5 6 
#
# 1 0.012702 -0.004683 -0.000050 0.000000 0.000000 0.000000
# 2 -0.004683 0.012702 -0.000050 0.000000 0.000000 0.000000
# 3 -0.000050 -0.000050 0.017127 0.000000 0.000000 0.000000
# 4 0.000000 0.000000 0.000000 0.005517 0.000000 0.000000
# 5 0.000000 0.000000 0.000000 0.000000 0.005517 0.000000
# 6 0.000000 0.000000 0.000000 0.000000 0.000000 0.050437
#
#
# Mechanical properties :
#
#
# Convention : Reuss Voigt Hill
#
# Bulk Modulus (GPa) = 30.33392 34.36087 32.34739
# Shear Modulus (GPa) = 40.14252 90.22462 65.18357
#
# Velocity S-wave (km/s) = 4.22889 6.33996 5.38881
# Velocity P-wave (km/s) = 6.11215 8.30067 7.28902
#
# Compressibility (1/GPa) = 0.03296640
#
# Stress axis : x y z
#
# Youngs Moduli (GPa) = 78.72492 78.72492 58.38757
#
# Poissons Ratio (x) = 0.36869 0.00291
# Poissons Ratio (y) = 0.36869 0.00291
# Poissons Ratio (z) = 0.00392 0.00392
#
# Static dielectric constant tensor:
#      x y z
#    x 1.857440 0.000000 0.000000 
#    y 0.000000 1.857440 0.000000 
#    z 0.000000 0.000000 1.926330 
# 
# From -- ./inp_files/1630.got.cif
#   From: 2010.05.17/outbox.cif.g08.bks.cpg/sg123_1_cif.got.tgz:1630.got - 2010.05.20 11:43:04.
