data_PCOD9562487
_publ_section_title
;
Structure prediction by ZEFSAII (Michael W. Deem and Ramdas Pophale) SiO2 
 PCOD9562487
Probable space group: P 4/M C C
;
_chemical_formula_sum "Si O2"
_cell_formula_units_Z 88
_cell_length_a 18.100993
_cell_length_b 18.100993
_cell_length_c 15.102490
_cell_angle_alpha 90.000000
_cell_angle_beta 90.000000
_cell_angle_gamma 90.000000
_cell_volume 4948.269647
_symmetry_space_group_name_H-M "P 4/M C C"
_symmetry_group_IT_number 124
_symmetry_cell_setting 'tetragonal'
loop_
_space_group_symop_operation_xyz
x,y,z
-y,x,z
-x,-y,z
y,-x,z
x,-y,1/2-z
-x,y,1/2-z
y,x,1/2-z
-y,-x,1/2-z
-x,-y,-z
y,-x,-z
x,y,-z
-y,x,-z
-x,y,1/2+z
x,-y,1/2+z
-y,-x,1/2+z
y,x,1/2+z
loop_
_atom_site_type_symbol
_atom_site_label
_atom_site_fract_x
_atom_site_fract_y
_atom_site_fract_z
Si Si1 0.792146 0.224786 0.644746
Si Si2 0.300020 0.629934 0.336349
Si Si3 0.104034 0.315913 0.599093
Si Si4 0.608758 0.437296 0.500000
Si Si5 0.417005 0.854428 0.237344
Si Si6 0.066589 0.311959 0.102442
O O1 0.787165 0.212836 0.750000
O O2 0.738270 0.294863 0.626121
O O3 0.757432 0.153280 0.601048
O O4 0.875021 0.246106 0.618590
O O5 0.348149 0.651852 0.250000
O O6 0.346474 0.589734 0.412762
O O7 0.229244 0.585175 0.299656
O O8 0.106395 0.348135 0.500000
O O9 0.137950 0.370678 0.672131
O O10 0.019180 0.297204 0.621094
O O11 0.597858 0.526187 0.500000
O O12 0.500000 0.878893 0.250000
O O13 0.376051 0.905195 0.166266
O O14 0.073029 0.333747 0.000000
#
# Coordination Sequence:
#
# PCOD9562487 Si02
#       6
#    16  16  16   8  16  16
#     4  10  19  37  62  88 117 157 203 246 294 343
#     4  10  22  41  63  88 114 152 208 253 301 360
#     4  11  22  38  61  90 122 161 203 248 301 364
#     4  11  28  44  62  90 122 160 198 257 326 376
#     4  11  24  39  59  90 119 158 199 251 307 360
#     4  10  22  38  60  89 125 161 198 248 306 360
#
# _framework density 17.783995000000001
#
# number of rings (size 3 to 8) (size 9 to 14) (size 15 to 20)
#    0.000    1.545    5.455    1.091    8.909    2.182 
#    0.000    2.727    0.000    0.545    0.000    3.818 
#    0.000    0.000    0.000    0.000    0.000    0.000 
#
# Total GULP energy -491097.562139 kJ/mol
# GULP energy per Si atom -5580.654115 kJ/mol
# Density = 1.774352 g / cm^3
# Si number density = 17.783995 Si / 1000 Ang^3
#
#
#
# Elastic Constant Matrix: (Units=GPa)
#
#
# Indices 1 2 3 4 5 6 
#
# 1 107.3193 50.5964 54.3245 0.0000 0.0000 0.0000
# 2 50.5964 107.3191 54.3231 0.0000 0.0000 0.0000
# 3 54.3245 54.3231 106.3144 0.0000 0.0000 0.0000
# 4 0.0000 0.0000 0.0000 8.6102 0.0000 0.0000
# 5 0.0000 0.0000 0.0000 0.0000 8.6068 0.0000
# 6 0.0000 0.0000 0.0000 0.0000 0.0000 6.7348
#
#
#
# Elastic Compliance Matrix: (Units=1/GPa)
#
#
# Indices 1 2 3 4 5 6 
#
# 1 0.013698 -0.003932 -0.004990 0.000000 0.000000 0.000000
# 2 -0.003932 0.013698 -0.004990 0.000000 0.000000 0.000000
# 3 -0.004990 -0.004990 0.014506 0.000000 0.000000 0.000000
# 4 0.000000 0.000000 0.000000 0.116141 0.000000 0.000000
# 5 0.000000 0.000000 0.000000 0.000000 0.116187 0.000000
# 6 0.000000 0.000000 0.000000 0.000000 0.000000 0.148482
#
#
# Mechanical properties :
#
#
# Convention : Reuss Voigt Hill
#
# Bulk Modulus (GPa) = 71.03824 71.04898 71.04361
# Shear Modulus (GPa) = 10.98352 15.57095 13.27724
#
# Velocity S-wave (km/s) = 2.48787 2.96220 2.73533
# Velocity P-wave (km/s) = 6.94870 7.19286 7.07183
#
# Compressibility (1/GPa) = 0.01407693
#
# Stress axis : x y z
#
# Youngs Moduli (GPa) = 73.00472 73.00586 68.93900
#
# Poissons Ratio (x) = 0.28706 0.34402
# Poissons Ratio (y) = 0.28705 0.34399
# Poissons Ratio (z) = 0.36431 0.36429
#
# Static dielectric constant tensor:
#      x y z
#    x 1.603150 0.000000 0.000000 
#    y 0.000000 1.603150 0.000000 
#    z 0.000000 0.000000 1.628900 
# 
# From -- ./inp_files/3195.got.cif
#   From: 2010.05.17/outbox.cif.g08.bks.cpg/sg124_2_cif.got.tgz:3195.got - 2010.05.20 11:49:17.
