data_PCOD9562253
_publ_section_title
;
Structure prediction by ZEFSAII (Michael W. Deem and Ramdas Pophale) SiO2 
 PCOD9562253
Probable space group: P 4/M M M
;
_chemical_formula_sum "Si O2"
_cell_formula_units_Z 88
_cell_length_a 18.137772
_cell_length_b 18.137772
_cell_length_c 14.228462
_cell_angle_alpha 90.000000
_cell_angle_beta 90.000000
_cell_angle_gamma 90.000000
_cell_volume 4680.861972
_symmetry_space_group_name_H-M "P 4/M M M"
_symmetry_group_IT_number 123
_symmetry_cell_setting 'tetragonal'
loop_
_space_group_symop_operation_xyz
x,y,z
-y,x,z
-x,-y,z
y,-x,z
x,-y,-z
-x,y,-z
y,x,-z
-y,-x,-z
-x,-y,-z
y,-x,-z
x,y,-z
-y,x,-z
-x,y,z
x,-y,z
-y,-x,z
y,x,z
loop_
_atom_site_type_symbol
_atom_site_label
_atom_site_fract_x
_atom_site_fract_y
_atom_site_fract_z
Si Si1 0.703627 0.916165 0.391704
Si Si2 0.584905 0.788946 0.607568
Si Si3 0.663410 0.150473 0.887657
Si Si4 0.413001 0.706781 0.203608
Si Si5 0.000000 0.583789 0.114484
Si Si6 0.085482 0.799996 0.210475
O O1 0.728140 0.907246 0.500000
O O2 0.641164 0.855466 0.373479
O O3 0.768343 0.908033 0.316324
O O4 0.674548 0.000000 0.381876
O O5 0.596734 0.763871 0.500000
O O6 0.500000 0.815020 0.614979
O O7 0.594233 0.726479 0.685740
O O8 0.624294 0.223020 0.847640
O O9 0.745396 0.135729 0.851202
O O10 0.621813 0.075683 0.855300
O O11 0.661701 0.154131 0.000000
O O12 0.500000 0.701334 0.180892
O O13 0.365931 0.634070 0.181412
O O14 0.000000 0.500000 0.145809
O O15 0.000000 0.585504 0.000000
O O16 0.119087 0.880914 0.204823
O O17 0.000000 0.795508 0.181744
#
# Coordination Sequence:
#
# PCOD9562253 Si02
#       6
#    16  16  16  16   8  16
#     4   9  18  33  54  83 118 154 192 233 282 343
#     4   9  18  33  54  83 119 155 190 231 283 345
#     4  11  22  39  61  89 120 150 190 240 297 355
#     4  11  24  41  61  87 118 155 201 247 294 348
#     4   9  18  34  58  86 116 148 180 221 282 354
#     4  11  23  39  59  85 117 154 198 242 288 343
#
# _framework density 18.799956999999999
#
# number of rings (size 3 to 8) (size 9 to 14) (size 15 to 20)
#    0.000    1.909    2.727    1.091    0.000    4.000 
#    0.000    3.636    0.000    0.000    0.000    7.636 
#    0.000    0.000    0.000    0.000    0.000    0.000 
#
# Total GULP energy -491126.190040 kJ/mol
# GULP energy per Si atom -5580.979432 kJ/mol
# Density = 1.875717 g / cm^3
# Si number density = 18.799957 Si / 1000 Ang^3
#
#
#
# Elastic Constant Matrix: (Units=GPa)
#
#
# Indices 1 2 3 4 5 6 
#
# 1 97.2635 82.4333 29.4032 0.0000 0.0000 0.0000
# 2 82.4333 97.2635 29.4032 0.0000 0.0000 0.0000
# 3 29.4032 29.4032 62.9592 0.0000 0.0000 0.0000
# 4 0.0000 0.0000 0.0000 14.0609 0.0000 0.0000
# 5 0.0000 0.0000 0.0000 0.0000 14.0609 0.0000
# 6 0.0000 0.0000 0.0000 0.0000 0.0000 17.4252
#
#
#
# Elastic Compliance Matrix: (Units=1/GPa)
#
#
# Indices 1 2 3 4 5 6 
#
# 1 0.036999 -0.030430 -0.003068 0.000000 0.000000 0.000000
# 2 -0.030430 0.036999 -0.003068 0.000000 0.000000 0.000000
# 3 -0.003068 -0.003068 0.018749 0.000000 0.000000 0.000000
# 4 0.000000 0.000000 0.000000 0.071119 0.000000 0.000000
# 5 0.000000 0.000000 0.000000 0.000000 0.071119 0.000000
# 6 0.000000 0.000000 0.000000 0.000000 0.000000 0.057388
#
#
# Mechanical properties :
#
#
# Convention : Reuss Voigt Hill
#
# Bulk Modulus (GPa) = 50.98059 59.99620 55.48839
# Shear Modulus (GPa) = 13.43925 16.85917 15.14921
#
# Velocity S-wave (km/s) = 2.67658 2.99785 2.84176
# Velocity P-wave (km/s) = 6.06039 6.63062 6.35191
#
# Compressibility (1/GPa) = 0.01961531
#
# Stress axis : x y z
#
# Youngs Moduli (GPa) = 27.02752 27.02752 53.33687
#
# Poissons Ratio (x) = 0.82246 0.16363
# Poissons Ratio (y) = 0.82246 0.16363
# Poissons Ratio (z) = 0.08292 0.08292
#
# Static dielectric constant tensor:
#      x y z
#    x 1.639530 0.000000 0.000000 
#    y 0.000000 1.639530 0.000000 
#    z 0.000000 0.000000 1.672730 
# 
# From -- ./inp_files/4048.got.cif
#   From: 2010.05.17/outbox.cif.g08.bks.cpg/sg123_3_cif.got.tgz:4048.got - 2010.05.20 11:43:04.
