data_PCOD9562538
_publ_section_title
;
Structure prediction by ZEFSAII (Michael W. Deem and Ramdas Pophale) SiO2 
 PCOD9562538
Probable space group: P 4/M C C
;
_chemical_formula_sum "Si O2"
_cell_formula_units_Z 96
_cell_length_a 24.615998
_cell_length_b 24.615998
_cell_length_c 8.910559
_cell_angle_alpha 90.000000
_cell_angle_beta 90.000000
_cell_angle_gamma 90.000000
_cell_volume 5399.329680
_symmetry_space_group_name_H-M "P 4/M C C"
_symmetry_group_IT_number 124
_symmetry_cell_setting 'tetragonal'
loop_
_space_group_symop_operation_xyz
x,y,z
-y,x,z
-x,-y,z
y,-x,z
x,-y,1/2-z
-x,y,1/2-z
y,x,1/2-z
-y,-x,1/2-z
-x,-y,-z
y,-x,-z
x,y,-z
-y,x,-z
-x,y,1/2+z
x,-y,1/2+z
-y,-x,1/2+z
y,x,1/2+z
loop_
_atom_site_type_symbol
_atom_site_label
_atom_site_fract_x
_atom_site_fract_y
_atom_site_fract_z
Si Si1 0.057617 0.267894 0.822166
Si Si2 0.440686 0.056312 0.179673
Si Si3 0.942749 0.139427 0.677955
Si Si4 0.732670 0.649532 0.680535
Si Si5 0.644035 0.440114 0.819274
Si Si6 0.141989 0.651439 0.180396
O O1 0.064215 0.203645 0.793329
O O2 0.108007 0.300016 0.753354
O O3 0.000000 0.284637 0.750000
O O4 0.054848 0.276926 0.000000
O O5 0.500000 0.064354 0.250000
O O6 0.402303 0.107020 0.215035
O O7 0.419018 0.000000 0.250000
O O8 0.444425 0.050327 0.000000
O O9 0.894714 0.105287 0.750000
O O10 0.944422 0.131047 0.500000
O O11 0.000000 0.122652 0.750000
O O12 0.699950 0.699950 0.750000
O O13 0.731772 0.654548 0.500000
O O14 0.697890 0.595484 0.717788
O O15 0.795382 0.647691 0.729575
O O16 0.646695 0.500000 0.750000
O O17 0.593861 0.406140 0.750000
O O18 0.638899 0.442771 0.000000
O O19 0.141595 0.658081 0.000000
#
# Coordination Sequence:
#
# PCOD9562538 Si02
#       6
#    16  16  16  16  16  16
#     4  10  21  36  55  79 106 138 176 220 269 318
#     4  10  20  34  52  75 105 139 173 214 262 309
#     4  10  21  37  56  79 107 138 174 216 264 318
#     4   9  20  38  56  77 108 143 178 219 265 312
#     4  10  20  36  58  83 112 145 181 221 267 316
#     4  10  21  36  55  79 107 140 179 221 264 314
#
# _framework density 17.779983999999999
#
# number of rings (size 3 to 8) (size 9 to 14) (size 15 to 20)
#    0.000    2.167    0.000    3.000    0.000    7.667 
#    0.000    5.000    0.000    0.000    0.000    0.000 
#    0.000    0.000    0.000    0.000    0.000    0.000 
#
# Total GULP energy -535950.157014 kJ/mol
# GULP energy per Si atom -5582.814136 kJ/mol
# Density = 1.773952 g / cm^3
# Si number density = 17.779984 Si / 1000 Ang^3
#
#
#
# Elastic Constant Matrix: (Units=GPa)
#
#
# Indices 1 2 3 4 5 6 
#
# 1 156.0646 94.9843 63.8999 0.0000 0.0000 0.0000
# 2 94.9843 156.0534 63.9027 0.0000 0.0000 0.0000
# 3 63.8999 63.9027 49.3162 0.0000 0.0000 0.0000
# 4 0.0000 0.0000 0.0000 30.5360 0.0000 0.0000
# 5 0.0000 0.0000 0.0000 0.0000 30.5364 0.0000
# 6 0.0000 0.0000 0.0000 0.0000 0.0000 23.6461
#
#
#
# Elastic Compliance Matrix: (Units=1/GPa)
#
#
# Indices 1 2 3 4 5 6 
#
# 1 0.014037 -0.002335 -0.015162 0.000000 0.000000 0.000000
# 2 -0.002335 0.014040 -0.015168 0.000000 0.000000 0.000000
# 3 -0.015162 -0.015168 0.059577 0.000000 0.000000 0.000000
# 4 0.000000 0.000000 0.000000 0.032748 0.000000 0.000000
# 5 0.000000 0.000000 0.000000 0.000000 0.032748 0.000000
# 6 0.000000 0.000000 0.000000 0.000000 0.000000 0.042290
#
#
# Mechanical properties :
#
#
# Convention : Reuss Voigt Hill
#
# Bulk Modulus (GPa) = 44.79345 89.66754 67.23049
# Shear Modulus (GPa) = 18.64198 26.18686 22.41442
#
# Velocity S-wave (km/s) = 3.24154 3.84191 3.55442
# Velocity P-wave (km/s) = 6.26562 8.37983 7.39863
#
# Compressibility (1/GPa) = 0.02232469
#
# Stress axis : x y z
#
# Youngs Moduli (GPa) = 71.24159 71.22355 16.78491
#
# Poissons Ratio (x) = 0.16630 0.25450
# Poissons Ratio (y) = 0.16634 0.25459
# Poissons Ratio (z) = 1.08018 1.08030
#
# Static dielectric constant tensor:
#      x y z
#    x 1.591430 0.000000 0.000000 
#    y 0.000000 1.591430 0.000000 
#    z 0.000000 0.000000 1.596950 
# 
# From -- ./inp_files/1364.got.cif
#   From: 2010.05.17/outbox.cif.g08.bks.cpg/sg124_1_cif.got.tgz:1364.got - 2010.05.20 11:49:17.
