data_PCOD9562438
_publ_section_title
;
Structure prediction by ZEFSAII (Michael W. Deem and Ramdas Pophale) SiO2 
 PCOD9562438
Probable space group: P 4/M C C
;
_chemical_formula_sum "Si O2"
_cell_formula_units_Z 112
_cell_length_a 15.069604
_cell_length_b 15.069604
_cell_length_c 25.537826
_cell_angle_alpha 90.000000
_cell_angle_beta 90.000000
_cell_angle_gamma 90.000000
_cell_volume 5799.460619
_symmetry_space_group_name_H-M "P 4/M C C"
_symmetry_group_IT_number 124
_symmetry_cell_setting 'tetragonal'
loop_
_space_group_symop_operation_xyz
x,y,z
-y,x,z
-x,-y,z
y,-x,z
x,-y,1/2-z
-x,y,1/2-z
y,x,1/2-z
-y,-x,1/2-z
-x,-y,-z
y,-x,-z
x,y,-z
-y,x,-z
-x,y,1/2+z
x,-y,1/2+z
-y,-x,1/2+z
y,x,1/2+z
loop_
_atom_site_type_symbol
_atom_site_label
_atom_site_fract_x
_atom_site_fract_y
_atom_site_fract_z
Si Si1 0.128631 0.769796 0.875990
Si Si2 0.455270 0.903955 0.122192
Si Si3 0.132440 0.275096 0.255226
Si Si4 0.440348 0.783862 0.707122
Si Si5 0.260298 0.456566 0.060147
Si Si6 0.643964 0.709418 0.110264
Si Si7 0.936862 0.751382 0.857952
O O1 0.109080 0.749219 0.814562
O O2 0.196802 0.696333 0.898673
O O3 0.182129 0.861058 0.878287
O O4 0.025922 0.771051 0.891462
O O5 0.504813 0.843479 0.165764
O O6 0.462722 0.845054 0.070039
O O7 0.351666 0.914852 0.133794
O O8 0.500000 0.000000 0.119863
O O9 0.227001 0.227001 0.250000
O O10 0.149010 0.379444 0.259091
O O11 0.073597 0.242717 0.206396
O O12 0.500000 0.736290 0.750000
O O13 0.382278 0.718367 0.671369
O O14 0.296746 0.552013 0.078585
O O15 0.297231 0.375309 0.095279
O O16 0.282004 0.439240 0.000000
#
# Coordination Sequence:
#
# PCOD9562438 Si02
#       7
#    16  16  16  16  16  16  16
#     4  10  21  35  56  83 121 161 204 254 303 362
#     4  11  22  36  57  89 123 155 208 264 308 374
#     4   9  18  30  49  77 118 164 207 249 299 355
#     4  10  19  33  56  88 126 170 208 250 305 374
#     4  11  23  42  66  88 120 160 205 265 330 380
#     4  10  22  40  59  93 122 158 205 259 310 377
#     4  11  19  35  54  81 122 161 205 250 302 362
#
# _framework density 19.312141
#
# number of rings (size 3 to 8) (size 9 to 14) (size 15 to 20)
#    0.000    1.714    2.857    3.429    0.000    1.143 
#    0.000    0.714    0.000    2.571    0.000    8.000 
#    0.000    1.143    0.000    0.000    0.000    0.000 
#
# Total GULP energy -623483.788093 kJ/mol
# GULP energy per Si atom -5566.819537 kJ/mol
# Density = 1.926819 g / cm^3
# Si number density = 19.312141 Si / 1000 Ang^3
#
#
#
# Elastic Constant Matrix: (Units=GPa)
#
#
# Indices 1 2 3 4 5 6 
#
# 1 101.3640 43.6765 26.1404 0.0000 0.0000 0.0000
# 2 43.6765 101.3640 26.1404 0.0000 0.0000 0.0000
# 3 26.1404 26.1404 47.6289 0.0000 0.0000 0.0000
# 4 0.0000 0.0000 0.0000 10.3656 0.0000 0.0000
# 5 0.0000 0.0000 0.0000 0.0000 10.3656 0.0000
# 6 0.0000 0.0000 0.0000 0.0000 0.0000 13.9827
#
#
#
# Elastic Compliance Matrix: (Units=1/GPa)
#
#
# Indices 1 2 3 4 5 6 
#
# 1 0.012965 -0.004370 -0.004717 0.000000 0.000000 0.000000
# 2 -0.004370 0.012965 -0.004717 0.000000 0.000000 0.000000
# 3 -0.004717 -0.004717 0.026174 0.000000 0.000000 0.000000
# 4 0.000000 0.000000 0.000000 0.096473 0.000000 0.000000
# 5 0.000000 0.000000 0.000000 0.000000 0.096473 0.000000
# 6 0.000000 0.000000 0.000000 0.000000 0.000000 0.071517
#
#
# Mechanical properties :
#
#
# Convention : Reuss Voigt Hill
#
# Bulk Modulus (GPa) = 40.82522 49.14128 44.98325
# Shear Modulus (GPa) = 14.19082 17.23607 15.71344
#
# Velocity S-wave (km/s) = 2.71368 2.99071 2.85556
# Velocity P-wave (km/s) = 5.56815 6.11775 5.84941
#
# Compressibility (1/GPa) = 0.02449466
#
# Stress axis : x y z
#
# Youngs Moduli (GPa) = 77.13143 77.13143 38.20648
#
# Poissons Ratio (x) = 0.33706 0.18023
# Poissons Ratio (y) = 0.33706 0.18023
# Poissons Ratio (z) = 0.36385 0.36385
#
# Static dielectric constant tensor:
#      x y z
#    x 1.740650 0.000000 0.000000 
#    y 0.000000 1.740650 0.000000 
#    z 0.000000 0.000000 1.713310 
# 
# From -- ./inp_files/6640.got.cif
#   From: 2010.05.17/outbox.cif.g08.bks.cpg/sg124_4_cif.got.tgz:6640.got - 2010.05.20 11:49:17.
