data_PCOD9562910
_publ_section_title
;
Structure prediction by ZEFSAII (Michael W. Deem and Ramdas Pophale) SiO2 
 PCOD9562910
Probable space group: P 4/N B M
;
_chemical_formula_sum "Si O2"
_cell_formula_units_Z 80
_cell_length_a 31.815600
_cell_length_b 31.815600
_cell_length_c 5.317242
_cell_angle_alpha 90.000000
_cell_angle_beta 90.000000
_cell_angle_gamma 90.000000
_cell_volume 5382.284649
_symmetry_space_group_name_H-M "P 4/N B M"
_symmetry_group_IT_number 125
_space_group.IT_coordinate_system_code '2'
_symmetry_cell_setting 'tetragonal'
loop_
_space_group_symop_operation_xyz
x,y,z
1/2-y,x,z
1/2-x,1/2-y,z
y,1/2-x,z
x,1/2-y,-z
1/2-x,y,-z
y,x,-z
1/2-y,1/2-x,-z
-x,-y,-z
1/2+y,-x,-z
1/2+x,1/2+y,-z
-y,1/2+x,-z
-x,1/2+y,z
1/2+x,-y,z
-y,-x,z
1/2+y,1/2+x,z
loop_
_atom_site_type_symbol
_atom_site_label
_atom_site_fract_x
_atom_site_fract_y
_atom_site_fract_z
Si Si1 0.699034 0.579418 0.500000
Si Si2 0.016517 0.800752 0.500000
Si Si3 0.799791 0.299791 0.500000
Si Si4 0.068679 0.801042 0.000000
Si Si5 0.199440 0.369062 0.000000
Si Si6 0.839293 0.339293 1.000000
O O1 0.750000 0.577504 0.500000
O O2 0.683396 0.531409 0.500000
O O3 0.687519 0.604517 0.751683
O O4 0.687519 0.604517 0.248317
O O5 0.013953 0.750000 0.500000
O O6 0.041919 0.811653 0.751534
O O7 0.041919 0.811653 0.248467
O O8 0.807406 0.250000 0.500000
O O9 0.819314 0.319314 0.250026
O O10 0.819314 0.319314 0.749974
O O11 0.076762 0.750000 0.000000
O O12 0.111933 0.826558 1.000000
O O13 0.250000 0.363126 0.000000
O O14 0.174536 0.325465 0.000000
#
# Coordination Sequence:
#
# PCOD9562910 Si02
#       6
#    16  16   8  16  16   8
#     4   9  17  30  47  65  87 118 156 194 229 264
#     4   9  17  30  47  65  83 109 148 188 229 277
#     4  11  22  34  46  58  78 116 162 196 219 250
#     4  10  19  30  45  64  86 114 146 182 228 278
#     4  10  19  30  45  67  96 131 164 190 217 247
#     4  12  22  33  46  64  90 116 145 190 234 280
#
# _framework density 14.863576
#
# number of rings (size 3 to 8) (size 9 to 14) (size 15 to 20)
#    0.000    2.100    0.000    4.800    0.000    7.400 
#    0.000    0.000    0.000    3.600    0.000    0.000 
#    0.000    0.000    0.000   63.000    0.000    0.000 
#
# Total GULP energy -446151.448354 kJ/mol
# GULP energy per Si atom -5576.893104 kJ/mol
# Density = 1.482975 g / cm^3
# Si number density = 14.863576 Si / 1000 Ang^3
#
#
#
# Elastic Constant Matrix: (Units=GPa)
#
#
# Indices 1 2 3 4 5 6 
#
# 1 96.0371 41.6632 60.0981 0.0000 0.0000 0.0000
# 2 41.6632 96.0572 60.1050 0.0000 0.0000 0.0000
# 3 60.0981 60.1050 170.2040 0.0000 0.0000 0.0000
# 4 0.0000 0.0000 0.0000 14.9195 0.0000 0.0000
# 5 0.0000 0.0000 0.0000 0.0000 14.9185 0.0000
# 6 0.0000 0.0000 0.0000 0.0000 0.0000 10.5278
#
#
#
# Elastic Compliance Matrix: (Units=1/GPa)
#
#
# Indices 1 2 3 4 5 6 
#
# 1 0.014444 -0.003945 -0.003707 0.000000 0.000000 0.000000
# 2 -0.003945 0.014441 -0.003707 0.000000 0.000000 0.000000
# 3 -0.003707 -0.003707 0.008493 0.000000 0.000000 0.000000
# 4 0.000000 0.000000 0.000000 0.067026 0.000000 0.000000
# 5 0.000000 0.000000 0.000000 0.000000 0.067031 0.000000
# 6 0.000000 0.000000 0.000000 0.000000 0.000000 0.094986
#
#
# Mechanical properties :
#
#
# Convention : Reuss Voigt Hill
#
# Bulk Modulus (GPa) = 68.21048 76.22567 72.21807
# Shear Modulus (GPa) = 17.00530 21.43528 19.22029
#
# Velocity S-wave (km/s) = 3.38611 3.80167 3.59989
# Velocity P-wave (km/s) = 7.82805 8.40625 8.12230
#
# Compressibility (1/GPa) = 0.01466050
#
# Stress axis : x y z
#
# Youngs Moduli (GPa) = 69.23342 69.24750 117.74319
#
# Poissons Ratio (x) = 0.27321 0.43645
# Poissons Ratio (y) = 0.27315 0.43642
# Poissons Ratio (z) = 0.25664 0.25667
#
# Static dielectric constant tensor:
#      x y z
#    x 1.475130 0.000000 0.000000 
#    y 0.000000 1.475130 0.000000 
#    z 0.000000 0.000000 1.496680 
# 
# From -- ./inp_files/1183.got.cif
#   From: 2010.05.17/outbox.cif.g08.bks.cpg/sg125_1_cif.got.tgz:1183.got - 2010.05.20 11:54:10.
