data_PCOD9562194
_publ_section_title
;
Structure prediction by ZEFSAII (Michael W. Deem and Ramdas Pophale) SiO2 
 PCOD9562194
Probable space group: P 4/M M M
;
_chemical_formula_sum "Si O2"
_cell_formula_units_Z 96
_cell_length_a 24.678304
_cell_length_b 24.678304
_cell_length_c 8.888848
_cell_angle_alpha 90.000000
_cell_angle_beta 90.000000
_cell_angle_gamma 90.000000
_cell_volume 5413.474550
_symmetry_space_group_name_H-M "P 4/M M M"
_symmetry_group_IT_number 123
_symmetry_cell_setting 'tetragonal'
loop_
_space_group_symop_operation_xyz
x,y,z
-y,x,z
-x,-y,z
y,-x,z
x,-y,-z
-x,y,-z
y,x,-z
-y,-x,-z
-x,-y,-z
y,-x,-z
x,y,-z
-y,x,-z
-x,y,z
x,-y,z
-y,-x,z
y,x,z
loop_
_atom_site_type_symbol
_atom_site_label
_atom_site_fract_x
_atom_site_fract_y
_atom_site_fract_z
Si Si1 0.149671 0.761419 0.818515
Si Si2 0.561865 0.650554 0.321362
Si Si3 0.562344 0.767083 0.820949
Si Si4 0.642239 0.146390 0.678494
Si Si5 0.062037 0.149410 0.816720
Si Si6 0.064831 0.438701 0.177250
O O1 0.202795 0.797206 0.778887
O O2 0.148383 0.702316 0.747199
O O3 0.097718 0.798137 0.774047
O O4 0.148951 0.756375 0.000000
O O5 0.567505 0.662656 0.500000
O O6 0.500000 0.632257 0.296998
O O7 0.604503 0.604503 0.281348
O O8 0.570511 0.705189 0.228648
O O9 0.500000 0.781589 0.780035
O O10 0.605892 0.804227 0.739410
O O11 0.567673 0.772921 0.000000
O O12 0.645647 0.147975 0.500000
O O13 0.608400 0.094104 0.732806
O O14 0.096450 0.096450 0.770063
O O15 0.000000 0.150267 0.764226
O O16 0.061075 0.148917 0.000000
O O17 0.080541 0.500000 0.225114
O O18 0.000000 0.434895 0.189518
O O19 0.078946 0.433800 0.000000
#
# Coordination Sequence:
#
# PCOD9562194 Si02
#       6
#    16  16  16  16  16  16
#     4   9  19  36  54  72 100 140 183 221 256 302
#     4   9  18  33  53  78 108 139 171 210 258 312
#     4  10  21  37  56  76 100 133 173 215 259 310
#     4  12  24  35  53  80 107 136 172 216 267 320
#     4   8  14  26  47  76 107 137 169 207 252 299
#     4   9  19  37  59  81 107 140 176 213 254 304
#
# _framework density 17.733529000000001
#
# number of rings (size 3 to 8) (size 9 to 14) (size 15 to 20)
#    0.000    2.500    0.000    4.000    0.000    6.000 
#    0.000    4.167    0.000    0.000    0.000    2.333 
#    0.000    0.000    0.000    3.667    0.000    3.667 
#
# Total GULP energy -535606.061110 kJ/mol
# GULP energy per Si atom -5579.229803 kJ/mol
# Density = 1.769317 g / cm^3
# Si number density = 17.733529 Si / 1000 Ang^3
#
#
#
# Elastic Constant Matrix: (Units=GPa)
#
#
# Indices 1 2 3 4 5 6 
#
# 1 151.5967 91.9050 55.7866 0.0000 0.0000 0.0000
# 2 91.9050 151.5967 55.7866 0.0000 0.0000 0.0000
# 3 55.7866 55.7866 49.6752 0.0000 0.0000 0.0000
# 4 0.0000 0.0000 0.0000 12.5620 0.0000 0.0000
# 5 0.0000 0.0000 0.0000 0.0000 12.5620 0.0000
# 6 0.0000 0.0000 0.0000 0.0000 0.0000 26.4036
#
#
#
# Elastic Compliance Matrix: (Units=1/GPa)
#
#
# Indices 1 2 3 4 5 6 
#
# 1 0.012606 -0.004146 -0.009501 0.000000 0.000000 0.000000
# 2 -0.004146 0.012606 -0.009501 0.000000 0.000000 0.000000
# 3 -0.009501 -0.009501 0.041470 0.000000 0.000000 0.000000
# 4 0.000000 0.000000 0.000000 0.079605 0.000000 0.000000
# 5 0.000000 0.000000 0.000000 0.000000 0.079605 0.000000
# 6 0.000000 0.000000 0.000000 0.000000 0.000000 0.037874
#
#
# Mechanical properties :
#
#
# Convention : Reuss Voigt Hill
#
# Bulk Modulus (GPa) = 49.05119 84.42502 66.73811
# Shear Modulus (GPa) = 15.77986 20.26486 18.02236
#
# Velocity S-wave (km/s) = 2.98624 3.38412 3.19138
# Velocity P-wave (km/s) = 6.29368 7.93603 7.16209
#
# Compressibility (1/GPa) = 0.02038686
#
# Stress axis : x y z
#
# Youngs Moduli (GPa) = 79.32467 79.32467 24.11359
#
# Poissons Ratio (x) = 0.32890 0.22910
# Poissons Ratio (y) = 0.32890 0.22910
# Poissons Ratio (z) = 0.75366 0.75366
#
# Static dielectric constant tensor:
#      x y z
#    x 1.594210 0.000000 0.000000 
#    y 0.000000 1.594210 0.000000 
#    z 0.000000 0.000000 1.588510 
# 
# From -- ./inp_files/1626.got.cif
#   From: 2010.05.17/outbox.cif.g08.bks.cpg/sg123_1_cif.got.tgz:1626.got - 2010.05.20 11:43:04.
