data_PCOD9562762
_publ_section_title
;
Structure prediction by ZEFSAII (Michael W. Deem and Ramdas Pophale) SiO2 
 PCOD9562762
Probable space group: P 4/M C C
;
_chemical_formula_sum "Si O2"
_cell_formula_units_Z 72
_cell_length_a 14.032555
_cell_length_b 14.032555
_cell_length_c 16.740892
_cell_angle_alpha 90.000000
_cell_angle_beta 90.000000
_cell_angle_gamma 90.000000
_cell_volume 3296.492567
_symmetry_space_group_name_H-M "P 4/M C C"
_symmetry_group_IT_number 124
_symmetry_cell_setting 'tetragonal'
loop_
_space_group_symop_operation_xyz
x,y,z
-y,x,z
-x,-y,z
y,-x,z
x,-y,1/2-z
-x,y,1/2-z
y,x,1/2-z
-y,-x,1/2-z
-x,-y,-z
y,-x,-z
x,y,-z
-y,x,-z
-x,y,1/2+z
x,-y,1/2+z
-y,-x,1/2+z
y,x,1/2+z
loop_
_atom_site_type_symbol
_atom_site_label
_atom_site_fract_x
_atom_site_fract_y
_atom_site_fract_z
Si Si1 0.302631 0.076912 0.821474
Si Si2 0.130359 0.908146 0.590610
Si Si3 0.470939 0.658089 0.500000
Si Si4 0.523083 0.223881 0.665254
Si Si5 0.069351 0.408199 0.086437
O O1 0.203443 0.126778 0.842786
O O2 0.385981 0.154910 0.820373
O O3 0.302118 0.000000 0.750000
O O4 0.325900 0.004468 0.894179
O O5 0.160358 0.883744 0.500000
O O6 0.022406 0.874972 0.599983
O O7 0.392476 0.574310 0.500000
O O8 0.461808 0.717200 0.583329
O O9 0.500000 0.274645 0.750000
O O10 0.434377 0.152553 0.647118
O O11 0.000000 0.500000 0.085662
O O12 0.113628 0.394371 0.000000
#
# Coordination Sequence:
#
# PCOD9562762 Si02
#       5
#    16  16   8  16  16
#     4  11  21  34  60 100 137 172 215 270 338 398
#     4   9  20  40  59  80 123 184 231 263 313 381
#     4  11  28  54  75  94 128 179 232 287 359 425
#     4  11  22  42  69 102 136 166 215 279 345 422
#     4   9  17  31  56  90 129 168 202 252 330 393
#
# _framework density 21.841397000000001
#
# number of rings (size 3 to 8) (size 9 to 14) (size 15 to 20)
#    0.000    1.889    3.333    1.333    3.111    1.778 
#    4.000    4.444    0.000    0.000    0.000    0.000 
#    0.000    0.000    0.000    0.000    0.000    0.000 
#
# Total GULP energy -401375.032802 kJ/mol
# GULP energy per Si atom -5574.653233 kJ/mol
# Density = 2.179169 g / cm^3
# Si number density = 21.841397 Si / 1000 Ang^3
#
#
#
# Elastic Constant Matrix: (Units=GPa)
#
#
# Indices 1 2 3 4 5 6 
#
# 1 62.8197 7.5779 42.1205 0.0000 0.0000 0.0000
# 2 7.5779 62.8197 42.1205 0.0000 0.0000 0.0000
# 3 42.1205 42.1205 157.6190 0.0000 0.0000 0.0000
# 4 0.0000 0.0000 0.0000 16.0990 0.0000 0.0000
# 5 0.0000 0.0000 0.0000 0.0000 16.0990 0.0000
# 6 0.0000 0.0000 0.0000 0.0000 0.0000 3.8722
#
#
#
# Elastic Compliance Matrix: (Units=1/GPa)
#
#
# Indices 1 2 3 4 5 6 
#
# 1 0.019493 0.001390 -0.005581 0.000000 0.000000 0.000000
# 2 0.001390 0.019493 -0.005581 0.000000 0.000000 0.000000
# 3 -0.005581 -0.005581 0.009327 0.000000 0.000000 0.000000
# 4 0.000000 0.000000 0.000000 0.062116 0.000000 0.000000
# 5 0.000000 0.000000 0.000000 0.000000 0.062116 0.000000
# 6 0.000000 0.000000 0.000000 0.000000 0.000000 0.258250
#
#
# Mechanical properties :
#
#
# Convention : Reuss Voigt Hill
#
# Bulk Modulus (GPa) = 34.75753 51.87735 43.31744
# Shear Modulus (GPa) = 10.87133 19.97667 15.42400
#
# Velocity S-wave (km/s) = 2.23343 3.02756 2.66029
# Velocity P-wave (km/s) = 4.75385 6.00207 5.41405
#
# Compressibility (1/GPa) = 0.02877075
#
# Stress axis : x y z
#
# Youngs Moduli (GPa) = 51.30147 51.30147 107.21571
#
# Poissons Ratio (x) = -0.07133 0.59832
# Poissons Ratio (y) = -0.07133 0.59832
# Poissons Ratio (z) = 0.28629 0.28629
#
# Static dielectric constant tensor:
#      x y z
#    x 1.795070 0.000000 0.000000 
#    y 0.000000 1.795070 0.000000 
#    z 0.000000 0.000000 1.863800 
# 
# From -- ./inp_files/4080.got.cif
#   From: 2010.05.17/outbox.cif.g08.bks.cpg/sg124_3_cif.got.tgz:4080.got - 2010.05.20 11:49:17.
