data_PCOD9562755
_publ_section_title
;
Structure prediction by ZEFSAII (Michael W. Deem and Ramdas Pophale) SiO2 
 PCOD9562755
Probable space group: P 4/M C C
;
_chemical_formula_sum "Si O2"
_cell_formula_units_Z 56
_cell_length_a 12.152366
_cell_length_b 12.152366
_cell_length_c 20.185435
_cell_angle_alpha 90.000000
_cell_angle_beta 90.000000
_cell_angle_gamma 90.000000
_cell_volume 2980.985029
_symmetry_space_group_name_H-M "P 4/M C C"
_symmetry_group_IT_number 124
_symmetry_cell_setting 'tetragonal'
loop_
_space_group_symop_operation_xyz
x,y,z
-y,x,z
-x,-y,z
y,-x,z
x,-y,1/2-z
-x,y,1/2-z
y,x,1/2-z
-y,-x,1/2-z
-x,-y,-z
y,-x,-z
x,y,-z
-y,x,-z
-x,y,1/2+z
x,-y,1/2+z
-y,-x,1/2+z
y,x,1/2+z
loop_
_atom_site_type_symbol
_atom_site_label
_atom_site_fract_x
_atom_site_fract_y
_atom_site_fract_z
Si Si1 0.700877 0.141573 0.574340
Si Si2 0.183925 0.000000 0.250000
Si Si3 0.503914 0.866161 0.172790
Si Si4 0.094813 0.281740 0.119009
O O1 0.676104 0.183043 0.500000
O O2 0.609176 0.170289 0.629826
O O3 0.819771 0.188333 0.596892
O O4 0.703314 0.008453 0.570984
O O5 0.255198 0.027388 0.313540
O O6 0.104483 0.104483 0.250000
O O7 0.500000 0.831056 0.250000
O O8 0.392044 0.837051 0.133989
O O9 0.500000 0.000000 0.172707
#
# Coordination Sequence:
#
# PCOD9562755 Si02
#       4
#    16   8  16  16
#     4  11  23  37  55  83 120 158 193 237 296 355
#     4  11  20  32  55  82 120 153 188 233 292 340
#     4   9  20  36  57  81 109 148 198 246 284 340
#     4  11  21  36  56  84 116 152 194 238 291 358
#
# _framework density 18.785737000000001
#
# number of rings (size 3 to 8) (size 9 to 14) (size 15 to 20)
#    0.000    1.571    2.857    4.286    0.000    6.857 
#    0.000    1.429    0.000    0.857    0.000    4.000 
#    0.000    0.000    0.000    0.000    0.000    0.000 
#
# Total GULP energy -311930.143213 kJ/mol
# GULP energy per Si atom -5570.181129 kJ/mol
# Density = 1.874298 g / cm^3
# Si number density = 18.785737 Si / 1000 Ang^3
#
#
#
# Elastic Constant Matrix: (Units=GPa)
#
#
# Indices 1 2 3 4 5 6 
#
# 1 61.3128 23.9690 32.0071 0.0000 0.0000 0.0000
# 2 23.9690 61.3128 32.0071 0.0000 0.0000 0.0000
# 3 32.0071 32.0071 149.3741 0.0000 0.0000 0.0000
# 4 0.0000 0.0000 0.0000 12.7016 0.0000 0.0000
# 5 0.0000 0.0000 0.0000 0.0000 12.7016 0.0000
# 6 0.0000 0.0000 0.0000 0.0000 0.0000 4.2521
#
#
#
# Elastic Compliance Matrix: (Units=1/GPa)
#
#
# Indices 1 2 3 4 5 6 
#
# 1 0.020376 -0.006402 -0.002994 0.000000 0.000000 0.000000
# 2 -0.006402 0.020376 -0.002994 0.000000 0.000000 0.000000
# 3 -0.002994 -0.002994 0.007978 0.000000 0.000000 0.000000
# 4 0.000000 0.000000 0.000000 0.078730 0.000000 0.000000
# 5 0.000000 0.000000 0.000000 0.000000 0.078730 0.000000
# 6 0.000000 0.000000 0.000000 0.000000 0.000000 0.235179
#
#
# Mechanical properties :
#
#
# Convention : Reuss Voigt Hill
#
# Bulk Modulus (GPa) = 41.75750 49.77404 45.76577
# Shear Modulus (GPa) = 10.54557 18.19881 14.37219
#
# Velocity S-wave (km/s) = 2.37188 3.11586 2.76897
# Velocity P-wave (km/s) = 5.45689 6.28474 5.88539
#
# Compressibility (1/GPa) = 0.02394779
#
# Stress axis : x y z
#
# Youngs Moduli (GPa) = 49.07798 49.07798 125.34888
#
# Poissons Ratio (x) = 0.31422 0.37531
# Poissons Ratio (y) = 0.31422 0.37531
# Poissons Ratio (z) = 0.14695 0.14695
#
# Static dielectric constant tensor:
#      x y z
#    x 1.668640 0.000000 0.000000 
#    y 0.000000 1.668640 0.000000 
#    z 0.000000 0.000000 1.720990 
# 
# From -- ./inp_files/4852.got.cif
#   From: 2010.05.17/outbox.cif.g08.bks.cpg/sg124_3_cif.got.tgz:4852.got - 2010.05.20 11:49:17.
