data_PCOD9562767
_publ_section_title
;
Structure prediction by ZEFSAII (Michael W. Deem and Ramdas Pophale) SiO2 
 PCOD9562767
Probable space group: P 4/M C C
;
_chemical_formula_sum "Si O2"
_cell_formula_units_Z 48
_cell_length_a 9.915409
_cell_length_b 9.915409
_cell_length_c 26.818660
_cell_angle_alpha 90.000000
_cell_angle_beta 90.000000
_cell_angle_gamma 90.000000
_cell_volume 2636.685559
_symmetry_space_group_name_H-M "P 4/M C C"
_symmetry_group_IT_number 124
_symmetry_cell_setting 'tetragonal'
loop_
_space_group_symop_operation_xyz
x,y,z
-y,x,z
-x,-y,z
y,-x,z
x,-y,1/2-z
-x,y,1/2-z
y,x,1/2-z
-y,-x,1/2-z
-x,-y,-z
y,-x,-z
x,y,-z
-y,x,-z
-x,y,1/2+z
x,-y,1/2+z
-y,-x,1/2+z
y,x,1/2+z
loop_
_atom_site_type_symbol
_atom_site_label
_atom_site_fract_x
_atom_site_fract_y
_atom_site_fract_z
Si Si1 0.771909 0.018133 0.694451
Si Si2 0.354573 0.163373 0.557524
Si Si3 0.649319 0.120858 0.596462
O O1 0.668261 0.054230 0.650946
O O2 0.882422 0.138518 0.689719
O O3 0.713016 0.000000 0.750000
O O4 0.365091 0.206784 0.500000
O O5 0.499346 0.171731 0.584458
O O6 0.241473 0.248445 0.585651
O O7 0.319814 0.004589 0.559978
#
# Coordination Sequence:
#
# PCOD9562767 Si02
#       3
#    16  16  16
#     4   9  17  33  60  86 114 146 192 250 305 350
#     4  11  23  38  57  85 122 161 205 249 299 359
#     4  11  21  38  59  85 120 158 200 250 302 358
#
# _framework density 18.204671999999999
#
# number of rings (size 3 to 8) (size 9 to 14) (size 15 to 20)
#    0.000    1.667    3.333    5.000    0.000    1.333 
#    0.000    6.667    0.000    0.000    0.000    0.000 
#    0.000    0.000    0.000    0.000    0.000    0.000 
#
# Total GULP energy -267533.734738 kJ/mol
# GULP energy per Si atom -5573.619474 kJ/mol
# Density = 1.816324 g / cm^3
# Si number density = 18.204672 Si / 1000 Ang^3
#
#
#
# Elastic Constant Matrix: (Units=GPa)
#
#
# Indices 1 2 3 4 5 6 
#
# 1 64.3854 71.0328 32.3530 0.0000 0.0000 0.0000
# 2 71.0328 64.3854 32.3530 0.0000 0.0000 0.0000
# 3 32.3530 32.3530 162.9699 0.0000 0.0000 0.0000
# 4 0.0000 0.0000 0.0000 22.4585 0.0000 0.0000
# 5 0.0000 0.0000 0.0000 0.0000 22.4585 0.0000
# 6 0.0000 0.0000 0.0000 0.0000 0.0000 29.1072
#
#
#
# Elastic Compliance Matrix: (Units=1/GPa)
#
#
# Indices 1 2 3 4 5 6 
#
# 1 -0.071138 0.079297 -0.001620 0.000000 0.000000 0.000000
# 2 0.079297 -0.071138 -0.001620 0.000000 0.000000 0.000000
# 3 -0.001620 -0.001620 0.006779 0.000000 0.000000 0.000000
# 4 0.000000 0.000000 0.000000 0.044527 0.000000 0.000000
# 5 0.000000 0.000000 0.000000 0.000000 0.044527 0.000000
# 6 0.000000 0.000000 0.000000 0.000000 0.000000 0.034356
#
#
# Mechanical properties :
#
#
# Convention : Reuss Voigt Hill
#
# Bulk Modulus (GPa) = 60.17745 62.57983 61.37864
# Shear Modulus (GPa) = -31.51322 25.20495 -3.15413
#
# Velocity S-wave (km/s) = -4.16510 3.72497 -1.31771
# Velocity P-wave (km/s) = 3.16181 7.27673 5.61016
#
# Compressibility (1/GPa) = 0.01661752
#
# Stress axis : x y z
#
# Youngs Moduli (GPa) = -14.05715 -14.05715 147.51086
#
# Poissons Ratio (x) = 1.11468 0.23891
# Poissons Ratio (y) = 1.11468 0.23891
# Poissons Ratio (z) = -0.02277 -0.02277
#
# Static dielectric constant tensor:
#      x y z
#    x 1.618010 0.000000 0.000000 
#    y 0.000000 1.618010 0.000000 
#    z 0.000000 0.000000 1.687650 
# 
# From -- ./inp_files/4766.got.cif
#   From: 2010.05.17/outbox.cif.g08.bks.cpg/sg124_3_cif.got.tgz:4766.got - 2010.05.20 11:49:17.
