data_PCOD9562687
_publ_section_title
;
Structure prediction by ZEFSAII (Michael W. Deem and Ramdas Pophale) SiO2 
 PCOD9562687
Probable space group: P 4/M C C
;
_chemical_formula_sum "Si O2"
_cell_formula_units_Z 80
_cell_length_a 17.505060
_cell_length_b 17.505060
_cell_length_c 13.878046
_cell_angle_alpha 90.000000
_cell_angle_beta 90.000000
_cell_angle_gamma 90.000000
_cell_volume 4252.609745
_symmetry_space_group_name_H-M "P 4/M C C"
_symmetry_group_IT_number 124
_symmetry_cell_setting 'tetragonal'
loop_
_space_group_symop_operation_xyz
x,y,z
-y,x,z
-x,-y,z
y,-x,z
x,-y,1/2-z
-x,y,1/2-z
y,x,1/2-z
-y,-x,1/2-z
-x,-y,-z
y,-x,-z
x,y,-z
-y,x,-z
-x,y,1/2+z
x,-y,1/2+z
-y,-x,1/2+z
y,x,1/2+z
loop_
_atom_site_type_symbol
_atom_site_label
_atom_site_fract_x
_atom_site_fract_y
_atom_site_fract_z
Si Si1 0.122568 0.450369 0.607267
Si Si2 0.786868 0.202309 0.114370
Si Si3 0.066126 0.896097 0.616684
Si Si4 0.951596 0.383872 0.606899
Si Si5 0.671728 0.153611 0.744170
O O1 0.154750 0.437482 0.500000
O O2 0.100282 0.539292 0.615027
O O3 0.168583 0.409346 0.692199
O O4 0.039057 0.409777 0.611342
O O5 0.827163 0.122043 0.142108
O O6 0.706919 0.207478 0.172024
O O7 0.841129 0.267987 0.157360
O O8 0.779228 0.207923 0.000000
O O9 0.064542 0.896339 0.500000
O O10 0.977510 0.897266 0.646873
O O11 0.938487 0.349766 0.500000
O O12 0.924513 0.334434 0.695821
#
# Coordination Sequence:
#
# PCOD9562687 Si02
#       5
#    16  16  16  16  16
#     4   9  18  32  50  73  98 121 149 191 244 301
#     4  10  22  35  46  66  92 120 160 208 256 300
#     4   8  15  30  48  59  72 103 149 202 255 297
#     4   9  18  32  50  73  98 121 149 191 244 301
#     4  11  20  31  47  64  89 122 154 188 231 291
#
# _framework density 18.811976999999999
#
# number of rings (size 3 to 8) (size 9 to 14) (size 15 to 20)
#    0.000    2.600    0.000    4.200    0.000    4.800 
#    0.000    7.000    0.000    4.800    0.000    0.000 
#    0.000    0.000    0.000    0.000    0.000  128.000 
#
# Total GULP energy -445716.282867 kJ/mol
# GULP energy per Si atom -5571.453536 kJ/mol
# Density = 1.876916 g / cm^3
# Si number density = 18.811977 Si / 1000 Ang^3
#
#
#
# Elastic Constant Matrix: (Units=GPa)
#
#
# Indices 1 2 3 4 5 6 
#
# 1 35.2460 16.4772 26.3457 0.0000 0.0000 0.0000
# 2 16.4772 35.2460 26.3457 0.0000 0.0000 0.0000
# 3 26.3457 26.3457 137.5530 0.0000 0.0000 0.0000
# 4 0.0000 0.0000 0.0000 21.5010 0.0000 0.0000
# 5 0.0000 0.0000 0.0000 0.0000 21.5010 0.0000
# 6 0.0000 0.0000 0.0000 0.0000 0.0000 16.8529
#
#
#
# Elastic Compliance Matrix: (Units=1/GPa)
#
#
# Indices 1 2 3 4 5 6 
#
# 1 0.038650 -0.014630 -0.004601 0.000000 0.000000 0.000000
# 2 -0.014630 0.038650 -0.004601 0.000000 0.000000 0.000000
# 3 -0.004601 -0.004601 0.009032 0.000000 0.000000 0.000000
# 4 0.000000 0.000000 0.000000 0.046509 0.000000 0.000000
# 5 0.000000 0.000000 0.000000 0.000000 0.046509 0.000000
# 6 0.000000 0.000000 0.000000 0.000000 0.000000 0.059337
#
#
# Mechanical properties :
#
#
# Convention : Reuss Voigt Hill
#
# Bulk Modulus (GPa) = 25.85951 38.48694 32.17323
# Shear Modulus (GPa) = 16.70897 21.22943 18.96920
#
# Velocity S-wave (km/s) = 2.98352 3.36297 3.17891
# Velocity P-wave (km/s) = 5.06405 5.96511 5.53296
#
# Compressibility (1/GPa) = 0.03867049
#
# Stress axis : x y z
#
# Youngs Moduli (GPa) = 25.87311 25.87311 110.71403
#
# Poissons Ratio (x) = 0.37852 0.50936
# Poissons Ratio (y) = 0.37852 0.50936
# Poissons Ratio (z) = 0.11903 0.11903
#
# Static dielectric constant tensor:
#      x y z
#    x 1.691370 0.000000 0.000000 
#    y 0.000000 1.691370 0.000000 
#    z 0.000000 0.000000 1.733120 
# 
# From -- ./inp_files/3063.got.cif
#   From: 2010.05.17/outbox.cif.g08.bks.cpg/sg124_2_cif.got.tgz:3063.got - 2010.05.20 11:49:17.
