data_PCOD9562800
_publ_section_title
;
Structure prediction by ZEFSAII (Michael W. Deem and Ramdas Pophale) SiO2 
 PCOD9562800
Probable space group: P 4/M C C
;
_chemical_formula_sum "Si O2"
_cell_formula_units_Z 48
_cell_length_a 8.305288
_cell_length_b 8.305288
_cell_length_c 31.501859
_cell_angle_alpha 90.000000
_cell_angle_beta 90.000000
_cell_angle_gamma 90.000000
_cell_volume 2172.929206
_symmetry_space_group_name_H-M "P 4/M C C"
_symmetry_group_IT_number 124
_symmetry_cell_setting 'tetragonal'
loop_
_space_group_symop_operation_xyz
x,y,z
-y,x,z
-x,-y,z
y,-x,z
x,-y,1/2-z
-x,y,1/2-z
y,x,1/2-z
-y,-x,1/2-z
-x,-y,-z
y,-x,-z
x,y,-z
-y,x,-z
-x,y,1/2+z
x,-y,1/2+z
-y,-x,1/2+z
y,x,1/2+z
loop_
_atom_site_type_symbol
_atom_site_label
_atom_site_fract_x
_atom_site_fract_y
_atom_site_fract_z
Si Si1 0.269732 0.000000 0.750000
Si Si2 0.267323 0.943849 0.343193
Si Si3 0.760530 0.418547 0.081459
Si Si4 0.089712 0.258427 0.500000
O O1 0.341856 0.035273 0.796154
O O2 0.152768 0.152768 0.750000
O O3 0.387733 0.869313 0.377276
O O4 0.116922 0.818804 0.348303
O O5 0.694145 0.600351 0.080724
O O6 0.863849 0.362636 0.041025
O O7 0.905447 0.197578 0.500000
#
# Coordination Sequence:
#
# PCOD9562800 Si02
#       4
#     8  16  16   8
#     4   7  12  26  52  81 108 135 176 239 298 341
#     4   9  17  32  58  86 112 146 194 250 302 354
#     4  11  24  39  56  84 125 168 205 245 298 362
#     4  11  24  41  62  90 120 153 202 259 306 354
#
# _framework density 22.089997
#
# number of rings (size 3 to 8) (size 9 to 14) (size 15 to 20)
#    0.000    2.333    0.000    5.000    0.000   10.667 
#    0.000    0.000    0.000   42.000    0.000   21.000 
#    0.000    0.000    0.000    0.000    0.000    0.000 
#
# Total GULP energy -267573.383928 kJ/mol
# GULP energy per Si atom -5574.445499 kJ/mol
# Density = 2.203972 g / cm^3
# Si number density = 22.089997 Si / 1000 Ang^3
#
#
#
# Elastic Constant Matrix: (Units=GPa)
#
#
# Indices 1 2 3 4 5 6 
#
# 1 105.1477 70.2837 60.6348 0.0000 0.0000 0.0000
# 2 70.2837 105.1477 60.6348 0.0000 0.0000 0.0000
# 3 60.6348 60.6348 206.6278 0.0000 0.0000 0.0000
# 4 0.0000 0.0000 0.0000 147.1602 0.0000 0.0000
# 5 0.0000 0.0000 0.0000 0.0000 147.1602 0.0000
# 6 0.0000 0.0000 0.0000 0.0000 0.0000 43.1148
#
#
#
# Elastic Compliance Matrix: (Units=1/GPa)
#
#
# Indices 1 2 3 4 5 6 
#
# 1 0.017917 -0.010766 -0.002098 0.000000 0.000000 0.000000
# 2 -0.010766 0.017917 -0.002098 0.000000 0.000000 0.000000
# 3 -0.002098 -0.002098 0.006071 0.000000 0.000000 0.000000
# 4 0.000000 0.000000 0.000000 0.006795 0.000000 0.000000
# 5 0.000000 0.000000 0.000000 0.000000 0.006795 0.000000
# 6 0.000000 0.000000 0.000000 0.000000 0.000000 0.023194
#
#
# Mechanical properties :
#
#
# Convention : Reuss Voigt Hill
#
# Bulk Modulus (GPa) = 83.47831 88.89217 86.18524
# Shear Modulus (GPa) = 44.40179 82.51171 63.45675
#
# Velocity S-wave (km/s) = 4.48821 6.11830 5.36552
# Velocity P-wave (km/s) = 8.04555 9.49946 8.80257
#
# Compressibility (1/GPa) = 0.01197916
#
# Stress axis : x y z
#
# Youngs Moduli (GPa) = 55.81344 55.81344 164.71311
#
# Poissons Ratio (x) = 0.60089 0.34563
# Poissons Ratio (y) = 0.60089 0.34563
# Poissons Ratio (z) = 0.11712 0.11712
#
# Static dielectric constant tensor:
#      x y z
#    x -1.274830 0.000000 0.000000 
#    y 0.000000 -1.274830 0.000000 
#    z 0.000000 0.000000 1.853940 
# 
# From -- ./inp_files/6778.got.cif
#   From: 2010.05.17/outbox.cif.g08.bks.cpg/sg124_4_cif.got.tgz:6778.got - 2010.05.20 11:49:17.
