data_PCOD9562058
_publ_section_title
;
Structure prediction by ZEFSAII (Michael W. Deem and Ramdas Pophale) SiO2 
 PCOD9562058
Probable space group: P 4/M M M
;
_chemical_formula_sum "Si O2"
_cell_formula_units_Z 120
_cell_length_a 17.666986
_cell_length_b 17.666986
_cell_length_c 24.343668
_cell_angle_alpha 90.000000
_cell_angle_beta 90.000000
_cell_angle_gamma 90.000000
_cell_volume 7598.203943
_symmetry_space_group_name_H-M "P 4/M M M"
_symmetry_group_IT_number 123
_symmetry_cell_setting 'tetragonal'
loop_
_space_group_symop_operation_xyz
x,y,z
-y,x,z
-x,-y,z
y,-x,z
x,-y,-z
-x,y,-z
y,x,-z
-y,-x,-z
-x,-y,-z
y,-x,-z
x,y,-z
-y,x,-z
-x,y,z
x,-y,z
-y,-x,z
y,x,z
loop_
_atom_site_type_symbol
_atom_site_label
_atom_site_fract_x
_atom_site_fract_y
_atom_site_fract_z
Si Si1 0.831115 0.298325 0.842452
Si Si2 0.410948 0.282237 0.500000
Si Si3 0.586907 0.711367 0.821151
Si Si4 0.912265 0.212114 0.751519
Si Si5 0.667425 0.203701 0.600712
Si Si6 0.786421 0.088008 0.380280
Si Si7 0.412740 0.288912 0.310816
Si Si8 0.786402 0.912027 0.064085
O O1 0.762351 0.237650 0.841276
O O2 0.788927 0.378042 0.844137
O O3 0.878342 0.280494 0.787372
O O4 0.881712 0.277266 0.894665
O O5 0.500000 0.299839 0.500000
O O6 0.357110 0.357110 0.500000
O O7 0.387181 0.231885 0.447464
O O8 0.500000 0.699201 0.836386
O O9 0.640569 0.640569 0.836486
O O10 0.591499 0.718728 0.754781
O O11 0.861390 0.138611 0.765095
O O12 0.906156 0.223559 0.686024
O O13 0.000000 0.200433 0.765264
O O14 0.737141 0.262860 0.601238
O O15 0.709825 0.123997 0.594788
O O16 0.623519 0.217926 0.657612
O O17 0.858751 0.141250 0.394434
O O18 0.797855 0.000000 0.394232
O O19 0.500000 0.299107 0.326635
O O20 0.361831 0.361831 0.326262
O O21 0.860570 0.860570 0.073652
O O22 0.802020 0.000000 0.074273
O O23 0.765203 0.902941 0.000000
#
# Coordination Sequence:
#
# PCOD9562058 Si02
#       8
#    16   8  16  16  16  16  16  16
#     4   9  16  27  42  60  85 116 150 182 210 251
#     4  10  20  33  51  73  94 118 146 176 210 246
#     4   9  17  28  44  66  88 111 139 173 217 265
#     4   9  16  25  40  63  89 118 149 181 219 258
#     4   9  17  30  46  64  88 119 152 179 207 251
#     4   9  17  29  46  67  89 113 143 181 224 267
#     4   9  16  26  42  64  90 118 145 175 211 252
#     4   9  17  28  43  64  89 118 150 182 215 247
#
# _framework density 15.793205
#
# number of rings (size 3 to 8) (size 9 to 14) (size 15 to 20)
#    0.000    2.933    0.000    1.600    0.000    3.933 
#    0.000    3.667    0.000    8.800    0.000    8.400 
#    0.000    2.667    0.000    5.200    0.000    0.133 
#
# Total GULP energy -668040.239255 kJ/mol
# GULP energy per Si atom -5567.001994 kJ/mol
# Density = 1.575726 g / cm^3
# Si number density = 15.793205 Si / 1000 Ang^3
#
#
#
# Elastic Constant Matrix: (Units=GPa)
#
#
# Indices 1 2 3 4 5 6 
#
# 1 73.0160 73.4091 22.9154 0.0000 0.0000 0.0000
# 2 73.4091 73.0160 22.9154 0.0000 0.0000 0.0000
# 3 22.9154 22.9154 20.1069 0.0000 0.0000 0.0000
# 4 0.0000 0.0000 0.0000 14.5587 0.0000 0.0000
# 5 0.0000 0.0000 0.0000 0.0000 14.5587 0.0000
# 6 0.0000 0.0000 0.0000 0.0000 0.0000 16.8837
#
#
#
# Elastic Compliance Matrix: (Units=1/GPa)
#
#
# Indices 1 2 3 4 5 6 
#
# 1 -1.266705 1.277322 -0.012099 0.000000 0.000000 0.000000
# 2 1.277322 -1.266705 -0.012099 0.000000 0.000000 0.000000
# 3 -0.012099 -0.012099 0.077313 0.000000 0.000000 0.000000
# 4 0.000000 0.000000 0.000000 0.068687 0.000000 0.000000
# 5 0.000000 0.000000 0.000000 0.000000 0.068687 0.000000
# 6 0.000000 0.000000 0.000000 0.000000 0.000000 0.059229
#
#
# Mechanical properties :
#
#
# Convention : Reuss Voigt Hill
#
# Bulk Modulus (GPa) = 19.94079 44.95762 32.44920
# Shear Modulus (GPa) = -1.05285 12.32684 5.63700
#
# Velocity S-wave (km/s) = -0.81737 2.79680 1.89130
# Velocity P-wave (km/s) = 3.42969 6.24161 5.03590
#
# Compressibility (1/GPa) = 0.05014847
#
# Stress axis : x y z
#
# Youngs Moduli (GPa) = -0.78945 -0.78945 12.93442
#
# Poissons Ratio (x) = 1.00838 0.15650
# Poissons Ratio (y) = 1.00838 0.15650
# Poissons Ratio (z) = -0.00955 -0.00955
#
# Static dielectric constant tensor:
#      x y z
#    x 1.522000 0.000000 0.000000 
#    y 0.000000 1.522000 0.000000 
#    z 0.000000 0.000000 1.547690 
# 
# From -- ./inp_files/7639.got.cif
#   From: 2010.05.17/outbox.cif.g08.bks.cpg/sg123_4_cif.got.tgz:7639.got - 2010.05.20 11:43:04.
