data_PCOD9562264
_publ_section_title
;
Structure prediction by ZEFSAII (Michael W. Deem and Ramdas Pophale) SiO2 
 PCOD9562264
Probable space group: P 4/M M M
;
_chemical_formula_sum "Si O2"
_cell_formula_units_Z 72
_cell_length_a 22.050787
_cell_length_b 22.050787
_cell_length_c 7.524977
_cell_angle_alpha 90.000000
_cell_angle_beta 90.000000
_cell_angle_gamma 90.000000
_cell_volume 3658.923802
_symmetry_space_group_name_H-M "P 4/M M M"
_symmetry_group_IT_number 123
_symmetry_cell_setting 'tetragonal'
loop_
_space_group_symop_operation_xyz
x,y,z
-y,x,z
-x,-y,z
y,-x,z
x,-y,-z
-x,y,-z
y,x,-z
-y,-x,-z
-x,-y,-z
y,-x,-z
x,y,-z
-y,x,-z
-x,y,z
x,-y,z
-y,-x,z
y,x,z
loop_
_atom_site_type_symbol
_atom_site_label
_atom_site_fract_x
_atom_site_fract_y
_atom_site_fract_z
Si Si1 0.333180 0.098356 0.217353
Si Si2 0.000000 0.761729 0.788370
Si Si3 0.000000 0.096536 0.286763
Si Si4 0.235976 0.666822 0.787145
Si Si5 0.569141 0.000000 0.783403
Si Si6 0.665972 0.431383 0.286574
O O1 0.333212 0.167384 0.280573
O O2 0.391876 0.058924 0.270083
O O3 0.274554 0.059461 0.275804
O O4 0.333166 0.099856 0.000000
O O5 0.000000 0.832894 0.755436
O O6 0.000000 0.753680 0.000000
O O7 0.058986 0.058986 0.223114
O O8 0.000000 0.092561 0.500000
O O9 0.278475 0.721526 0.718187
O O10 0.272378 0.604940 0.752072
O O11 0.232760 0.673822 0.000000
O O12 0.500000 0.000000 0.721573
O O13 0.568139 0.000000 0.000000
O O14 0.660218 0.434082 0.500000
O O15 0.665347 0.500000 0.218580
O O16 0.610849 0.389151 0.219441
#
# Coordination Sequence:
#
# PCOD9562264 Si02
#       6
#    16   8   8  16   8  16
#     4   8  15  27  42  64  93 119 144 180 224 263
#     4   9  17  30  49  72  96 120 150 190 229 265
#     4   9  19  35  50  65  91 124 154 188 231 275
#     4   9  17  29  45  65  90 119 148 178 216 264
#     4   8  13  22  37  58  85 115 145 176 211 255
#     4   9  18  32  48  66  89 116 147 185 227 269
#
# _framework density 19.677917000000001
#
# number of rings (size 3 to 8) (size 9 to 14) (size 15 to 20)
#    0.000    3.333    0.000    1.667    0.000    2.889 
#    0.000    7.222    0.000    2.667    0.000    3.111 
#    0.000    6.222    0.000    0.000    0.000    0.000 
#
# Total GULP energy -401399.705912 kJ/mol
# GULP energy per Si atom -5574.995915 kJ/mol
# Density = 1.963313 g / cm^3
# Si number density = 19.677917 Si / 1000 Ang^3
#
#
#
# Elastic Constant Matrix: (Units=GPa)
#
#
# Indices 1 2 3 4 5 6 
#
# 1 215.1766 122.8467 3.3719 0.0000 0.0000 0.0000
# 2 122.8467 215.1766 3.3719 0.0000 0.0000 0.0000
# 3 3.3719 3.3719 48.0777 0.0000 0.0000 0.0000
# 4 0.0000 0.0000 0.0000 24.8957 0.0000 0.0000
# 5 0.0000 0.0000 0.0000 0.0000 24.8957 0.0000
# 6 0.0000 0.0000 0.0000 0.0000 0.0000 7.3185
#
#
#
# Elastic Compliance Matrix: (Units=1/GPa)
#
#
# Indices 1 2 3 4 5 6 
#
# 1 0.006897 -0.003934 -0.000208 0.000000 0.000000 0.000000
# 2 -0.003934 0.006897 -0.000208 0.000000 0.000000 0.000000
# 3 -0.000208 -0.000208 0.020829 0.000000 0.000000 0.000000
# 4 0.000000 0.000000 0.000000 0.040168 0.000000 0.000000
# 5 0.000000 0.000000 0.000000 0.000000 0.040168 0.000000
# 6 0.000000 0.000000 0.000000 0.000000 0.000000 0.136641
#
#
# Mechanical properties :
#
#
# Convention : Reuss Voigt Hill
#
# Bulk Modulus (GPa) = 38.57614 81.95689 60.26651
# Shear Modulus (GPa) = 18.59164 34.67801 26.63483
#
# Velocity S-wave (km/s) = 3.07709 4.20251 3.68304
# Velocity P-wave (km/s) = 5.68075 8.08008 6.98422
#
# Compressibility (1/GPa) = 0.02592276
#
# Stress axis : x y z
#
# Youngs Moduli (GPa) = 144.99852 144.99852 48.01042
#
# Poissons Ratio (x) = 0.57044 0.00998
# Poissons Ratio (y) = 0.57044 0.00998
# Poissons Ratio (z) = 0.03013 0.03013
#
# Static dielectric constant tensor:
#      x y z
#    x 1.673790 0.000000 0.000000 
#    y 0.000000 1.673790 0.000000 
#    z 0.000000 0.000000 1.754400 
# 
# From -- ./inp_files/1230.got.cif
#   From: 2010.05.17/outbox.cif.g08.bks.cpg/sg123_1_cif.got.tgz:1230.got - 2010.05.20 11:43:04.
