data_PCOD9562132
_publ_section_title
;
Structure prediction by ZEFSAII (Michael W. Deem and Ramdas Pophale) SiO2 
 PCOD9562132
Probable space group: P 4/M M M
;
_chemical_formula_sum "Si O2"
_cell_formula_units_Z 120
_cell_length_a 21.751673
_cell_length_b 21.751673
_cell_length_c 14.691192
_cell_angle_alpha 90.000000
_cell_angle_beta 90.000000
_cell_angle_gamma 90.000000
_cell_volume 6950.921215
_symmetry_space_group_name_H-M "P 4/M M M"
_symmetry_group_IT_number 123
_symmetry_cell_setting 'tetragonal'
loop_
_space_group_symop_operation_xyz
x,y,z
-y,x,z
-x,-y,z
y,-x,z
x,-y,-z
-x,y,-z
y,x,-z
-y,-x,-z
-x,-y,-z
y,-x,-z
x,y,-z
-y,x,-z
-x,y,z
x,-y,z
-y,-x,z
y,x,z
loop_
_atom_site_type_symbol
_atom_site_label
_atom_site_fract_x
_atom_site_fract_y
_atom_site_fract_z
Si Si1 0.117623 0.649871 0.391367
Si Si2 0.740767 0.153996 0.106114
Si Si3 0.643933 0.250386 0.105383
Si Si4 0.931018 0.830533 0.795681
Si Si5 0.644197 0.742583 0.390664
Si Si6 0.106227 0.795224 0.602953
Si Si7 0.000000 0.427967 0.388593
Si Si8 0.571504 0.326692 0.754347
O O1 0.120060 0.638171 0.500000
O O2 0.187151 0.639265 0.358284
O O3 0.105255 0.722447 0.381872
O O4 0.061516 0.608016 0.356729
O O5 0.792480 0.207520 0.111279
O O6 0.677433 0.187061 0.133967
O O7 0.768040 0.099510 0.166096
O O8 0.735869 0.136149 0.000000
O O9 0.697581 0.302420 0.108068
O O10 0.591903 0.276053 0.171021
O O11 0.624736 0.244719 0.000000
O O12 0.886633 0.886633 0.823127
O O13 0.929191 0.825935 0.686049
O O14 0.000000 0.838257 0.828344
O O15 0.639477 0.741147 0.500000
O O16 0.709020 0.709020 0.366052
O O17 0.592662 0.702124 0.341748
O O18 0.083675 0.807354 0.500000
O O19 0.174844 0.825157 0.607313
O O20 0.000000 0.500000 0.363487
O O21 0.000000 0.425443 0.500000
O O22 0.500000 0.339534 0.758039
O O23 0.612910 0.387091 0.770046
#
# Coordination Sequence:
#
# PCOD9562132 Si02
#       8
#    16  16  16  16  16  16   8  16
#     4   9  17  29  47  67  90 123 158 200 250 299
#     4   8  15  30  52  75  97 122 154 198 253 303
#     4   8  15  30  52  75  98 124 155 197 250 302
#     4  10  21  33  48  71  99 134 172 211 254 304
#     4   9  18  32  50  72  97 127 169 219 264 302
#     4   9  18  31  47  69  95 123 162 212 261 303
#     4   9  18  30  42  62  92 126 160 188 232 307
#     4  10  21  34  50  74 102 135 173 211 252 301
#
# _framework density 17.263898000000001
#
# number of rings (size 3 to 8) (size 9 to 14) (size 15 to 20)
#    0.000    3.000    0.000    1.200    2.800    3.467 
#    0.000    1.333    0.000    0.000    0.000    7.467 
#    0.000    0.000    0.000    2.933    0.000    0.267 
#
# Total GULP energy -668199.825862 kJ/mol
# GULP energy per Si atom -5568.331882 kJ/mol
# Density = 1.722460 g / cm^3
# Si number density = 17.263898 Si / 1000 Ang^3
#
#
#
# Elastic Constant Matrix: (Units=GPa)
#
#
# Indices 1 2 3 4 5 6 
#
# 1 65.1194 100.6519 24.6468 0.0000 0.0000 0.0000
# 2 100.6519 65.1194 24.6468 0.0000 0.0000 0.0000
# 3 24.6468 24.6468 42.3974 0.0000 0.0000 0.0000
# 4 0.0000 0.0000 0.0000 9.4258 0.0000 0.0000
# 5 0.0000 0.0000 0.0000 0.0000 9.4258 0.0000
# 6 0.0000 0.0000 0.0000 0.0000 0.0000 17.4038
#
#
#
# Elastic Compliance Matrix: (Units=1/GPa)
#
#
# Indices 1 2 3 4 5 6 
#
# 1 -0.010425 0.017718 -0.004240 0.000000 0.000000 0.000000
# 2 0.017718 -0.010425 -0.004240 0.000000 0.000000 0.000000
# 3 -0.004240 -0.004240 0.028516 0.000000 0.000000 0.000000
# 4 0.000000 0.000000 0.000000 0.106091 0.000000 0.000000
# 5 0.000000 0.000000 0.000000 0.000000 0.106091 0.000000
# 6 0.000000 0.000000 0.000000 0.000000 0.000000 0.057459
#
#
# Mechanical properties :
#
#
# Convention : Reuss Voigt Hill
#
# Bulk Modulus (GPa) = 38.25098 52.50301 45.37700
# Shear Modulus (GPa) = 18.68852 8.76380 13.72616
#
# Velocity S-wave (km/s) = 3.29374 2.25553 2.82277
# Velocity P-wave (km/s) = 6.05555 6.10420 6.07992
#
# Compressibility (1/GPa) = 0.02614312
#
# Stress axis : x y z
#
# Youngs Moduli (GPa) = -95.92261 -95.92261 35.06842
#
# Poissons Ratio (x) = 1.69958 0.14868
# Poissons Ratio (y) = 1.69958 0.14868
# Poissons Ratio (z) = -0.40668 -0.40668
#
# Static dielectric constant tensor:
#      x y z
#    x 1.588180 0.000000 0.000000 
#    y 0.000000 1.588180 0.000000 
#    z 0.000000 0.000000 1.608760 
# 
# From -- ./inp_files/4578.got.cif
#   From: 2010.05.17/outbox.cif.g08.bks.cpg/sg123_3_cif.got.tgz:4578.got - 2010.05.20 11:43:04.
