data_PCOD9562949
_publ_section_title
;
Structure prediction by ZEFSAII (Michael W. Deem and Ramdas Pophale) SiO2 
 PCOD9562949
Probable space group: P 4/N B M
;
_chemical_formula_sum "Si O2"
_cell_formula_units_Z 112
_cell_length_a 14.866956
_cell_length_b 14.866956
_cell_length_c 26.729510
_cell_angle_alpha 90.000000
_cell_angle_beta 90.000000
_cell_angle_gamma 90.000000
_cell_volume 5907.926853
_symmetry_space_group_name_H-M "P 4/N B M"
_symmetry_group_IT_number 125
_space_group.IT_coordinate_system_code '2'
_symmetry_cell_setting 'tetragonal'
loop_
_space_group_symop_operation_xyz
x,y,z
1/2-y,x,z
1/2-x,1/2-y,z
y,1/2-x,z
x,1/2-y,-z
1/2-x,y,-z
y,x,-z
1/2-y,1/2-x,-z
-x,-y,-z
1/2+y,-x,-z
1/2+x,1/2+y,-z
-y,1/2+x,-z
-x,1/2+y,z
1/2+x,-y,z
-y,-x,z
1/2+y,1/2+x,z
loop_
_atom_site_type_symbol
_atom_site_label
_atom_site_fract_x
_atom_site_fract_y
_atom_site_fract_z
Si Si1 0.743757 0.600183 0.441038
Si Si2 0.242903 0.607001 0.736394
Si Si3 0.468311 0.680686 0.640529
Si Si4 0.114286 0.031014 0.136749
Si Si5 0.003097 0.146067 0.980794
Si Si6 0.627566 0.830380 0.295486
Si Si7 0.303638 0.045941 0.189961
O O1 0.832401 0.659871 0.430872
O O2 0.750000 0.578836 0.500000
O O3 0.726897 0.514213 0.406840
O O4 0.312046 0.687955 0.733281
O O5 0.145373 0.645373 0.748775
O O6 0.246876 0.565214 0.681288
O O7 0.284394 0.543503 0.778287
O O8 0.388534 0.611467 0.628207
O O9 0.546302 0.629589 0.672713
O O10 0.208506 0.057435 0.162655
O O11 0.050562 0.116342 0.149787
O O12 0.139223 0.013470 0.079144
O O13 0.057295 0.942706 0.153594
O O14 0.914355 0.085646 0.994908
O O15 0.999324 0.250000 0.000000
O O16 0.090124 0.090124 0.000000
O O17 0.630952 0.724323 0.308225
O O18 0.612018 0.832022 0.235813
#
# Coordination Sequence:
#
# PCOD9562949 Si02
#       7
#    16  16  16  16  16  16  16
#     4   9  18  36  60  81 104 139 184 235 292 351
#     4   9  19  36  55  75 109 158 200 233 276 344
#     4  10  20  33  52  80 112 145 184 235 288 342
#     4  11  23  37  59  88 117 151 195 243 296 356
#     4  10  22  42  64  90 123 159 203 255 310 371
#     4  10  19  34  52  76 109 147 191 228 273 336
#     4  11  20  35  55  83 118 150 188 241 295 344
#
# _framework density 18.95758
#
# number of rings (size 3 to 8) (size 9 to 14) (size 15 to 20)
#    0.000    2.000    1.429    3.000    0.000    2.286 
#    0.000    8.571    0.000    1.714    0.000    0.000 
#    0.000    0.000    0.000    0.000    0.000    0.000 
#
# Total GULP energy -623644.424918 kJ/mol
# GULP energy per Si atom -5568.253794 kJ/mol
# Density = 1.891443 g / cm^3
# Si number density = 18.957580 Si / 1000 Ang^3
#
#
#
# Elastic Constant Matrix: (Units=GPa)
#
#
# Indices 1 2 3 4 5 6 
#
# 1 91.3172 49.5220 46.5317 0.0000 0.0000 0.0000
# 2 49.5220 91.3172 46.5317 0.0000 0.0000 0.0000
# 3 46.5317 46.5317 91.0050 0.0000 0.0000 0.0000
# 4 0.0000 0.0000 0.0000 22.3847 0.0000 0.0000
# 5 0.0000 0.0000 0.0000 0.0000 22.3847 0.0000
# 6 0.0000 0.0000 0.0000 0.0000 0.0000 3.3028
#
#
#
# Elastic Compliance Matrix: (Units=1/GPa)
#
#
# Indices 1 2 3 4 5 6 
#
# 1 0.017325 -0.006601 -0.005483 0.000000 0.000000 0.000000
# 2 -0.006601 0.017325 -0.005483 0.000000 0.000000 0.000000
# 3 -0.005483 -0.005483 0.016595 0.000000 0.000000 0.000000
# 4 0.000000 0.000000 0.000000 0.044673 0.000000 0.000000
# 5 0.000000 0.000000 0.000000 0.000000 0.044673 0.000000
# 6 0.000000 0.000000 0.000000 0.000000 0.000000 0.302774
#
#
# Mechanical properties :
#
#
# Convention : Reuss Voigt Hill
#
# Bulk Modulus (GPa) = 62.07232 62.09004 62.08118
# Shear Modulus (GPa) = 10.33336 18.35137 14.34236
#
# Velocity S-wave (km/s) = 2.33722 3.11468 2.75353
# Velocity P-wave (km/s) = 6.33224 6.76448 6.55193
#
# Compressibility (1/GPa) = 0.01611024
#
# Stress axis : x y z
#
# Youngs Moduli (GPa) = 57.72090 57.72090 60.25788
#
# Poissons Ratio (x) = 0.38104 0.33039
# Poissons Ratio (y) = 0.38104 0.33039
# Poissons Ratio (z) = 0.31648 0.31648
#
# Static dielectric constant tensor:
#      x y z
#    x 1.687240 0.000000 0.000000 
#    y 0.000000 1.687240 0.000000 
#    z 0.000000 0.000000 1.688350 
# 
# From -- ./inp_files/6232.got.cif
#   From: 2010.05.17/outbox.cif.g08.bks.cpg/sg125_4_cif.got.tgz:6232.got - 2010.05.20 11:54:10.
