data_PCOD9562118
_publ_section_title
;
Structure prediction by ZEFSAII (Michael W. Deem and Ramdas Pophale) SiO2 
 PCOD9562118
Probable space group: P 4/M M M
;
_chemical_formula_sum "Si O2"
_cell_formula_units_Z 116
_cell_length_a 19.972972
_cell_length_b 19.972972
_cell_length_c 17.245237
_cell_angle_alpha 90.000000
_cell_angle_beta 90.000000
_cell_angle_gamma 90.000000
_cell_volume 6879.463227
_symmetry_space_group_name_H-M "P 4/M M M"
_symmetry_group_IT_number 123
_symmetry_cell_setting 'tetragonal'
loop_
_space_group_symop_operation_xyz
x,y,z
-y,x,z
-x,-y,z
y,-x,z
x,-y,-z
-x,y,-z
y,x,-z
-y,-x,-z
-x,-y,-z
y,-x,-z
x,y,-z
-y,x,-z
-x,y,z
x,-y,z
-y,-x,z
y,x,z
loop_
_atom_site_type_symbol
_atom_site_label
_atom_site_fract_x
_atom_site_fract_y
_atom_site_fract_z
Si Si1 0.325421 0.921371 0.324963
Si Si2 0.179523 0.420029 0.590499
Si Si3 0.724488 0.614780 0.869357
Si Si4 0.500000 0.737558 0.000000
Si Si5 0.925214 0.182115 0.406771
Si Si6 0.310062 0.578133 0.307329
Si Si7 0.924266 0.818839 0.093024
Si Si8 0.720251 0.171030 0.814749
O O1 0.381990 0.884420 0.374996
O O2 0.255383 0.918206 0.371199
O O3 0.313415 0.875863 0.249393
O O4 0.339669 0.000000 0.309274
O O5 0.188647 0.403085 0.500000
O O6 0.170451 0.500000 0.596944
O O7 0.246105 0.402902 0.639814
O O8 0.660444 0.660444 0.890498
O O9 0.735814 0.558179 0.931996
O O10 0.710598 0.586633 0.782782
O O11 0.787586 0.664322 0.860740
O O12 0.920383 0.186729 0.500000
O O13 0.868446 0.131555 0.378322
O O14 0.000000 0.157008 0.387943
O O15 0.326422 0.500000 0.321950
O O16 0.371912 0.628089 0.322156
O O17 0.889995 0.889995 0.111098
O O18 0.877156 0.763146 0.130306
O O19 0.000000 0.814009 0.121825
O O20 0.924345 0.811502 0.000000
O O21 0.772397 0.227603 0.782465
#
# Coordination Sequence:
#
# PCOD9562118 Si02
#       8
#    16  16  16   4  16  16  16  16
#     4  11  21  34  55  81 110 144 184 238 293 341
#     4  10  22  39  59  82 110 146 191 237 285 341
#     4  10  21  36  57  84 115 150 190 230 274 331
#     4  12  22  36  60  89 115 148 178 232 284 332
#     4   9  18  31  47  71 104 141 181 224 271 326
#     4  10  20  38  60  85 119 154 189 233 284 342
#     4   9  18  32  51  76 106 140 180 229 284 341
#     4  10  20  35  55  80 110 145 189 234 277 334
#
# _framework density 16.86178
#
# number of rings (size 3 to 8) (size 9 to 14) (size 15 to 20)
#    0.000    2.069    2.069    1.448    0.966    2.345 
#    0.000    2.069    0.000    1.655    0.000    5.793 
#    0.000    0.000    0.000    0.000    0.000    0.000 
#
# Total GULP energy -645929.032205 kJ/mol
# GULP energy per Si atom -5568.353726 kJ/mol
# Density = 1.682340 g / cm^3
# Si number density = 16.861780 Si / 1000 Ang^3
#
#
#
# Elastic Constant Matrix: (Units=GPa)
#
#
# Indices 1 2 3 4 5 6 
#
# 1 108.4575 66.2582 50.4703 0.0000 0.0000 0.0000
# 2 66.2582 108.4575 50.4703 0.0000 0.0000 0.0000
# 3 50.4703 50.4703 75.0884 0.0000 0.0000 0.0000
# 4 0.0000 0.0000 0.0000 23.8265 0.0000 0.0000
# 5 0.0000 0.0000 0.0000 0.0000 23.8265 0.0000
# 6 0.0000 0.0000 0.0000 0.0000 0.0000 21.1675
#
#
#
# Elastic Compliance Matrix: (Units=1/GPa)
#
#
# Indices 1 2 3 4 5 6 
#
# 1 0.016527 -0.007170 -0.006289 0.000000 0.000000 0.000000
# 2 -0.007170 0.016527 -0.006289 0.000000 0.000000 0.000000
# 3 -0.006289 -0.006289 0.021772 0.000000 0.000000 0.000000
# 4 0.000000 0.000000 0.000000 0.041970 0.000000 0.000000
# 5 0.000000 0.000000 0.000000 0.000000 0.041970 0.000000
# 6 0.000000 0.000000 0.000000 0.000000 0.000000 0.047242
#
#
# Mechanical properties :
#
#
# Convention : Reuss Voigt Hill
#
# Bulk Modulus (GPa) = 65.23479 69.60009 67.41744
# Shear Modulus (GPa) = 21.68101 22.08440 21.88271
#
# Velocity S-wave (km/s) = 3.58971 3.62295 3.60637
# Velocity P-wave (km/s) = 7.48019 7.67251 7.57696
#
# Compressibility (1/GPa) = 0.01532924
#
# Stress axis : x y z
#
# Youngs Moduli (GPa) = 60.50640 60.50640 45.92956
#
# Poissons Ratio (x) = 0.43383 0.28887
# Poissons Ratio (y) = 0.43383 0.28887
# Poissons Ratio (z) = 0.38055 0.38055
#
# Static dielectric constant tensor:
#      x y z
#    x 1.557570 0.000000 0.000000 
#    y 0.000000 1.557570 0.000000 
#    z 0.000000 0.000000 1.571930 
# 
# From -- ./inp_files/5723.got.cif
#   From: 2010.05.17/outbox.cif.g08.bks.cpg/sg123_3_cif.got.tgz:5723.got - 2010.05.20 11:43:04.
