data_PCOD9562158
_publ_section_title
;
Structure prediction by ZEFSAII (Michael W. Deem and Ramdas Pophale) SiO2 
 PCOD9562158
Probable space group: P 4/M M M
;
_chemical_formula_sum "Si O2"
_cell_formula_units_Z 88
_cell_length_a 13.694181
_cell_length_b 13.694181
_cell_length_c 27.827273
_cell_angle_alpha 90.000000
_cell_angle_beta 90.000000
_cell_angle_gamma 90.000000
_cell_volume 5218.465015
_symmetry_space_group_name_H-M "P 4/M M M"
_symmetry_group_IT_number 123
_symmetry_cell_setting 'tetragonal'
loop_
_space_group_symop_operation_xyz
x,y,z
-y,x,z
-x,-y,z
y,-x,z
x,-y,-z
-x,y,-z
y,x,-z
-y,-x,-z
-x,-y,-z
y,-x,-z
x,y,-z
-y,x,-z
-x,y,z
x,-y,z
-y,-x,z
y,x,z
loop_
_atom_site_type_symbol
_atom_site_label
_atom_site_fract_x
_atom_site_fract_y
_atom_site_fract_z
Si Si1 0.386473 0.776126 0.000000
Si Si2 0.115157 0.723163 0.637649
Si Si3 0.274710 0.114348 0.193837
Si Si4 0.613984 0.226101 0.443106
Si Si5 0.776983 0.384770 0.724443
Si Si6 0.886312 0.273938 0.919307
O O1 0.354338 0.838439 0.953496
O O2 0.500000 0.755527 0.000000
O O3 0.321239 0.678762 0.000000
O O4 0.175736 0.824265 0.638643
O O5 0.144708 0.666704 0.588897
O O6 0.157967 0.657611 0.680900
O O7 0.000000 0.736628 0.641983
O O8 0.174318 0.174318 0.202342
O O9 0.354817 0.166028 0.227010
O O10 0.298114 0.123060 0.137221
O O11 0.264820 0.000000 0.205494
O O12 0.621415 0.205369 0.500000
O O13 0.500000 0.235054 0.430677
O O14 0.673813 0.326188 0.433790
O O15 0.763451 0.500000 0.720408
O O16 0.675898 0.324103 0.723627
O O17 0.825039 0.174962 0.927815
O O18 0.000000 0.261291 0.930382
#
# Coordination Sequence:
#
# PCOD9562158 Si02
#       6
#     8  16  16  16  16  16
#     4  10  21  36  52  70  94 124 161 206 250 292
#     4  10  21  36  53  74 100 129 163 203 245 291
#     4   9  18  32  50  74 103 133 165 200 238 283
#     4   9  18  32  50  74 103 133 166 204 245 290
#     4  10  21  36  53  74 100 129 163 203 245 290
#     4   9  18  32  50  74 103 132 162 197 238 286
#
# _framework density 16.863195999999999
#
# number of rings (size 3 to 8) (size 9 to 14) (size 15 to 20)
#    0.000    2.545    0.000    1.364    0.000    5.364 
#    0.000    5.455    0.000    8.182    0.000    7.636 
#    0.000    0.000    0.000    0.000    0.000    0.000 
#
# Total GULP energy -490833.981561 kJ/mol
# GULP energy per Si atom -5577.658881 kJ/mol
# Density = 1.682482 g / cm^3
# Si number density = 16.863196 Si / 1000 Ang^3
#
#
#
# Elastic Constant Matrix: (Units=GPa)
#
#
# Indices 1 2 3 4 5 6 
#
# 1 147.3647 76.2170 57.0342 0.0000 0.0000 0.0000
# 2 76.2170 147.3687 57.0349 0.0000 0.0000 0.0000
# 3 57.0342 57.0349 54.6535 0.0000 0.0000 0.0000
# 4 0.0000 0.0000 0.0000 21.4053 0.0000 0.0000
# 5 0.0000 0.0000 0.0000 0.0000 21.4051 0.0000
# 6 0.0000 0.0000 0.0000 0.0000 0.0000 4.0680
#
#
#
# Elastic Compliance Matrix: (Units=1/GPa)
#
#
# Indices 1 2 3 4 5 6 
#
# 1 0.011810 -0.002245 -0.009982 0.000000 0.000000 0.000000
# 2 -0.002245 0.011810 -0.009982 0.000000 0.000000 0.000000
# 3 -0.009982 -0.009982 0.039131 0.000000 0.000000 0.000000
# 4 0.000000 0.000000 0.000000 0.046717 0.000000 0.000000
# 5 0.000000 0.000000 0.000000 0.000000 0.046718 0.000000
# 6 0.000000 0.000000 0.000000 0.000000 0.000000 0.245821
#
#
# Mechanical properties :
#
#
# Convention : Reuss Voigt Hill
#
# Bulk Modulus (GPa) = 54.54527 81.10656 67.82591
# Shear Modulus (GPa) = 11.04885 19.98241 15.51563
#
# Velocity S-wave (km/s) = 2.56247 3.44608 3.03659
# Velocity P-wave (km/s) = 6.41646 8.00219 7.25280
#
# Compressibility (1/GPa) = 0.01833340
#
# Stress axis : x y z
#
# Youngs Moduli (GPa) = 84.67228 84.67477 25.55531
#
# Poissons Ratio (x) = 0.19008 0.25510
# Poissons Ratio (y) = 0.19007 0.25509
# Poissons Ratio (z) = 0.84521 0.84521
#
# Static dielectric constant tensor:
#      x y z
#    x 1.540010 0.000000 0.000000 
#    y 0.000000 1.540010 0.000000 
#    z 0.000000 0.000000 1.591330 
# 
# From -- ./inp_files/8503.got.cif
#   From: 2010.05.17/outbox.cif.g08.bks.cpg/sg123_5_cif.got.tgz:8503.got - 2010.05.20 11:43:04.
