data_PCOD9562445
_publ_section_title
;
Structure prediction by ZEFSAII (Michael W. Deem and Ramdas Pophale) SiO2 
 PCOD9562445
Probable space group: P 4/M C C
;
_chemical_formula_sum "Si O2"
_cell_formula_units_Z 80
_cell_length_a 13.141797
_cell_length_b 13.141797
_cell_length_c 28.338523
_cell_angle_alpha 90.000000
_cell_angle_beta 90.000000
_cell_angle_gamma 90.000000
_cell_volume 4894.256429
_symmetry_space_group_name_H-M "P 4/M C C"
_symmetry_group_IT_number 124
_symmetry_cell_setting 'tetragonal'
loop_
_space_group_symop_operation_xyz
x,y,z
-y,x,z
-x,-y,z
y,-x,z
x,-y,1/2-z
-x,y,1/2-z
y,x,1/2-z
-y,-x,1/2-z
-x,-y,-z
y,-x,-z
x,y,-z
-y,x,-z
-x,y,1/2+z
x,-y,1/2+z
-y,-x,1/2+z
y,x,1/2+z
loop_
_atom_site_type_symbol
_atom_site_label
_atom_site_fract_x
_atom_site_fract_y
_atom_site_fract_z
Si Si1 0.714227 0.878921 0.000000
Si Si2 0.714228 0.878921 0.500000
Si Si3 0.618617 0.121443 0.899262
Si Si4 0.618616 0.121443 0.600738
Si Si5 0.377124 0.622876 0.750000
Si Si6 0.877477 0.122524 0.750000
Si Si7 0.750496 0.750497 0.173696
O O1 0.819942 0.819943 0.000000
O O2 0.654636 0.851736 0.952186
O O3 0.728601 0.000000 0.000000
O O4 0.654637 0.851736 0.547814
O O5 0.500000 0.144753 0.894189
O O6 0.682277 0.179785 0.860111
O O7 0.632343 1.000000 0.893884
O O8 0.682276 0.179785 0.639889
O O9 0.360429 0.500000 0.750000
O O10 0.321626 0.678373 0.794176
O O11 0.822355 0.177647 0.794118
O O12 0.000000 0.139295 0.750000
#
# Coordination Sequence:
#
# PCOD9562445 Si02
#       7
#     8   8  16  16   8   8  16
#     4  10  19  34  53  78 112 144 171 208 256 310
#     4  10  19  34  53  78 112 144 171 208 256 310
#     4  10  20  34  54  80 107 138 177 216 257 306
#     4  10  20  34  54  80 107 138 177 216 257 306
#     4  10  22  38  54  76 104 134 172 218 272 320
#     4  10  22  38  54  76 108 142 172 210 268 328
#     4  11  20  35  58  78 102 137 176 221 262 306
#
# _framework density 16.345690000000001
#
# number of rings (size 3 to 8) (size 9 to 14) (size 15 to 20)
#    0.000    1.800    2.000    3.000    0.000    2.600 
#    0.000    0.000    0.000    9.600    0.000    1.400 
#    0.000    0.000    0.000    0.000    0.000    0.000 
#
# Total GULP energy -446289.527235 kJ/mol
# GULP energy per Si atom -5578.619090 kJ/mol
# Density = 1.630849 g / cm^3
# Si number density = 16.345690 Si / 1000 Ang^3
#
#
#
# Elastic Constant Matrix: (Units=GPa)
#
#
# Indices 1 2 3 4 5 6 
#
# 1 62.1373 116.5768 84.9616 0.0000 0.0000 0.0000
# 2 116.5768 62.1385 84.9627 0.0000 0.0000 0.0000
# 3 84.9616 84.9627 165.7294 0.0000 0.0000 0.0000
# 4 0.0000 0.0000 0.0000 -1.0774 0.0000 0.0000
# 5 0.0000 0.0000 0.0000 0.0000 -1.0802 0.0000
# 6 0.0000 0.0000 0.0000 0.0000 0.0000 32.9647
#
#
#
# Elastic Compliance Matrix: (Units=1/GPa)
#
#
# Indices 1 2 3 4 5 6 
#
# 1 -0.003726 0.014643 -0.005597 0.000000 0.000000 0.000000
# 2 0.014643 -0.003726 -0.005596 0.000000 0.000000 0.000000
# 3 -0.005597 -0.005596 0.011772 0.000000 0.000000 0.000000
# 4 0.000000 0.000000 0.000000 -0.928167 0.000000 0.000000
# 5 0.000000 0.000000 0.000000 0.000000 -0.925764 0.000000
# 6 0.000000 0.000000 0.000000 0.000000 0.000000 0.030335
#
#
# Mechanical properties :
#
#
# Convention : Reuss Voigt Hill
#
# Bulk Modulus (GPa) = 89.13053 95.88972 92.51013
# Shear Modulus (GPa) = -2.74358 6.39503 1.82573
#
# Velocity S-wave (km/s) = -1.29696 1.98012 1.05800
# Velocity P-wave (km/s) = 7.23906 8.00117 7.62964
#
# Compressibility (1/GPa) = 0.01121950
#
# Stress axis : x y z
#
# Youngs Moduli (GPa) = -268.36843 -268.36974 84.94629
#
# Poissons Ratio (x) = 3.92974 0.47541
# Poissons Ratio (y) = 3.92972 0.47540
# Poissons Ratio (z) = -1.50195 -1.50193
#
# Static dielectric constant tensor:
#      x y z
#    x 1.520420 0.000000 0.000000 
#    y 0.000000 1.520420 0.000000 
#    z 0.000000 0.000000 1.546630 
# 
# From -- ./inp_files/7047.got.cif
#   From: 2010.05.17/outbox.cif.g08.bks.cpg/sg124_4_cif.got.tgz:7047.got - 2010.05.20 11:49:17.
