data_PCOD9562462
_publ_section_title
;
Structure prediction by ZEFSAII (Michael W. Deem and Ramdas Pophale) SiO2 
 PCOD9562462
Probable space group: P 4/M C C
;
_chemical_formula_sum "Si O2"
_cell_formula_units_Z 96
_cell_length_a 23.943145
_cell_length_b 23.943145
_cell_length_c 9.235646
_cell_angle_alpha 90.000000
_cell_angle_beta 90.000000
_cell_angle_gamma 90.000000
_cell_volume 5294.557503
_symmetry_space_group_name_H-M "P 4/M C C"
_symmetry_group_IT_number 124
_symmetry_cell_setting 'tetragonal'
loop_
_space_group_symop_operation_xyz
x,y,z
-y,x,z
-x,-y,z
y,-x,z
x,-y,1/2-z
-x,y,1/2-z
y,x,1/2-z
-y,-x,1/2-z
-x,-y,-z
y,-x,-z
x,y,-z
-y,x,-z
-x,y,1/2+z
x,-y,1/2+z
-y,-x,1/2+z
y,x,1/2+z
loop_
_atom_site_type_symbol
_atom_site_label
_atom_site_fract_x
_atom_site_fract_y
_atom_site_fract_z
Si Si1 0.147222 0.556201 0.329103
Si Si2 0.641479 0.440583 0.172226
Si Si3 0.817986 0.734522 0.325067
Si Si4 0.738915 0.053137 0.661823
Si Si5 0.760079 0.614856 0.330132
Si Si6 0.393097 0.051646 0.837600
O O1 0.129256 0.500000 0.250000
O O2 0.143736 0.552580 0.500000
O O3 0.208269 0.571997 0.273812
O O4 0.105832 0.601233 0.260913
O O5 0.652859 0.500000 0.250000
O O6 0.589528 0.410473 0.250000
O O7 0.694736 0.398579 0.185622
O O8 0.632064 0.448908 0.000000
O O9 0.782758 0.782758 0.250000
O O10 0.817696 0.738775 0.500000
O O11 0.883153 0.740007 0.279023
O O12 0.785093 0.676089 0.293597
O O13 0.763402 0.053771 0.500000
O O14 0.672694 0.041687 0.646728
O O15 0.761869 0.000000 0.750000
O O16 0.774696 0.604446 0.500000
O O17 0.418770 0.000000 0.750000
O O18 0.416235 0.058948 0.000000
#
# Coordination Sequence:
#
# PCOD9562462 Si02
#       6
#    16  16  16  16  16  16
#     4  12  24  36  53  76 103 141 187 232 280 332
#     4  11  24  42  66  90 116 145 180 223 279 342
#     4  10  20  35  55  84 118 152 187 232 277 323
#     4   9  18  33  54  77 110 148 187 231 277 325
#     4  10  21  40  60  82 115 149 180 225 277 329
#     4  10  19  35  54  74 103 137 181 232 281 330
#
# _framework density 18.131827999999999
#
# number of rings (size 3 to 8) (size 9 to 14) (size 15 to 20)
#    0.000    1.667    1.667    3.500    0.000    5.167 
#    0.000    2.500    0.000    0.000    0.000    0.000 
#    0.000    0.333    0.000    3.667    0.000    2.667 
#
# Total GULP energy -534989.475856 kJ/mol
# GULP energy per Si atom -5572.807040 kJ/mol
# Density = 1.809056 g / cm^3
# Si number density = 18.131828 Si / 1000 Ang^3
#
#
#
# Elastic Constant Matrix: (Units=GPa)
#
#
# Indices 1 2 3 4 5 6 
#
# 1 75.9573 32.9151 40.8336 0.0000 0.0000 0.0000
# 2 32.9151 75.9544 40.8296 0.0000 0.0000 0.0000
# 3 40.8336 40.8296 104.2497 0.0000 0.0000 0.0000
# 4 0.0000 0.0000 0.0000 19.9814 0.0000 0.0000
# 5 0.0000 0.0000 0.0000 0.0000 19.9816 0.0000
# 6 0.0000 0.0000 0.0000 0.0000 0.0000 -18.7725
#
#
#
# Elastic Compliance Matrix: (Units=1/GPa)
#
#
# Indices 1 2 3 4 5 6 
#
# 1 0.018120 -0.005114 -0.005095 0.000000 0.000000 0.000000
# 2 -0.005114 0.018120 -0.005094 0.000000 0.000000 0.000000
# 3 -0.005095 -0.005094 0.013583 0.000000 0.000000 0.000000
# 4 0.000000 0.000000 0.000000 0.050047 0.000000 0.000000
# 5 0.000000 0.000000 0.000000 0.000000 0.050046 0.000000
# 6 0.000000 0.000000 0.000000 0.000000 0.000000 -0.053269
#
#
# Mechanical properties :
#
#
# Convention : Reuss Voigt Hill
#
# Bulk Modulus (GPa) = 52.03273 53.92422 52.97848
# Shear Modulus (GPa) = 37.40929 13.67697 25.54313
#
# Velocity S-wave (km/s) = 4.54716 2.74945 3.75740
# Velocity P-wave (km/s) = 7.50520 6.31537 6.93585
#
# Compressibility (1/GPa) = 0.01921867
#
# Stress axis : x y z
#
# Youngs Moduli (GPa) = 55.18742 55.18764 73.62231
#
# Poissons Ratio (x) = 0.28222 0.37508
# Poissons Ratio (y) = 0.28221 0.37501
# Poissons Ratio (z) = 0.28116 0.28111
#
# Static dielectric constant tensor:
#      x y z
#    x 1.660280 0.000000 0.000000 
#    y 0.000000 1.660280 0.000000 
#    z 0.000000 0.000000 1.641790 
# 
# From -- ./inp_files/1317.got.cif
#   From: 2010.05.17/outbox.cif.g08.bks.cpg/sg124_1_cif.got.tgz:1317.got - 2010.05.20 11:49:17.
