data_PCOD9562302
_publ_section_title
;
Structure prediction by ZEFSAII (Michael W. Deem and Ramdas Pophale) SiO2 
 PCOD9562302
Probable space group: P 4/M C C
;
_chemical_formula_sum "Si O2"
_cell_formula_units_Z 96
_cell_length_a 15.094365
_cell_length_b 15.094365
_cell_length_c 21.049773
_cell_angle_alpha 90.000000
_cell_angle_beta 90.000000
_cell_angle_gamma 90.000000
_cell_volume 4795.977223
_symmetry_space_group_name_H-M "P 4/M C C"
_symmetry_group_IT_number 124
_symmetry_cell_setting 'tetragonal'
loop_
_space_group_symop_operation_xyz
x,y,z
-y,x,z
-x,-y,z
y,-x,z
x,-y,1/2-z
-x,y,1/2-z
y,x,1/2-z
-y,-x,1/2-z
-x,-y,-z
y,-x,-z
x,y,-z
-y,x,-z
-x,y,1/2+z
x,-y,1/2+z
-y,-x,1/2+z
y,x,1/2+z
loop_
_atom_site_type_symbol
_atom_site_label
_atom_site_fract_x
_atom_site_fract_y
_atom_site_fract_z
Si Si1 0.065730 0.579950 0.396907
Si Si2 0.786817 0.449224 0.068416
Si Si3 0.282329 0.916057 0.571511
Si Si4 0.401794 0.894435 0.237392
Si Si5 0.223054 0.906023 0.711794
Si Si6 0.490917 0.352761 0.175711
O O1 0.137668 0.525063 0.434982
O O2 0.114716 0.620109 0.336229
O O3 0.000000 0.500000 0.374669
O O4 0.004591 0.655977 0.425800
O O5 0.837040 0.355177 0.076577
O O6 0.726210 0.474946 0.127233
O O7 0.739502 0.446997 0.000000
O O8 0.242258 0.910830 0.500000
O O9 0.220041 0.916407 0.634693
O O10 0.500000 0.861104 0.250000
O O11 0.320051 0.861590 0.278086
O O12 0.404426 0.000000 0.250000
O O13 0.152298 0.847703 0.750000
O O14 0.222593 0.000000 0.750000
O O15 0.579826 0.409451 0.164686
O O16 0.500000 0.328589 0.250000
#
# Coordination Sequence:
#
# PCOD9562302 Si02
#       6
#    16  16  16  16  16  16
#     4  10  16  30  57  87 118 156 191 234 304 374
#     4  10  21  34  55  90 124 157 201 249 308 379
#     4  10  20  38  60  88 129 163 190 250 321 379
#     4  10  15  30  58  90 119 152 194 245 303 358
#     4  11  23  42  65  94 123 161 214 263 308 371
#     4   9  20  42  62  77 107 159 218 264 301 350
#
# _framework density 20.016774999999999
#
# number of rings (size 3 to 8) (size 9 to 14) (size 15 to 20)
#    0.000    2.000    5.000    2.000    0.000    4.833 
#    6.000    1.667    0.000    0.000    0.000    1.167 
#    0.000    0.333    0.000    0.000    0.000    0.000 
#
# Total GULP energy -534593.219535 kJ/mol
# GULP energy per Si atom -5568.679370 kJ/mol
# Density = 1.997122 g / cm^3
# Si number density = 20.016775 Si / 1000 Ang^3
#
#
#
# Elastic Constant Matrix: (Units=GPa)
#
#
# Indices 1 2 3 4 5 6 
#
# 1 71.9627 30.2206 42.1510 0.0000 0.0000 0.0000
# 2 30.2206 71.9625 42.1511 0.0000 0.0000 0.0000
# 3 42.1510 42.1511 195.6637 0.0000 0.0000 0.0000
# 4 0.0000 0.0000 0.0000 5.2080 0.0000 0.0000
# 5 0.0000 0.0000 0.0000 0.0000 5.2082 0.0000
# 6 0.0000 0.0000 0.0000 0.0000 0.0000 -7.4061
#
#
#
# Elastic Compliance Matrix: (Units=1/GPa)
#
#
# Indices 1 2 3 4 5 6 
#
# 1 0.017929 -0.006028 -0.002564 0.000000 0.000000 0.000000
# 2 -0.006028 0.017929 -0.002564 0.000000 0.000000 0.000000
# 3 -0.002564 -0.002564 0.006215 0.000000 0.000000 0.000000
# 4 0.000000 0.000000 0.000000 0.192012 0.000000 0.000000
# 5 0.000000 0.000000 0.000000 0.000000 0.192006 0.000000
# 6 0.000000 0.000000 0.000000 0.000000 0.000000 -0.135023
#
#
# Mechanical properties :
#
#
# Convention : Reuss Voigt Hill
#
# Bulk Modulus (GPa) = 50.59955 63.18160 56.89057
# Shear Modulus (GPa) = 15.62665 15.60643 15.61654
#
# Velocity S-wave (km/s) = 2.79709 2.79528 2.79619
# Velocity P-wave (km/s) = 5.98039 6.48467 6.23763
#
# Compressibility (1/GPa) = 0.01976302
#
# Stress axis : x y z
#
# Youngs Moduli (GPa) = 55.77521 55.77506 160.88866
#
# Poissons Ratio (x) = 0.33619 0.41250
# Poissons Ratio (y) = 0.33619 0.41251
# Poissons Ratio (z) = 0.14300 0.14300
#
# Static dielectric constant tensor:
#      x y z
#    x 1.720550 0.000000 0.000000 
#    y 0.000000 1.720550 0.000000 
#    z 0.000000 0.000000 1.793680 
# 
# From -- ./inp_files/5334.got.cif
#   From: 2010.05.17/outbox.cif.g08.bks.cpg/sg124_3_cif.got.tgz:5334.got - 2010.05.20 11:49:17.
