data_PCOD9562824
_publ_section_title
;
Structure prediction by ZEFSAII (Michael W. Deem and Ramdas Pophale) SiO2 
 PCOD9562824
Probable space group: P 4/M C C
;
_chemical_formula_sum "Si O2"
_cell_formula_units_Z 96
_cell_length_a 14.137552
_cell_length_b 14.137552
_cell_length_c 23.054158
_cell_angle_alpha 90.000000
_cell_angle_beta 90.000000
_cell_angle_gamma 90.000000
_cell_volume 4607.843241
_symmetry_space_group_name_H-M "P 4/M C C"
_symmetry_group_IT_number 124
_symmetry_cell_setting 'tetragonal'
loop_
_space_group_symop_operation_xyz
x,y,z
-y,x,z
-x,-y,z
y,-x,z
x,-y,1/2-z
-x,y,1/2-z
y,x,1/2-z
-y,-x,1/2-z
-x,-y,-z
y,-x,-z
x,y,-z
-y,x,-z
-x,y,1/2+z
x,-y,1/2+z
-y,-x,1/2+z
y,x,1/2+z
loop_
_atom_site_type_symbol
_atom_site_label
_atom_site_fract_x
_atom_site_fract_y
_atom_site_fract_z
Si Si1 0.999830 0.607872 0.568784
Si Si2 0.284814 0.166166 0.133798
Si Si3 0.643080 0.196822 0.876368
Si Si4 0.613676 0.113213 0.248847
Si Si5 0.901921 0.875679 0.563875
Si Si6 0.656186 0.475016 0.567648
O O1 0.992704 0.607746 0.500000
O O2 0.100623 0.651857 0.586709
O O3 0.000000 0.500000 0.591356
O O4 0.908239 0.657639 0.594978
O O5 0.272481 0.273681 0.113644
O O6 0.330441 0.157452 0.196963
O O7 0.177618 0.132384 0.121004
O O8 0.646265 0.161824 0.810462
O O9 0.547769 0.252903 0.893448
O O10 0.500000 0.125827 0.250000
O O11 0.631497 0.000000 0.250000
O O12 0.870942 0.836274 0.500000
O O13 0.015377 0.872499 0.564331
O O14 0.603027 0.573914 0.576989
O O15 0.685372 0.470020 0.500000
#
# Coordination Sequence:
#
# PCOD9562824 Si02
#       6
#    16  16  16  16  16  16
#     4  11  25  43  66 101 142 181 225 278 341 414
#     4  12  24  40  65  98 129 172 225 283 336 401
#     4  12  25  42  71 102 133 179 239 282 341 411
#     4  11  25  47  70  90 128 179 229 289 351 402
#     4   9  19  37  62  94 134 174 209 261 340 417
#     4   9  21  42  69 104 144 181 218 277 356 421
#
# _framework density 20.834042
#
# number of rings (size 3 to 8) (size 9 to 14) (size 15 to 20)
#    0.000    1.333    1.667    4.500    4.667    4.000 
#    0.000    0.000    0.000    0.000    0.000    0.000 
#    0.000    0.000    0.000    0.000    0.000    0.000 
#
# Total GULP energy -536151.928389 kJ/mol
# GULP energy per Si atom -5584.915921 kJ/mol
# Density = 2.078662 g / cm^3
# Si number density = 20.834042 Si / 1000 Ang^3
#
#
#
# Elastic Constant Matrix: (Units=GPa)
#
#
# Indices 1 2 3 4 5 6 
#
# 1 61.0723 25.3878 29.9658 0.0000 0.0000 0.0000
# 2 25.3878 61.0723 29.9658 0.0000 0.0000 0.0000
# 3 29.9658 29.9658 79.0711 0.0000 0.0000 0.0000
# 4 0.0000 0.0000 0.0000 26.5161 0.0000 0.0000
# 5 0.0000 0.0000 0.0000 0.0000 26.5161 0.0000
# 6 0.0000 0.0000 0.0000 0.0000 0.0000 38.2207
#
#
#
# Elastic Compliance Matrix: (Units=1/GPa)
#
#
# Indices 1 2 3 4 5 6 
#
# 1 0.021855 -0.006168 -0.005945 0.000000 0.000000 0.000000
# 2 -0.006168 0.021855 -0.005945 0.000000 0.000000 0.000000
# 3 -0.005945 -0.005945 0.017153 0.000000 0.000000 0.000000
# 4 0.000000 0.000000 0.000000 0.037713 0.000000 0.000000
# 5 0.000000 0.000000 0.000000 0.000000 0.037713 0.000000
# 6 0.000000 0.000000 0.000000 0.000000 0.000000 0.026164
#
#
# Mechanical properties :
#
#
# Convention : Reuss Voigt Hill
#
# Bulk Modulus (GPa) = 40.40915 41.31719 40.86317
# Shear Modulus (GPa) = 24.17586 25.97699 25.07643
#
# Velocity S-wave (km/s) = 3.41016 3.53491 3.47310
# Velocity P-wave (km/s) = 5.91130 6.04445 5.97825
#
# Compressibility (1/GPa) = 0.02474687
#
# Stress axis : x y z
#
# Youngs Moduli (GPa) = 45.75588 45.75588 58.29961
#
# Poissons Ratio (x) = 0.28223 0.34659
# Poissons Ratio (y) = 0.28223 0.34659
# Poissons Ratio (z) = 0.27201 0.27201
#
# Static dielectric constant tensor:
#      x y z
#    x 1.787070 0.000000 0.000000 
#    y 0.000000 1.787070 0.000000 
#    z 0.000000 0.000000 1.722730 
# 
# From -- ./inp_files/5325.got.cif
#   From: 2010.05.17/outbox.cif.g08.bks.cpg/sg124_3_cif.got.tgz:5325.got - 2010.05.20 11:49:17.
