data_PCOD9562044
_publ_section_title
;
Structure prediction by ZEFSAII (Michael W. Deem and Ramdas Pophale) SiO2 
 PCOD9562044
Probable space group: P 4/M M M
;
_chemical_formula_sum "Si O2"
_cell_formula_units_Z 96
_cell_length_a 24.691333
_cell_length_b 24.691333
_cell_length_c 8.150271
_cell_angle_alpha 90.000000
_cell_angle_beta 90.000000
_cell_angle_gamma 90.000000
_cell_volume 4968.909910
_symmetry_space_group_name_H-M "P 4/M M M"
_symmetry_group_IT_number 123
_symmetry_cell_setting 'tetragonal'
loop_
_space_group_symop_operation_xyz
x,y,z
-y,x,z
-x,-y,z
y,-x,z
x,-y,-z
-x,y,-z
y,x,-z
-y,-x,-z
-x,-y,-z
y,-x,-z
x,y,-z
-y,x,-z
-x,y,z
x,-y,z
-y,-x,z
y,x,z
loop_
_atom_site_type_symbol
_atom_site_label
_atom_site_fract_x
_atom_site_fract_y
_atom_site_fract_z
Si Si1 0.173083 0.560092 0.820648
Si Si2 0.650943 0.563495 0.699992
Si Si3 0.296905 0.059963 0.800876
Si Si4 0.260889 0.178380 0.196449
Si Si5 0.059355 0.579585 0.692360
Si Si6 0.249373 0.361195 0.684542
O O1 0.195808 0.500000 0.815089
O O2 0.109443 0.557926 0.793305
O O3 0.200675 0.595983 0.685647
O O4 0.184370 0.584401 0.000000
O O5 0.654732 0.562108 0.500000
O O6 0.654279 0.500000 0.754067
O O7 0.594846 0.594846 0.741520
O O8 0.699849 0.604137 0.755925
O O9 0.270166 0.116661 0.746167
O O10 0.356010 0.060441 0.720020
O O11 0.272490 0.000000 0.764062
O O12 0.303158 0.062324 0.000000
O O13 0.206532 0.206532 0.261159
O O14 0.309375 0.220994 0.233664
O O15 0.257542 0.174847 0.000000
O O16 0.065996 0.567072 0.500000
O O17 0.000000 0.560946 0.745262
O O18 0.264007 0.346285 0.500000
#
# Coordination Sequence:
#
# PCOD9562044 Si02
#       6
#    16  16  16  16  16  16
#     4  11  23  36  50  69  95 130 173 216 257 305
#     4   9  18  32  50  73  99 126 158 198 248 308
#     4   9  17  31  51  72  99 137 174 208 251 301
#     4  10  20  33  51  77 107 136 170 212 253 300
#     4  10  20  33  50  72  97 127 166 212 259 302
#     4  11  21  34  52  74 102 134 166 206 256 309
#
# _framework density 19.320133999999999
#
# number of rings (size 3 to 8) (size 9 to 14) (size 15 to 20)
#    0.000    2.000    1.667    2.500    0.000    4.500 
#    0.000    2.500    0.000    0.000    0.000    0.000 
#    0.000    0.333    0.000   15.000    0.000   10.667 
#
# Total GULP energy -534949.207046 kJ/mol
# GULP energy per Si atom -5572.387573 kJ/mol
# Density = 1.927616 g / cm^3
# Si number density = 19.320134 Si / 1000 Ang^3
#
#
#
# Elastic Constant Matrix: (Units=GPa)
#
#
# Indices 1 2 3 4 5 6 
#
# 1 110.8747 81.4216 10.0735 0.0000 0.0000 0.0000
# 2 81.4216 110.8747 10.0735 0.0000 0.0000 0.0000
# 3 10.0735 10.0735 27.1571 0.0000 0.0000 0.0000
# 4 0.0000 0.0000 0.0000 12.8865 0.0000 0.0000
# 5 0.0000 0.0000 0.0000 0.0000 12.8865 0.0000
# 6 0.0000 0.0000 0.0000 0.0000 0.0000 -33.9039
#
#
#
# Elastic Compliance Matrix: (Units=1/GPa)
#
#
# Indices 1 2 3 4 5 6 
#
# 1 0.019681 -0.014271 -0.002007 0.000000 0.000000 0.000000
# 2 -0.014271 0.019681 -0.002007 0.000000 0.000000 0.000000
# 3 -0.002007 -0.002007 0.038312 0.000000 0.000000 0.000000
# 4 0.000000 0.000000 0.000000 0.077601 0.000000 0.000000
# 5 0.000000 0.000000 0.000000 0.000000 0.077601 0.000000
# 6 0.000000 0.000000 0.000000 0.000000 0.000000 -0.029495
#
#
# Mechanical properties :
#
#
# Convention : Reuss Voigt Hill
#
# Bulk Modulus (GPa) = 24.32792 50.22708 37.27750
# Shear Modulus (GPa) = 19.71206 8.19635 13.95420
#
# Velocity S-wave (km/s) = 3.19766 2.06194 2.69041
# Velocity P-wave (km/s) = 5.12374 5.63227 5.38401
#
# Compressibility (1/GPa) = 0.04110503
#
# Stress axis : x y z
#
# Youngs Moduli (GPa) = 50.80924 50.80924 26.10164
#
# Poissons Ratio (x) = 0.72509 0.05239
# Poissons Ratio (y) = 0.72509 0.05239
# Poissons Ratio (z) = 0.10197 0.10197
#
# Static dielectric constant tensor:
#      x y z
#    x 1.704250 0.000000 0.000000 
#    y 0.000000 1.704250 0.000000 
#    z 0.000000 0.000000 1.688730 
# 
# From -- ./inp_files/1575.got.cif
#   From: 2010.05.17/outbox.cif.g08.bks.cpg/sg123_1_cif.got.tgz:1575.got - 2010.05.20 11:43:04.
