data_PCOD9562431
_publ_section_title
;
Structure prediction by ZEFSAII (Michael W. Deem and Ramdas Pophale) SiO2 
 PCOD9562431
Probable space group: P 4/M C C
;
_chemical_formula_sum "Si O2"
_cell_formula_units_Z 128
_cell_length_a 20.695958
_cell_length_b 20.695958
_cell_length_c 17.974042
_cell_angle_alpha 90.000000
_cell_angle_beta 90.000000
_cell_angle_gamma 90.000000
_cell_volume 7698.689796
_symmetry_space_group_name_H-M "P 4/M C C"
_symmetry_group_IT_number 124
_symmetry_cell_setting 'tetragonal'
loop_
_space_group_symop_operation_xyz
x,y,z
-y,x,z
-x,-y,z
y,-x,z
x,-y,1/2-z
-x,y,1/2-z
y,x,1/2-z
-y,-x,1/2-z
-x,-y,-z
y,-x,-z
x,y,-z
-y,x,-z
-x,y,1/2+z
x,-y,1/2+z
-y,-x,1/2+z
y,x,1/2+z
loop_
_atom_site_type_symbol
_atom_site_label
_atom_site_fract_x
_atom_site_fract_y
_atom_site_fract_z
Si Si1 0.615970 0.933710 0.285736
Si Si2 0.818385 0.446681 0.190401
Si Si3 0.224814 0.678200 0.410535
Si Si4 0.746875 0.110321 0.412168
Si Si5 0.756417 0.019621 0.825018
Si Si6 0.799953 0.862283 0.410491
Si Si7 0.139002 0.558221 0.588486
Si Si8 0.237024 0.343646 0.588953
O O1 0.593680 0.873776 0.234248
O O2 0.692405 0.942655 0.296613
O O3 0.587285 0.921594 0.367494
O O4 0.591117 0.000000 0.250000
O O5 0.793898 0.500000 0.250000
O O6 0.848977 0.488597 0.123513
O O7 0.768084 0.400836 0.148421
O O8 0.224470 0.679586 0.500000
O O9 0.174910 0.734122 0.386935
O O10 0.197607 0.607975 0.390305
O O11 0.295332 0.704430 0.390046
O O12 0.748990 0.095926 0.500000
O O13 0.815821 0.140982 0.388942
O O14 0.695992 0.169203 0.403326
O O15 0.734225 0.044707 0.368252
O O16 0.797208 0.067324 0.875912
O O17 0.792806 0.000000 0.750000
O O18 0.799326 0.865779 0.500000
O O19 0.867838 0.442489 0.500000
O O20 0.242407 0.360666 0.500000
#
# Coordination Sequence:
#
# PCOD9562431 Si02
#       8
#    16  16  16  16  16  16  16  16
#     4  10  21  35  47  64  99 137 167 207 246 286
#     4  10  21  34  46  66 104 138 165 203 251 295
#     4   8  15  29  51  75  94 118 164 217 258 291
#     4   9  19  33  52  77  96 121 165 214 258 304
#     4  11  20  30  49  72  99 129 162 199 249 302
#     4   9  17  32  52  72  98 124 155 209 266 302
#     4  10  19  33  53  73  92 128 176 213 249 295
#     4   9  16  31  52  72  97 128 166 213 256 294
#
# _framework density 16.626204999999999
#
# number of rings (size 3 to 8) (size 9 to 14) (size 15 to 20)
#    0.000    2.500    1.250    3.750    0.000    3.250 
#    0.000    4.375    0.000    0.375    0.000    2.625 
#    0.000    0.500    0.000    8.000    0.000    7.375 
#
# Total GULP energy -712662.598069 kJ/mol
# GULP energy per Si atom -5567.676547 kJ/mol
# Density = 1.658836 g / cm^3
# Si number density = 16.626205 Si / 1000 Ang^3
#
#
#
# Elastic Constant Matrix: (Units=GPa)
#
#
# Indices 1 2 3 4 5 6 
#
# 1 50.7487 24.8880 33.3386 0.0000 0.0000 0.0000
# 2 24.8880 50.7487 33.3386 0.0000 0.0000 0.0000
# 3 33.3386 33.3386 81.0600 0.0000 0.0000 0.0000
# 4 0.0000 0.0000 0.0000 25.8541 0.0000 0.0000
# 5 0.0000 0.0000 0.0000 0.0000 25.8541 0.0000
# 6 0.0000 0.0000 0.0000 0.0000 0.0000 10.7818
#
#
#
# Elastic Compliance Matrix: (Units=1/GPa)
#
#
# Indices 1 2 3 4 5 6 
#
# 1 0.029705 -0.008964 -0.008530 0.000000 0.000000 0.000000
# 2 -0.008964 0.029705 -0.008530 0.000000 0.000000 0.000000
# 3 -0.008530 -0.008530 0.019353 0.000000 0.000000 0.000000
# 4 0.000000 0.000000 0.000000 0.038679 0.000000 0.000000
# 5 0.000000 0.000000 0.000000 0.000000 0.038679 0.000000
# 6 0.000000 0.000000 0.000000 0.000000 0.000000 0.092749
#
#
# Mechanical properties :
#
#
# Convention : Reuss Voigt Hill
#
# Bulk Modulus (GPa) = 37.43393 40.63200 39.03297
# Shear Modulus (GPa) = 16.13825 18.56416 17.35120
#
# Velocity S-wave (km/s) = 3.11891 3.34512 3.23399
# Velocity P-wave (km/s) = 5.96104 6.27785 6.12149
#
# Compressibility (1/GPa) = 0.02671373
#
# Stress axis : x y z
#
# Youngs Moduli (GPa) = 33.66453 33.66453 51.67047
#
# Poissons Ratio (x) = 0.30176 0.44077
# Poissons Ratio (y) = 0.30176 0.44077
# Poissons Ratio (z) = 0.28717 0.28717
#
# Static dielectric constant tensor:
#      x y z
#    x 1.577630 0.000000 0.000000 
#    y 0.000000 1.577630 0.000000 
#    z 0.000000 0.000000 1.587690 
# 
# From -- ./inp_files/4618.got.cif
#   From: 2010.05.17/outbox.cif.g08.bks.cpg/sg124_3_cif.got.tgz:4618.got - 2010.05.20 11:49:17.
