data_PCOD9562879
_publ_section_title
;
Structure prediction by ZEFSAII (Michael W. Deem and Ramdas Pophale) SiO2 
 PCOD9562879
Probable space group: P 4/N B M
;
_chemical_formula_sum "Si O2"
_cell_formula_units_Z 64
_cell_length_a 22.071689
_cell_length_b 22.071689
_cell_length_c 5.470275
_cell_angle_alpha 90.000000
_cell_angle_beta 90.000000
_cell_angle_gamma 90.000000
_cell_volume 2664.896189
_symmetry_space_group_name_H-M "P 4/N B M"
_symmetry_group_IT_number 125
_space_group.IT_coordinate_system_code '2'
_symmetry_cell_setting 'tetragonal'
loop_
_space_group_symop_operation_xyz
x,y,z
1/2-y,x,z
1/2-x,1/2-y,z
y,1/2-x,z
x,1/2-y,-z
1/2-x,y,-z
y,x,-z
1/2-y,1/2-x,-z
-x,-y,-z
1/2+y,-x,-z
1/2+x,1/2+y,-z
-y,1/2+x,-z
-x,1/2+y,z
1/2+x,-y,z
-y,-x,z
1/2+y,1/2+x,z
loop_
_atom_site_type_symbol
_atom_site_label
_atom_site_fract_x
_atom_site_fract_y
_atom_site_fract_z
Si Si1 0.664755 0.491370 0.250000
Si Si2 0.149494 0.122639 0.750000
Si Si3 0.093490 0.003934 0.250000
Si Si4 0.220192 0.628012 0.250000
O O1 0.686518 0.560606 0.250000
O O2 0.626674 0.482959 0.500897
O O3 0.718589 0.443947 0.250000
O O4 0.626674 0.482959 0.999104
O O5 0.157722 0.157722 0.500000
O O6 0.077440 0.100194 0.750000
O O7 0.157722 0.157722 0.000000
O O8 0.026774 0.973227 0.250000
O O9 0.250000 0.649734 0.500000
O O10 0.151738 0.651738 0.250000
O O11 0.250000 0.649734 0.000000
#
# Coordination Sequence:
#
# PCOD9562879 Si02
#       4
#    16  16  16  16
#     4  10  20  33  48  67  90 112 137 172 219 278
#     4   8  16  26  41  67  96 120 135 150 187 251
#     4  10  17  26  44  70  97 119 133 150 191 258
#     4  12  26  42  58  71  83 107 149 206 268 312
#
# _framework density 24.015946
#
# number of rings (size 3 to 8) (size 9 to 14) (size 15 to 20)
#    0.000    2.000    0.000    4.500    0.000   11.500 
#    0.000    0.000    0.000    0.000    0.000    0.000 
#    0.000    0.000    0.000    0.000    0.000    0.000 
#
# Total GULP energy -357516.914509 kJ/mol
# GULP energy per Si atom -5586.201789 kJ/mol
# Density = 2.396128 g / cm^3
# Si number density = 24.015946 Si / 1000 Ang^3
#
#
#
# Elastic Constant Matrix: (Units=GPa)
#
#
# Indices 1 2 3 4 5 6 
#
# 1 -30.8397 53.5120 20.8013 0.0000 0.0000 0.0000
# 2 53.5120 -30.8397 20.8013 0.0000 0.0000 0.0000
# 3 20.8013 20.8013 266.8815 0.0000 0.0000 0.0000
# 4 0.0000 0.0000 0.0000 4.0752 0.0000 0.0000
# 5 0.0000 0.0000 0.0000 0.0000 4.0752 0.0000
# 6 0.0000 0.0000 0.0000 0.0000 0.0000 31.2014
#
#
#
# Elastic Compliance Matrix: (Units=1/GPa)
#
#
# Indices 1 2 3 4 5 6 
#
# 1 0.019806 0.031661 -0.004011 0.000000 0.000000 0.000000
# 2 0.031661 0.019806 -0.004011 0.000000 0.000000 0.000000
# 3 -0.004011 -0.004011 0.004372 0.000000 0.000000 0.000000
# 4 0.000000 0.000000 0.000000 0.245388 0.000000 0.000000
# 5 0.000000 0.000000 0.000000 0.000000 0.245388 0.000000
# 6 0.000000 0.000000 0.000000 0.000000 0.000000 0.032050
#
#
# Mechanical properties :
#
#
# Convention : Reuss Voigt Hill
#
# Bulk Modulus (GPa) = 10.95754 43.93681 27.44718
# Shear Modulus (GPa) = 9.09168 15.20953 12.15060
#
# Velocity S-wave (km/s) = 1.94779 2.51929 2.25175
# Velocity P-wave (km/s) = 3.10339 5.17658 4.26779
#
# Compressibility (1/GPa) = 0.09126135
#
# Stress axis : x y z
#
# Youngs Moduli (GPa) = 50.48929 50.48929 228.71223
#
# Poissons Ratio (x) = -1.59856 0.91747
# Poissons Ratio (y) = -1.59856 0.91747
# Poissons Ratio (z) = 0.20254 0.20254
#
# Static dielectric constant tensor:
#      x y z
#    x 1.987650 0.000000 0.000000 
#    y 0.000000 1.987650 0.000000 
#    z 0.000000 0.000000 1.960700 
# 
# From -- ./inp_files/964.got.cif
#   From: 2010.05.17/outbox.cif.g08.bks.cpg/sg125_1_cif.got.tgz:964.got - 2010.05.20 11:54:10.
