data_PCOD9562492
_publ_section_title
;
Structure prediction by ZEFSAII (Michael W. Deem and Ramdas Pophale) SiO2 
 PCOD9562492
Probable space group: P 4/M C C
;
_chemical_formula_sum "Si O2"
_cell_formula_units_Z 88
_cell_length_a 21.112919
_cell_length_b 21.112919
_cell_length_c 16.119297
_cell_angle_alpha 90.000000
_cell_angle_beta 90.000000
_cell_angle_gamma 90.000000
_cell_volume 7185.262855
_symmetry_space_group_name_H-M "P 4/M C C"
_symmetry_group_IT_number 124
_symmetry_cell_setting 'tetragonal'
loop_
_space_group_symop_operation_xyz
x,y,z
-y,x,z
-x,-y,z
y,-x,z
x,-y,1/2-z
-x,y,1/2-z
y,x,1/2-z
-y,-x,1/2-z
-x,-y,-z
y,-x,-z
x,y,-z
-y,x,-z
-x,y,1/2+z
x,-y,1/2+z
-y,-x,1/2+z
y,x,1/2+z
loop_
_atom_site_type_symbol
_atom_site_label
_atom_site_fract_x
_atom_site_fract_y
_atom_site_fract_z
Si Si1 0.077016 0.500000 0.846970
Si Si2 0.075474 0.075470 0.092699
Si Si3 0.275797 0.922997 0.750001
Si Si4 0.139761 0.860240 0.250000
Si Si5 0.362855 0.076766 0.408083
Si Si6 0.362854 0.923233 0.591917
O O1 0.094253 0.500000 0.750000
O O2 0.098127 0.434717 0.889070
O O3 0.098128 0.565284 0.889069
O O4 0.000000 0.500000 0.850386
O O5 0.109534 0.109529 0.167471
O O6 0.000002 0.085984 0.098925
O O7 0.095677 0.095672 0.000000
O O8 0.212568 0.881599 0.750003
O O9 0.316896 0.907752 0.831944
O O10 0.316894 0.907752 0.668056
O O11 0.262810 0.000000 0.750000
O O12 0.342669 0.098010 0.500000
O O13 0.364618 1.000000 0.409376
O O14 0.342668 0.901990 0.500000
#
# Coordination Sequence:
#
# PCOD9562492 Si02
#       6
#    16  16  16   8  16  16
#     4   9  13  21  39  60  81  97 112 135 165 210
#     4   9  18  32  48  62  70  78 104 152 206 256
#     4  10  20  31  40  54  73  94 123 158 189 229
#     4  12  22  31  44  56  72  98 124 152 196 237
#     4   9  16  26  40  57  77  98 116 138 174 218
#     4   9  16  26  40  57  77  98 116 138 174 218
#
# _framework density 12.24729
#
# number of rings (size 3 to 8) (size 9 to 14) (size 15 to 20)
#    0.000    2.545    1.818    2.727    0.000    4.364 
#    0.000    3.636    0.000    0.000    0.000    0.000 
#    0.000    0.000    0.000    0.000    0.000    0.000 
#
# Total GULP energy -489957.555331 kJ/mol
# GULP energy per Si atom -5567.699492 kJ/mol
# Density = 1.221941 g / cm^3
# Si number density = 12.247290 Si / 1000 Ang^3
#
#
#
# Elastic Constant Matrix: (Units=GPa)
#
#
# Indices 1 2 3 4 5 6 
#
# 1 36.0585 48.7384 47.2983 0.0000 0.0000 0.0000
# 2 48.7384 36.0570 47.2987 0.0000 0.0000 0.0000
# 3 47.2983 47.2987 140.7008 0.0000 0.0000 0.0000
# 4 0.0000 0.0000 0.0000 6.4228 0.0000 0.0000
# 5 0.0000 0.0000 0.0000 0.0000 6.4224 0.0000
# 6 0.0000 0.0000 0.0000 0.0000 0.0000 6.2016
#
#
#
# Elastic Compliance Matrix: (Units=1/GPa)
#
#
# Indices 1 2 3 4 5 6 
#
# 1 -0.029994 0.048865 -0.006344 0.000000 0.000000 0.000000
# 2 0.048865 -0.029997 -0.006343 0.000000 0.000000 0.000000
# 3 -0.006344 -0.006343 0.011372 0.000000 0.000000 0.000000
# 4 0.000000 0.000000 0.000000 0.155696 0.000000 0.000000
# 5 0.000000 0.000000 0.000000 0.000000 0.155704 0.000000
# 6 0.000000 0.000000 0.000000 0.000000 0.000000 0.161250
#
#
# Mechanical properties :
#
#
# Convention : Reuss Voigt Hill
#
# Bulk Modulus (GPa) = 42.12674 55.49857 48.81266
# Shear Modulus (GPa) = 13.90486 8.44142 11.17314
#
# Velocity S-wave (km/s) = 3.37314 2.62820 3.02370
# Velocity P-wave (km/s) = 7.04572 7.39076 7.22030
#
# Compressibility (1/GPa) = 0.02373789
#
# Stress axis : x y z
#
# Youngs Moduli (GPa) = -33.33985 -33.33691 87.93550
#
# Poissons Ratio (x) = 1.62900 0.55784
# Poissons Ratio (y) = 1.62914 0.55774
# Poissons Ratio (z) = -0.21150 -0.21144
#
# Static dielectric constant tensor:
#      x y z
#    x 1.381300 0.000000 0.000000 
#    y 0.000000 1.381300 0.000000 
#    z 0.000000 0.000000 1.430130 
# 
# From -- ./inp_files/3393.got.cif
#   From: 2010.05.17/outbox.cif.g08.bks.cpg/sg124_2_cif.got.tgz:3393.got - 2010.05.20 11:49:17.
