data_PCOD9562197
_publ_section_title
;
Structure prediction by ZEFSAII (Michael W. Deem and Ramdas Pophale) SiO2 
 PCOD9562197
Probable space group: P 4/M M M
;
_chemical_formula_sum "Si O2"
_cell_formula_units_Z 96
_cell_length_a 23.740077
_cell_length_b 23.740077
_cell_length_c 8.836717
_cell_angle_alpha 90.000000
_cell_angle_beta 90.000000
_cell_angle_gamma 90.000000
_cell_volume 4980.296433
_symmetry_space_group_name_H-M "P 4/M M M"
_symmetry_group_IT_number 123
_symmetry_cell_setting 'tetragonal'
loop_
_space_group_symop_operation_xyz
x,y,z
-y,x,z
-x,-y,z
y,-x,z
x,-y,-z
-x,y,-z
y,x,-z
-y,-x,-z
-x,-y,-z
y,-x,-z
x,y,-z
-y,x,-z
-x,y,z
x,-y,z
-y,-x,z
y,x,z
loop_
_atom_site_type_symbol
_atom_site_label
_atom_site_fract_x
_atom_site_fract_y
_atom_site_fract_z
Si Si1 0.323417 0.062599 0.319260
Si Si2 0.431869 0.770159 0.171313
Si Si3 0.065122 0.152903 0.674410
Si Si4 0.237648 0.851548 0.821811
Si Si5 0.564729 0.345121 0.681927
Si Si6 0.897417 0.565176 0.183446
O O1 0.322307 0.065545 0.500000
O O2 0.290825 0.117441 0.254829
O O3 0.387133 0.065231 0.258246
O O4 0.299557 0.000000 0.276185
O O5 0.500000 0.767989 0.164616
O O6 0.414248 0.716228 0.266513
O O7 0.420473 0.832811 0.229000
O O8 0.410099 0.765214 0.000000
O O9 0.073886 0.173661 0.500000
O O10 0.090428 0.090428 0.679043
O O11 0.101812 0.190160 0.786253
O O12 0.000000 0.154831 0.708133
O O13 0.207619 0.792382 0.769692
O O14 0.248582 0.845878 0.000000
O O15 0.564060 0.346581 0.500000
O O16 0.500000 0.353044 0.733874
O O17 0.605864 0.394137 0.737451
O O18 0.909659 0.500000 0.224271
O O19 0.900240 0.568379 0.000000
#
# Coordination Sequence:
#
# PCOD9562197 Si02
#       6
#    16  16  16  16  16  16
#     4  11  24  39  57  85 119 152 185 223 271 328
#     4   8  15  30  51  72  94 123 163 210 257 308
#     4   9  17  29  46  69  98 132 169 210 257 309
#     4  10  21  37  57  79 103 136 181 229 272 315
#     4   9  17  28  43  66  97 134 177 224 275 333
#     4   9  19  37  60  84 110 143 183 225 272 328
#
# _framework density 19.275960999999999
#
# number of rings (size 3 to 8) (size 9 to 14) (size 15 to 20)
#    0.000    2.667    0.000    2.500    0.000    6.667 
#    0.000    5.833    0.000    1.000    0.000    4.667 
#    0.000    0.000    0.000    0.000    0.000    0.000 
#
# Total GULP energy -534610.326741 kJ/mol
# GULP energy per Si atom -5568.857570 kJ/mol
# Density = 1.923209 g / cm^3
# Si number density = 19.275961 Si / 1000 Ang^3
#
#
#
# Elastic Constant Matrix: (Units=GPa)
#
#
# Indices 1 2 3 4 5 6 
#
# 1 85.7928 44.6040 23.9667 0.0000 0.0000 0.0000
# 2 44.6040 85.7928 23.9667 0.0000 0.0000 0.0000
# 3 23.9667 23.9667 22.8001 0.0000 0.0000 0.0000
# 4 0.0000 0.0000 0.0000 25.5259 0.0000 0.0000
# 5 0.0000 0.0000 0.0000 0.0000 25.5259 0.0000
# 6 0.0000 0.0000 0.0000 0.0000 0.0000 24.7491
#
#
#
# Elastic Compliance Matrix: (Units=1/GPa)
#
#
# Indices 1 2 3 4 5 6 
#
# 1 0.018388 -0.005890 -0.013138 0.000000 0.000000 0.000000
# 2 -0.005890 0.018388 -0.013138 0.000000 0.000000 0.000000
# 3 -0.013138 -0.013138 0.071480 0.000000 0.000000 0.000000
# 4 0.000000 0.000000 0.000000 0.039176 0.000000 0.000000
# 5 0.000000 0.000000 0.000000 0.000000 0.039176 0.000000
# 6 0.000000 0.000000 0.000000 0.000000 0.000000 0.040406
#
#
# Mechanical properties :
#
#
# Convention : Reuss Voigt Hill
#
# Bulk Modulus (GPa) = 22.76611 42.16227 32.46419
# Shear Modulus (GPa) = 16.34058 21.95006 19.14532
#
# Velocity S-wave (km/s) = 2.91472 3.37816 3.15496
# Velocity P-wave (km/s) = 4.81287 6.09397 5.49091
#
# Compressibility (1/GPa) = 0.04392494
#
# Stress axis : x y z
#
# Youngs Moduli (GPa) = 54.38223 54.38223 13.99002
#
# Poissons Ratio (x) = 0.32031 0.18380
# Poissons Ratio (y) = 0.32031 0.18380
# Poissons Ratio (z) = 0.71446 0.71446
#
# Static dielectric constant tensor:
#      x y z
#    x 1.697670 0.000000 0.000000 
#    y 0.000000 1.697670 0.000000 
#    z 0.000000 0.000000 1.666430 
# 
# From -- ./inp_files/1594.got.cif
#   From: 2010.05.17/outbox.cif.g08.bks.cpg/sg123_1_cif.got.tgz:1594.got - 2010.05.20 11:43:04.
