data_PCOD9562217
_publ_section_title
;
Structure prediction by ZEFSAII (Michael W. Deem and Ramdas Pophale) SiO2 
 PCOD9562217
Probable space group: P 4/M M M
;
_chemical_formula_sum "Si O2"
_cell_formula_units_Z 96
_cell_length_a 24.834065
_cell_length_b 24.834065
_cell_length_c 8.583663
_cell_angle_alpha 90.000000
_cell_angle_beta 90.000000
_cell_angle_gamma 90.000000
_cell_volume 5293.809215
_symmetry_space_group_name_H-M "P 4/M M M"
_symmetry_group_IT_number 123
_symmetry_cell_setting 'tetragonal'
loop_
_space_group_symop_operation_xyz
x,y,z
-y,x,z
-x,-y,z
y,-x,z
x,-y,-z
-x,y,-z
y,x,-z
-y,-x,-z
-x,-y,-z
y,-x,-z
x,y,-z
-y,x,-z
-x,y,z
x,-y,z
-y,-x,z
y,x,z
loop_
_atom_site_type_symbol
_atom_site_label
_atom_site_fract_x
_atom_site_fract_y
_atom_site_fract_z
Si Si1 0.439918 0.935861 0.314304
Si Si2 0.853622 0.233919 0.313441
Si Si3 0.439088 0.352530 0.687980
Si Si4 0.937967 0.850615 0.188345
Si Si5 0.645208 0.855228 0.813980
Si Si6 0.560653 0.233409 0.187798
O O1 0.436942 0.925588 0.500000
O O2 0.500000 0.918249 0.259935
O O3 0.390561 0.906778 0.231803
O O4 0.436981 0.000000 0.292029
O O5 0.855204 0.233673 0.500000
O O6 0.800788 0.199213 0.263709
O O7 0.904874 0.200595 0.250493
O O8 0.853839 0.295122 0.255501
O O9 0.436518 0.348979 0.500000
O O10 0.500000 0.368588 0.730024
O O11 0.395808 0.395808 0.741612
O O12 0.428938 0.293870 0.757324
O O13 0.903359 0.903359 0.235056
O O14 0.000000 0.852039 0.240460
O O15 0.937770 0.848484 0.000000
O O16 0.607563 0.805995 0.756875
O O17 0.650089 0.852347 0.000000
O O18 0.500000 0.218366 0.241822
O O19 0.560213 0.231534 0.000000
#
# Coordination Sequence:
#
# PCOD9562217 Si02
#       6
#    16  16  16  16  16  16
#     4   9  19  36  56  79 109 142 174 212 259 308
#     4  10  22  39  56  75 103 140 180 221 264 309
#     4   9  18  32  50  73 100 130 165 205 250 301
#     4   9  18  34  57  84 113 143 174 211 256 305
#     4  11  22  35  55  80 104 135 176 218 262 315
#     4   9  19  35  52  72 100 131 164 206 255 305
#
# _framework density 18.13439
#
# number of rings (size 3 to 8) (size 9 to 14) (size 15 to 20)
#    0.000    2.500    0.000    2.000    0.000    6.000 
#    0.000    7.500    0.000    0.000    0.000    4.667 
#    0.000    0.000    0.000    0.000    0.000    0.000 
#
# Total GULP energy -535503.589226 kJ/mol
# GULP energy per Si atom -5578.162388 kJ/mol
# Density = 1.809312 g / cm^3
# Si number density = 18.134390 Si / 1000 Ang^3
#
#
#
# Elastic Constant Matrix: (Units=GPa)
#
#
# Indices 1 2 3 4 5 6 
#
# 1 153.3426 96.3575 31.1875 0.0000 0.0000 0.0000
# 2 96.3575 153.3426 31.1875 0.0000 0.0000 0.0000
# 3 31.1875 31.1875 15.7339 0.0000 0.0000 0.0000
# 4 0.0000 0.0000 0.0000 19.5726 0.0000 0.0000
# 5 0.0000 0.0000 0.0000 0.0000 19.5726 0.0000
# 6 0.0000 0.0000 0.0000 0.0000 0.0000 28.5920
#
#
#
# Elastic Compliance Matrix: (Units=1/GPa)
#
#
# Indices 1 2 3 4 5 6 
#
# 1 0.012741 -0.004808 -0.015724 0.000000 0.000000 0.000000
# 2 -0.004808 0.012741 -0.015724 0.000000 0.000000 0.000000
# 3 -0.015724 -0.015724 0.125893 0.000000 0.000000 0.000000
# 4 0.000000 0.000000 0.000000 0.051092 0.000000 0.000000
# 5 0.000000 0.000000 0.000000 0.000000 0.051092 0.000000
# 6 0.000000 0.000000 0.000000 0.000000 0.000000 0.034975
#
#
# Mechanical properties :
#
#
# Convention : Reuss Voigt Hill
#
# Bulk Modulus (GPa) = 12.68031 71.09825 41.88928
# Shear Modulus (GPa) = 12.90881 24.45988 18.68434
#
# Velocity S-wave (km/s) = 2.67093 3.67660 3.21335
# Velocity P-wave (km/s) = 4.06441 7.57064 6.07594
#
# Compressibility (1/GPa) = 0.07886241
#
# Stress axis : x y z
#
# Youngs Moduli (GPa) = 78.48945 78.48945 7.94323
#
# Poissons Ratio (x) = 0.37737 0.12490
# Poissons Ratio (y) = 0.37737 0.12490
# Poissons Ratio (z) = 1.23417 1.23417
#
# Static dielectric constant tensor:
#      x y z
#    x 1.611410 0.000000 0.000000 
#    y 0.000000 1.611410 0.000000 
#    z 0.000000 0.000000 1.618470 
# 
# From -- ./inp_files/1566.got.cif
#   From: 2010.05.17/outbox.cif.g08.bks.cpg/sg123_1_cif.got.tgz:1566.got - 2010.05.20 11:43:04.
