data_PCOD9562238
_publ_section_title
;
Structure prediction by ZEFSAII (Michael W. Deem and Ramdas Pophale) SiO2 
 PCOD9562238
Probable space group: P 4/M M M
;
_chemical_formula_sum "Si O2"
_cell_formula_units_Z 72
_cell_length_a 21.094687
_cell_length_b 21.094687
_cell_length_c 8.072222
_cell_angle_alpha 90.000000
_cell_angle_beta 90.000000
_cell_angle_gamma 90.000000
_cell_volume 3592.024323
_symmetry_space_group_name_H-M "P 4/M M M"
_symmetry_group_IT_number 123
_symmetry_cell_setting 'tetragonal'
loop_
_space_group_symop_operation_xyz
x,y,z
-y,x,z
-x,-y,z
y,-x,z
x,-y,-z
-x,y,-z
y,x,-z
-y,-x,-z
-x,-y,-z
y,-x,-z
x,y,-z
-y,x,-z
-x,y,z
x,-y,z
-y,-x,z
y,x,z
loop_
_atom_site_type_symbol
_atom_site_label
_atom_site_fract_x
_atom_site_fract_y
_atom_site_fract_z
Si Si1 0.000000 0.101524 0.297776
Si Si2 0.309536 0.130817 0.182961
Si Si3 0.754921 0.000000 0.698240
Si Si4 0.255179 0.639122 0.318596
Si Si5 0.686689 0.424127 0.000000
Si Si6 0.427639 0.924545 0.310082
O O1 0.938621 0.061380 0.246529
O O2 0.000000 0.102569 0.500000
O O3 0.000000 0.172985 0.239634
O O4 0.276437 0.066403 0.246681
O O5 0.314180 0.195256 0.286413
O O6 0.383020 0.110551 0.185034
O O7 0.285551 0.145161 0.000000
O O8 0.753435 0.000000 0.500000
O O9 0.246186 0.607874 0.500000
O O10 0.316083 0.683918 0.327430
O O11 0.271008 0.594030 0.162443
O O12 0.671507 0.500000 0.000000
O O13 0.623982 0.376019 0.000000
O O14 0.405718 0.913400 0.500000
O O15 0.500000 0.904807 0.297870
O O16 0.424493 0.000000 0.284124
#
# Coordination Sequence:
#
# PCOD9562238 Si02
#       6
#     8  16   8  16   8  16
#     4   8  16  34  59  85 111 139 182 249 323 391
#     4  12  23  36  55  82 119 160 207 259 313 370
#     4  11  22  35  55  85 120 159 210 267 322 384
#     4  10  22  42  66  90 122 168 216 263 317 377
#     4  10  22  43  70 103 139 171 210 258 310 374
#     4   9  18  33  52  73 101 141 187 235 287 340
#
# _framework density 20.044408000000001
#
# number of rings (size 3 to 8) (size 9 to 14) (size 15 to 20)
#    0.000    1.889    2.222    3.333    0.000    2.778 
#    0.000    3.333    0.000    2.000    0.000    6.222 
#    0.000    0.000    0.000    0.000    0.000    0.000 
#
# Total GULP energy -401186.283024 kJ/mol
# GULP energy per Si atom -5572.031709 kJ/mol
# Density = 1.999879 g / cm^3
# Si number density = 20.044408 Si / 1000 Ang^3
#
#
#
# Elastic Constant Matrix: (Units=GPa)
#
#
# Indices 1 2 3 4 5 6 
#
# 1 77.9489 25.5331 27.2244 0.0000 0.0000 0.0000
# 2 25.5331 77.9496 27.2245 0.0000 0.0000 0.0000
# 3 27.2244 27.2245 108.9086 0.0000 0.0000 0.0000
# 4 0.0000 0.0000 0.0000 16.9435 0.0000 0.0000
# 5 0.0000 0.0000 0.0000 0.0000 16.9437 0.0000
# 6 0.0000 0.0000 0.0000 0.0000 0.0000 -0.0718
#
#
#
# Elastic Compliance Matrix: (Units=1/GPa)
#
#
# Indices 1 2 3 4 5 6 
#
# 1 0.015103 -0.003976 -0.002781 0.000000 0.000000 0.000000
# 2 -0.003976 0.015102 -0.002781 0.000000 0.000000 0.000000
# 3 -0.002781 -0.002781 0.010573 0.000000 0.000000 0.000000
# 4 0.000000 0.000000 0.000000 0.059020 0.000000 0.000000
# 5 0.000000 0.000000 0.000000 0.000000 0.059019 0.000000
# 6 0.000000 0.000000 0.000000 0.000000 0.000000-13.937160
#
#
# Mechanical properties :
#
#
# Convention : Reuss Voigt Hill
#
# Bulk Modulus (GPa) = 46.08145 47.19681 46.63913
# Shear Modulus (GPa) = -0.36358 19.08475 9.36058
#
# Velocity S-wave (km/s) = -0.42636 3.08900 2.16334
# Velocity P-wave (km/s) = 4.77464 6.02659 5.43677
#
# Compressibility (1/GPa) = 0.02170071
#
# Stress axis : x y z
#
# Youngs Moduli (GPa) = 66.21370 66.21425 94.58400
#
# Poissons Ratio (x) = 0.26324 0.26308
# Poissons Ratio (y) = 0.26324 0.26308
# Poissons Ratio (z) = 0.18417 0.18417
#
# Static dielectric constant tensor:
#      x y z
#    x 1.721960 0.000000 0.000000 
#    y 0.000000 1.721960 0.000000 
#    z 0.000000 0.000000 1.854960 
# 
# From -- ./inp_files/1218.got.cif
#   From: 2010.05.17/outbox.cif.g08.bks.cpg/sg123_1_cif.got.tgz:1218.got - 2010.05.20 11:43:04.
