data_PCOD9562324
_publ_section_title
;
Structure prediction by ZEFSAII (Michael W. Deem and Ramdas Pophale) SiO2 
 PCOD9562324
Probable space group: P 4/M C C
;
_chemical_formula_sum "Si O2"
_cell_formula_units_Z 56
_cell_length_a 12.425479
_cell_length_b 12.425479
_cell_length_c 19.144292
_cell_angle_alpha 90.000000
_cell_angle_beta 90.000000
_cell_angle_gamma 90.000000
_cell_volume 2955.735646
_symmetry_space_group_name_H-M "P 4/M C C"
_symmetry_group_IT_number 124
_symmetry_cell_setting 'tetragonal'
loop_
_space_group_symop_operation_xyz
x,y,z
-y,x,z
-x,-y,z
y,-x,z
x,-y,1/2-z
-x,y,1/2-z
y,x,1/2-z
-y,-x,1/2-z
-x,-y,-z
y,-x,-z
x,y,-z
-y,x,-z
-x,y,1/2+z
x,-y,1/2+z
-y,-x,1/2+z
y,x,1/2+z
loop_
_atom_site_type_symbol
_atom_site_label
_atom_site_fract_x
_atom_site_fract_y
_atom_site_fract_z
Si Si1 0.911866 0.591625 0.421007
Si Si2 0.000000 0.248195 0.750000
Si Si3 0.828318 0.012436 0.597780
Si Si4 0.209084 0.619532 0.222375
O O1 0.871950 0.566909 0.500000
O O2 0.821918 0.608761 0.360475
O O3 0.000000 0.500000 0.401384
O O4 0.973015 0.705983 0.424467
O O5 0.987206 0.178241 0.818509
O O6 0.103898 0.324022 0.755444
O O7 0.888118 0.903583 0.576347
O O8 0.223122 0.500000 0.250000
O O9 0.307271 0.692730 0.250000
#
# Coordination Sequence:
#
# PCOD9562324 Si02
#       4
#    16   8  16  16
#     4  10  22  39  58  83 118 158 197 240 295 361
#     4  10  17  31  54  82 112 145 191 238 280 336
#     4  10  19  31  51  81 116 149 182 227 285 345
#     4  11  22  38  61  87 114 149 194 245 294 347
#
# _framework density 18.946213
#
# number of rings (size 3 to 8) (size 9 to 14) (size 15 to 20)
#    0.000    1.714    0.000    8.143    0.000    2.571 
#    0.000    5.714    0.000    0.000    0.000    2.000 
#    0.000    0.000    0.000    0.000    0.000    0.000 
#
# Total GULP energy -312379.607405 kJ/mol
# GULP energy per Si atom -5578.207275 kJ/mol
# Density = 1.890309 g / cm^3
# Si number density = 18.946213 Si / 1000 Ang^3
#
#
#
# Elastic Constant Matrix: (Units=GPa)
#
#
# Indices 1 2 3 4 5 6 
#
# 1 138.6687 78.0988 38.1733 0.0000 0.0000 0.0000
# 2 78.0988 138.6728 38.1729 0.0000 0.0000 0.0000
# 3 38.1733 38.1729 161.8132 0.0000 0.0000 0.0000
# 4 0.0000 0.0000 0.0000 -23.1029 0.0000 0.0000
# 5 0.0000 0.0000 0.0000 0.0000 -23.1019 0.0000
# 6 0.0000 0.0000 0.0000 0.0000 0.0000 20.3927
#
#
#
# Elastic Compliance Matrix: (Units=1/GPa)
#
#
# Indices 1 2 3 4 5 6 
#
# 1 0.010770 -0.005739 -0.001187 0.000000 0.000000 0.000000
# 2 -0.005739 0.010770 -0.001187 0.000000 0.000000 0.000000
# 3 -0.001187 -0.001187 0.006740 0.000000 0.000000 0.000000
# 4 0.000000 0.000000 0.000000 -0.043285 0.000000 0.000000
# 5 0.000000 0.000000 0.000000 0.000000 -0.043287 0.000000
# 6 0.000000 0.000000 0.000000 0.000000 0.000000 0.049037
#
#
# Mechanical properties :
#
#
# Convention : Reuss Voigt Hill
#
# Bulk Modulus (GPa) = 82.95460 83.11605 83.03532
# Shear Modulus (GPa) = 454.94193 13.81824 234.38008
#
# Velocity S-wave (km/s) = 15.51271 2.70356 11.13448
# Velocity P-wave (km/s) = 19.09812 7.32874 14.46459
#
# Compressibility (1/GPa) = 0.01205479
#
# Stress axis : x y z
#
# Youngs Moduli (GPa) = 92.84678 92.84988 148.36861
#
# Poissons Ratio (x) = 0.53287 0.17611
# Poissons Ratio (y) = 0.53285 0.17609
# Poissons Ratio (z) = 0.11021 0.11020
#
# Static dielectric constant tensor:
#      x y z
#    x 1.642650 0.000000 0.000000 
#    y 0.000000 1.642650 0.000000 
#    z 0.000000 0.000000 1.730510 
# 
# From -- ./inp_files/5803.got.cif
#   From: 2010.05.17/outbox.cif.g08.bks.cpg/sg124_3_cif.got.tgz:5803.got - 2010.05.20 11:49:17.
