data_PCOD9562794
_publ_section_title
;
Structure prediction by ZEFSAII (Michael W. Deem and Ramdas Pophale) SiO2 
 PCOD9562794
Probable space group: P 4/M C C
;
_chemical_formula_sum "Si O2"
_cell_formula_units_Z 88
_cell_length_a 15.377612
_cell_length_b 15.377612
_cell_length_c 19.818946
_cell_angle_alpha 90.000000
_cell_angle_beta 90.000000
_cell_angle_gamma 90.000000
_cell_volume 4686.605005
_symmetry_space_group_name_H-M "P 4/M C C"
_symmetry_group_IT_number 124
_symmetry_cell_setting 'tetragonal'
loop_
_space_group_symop_operation_xyz
x,y,z
-y,x,z
-x,-y,z
y,-x,z
x,-y,1/2-z
-x,y,1/2-z
y,x,1/2-z
-y,-x,1/2-z
-x,-y,-z
y,-x,-z
x,y,-z
-y,x,-z
-x,y,1/2+z
x,-y,1/2+z
-y,-x,1/2+z
y,x,1/2+z
loop_
_atom_site_type_symbol
_atom_site_label
_atom_site_fract_x
_atom_site_fract_y
_atom_site_fract_z
Si Si1 0.151932 0.281990 0.500000
Si Si2 0.828000 0.327273 0.500000
Si Si3 0.024688 0.187570 0.000000
Si Si4 0.046899 0.133364 0.846733
Si Si5 0.878944 0.421892 0.369466
Si Si6 0.620679 0.916197 0.130808
Si Si7 0.281866 0.859317 0.237275
O O1 0.248193 0.241235 0.500000
O O2 0.129786 0.337529 0.433887
O O3 0.077847 0.207612 0.500000
O O4 0.920235 0.276415 0.500000
O O5 0.827381 0.387754 0.434464
O O6 0.046760 0.144212 0.928067
O O7 0.082271 0.217443 0.808761
O O8 0.948667 0.107323 0.828335
O O9 0.877269 0.524721 0.358056
O O10 0.845402 0.368213 0.306045
O O11 0.980814 0.395275 0.379247
O O12 0.685317 0.901644 0.193365
O O13 0.228214 0.771787 0.250000
#
# Coordination Sequence:
#
# PCOD9562794 Si02
#       7
#     8   8   8  16  16  16  16
#     4  12  23  40  63  90 122 159 210 258 310 364
#     4  12  21  36  63  92 120 159 206 252 302 364
#     4  12  22  37  63  84 122 162 214 260 289 351
#     4  11  25  41  57  82 121 174 221 258 294 341
#     4  11  23  41  63  88 119 163 211 257 319 373
#     4  11  24  42  63  86 120 163 210 263 317 375
#     4  12  26  38  61  88 124 161 210 260 312 366
#
# _framework density 18.776917000000001
#
# number of rings (size 3 to 8) (size 9 to 14) (size 15 to 20)
#    0.000    0.545    3.636    4.364    7.636    3.636 
#    0.000    0.909    0.000    0.000    0.000    0.000 
#    0.000   50.909    0.000    0.000    0.000    0.000 
#
# Total GULP energy -492610.508366 kJ/mol
# GULP energy per Si atom -5597.846686 kJ/mol
# Density = 1.873418 g / cm^3
# Si number density = 18.776917 Si / 1000 Ang^3
#
#
#
# Elastic Constant Matrix: (Units=GPa)
#
#
# Indices 1 2 3 4 5 6 
#
# 1 114.6036 47.0202 52.9655 0.0000 0.0000 0.0000
# 2 47.0202 114.6047 52.9661 0.0000 0.0000 0.0000
# 3 52.9655 52.9661 142.9570 0.0000 0.0000 0.0000
# 4 0.0000 0.0000 0.0000 -77.7981 0.0000 0.0000
# 5 0.0000 0.0000 0.0000 0.0000 -76.9250 0.0000
# 6 0.0000 0.0000 0.0000 0.0000 0.0000 27.9185
#
#
#
# Elastic Compliance Matrix: (Units=1/GPa)
#
#
# Indices 1 2 3 4 5 6 
#
# 1 0.011484 -0.003312 -0.003028 0.000000 0.000000 0.000000
# 2 -0.003312 0.011484 -0.003028 0.000000 0.000000 0.000000
# 3 -0.003028 -0.003028 0.009239 0.000000 0.000000 0.000000
# 4 0.000000 0.000000 0.000000 -0.012854 0.000000 0.000000
# 5 0.000000 0.000000 0.000000 0.000000 -0.013000 0.000000
# 6 0.000000 0.000000 0.000000 0.000000 0.000000 0.035819
#
#
# Mechanical properties :
#
#
# Convention : Reuss Voigt Hill
#
# Bulk Modulus (GPa) = 74.23177 75.34100 74.78639
# Shear Modulus (GPa) = 76.45592 -10.74669 32.85461
#
# Velocity S-wave (km/s) = 6.38799 -2.39495 4.18752
# Velocity P-wave (km/s) = 9.69680 5.70646 7.95587
#
# Compressibility (1/GPa) = 0.01347132
#
# Stress axis : x y z
#
# Youngs Moduli (GPa) = 87.07767 87.07828 108.24218
#
# Poissons Ratio (x) = 0.28844 0.32771
# Poissons Ratio (y) = 0.28844 0.32771
# Poissons Ratio (z) = 0.26363 0.26364
#
# Static dielectric constant tensor:
#      x y z
#    x 1.644890 0.000000 0.000000 
#    y 0.000000 1.644890 0.000000 
#    z 0.000000 0.000000 1.704010 
# 
# From -- ./inp_files/5231.got.cif
#   From: 2010.05.17/outbox.cif.g08.bks.cpg/sg124_3_cif.got.tgz:5231.got - 2010.05.20 11:49:17.
