data_PCOD9562192
_publ_section_title
;
Structure prediction by ZEFSAII (Michael W. Deem and Ramdas Pophale) SiO2 
 PCOD9562192
Probable space group: P 4/M M M
;
_chemical_formula_sum "Si O2"
_cell_formula_units_Z 80
_cell_length_a 23.258585
_cell_length_b 23.258585
_cell_length_c 8.762446
_cell_angle_alpha 90.000000
_cell_angle_beta 90.000000
_cell_angle_gamma 90.000000
_cell_volume 4740.148352
_symmetry_space_group_name_H-M "P 4/M M M"
_symmetry_group_IT_number 123
_symmetry_cell_setting 'tetragonal'
loop_
_space_group_symop_operation_xyz
x,y,z
-y,x,z
-x,-y,z
y,-x,z
x,-y,-z
-x,y,-z
y,x,-z
-y,-x,-z
-x,-y,-z
y,-x,-z
x,y,-z
-y,x,-z
-x,y,z
x,-y,z
-y,-x,z
y,x,z
loop_
_atom_site_type_symbol
_atom_site_label
_atom_site_fract_x
_atom_site_fract_y
_atom_site_fract_z
Si Si1 0.780465 0.125044 0.685626
Si Si2 0.000000 0.210404 0.674279
Si Si3 0.878477 0.347066 0.818327
Si Si4 0.566230 0.660086 0.816220
Si Si5 0.350046 0.000000 0.674810
Si Si6 0.567114 0.785133 0.317722
O O1 0.776010 0.122191 0.500000
O O2 0.823825 0.176176 0.725165
O O3 0.716654 0.133232 0.751119
O O4 0.803880 0.062557 0.740866
O O5 0.000000 0.188661 0.500000
O O6 0.000000 0.280166 0.671167
O O7 0.830616 0.391083 0.760190
O O8 0.941199 0.366382 0.757985
O O9 0.879003 0.343975 0.000000
O O10 0.500000 0.645601 0.778083
O O11 0.610249 0.610249 0.770851
O O12 0.580498 0.720781 0.739139
O O13 0.569490 0.666856 0.000000
O O14 0.370212 0.000000 0.500000
O O15 0.573336 0.788391 0.500000
O O16 0.500000 0.796178 0.279135
#
# Coordination Sequence:
#
# PCOD9562192 Si02
#       6
#    16   8  16  16   8  16
#     4   9  17  30  49  72  99 134 174 212 252 300
#     4   7  12  25  45  67  92 125 164 205 244 284
#     4  11  21  33  52  77 104 131 163 208 257 300
#     4   9  18  33  53  77 104 133 166 206 253 304
#     4   9  17  33  54  74 100 132 167 204 244 296
#     4  10  21  37  55  73  97 133 172 206 246 299
#
# _framework density 16.877108
#
# number of rings (size 3 to 8) (size 9 to 14) (size 15 to 20)
#    0.000    2.600    0.000    3.900    0.000    3.000 
#    0.000    1.500    0.000    3.300    0.000    4.900 
#    0.000    0.000    0.000    7.300    0.000    9.000 
#
# Total GULP energy -445898.541526 kJ/mol
# GULP energy per Si atom -5573.731769 kJ/mol
# Density = 1.683870 g / cm^3
# Si number density = 16.877108 Si / 1000 Ang^3
#
#
#
# Elastic Constant Matrix: (Units=GPa)
#
#
# Indices 1 2 3 4 5 6 
#
# 1 119.0505 100.4005 52.3936 0.0000 0.0000 0.0000
# 2 100.4005 119.0505 52.3936 0.0000 0.0000 0.0000
# 3 52.3936 52.3936 60.1547 0.0000 0.0000 0.0000
# 4 0.0000 0.0000 0.0000 21.4566 0.0000 0.0000
# 5 0.0000 0.0000 0.0000 0.0000 21.4566 0.0000
# 6 0.0000 0.0000 0.0000 0.0000 0.0000 -15.8415
#
#
#
# Elastic Compliance Matrix: (Units=1/GPa)
#
#
# Indices 1 2 3 4 5 6 
#
# 1 0.030710 -0.022909 -0.006795 0.000000 0.000000 0.000000
# 2 -0.022909 0.030710 -0.006795 0.000000 0.000000 0.000000
# 3 -0.006795 -0.006795 0.028460 0.000000 0.000000 0.000000
# 4 0.000000 0.000000 0.000000 0.046606 0.000000 0.000000
# 5 0.000000 0.000000 0.000000 0.000000 0.046606 0.000000
# 6 0.000000 0.000000 0.000000 0.000000 0.000000 -0.063125
#
#
# Mechanical properties :
#
#
# Convention : Reuss Voigt Hill
#
# Bulk Modulus (GPa) = 59.22930 78.73678 68.98304
# Shear Modulus (GPa) = 25.17725 11.61888 18.39807
#
# Velocity S-wave (km/s) = 3.86657 2.62666 3.30528
# Velocity P-wave (km/s) = 7.42324 7.48020 7.45177
#
# Compressibility (1/GPa) = 0.01688354
#
# Stress axis : x y z
#
# Youngs Moduli (GPa) = 32.56233 32.56233 35.13687
#
# Poissons Ratio (x) = 0.74597 0.23875
# Poissons Ratio (y) = 0.74597 0.23875
# Poissons Ratio (z) = 0.22125 0.22125
#
# Static dielectric constant tensor:
#      x y z
#    x 1.561190 0.000000 0.000000 
#    y 0.000000 1.561190 0.000000 
#    z 0.000000 0.000000 1.570560 
# 
# From -- ./inp_files/1499.got.cif
#   From: 2010.05.17/outbox.cif.g08.bks.cpg/sg123_1_cif.got.tgz:1499.got - 2010.05.20 11:43:04.
