data_PCOD9562082
_publ_section_title
;
Structure prediction by ZEFSAII (Michael W. Deem and Ramdas Pophale) SiO2 
 PCOD9562082
Probable space group: P 4/M M M
;
_chemical_formula_sum "Si O2"
_cell_formula_units_Z 88
_cell_length_a 18.064331
_cell_length_b 18.064331
_cell_length_c 14.274900
_cell_angle_alpha 90.000000
_cell_angle_beta 90.000000
_cell_angle_gamma 90.000000
_cell_volume 4658.186146
_symmetry_space_group_name_H-M "P 4/M M M"
_symmetry_group_IT_number 123
_symmetry_cell_setting 'tetragonal'
loop_
_space_group_symop_operation_xyz
x,y,z
-y,x,z
-x,-y,z
y,-x,z
x,-y,-z
-x,y,-z
y,x,-z
-y,-x,-z
-x,-y,-z
y,-x,-z
x,y,-z
-y,x,-z
-x,y,z
x,-y,z
-y,-x,z
y,x,z
loop_
_atom_site_type_symbol
_atom_site_label
_atom_site_fract_x
_atom_site_fract_y
_atom_site_fract_z
Si Si1 0.676750 0.323251 0.107041
Si Si2 0.172037 0.648186 0.609334
Si Si3 0.195647 0.804354 0.109100
Si Si4 0.079356 0.500000 0.388215
Si Si5 0.916251 0.798992 0.386173
Si Si6 0.317616 0.912655 0.114452
Si Si7 0.587304 0.214615 0.213506
O O1 0.740855 0.259146 0.114927
O O2 0.605554 0.285533 0.151305
O O3 0.662888 0.337113 0.000000
O O4 0.195268 0.648684 0.500000
O O5 0.119656 0.577324 0.627459
O O6 0.128126 0.723208 0.629258
O O7 0.230307 0.632411 0.690116
O O8 0.237729 0.877692 0.144927
O O9 0.180298 0.819703 0.000000
O O10 0.071138 0.500000 0.500000
O O11 0.000000 0.500000 0.340323
O O12 0.920180 0.805265 0.500000
O O13 0.867792 0.867792 0.351456
O O14 0.000000 0.796298 0.350931
O O15 0.377871 0.858973 0.163772
O O16 0.324529 0.000000 0.136488
O O17 0.323501 0.904794 0.000000
O O18 0.500000 0.205448 0.227587
#
# Coordination Sequence:
#
# PCOD9562082 Si02
#       7
#     8  16   8   8  16  16  16
#     4   9  20  38  59  82 112 146 178 215 269 339
#     4  10  20  34  51  77 111 149 190 236 286 338
#     4   7  12  28  50  68  96 140 178 208 261 336
#     4   9  16  28  46  66  99 149 192 227 277 343
#     4   9  18  32  50  72 102 146 199 252 301 346
#     4   9  18  32  51  77 107 138 177 230 288 342
#     4  11  22  36  57  85 111 145 186 226 274 339
#
# _framework density 18.891473000000001
#
# number of rings (size 3 to 8) (size 9 to 14) (size 15 to 20)
#    0.000    2.636    0.909    2.182    1.273    5.636 
#    0.000    1.818    0.000    0.545    0.000    2.545 
#    0.000    0.000    0.000    1.636    0.000    0.000 
#
# Total GULP energy -490100.773155 kJ/mol
# GULP energy per Si atom -5569.326968 kJ/mol
# Density = 1.884848 g / cm^3
# Si number density = 18.891473 Si / 1000 Ang^3
#
#
#
# Elastic Constant Matrix: (Units=GPa)
#
#
# Indices 1 2 3 4 5 6 
#
# 1 56.8121 69.5354 34.3270 0.0000 0.0000 0.0000
# 2 69.5354 56.8116 34.3273 0.0000 0.0000 0.0000
# 3 34.3270 34.3273 88.9576 0.0000 0.0000 0.0000
# 4 0.0000 0.0000 0.0000 19.8594 0.0000 0.0000
# 5 0.0000 0.0000 0.0000 0.0000 19.8594 0.0000
# 6 0.0000 0.0000 0.0000 0.0000 0.0000 56.3013
#
#
#
# Elastic Compliance Matrix: (Units=1/GPa)
#
#
# Indices 1 2 3 4 5 6 
#
# 1 -0.034290 0.044305 -0.003865 0.000000 0.000000 0.000000
# 2 0.044305 -0.034290 -0.003864 0.000000 0.000000 0.000000
# 3 -0.003865 -0.003864 0.014224 0.000000 0.000000 0.000000
# 4 0.000000 0.000000 0.000000 0.050354 0.000000 0.000000
# 5 0.000000 0.000000 0.000000 0.000000 0.050354 0.000000
# 6 0.000000 0.000000 0.000000 0.000000 0.000000 0.017762
#
#
# Mechanical properties :
#
#
# Convention : Reuss Voigt Hill
#
# Bulk Modulus (GPa) = 53.20535 53.21783 53.21159
# Shear Modulus (GPa) = -1803.00288 23.49680 -889.75304
#
# Velocity S-wave (km/s) = -30.92689 3.53055 -21.72565
# Velocity P-wave (km/s) = 35.31390 6.69710 24.51755
#
# Compressibility (1/GPa) = 0.01879510
#
# Stress axis : x y z
#
# Youngs Moduli (GPa) = -29.16327 -29.16276 70.30502
#
# Poissons Ratio (x) = 1.29204 0.27171
# Poissons Ratio (y) = 1.29207 0.27167
# Poissons Ratio (z) = -0.11271 -0.11269
#
# Static dielectric constant tensor:
#      x y z
#    x 1.689510 0.000000 0.000000 
#    y 0.000000 1.689510 0.000000 
#    z 0.000000 0.000000 1.755690 
# 
# From -- ./inp_files/4139.got.cif
#   From: 2010.05.17/outbox.cif.g08.bks.cpg/sg123_3_cif.got.tgz:4139.got - 2010.05.20 11:43:04.
