data_PCOD9562483
_publ_section_title
;
Structure prediction by ZEFSAII (Michael W. Deem and Ramdas Pophale) SiO2 
 PCOD9562483
Probable space group: P 4/M C C
;
_chemical_formula_sum "Si O2"
_cell_formula_units_Z 48
_cell_length_a 11.252486
_cell_length_b 11.252486
_cell_length_c 19.447739
_cell_angle_alpha 90.000000
_cell_angle_beta 90.000000
_cell_angle_gamma 90.000000
_cell_volume 2462.442397
_symmetry_space_group_name_H-M "P 4/M C C"
_symmetry_group_IT_number 124
_symmetry_cell_setting 'tetragonal'
loop_
_space_group_symop_operation_xyz
x,y,z
-y,x,z
-x,-y,z
y,-x,z
x,-y,1/2-z
-x,y,1/2-z
y,x,1/2-z
-y,-x,1/2-z
-x,-y,-z
y,-x,-z
x,y,-z
-y,x,-z
-x,y,1/2+z
x,-y,1/2+z
-y,-x,1/2+z
y,x,1/2+z
loop_
_atom_site_type_symbol
_atom_site_label
_atom_site_fract_x
_atom_site_fract_y
_atom_site_fract_z
Si Si1 0.667276 0.609279 0.500000
Si Si2 0.500000 0.807820 0.750000
Si Si3 0.943562 0.703176 0.178596
Si Si4 0.799588 0.691034 0.636726
O O1 0.533247 0.658621 0.500000
O O2 0.733898 0.653011 0.567991
O O3 0.422436 0.886843 0.801065
O O4 0.398019 0.754725 0.698735
O O5 0.829511 0.774338 0.152939
O O6 0.000000 0.752686 0.250000
O O7 0.057631 0.683695 0.131236
#
# Coordination Sequence:
#
# PCOD9562483 Si02
#       4
#     8   8  16  16
#     4  11  26  44  62  89 124 166 213 255 311 390
#     4  10  19  36  60  89 120 157 210 258 307 376
#     4  10  20  35  61  92 120 159 210 260 313 380
#     4  11  22  39  61  89 127 163 206 262 315 373
#
# _framework density 19.492844000000002
#
# number of rings (size 3 to 8) (size 9 to 14) (size 15 to 20)
#    0.000    1.500    0.000   10.500    0.000    2.000 
#    0.000   10.000    0.000    4.000    0.000    0.000 
#    0.000    0.000    0.000    0.000    0.000    0.000 
#
# Total GULP energy -267423.611463 kJ/mol
# GULP energy per Si atom -5571.325239 kJ/mol
# Density = 1.944848 g / cm^3
# Si number density = 19.492844 Si / 1000 Ang^3
#
#
#
# Elastic Constant Matrix: (Units=GPa)
#
#
# Indices 1 2 3 4 5 6 
#
# 1 108.4498 56.7502 79.0927 0.0000 0.0000 0.0000
# 2 56.7502 108.4498 79.0927 0.0000 0.0000 0.0000
# 3 79.0927 79.0927 125.7103 0.0000 0.0000 0.0000
# 4 0.0000 0.0000 0.0000 32.0020 0.0000 0.0000
# 5 0.0000 0.0000 0.0000 0.0000 32.0020 0.0000
# 6 0.0000 0.0000 0.0000 0.0000 0.0000 28.0409
#
#
#
# Elastic Compliance Matrix: (Units=1/GPa)
#
#
# Indices 1 2 3 4 5 6 
#
# 1 0.017284 -0.002058 -0.009580 0.000000 0.000000 0.000000
# 2 -0.002058 0.017284 -0.009580 0.000000 0.000000 0.000000
# 3 -0.009580 -0.009580 0.020010 0.000000 0.000000 0.000000
# 4 0.000000 0.000000 0.000000 0.031248 0.000000 0.000000
# 5 0.000000 0.000000 0.000000 0.000000 0.031248 0.000000
# 6 0.000000 0.000000 0.000000 0.000000 0.000000 0.035662
#
#
# Mechanical properties :
#
#
# Convention : Reuss Voigt Hill
#
# Bulk Modulus (GPa) = 82.35457 85.83122 84.09289
# Shear Modulus (GPa) = 25.09783 26.92060 26.00921
#
# Velocity S-wave (km/s) = 3.59212 3.72028 3.65676
# Velocity P-wave (km/s) = 7.71653 7.91086 7.81430
#
# Compressibility (1/GPa) = 0.01214262
#
# Stress axis : x y z
#
# Youngs Moduli (GPa) = 57.85531 57.85531 49.97597
#
# Poissons Ratio (x) = 0.11907 0.47877
# Poissons Ratio (y) = 0.11907 0.47877
# Poissons Ratio (z) = 0.55425 0.55425
#
# Static dielectric constant tensor:
#      x y z
#    x 1.727110 0.000000 0.000000 
#    y 0.000000 1.727110 0.000000 
#    z 0.000000 0.000000 1.691120 
# 
# From -- ./inp_files/3776.got.cif
#   From: 2010.05.17/outbox.cif.g08.bks.cpg/sg124_2_cif.got.tgz:3776.got - 2010.05.20 11:49:17.
