data_PCOD9562093
_publ_section_title
;
Structure prediction by ZEFSAII (Michael W. Deem and Ramdas Pophale) SiO2 
 PCOD9562093
Probable space group: P 4/M M M
;
_chemical_formula_sum "Si O2"
_cell_formula_units_Z 72
_cell_length_a 12.833400
_cell_length_b 12.833400
_cell_length_c 26.808881
_cell_angle_alpha 90.000000
_cell_angle_beta 90.000000
_cell_angle_gamma 90.000000
_cell_volume 4415.319636
_symmetry_space_group_name_H-M "P 4/M M M"
_symmetry_group_IT_number 123
_symmetry_cell_setting 'tetragonal'
loop_
_space_group_symop_operation_xyz
x,y,z
-y,x,z
-x,-y,z
y,-x,z
x,-y,-z
-x,y,-z
y,x,-z
-y,-x,-z
-x,-y,-z
y,-x,-z
x,y,-z
-y,x,-z
-x,y,z
x,-y,z
-y,-x,z
y,x,z
loop_
_atom_site_type_symbol
_atom_site_label
_atom_site_fract_x
_atom_site_fract_y
_atom_site_fract_z
Si Si1 0.500000 0.126419 0.232928
Si Si2 0.377941 0.793720 0.397066
Si Si3 0.295204 0.121524 0.500000
Si Si4 0.121895 0.293045 0.059447
Si Si5 0.122131 0.705198 0.294716
Si Si6 0.873385 0.500000 0.118497
O O1 0.394466 0.156464 0.261693
O O2 0.500000 0.162064 0.175719
O O3 0.500000 0.000000 0.233023
O O4 0.500000 0.779786 0.388739
O O5 0.314800 0.685201 0.397233
O O6 0.357507 0.847637 0.450189
O O7 0.329452 0.861146 0.352117
O O8 0.190798 0.190798 0.500000
O O9 0.272257 0.000000 0.500000
O O10 0.195003 0.195003 0.071021
O O11 0.157005 0.395297 0.089408
O O12 0.000000 0.272294 0.070873
O O13 0.128549 0.313471 0.000000
O O14 0.196072 0.803929 0.284882
O O15 0.000000 0.726447 0.285579
O O16 0.000000 0.500000 0.118521
#
# Coordination Sequence:
#
# PCOD9562093 Si02
#       6
#     8  16   8  16  16   8
#     4   9  18  33  52  71  95 129 169 211 252 296
#     4  10  20  34  52  75 102 132 168 208 252 303
#     4  10  21  34  50  74 100 130 167 206 252 308
#     4   9  17  29  47  73 104 136 169 206 249 297
#     4  10  20  34  53  76 102 132 166 206 253 304
#     4   9  17  30  49  71  95 130 173 211 247 291
#
# _framework density 16.306861000000001
#
# number of rings (size 3 to 8) (size 9 to 14) (size 15 to 20)
#    0.000    2.444    1.111    1.333    0.000    4.778 
#    0.000    1.111    0.000    6.667    0.000    9.333 
#    0.000    0.000    0.000    0.000    0.000    0.000 
#
# Total GULP energy -401394.127179 kJ/mol
# GULP energy per Si atom -5574.918433 kJ/mol
# Density = 1.626975 g / cm^3
# Si number density = 16.306861 Si / 1000 Ang^3
#
#
#
# Elastic Constant Matrix: (Units=GPa)
#
#
# Indices 1 2 3 4 5 6 
#
# 1 109.5710 56.1973 45.4309 0.0000 0.0000 0.0000
# 2 56.1973 109.5710 45.4309 0.0000 0.0000 0.0000
# 3 45.4309 45.4309 82.9891 0.0000 0.0000 0.0000
# 4 0.0000 0.0000 0.0000 16.6926 0.0000 0.0000
# 5 0.0000 0.0000 0.0000 0.0000 16.6926 0.0000
# 6 0.0000 0.0000 0.0000 0.0000 0.0000 6.7706
#
#
#
# Elastic Compliance Matrix: (Units=1/GPa)
#
#
# Indices 1 2 3 4 5 6 
#
# 1 0.013677 -0.005059 -0.004718 0.000000 0.000000 0.000000
# 2 -0.005059 0.013677 -0.004718 0.000000 0.000000 0.000000
# 3 -0.004718 -0.004718 0.017215 0.000000 0.000000 0.000000
# 4 0.000000 0.000000 0.000000 0.059907 0.000000 0.000000
# 5 0.000000 0.000000 0.000000 0.000000 0.059907 0.000000
# 6 0.000000 0.000000 0.000000 0.000000 0.000000 0.147697
#
#
# Mechanical properties :
#
#
# Convention : Reuss Voigt Hill
#
# Bulk Modulus (GPa) = 64.18371 66.24991 65.21681
# Shear Modulus (GPa) = 14.43986 18.36929 16.40458
#
# Velocity S-wave (km/s) = 2.97898 3.35994 3.17518
# Velocity P-wave (km/s) = 7.16085 7.46776 7.31592
#
# Compressibility (1/GPa) = 0.01558028
#
# Stress axis : x y z
#
# Youngs Moduli (GPa) = 73.11421 73.11421 58.08724
#
# Poissons Ratio (x) = 0.36986 0.27406
# Poissons Ratio (y) = 0.36986 0.27406
# Poissons Ratio (z) = 0.34496 0.34496
#
# Static dielectric constant tensor:
#      x y z
#    x 1.525440 0.000000 0.000000 
#    y 0.000000 1.525440 0.000000 
#    z 0.000000 0.000000 1.554240 
# 
# From -- ./inp_files/7927.got.cif
#   From: 2010.05.17/outbox.cif.g08.bks.cpg/sg123_4_cif.got.tgz:7927.got - 2010.05.20 11:43:04.
