data_PCOD9562136
_publ_section_title
;
Structure prediction by ZEFSAII (Michael W. Deem and Ramdas Pophale) SiO2 
 PCOD9562136
Probable space group: P 4/M M M
;
_chemical_formula_sum "Si O2"
_cell_formula_units_Z 80
_cell_length_a 22.905687
_cell_length_b 22.905687
_cell_length_c 9.350759
_cell_angle_alpha 90.000000
_cell_angle_beta 90.000000
_cell_angle_gamma 90.000000
_cell_volume 4906.067371
_symmetry_space_group_name_H-M "P 4/M M M"
_symmetry_group_IT_number 123
_symmetry_cell_setting 'tetragonal'
loop_
_space_group_symop_operation_xyz
x,y,z
-y,x,z
-x,-y,z
y,-x,z
x,-y,-z
-x,y,-z
y,x,-z
-y,-x,-z
-x,-y,-z
y,-x,-z
x,y,-z
-y,x,-z
-x,y,z
x,-y,z
-y,-x,z
y,x,z
loop_
_atom_site_type_symbol
_atom_site_label
_atom_site_fract_x
_atom_site_fract_y
_atom_site_fract_z
Si Si1 0.065321 0.684106 0.329663
Si Si2 0.724966 0.179338 0.828099
Si Si3 0.597749 0.500000 0.842374
Si Si4 0.402306 0.222861 0.836143
Si Si5 0.434028 0.912782 0.834403
Si Si6 0.709796 0.500000 0.667686
O O1 0.075120 0.682123 0.500000
O O2 0.117754 0.718812 0.252763
O O3 0.066355 0.618471 0.265046
O O4 0.000000 0.708051 0.303349
O O5 0.781299 0.218702 0.793815
O O6 0.665550 0.215415 0.794828
O O7 0.723697 0.169158 0.000000
O O8 0.555887 0.555887 0.835835
O O9 0.643225 0.500000 0.716236
O O10 0.627014 0.500000 0.000000
O O11 0.428504 0.157457 0.833598
O O12 0.442406 0.261400 0.736063
O O13 0.405019 0.244222 0.000000
O O14 0.500000 0.929237 0.792361
O O15 0.424706 0.930909 0.000000
O O16 0.718098 0.500000 0.500000
#
# Coordination Sequence:
#
# PCOD9562136 Si02
#       6
#    16  16   8  16  16   8
#     4  10  21  34  48  72 106 139 169 204 250 304
#     4   9  19  36  57  78  99 129 173 219 257 296
#     4   9  20  40  60  70  78 103 145 189 238 299
#     4   9  17  32  50  69  97 130 165 203 244 291
#     4   9  17  31  50  69  92 128 174 215 249 286
#     4  12  23  31  47  76 103 125 152 193 246 302
#
# _framework density 16.306339999999999
#
# number of rings (size 3 to 8) (size 9 to 14) (size 15 to 20)
#    0.000    2.500    1.000    3.000    0.000    7.200 
#    0.000    4.500    0.000    0.000    0.000    0.000 
#    0.000    0.400    0.000    4.400    0.000    3.200 
#
# Total GULP energy -446115.649986 kJ/mol
# GULP energy per Si atom -5576.445625 kJ/mol
# Density = 1.626923 g / cm^3
# Si number density = 16.306340 Si / 1000 Ang^3
#
#
#
# Elastic Constant Matrix: (Units=GPa)
#
#
# Indices 1 2 3 4 5 6 
#
# 1 95.2575 52.2217 50.2519 0.0000 0.0000 0.0000
# 2 52.2217 95.2575 50.2519 0.0000 0.0000 0.0000
# 3 50.2519 50.2519 78.8416 0.0000 0.0000 0.0000
# 4 0.0000 0.0000 0.0000 22.5325 0.0000 0.0000
# 5 0.0000 0.0000 0.0000 0.0000 22.5325 0.0000
# 6 0.0000 0.0000 0.0000 0.0000 0.0000 -7.6378
#
#
#
# Elastic Compliance Matrix: (Units=1/GPa)
#
#
# Indices 1 2 3 4 5 6 
#
# 1 0.017612 -0.005624 -0.007641 0.000000 0.000000 0.000000
# 2 -0.005624 0.017612 -0.007641 0.000000 0.000000 0.000000
# 3 -0.007641 -0.007641 0.022424 0.000000 0.000000 0.000000
# 4 0.000000 0.000000 0.000000 0.044380 0.000000 0.000000
# 5 0.000000 0.000000 0.000000 0.000000 0.044380 0.000000
# 6 0.000000 0.000000 0.000000 0.000000 0.000000 -0.130929
#
#
# Mechanical properties :
#
#
# Convention : Reuss Voigt Hill
#
# Bulk Modulus (GPa) = 63.14626 63.86748 63.50687
# Shear Modulus (GPa) = 79.91116 15.26086 47.58601
#
# Velocity S-wave (km/s) = 7.00804 3.06254 5.40795
# Velocity P-wave (km/s) = 10.21237 7.19429 8.83319
#
# Compressibility (1/GPa) = 0.01583625
#
# Stress axis : x y z
#
# Youngs Moduli (GPa) = 56.77953 56.77953 44.59600
#
# Poissons Ratio (x) = 0.31936 0.34074
# Poissons Ratio (y) = 0.31936 0.34074
# Poissons Ratio (z) = 0.43383 0.43383
#
# Static dielectric constant tensor:
#      x y z
#    x 1.549840 0.000000 0.000000 
#    y 0.000000 1.549840 0.000000 
#    z 0.000000 0.000000 1.542770 
# 
# From -- ./inp_files/1510.got.cif
#   From: 2010.05.17/outbox.cif.g08.bks.cpg/sg123_1_cif.got.tgz:1510.got - 2010.05.20 11:43:04.
