data_PCOD9562947
_publ_section_title
;
Structure prediction by ZEFSAII (Michael W. Deem and Ramdas Pophale) SiO2 
 PCOD9562947
Probable space group: P 4/N B M
;
_chemical_formula_sum "Si O2"
_cell_formula_units_Z 72
_cell_length_a 24.475339
_cell_length_b 24.475339
_cell_length_c 5.740511
_cell_angle_alpha 90.000000
_cell_angle_beta 90.000000
_cell_angle_gamma 90.000000
_cell_volume 3438.808449
_symmetry_space_group_name_H-M "P 4/N B M"
_symmetry_group_IT_number 125
_space_group.IT_coordinate_system_code '2'
_symmetry_cell_setting 'tetragonal'
loop_
_space_group_symop_operation_xyz
x,y,z
1/2-y,x,z
1/2-x,1/2-y,z
y,1/2-x,z
x,1/2-y,-z
1/2-x,y,-z
y,x,-z
1/2-y,1/2-x,-z
-x,-y,-z
1/2+y,-x,-z
1/2+x,1/2+y,-z
-y,1/2+x,-z
-x,1/2+y,z
1/2+x,-y,z
-y,-x,z
1/2+y,1/2+x,z
loop_
_atom_site_type_symbol
_atom_site_label
_atom_site_fract_x
_atom_site_fract_y
_atom_site_fract_z
Si Si1 0.126249 0.462748 0.699613
Si Si2 0.574372 0.798512 0.317717
Si Si3 0.086052 0.913949 0.760759
Si Si4 0.535629 0.192509 0.961991
Si Si5 0.856334 0.856334 0.000000
Si Si6 0.541637 0.458364 0.743608
O O1 0.145907 0.443371 0.448884
O O2 0.142652 0.412176 0.856995
O O3 0.063667 0.480369 0.724090
O O4 0.161033 0.514249 0.804251
O O5 0.580755 0.750000 0.500000
O O6 0.520020 0.789456 0.169077
O O7 0.630817 0.807551 0.177533
O O8 0.149026 0.930655 0.808338
O O9 0.067887 0.932114 0.498912
O O10 0.057689 0.942312 0.989183
O O11 0.565777 0.250000 0.000000
#
# Coordination Sequence:
#
# PCOD9562947 Si02
#       6
#    16  16   8  16   8   8
#     4  10  20  36  54  82 121 161 201 253 301 373
#     4  11  20  36  60  81 115 161 201 260 308 374
#     4  10  20  34  54  87 125 158 212 262 306 366
#     4  10  19  33  56  85 113 161 212 257 308 367
#     4  10  24  35  52  88 122 155 206 250 310 383
#     4  10  20  35  57  81 122 171 208 242 300 369
#
# _framework density 20.937484999999999
#
# number of rings (size 3 to 8) (size 9 to 14) (size 15 to 20)
#    0.000    1.778    4.444    0.667    0.000    0.444 
#    0.000    3.333    0.000    0.333    0.000    0.000 
#    0.000   33.333    0.000    0.000    0.000    0.556 
#
# Total GULP energy -401043.746690 kJ/mol
# GULP energy per Si atom -5570.052037 kJ/mol
# Density = 2.088983 g / cm^3
# Si number density = 20.937485 Si / 1000 Ang^3
#
#
#
# Elastic Constant Matrix: (Units=GPa)
#
#
# Indices 1 2 3 4 5 6 
#
# 1 35.9135 54.6019 26.6317 0.0000 0.0000 0.0000
# 2 54.6019 35.9135 26.6317 0.0000 0.0000 0.0000
# 3 26.6317 26.6317 95.6444 0.0000 0.0000 0.0000
# 4 0.0000 0.0000 0.0000 -160.4042 0.0000 0.0000
# 5 0.0000 0.0000 0.0000 0.0000 -160.4042 0.0000
# 6 0.0000 0.0000 0.0000 0.0000 0.0000 16.4220
#
#
#
# Elastic Compliance Matrix: (Units=1/GPa)
#
#
# Indices 1 2 3 4 5 6 
#
# 1 -0.020148 0.033361 -0.003679 0.000000 0.000000 0.000000
# 2 0.033361 -0.020148 -0.003679 0.000000 0.000000 0.000000
# 3 -0.003679 -0.003679 0.012504 0.000000 0.000000 0.000000
# 4 0.000000 0.000000 0.000000 -0.006234 0.000000 0.000000
# 5 0.000000 0.000000 0.000000 0.000000 -0.006234 0.000000
# 6 0.000000 0.000000 0.000000 0.000000 0.000000 0.060894
#
#
# Mechanical properties :
#
#
# Convention : Reuss Voigt Hill
#
# Bulk Modulus (GPa) = 41.29906 42.57798 41.93852
# Shear Modulus (GPa) = -214.58152 -56.90355 -135.74253
#
# Velocity S-wave (km/s) = -10.13456 -5.21889 -8.06059
# Velocity P-wave (km/s) = 10.82487 3.99198 8.15824
#
# Compressibility (1/GPa) = 0.02421362
#
# Stress axis : x y z
#
# Youngs Moduli (GPa) = -49.63234 -49.63234 79.97305
#
# Poissons Ratio (x) = 1.65578 0.29422
# Poissons Ratio (y) = 1.65578 0.29422
# Poissons Ratio (z) = -0.18260 -0.18260
#
# Static dielectric constant tensor:
#      x y z
#    x 1.848870 0.000000 0.000000 
#    y 0.000000 1.848870 0.000000 
#    z 0.000000 0.000000 1.223980 
# 
# From -- ./inp_files/1133.got.cif
#   From: 2010.05.17/outbox.cif.g08.bks.cpg/sg125_1_cif.got.tgz:1133.got - 2010.05.20 11:54:10.
