data_PCOD9562347
_publ_section_title
;
Structure prediction by ZEFSAII (Michael W. Deem and Ramdas Pophale) SiO2 
 PCOD9562347
Probable space group: P 4/M C C
;
_chemical_formula_sum "Si O2"
_cell_formula_units_Z 64
_cell_length_a 19.453569
_cell_length_b 19.453569
_cell_length_c 9.884833
_cell_angle_alpha 90.000000
_cell_angle_beta 90.000000
_cell_angle_gamma 90.000000
_cell_volume 3740.829514
_symmetry_space_group_name_H-M "P 4/M C C"
_symmetry_group_IT_number 124
_symmetry_cell_setting 'tetragonal'
loop_
_space_group_symop_operation_xyz
x,y,z
-y,x,z
-x,-y,z
y,-x,z
x,-y,1/2-z
-x,y,1/2-z
y,x,1/2-z
-y,-x,1/2-z
-x,-y,-z
y,-x,-z
x,y,-z
-y,x,-z
-x,y,1/2+z
x,-y,1/2+z
-y,-x,1/2+z
y,x,1/2+z
loop_
_atom_site_type_symbol
_atom_site_label
_atom_site_fract_x
_atom_site_fract_y
_atom_site_fract_z
Si Si1 0.684883 0.221048 0.841478
Si Si2 0.192946 0.081272 0.000000
Si Si3 0.432792 0.336323 0.337892
Si Si4 0.075900 0.707806 0.745628
Si Si5 0.186931 0.069653 0.500000
O O1 0.745264 0.254737 0.750000
O O2 0.620857 0.273084 0.834294
O O3 0.666236 0.145326 0.785704
O O4 0.705589 0.216451 0.000000
O O5 0.245102 0.086569 0.124191
O O6 0.133293 0.136551 0.000000
O O7 0.156190 0.006757 0.000000
O O8 0.500000 0.318570 0.250000
O O9 0.397229 0.397229 0.250000
O O10 0.444670 0.351956 0.500000
O O11 0.072375 0.763328 0.627121
O O12 0.000000 0.673154 0.750000
#
# Coordination Sequence:
#
# PCOD9562347 Si02
#       5
#    16   8  16  16   8
#     4  10  20  34  55  80 107 139 178 227 274 318
#     4  10  20  29  44  64  89 129 168 220 272 330
#     4  10  21  38  60  88 120 151 182 215 256 308
#     4  10  20  32  47  70  98 133 175 222 276 327
#     4  10  18  31  44  62  93 123 170 218 272 332
#
# _framework density 17.108504
#
# number of rings (size 3 to 8) (size 9 to 14) (size 15 to 20)
#    0.000    2.000    1.250    3.000    1.750    1.500 
#    0.000    1.250    0.000    5.250    0.000    3.500 
#    0.000    0.000    0.000    0.000    0.000    0.000 
#
# Total GULP energy -356340.324269 kJ/mol
# GULP energy per Si atom -5567.817567 kJ/mol
# Density = 1.706956 g / cm^3
# Si number density = 17.108504 Si / 1000 Ang^3
#
#
#
# Elastic Constant Matrix: (Units=GPa)
#
#
# Indices 1 2 3 4 5 6 
#
# 1 66.2194 10.5293 32.0469 0.0000 0.0000 0.0000
# 2 10.5293 66.2197 32.0481 0.0000 0.0000 0.0000
# 3 32.0469 32.0481 155.3891 0.0000 0.0000 0.0000
# 4 0.0000 0.0000 0.0000 31.3446 0.0000 0.0000
# 5 0.0000 0.0000 0.0000 0.0000 31.3433 0.0000
# 6 0.0000 0.0000 0.0000 0.0000 0.0000 13.1854
#
#
#
# Elastic Compliance Matrix: (Units=1/GPa)
#
#
# Indices 1 2 3 4 5 6 
#
# 1 0.016849 -0.001108 -0.003246 0.000000 0.000000 0.000000
# 2 -0.001108 0.016849 -0.003246 0.000000 0.000000 0.000000
# 3 -0.003246 -0.003246 0.007775 0.000000 0.000000 0.000000
# 4 0.000000 0.000000 0.000000 0.031903 0.000000 0.000000
# 5 0.000000 0.000000 0.000000 0.000000 0.031905 0.000000
# 6 0.000000 0.000000 0.000000 0.000000 0.000000 0.075841
#
#
# Mechanical properties :
#
#
# Convention : Reuss Voigt Hill
#
# Bulk Modulus (GPa) = 38.06572 48.56408 43.31490
# Shear Modulus (GPa) = 24.38084 29.38826 26.88455
#
# Velocity S-wave (km/s) = 3.77911 4.14908 3.96841
# Velocity P-wave (km/s) = 6.42963 7.16943 6.80958
#
# Compressibility (1/GPa) = 0.02627036
#
# Stress axis : x y z
#
# Youngs Moduli (GPa) = 59.35237 59.35223 128.62546
#
# Poissons Ratio (x) = 0.06576 0.41755
# Poissons Ratio (y) = 0.06576 0.41757
# Poissons Ratio (z) = 0.19267 0.19268
#
# Static dielectric constant tensor:
#      x y z
#    x 1.601410 0.000000 0.000000 
#    y 0.000000 1.601410 0.000000 
#    z 0.000000 0.000000 1.571250 
# 
# From -- ./inp_files/896.got.cif
#   From: 2010.05.17/outbox.cif.g08.bks.cpg/sg124_1_cif.got.tgz:896.got - 2010.05.20 11:49:17.
