data_PCOD9562957
_publ_section_title
;
Structure prediction by ZEFSAII (Michael W. Deem and Ramdas Pophale) SiO2 
 PCOD9562957
Probable space group: P 4/N B M
;
_chemical_formula_sum "Si O2"
_cell_formula_units_Z 96
_cell_length_a 17.795788
_cell_length_b 17.795788
_cell_length_c 18.248814
_cell_angle_alpha 90.000000
_cell_angle_beta 90.000000
_cell_angle_gamma 90.000000
_cell_volume 5779.218193
_symmetry_space_group_name_H-M "P 4/N B M"
_symmetry_group_IT_number 125
_space_group.IT_coordinate_system_code '2'
_symmetry_cell_setting 'tetragonal'
loop_
_space_group_symop_operation_xyz
x,y,z
1/2-y,x,z
1/2-x,1/2-y,z
y,1/2-x,z
x,1/2-y,-z
1/2-x,y,-z
y,x,-z
1/2-y,1/2-x,-z
-x,-y,-z
1/2+y,-x,-z
1/2+x,1/2+y,-z
-y,1/2+x,-z
-x,1/2+y,z
1/2+x,-y,z
-y,-x,z
1/2+y,1/2+x,z
loop_
_atom_site_type_symbol
_atom_site_label
_atom_site_fract_x
_atom_site_fract_y
_atom_site_fract_z
Si Si1 0.888450 0.984733 0.191475
Si Si2 0.767092 0.477566 0.915134
Si Si3 0.638357 0.013227 0.200034
Si Si4 0.687651 0.312350 0.138688
Si Si5 0.812822 0.187178 0.316966
Si Si6 0.253464 0.373538 0.588032
Si Si7 0.767208 0.478308 0.683278
O O1 0.940527 0.913754 0.207368
O O2 0.837650 0.977390 0.118747
O O3 0.831797 0.999593 0.258246
O O4 0.944206 0.055795 0.183180
O O5 0.693767 0.496831 0.868094
O O6 0.786891 0.391163 0.895233
O O7 0.750000 0.487334 0.000000
O O8 0.584531 0.084531 0.188369
O O9 0.690302 0.026809 0.270515
O O10 0.750000 0.250000 0.122935
O O11 0.681626 0.318375 0.227400
O O12 0.750000 0.250000 0.332875
O O13 0.788502 0.104812 0.344633
O O14 0.179275 0.324861 0.608277
O O15 0.250000 0.380861 0.500000
O O16 0.259309 0.454342 0.625633
#
# Coordination Sequence:
#
# PCOD9562957 Si02
#       7
#    16  16  16   8   8  16  16
#     4  10  19  35  50  74 104 137 172 218 271 317
#     4  11  22  33  48  72 100 137 173 221 272 319
#     4  10  21  33  52  75 103 134 178 220 264 322
#     4  11  20  32  50  72 101 128 174 220 271 319
#     4  11  20  34  58  78 110 147 183 223 277 322
#     4   9  19  36  60  88 115 144 180 224 271 313
#     4  11  18  34  57  83 107 143 176 223 262 321
#
# _framework density 16.611243000000002
#
# number of rings (size 3 to 8) (size 9 to 14) (size 15 to 20)
#    0.000    1.667    5.000    2.500    2.333    0.667 
#    0.000    1.667    3.667    5.500    0.000    4.667 
#    0.000    0.000    0.000    0.000    0.000    0.000 
#
# Total GULP energy -535638.150344 kJ/mol
# GULP energy per Si atom -5579.564066 kJ/mol
# Density = 1.657344 g / cm^3
# Si number density = 16.611243 Si / 1000 Ang^3
#
#
#
# Elastic Constant Matrix: (Units=GPa)
#
#
# Indices 1 2 3 4 5 6 
#
# 1 111.3766 49.0928 24.9495 0.0000 0.0000 0.0000
# 2 49.0928 111.3766 24.9495 0.0000 0.0000 0.0000
# 3 24.9495 24.9495 40.2942 0.0000 0.0000 0.0000
# 4 0.0000 0.0000 0.0000 21.3578 0.0000 0.0000
# 5 0.0000 0.0000 0.0000 0.0000 21.3578 0.0000
# 6 0.0000 0.0000 0.0000 0.0000 0.0000 25.6563
#
#
#
# Elastic Compliance Matrix: (Units=1/GPa)
#
#
# Indices 1 2 3 4 5 6 
#
# 1 0.011887 -0.004169 -0.004779 0.000000 0.000000 0.000000
# 2 -0.004169 0.011887 -0.004779 0.000000 0.000000 0.000000
# 3 -0.004779 -0.004779 0.030735 0.000000 0.000000 0.000000
# 4 0.000000 0.000000 0.000000 0.046821 0.000000 0.000000
# 5 0.000000 0.000000 0.000000 0.000000 0.046821 0.000000
# 6 0.000000 0.000000 0.000000 0.000000 0.000000 0.038977
#
#
# Mechanical properties :
#
#
# Convention : Reuss Voigt Hill
#
# Bulk Modulus (GPa) = 36.96049 51.22567 44.09308
# Shear Modulus (GPa) = 22.36147 24.61142 23.48644
#
# Velocity S-wave (km/s) = 3.67299 3.85335 3.76425
# Velocity P-wave (km/s) = 6.34716 7.12058 6.74496
#
# Compressibility (1/GPa) = 0.02705591
#
# Stress axis : x y z
#
# Youngs Moduli (GPa) = 84.12824 84.12824 32.53599
#
# Poissons Ratio (x) = 0.35073 0.15548
# Poissons Ratio (y) = 0.35073 0.15548
# Poissons Ratio (z) = 0.40202 0.40202
#
# Static dielectric constant tensor:
#      x y z
#    x 1.562040 0.000000 0.000000 
#    y 0.000000 1.562040 0.000000 
#    z 0.000000 0.000000 1.538010 
# 
# From -- ./inp_files/5473.got.cif
#   From: 2010.05.17/outbox.cif.g08.bks.cpg/sg125_3_cif.got.tgz:5473.got - 2010.05.20 11:54:10.
