data_PCOD9562224
_publ_section_title
;
Structure prediction by ZEFSAII (Michael W. Deem and Ramdas Pophale) SiO2 
 PCOD9562224
Probable space group: P 4/M M M
;
_chemical_formula_sum "Si O2"
_cell_formula_units_Z 120
_cell_length_a 28.783582
_cell_length_b 28.783582
_cell_length_c 7.516250
_cell_angle_alpha 90.000000
_cell_angle_beta 90.000000
_cell_angle_gamma 90.000000
_cell_volume 6227.172483
_symmetry_space_group_name_H-M "P 4/M M M"
_symmetry_group_IT_number 123
_symmetry_cell_setting 'tetragonal'
loop_
_space_group_symop_operation_xyz
x,y,z
-y,x,z
-x,-y,z
y,-x,z
x,-y,-z
-x,y,-z
y,x,-z
-y,-x,-z
-x,-y,-z
y,-x,-z
x,y,-z
-y,x,-z
-x,y,z
x,-y,z
-y,-x,z
y,x,z
loop_
_atom_site_type_symbol
_atom_site_label
_atom_site_fract_x
_atom_site_fract_y
_atom_site_fract_z
Si Si1 0.788318 0.054501 0.788020
Si Si2 0.643568 0.196973 0.792680
Si Si3 0.552440 0.627569 0.287679
Si Si4 0.448191 0.141181 0.716094
Si Si5 0.303403 0.108189 0.786429
Si Si6 0.051607 0.603814 0.287209
Si Si7 0.625799 0.299234 0.214449
Si Si8 0.867309 0.945284 0.500000
O O1 0.745635 0.087095 0.727537
O O2 0.834051 0.062940 0.671083
O O3 0.775283 0.000000 0.762433
O O4 0.796165 0.061162 0.000000
O O5 0.592619 0.174249 0.781855
O O6 0.679237 0.158461 0.716816
O O7 0.638228 0.248324 0.715364
O O8 0.656447 0.202315 0.000000
O O9 0.550079 0.621113 0.500000
O O10 0.500000 0.624555 0.217524
O O11 0.587925 0.587925 0.217405
O O12 0.576400 0.677583 0.258082
O O13 0.447004 0.142334 0.500000
O O14 0.500000 0.153353 0.773617
O O15 0.433351 0.089515 0.775542
O O16 0.345200 0.072565 0.747293
O O17 0.300487 0.111711 0.000000
O O18 0.049103 0.598481 0.500000
O O19 0.000000 0.598946 0.213834
O O20 0.664065 0.335936 0.278140
O O21 0.627782 0.297291 0.000000
O O22 0.910885 0.910885 0.500000
O O23 0.880491 0.000000 0.500000
#
# Coordination Sequence:
#
# PCOD9562224 Si02
#       8
#    16  16  16  16  16  16  16   8
#     4   9  18  33  55  83 113 146 182 222 271 322
#     4   9  18  32  49  69  92 122 161 203 248 294
#     4   9  18  32  50  72  96 121 150 187 234 289
#     4   9  18  31  44  61  88 122 159 200 246 291
#     4   9  17  30  48  72 100 129 164 208 257 306
#     4   9  17  27  42  65  90 122 163 205 249 296
#     4   9  18  33  51  69  91 120 154 190 227 275
#     4  10  22  39  60  86 116 150 185 223 263 309
#
# _framework density 19.270382999999999
#
# number of rings (size 3 to 8) (size 9 to 14) (size 15 to 20)
#    0.000    2.933    0.000    0.400    0.933    3.133 
#    0.000    5.333    0.000    2.400    0.000    7.467 
#    0.000    0.000    0.000    0.000    0.000    0.000 
#
# Total GULP energy -668877.887797 kJ/mol
# GULP energy per Si atom -5573.982398 kJ/mol
# Density = 1.922652 g / cm^3
# Si number density = 19.270383 Si / 1000 Ang^3
#
#
#
# Elastic Constant Matrix: (Units=GPa)
#
#
# Indices 1 2 3 4 5 6 
#
# 1 112.2556 48.6128 12.1669 0.0000 0.0000 0.0000
# 2 48.6128 112.2556 12.1669 0.0000 0.0000 0.0000
# 3 12.1669 12.1669 58.1703 0.0000 0.0000 0.0000
# 4 0.0000 0.0000 0.0000 18.7070 0.0000 0.0000
# 5 0.0000 0.0000 0.0000 0.0000 18.7070 0.0000
# 6 0.0000 0.0000 0.0000 0.0000 0.0000 13.2148
#
#
#
# Elastic Compliance Matrix: (Units=1/GPa)
#
#
# Indices 1 2 3 4 5 6 
#
# 1 0.011066 -0.004647 -0.001343 0.000000 0.000000 0.000000
# 2 -0.004647 0.011066 -0.001343 0.000000 0.000000 0.000000
# 3 -0.001343 -0.001343 0.017753 0.000000 0.000000 0.000000
# 4 0.000000 0.000000 0.000000 0.053456 0.000000 0.000000
# 5 0.000000 0.000000 0.000000 0.000000 0.053456 0.000000
# 6 0.000000 0.000000 0.000000 0.000000 0.000000 0.075673
#
#
# Mechanical properties :
#
#
# Convention : Reuss Voigt Hill
#
# Bulk Modulus (GPa) = 39.65012 47.61940 43.63476
# Shear Modulus (GPa) = 20.36326 24.10809 22.23567
#
# Velocity S-wave (km/s) = 3.25424 3.54085 3.40056
# Velocity P-wave (km/s) = 5.89410 6.44062 6.17341
#
# Compressibility (1/GPa) = 0.02522060
#
# Stress axis : x y z
#
# Youngs Moduli (GPa) = 90.36665 90.36665 56.32991
#
# Poissons Ratio (x) = 0.41990 0.07563
# Poissons Ratio (y) = 0.41990 0.07563
# Poissons Ratio (z) = 0.12133 0.12133
#
# Static dielectric constant tensor:
#      x y z
#    x 1.666590 0.000000 0.000000 
#    y 0.000000 1.666590 0.000000 
#    z 0.000000 0.000000 1.731270 
# 
# From -- ./inp_files/2010.got.cif
#   From: 2010.05.17/outbox.cif.g08.bks.cpg/sg123_2_cif.got.tgz:2010.got - 2010.05.20 11:43:04.
