data_PCOD9562556
_publ_section_title
;
Structure prediction by ZEFSAII (Michael W. Deem and Ramdas Pophale) SiO2 
 PCOD9562556
Probable space group: P 4/M C C
;
_chemical_formula_sum "Si O2"
_cell_formula_units_Z 96
_cell_length_a 24.745778
_cell_length_b 24.745778
_cell_length_c 8.660458
_cell_angle_alpha 90.000000
_cell_angle_beta 90.000000
_cell_angle_gamma 90.000000
_cell_volume 5303.262018
_symmetry_space_group_name_H-M "P 4/M C C"
_symmetry_group_IT_number 124
_symmetry_cell_setting 'tetragonal'
loop_
_space_group_symop_operation_xyz
x,y,z
-y,x,z
-x,-y,z
y,-x,z
x,-y,1/2-z
-x,y,1/2-z
y,x,1/2-z
-y,-x,1/2-z
-x,-y,-z
y,-x,-z
x,y,-z
-y,x,-z
-x,y,1/2+z
x,-y,1/2+z
-y,-x,1/2+z
y,x,1/2+z
loop_
_atom_site_type_symbol
_atom_site_label
_atom_site_fract_x
_atom_site_fract_y
_atom_site_fract_z
Si Si1 0.060445 0.144793 0.314496
Si Si2 0.442923 0.060443 0.315611
Si Si3 0.856632 0.357752 0.187094
Si Si4 0.557825 0.233562 0.314545
Si Si5 0.641887 0.557876 0.315046
Si Si6 0.767038 0.149114 0.313859
O O1 0.093203 0.093203 0.250000
O O2 0.058913 0.141930 0.500000
O O3 0.096636 0.197176 0.269569
O O4 0.000000 0.147590 0.250000
O O5 0.500000 0.082514 0.250000
O O6 0.445613 0.059602 0.500000
O O7 0.392149 0.094640 0.257669
O O8 0.438134 0.000000 0.250000
O O9 0.803522 0.391989 0.232069
O O10 0.854555 0.295262 0.236643
O O11 0.861056 0.358574 0.000000
O O12 0.500000 0.214844 0.250000
O O13 0.554464 0.232136 0.500000
O O14 0.565537 0.295700 0.266002
O O15 0.623857 0.500000 0.250000
O O16 0.604671 0.604671 0.250000
O O17 0.639746 0.557135 0.500000
O O18 0.799007 0.200994 0.250000
O O19 0.767427 0.152169 0.500000
#
# Coordination Sequence:
#
# PCOD9562556 Si02
#       6
#    16  16  16  16  16  16
#     4  10  20  36  57  82 110 143 178 217 262 310
#     4  11  22  37  56  80 110 145 181 224 274 325
#     4  10  20  36  56  81 110 143 183 226 268 318
#     4   9  19  34  53  75 104 137 172 215 265 313
#     4  10  20  35  53  76 103 135 171 213 262 317
#     4   9  20  37  56  78 110 146 181 222 268 314
#
# _framework density 18.102066000000001
#
# number of rings (size 3 to 8) (size 9 to 14) (size 15 to 20)
#    0.000    2.167    0.000    3.500    0.000    5.667 
#    0.000    3.333    0.000    0.000    0.000    0.000 
#    0.000    0.000    0.000    0.000    0.000    0.000 
#
# Total GULP energy -535909.348004 kJ/mol
# GULP energy per Si atom -5582.389042 kJ/mol
# Density = 1.806087 g / cm^3
# Si number density = 18.102066 Si / 1000 Ang^3
#
#
#
# Elastic Constant Matrix: (Units=GPa)
#
#
# Indices 1 2 3 4 5 6 
#
# 1 164.9281 97.0095 42.2771 0.0000 0.0000 0.0000
# 2 97.0095 164.9258 42.2771 0.0000 0.0000 0.0000
# 3 42.2771 42.2771 48.4997 0.0000 0.0000 0.0000
# 4 0.0000 0.0000 0.0000 25.0736 0.0000 0.0000
# 5 0.0000 0.0000 0.0000 0.0000 25.0741 0.0000
# 6 0.0000 0.0000 0.0000 0.0000 0.0000 25.1558
#
#
#
# Elastic Compliance Matrix: (Units=1/GPa)
#
#
# Indices 1 2 3 4 5 6 
#
# 1 0.010018 -0.004706 -0.004631 0.000000 0.000000 0.000000
# 2 -0.004706 0.010018 -0.004631 0.000000 0.000000 0.000000
# 3 -0.004631 -0.004631 0.028692 0.000000 0.000000 0.000000
# 4 0.000000 0.000000 0.000000 0.039883 0.000000 0.000000
# 5 0.000000 0.000000 0.000000 0.000000 0.039882 0.000000
# 6 0.000000 0.000000 0.000000 0.000000 0.000000 0.039752
#
#
# Mechanical properties :
#
#
# Convention : Reuss Voigt Hill
#
# Bulk Modulus (GPa) = 48.09175 82.38675 65.23925
# Shear Modulus (GPa) = 24.61700 28.18003 26.39851
#
# Velocity S-wave (km/s) = 3.69168 3.94982 3.82293
# Velocity P-wave (km/s) = 6.69298 8.14939 7.45683
#
# Compressibility (1/GPa) = 0.02079359
#
# Stress axis : x y z
#
# Youngs Moduli (GPa) = 99.81926 99.81749 34.85250
#
# Poissons Ratio (x) = 0.46970 0.16140
# Poissons Ratio (y) = 0.46971 0.16140
# Poissons Ratio (z) = 0.46226 0.46226
#
# Static dielectric constant tensor:
#      x y z
#    x 1.608800 0.000000 0.000000 
#    y 0.000000 1.608810 0.000000 
#    z 0.000000 0.000000 1.613360 
# 
# From -- ./inp_files/1340.got.cif
#   From: 2010.05.17/outbox.cif.g08.bks.cpg/sg124_1_cif.got.tgz:1340.got - 2010.05.20 11:49:17.
