data_PCOD9562757
_publ_section_title
;
Structure prediction by ZEFSAII (Michael W. Deem and Ramdas Pophale) SiO2 
 PCOD9562757
Probable space group: P 4/M C C
;
_chemical_formula_sum "Si O2"
_cell_formula_units_Z 56
_cell_length_a 12.644614
_cell_length_b 12.644614
_cell_length_c 17.431514
_cell_angle_alpha 90.000000
_cell_angle_beta 90.000000
_cell_angle_gamma 90.000000
_cell_volume 2787.059636
_symmetry_space_group_name_H-M "P 4/M C C"
_symmetry_group_IT_number 124
_symmetry_cell_setting 'tetragonal'
loop_
_space_group_symop_operation_xyz
x,y,z
-y,x,z
-x,-y,z
y,-x,z
x,-y,1/2-z
-x,y,1/2-z
y,x,1/2-z
-y,-x,1/2-z
-x,-y,-z
y,-x,-z
x,y,-z
-y,x,-z
-x,y,1/2+z
x,-y,1/2+z
-y,-x,1/2+z
y,x,1/2+z
loop_
_atom_site_type_symbol
_atom_site_label
_atom_site_fract_x
_atom_site_fract_y
_atom_site_fract_z
Si Si1 0.919677 0.157648 0.412521
Si Si2 0.548925 0.857312 0.913666
Si Si3 0.573038 0.337373 0.500000
Si Si4 0.356736 0.050753 0.666400
O O1 0.899566 0.193402 0.500000
O O2 0.044656 0.134653 0.403064
O O3 0.891693 0.247786 0.352667
O O4 0.629318 0.949948 0.890939
O O5 0.454440 0.872813 0.853599
O O6 0.506742 0.878929 0.000000
O O7 0.594526 0.739719 0.926897
O O8 0.634688 0.447524 0.500000
O O9 0.361014 0.000000 0.750000
#
# Coordination Sequence:
#
# PCOD9562757 Si02
#       4
#    16  16   8  16
#     4   9  19  35  53  74 106 147 185 219 254 300
#     4   9  19  34  57  78 104 137 175 221 267 316
#     4   9  20  37  58  82 102 127 176 239 282 314
#     4  11  20  33  53  82 115 143 173 215 266 322
#
# _framework density 20.092860000000002
#
# number of rings (size 3 to 8) (size 9 to 14) (size 15 to 20)
#    0.857    1.571    0.000    6.000    0.000    3.429 
#    0.000    1.429    0.000    5.143    0.000    8.000 
#    0.000    0.000    0.000    0.000    0.000    0.000 
#
# Total GULP energy -311841.738774 kJ/mol
# GULP energy per Si atom -5568.602478 kJ/mol
# Density = 2.004713 g / cm^3
# Si number density = 20.092860 Si / 1000 Ang^3
#
#
#
# Elastic Constant Matrix: (Units=GPa)
#
#
# Indices 1 2 3 4 5 6 
#
# 1 54.4243 -27.2817 -0.9019 0.0000 0.0000 0.0000
# 2 -27.2817 54.4243 -0.9019 0.0000 0.0000 0.0000
# 3 -0.9019 -0.9019 60.2181 0.0000 0.0000 0.0000
# 4 0.0000 0.0000 0.0000 9.8578 0.0000 0.0000
# 5 0.0000 0.0000 0.0000 0.0000 9.8578 0.0000
# 6 0.0000 0.0000 0.0000 0.0000 0.0000 -3.7301
#
#
#
# Elastic Compliance Matrix: (Units=1/GPa)
#
#
# Indices 1 2 3 4 5 6 
#
# 1 0.024559 0.012320 0.000552 0.000000 0.000000 0.000000
# 2 0.012320 0.024559 0.000552 0.000000 0.000000 0.000000
# 3 0.000552 0.000552 0.016623 0.000000 0.000000 0.000000
# 4 0.000000 0.000000 0.000000 0.101442 0.000000 0.000000
# 5 0.000000 0.000000 0.000000 0.000000 0.101442 0.000000
# 6 0.000000 0.000000 0.000000 0.000000 0.000000 -0.268092
#
#
# Mechanical properties :
#
#
# Convention : Reuss Voigt Hill
#
# Bulk Modulus (GPa) = 10.80024 12.32175 11.56100
# Shear Modulus (GPa) = 1099.61138 16.40727 558.00932
#
# Velocity S-wave (km/s) = 23.41907 2.86067 16.68287
# Velocity P-wave (km/s) = 27.14143 4.13001 19.41281
#
# Compressibility (1/GPa) = 0.09259053
#
# Stress axis : x y z
#
# Youngs Moduli (GPa) = 40.71813 40.71813 60.15819
#
# Poissons Ratio (x) = -0.50165 -0.03323
# Poissons Ratio (y) = -0.50165 -0.03323
# Poissons Ratio (z) = -0.02249 -0.02249
#
# Static dielectric constant tensor:
#      x y z
#    x 1.753000 0.000000 0.000000 
#    y 0.000000 1.753000 0.000000 
#    z 0.000000 0.000000 1.696870 
# 
# From -- ./inp_files/2883.got.cif
#   From: 2010.05.17/outbox.cif.g08.bks.cpg/sg124_2_cif.got.tgz:2883.got - 2010.05.20 11:49:17.
