data_PCOD9562811
_publ_section_title
;
Structure prediction by ZEFSAII (Michael W. Deem and Ramdas Pophale) SiO2 
 PCOD9562811
Probable space group: P 4/M C C
;
_chemical_formula_sum "Si O2"
_cell_formula_units_Z 96
_cell_length_a 14.097784
_cell_length_b 14.097784
_cell_length_c 23.390281
_cell_angle_alpha 90.000000
_cell_angle_beta 90.000000
_cell_angle_gamma 90.000000
_cell_volume 4648.760194
_symmetry_space_group_name_H-M "P 4/M C C"
_symmetry_group_IT_number 124
_symmetry_cell_setting 'tetragonal'
loop_
_space_group_symop_operation_xyz
x,y,z
-y,x,z
-x,-y,z
y,-x,z
x,-y,1/2-z
-x,y,1/2-z
y,x,1/2-z
-y,-x,1/2-z
-x,-y,-z
y,-x,-z
x,y,-z
-y,x,-z
-x,y,1/2+z
x,-y,1/2+z
-y,-x,1/2+z
y,x,1/2+z
loop_
_atom_site_type_symbol
_atom_site_label
_atom_site_fract_x
_atom_site_fract_y
_atom_site_fract_z
Si Si1 0.329005 0.205736 0.130026
Si Si2 0.025946 0.842516 0.434135
Si Si3 0.383406 0.393364 0.312948
Si Si4 0.388306 0.114254 0.750829
Si Si5 0.141080 0.300068 0.872233
Si Si6 0.496580 0.890261 0.068134
O O1 0.354049 0.316077 0.139679
O O2 0.342695 0.153948 0.191107
O O3 0.220665 0.221431 0.113031
O O4 0.407165 0.159655 0.089214
O O5 0.032002 0.807717 0.500000
O O6 0.045312 0.754350 0.392086
O O7 0.926610 0.896869 0.427043
O O8 0.493802 0.372318 0.316517
O O9 0.356428 0.356428 0.250000
O O10 0.500000 0.144879 0.750000
O O11 0.330876 0.144404 0.694150
O O12 0.388287 0.000000 0.750000
O O13 0.150972 0.399531 0.905614
O O14 0.500000 0.000000 0.087720
O O15 0.491518 0.887150 0.000000
#
# Coordination Sequence:
#
# PCOD9562811 Si02
#       6
#    16  16  16  16  16  16
#     4  12  24  40  63  97 130 171 218 275 331 401
#     4   9  21  42  68  99 135 177 228 287 344 399
#     4   9  18  32  54  84 119 157 201 255 311 375
#     4  11  24  42  65  94 137 180 219 274 342 405
#     4  12  24  40  71 102 132 175 233 278 337 409
#     4  11  26  46  68  97 135 176 223 281 341 402
#
# _framework density 20.650666999999999
#
# number of rings (size 3 to 8) (size 9 to 14) (size 15 to 20)
#    0.000    1.333    1.667    5.000    7.000    1.333 
#    0.000    0.000    0.000    0.000    0.000    3.500 
#    0.000    0.000    0.000    0.000    0.000    0.000 
#
# Total GULP energy -536181.227047 kJ/mol
# GULP energy per Si atom -5585.221115 kJ/mol
# Density = 2.060366 g / cm^3
# Si number density = 20.650667 Si / 1000 Ang^3
#
#
#
# Elastic Constant Matrix: (Units=GPa)
#
#
# Indices 1 2 3 4 5 6 
#
# 1 102.2159 19.8744 33.4174 0.0000 0.0000 0.0000
# 2 19.8744 102.2159 33.4174 0.0000 0.0000 0.0000
# 3 33.4174 33.4174 65.9854 0.0000 0.0000 0.0000
# 4 0.0000 0.0000 0.0000 30.0773 0.0000 0.0000
# 5 0.0000 0.0000 0.0000 0.0000 30.0773 0.0000
# 6 0.0000 0.0000 0.0000 0.0000 0.0000 50.4024
#
#
#
# Elastic Compliance Matrix: (Units=1/GPa)
#
#
# Indices 1 2 3 4 5 6 
#
# 1 0.011738 -0.000406 -0.005739 0.000000 0.000000 0.000000
# 2 -0.000406 0.011738 -0.005739 0.000000 0.000000 0.000000
# 3 -0.005739 -0.005739 0.020968 0.000000 0.000000 0.000000
# 4 0.000000 0.000000 0.000000 0.033248 0.000000 0.000000
# 5 0.000000 0.000000 0.000000 0.000000 0.033248 0.000000
# 6 0.000000 0.000000 0.000000 0.000000 0.000000 0.019840
#
#
# Mechanical properties :
#
#
# Convention : Reuss Voigt Hill
#
# Bulk Modulus (GPa) = 48.36495 49.31505 48.84000
# Shear Modulus (GPa) = 30.97102 34.35858 32.66480
#
# Velocity S-wave (km/s) = 3.87687 4.08340 3.98147
# Velocity P-wave (km/s) = 6.59633 6.79445 6.69613
#
# Compressibility (1/GPa) = 0.02067613
#
# Stress axis : x y z
#
# Youngs Moduli (GPa) = 85.19008 85.19008 47.69200
#
# Poissons Ratio (x) = 0.03459 0.27371
# Poissons Ratio (y) = 0.03459 0.27371
# Poissons Ratio (z) = 0.48892 0.48892
#
# Static dielectric constant tensor:
#      x y z
#    x 1.780120 0.000000 0.000000 
#    y 0.000000 1.780120 0.000000 
#    z 0.000000 0.000000 1.714750 
# 
# From -- ./inp_files/5329.got.cif
#   From: 2010.05.17/outbox.cif.g08.bks.cpg/sg124_3_cif.got.tgz:5329.got - 2010.05.20 11:49:17.
