data_PCOD9562505
_publ_section_title
;
Structure prediction by ZEFSAII (Michael W. Deem and Ramdas Pophale) SiO2 
 PCOD9562505
Probable space group: P 4/M C C
;
_chemical_formula_sum "Si O2"
_cell_formula_units_Z 96
_cell_length_a 25.691029
_cell_length_b 25.691029
_cell_length_c 8.800302
_cell_angle_alpha 90.000000
_cell_angle_beta 90.000000
_cell_angle_gamma 90.000000
_cell_volume 5808.454274
_symmetry_space_group_name_H-M "P 4/M C C"
_symmetry_group_IT_number 124
_symmetry_cell_setting 'tetragonal'
loop_
_space_group_symop_operation_xyz
x,y,z
-y,x,z
-x,-y,z
y,-x,z
x,-y,1/2-z
-x,y,1/2-z
y,x,1/2-z
-y,-x,1/2-z
-x,-y,-z
y,-x,-z
x,y,-z
-y,x,-z
-x,y,1/2+z
x,-y,1/2+z
-y,-x,1/2+z
y,x,1/2+z
loop_
_atom_site_type_symbol
_atom_site_label
_atom_site_fract_x
_atom_site_fract_y
_atom_site_fract_z
Si Si1 0.946258 0.758378 0.674261
Si Si2 0.755838 0.163560 0.818926
Si Si3 0.633532 0.163630 0.181481
Si Si4 0.631807 0.946154 0.824879
Si Si5 0.361266 0.557131 0.316872
Si Si6 0.556477 0.247643 0.317908
O O1 0.943671 0.775202 0.500000
O O2 0.893310 0.772828 0.759768
O O3 0.947919 0.695081 0.676112
O O4 0.000000 0.776461 0.750000
O O5 0.791664 0.208337 0.750000
O O6 0.694726 0.170486 0.778675
O O7 0.759492 0.164562 0.000000
O O8 0.617664 0.105428 0.231959
O O9 0.598600 0.205339 0.268088
O O10 0.628014 0.169372 0.000000
O O11 0.613518 0.000000 0.750000
O O12 0.615165 0.942107 0.000000
O O13 0.373590 0.500000 0.250000
O O14 0.401706 0.598295 0.250000
O O15 0.362074 0.556265 0.500000
O O16 0.303414 0.569877 0.256305
O O17 0.500000 0.233084 0.250000
O O18 0.553284 0.252502 0.500000
#
# Coordination Sequence:
#
# PCOD9562505 Si02
#       6
#    16  16  16  16  16  16
#     4   9  16  27  44  65  92 126 166 205 245 293
#     4  10  20  32  47  69 101 135 167 205 251 298
#     4  10  20  34  51  73 100 133 171 210 252 302
#     4   9  16  27  45  70  97 127 163 206 252 299
#     4  11  22  39  60  84 110 137 168 205 249 297
#     4  11  22  38  58  79 103 134 171 211 251 296
#
# _framework density 16.527633000000002
#
# number of rings (size 3 to 8) (size 9 to 14) (size 15 to 20)
#    0.000    2.000    0.000    6.000    0.000    6.833 
#    0.000    2.500    0.000    0.500    0.000    3.500 
#    0.000    0.333    0.000    3.333    0.000    2.333 
#
# Total GULP energy -535695.003376 kJ/mol
# GULP energy per Si atom -5580.156285 kJ/mol
# Density = 1.649002 g / cm^3
# Si number density = 16.527633 Si / 1000 Ang^3
#
#
#
# Elastic Constant Matrix: (Units=GPa)
#
#
# Indices 1 2 3 4 5 6 
#
# 1 91.2483 82.7594 61.5404 0.0000 0.0000 0.0000
# 2 82.7594 91.2425 61.5421 0.0000 0.0000 0.0000
# 3 61.5404 61.5421 137.1019 0.0000 0.0000 0.0000
# 4 0.0000 0.0000 0.0000 29.6548 0.0000 0.0000
# 5 0.0000 0.0000 0.0000 0.0000 29.6551 0.0000
# 6 0.0000 0.0000 0.0000 0.0000 0.0000 -8.2817
#
#
#
# Elastic Compliance Matrix: (Units=1/GPa)
#
#
# Indices 1 2 3 4 5 6 
#
# 1 0.063127 -0.054710 -0.003777 0.000000 0.000000 0.000000
# 2 -0.054710 0.063134 -0.003782 0.000000 0.000000 0.000000
# 3 -0.003777 -0.003782 0.010687 0.000000 0.000000 0.000000
# 4 0.000000 0.000000 0.000000 0.033721 0.000000 0.000000
# 5 0.000000 0.000000 0.000000 0.000000 0.033721 0.000000
# 6 0.000000 0.000000 0.000000 0.000000 0.000000 -0.120748
#
#
# Mechanical properties :
#
#
# Convention : Reuss Voigt Hill
#
# Bulk Modulus (GPa) = 80.58525 81.25293 80.91909
# Shear Modulus (GPa) = 23.54947 17.78904 20.66925
#
# Velocity S-wave (km/s) = 3.77882 3.28429 3.54020
# Velocity P-wave (km/s) = 8.24033 7.97814 8.11029
#
# Compressibility (1/GPa) = 0.01240922
#
# Stress axis : x y z
#
# Youngs Moduli (GPa) = 15.84104 15.83922 93.57065
#
# Poissons Ratio (x) = 0.86657 0.35345
# Poissons Ratio (y) = 0.86667 0.35390
# Poissons Ratio (z) = 0.05984 0.05991
#
# Static dielectric constant tensor:
#      x y z
#    x 1.542180 0.000000 0.000000 
#    y 0.000000 1.542180 0.000000 
#    z 0.000000 0.000000 1.553690 
# 
# From -- ./inp_files/1339.got.cif
#   From: 2010.05.17/outbox.cif.g08.bks.cpg/sg124_1_cif.got.tgz:1339.got - 2010.05.20 11:49:17.
