data_PCOD9562428
_publ_section_title
;
Structure prediction by ZEFSAII (Michael W. Deem and Ramdas Pophale) SiO2 
 PCOD9562428
Probable space group: P 4/M C C
;
_chemical_formula_sum "Si O2"
_cell_formula_units_Z 96
_cell_length_a 17.320263
_cell_length_b 17.320263
_cell_length_c 17.963608
_cell_angle_alpha 90.000000
_cell_angle_beta 90.000000
_cell_angle_gamma 90.000000
_cell_volume 5388.929896
_symmetry_space_group_name_H-M "P 4/M C C"
_symmetry_group_IT_number 124
_symmetry_cell_setting 'tetragonal'
loop_
_space_group_symop_operation_xyz
x,y,z
-y,x,z
-x,-y,z
y,-x,z
x,-y,1/2-z
-x,y,1/2-z
y,x,1/2-z
-y,-x,1/2-z
-x,-y,-z
y,-x,-z
x,y,-z
-y,x,-z
-x,y,1/2+z
x,-y,1/2+z
-y,-x,1/2+z
y,x,1/2+z
loop_
_atom_site_type_symbol
_atom_site_label
_atom_site_fract_x
_atom_site_fract_y
_atom_site_fract_z
Si Si1 0.185386 0.556156 0.913117
Si Si2 0.982622 0.202691 0.414926
Si Si3 0.991315 0.385307 0.082507
Si Si4 0.434425 0.874528 0.811357
Si Si5 0.865085 0.159880 0.834137
Si Si6 0.679410 0.214679 0.294839
O O1 0.182721 0.473026 0.872467
O O2 0.229419 0.617311 0.860191
O O3 0.096114 0.585914 0.910225
O O4 0.208231 0.554340 0.000000
O O5 0.982335 0.175911 0.500000
O O6 0.003681 0.293092 0.414227
O O7 0.899359 0.187907 0.379488
O O8 0.050703 0.161955 0.369934
O O9 0.046983 0.415532 0.146240
O O10 0.019770 0.409555 0.000000
O O11 0.500000 0.887228 0.750000
O O12 0.362117 0.839658 0.766701
O O13 0.868932 0.131068 0.750000
O O14 0.828110 0.245581 0.829310
O O15 0.711895 0.288106 0.250000
#
# Coordination Sequence:
#
# PCOD9562428 Si02
#       6
#    16  16  16  16  16  16
#     4  10  20  35  55  79 114 148 180 226 282 340
#     4  11  23  38  57  76 103 144 193 247 297 347
#     4  10  19  33  51  77 109 142 180 225 283 344
#     4  10  21  34  52  81 109 141 182 226 276 339
#     4  11  22  38  55  77 102 139 190 251 300 339
#     4  10  21  37  55  79 112 149 189 229 279 342
#
# _framework density 17.814297
#
# number of rings (size 3 to 8) (size 9 to 14) (size 15 to 20)
#    0.000    1.667    1.667    4.000    0.000    7.000 
#    0.000    3.333    0.000    0.000    0.000    0.000 
#    0.000   27.000    0.000   13.500    0.000    0.000 
#
# Total GULP energy -536102.136445 kJ/mol
# GULP energy per Si atom -5584.397255 kJ/mol
# Density = 1.777375 g / cm^3
# Si number density = 17.814297 Si / 1000 Ang^3
#
#
#
# Elastic Constant Matrix: (Units=GPa)
#
#
# Indices 1 2 3 4 5 6 
#
# 1 39.5866 -4.2470 4.3863 0.0000 0.0000 0.0000
# 2 -4.2470 39.5843 4.3854 0.0000 0.0000 0.0000
# 3 4.3863 4.3854 97.2919 0.0000 0.0000 0.0000
# 4 0.0000 0.0000 0.0000 18.6533 0.0000 0.0000
# 5 0.0000 0.0000 0.0000 0.0000 18.6547 0.0000
# 6 0.0000 0.0000 0.0000 0.0000 0.0000 15.1063
#
#
#
# Elastic Compliance Matrix: (Units=1/GPa)
#
#
# Indices 1 2 3 4 5 6 
#
# 1 0.025715 0.002902 -0.001290 0.000000 0.000000 0.000000
# 2 0.002902 0.025717 -0.001290 0.000000 0.000000 0.000000
# 3 -0.001290 -0.001290 0.010395 0.000000 0.000000 0.000000
# 4 0.000000 0.000000 0.000000 0.053610 0.000000 0.000000
# 5 0.000000 0.000000 0.000000 0.000000 0.053606 0.000000
# 6 0.000000 0.000000 0.000000 0.000000 0.000000 0.066197
#
#
# Mechanical properties :
#
#
# Convention : Reuss Voigt Hill
#
# Bulk Modulus (GPa) = 16.00757 20.61245 18.31001
# Shear Modulus (GPa) = 19.57561 21.94540 20.76051
#
# Velocity S-wave (km/s) = 3.31852 3.51365 3.41748
# Velocity P-wave (km/s) = 4.86711 5.29687 5.08653
#
# Compressibility (1/GPa) = 0.06247043
#
# Stress axis : x y z
#
# Youngs Moduli (GPa) = 38.88726 38.88503 96.20323
#
# Poissons Ratio (x) = -0.11284 0.12412
# Poissons Ratio (y) = -0.11285 0.12410
# Poissons Ratio (z) = 0.05017 0.05016
#
# Static dielectric constant tensor:
#      x y z
#    x 1.608570 0.000000 0.000000 
#    y 0.000000 1.608570 0.000000 
#    z 0.000000 0.000000 1.644330 
# 
# From -- ./inp_files/4247.got.cif
#   From: 2010.05.17/outbox.cif.g08.bks.cpg/sg124_3_cif.got.tgz:4247.got - 2010.05.20 11:49:17.
