data_PCOD9562244
_publ_section_title
;
Structure prediction by ZEFSAII (Michael W. Deem and Ramdas Pophale) SiO2 
 PCOD9562244
Probable space group: P 4/M M M
;
_chemical_formula_sum "Si O2"
_cell_formula_units_Z 48
_cell_length_a 17.760088
_cell_length_b 17.760088
_cell_length_c 7.688045
_cell_angle_alpha 90.000000
_cell_angle_beta 90.000000
_cell_angle_gamma 90.000000
_cell_volume 2424.968734
_symmetry_space_group_name_H-M "P 4/M M M"
_symmetry_group_IT_number 123
_symmetry_cell_setting 'tetragonal'
loop_
_space_group_symop_operation_xyz
x,y,z
-y,x,z
-x,-y,z
y,-x,z
x,-y,-z
-x,y,-z
y,x,-z
-y,-x,-z
-x,-y,-z
y,-x,-z
x,y,-z
-y,x,-z
-x,y,z
x,-y,z
-y,-x,z
y,x,z
loop_
_atom_site_type_symbol
_atom_site_label
_atom_site_fract_x
_atom_site_fract_y
_atom_site_fract_z
Si Si1 0.915599 0.204665 0.212476
Si Si2 0.377639 0.500000 0.712686
Si Si3 0.206425 0.500000 0.295706
Si Si4 0.623461 0.083835 0.790925
O O1 0.852159 0.147842 0.274522
O O2 0.904213 0.290820 0.268816
O O3 0.000000 0.181359 0.262858
O O4 0.913561 0.204894 0.000000
O O5 0.426615 0.426615 0.764839
O O6 0.377013 0.500000 0.500000
O O7 0.291440 0.500000 0.778311
O O8 0.217340 0.500000 0.500000
O O9 0.153607 0.570933 0.252912
O O10 0.598336 0.000000 0.729431
O O11 0.624394 0.079709 0.000000
#
# Coordination Sequence:
#
# PCOD9562244 Si02
#       4
#    16   8   8  16
#     4   8  14  25  42  65  92 122 156 191 225 263
#     4   8  16  33  52  67  89 120 147 176 224 283
#     4  11  21  30  48  76  93 108 148 197 229 261
#     4   9  18  32  47  64  93 131 159 179 218 277
#
# _framework density 19.794069
#
# number of rings (size 3 to 8) (size 9 to 14) (size 15 to 20)
#    0.000    3.167    0.000    3.500    0.000    4.333 
#    0.000    1.667    0.000    3.000    0.000    4.667 
#    0.000    0.000    0.000    7.333    0.000    7.333 
#
# Total GULP energy -267529.603267 kJ/mol
# GULP energy per Si atom -5573.533401 kJ/mol
# Density = 1.974902 g / cm^3
# Si number density = 19.794069 Si / 1000 Ang^3
#
#
#
# Elastic Constant Matrix: (Units=GPa)
#
#
# Indices 1 2 3 4 5 6 
#
# 1 182.8173 131.2542 8.4290 0.0000 0.0000 0.0000
# 2 131.2542 182.8173 8.4290 0.0000 0.0000 0.0000
# 3 8.4290 8.4290 31.0964 0.0000 0.0000 0.0000
# 4 0.0000 0.0000 0.0000 -19.8072 0.0000 0.0000
# 5 0.0000 0.0000 0.0000 0.0000 -19.8072 0.0000
# 6 0.0000 0.0000 0.0000 0.0000 0.0000 66.3693
#
#
#
# Elastic Compliance Matrix: (Units=1/GPa)
#
#
# Indices 1 2 3 4 5 6 
#
# 1 0.011312 -0.008081 -0.000876 0.000000 0.000000 0.000000
# 2 -0.008081 0.011312 -0.000876 0.000000 0.000000 0.000000
# 3 -0.000876 -0.000876 0.032633 0.000000 0.000000 0.000000
# 4 0.000000 0.000000 0.000000 -0.050487 0.000000 0.000000
# 5 0.000000 0.000000 0.000000 0.000000 -0.050487 0.000000
# 6 0.000000 0.000000 0.000000 0.000000 0.000000 0.015067
#
#
# Mechanical properties :
#
#
# Convention : Reuss Voigt Hill
#
# Bulk Modulus (GPa) = 28.09647 76.99508 52.54577
# Shear Modulus (GPa) = 5672.58526 21.92554 2847.25540
#
# Velocity S-wave (km/s) = 53.59125 3.33180 37.96790
# Velocity P-wave (km/s) = 61.99668 7.33373 44.14392
#
# Compressibility (1/GPa) = 0.03559166
#
# Stress axis : x y z
#
# Youngs Moduli (GPa) = 88.39893 88.39893 30.64395
#
# Poissons Ratio (x) = 0.71438 0.02684
# Poissons Ratio (y) = 0.71438 0.02684
# Poissons Ratio (z) = 0.07742 0.07742
#
# Static dielectric constant tensor:
#      x y z
#    x 1.702300 0.000000 0.000000 
#    y 0.000000 1.702300 0.000000 
#    z 0.000000 0.000000 1.752520 
# 
# From -- ./inp_files/430.got.cif
#   From: 2010.05.17/outbox.cif.g08.bks.cpg/sg123_1_cif.got.tgz:430.got - 2010.05.20 11:43:04.
