data_PCOD9562904
_publ_section_title
;
Structure prediction by ZEFSAII (Michael W. Deem and Ramdas Pophale) SiO2 
 PCOD9562904
Probable space group: P 4/N B M
;
_chemical_formula_sum "Si O2"
_cell_formula_units_Z 42
_cell_length_a 15.616512
_cell_length_b 15.616512
_cell_length_c 8.115915
_cell_angle_alpha 90.000000
_cell_angle_beta 90.000000
_cell_angle_gamma 90.000000
_cell_volume 1979.272399
_symmetry_space_group_name_H-M "P 4/N B M"
_symmetry_group_IT_number 125
_space_group.IT_coordinate_system_code '2'
_symmetry_cell_setting 'tetragonal'
loop_
_space_group_symop_operation_xyz
x,y,z
1/2-y,x,z
1/2-x,1/2-y,z
y,1/2-x,z
x,1/2-y,-z
1/2-x,y,-z
y,x,-z
1/2-y,1/2-x,-z
-x,-y,-z
1/2+y,-x,-z
1/2+x,1/2+y,-z
-y,1/2+x,-z
-x,1/2+y,z
1/2+x,-y,z
-y,-x,z
1/2+y,1/2+x,z
loop_
_atom_site_type_symbol
_atom_site_label
_atom_site_fract_x
_atom_site_fract_y
_atom_site_fract_z
Si Si1 0.267387 0.998576 0.805473
Si Si2 0.250000 0.750000 0.000000
Si Si3 0.939119 0.917974 0.696348
Si Si4 0.679091 0.320910 0.706214
O O1 0.350710 0.057994 0.786797
O O2 0.178392 0.034741 0.738282
O O3 0.292417 0.917503 0.686341
O O4 0.250000 0.982003 0.000000
O O5 0.311490 0.688511 0.097694
O O6 0.926450 0.926450 0.500000
O O7 0.014149 0.985852 0.744014
O O8 0.750000 0.250000 0.657138
#
# Coordination Sequence:
#
# PCOD9562904 Si02
#       4
#    16   2  16   8
#     4  12  23  41  70 101 134 177 235 286 341 398
#     4   8  16  32  52  96 134 168 196 276 358 396
#     4  11  26  45  67  97 144 189 226 274 343 420
#     4  10  18  34  61  99 136 164 213 285 351 389
#
# _framework density 21.219916999999999
#
# number of rings (size 3 to 8) (size 9 to 14) (size 15 to 20)
#    0.571    0.381    3.810    3.429    2.667    2.286 
#    0.000    3.810    0.000    0.000    0.000    0.000 
#    0.000    0.000    0.000    0.000    0.000    0.000 
#
# Total GULP energy -234052.500903 kJ/mol
# GULP energy per Si atom -5572.678593 kJ/mol
# Density = 2.117162 g / cm^3
# Si number density = 21.219917 Si / 1000 Ang^3
#
#
#
# Elastic Constant Matrix: (Units=GPa)
#
#
# Indices 1 2 3 4 5 6 
#
# 1 197.0322 112.0929 36.0997 0.0000 0.0000 0.0000
# 2 112.0929 197.0322 36.0997 0.0000 0.0000 0.0000
# 3 36.0997 36.0997 66.9797 0.0000 0.0000 0.0000
# 4 0.0000 0.0000 0.0000 -52.5185 0.0000 0.0000
# 5 0.0000 0.0000 0.0000 0.0000 -52.5185 0.0000
# 6 0.0000 0.0000 0.0000 0.0000 0.0000 39.9442
#
#
#
# Elastic Compliance Matrix: (Units=1/GPa)
#
#
# Indices 1 2 3 4 5 6 
#
# 1 0.007737 -0.004036 -0.001995 0.000000 0.000000 0.000000
# 2 -0.004036 0.007737 -0.001995 0.000000 0.000000 0.000000
# 3 -0.001995 -0.001995 0.017080 0.000000 0.000000 0.000000
# 4 0.000000 0.000000 0.000000 -0.019041 0.000000 0.000000
# 5 0.000000 0.000000 0.000000 0.000000 -0.019041 0.000000
# 6 0.000000 0.000000 0.000000 0.000000 0.000000 0.025035
#
#
# Mechanical properties :
#
#
# Convention : Reuss Voigt Hill
#
# Bulk Modulus (GPa) = 60.59458 92.18096 76.38777
# Shear Modulus (GPa) = 121.77692 5.43157 63.60424
#
# Velocity S-wave (km/s) = 7.58371 1.60163 5.48078
# Velocity P-wave (km/s) = 10.26163 6.85240 8.72515
#
# Compressibility (1/GPa) = 0.01650313
#
# Stress axis : x y z
#
# Youngs Moduli (GPa) = 129.24986 129.24986 58.54826
#
# Poissons Ratio (x) = 0.52167 0.11678
# Poissons Ratio (y) = 0.52167 0.11678
# Poissons Ratio (z) = 0.25780 0.25780
#
# Static dielectric constant tensor:
#      x y z
#    x 1.814820 0.000000 0.000000 
#    y 0.000000 1.814820 0.000000 
#    z 0.000000 0.000000 1.917890 
# 
# From -- ./inp_files/1692.got.cif
#   From: 2010.05.17/outbox.cif.g08.bks.cpg/sg125_1_cif.got.tgz:1692.got - 2010.05.20 11:54:10.
