data_PCOD9562723
_publ_section_title
;
Structure prediction by ZEFSAII (Michael W. Deem and Ramdas Pophale) SiO2 
 PCOD9562723
Probable space group: P 4/M C C
;
_chemical_formula_sum "Si O2"
_cell_formula_units_Z 92
_cell_length_a 15.382938
_cell_length_b 15.382938
_cell_length_c 20.006008
_cell_angle_alpha 90.000000
_cell_angle_beta 90.000000
_cell_angle_gamma 90.000000
_cell_volume 4734.117332
_symmetry_space_group_name_H-M "P 4/M C C"
_symmetry_group_IT_number 124
_symmetry_cell_setting 'tetragonal'
loop_
_space_group_symop_operation_xyz
x,y,z
-y,x,z
-x,-y,z
y,-x,z
x,-y,1/2-z
-x,y,1/2-z
y,x,1/2-z
-y,-x,1/2-z
-x,-y,-z
y,-x,-z
x,y,-z
-y,x,-z
-x,y,1/2+z
x,-y,1/2+z
-y,-x,1/2+z
y,x,1/2+z
loop_
_atom_site_type_symbol
_atom_site_label
_atom_site_fract_x
_atom_site_fract_y
_atom_site_fract_z
Si Si1 0.569299 0.810838 0.689533
Si Si2 0.045067 0.264476 0.000000
Si Si3 0.207484 0.861443 0.500000
Si Si4 0.597301 0.987809 0.617151
Si Si5 0.254441 0.745560 0.750000
Si Si6 0.681199 0.168830 0.630714
Si Si7 0.500000 0.500000 0.907055
Si Si8 0.466087 0.291134 0.919715
O O1 0.500000 0.806604 0.750000
O O2 0.652750 0.760091 0.716261
O O3 0.537952 0.762959 0.621740
O O4 0.590735 0.910515 0.670872
O O5 0.038086 0.329776 0.063098
O O6 0.129780 0.205951 0.000000
O O7 0.965163 0.196191 0.000000
O O8 0.265486 0.845024 0.564354
O O9 0.623916 0.082988 0.644106
O O10 0.500000 0.000000 0.587816
O O11 0.253727 0.815133 0.691360
O O12 0.620489 0.251844 0.614834
O O13 0.477340 0.394239 0.909904
O O14 0.466775 0.273724 0.000000
#
# Coordination Sequence:
#
# PCOD9562723 Si02
#       8
#    16   8   8  16   8  16   4  16
#     4  12  26  43  66  95 135 179 230 286 350 401
#     4  10  23  37  70  96 136 170 216 277 343 412
#     4  10  22  45  64 103 126 176 216 278 348 414
#     4  11  22  41  66 102 130 169 227 288 352 411
#     4  12  24  42  58  93 132 179 220 262 342 412
#     4  11  23  42  68  93 139 171 228 287 344 408
#     4  12  29  44  65  94 133 188 257 262 329 384
#     4  12  24  45  65  92 129 185 227 301 320 392
#
# _framework density 19.433402000000001
#
# number of rings (size 3 to 8) (size 9 to 14) (size 15 to 20)
#    0.000    0.696    4.348    3.130    1.217    2.609 
#    1.565    0.435    0.000    0.000    0.000    0.000 
#    0.000    2.783    0.000    0.000    0.000    0.000 
#
# Total GULP energy -512553.314851 kJ/mol
# GULP energy per Si atom -5571.231683 kJ/mol
# Density = 1.938917 g / cm^3
# Si number density = 19.433402 Si / 1000 Ang^3
#
#
#
# Elastic Constant Matrix: (Units=GPa)
#
#
# Indices 1 2 3 4 5 6 
#
# 1 122.4616 58.3919 35.3448 0.0000 0.0000 0.0000
# 2 58.3919 122.4604 35.3449 0.0000 0.0000 0.0000
# 3 35.3448 35.3449 94.6415 0.0000 0.0000 0.0000
# 4 0.0000 0.0000 0.0000 17.4616 0.0000 0.0000
# 5 0.0000 0.0000 0.0000 0.0000 17.4618 0.0000
# 6 0.0000 0.0000 0.0000 0.0000 0.0000 42.6246
#
#
#
# Elastic Compliance Matrix: (Units=1/GPa)
#
#
# Indices 1 2 3 4 5 6 
#
# 1 0.011041 -0.004567 -0.002418 0.000000 0.000000 0.000000
# 2 -0.004567 0.011041 -0.002418 0.000000 0.000000 0.000000
# 3 -0.002418 -0.002418 0.012372 0.000000 0.000000 0.000000
# 4 0.000000 0.000000 0.000000 0.057268 0.000000 0.000000
# 5 0.000000 0.000000 0.000000 0.000000 0.057268 0.000000
# 6 0.000000 0.000000 0.000000 0.000000 0.000000 0.023461
#
#
# Mechanical properties :
#
#
# Convention : Reuss Voigt Hill
#
# Bulk Modulus (GPa) = 63.90058 66.41407 65.15732
# Shear Modulus (GPa) = 25.44871 29.54174 27.49522
#
# Velocity S-wave (km/s) = 3.62267 3.90314 3.76552
# Velocity P-wave (km/s) = 7.10293 7.38662 7.24616
#
# Compressibility (1/GPa) = 0.01564931
#
# Stress axis : x y z
#
# Youngs Moduli (GPa) = 90.56954 90.56850 80.82637
#
# Poissons Ratio (x) = 0.41361 0.19543
# Poissons Ratio (y) = 0.41362 0.19544
# Poissons Ratio (z) = 0.21899 0.21899
#
# Static dielectric constant tensor:
#      x y z
#    x 1.670600 0.000000 0.000000 
#    y 0.000000 1.670600 0.000000 
#    z 0.000000 0.000000 1.693760 
# 
# From -- ./inp_files/5411.got.cif
#   From: 2010.05.17/outbox.cif.g08.bks.cpg/sg124_3_cif.got.tgz:5411.got - 2010.05.20 11:49:17.
