data_PCOD9562867
_publ_section_title
;
Structure prediction by ZEFSAII (Michael W. Deem and Ramdas Pophale) SiO2 
 PCOD9562867
Probable space group: P 4/M C C
;
_chemical_formula_sum "Si O2"
_cell_formula_units_Z 116
_cell_length_a 18.000000
_cell_length_b 18.000000
_cell_length_c 18.000000
_cell_angle_alpha 90.000000
_cell_angle_beta 90.000000
_cell_angle_gamma 90.000000
_cell_volume 5832.000000
_symmetry_space_group_name_H-M "P 4/M C C"
_symmetry_group_IT_number 124
_symmetry_cell_setting 'tetragonal'
loop_
_space_group_symop_operation_xyz
x,y,z
-y,x,z
-x,-y,z
y,-x,z
x,-y,1/2-z
-x,y,1/2-z
y,x,1/2-z
-y,-x,1/2-z
-x,-y,-z
y,-x,-z
x,y,-z
-y,x,-z
-x,y,1/2+z
x,-y,1/2+z
-y,-x,1/2+z
y,x,1/2+z
loop_
_atom_site_type_symbol
_atom_site_label
_atom_site_fract_x
_atom_site_fract_y
_atom_site_fract_z
Si Si1 0.754555 0.286396 0.836473
Si Si2 0.007373 0.796584 0.587888
Si Si3 0.179158 0.535769 0.667917
Si Si4 0.500000 0.500000 0.631178
Si Si5 0.605559 0.871417 0.088315
Si Si6 0.350148 0.599101 0.667426
Si Si7 0.377141 0.954185 0.088159
Si Si8 0.853691 0.846683 0.339981
O O1 0.731290 0.268711 0.750000
O O2 0.826413 0.337219 0.857730
O O3 0.681190 0.329715 0.866781
O O4 0.783667 0.205824 0.863617
O O5 0.997317 0.811635 0.500000
O O6 0.034868 0.711486 0.595296
O O7 0.072625 0.845495 0.623570
O O8 0.929969 0.810167 0.630516
O O9 0.163970 0.500000 0.750000
O O10 0.169165 0.471434 0.606763
O O11 0.266134 0.563042 0.669981
O O12 0.113343 0.593368 0.641145
O O13 0.416883 0.546513 0.634278
O O14 0.595456 0.960299 0.104577
O O15 0.626181 0.865937 0.000000
O O16 0.382280 0.617720 0.750000
O O17 0.394624 0.938907 0.000000
O O18 0.852492 0.852492 0.250000
#
# Coordination Sequence:
#
# PCOD9562867 Si02
#       8
#    16  16  16   4  16  16  16  16
#     4  10  21  40  66  98 135 181 231 289 348 416
#     4  11  23  42  67  94 129 178 227 277 333 417
#     4  12  24  41  64 101 137 178 235 296 357 424
#     4  12  21  36  64  96 129 182 225 272 341 402
#     4  11  23  42  68  98 139 185 230 287 359 429
#     4  11  22  39  64  95 137 177 228 289 348 415
#     4  10  23  44  67  97 138 181 226 281 352 429
#     4  11  23  41  64  97 133 175 222 284 351 404
#
# _framework density 19.890260999999999
#
# number of rings (size 3 to 8) (size 9 to 14) (size 15 to 20)
#    0.000    1.103    1.379    6.414    0.000    4.138 
#    2.483    2.759    0.000    0.000    0.000    4.345 
#    0.000    0.000    0.000    0.000    0.000    0.000 
#
# Total GULP energy -645784.930564 kJ/mol
# GULP energy per Si atom -5567.111470 kJ/mol
# Density = 1.984499 g / cm^3
# Si number density = 19.890261 Si / 1000 Ang^3
#
#
#
# Elastic Constant Matrix: (Units=GPa)
#
#
# Indices 1 2 3 4 5 6 
#
# 1 148.2899 60.0529 38.0888 0.0000 0.0000 0.0000
# 2 60.0529 148.2900 38.0887 0.0000 0.0000 0.0000
# 3 38.0888 38.0887 78.5028 0.0000 0.0000 0.0000
# 4 0.0000 0.0000 0.0000 33.2033 0.0000 0.0000
# 5 0.0000 0.0000 0.0000 0.0000 33.2033 0.0000
# 6 0.0000 0.0000 0.0000 0.0000 0.0000 53.8209
#
#
#
# Elastic Compliance Matrix: (Units=1/GPa)
#
#
# Indices 1 2 3 4 5 6 
#
# 1 0.008584 -0.002749 -0.002831 0.000000 0.000000 0.000000
# 2 -0.002749 0.008584 -0.002831 0.000000 0.000000 0.000000
# 3 -0.002831 -0.002831 0.015486 0.000000 0.000000 0.000000
# 4 0.000000 0.000000 0.000000 0.030117 0.000000 0.000000
# 5 0.000000 0.000000 0.000000 0.000000 0.030118 0.000000
# 6 0.000000 0.000000 0.000000 0.000000 0.000000 0.018580
#
#
# Mechanical properties :
#
#
# Convention : Reuss Voigt Hill
#
# Bulk Modulus (GPa) = 63.16624 71.94930 67.55777
# Shear Modulus (GPa) = 37.43406 39.96897 38.70151
#
# Velocity S-wave (km/s) = 4.34294 4.48758 4.41585
# Velocity P-wave (km/s) = 7.54815 7.94373 7.74846
#
# Compressibility (1/GPa) = 0.01583124
#
# Stress axis : x y z
#
# Youngs Moduli (GPa) = 116.49561 116.49577 64.57618
#
# Poissons Ratio (x) = 0.32026 0.18282
# Poissons Ratio (y) = 0.32026 0.18282
# Poissons Ratio (z) = 0.32980 0.32980
#
# Static dielectric constant tensor:
#      x y z
#    x 1.750650 0.000000 0.000000 
#    y 0.000000 1.750650 0.000000 
#    z 0.000000 0.000000 1.700400 
# 
# From -- ./inp_files/4433.got.cif
#   From: 2010.05.17/outbox.ucp.g08.bks.cvg/sg124_3_cif.got.tgz:4433.got - 2010.06.11 11:36:13.
