data_PCOD9562090
_publ_section_title
;
Structure prediction by ZEFSAII (Michael W. Deem and Ramdas Pophale) SiO2 
 PCOD9562090
Probable space group: P 4/M M M
;
_chemical_formula_sum "Si O2"
_cell_formula_units_Z 120
_cell_length_a 28.316797
_cell_length_b 28.316797
_cell_length_c 8.790434
_cell_angle_alpha 90.000000
_cell_angle_beta 90.000000
_cell_angle_gamma 90.000000
_cell_volume 7048.530322
_symmetry_space_group_name_H-M "P 4/M M M"
_symmetry_group_IT_number 123
_symmetry_cell_setting 'tetragonal'
loop_
_space_group_symop_operation_xyz
x,y,z
-y,x,z
-x,-y,z
y,-x,z
x,-y,-z
-x,y,-z
y,x,-z
-y,-x,-z
-x,-y,-z
y,-x,-z
x,y,-z
-y,x,-z
-x,y,z
x,-y,z
-y,-x,z
y,x,z
loop_
_atom_site_type_symbol
_atom_site_label
_atom_site_fract_x
_atom_site_fract_y
_atom_site_fract_z
Si Si1 0.829202 0.555090 0.818477
Si Si2 0.800887 0.874980 0.319569
Si Si3 0.085698 0.387521 0.682035
Si Si4 0.000000 0.556132 0.178167
Si Si5 0.368892 0.554683 0.816628
Si Si6 0.281419 0.944917 0.685466
Si Si7 0.054215 0.872607 0.177487
Si Si8 0.729727 0.557175 0.326579
O O1 0.837828 0.500000 0.769120
O O2 0.865841 0.591625 0.746944
O O3 0.776349 0.568673 0.768290
O O4 0.833412 0.555810 0.000000
O O5 0.794354 0.868313 0.500000
O O6 0.825708 0.825708 0.261295
O O7 0.754080 0.902896 0.261904
O O8 0.840268 0.914231 0.284112
O O9 0.087526 0.388154 0.500000
O O10 0.045432 0.422205 0.742144
O O11 0.070495 0.334509 0.728392
O O12 0.000000 0.500000 0.190506
O O13 0.000000 0.568729 0.000000
O O14 0.376555 0.500000 0.771589
O O15 0.411894 0.588107 0.770188
O O16 0.319538 0.572225 0.747384
O O17 0.365242 0.555630 0.000000
O O18 0.278785 0.945950 0.500000
O O19 0.271686 0.000000 0.734396
O O20 0.074766 0.925235 0.187775
O O21 0.000000 0.869313 0.217016
O O22 0.060532 0.857780 0.000000
O O23 0.734107 0.573752 0.500000
O O24 0.727846 0.500000 0.328413
#
# Coordination Sequence:
#
# PCOD9562090 Si02
#       8
#    16  16  16   8  16  16  16  16
#     4  10  20  34  52  74 101 131 163 206 259 307
#     4   9  17  30  51  74  92 117 155 197 242 288
#     4  11  21  34  52  74 100 135 174 206 245 300
#     4  11  23  37  51  71 105 141 169 205 250 295
#     4   9  17  29  46  70 102 140 179 220 270 328
#     4   9  17  31  50  72 100 131 163 204 250 295
#     4   9  17  28  41  60  88 118 149 185 224 270
#     4   9  17  30  49  72  96 125 167 216 259 302
#
# _framework density 17.024826000000001
#
# number of rings (size 3 to 8) (size 9 to 14) (size 15 to 20)
#    0.000    2.467    0.667    2.200    0.000    5.867 
#    0.000    2.667    0.000    0.800    0.000    5.600 
#    0.000    0.000    0.000    0.000    0.000    0.000 
#
# Total GULP energy -668147.712083 kJ/mol
# GULP energy per Si atom -5567.897601 kJ/mol
# Density = 1.698608 g / cm^3
# Si number density = 17.024826 Si / 1000 Ang^3
#
#
#
# Elastic Constant Matrix: (Units=GPa)
#
#
# Indices 1 2 3 4 5 6 
#
# 1 94.8097 45.9905 24.1289 0.0000 0.0000 0.0000
# 2 45.9905 94.8097 24.1289 0.0000 0.0000 0.0000
# 3 24.1289 24.1289 23.2877 0.0000 0.0000 0.0000
# 4 0.0000 0.0000 0.0000 56.8525 0.0000 0.0000
# 5 0.0000 0.0000 0.0000 0.0000 56.8525 0.0000
# 6 0.0000 0.0000 0.0000 0.0000 0.0000 -90.8274
#
#
#
# Elastic Compliance Matrix: (Units=1/GPa)
#
#
# Indices 1 2 3 4 5 6 
#
# 1 0.015749 -0.004735 -0.011411 0.000000 0.000000 0.000000
# 2 -0.004735 0.015749 -0.011411 0.000000 0.000000 0.000000
# 3 -0.011411 -0.011411 0.066588 0.000000 0.000000 0.000000
# 4 0.000000 0.000000 0.000000 0.017589 0.000000 0.000000
# 5 0.000000 0.000000 0.000000 0.000000 0.017589 0.000000
# 6 0.000000 0.000000 0.000000 0.000000 0.000000 -0.011010
#
#
# Mechanical properties :
#
#
# Convention : Reuss Voigt Hill
#
# Bulk Modulus (GPa) = 23.27216 44.60041 33.93629
# Shear Modulus (GPa) = 26.08357 12.48610 19.28483
#
# Velocity S-wave (km/s) = 3.91844 2.71108 3.36928
# Velocity P-wave (km/s) = 5.84563 6.00451 5.92560
#
# Compressibility (1/GPa) = 0.04296980
#
# Stress axis : x y z
#
# Youngs Moduli (GPa) = 63.49803 63.49803 15.01782
#
# Poissons Ratio (x) = 0.30068 0.17137
# Poissons Ratio (y) = 0.30068 0.17137
# Poissons Ratio (z) = 0.72458 0.72458
#
# Static dielectric constant tensor:
#      x y z
#    x 1.579350 0.000000 0.000000 
#    y 0.000000 1.579350 0.000000 
#    z 0.000000 0.000000 1.581040 
# 
# From -- ./inp_files/2053.got.cif
#   From: 2010.05.17/outbox.cif.g08.bks.cpg/sg123_2_cif.got.tgz:2053.got - 2010.05.20 11:43:04.
