data_PCOD9562056
_publ_section_title
;
Structure prediction by ZEFSAII (Michael W. Deem and Ramdas Pophale) SiO2 
 PCOD9562056
Probable space group: P 4/M M M
;
_chemical_formula_sum "Si O2"
_cell_formula_units_Z 88
_cell_length_a 13.450632
_cell_length_b 13.450632
_cell_length_c 28.678843
_cell_angle_alpha 90.000000
_cell_angle_beta 90.000000
_cell_angle_gamma 90.000000
_cell_volume 5188.561971
_symmetry_space_group_name_H-M "P 4/M M M"
_symmetry_group_IT_number 123
_symmetry_cell_setting 'tetragonal'
loop_
_space_group_symop_operation_xyz
x,y,z
-y,x,z
-x,-y,z
y,-x,z
x,-y,-z
-x,y,-z
y,x,-z
-y,-x,-z
-x,-y,-z
y,-x,-z
x,y,-z
-y,x,-z
-x,y,z
x,-y,z
-y,-x,z
y,x,z
loop_
_atom_site_type_symbol
_atom_site_label
_atom_site_fract_x
_atom_site_fract_y
_atom_site_fract_z
Si Si1 0.280413 0.116628 0.445789
Si Si2 0.382522 0.782707 0.184508
Si Si3 0.118797 0.719563 0.096625
Si Si4 0.781432 0.616495 0.638504
Si Si5 0.386662 0.120406 0.000000
Si Si6 0.717884 0.117491 0.726536
O O1 0.309976 0.128578 0.500000
O O2 0.178362 0.178362 0.439114
O O3 0.358145 0.164079 0.410056
O O4 0.266938 0.000000 0.436565
O O5 0.500000 0.767038 0.186085
O O6 0.319642 0.680359 0.184691
O O7 0.350250 0.842633 0.138290
O O8 0.345175 0.845185 0.229083
O O9 0.176194 0.823807 0.101485
O O10 0.147683 0.670650 0.047134
O O11 0.000000 0.730411 0.098618
O O12 0.765359 0.500000 0.644078
O O13 0.679565 0.679565 0.639824
O O14 0.849295 0.659500 0.680114
O O15 0.500000 0.157726 0.000000
O O16 0.391067 0.000000 0.000000
O O17 0.820822 0.179179 0.727231
O O18 0.732805 0.000000 0.727861
#
# Coordination Sequence:
#
# PCOD9562056 Si02
#       6
#    16  16  16  16   8  16
#     4   9  18  32  50  74 103 133 166 204 246 295
#     4  10  21  36  54  77 103 132 169 211 254 301
#     4  10  20  33  50  74 103 135 172 211 252 302
#     4  10  21  36  53  74 100 130 167 210 253 298
#     4   9  17  30  49  71  95 127 167 209 252 295
#     4  10  21  36  54  78 106 135 168 204 244 294
#
# _framework density 16.960383
#
# number of rings (size 3 to 8) (size 9 to 14) (size 15 to 20)
#    0.000    2.273    0.000    2.455    0.000    5.636 
#    0.000    1.818    0.000   11.455    0.000    2.545 
#    0.000    6.545    0.000    0.000    0.000    0.000 
#
# Total GULP energy -491043.062289 kJ/mol
# GULP energy per Si atom -5580.034799 kJ/mol
# Density = 1.692178 g / cm^3
# Si number density = 16.960383 Si / 1000 Ang^3
#
#
#
# Elastic Constant Matrix: (Units=GPa)
#
#
# Indices 1 2 3 4 5 6 
#
# 1 127.9320 84.1712 59.5843 0.0000 0.0000 0.0000
# 2 84.1712 127.9320 59.5843 0.0000 0.0000 0.0000
# 3 59.5843 59.5843 105.3318 0.0000 0.0000 0.0000
# 4 0.0000 0.0000 0.0000 16.3262 0.0000 0.0000
# 5 0.0000 0.0000 0.0000 0.0000 16.3262 0.0000
# 6 0.0000 0.0000 0.0000 0.0000 0.0000 3.9460
#
#
#
# Elastic Compliance Matrix: (Units=1/GPa)
#
#
# Indices 1 2 3 4 5 6 
#
# 1 0.014881 -0.007970 -0.003910 0.000000 0.000000 0.000000
# 2 -0.007970 0.014881 -0.003910 0.000000 0.000000 0.000000
# 3 -0.003910 -0.003910 0.013917 0.000000 0.000000 0.000000
# 4 0.000000 0.000000 0.000000 0.061251 0.000000 0.000000
# 5 0.000000 0.000000 0.000000 0.000000 0.061251 0.000000
# 6 0.000000 0.000000 0.000000 0.000000 0.000000 0.253422
#
#
# Mechanical properties :
#
#
# Convention : Reuss Voigt Hill
#
# Bulk Modulus (GPa) = 82.63657 85.31948 83.97803
# Shear Modulus (GPa) = 10.98377 17.84340 14.41358
#
# Velocity S-wave (km/s) = 2.54759 3.24707 2.91836
# Velocity P-wave (km/s) = 7.58173 8.02947 7.80881
#
# Compressibility (1/GPa) = 0.01210118
#
# Stress axis : x y z
#
# Youngs Moduli (GPa) = 67.19808 67.19808 71.85479
#
# Poissons Ratio (x) = 0.53558 0.28092
# Poissons Ratio (y) = 0.53558 0.28092
# Poissons Ratio (z) = 0.26272 0.26272
#
# Static dielectric constant tensor:
#      x y z
#    x 1.545240 0.000000 0.000000 
#    y 0.000000 1.545240 0.000000 
#    z 0.000000 0.000000 1.580340 
# 
# From -- ./inp_files/8522.got.cif
#   From: 2010.05.17/outbox.cif.g08.bks.cpg/sg123_5_cif.got.tgz:8522.got - 2010.05.20 11:43:04.
