data_PCOD9562456
_publ_section_title
;
Structure prediction by ZEFSAII (Michael W. Deem and Ramdas Pophale) SiO2 
 PCOD9562456
Probable space group: P 4/M C C
;
_chemical_formula_sum "Si O2"
_cell_formula_units_Z 72
_cell_length_a 15.075927
_cell_length_b 15.075927
_cell_length_c 16.393608
_cell_angle_alpha 90.000000
_cell_angle_beta 90.000000
_cell_angle_gamma 90.000000
_cell_volume 3725.997832
_symmetry_space_group_name_H-M "P 4/M C C"
_symmetry_group_IT_number 124
_symmetry_cell_setting 'tetragonal'
loop_
_space_group_symop_operation_xyz
x,y,z
-y,x,z
-x,-y,z
y,-x,z
x,-y,1/2-z
-x,y,1/2-z
y,x,1/2-z
-y,-x,1/2-z
-x,-y,-z
y,-x,-z
x,y,-z
-y,x,-z
-x,y,1/2+z
x,-y,1/2+z
-y,-x,1/2+z
y,x,1/2+z
loop_
_atom_site_type_symbol
_atom_site_label
_atom_site_fract_x
_atom_site_fract_y
_atom_site_fract_z
Si Si1 0.713886 0.713886 0.750000
Si Si2 0.225679 0.137911 0.369661
Si Si3 0.882650 0.090706 0.500000
Si Si4 0.583673 0.845613 0.191167
Si Si5 0.063307 0.639723 0.500000
Si Si6 0.563853 0.123594 0.500000
Si Si7 0.000000 0.719460 0.750000
O O1 0.743896 0.774238 0.674499
O O2 0.618399 0.750842 0.774378
O O3 0.138297 0.156649 0.421330
O O4 0.306640 0.103136 0.424799
O O5 0.216836 0.057944 0.306834
O O6 0.986003 0.120701 0.500000
O O7 0.500000 0.869068 0.250000
O O8 0.572008 0.836814 0.092669
O O9 0.655083 0.925431 0.208376
O O10 0.091670 0.538053 0.500000
O O11 0.957296 0.634331 0.500000
#
# Coordination Sequence:
#
# PCOD9562456 Si02
#       7
#     8  16   8  16   8   8   8
#     4  10  24  38  56  88 112 158 192 244 308 354
#     4  10  21  36  55  74 113 146 193 244 291 356
#     4  10  24  38  50  70 103 156 208 261 285 327
#     4  11  23  38  60  89 124 154 198 247 301 368
#     4  10  20  33  52  94 114 144 192 240 294 372
#     4  11  20  33  60  88 121 158 188 236 320 372
#     4  10  19  34  56  85 110 146 182 247 302 356
#
# _framework density 19.323681000000001
#
# number of rings (size 3 to 8) (size 9 to 14) (size 15 to 20)
#    0.000    1.667    2.222    3.000    9.333    1.778 
#    0.000    1.111    0.000    0.333    0.000    0.000 
#    0.000    3.556    0.000    0.000    0.000    0.000 
#
# Total GULP energy -401192.911389 kJ/mol
# GULP energy per Si atom -5572.123769 kJ/mol
# Density = 1.927970 g / cm^3
# Si number density = 19.323681 Si / 1000 Ang^3
#
#
#
# Elastic Constant Matrix: (Units=GPa)
#
#
# Indices 1 2 3 4 5 6 
#
# 1 29.2277 8.9998 10.9624 0.0000 0.0000 0.0000
# 2 8.9998 29.2277 10.9624 0.0000 0.0000 0.0000
# 3 10.9624 10.9624 103.9461 0.0000 0.0000 0.0000
# 4 0.0000 0.0000 0.0000 -597.2817 0.0000 0.0000
# 5 0.0000 0.0000 0.0000 0.0000 -597.2817 0.0000
# 6 0.0000 0.0000 0.0000 0.0000 0.0000 24.6670
#
#
#
# Elastic Compliance Matrix: (Units=1/GPa)
#
#
# Indices 1 2 3 4 5 6 
#
# 1 0.038640 -0.010797 -0.002936 0.000000 0.000000 0.000000
# 2 -0.010797 0.038640 -0.002936 0.000000 0.000000 0.000000
# 3 -0.002936 -0.002936 0.010240 0.000000 0.000000 0.000000
# 4 0.000000 0.000000 0.000000 -0.001674 0.000000 0.000000
# 5 0.000000 0.000000 0.000000 0.000000 -0.001674 0.000000
# 6 0.000000 0.000000 0.000000 0.000000 0.000000 0.040540
#
#
# Mechanical properties :
#
#
# Convention : Reuss Voigt Hill
#
# Bulk Modulus (GPa) = 18.45678 24.91675 21.68676
# Shear Modulus (GPa) = 28.39123 -225.21417 -98.41147
#
# Velocity S-wave (km/s) = 3.83723 -10.80746 -7.14412
# Velocity P-wave (km/s) = 5.40413 11.95042 7.53685
#
# Compressibility (1/GPa) = 0.05418064
#
# Stress axis : x y z
#
# Youngs Moduli (GPa) = 25.87989 25.87989 97.65883
#
# Poissons Ratio (x) = 0.27942 0.28677
# Poissons Ratio (y) = 0.27942 0.28677
# Poissons Ratio (z) = 0.07599 0.07599
#
# Static dielectric constant tensor:
#      x y z
#    x 1.691280 0.000000 0.000000 
#    y 0.000000 1.691280 0.000000 
#    z 0.000000 0.000000 1.994860 
# 
# From -- ./inp_files/4148.got.cif
#   From: 2010.05.17/outbox.cif.g08.bks.cpg/sg124_3_cif.got.tgz:4148.got - 2010.05.20 11:49:17.
