data_PCOD9562096
_publ_section_title
;
Structure prediction by ZEFSAII (Michael W. Deem and Ramdas Pophale) SiO2 
 PCOD9562096
Probable space group: P 4/M M M
;
_chemical_formula_sum "Si O2"
_cell_formula_units_Z 76
_cell_length_a 12.761419
_cell_length_b 12.761419
_cell_length_c 26.971679
_cell_angle_alpha 90.000000
_cell_angle_beta 90.000000
_cell_angle_gamma 90.000000
_cell_volume 4392.440819
_symmetry_space_group_name_H-M "P 4/M M M"
_symmetry_group_IT_number 123
_symmetry_cell_setting 'tetragonal'
loop_
_space_group_symop_operation_xyz
x,y,z
-y,x,z
-x,-y,z
y,-x,z
x,-y,-z
-x,y,-z
y,x,-z
-y,-x,-z
-x,-y,-z
y,-x,-z
x,y,-z
-y,x,-z
-x,y,z
x,-y,z
-y,-x,z
y,x,z
loop_
_atom_site_type_symbol
_atom_site_label
_atom_site_fract_x
_atom_site_fract_y
_atom_site_fract_z
Si Si1 0.123683 0.500000 0.079146
Si Si2 0.793285 0.620738 0.246556
Si Si3 0.292070 0.881383 0.853833
Si Si4 0.293961 0.118012 0.345620
Si Si5 0.316444 0.500000 0.000000
Si Si6 0.621312 0.203079 0.555010
O O1 0.130473 0.604626 0.112429
O O2 0.000000 0.500000 0.059096
O O3 0.229009 0.500000 0.044696
O O4 0.776094 0.500000 0.234993
O O5 0.685418 0.685418 0.248502
O O6 0.861334 0.672424 0.202869
O O7 0.848295 0.633630 0.299700
O O8 0.204415 0.795586 0.866483
O O9 0.252778 0.000000 0.859298
O O10 0.196434 0.196434 0.345097
O O11 0.350228 0.131341 0.398505
O O12 0.259251 0.000000 0.338620
O O13 0.397377 0.397377 0.000000
O O14 0.639220 0.155943 0.500000
O O15 0.500000 0.232775 0.558179
O O16 0.695445 0.304556 0.558631
#
# Coordination Sequence:
#
# PCOD9562096 Si02
#       6
#     8  16  16  16   4  16
#     4  10  20  37  60  83 111 149 192 232 270 320
#     4  10  20  34  52  76 106 138 175 215 258 313
#     4  10  20  34  54  80 110 145 184 228 274 322
#     4  10  21  35  51  71  95 126 165 211 260 310
#     4  11  23  38  58  86 121 153 184 230 280 325
#     4   9  18  32  49  71  98 126 159 200 247 302
#
# _framework density 17.302454000000001
#
# number of rings (size 3 to 8) (size 9 to 14) (size 15 to 20)
#    0.000    2.158    1.053    2.053    0.000    3.789 
#    0.000    2.105    0.000    7.579    0.000    2.947 
#    0.000    7.579    0.000    0.000    0.000    0.000 
#
# Total GULP energy -423397.863575 kJ/mol
# GULP energy per Si atom -5571.024521 kJ/mol
# Density = 1.726307 g / cm^3
# Si number density = 17.302454 Si / 1000 Ang^3
#
#
#
# Elastic Constant Matrix: (Units=GPa)
#
#
# Indices 1 2 3 4 5 6 
#
# 1 107.6353 37.7096 38.8185 0.0000 0.0000 0.0000
# 2 37.7096 107.6353 38.8185 0.0000 0.0000 0.0000
# 3 38.8185 38.8185 76.7473 0.0000 0.0000 0.0000
# 4 0.0000 0.0000 0.0000 19.2687 0.0000 0.0000
# 5 0.0000 0.0000 0.0000 0.0000 19.2687 0.0000
# 6 0.0000 0.0000 0.0000 0.0000 0.0000 9.9419
#
#
#
# Elastic Compliance Matrix: (Units=1/GPa)
#
#
# Indices 1 2 3 4 5 6 
#
# 1 0.011864 -0.002437 -0.004768 0.000000 0.000000 0.000000
# 2 -0.002437 0.011864 -0.004768 0.000000 0.000000 0.000000
# 3 -0.004768 -0.004768 0.017853 0.000000 0.000000 0.000000
# 4 0.000000 0.000000 0.000000 0.051898 0.000000 0.000000
# 5 0.000000 0.000000 0.000000 0.000000 0.051898 0.000000
# 6 0.000000 0.000000 0.000000 0.000000 0.000000 0.100584
#
#
# Mechanical properties :
#
#
# Convention : Reuss Voigt Hill
#
# Bulk Modulus (GPa) = 56.70636 58.07901 57.39269
# Shear Modulus (GPa) = 18.13003 21.47394 19.80198
#
# Velocity S-wave (km/s) = 3.24053 3.52674 3.38666
# Velocity P-wave (km/s) = 6.84442 7.08686 6.96670
#
# Compressibility (1/GPa) = 0.01763471
#
# Stress axis : x y z
#
# Youngs Moduli (GPa) = 84.28841 84.28841 56.01218
#
# Poissons Ratio (x) = 0.20540 0.26708
# Poissons Ratio (y) = 0.20540 0.26708
# Poissons Ratio (z) = 0.40191 0.40191
#
# Static dielectric constant tensor:
#      x y z
#    x 1.558800 0.000000 0.000000 
#    y 0.000000 1.558800 0.000000 
#    z 0.000000 0.000000 1.617910 
# 
# From -- ./inp_files/8338.got.cif
#   From: 2010.05.17/outbox.cif.g08.bks.cpg/sg123_5_cif.got.tgz:8338.got - 2010.05.20 11:43:04.
