data_PCOD9562252
_publ_section_title
;
Structure prediction by ZEFSAII (Michael W. Deem and Ramdas Pophale) SiO2 
 PCOD9562252
Probable space group: P 4/M M M
;
_chemical_formula_sum "Si O2"
_cell_formula_units_Z 88
_cell_length_a 18.120968
_cell_length_b 18.120968
_cell_length_c 14.175883
_cell_angle_alpha 90.000000
_cell_angle_beta 90.000000
_cell_angle_gamma 90.000000
_cell_volume 4654.927347
_symmetry_space_group_name_H-M "P 4/M M M"
_symmetry_group_IT_number 123
_symmetry_cell_setting 'tetragonal'
loop_
_space_group_symop_operation_xyz
x,y,z
-y,x,z
-x,-y,z
y,-x,z
x,-y,-z
-x,y,-z
y,x,-z
-y,-x,-z
-x,-y,-z
y,-x,-z
x,y,-z
-y,x,-z
-x,y,z
x,-y,z
-y,-x,z
y,x,z
loop_
_atom_site_type_symbol
_atom_site_label
_atom_site_fract_x
_atom_site_fract_y
_atom_site_fract_z
Si Si1 0.738538 0.860188 0.392279
Si Si2 0.582465 0.794410 0.609251
Si Si3 0.650496 0.164353 0.887184
Si Si4 0.415626 0.698556 0.209082
Si Si5 0.916024 0.500000 0.114837
Si Si6 0.085116 0.793286 0.200441
O O1 0.747754 0.886282 0.500000
O O2 0.781119 0.781119 0.385529
O O3 0.651920 0.847563 0.373027
O O4 0.775282 0.909520 0.312191
O O5 0.589186 0.770544 0.500000
O O6 0.500000 0.827490 0.620860
O O7 0.587467 0.728323 0.683652
O O8 0.636373 0.245977 0.848944
O O9 0.575713 0.122403 0.855137
O O10 0.723568 0.125574 0.848054
O O11 0.653737 0.163751 0.000000
O O12 0.500000 0.704103 0.175998
O O13 0.382386 0.617615 0.202602
O O14 0.000000 0.500000 0.146221
O O15 0.914518 0.500000 0.000000
O O16 0.133972 0.866029 0.181577
O O17 0.000000 0.799404 0.171273
#
# Coordination Sequence:
#
# PCOD9562252 Si02
#       6
#    16  16  16  16   8  16
#     4   9  17  32  56  83 113 150 192 238 286 340
#     4   9  17  30  52  83 117 152 191 236 286 343
#     4  11  22  39  61  88 117 148 192 242 295 352
#     4  11  22  36  56  83 116 155 200 245 290 342
#     4   9  18  34  58  86 114 142 174 223 290 354
#     4  11  24  41  62  89 119 154 197 242 292 350
#
# _framework density 18.904699999999998
#
# number of rings (size 3 to 8) (size 9 to 14) (size 15 to 20)
#    0.000    1.909    2.727    1.636    0.000    4.364 
#    0.000    0.000    0.000    0.000    0.000   10.182 
#    0.000    0.000    0.000    0.000    0.000    0.000 
#
# Total GULP energy -490967.545984 kJ/mol
# GULP energy per Si atom -5579.176659 kJ/mol
# Density = 1.886167 g / cm^3
# Si number density = 18.904700 Si / 1000 Ang^3
#
#
#
# Elastic Constant Matrix: (Units=GPa)
#
#
# Indices 1 2 3 4 5 6 
#
# 1 85.8312 78.1147 22.2248 0.0000 0.0000 0.0000
# 2 78.1147 85.8312 22.2248 0.0000 0.0000 0.0000
# 3 22.2248 22.2248 57.1545 0.0000 0.0000 0.0000
# 4 0.0000 0.0000 0.0000 14.8121 0.0000 0.0000
# 5 0.0000 0.0000 0.0000 0.0000 14.8121 0.0000
# 6 0.0000 0.0000 0.0000 0.0000 0.0000 17.6554
#
#
#
# Elastic Compliance Matrix: (Units=1/GPa)
#
#
# Indices 1 2 3 4 5 6 
#
# 1 0.068206 -0.061387 -0.002651 0.000000 0.000000 0.000000
# 2 -0.061387 0.068206 -0.002651 0.000000 0.000000 0.000000
# 3 -0.002651 -0.002651 0.019558 0.000000 0.000000 0.000000
# 4 0.000000 0.000000 0.000000 0.067512 0.000000 0.000000
# 5 0.000000 0.000000 0.000000 0.000000 0.067512 0.000000
# 6 0.000000 0.000000 0.000000 0.000000 0.000000 0.056640
#
#
# Mechanical properties :
#
#
# Convention : Reuss Voigt Hill
#
# Bulk Modulus (GPa) = 44.26779 52.66060 48.46420
# Shear Modulus (GPa) = 10.23449 16.53942 13.38695
#
# Velocity S-wave (km/s) = 2.32927 2.96105 2.66396
# Velocity P-wave (km/s) = 5.54086 6.29339 5.92907
#
# Compressibility (1/GPa) = 0.02258979
#
# Stress axis : x y z
#
# Youngs Moduli (GPa) = 14.66156 14.66156 51.12885
#
# Poissons Ratio (x) = 0.90003 0.13556
# Poissons Ratio (y) = 0.90003 0.13556
# Poissons Ratio (z) = 0.03887 0.03887
#
# Static dielectric constant tensor:
#      x y z
#    x 1.652530 0.000000 0.000000 
#    y 0.000000 1.652530 0.000000 
#    z 0.000000 0.000000 1.675280 
# 
# From -- ./inp_files/4047.got.cif
#   From: 2010.05.17/outbox.cif.g08.bks.cpg/sg123_3_cif.got.tgz:4047.got - 2010.05.20 11:43:04.
