data_PCOD9562368
_publ_section_title
;
Structure prediction by ZEFSAII (Michael W. Deem and Ramdas Pophale) SiO2 
 PCOD9562368
Probable space group: P 4/M C C
;
_chemical_formula_sum "Si O2"
_cell_formula_units_Z 96
_cell_length_a 24.079089
_cell_length_b 24.079089
_cell_length_c 9.725591
_cell_angle_alpha 90.000000
_cell_angle_beta 90.000000
_cell_angle_gamma 90.000000
_cell_volume 5638.922239
_symmetry_space_group_name_H-M "P 4/M C C"
_symmetry_group_IT_number 124
_symmetry_cell_setting 'tetragonal'
loop_
_space_group_symop_operation_xyz
x,y,z
-y,x,z
-x,-y,z
y,-x,z
x,-y,1/2-z
-x,y,1/2-z
y,x,1/2-z
-y,-x,1/2-z
-x,-y,-z
y,-x,-z
x,y,-z
-y,x,-z
-x,y,1/2+z
x,-y,1/2+z
-y,-x,1/2+z
y,x,1/2+z
loop_
_atom_site_type_symbol
_atom_site_label
_atom_site_fract_x
_atom_site_fract_y
_atom_site_fract_z
Si Si1 0.659803 0.136241 0.841010
Si Si2 0.659121 0.730343 0.659159
Si Si3 0.875350 0.785784 0.753448
Si Si4 0.446403 0.729781 0.660662
Si Si5 0.151102 0.933487 0.000000
Si Si6 0.065049 0.841991 0.000000
Si Si7 0.134835 0.445956 0.339554
O O1 0.655908 0.203183 0.847442
O O2 0.720211 0.124363 0.777588
O O3 0.609434 0.117047 0.743053
O O4 0.655729 0.116176 0.000000
O O5 0.711195 0.711195 0.750000
O O6 0.660244 0.710386 0.500000
O O7 0.606670 0.711095 0.750523
O O8 0.813784 0.813784 0.750000
O O9 0.909609 0.807099 0.624419
O O10 0.908114 0.815642 0.874172
O O11 0.500000 0.713397 0.750000
O O12 0.446767 0.711903 0.500000
O O13 0.445662 0.797458 0.657238
O O14 0.091358 0.903722 0.000000
O O15 0.152339 0.999319 0.000000
O O16 0.118475 0.500000 0.250000
O O17 0.116847 0.447694 0.500000
#
# Coordination Sequence:
#
# PCOD9562368 Si02
#       7
#    16  16  16  16   8   8  16
#     4  10  19  31  47  68 100 138 174 211 256 308
#     4  10  19  29  41  61  89 123 160 199 240 291
#     4  10  20  35  52  77 108 142 176 218 269 324
#     4   9  16  27  41  58  81 116 156 197 242 289
#     4  10  20  39  56  82 109 141 177 219 269 315
#     4  10  22  35  60  80 109 141 177 221 265 321
#     4   9  17  28  44  67  97 132 172 213 252 297
#
# _framework density 17.024529999999999
#
# number of rings (size 3 to 8) (size 9 to 14) (size 15 to 20)
#    0.000    2.333    0.833    2.500    1.167    4.833 
#    0.000    0.000    0.000    3.000    0.000    0.000 
#    0.000    4.333    0.000    3.333    0.000    2.333 
#
# Total GULP energy -534538.416953 kJ/mol
# GULP energy per Si atom -5568.108510 kJ/mol
# Density = 1.698578 g / cm^3
# Si number density = 17.024530 Si / 1000 Ang^3
#
#
#
# Elastic Constant Matrix: (Units=GPa)
#
#
# Indices 1 2 3 4 5 6 
#
# 1 93.0331 21.5220 50.1825 0.0000 0.0000 0.0000
# 2 21.5220 93.0331 50.1825 0.0000 0.0000 0.0000
# 3 50.1825 50.1825 182.7365 0.0000 0.0000 0.0000
# 4 0.0000 0.0000 0.0000 43.0382 0.0000 0.0000
# 5 0.0000 0.0000 0.0000 0.0000 43.0382 0.0000
# 6 0.0000 0.0000 0.0000 0.0000 0.0000 5.3738
#
#
#
# Elastic Compliance Matrix: (Units=1/GPa)
#
#
# Indices 1 2 3 4 5 6 
#
# 1 0.012740 -0.001244 -0.003157 0.000000 0.000000 0.000000
# 2 -0.001244 0.012740 -0.003157 0.000000 0.000000 0.000000
# 3 -0.003157 -0.003157 0.007206 0.000000 0.000000 0.000000
# 4 0.000000 0.000000 0.000000 0.023235 0.000000 0.000000
# 5 0.000000 0.000000 0.000000 0.000000 0.023235 0.000000
# 6 0.000000 0.000000 0.000000 0.000000 0.000000 0.186087
#
#
# Mechanical properties :
#
#
# Convention : Reuss Voigt Hill
#
# Bulk Modulus (GPa) = 56.91710 68.06409 62.49060
# Shear Modulus (GPa) = 17.46939 34.75110 26.11025
#
# Velocity S-wave (km/s) = 3.20680 4.52291 3.92048
# Velocity P-wave (km/s) = 6.87142 8.20624 7.56832
#
# Compressibility (1/GPa) = 0.01756941
#
# Stress axis : x y z
#
# Youngs Moduli (GPa) = 78.49601 78.49601 138.77014
#
# Poissons Ratio (x) = 0.09768 0.43806
# Poissons Ratio (y) = 0.09768 0.43806
# Poissons Ratio (z) = 0.24779 0.24779
#
# Static dielectric constant tensor:
#      x y z
#    x 1.539380 0.000000 0.000000 
#    y 0.000000 1.539380 0.000000 
#    z 0.000000 0.000000 1.570270 
# 
# From -- ./inp_files/1409.got.cif
#   From: 2010.05.17/outbox.cif.g08.bks.cpg/sg124_1_cif.got.tgz:1409.got - 2010.05.20 11:49:17.
