data_PCOD9562599
_publ_section_title
;
Structure prediction by ZEFSAII (Michael W. Deem and Ramdas Pophale) SiO2 
 PCOD9562599
Probable space group: P 4/M C C
;
_chemical_formula_sum "Si O2"
_cell_formula_units_Z 128
_cell_length_a 20.655305
_cell_length_b 20.655305
_cell_length_c 17.351605
_cell_angle_alpha 90.000000
_cell_angle_beta 90.000000
_cell_angle_gamma 90.000000
_cell_volume 7402.916947
_symmetry_space_group_name_H-M "P 4/M C C"
_symmetry_group_IT_number 124
_symmetry_cell_setting 'tetragonal'
loop_
_space_group_symop_operation_xyz
x,y,z
-y,x,z
-x,-y,z
y,-x,z
x,-y,1/2-z
-x,y,1/2-z
y,x,1/2-z
-y,-x,1/2-z
-x,-y,-z
y,-x,-z
x,y,-z
-y,x,-z
-x,y,1/2+z
x,-y,1/2+z
-y,-x,1/2+z
y,x,1/2+z
loop_
_atom_site_type_symbol
_atom_site_label
_atom_site_fract_x
_atom_site_fract_y
_atom_site_fract_z
Si Si1 0.180380 0.536005 0.911742
Si Si2 0.064274 0.340444 0.292010
Si Si3 0.004077 0.577451 0.417562
Si Si4 0.308205 0.164229 0.092525
Si Si5 0.700686 0.247097 0.910979
Si Si6 0.138069 0.600169 0.351466
Si Si7 0.364429 0.640245 0.164315
Si Si8 0.504774 0.693242 0.163909
O O1 0.175504 0.613279 0.894775
O O2 0.151912 0.477386 0.858732
O O3 0.255483 0.519301 0.901690
O O4 0.158086 0.525567 0.000000
O O5 0.104720 0.294862 0.349628
O O6 0.110843 0.374074 0.229553
O O7 0.000000 0.312295 0.250000
O O8 0.036200 0.396301 0.346819
O O9 0.977087 0.599265 0.500000
O O10 0.076417 0.604865 0.408390
O O11 0.000000 0.500000 0.415860
O O12 0.261123 0.224735 0.113876
O O13 0.300926 0.153532 0.000000
O O14 0.648364 0.197893 0.872052
O O15 0.672889 0.319077 0.898951
O O16 0.702225 0.228237 0.000000
O O17 0.339339 0.660662 0.250000
O O18 0.438116 0.657939 0.153974
O O19 0.354620 0.564523 0.163757
O O20 0.500000 0.724713 0.250000
#
# Coordination Sequence:
#
# PCOD9562599 Si02
#       8
#    16  16  16  16  16  16  16  16
#     4  11  21  32  49  73  99 132 168 212 272 330
#     4  10  23  37  53  77 100 135 175 216 266 321
#     4  10  20  37  55  75 107 141 179 225 274 323
#     4  10  22  36  53  76 105 137 175 219 272 329
#     4  11  22  35  53  77 104 135 172 221 277 331
#     4  11  23  33  53  80 108 137 178 228 276 323
#     4  10  21  35  50  71  95 126 168 221 280 339
#     4  10  21  34  50  68  92 126 165 215 279 340
#
# _framework density 17.290482000000001
#
# number of rings (size 3 to 8) (size 9 to 14) (size 15 to 20)
#    0.000    1.625    2.500    2.250    3.500    6.500 
#    0.000    1.250    0.000    0.000    0.000    1.750 
#    0.000    0.000    0.000    0.000    0.000   60.625 
#
# Total GULP energy -712589.871541 kJ/mol
# GULP energy per Si atom -5567.108371 kJ/mol
# Density = 1.725113 g / cm^3
# Si number density = 17.290482 Si / 1000 Ang^3
#
#
#
# Elastic Constant Matrix: (Units=GPa)
#
#
# Indices 1 2 3 4 5 6 
#
# 1 56.4866 19.2011 20.6190 0.0000 0.0000 0.0000
# 2 19.2011 56.4860 20.6193 0.0000 0.0000 0.0000
# 3 20.6190 20.6193 54.4194 0.0000 0.0000 0.0000
# 4 0.0000 0.0000 0.0000 9.5377 0.0000 0.0000
# 5 0.0000 0.0000 0.0000 0.0000 9.5355 0.0000
# 6 0.0000 0.0000 0.0000 0.0000 0.0000 22.8997
#
#
#
# Elastic Compliance Matrix: (Units=1/GPa)
#
#
# Indices 1 2 3 4 5 6 
#
# 1 0.021735 -0.005085 -0.006308 0.000000 0.000000 0.000000
# 2 -0.005085 0.021735 -0.006308 0.000000 0.000000 0.000000
# 3 -0.006308 -0.006308 0.023156 0.000000 0.000000 0.000000
# 4 0.000000 0.000000 0.000000 0.104848 0.000000 0.000000
# 5 0.000000 0.000000 0.000000 0.000000 0.104871 0.000000
# 6 0.000000 0.000000 0.000000 0.000000 0.000000 0.043669
#
#
# Mechanical properties :
#
#
# Convention : Reuss Voigt Hill
#
# Bulk Modulus (GPa) = 32.02915 32.03007 32.02961
# Shear Modulus (GPa) = 13.66776 15.52474 14.59625
#
# Velocity S-wave (km/s) = 2.81460 2.99971 2.90863
# Velocity P-wave (km/s) = 5.39694 5.52834 5.46304
#
# Compressibility (1/GPa) = 0.03122156
#
# Stress axis : x y z
#
# Youngs Moduli (GPa) = 46.00947 46.00875 43.18500
#
# Poissons Ratio (x) = 0.23398 0.27242
# Poissons Ratio (y) = 0.23398 0.27243
# Poissons Ratio (z) = 0.29024 0.29024
#
# Static dielectric constant tensor:
#      x y z
#    x 1.602380 0.000000 0.000000 
#    y 0.000000 1.602380 0.000000 
#    z 0.000000 0.000000 1.683650 
# 
# From -- ./inp_files/4596.got.cif
#   From: 2010.05.17/outbox.cif.g08.bks.cpg/sg124_3_cif.got.tgz:4596.got - 2010.05.20 11:49:17.
