data_PCOD9562170
_publ_section_title
;
Structure prediction by ZEFSAII (Michael W. Deem and Ramdas Pophale) SiO2 
 PCOD9562170
Probable space group: P 4/M M M
;
_chemical_formula_sum "Si O2"
_cell_formula_units_Z 56
_cell_length_a 13.426335
_cell_length_b 13.426335
_cell_length_c 18.162865
_cell_angle_alpha 90.000000
_cell_angle_beta 90.000000
_cell_angle_gamma 90.000000
_cell_volume 3274.155586
_symmetry_space_group_name_H-M "P 4/M M M"
_symmetry_group_IT_number 123
_symmetry_cell_setting 'tetragonal'
loop_
_space_group_symop_operation_xyz
x,y,z
-y,x,z
-x,-y,z
y,-x,z
x,-y,-z
-x,y,-z
y,x,-z
-y,-x,-z
-x,-y,-z
y,-x,-z
x,y,-z
-y,x,-z
-x,y,z
x,-y,z
-y,-x,z
y,x,z
loop_
_atom_site_type_symbol
_atom_site_label
_atom_site_fract_x
_atom_site_fract_y
_atom_site_fract_z
Si Si1 0.718971 0.116880 0.414543
Si Si2 0.382058 0.783030 0.000000
Si Si3 0.282635 0.882279 0.858852
Si Si4 0.616645 0.781890 0.719334
O O1 0.688728 0.129204 0.500000
O O2 0.821196 0.178805 0.404262
O O3 0.641532 0.163900 0.357569
O O4 0.732782 0.000000 0.400363
O O5 0.346531 0.843730 0.071763
O O6 0.500000 0.768297 0.000000
O O7 0.320344 0.679657 0.000000
O O8 0.179416 0.820585 0.860263
O O9 0.340101 0.850053 0.784868
O O10 0.267885 0.000000 0.861933
O O11 0.500000 0.765705 0.728464
O O12 0.679888 0.679888 0.721485
#
# Coordination Sequence:
#
# PCOD9562170 Si02
#       4
#    16   8  16  16
#     4   9  18  32  50  74 103 133 166 204 246 295
#     4  10  21  36  54  78 106 136 173 214 254 298
#     4  10  21  36  54  78 106 135 169 207 248 298
#     4  10  21  36  53  74 100 130 167 210 253 299
#
# _framework density 17.103646000000001
#
# number of rings (size 3 to 8) (size 9 to 14) (size 15 to 20)
#    0.000    2.286    0.000    2.143    0.000    6.143 
#    0.000    2.857    0.000   12.857    0.000    4.000 
#    0.000    0.000    0.000    0.000    0.000    0.000 
#
# Total GULP energy -312532.297994 kJ/mol
# GULP energy per Si atom -5580.933893 kJ/mol
# Density = 1.706472 g / cm^3
# Si number density = 17.103646 Si / 1000 Ang^3
#
#
#
# Elastic Constant Matrix: (Units=GPa)
#
#
# Indices 1 2 3 4 5 6 
#
# 1 111.9667 115.1044 60.7324 0.0000 0.0000 0.0000
# 2 115.1044 111.9572 60.7319 0.0000 0.0000 0.0000
# 3 60.7324 60.7319 89.7433 0.0000 0.0000 0.0000
# 4 0.0000 0.0000 0.0000 14.3219 0.0000 0.0000
# 5 0.0000 0.0000 0.0000 0.0000 14.3219 0.0000
# 6 0.0000 0.0000 0.0000 0.0000 0.0000 2.9674
#
#
#
# Elastic Compliance Matrix: (Units=1/GPa)
#
#
# Indices 1 2 3 4 5 6 
#
# 1 -0.155650 0.162562 -0.004677 0.000000 0.000000 0.000000
# 2 0.162562 -0.155669 -0.004666 0.000000 0.000000 0.000000
# 3 -0.004677 -0.004666 0.017465 0.000000 0.000000 0.000000
# 4 0.000000 0.000000 0.000000 0.069823 0.000000 0.000000
# 5 0.000000 0.000000 0.000000 0.000000 0.069823 0.000000
# 6 0.000000 0.000000 0.000000 0.000000 0.000000 0.336999
#
#
# Mechanical properties :
#
#
# Convention : Reuss Voigt Hill
#
# Bulk Modulus (GPa) = 79.45574 87.42273 83.43923
# Shear Modulus (GPa) = -41.85777 11.46213 -15.19782
#
# Velocity S-wave (km/s) = -4.95239 2.59155 -2.98413
# Velocity P-wave (km/s) = 3.72220 7.75753 6.08416
#
# Compressibility (1/GPa) = 0.01258562
#
# Stress axis : x y z
#
# Youngs Moduli (GPa) = -6.42468 -6.42388 57.25593
#
# Poissons Ratio (x) = 1.04428 0.26778
# Poissons Ratio (y) = 1.04441 0.26715
# Poissons Ratio (z) = -0.03005 -0.02997
#
# Static dielectric constant tensor:
#      x y z
#    x 1.546730 0.000000 0.000000 
#    y 0.000000 1.546730 0.000000 
#    z 0.000000 0.000000 1.589170 
# 
# From -- ./inp_files/6103.got.cif
#   From: 2010.05.17/outbox.cif.g08.bks.cpg/sg123_4_cif.got.tgz:6103.got - 2010.05.20 11:43:04.
