data_PCOD9562026
_publ_section_title
;
Structure prediction by ZEFSAII (Michael W. Deem and Ramdas Pophale) SiO2 
 PCOD9562026
Probable space group: P 4/M M M
;
_chemical_formula_sum "Si O2"
_cell_formula_units_Z 84
_cell_length_a 12.661263
_cell_length_b 12.661263
_cell_length_c 31.436222
_cell_angle_alpha 90.000000
_cell_angle_beta 90.000000
_cell_angle_gamma 90.000000
_cell_volume 5039.464697
_symmetry_space_group_name_H-M "P 4/M M M"
_symmetry_group_IT_number 123
_symmetry_cell_setting 'tetragonal'
loop_
_space_group_symop_operation_xyz
x,y,z
-y,x,z
-x,-y,z
y,-x,z
x,-y,-z
-x,y,-z
y,x,-z
-y,-x,-z
-x,-y,-z
y,-x,-z
x,y,-z
-y,x,-z
-x,y,z
x,-y,z
-y,-x,z
y,x,z
loop_
_atom_site_type_symbol
_atom_site_label
_atom_site_fract_x
_atom_site_fract_y
_atom_site_fract_z
Si Si1 0.206088 0.379867 0.288203
Si Si2 0.500000 0.684242 0.500000
Si Si3 0.881977 0.291971 0.373527
Si Si4 0.500000 0.128266 0.048700
Si Si5 0.702575 0.878019 0.202909
Si Si6 0.123631 0.500000 0.431540
Si Si7 0.125357 0.301384 0.105976
O O1 0.224302 0.500000 0.300109
O O2 0.313927 0.313927 0.286903
O O3 0.134896 0.326486 0.324518
O O4 0.154111 0.371826 0.241744
O O5 0.396776 0.603225 0.500000
O O6 0.500000 0.771432 0.461465
O O7 0.793952 0.206049 0.384215
O O8 0.870039 0.395755 0.402405
O O9 0.000000 0.249886 0.379193
O O10 0.605518 0.158513 0.074171
O O11 0.500000 0.000000 0.048319
O O12 0.500000 0.165092 0.000000
O O13 0.805540 0.805540 0.207131
O O14 0.660579 0.861629 0.154991
O O15 0.730411 0.000000 0.206857
O O16 0.000000 0.500000 0.449249
O O17 0.198259 0.198259 0.100399
O O18 0.000000 0.278655 0.099962
#
# Coordination Sequence:
#
# PCOD9562026 Si02
#       7
#    16   4  16   8  16   8  16
#     4  10  20  33  49  71 100 135 176 217 255 298
#     4  11  23  38  58  84 113 141 172 216 272 329
#     4  10  20  34  53  78 108 141 177 216 258 305
#     4   9  18  32  49  70  95 124 158 196 241 295
#     4   9  18  30  46  70  98 129 164 202 244 291
#     4  10  20  37  59  81 107 140 180 222 262 310
#     4   9  18  32  50  74 101 129 163 202 247 297
#
# _framework density 16.668436
#
# number of rings (size 3 to 8) (size 9 to 14) (size 15 to 20)
#    0.000    2.429    0.952    1.286    1.333    2.286 
#    0.000    1.905    0.000    3.714    0.000    3.333 
#    0.000    6.857    0.000    0.000    0.000    0.000 
#
# Total GULP energy -467769.290768 kJ/mol
# GULP energy per Si atom -5568.682033 kJ/mol
# Density = 1.663050 g / cm^3
# Si number density = 16.668436 Si / 1000 Ang^3
#
#
#
# Elastic Constant Matrix: (Units=GPa)
#
#
# Indices 1 2 3 4 5 6 
#
# 1 114.6544 27.9348 44.2526 0.0000 0.0000 0.0000
# 2 27.9348 114.6543 44.2525 0.0000 0.0000 0.0000
# 3 44.2526 44.2525 78.1058 0.0000 0.0000 0.0000
# 4 0.0000 0.0000 0.0000 22.8856 0.0000 0.0000
# 5 0.0000 0.0000 0.0000 0.0000 22.8855 0.0000
# 6 0.0000 0.0000 0.0000 0.0000 0.0000 6.2632
#
#
#
# Elastic Compliance Matrix: (Units=1/GPa)
#
#
# Indices 1 2 3 4 5 6 
#
# 1 0.011174 -0.000357 -0.006129 0.000000 0.000000 0.000000
# 2 -0.000357 0.011174 -0.006129 0.000000 0.000000 0.000000
# 3 -0.006129 -0.006129 0.019748 0.000000 0.000000 0.000000
# 4 0.000000 0.000000 0.000000 0.043696 0.000000 0.000000
# 5 0.000000 0.000000 0.000000 0.000000 0.043696 0.000000
# 6 0.000000 0.000000 0.000000 0.000000 0.000000 0.159664
#
#
# Mechanical properties :
#
#
# Convention : Reuss Voigt Hill
#
# Bulk Modulus (GPa) = 59.28591 60.03271 59.65931
# Shear Modulus (GPa) = 15.62484 23.13849 19.38166
#
# Velocity S-wave (km/s) = 3.06501 3.72985 3.41365
# Velocity P-wave (km/s) = 6.94051 7.39209 7.16986
#
# Compressibility (1/GPa) = 0.01686741
#
# Stress axis : x y z
#
# Youngs Moduli (GPa) = 89.49065 89.49056 50.63821
#
# Poissons Ratio (x) = 0.03195 0.31035
# Poissons Ratio (y) = 0.03195 0.31035
# Poissons Ratio (z) = 0.54847 0.54847
#
# Static dielectric constant tensor:
#      x y z
#    x 1.538940 0.000000 0.000000 
#    y 0.000000 1.538940 0.000000 
#    z 0.000000 0.000000 1.586940 
# 
# From -- ./inp_files/8550.got.cif
#   From: 2010.05.17/outbox.cif.g08.bks.cpg/sg123_5_cif.got.tgz:8550.got - 2010.05.20 11:43:04.
