data_PCOD9562024
_publ_section_title
;
Structure prediction by ZEFSAII (Michael W. Deem and Ramdas Pophale) SiO2 
 PCOD9562024
Probable space group: P 4/M M M
;
_chemical_formula_sum "Si O2"
_cell_formula_units_Z 72
_cell_length_a 13.621060
_cell_length_b 13.621060
_cell_length_c 23.595742
_cell_angle_alpha 90.000000
_cell_angle_beta 90.000000
_cell_angle_gamma 90.000000
_cell_volume 4377.795302
_symmetry_space_group_name_H-M "P 4/M M M"
_symmetry_group_IT_number 123
_symmetry_cell_setting 'tetragonal'
loop_
_space_group_symop_operation_xyz
x,y,z
-y,x,z
-x,-y,z
y,-x,z
x,-y,-z
-x,y,-z
y,x,-z
-y,-x,-z
-x,-y,-z
y,-x,-z
x,y,-z
-y,x,-z
-x,y,z
x,-y,z
-y,-x,z
y,x,z
loop_
_atom_site_type_symbol
_atom_site_label
_atom_site_fract_x
_atom_site_fract_y
_atom_site_fract_z
Si Si1 0.277796 0.882414 0.895724
Si Si2 0.616572 0.780259 0.000000
Si Si3 0.388095 0.881079 0.779495
Si Si4 0.116142 0.277185 0.335396
Si Si5 0.777704 0.615099 0.565419
O O1 0.174903 0.825098 0.901190
O O2 0.347863 0.841745 0.945270
O O3 0.326610 0.855888 0.835373
O O4 0.267372 0.000000 0.899500
O O5 0.500000 0.765825 0.000000
O O6 0.679062 0.679062 0.000000
O O7 0.500000 0.844374 0.782313
O O8 0.334771 0.851918 0.721483
O O9 0.392587 0.000000 0.778521
O O10 0.176614 0.176614 0.338582
O O11 0.145590 0.341806 0.389779
O O12 0.000000 0.261119 0.333154
O O13 0.810000 0.628340 0.500000
O O14 0.761538 0.500000 0.574972
O O15 0.678406 0.678406 0.572613
#
# Coordination Sequence:
#
# PCOD9562024 Si02
#       5
#    16   8  16  16  16
#     4  10  20  33  50  74 103 135 171 207 244 290
#     4  10  21  36  54  76 100 128 165 208 254 304
#     4   9  17  30  49  71  94 123 160 201 244 287
#     4  10  20  33  49  70  97 129 166 206 246 291
#     4   9  18  32  50  73  99 126 158 197 242 293
#
# _framework density 16.446634
#
# number of rings (size 3 to 8) (size 9 to 14) (size 15 to 20)
#    0.000    2.444    0.000    2.333    0.000    4.333 
#    0.000    2.222    0.000    6.000    0.000    3.111 
#    0.000   16.000    0.000    0.000    0.000    0.000 
#
# Total GULP energy -401428.774820 kJ/mol
# GULP energy per Si atom -5575.399650 kJ/mol
# Density = 1.640920 g / cm^3
# Si number density = 16.446634 Si / 1000 Ang^3
#
#
#
# Elastic Constant Matrix: (Units=GPa)
#
#
# Indices 1 2 3 4 5 6 
#
# 1 104.1381 53.6114 55.4064 0.0000 0.0000 0.0000
# 2 53.6114 104.1381 55.4064 0.0000 0.0000 0.0000
# 3 55.4064 55.4064 120.7500 0.0000 0.0000 0.0000
# 4 0.0000 0.0000 0.0000 23.2440 0.0000 0.0000
# 5 0.0000 0.0000 0.0000 0.0000 23.2440 0.0000
# 6 0.0000 0.0000 0.0000 0.0000 0.0000 5.5852
#
#
#
# Elastic Compliance Matrix: (Units=1/GPa)
#
#
# Indices 1 2 3 4 5 6 
#
# 1 0.014573 -0.005219 -0.004292 0.000000 0.000000 0.000000
# 2 -0.005219 0.014573 -0.004292 0.000000 0.000000 0.000000
# 3 -0.004292 -0.004292 0.012221 0.000000 0.000000 0.000000
# 4 0.000000 0.000000 0.000000 0.043022 0.000000 0.000000
# 5 0.000000 0.000000 0.000000 0.000000 0.043022 0.000000
# 6 0.000000 0.000000 0.000000 0.000000 0.000000 0.179046
#
#
# Mechanical properties :
#
#
# Convention : Reuss Voigt Hill
#
# Bulk Modulus (GPa) = 72.67330 73.09718 72.88524
# Shear Modulus (GPa) = 14.76454 21.38809 18.07632
#
# Velocity S-wave (km/s) = 2.99946 3.61009 3.31885
# Velocity P-wave (km/s) = 7.50193 7.86884 7.68757
#
# Compressibility (1/GPa) = 0.01376021
#
# Stress axis : x y z
#
# Youngs Moduli (GPa) = 68.62050 68.62050 81.82926
#
# Poissons Ratio (x) = 0.35810 0.35123
# Poissons Ratio (y) = 0.35810 0.35123
# Poissons Ratio (z) = 0.29454 0.29454
#
# Static dielectric constant tensor:
#      x y z
#    x 1.531640 0.000000 0.000000 
#    y 0.000000 1.531640 0.000000 
#    z 0.000000 0.000000 1.558540 
# 
# From -- ./inp_files/7852.got.cif
#   From: 2010.05.17/outbox.cif.g08.bks.cpg/sg123_4_cif.got.tgz:7852.got - 2010.05.20 11:43:04.
