data_PCOD9562602
_publ_section_title
;
Structure prediction by ZEFSAII (Michael W. Deem and Ramdas Pophale) SiO2 
 PCOD9562602
Probable space group: P 4/M C C
;
_chemical_formula_sum "Si O2"
_cell_formula_units_Z 96
_cell_length_a 22.592782
_cell_length_b 22.592782
_cell_length_c 9.714849
_cell_angle_alpha 90.000000
_cell_angle_beta 90.000000
_cell_angle_gamma 90.000000
_cell_volume 4958.787277
_symmetry_space_group_name_H-M "P 4/M C C"
_symmetry_group_IT_number 124
_symmetry_cell_setting 'tetragonal'
loop_
_space_group_symop_operation_xyz
x,y,z
-y,x,z
-x,-y,z
y,-x,z
x,-y,1/2-z
-x,y,1/2-z
y,x,1/2-z
-y,-x,1/2-z
-x,-y,-z
y,-x,-z
x,y,-z
-y,x,-z
-x,y,1/2+z
x,-y,1/2+z
-y,-x,1/2+z
y,x,1/2+z
loop_
_atom_site_type_symbol
_atom_site_label
_atom_site_fract_x
_atom_site_fract_y
_atom_site_fract_z
Si Si1 0.310819 0.773216 0.665663
Si Si2 0.103882 0.549502 0.154430
Si Si3 0.550684 0.759158 0.152275
Si Si4 0.155034 0.906423 0.000000
Si Si5 0.641085 0.942910 0.341969
Si Si6 0.047750 0.176316 0.500000
Si Si7 0.240266 0.891981 0.756576
O O1 0.276361 0.723640 0.750000
O O2 0.306027 0.768182 0.500000
O O3 0.380734 0.764167 0.698900
O O4 0.275892 0.834065 0.705216
O O5 0.073650 0.500000 0.250000
O O6 0.171956 0.532441 0.135263
O O7 0.104860 0.606995 0.250473
O O8 0.079054 0.558035 0.000000
O O9 0.500000 0.732593 0.250000
O O10 0.550008 0.731629 0.000000
O O11 0.188587 0.880178 0.133420
O O12 0.087896 0.883161 0.000000
O O13 0.162440 0.977792 0.000000
O O14 0.621300 0.945540 0.500000
O O15 0.710374 0.930143 0.336342
O O16 0.628285 0.000000 0.250000
O O17 0.069465 0.213897 0.632020
#
# Coordination Sequence:
#
# PCOD9562602 Si02
#       7
#    16  16  16   8  16   8  16
#     4  11  23  39  62  93 128 165 207 258 305 362
#     4  10  20  37  57  81 115 154 201 250 301 351
#     4   9  19  36  56  84 121 164 207 250 301 351
#     4  12  26  47  66  98 113 159 191 245 310 384
#     4  12  25  39  59  83 111 150 199 247 302 365
#     4  12  26  45  72  88 127 147 197 245 312 378
#     4  12  25  42  62  91 124 156 192 243 308 375
#
# _framework density 19.359570999999999
#
# number of rings (size 3 to 8) (size 9 to 14) (size 15 to 20)
#    0.000    1.000    3.333    4.000    3.500    1.833 
#    0.000    1.667    0.000    2.000    0.000    0.000 
#    0.000    0.333    0.000    3.667    0.000    2.667 
#
# Total GULP energy -535201.177102 kJ/mol
# GULP energy per Si atom -5575.012261 kJ/mol
# Density = 1.931551 g / cm^3
# Si number density = 19.359571 Si / 1000 Ang^3
#
#
#
# Elastic Constant Matrix: (Units=GPa)
#
#
# Indices 1 2 3 4 5 6 
#
# 1 87.2529 43.4197 48.8763 0.0000 0.0000 0.0000
# 2 43.4197 87.2500 48.8779 0.0000 0.0000 0.0000
# 3 48.8763 48.8779 155.1396 0.0000 0.0000 0.0000
# 4 0.0000 0.0000 0.0000 21.4917 0.0000 0.0000
# 5 0.0000 0.0000 0.0000 0.0000 21.4917 0.0000
# 6 0.0000 0.0000 0.0000 0.0000 0.0000 6.6313
#
#
#
# Elastic Compliance Matrix: (Units=1/GPa)
#
#
# Indices 1 2 3 4 5 6 
#
# 1 0.016413 -0.006401 -0.003154 0.000000 0.000000 0.000000
# 2 -0.006401 0.016414 -0.003155 0.000000 0.000000 0.000000
# 3 -0.003154 -0.003155 0.008433 0.000000 0.000000 0.000000
# 4 0.000000 0.000000 0.000000 0.046530 0.000000 0.000000
# 5 0.000000 0.000000 0.000000 0.000000 0.046530 0.000000
# 6 0.000000 0.000000 0.000000 0.000000 0.000000 0.150800
#
#
# Mechanical properties :
#
#
# Convention : Reuss Voigt Hill
#
# Bulk Modulus (GPa) = 63.12828 67.99892 65.56360
# Shear Modulus (GPa) = 15.83181 22.48752 19.15966
#
# Velocity S-wave (km/s) = 2.86278 3.41188 3.14932
# Velocity P-wave (km/s) = 6.60352 7.12191 6.86761
#
# Compressibility (1/GPa) = 0.01584076
#
# Stress axis : x y z
#
# Youngs Moduli (GPa) = 60.92677 60.92349 118.57494
#
# Poissons Ratio (x) = 0.38997 0.37402
# Poissons Ratio (y) = 0.38999 0.37408
# Poissons Ratio (z) = 0.19218 0.19220
#
# Static dielectric constant tensor:
#      x y z
#    x 1.739500 0.000000 0.000000 
#    y 0.000000 1.739500 0.000000 
#    z 0.000000 0.000000 1.733150 
# 
# From -- ./inp_files/1440.got.cif
#   From: 2010.05.17/outbox.cif.g08.bks.cpg/sg124_1_cif.got.tgz:1440.got - 2010.05.20 11:49:17.
