data_PCOD9562429
_publ_section_title
;
Structure prediction by ZEFSAII (Michael W. Deem and Ramdas Pophale) SiO2 
 PCOD9562429
Probable space group: P 4/M C C
;
_chemical_formula_sum "Si O2"
_cell_formula_units_Z 88
_cell_length_a 12.972462
_cell_length_b 12.972462
_cell_length_c 27.977735
_cell_angle_alpha 90.000000
_cell_angle_beta 90.000000
_cell_angle_gamma 90.000000
_cell_volume 4708.226709
_symmetry_space_group_name_H-M "P 4/M C C"
_symmetry_group_IT_number 124
_symmetry_cell_setting 'tetragonal'
loop_
_space_group_symop_operation_xyz
x,y,z
-y,x,z
-x,-y,z
y,-x,z
x,-y,1/2-z
-x,y,1/2-z
y,x,1/2-z
-y,-x,1/2-z
-x,-y,-z
y,-x,-z
x,y,-z
-y,x,-z
-x,y,1/2+z
x,-y,1/2+z
-y,-x,1/2+z
y,x,1/2+z
loop_
_atom_site_type_symbol
_atom_site_label
_atom_site_fract_x
_atom_site_fract_y
_atom_site_fract_z
Si Si1 0.638642 0.349066 0.197263
Si Si2 0.500000 0.000000 0.879411
Si Si3 0.692732 0.037682 0.057444
Si Si4 0.753029 0.805647 0.942714
Si Si5 0.830694 0.471648 0.198502
Si Si6 0.366699 0.406085 0.409985
O O1 0.609091 0.390910 0.250000
O O2 0.762689 0.366527 0.202075
O O3 0.570762 0.245986 0.190565
O O4 0.623831 0.407934 0.147538
O O5 0.587482 0.045586 0.913477
O O6 0.461979 0.089867 0.844214
O O7 0.764648 0.133898 0.070695
O O8 0.737938 0.925173 0.069751
O O9 0.675839 0.040839 0.000000
O O10 0.665404 0.729686 0.922414
O O11 0.744829 0.798681 0.000000
O O12 0.877821 0.500000 0.250000
O O13 0.476053 0.359852 0.427711
#
# Coordination Sequence:
#
# PCOD9562429 Si02
#       6
#    16   8  16  16  16  16
#     4  10  19  33  51  77 109 149 189 224 265 320
#     4  12  22  36  56  82 118 150 184 234 288 348
#     4  10  23  40  61  85 110 146 190 238 291 344
#     4  10  23  42  61  84 111 146 192 242 290 344
#     4  10  21  34  53  79 113 153 194 233 276 325
#     4  11  22  34  53  84 121 160 193 223 286 350
#
# _framework density 18.690688999999999
#
# number of rings (size 3 to 8) (size 9 to 14) (size 15 to 20)
#    0.000    1.636    1.818    2.727    2.545    1.455 
#    0.000    5.455    0.000    0.000    0.000    0.000 
#    0.000    0.000    0.000   27.455    0.000    0.545 
#
# Total GULP energy -489901.527964 kJ/mol
# GULP energy per Si atom -5567.062818 kJ/mol
# Density = 1.864815 g / cm^3
# Si number density = 18.690689 Si / 1000 Ang^3
#
#
#
# Elastic Constant Matrix: (Units=GPa)
#
#
# Indices 1 2 3 4 5 6 
#
# 1 66.9781 12.1802 13.9875 0.0000 0.0000 0.0000
# 2 12.1802 66.9785 13.9877 0.0000 0.0000 0.0000
# 3 13.9875 13.9877 27.4757 0.0000 0.0000 0.0000
# 4 0.0000 0.0000 0.0000 19.3423 0.0000 0.0000
# 5 0.0000 0.0000 0.0000 0.0000 19.3425 0.0000
# 6 0.0000 0.0000 0.0000 0.0000 0.0000 18.3263
#
#
#
# Elastic Compliance Matrix: (Units=1/GPa)
#
#
# Indices 1 2 3 4 5 6 
#
# 1 0.016827 -0.001422 -0.007842 0.000000 0.000000 0.000000
# 2 -0.001422 0.016827 -0.007842 0.000000 0.000000 0.000000
# 3 -0.007842 -0.007842 0.044380 0.000000 0.000000 0.000000
# 4 0.000000 0.000000 0.000000 0.051700 0.000000 0.000000
# 5 0.000000 0.000000 0.000000 0.000000 0.051700 0.000000
# 6 0.000000 0.000000 0.000000 0.000000 0.000000 0.054566
#
#
# Mechanical properties :
#
#
# Convention : Reuss Voigt Hill
#
# Bulk Modulus (GPa) = 22.82038 26.86034 24.84036
# Shear Modulus (GPa) = 17.55496 19.48735 18.52115
#
# Velocity S-wave (km/s) = 3.06802 3.23247 3.15132
# Velocity P-wave (km/s) = 4.97859 5.32297 5.15365
#
# Compressibility (1/GPa) = 0.04382047
#
# Stress axis : x y z
#
# Youngs Moduli (GPa) = 59.42963 59.42990 22.53244
#
# Poissons Ratio (x) = 0.08452 0.17670
# Poissons Ratio (y) = 0.08452 0.17670
# Poissons Ratio (z) = 0.46606 0.46606
#
# Static dielectric constant tensor:
#      x y z
#    x 1.670770 0.000000 0.000000 
#    y 0.000000 1.670770 0.000000 
#    z 0.000000 0.000000 1.667600 
# 
# From -- ./inp_files/7102.got.cif
#   From: 2010.05.17/outbox.cif.g08.bks.cpg/sg124_4_cif.got.tgz:7102.got - 2010.05.20 11:49:17.
