data_PCOD9562130
_publ_section_title
;
Structure prediction by ZEFSAII (Michael W. Deem and Ramdas Pophale) SiO2 
 PCOD9562130
Probable space group: P 4/M M M
;
_chemical_formula_sum "Si O2"
_cell_formula_units_Z 88
_cell_length_a 19.071443
_cell_length_b 19.071443
_cell_length_c 13.576969
_cell_angle_alpha 90.000000
_cell_angle_beta 90.000000
_cell_angle_gamma 90.000000
_cell_volume 4938.214324
_symmetry_space_group_name_H-M "P 4/M M M"
_symmetry_group_IT_number 123
_symmetry_cell_setting 'tetragonal'
loop_
_space_group_symop_operation_xyz
x,y,z
-y,x,z
-x,-y,z
y,-x,z
x,-y,-z
-x,y,-z
y,x,-z
-y,-x,-z
-x,-y,-z
y,-x,-z
x,y,-z
-y,x,-z
-x,y,z
x,-y,z
-y,-x,z
y,x,z
loop_
_atom_site_type_symbol
_atom_site_label
_atom_site_fract_x
_atom_site_fract_y
_atom_site_fract_z
Si Si1 0.080543 0.194091 0.380572
Si Si2 0.769062 0.230939 0.880229
Si Si3 0.306513 0.693488 0.297039
Si Si4 0.922130 0.281761 0.116719
Si Si5 0.918318 0.576033 0.223817
Si Si6 0.155858 0.658705 0.383766
Si Si7 0.583768 0.416233 0.382321
O O1 0.080920 0.190550 0.500000
O O2 0.133511 0.133511 0.345302
O O3 0.111064 0.271183 0.357867
O O4 0.000000 0.184796 0.349571
O O5 0.718954 0.281047 0.812937
O O6 0.755571 0.149705 0.853687
O O7 0.759407 0.240594 0.000000
O O8 0.235525 0.669772 0.351360
O O9 0.365962 0.634039 0.316546
O O10 0.910347 0.362507 0.145318
O O11 0.000000 0.261196 0.155220
O O12 0.925594 0.273880 0.000000
O O13 0.898586 0.500000 0.184724
O O14 0.875166 0.596186 0.319903
O O15 0.000000 0.575452 0.251286
O O16 0.150722 0.647811 0.500000
O O17 0.596372 0.500000 0.365325
O O18 0.596823 0.403178 0.500000
#
# Coordination Sequence:
#
# PCOD9562130 Si02
#       7
#    16   8   8  16  16  16   8
#     4   9  17  29  45  65  92 131 178 223 267 313
#     4  10  20  37  61  89 117 144 185 240 289 338
#     4  12  21  36  60  85 111 143 183 229 281 335
#     4   9  18  35  59  84 112 148 187 230 285 344
#     4  10  21  35  51  75 107 144 186 228 274 330
#     4  11  21  34  51  75 108 145 183 225 272 327
#     4   9  20  40  64  90 120 154 192 231 271 322
#
# _framework density 17.820205999999999
#
# number of rings (size 3 to 8) (size 9 to 14) (size 15 to 20)
#    0.000    2.091    2.727    1.636    0.000    2.727 
#    0.000    3.636    0.000    0.818    0.000    2.545 
#    0.000    0.000    0.000    0.000    0.000    0.000 
#
# Total GULP energy -490469.587015 kJ/mol
# GULP energy per Si atom -5573.518034 kJ/mol
# Density = 1.777965 g / cm^3
# Si number density = 17.820206 Si / 1000 Ang^3
#
#
#
# Elastic Constant Matrix: (Units=GPa)
#
#
# Indices 1 2 3 4 5 6 
#
# 1 93.9951 64.5088 -1.1095 0.0000 0.0000 0.0000
# 2 64.5088 93.9951 -1.1096 0.0000 0.0000 0.0000
# 3 -1.1095 -1.1096 31.6347 0.0000 0.0000 0.0000
# 4 0.0000 0.0000 0.0000 20.2297 0.0000 0.0000
# 5 0.0000 0.0000 0.0000 0.0000 20.2298 0.0000
# 6 0.0000 0.0000 0.0000 0.0000 0.0000 26.4786
#
#
#
# Elastic Compliance Matrix: (Units=1/GPa)
#
#
# Indices 1 2 3 4 5 6 
#
# 1 0.020113 -0.013801 0.000221 0.000000 0.000000 0.000000
# 2 -0.013801 0.020113 0.000221 0.000000 0.000000 0.000000
# 3 0.000221 0.000221 0.031626 0.000000 0.000000 0.000000
# 4 0.000000 0.000000 0.000000 0.049432 0.000000 0.000000
# 5 0.000000 0.000000 0.000000 0.000000 0.049432 0.000000
# 6 0.000000 0.000000 0.000000 0.000000 0.000000 0.037766
#
#
# Mechanical properties :
#
#
# Convention : Reuss Voigt Hill
#
# Bulk Modulus (GPa) = 22.15521 38.24494 30.20007
# Shear Modulus (GPa) = 19.98043 23.87664 21.92854
#
# Velocity S-wave (km/s) = 3.35210 3.66439 3.51172
# Velocity P-wave (km/s) = 5.23848 6.27788 5.78159
#
# Compressibility (1/GPa) = 0.04513611
#
# Stress axis : x y z
#
# Youngs Moduli (GPa) = 49.71892 49.71890 31.61918
#
# Poissons Ratio (x) = 0.68617 -0.00700
# Poissons Ratio (y) = 0.68617 -0.00700
# Poissons Ratio (z) = -0.01101 -0.01101
#
# Static dielectric constant tensor:
#      x y z
#    x 1.689030 0.000000 0.000000 
#    y 0.000000 1.689040 0.000000 
#    z 0.000000 0.000000 1.633540 
# 
# From -- ./inp_files/4121.got.cif
#   From: 2010.05.17/outbox.cif.g08.bks.cpg/sg123_3_cif.got.tgz:4121.got - 2010.05.20 11:43:04.
