data_PCOD9562864
_publ_section_title
;
Structure prediction by ZEFSAII (Michael W. Deem and Ramdas Pophale) SiO2 
 PCOD9562864
Probable space group: P 4/M C C
;
_chemical_formula_sum "Si O2"
_cell_formula_units_Z 96
_cell_length_a 15.000000
_cell_length_b 15.000000
_cell_length_c 21.000000
_cell_angle_alpha 90.000000
_cell_angle_beta 90.000000
_cell_angle_gamma 90.000000
_cell_volume 4725.000000
_symmetry_space_group_name_H-M "P 4/M C C"
_symmetry_group_IT_number 124
_symmetry_cell_setting 'tetragonal'
loop_
_space_group_symop_operation_xyz
x,y,z
-y,x,z
-x,-y,z
y,-x,z
x,-y,1/2-z
-x,y,1/2-z
y,x,1/2-z
-y,-x,1/2-z
-x,-y,-z
y,-x,-z
x,y,-z
-y,x,-z
-x,y,1/2+z
x,-y,1/2+z
-y,-x,1/2+z
y,x,1/2+z
loop_
_atom_site_type_symbol
_atom_site_label
_atom_site_fract_x
_atom_site_fract_y
_atom_site_fract_z
Si Si1 0.293984 0.323381 0.070886
Si Si2 0.859916 0.421146 0.205727
Si Si3 0.284869 0.194174 0.302777
Si Si4 0.525730 0.228594 0.428305
Si Si5 0.955054 0.143125 0.930938
Si Si6 0.261294 0.992973 0.317485
O O1 0.255523 0.278665 0.135027
O O2 0.399063 0.304937 0.071854
O O3 0.266951 0.426433 0.075589
O O4 0.261990 0.291359 0.000000
O O5 0.893640 0.500000 0.250000
O O6 0.792025 0.370275 0.255399
O O7 0.826286 0.454385 0.136643
O O8 0.935896 0.349114 0.193676
O O9 0.207898 0.207898 0.250000
O O10 0.286068 0.094977 0.331455
O O11 0.533632 0.184931 0.500000
O O12 0.944966 0.207020 0.872126
O O13 0.056293 0.106568 0.927728
O O14 0.941660 0.186492 0.000000
O O15 0.210960 0.000000 0.250000
#
# Coordination Sequence:
#
# PCOD9562864 Si02
#       6
#    16  16  16  16  16  16
#     4  10  21  38  60  89 120 159 201 250 306 364
#     4  11  22  41  62  86 121 164 202 250 309 371
#     4  11  22  38  61  88 121 156 204 253 305 364
#     4  10  21  38  62  90 122 158 202 249 305 367
#     4   9  20  39  61  86 122 165 203 248 310 372
#     4  10  25  37  58  92 119 155 204 255 307 360
#
# _framework density 20.317460000000001
#
# number of rings (size 3 to 8) (size 9 to 14) (size 15 to 20)
#    0.000    1.833    3.333    0.500    4.667    4.667 
#    0.000    5.833    0.000    2.000    0.000    0.000 
#    0.000    0.000    0.000    0.000    0.000    0.000 
#
# Total GULP energy -534848.691992 kJ/mol
# GULP energy per Si atom -5571.340542 kJ/mol
# Density = 2.027122 g / cm^3
# Si number density = 20.317460 Si / 1000 Ang^3
#
#
#
# Elastic Constant Matrix: (Units=GPa)
#
#
# Indices 1 2 3 4 5 6 
#
# 1 63.1009 10.8497 42.5368 0.0000 0.0000 0.0000
# 2 10.8497 63.1009 42.5368 0.0000 0.0000 0.0000
# 3 42.5368 42.5368 165.1741 0.0000 0.0000 0.0000
# 4 0.0000 0.0000 0.0000 14.1889 0.0000 0.0000
# 5 0.0000 0.0000 0.0000 0.0000 14.1889 0.0000
# 6 0.0000 0.0000 0.0000 0.0000 0.0000 12.5153
#
#
#
# Elastic Compliance Matrix: (Units=1/GPa)
#
#
# Indices 1 2 3 4 5 6 
#
# 1 0.019177 0.000038 -0.004948 0.000000 0.000000 0.000000
# 2 0.000038 0.019177 -0.004948 0.000000 0.000000 0.000000
# 3 -0.004948 -0.004948 0.008603 0.000000 0.000000 0.000000
# 4 0.000000 0.000000 0.000000 0.070478 0.000000 0.000000
# 5 0.000000 0.000000 0.000000 0.000000 0.070478 0.000000
# 6 0.000000 0.000000 0.000000 0.000000 0.000000 0.079902
#
#
# Mechanical properties :
#
#
# Convention : Reuss Voigt Hill
#
# Bulk Modulus (GPa) = 36.71112 53.69138 45.20125
# Shear Modulus (GPa) = 16.85710 21.20879 19.03295
#
# Velocity S-wave (km/s) = 2.88355 3.23440 3.06400
# Velocity P-wave (km/s) = 5.40319 6.35862 5.90028
#
# Compressibility (1/GPa) = 0.02723970
#
# Stress axis : x y z
#
# Youngs Moduli (GPa) = 52.14634 52.14634 116.23943
#
# Poissons Ratio (x) = -0.00201 0.57520
# Poissons Ratio (y) = -0.00201 0.57520
# Poissons Ratio (z) = 0.25804 0.25804
#
# Static dielectric constant tensor:
#      x y z
#    x 1.760100 0.000000 0.000000 
#    y 0.000000 1.760100 0.000000 
#    z 0.000000 0.000000 1.769480 
# 
# From -- ./inp_files/5323.got.cif
#   From: 2010.05.17/outbox.ucp.g08.bks.cvg/sg124_3_cif.got.tgz:5323.got - 2010.06.11 11:36:13.
