data_PCOD9562208
_publ_section_title
;
Structure prediction by ZEFSAII (Michael W. Deem and Ramdas Pophale) SiO2 
 PCOD9562208
Probable space group: P 4/M M M
;
_chemical_formula_sum "Si O2"
_cell_formula_units_Z 72
_cell_length_a 20.826303
_cell_length_b 20.826303
_cell_length_c 8.076983
_cell_angle_alpha 90.000000
_cell_angle_beta 90.000000
_cell_angle_gamma 90.000000
_cell_volume 3503.269387
_symmetry_space_group_name_H-M "P 4/M M M"
_symmetry_group_IT_number 123
_symmetry_cell_setting 'tetragonal'
loop_
_space_group_symop_operation_xyz
x,y,z
-y,x,z
-x,-y,z
y,-x,z
x,-y,-z
-x,y,-z
y,x,-z
-y,-x,-z
-x,-y,-z
y,-x,-z
x,y,-z
-y,x,-z
-x,y,z
x,-y,z
-y,-x,z
y,x,z
loop_
_atom_site_type_symbol
_atom_site_label
_atom_site_fract_x
_atom_site_fract_y
_atom_site_fract_z
Si Si1 0.149522 0.694682 0.808200
Si Si2 0.268794 0.374496 0.322925
Si Si3 0.177714 0.073832 0.202194
Si Si4 0.681066 0.428722 0.000000
Si Si5 0.076785 0.428636 0.696775
O O1 0.212777 0.677054 0.707308
O O2 0.110026 0.756626 0.748598
O O3 0.106974 0.630598 0.792426
O O4 0.167359 0.706031 0.000000
O O5 0.258316 0.407305 0.500000
O O6 0.334556 0.334556 0.330408
O O7 0.275416 0.418372 0.162439
O O8 0.116924 0.116924 0.253436
O O9 0.175782 0.000000 0.258970
O O10 0.178009 0.072402 0.000000
O O11 0.653360 0.500000 0.000000
O O12 0.625337 0.374664 0.000000
O O13 0.090221 0.421196 0.500000
O O14 0.099362 0.500000 0.747401
O O15 0.000000 0.427209 0.716178
#
# Coordination Sequence:
#
# PCOD9562208 Si02
#       5
#    16  16  16   8  16
#     4  11  20  32  53  81 114 151 195 245 298 364
#     4  10  21  38  60  86 118 156 196 242 297 353
#     4   9  18  31  49  76 110 151 200 255 314 375
#     4  10  22  41  64  92 125 161 202 248 300 356
#     4   9  19  35  51  69 100 142 186 235 289 344
#
# _framework density 20.552230999999999
#
# number of rings (size 3 to 8) (size 9 to 14) (size 15 to 20)
#    0.000    2.222    1.111    2.667    0.000    4.333 
#    0.000    2.222    0.000    0.000    0.000    3.111 
#    0.000    0.000    0.000   13.778    0.000   14.222 
#
# Total GULP energy -401853.922699 kJ/mol
# GULP energy per Si atom -5581.304482 kJ/mol
# Density = 2.050545 g / cm^3
# Si number density = 20.552231 Si / 1000 Ang^3
#
#
#
# Elastic Constant Matrix: (Units=GPa)
#
#
# Indices 1 2 3 4 5 6 
#
# 1 87.8578 23.5763 28.6338 0.0000 0.0000 0.0000
# 2 23.5763 87.8619 28.6342 0.0000 0.0000 0.0000
# 3 28.6338 28.6342 95.7694 0.0000 0.0000 0.0000
# 4 0.0000 0.0000 0.0000 -4.0430 0.0000 0.0000
# 5 0.0000 0.0000 0.0000 0.0000 -4.0425 0.0000
# 6 0.0000 0.0000 0.0000 0.0000 0.0000 16.6801
#
#
#
# Elastic Compliance Matrix: (Units=1/GPa)
#
#
# Indices 1 2 3 4 5 6 
#
# 1 0.013080 -0.002477 -0.003170 0.000000 0.000000 0.000000
# 2 -0.002477 0.013079 -0.003170 0.000000 0.000000 0.000000
# 3 -0.003170 -0.003170 0.012337 0.000000 0.000000 0.000000
# 4 0.000000 0.000000 0.000000 -0.247340 0.000000 0.000000
# 5 0.000000 0.000000 0.000000 0.000000 -0.247369 0.000000
# 6 0.000000 0.000000 0.000000 0.000000 0.000000 0.059952
#
#
# Mechanical properties :
#
#
# Convention : Reuss Voigt Hill
#
# Bulk Modulus (GPa) = 47.93256 48.13085 48.03170
# Shear Modulus (GPa) = -13.45268 14.42855 0.48794
#
# Velocity S-wave (km/s) = -2.56121 2.65248 0.48778
# Velocity P-wave (km/s) = 3.82446 5.73154 4.87222
#
# Compressibility (1/GPa) = 0.02086265
#
# Stress axis : x y z
#
# Youngs Moduli (GPa) = 76.45368 76.45731 81.05408
#
# Poissons Ratio (x) = 0.18935 0.25696
# Poissons Ratio (y) = 0.18934 0.25695
# Poissons Ratio (z) = 0.24237 0.24238
#
# Static dielectric constant tensor:
#      x y z
#    x 1.725540 0.000000 0.000000 
#    y 0.000000 1.725540 0.000000 
#    z 0.000000 0.000000 1.782390 
# 
# From -- ./inp_files/1051.got.cif
#   From: 2010.05.17/outbox.cif.g08.bks.cpg/sg123_1_cif.got.tgz:1051.got - 2010.05.20 11:43:04.
