data_PCOD9562041
_publ_section_title
;
Structure prediction by ZEFSAII (Michael W. Deem and Ramdas Pophale) SiO2 
 PCOD9562041
Probable space group: P 4/M M M
;
_chemical_formula_sum "Si O2"
_cell_formula_units_Z 56
_cell_length_a 13.768621
_cell_length_b 13.768621
_cell_length_c 18.499229
_cell_angle_alpha 90.000000
_cell_angle_beta 90.000000
_cell_angle_gamma 90.000000
_cell_volume 3506.989936
_symmetry_space_group_name_H-M "P 4/M M M"
_symmetry_group_IT_number 123
_symmetry_cell_setting 'tetragonal'
loop_
_space_group_symop_operation_xyz
x,y,z
-y,x,z
-x,-y,z
y,-x,z
x,-y,-z
-x,y,-z
y,x,-z
-y,-x,-z
-x,-y,-z
y,-x,-z
x,y,-z
-y,x,-z
-x,y,z
x,-y,z
-y,-x,z
y,x,z
loop_
_atom_site_type_symbol
_atom_site_label
_atom_site_fract_x
_atom_site_fract_y
_atom_site_fract_z
Si Si1 0.773674 0.384755 0.420183
Si Si2 0.116422 0.274813 0.128836
Si Si3 0.615801 0.777890 0.000000
Si Si4 0.612098 0.115903 0.275107
O O1 0.817275 0.363553 0.500000
O O2 0.757971 0.500000 0.416809
O O3 0.673941 0.326060 0.415882
O O4 0.837600 0.357320 0.351069
O O5 0.173228 0.173228 0.120067
O O6 0.160768 0.347587 0.069242
O O7 0.139508 0.319750 0.207533
O O8 0.000000 0.266352 0.121051
O O9 0.500000 0.764711 0.000000
O O10 0.677101 0.677101 0.000000
O O11 0.500000 0.145515 0.259881
O O12 0.612511 0.000000 0.283029
#
# Coordination Sequence:
#
# PCOD9562041 Si02
#       4
#    16  16   8  16
#     4   9  17  28  42  61  86 116 148 183 224 270
#     4  10  20  33  50  72  97 126 159 194 233 276
#     4  10  21  36  54  76 100 126 157 192 230 274
#     4   9  17  29  46  67  89 115 149 189 232 276
#
# _framework density 15.968109
#
# number of rings (size 3 to 8) (size 9 to 14) (size 15 to 20)
#    0.000    2.571    0.000    2.143    0.000    3.571 
#    0.000    4.286    0.000    2.571    0.000    4.000 
#    0.000    0.000    0.000   26.571    0.000    0.571 
#
# Total GULP energy -311902.138807 kJ/mol
# GULP energy per Si atom -5569.681050 kJ/mol
# Density = 1.593177 g / cm^3
# Si number density = 15.968109 Si / 1000 Ang^3
#
#
#
# Elastic Constant Matrix: (Units=GPa)
#
#
# Indices 1 2 3 4 5 6 
#
# 1 77.3696 49.6406 54.3953 0.0000 0.0000 0.0000
# 2 49.6406 77.3696 54.3953 0.0000 0.0000 0.0000
# 3 54.3953 54.3953 137.7143 0.0000 0.0000 0.0000
# 4 0.0000 0.0000 0.0000 24.0877 0.0000 0.0000
# 5 0.0000 0.0000 0.0000 0.0000 24.0877 0.0000
# 6 0.0000 0.0000 0.0000 0.0000 0.0000 17.5421
#
#
#
# Elastic Compliance Matrix: (Units=1/GPa)
#
#
# Indices 1 2 3 4 5 6 
#
# 1 0.023981 -0.012082 -0.004700 0.000000 0.000000 0.000000
# 2 -0.012082 0.023981 -0.004700 0.000000 0.000000 0.000000
# 3 -0.004700 -0.004700 0.010974 0.000000 0.000000 0.000000
# 4 0.000000 0.000000 0.000000 0.041515 0.000000 0.000000
# 5 0.000000 0.000000 0.000000 0.000000 0.041515 0.000000
# 6 0.000000 0.000000 0.000000 0.000000 0.000000 0.057006
#
#
# Mechanical properties :
#
#
# Convention : Reuss Voigt Hill
#
# Bulk Modulus (GPa) = 62.60725 67.70178 65.15451
# Shear Modulus (GPa) = 20.22156 22.07831 21.14993
#
# Velocity S-wave (km/s) = 3.56247 3.72243 3.64333
# Velocity P-wave (km/s) = 7.49763 7.80804 7.65441
#
# Compressibility (1/GPa) = 0.01597259
#
# Stress axis : x y z
#
# Youngs Moduli (GPa) = 41.69930 41.69930 91.12199
#
# Poissons Ratio (x) = 0.50381 0.42828
# Poissons Ratio (y) = 0.50381 0.42828
# Poissons Ratio (z) = 0.19599 0.19599
#
# Static dielectric constant tensor:
#      x y z
#    x 1.513600 0.000000 0.000000 
#    y 0.000000 1.513600 0.000000 
#    z 0.000000 0.000000 1.557370 
# 
# From -- ./inp_files/3717.got.cif
#   From: 2010.05.17/outbox.cif.g08.bks.cpg/sg123_2_cif.got.tgz:3717.got - 2010.05.20 11:43:04.
