data_PCOD9562270
_publ_section_title
;
Structure prediction by ZEFSAII (Michael W. Deem and Ramdas Pophale) SiO2 
 PCOD9562270
Probable space group: P 4/M M M
;
_chemical_formula_sum "Si O2"
_cell_formula_units_Z 44
_cell_length_a 17.544882
_cell_length_b 17.544882
_cell_length_c 7.505202
_cell_angle_alpha 90.000000
_cell_angle_beta 90.000000
_cell_angle_gamma 90.000000
_cell_volume 2310.272928
_symmetry_space_group_name_H-M "P 4/M M M"
_symmetry_group_IT_number 123
_symmetry_cell_setting 'tetragonal'
loop_
_space_group_symop_operation_xyz
x,y,z
-y,x,z
-x,-y,z
y,-x,z
x,-y,-z
-x,y,-z
y,x,-z
-y,-x,-z
-x,-y,-z
y,-x,-z
x,y,-z
-y,x,-z
-x,y,z
x,-y,z
-y,-x,z
y,x,z
loop_
_atom_site_type_symbol
_atom_site_label
_atom_site_fract_x
_atom_site_fract_y
_atom_site_fract_z
Si Si1 0.211030 0.333092 0.712244
Si Si2 0.791333 0.086568 0.215028
Si Si3 0.500000 0.224214 0.297037
Si Si4 0.500000 0.373087 0.500000
O O1 0.224580 0.341889 0.500000
O O2 0.281043 0.281043 0.781904
O O3 0.135277 0.283247 0.736888
O O4 0.204731 0.418531 0.786161
O O5 0.863729 0.136272 0.277652
O O6 0.790497 0.000000 0.280278
O O7 0.794873 0.084367 0.000000
O O8 0.500000 0.190008 0.500000
O O9 0.500000 0.315305 0.333819
O O10 0.573608 0.426393 0.500000
#
# Coordination Sequence:
#
# PCOD9562270 Si02
#       4
#    16  16   8   4
#     4   9  16  28  46  66  90 121 152 184 222 264
#     4   9  18  32  49  68  89 113 144 184 229 276
#     4   8  15  24  40  62  91 118 150 181 215 259
#     4   9  14  20  36  64  95 120 146 188 233 264
#
# _framework density 19.045369000000001
#
# number of rings (size 3 to 8) (size 9 to 14) (size 15 to 20)
#    0.545    2.636    0.000    1.091    0.000    1.091 
#    0.000    3.636    0.000    5.455    0.000    5.091 
#    0.000    0.000    0.000   22.182    0.000    0.000 
#
# Total GULP energy -244987.706832 kJ/mol
# GULP energy per Si atom -5567.902428 kJ/mol
# Density = 1.900202 g / cm^3
# Si number density = 19.045369 Si / 1000 Ang^3
#
#
#
# Elastic Constant Matrix: (Units=GPa)
#
#
# Indices 1 2 3 4 5 6 
#
# 1 182.1462 96.5869 2.9439 0.0000 0.0000 0.0000
# 2 96.5869 182.1465 2.9439 0.0000 0.0000 0.0000
# 3 2.9439 2.9439 47.9809 0.0000 0.0000 0.0000
# 4 0.0000 0.0000 0.0000 12.7136 0.0000 0.0000
# 5 0.0000 0.0000 0.0000 0.0000 12.7194 0.0000
# 6 0.0000 0.0000 0.0000 0.0000 0.0000 9.7263
#
#
#
# Elastic Compliance Matrix: (Units=1/GPa)
#
#
# Indices 1 2 3 4 5 6 
#
# 1 0.007640 -0.004048 -0.000220 0.000000 0.000000 0.000000
# 2 -0.004048 0.007640 -0.000220 0.000000 0.000000 0.000000
# 3 -0.000220 -0.000220 0.020869 0.000000 0.000000 0.000000
# 4 0.000000 0.000000 0.000000 0.078656 0.000000 0.000000
# 5 0.000000 0.000000 0.000000 0.000000 0.078620 0.000000
# 6 0.000000 0.000000 0.000000 0.000000 0.000000 0.102814
#
#
# Mechanical properties :
#
#
# Convention : Reuss Voigt Hill
#
# Bulk Modulus (GPa) = 36.80305 68.58033 52.69169
# Shear Modulus (GPa) = 15.90973 27.68512 21.79742
#
# Velocity S-wave (km/s) = 2.89339 3.81680 3.38672
# Velocity P-wave (km/s) = 5.52523 7.45057 6.55893
#
# Compressibility (1/GPa) = 0.02717166
#
# Stress axis : x y z
#
# Youngs Moduli (GPa) = 130.88916 130.88934 47.91872
#
# Poissons Ratio (x) = 0.52980 0.01056
# Poissons Ratio (y) = 0.52980 0.01056
# Poissons Ratio (z) = 0.02885 0.02885
#
# Static dielectric constant tensor:
#      x y z
#    x 1.662910 0.000000 0.000000 
#    y 0.000000 1.662910 0.000000 
#    z 0.000000 0.000000 1.747440 
# 
# From -- ./inp_files/440.got.cif
#   From: 2010.05.17/outbox.cif.g08.bks.cpg/sg123_1_cif.got.tgz:440.got - 2010.05.20 11:43:04.
