data_PCOD9562179
_publ_section_title
;
Structure prediction by ZEFSAII (Michael W. Deem and Ramdas Pophale) SiO2 
 PCOD9562179
Probable space group: P 4/M M M
;
_chemical_formula_sum "Si O2"
_cell_formula_units_Z 96
_cell_length_a 23.779192
_cell_length_b 23.779192
_cell_length_c 7.586456
_cell_angle_alpha 90.000000
_cell_angle_beta 90.000000
_cell_angle_gamma 90.000000
_cell_volume 4289.761334
_symmetry_space_group_name_H-M "P 4/M M M"
_symmetry_group_IT_number 123
_symmetry_cell_setting 'tetragonal'
loop_
_space_group_symop_operation_xyz
x,y,z
-y,x,z
-x,-y,z
y,-x,z
x,-y,-z
-x,y,-z
y,x,-z
-y,-x,-z
-x,-y,-z
y,-x,-z
x,y,-z
-y,x,-z
-x,y,z
x,-y,z
-y,-x,z
y,x,z
loop_
_atom_site_type_symbol
_atom_site_label
_atom_site_fract_x
_atom_site_fract_y
_atom_site_fract_z
Si Si1 0.564923 0.656001 0.215917
Si Si2 0.096066 0.563000 0.701702
Si Si3 0.154748 0.241486 0.202251
Si Si4 0.567698 0.221791 0.800242
Si Si5 0.318222 0.060849 0.795360
Si Si6 0.936848 0.149977 0.287570
O O1 0.500000 0.647208 0.270754
O O2 0.606302 0.606302 0.270871
O O3 0.586287 0.717906 0.273383
O O4 0.564741 0.657741 0.000000
O O5 0.077184 0.561779 0.500000
O O6 0.088595 0.500000 0.776959
O O7 0.162881 0.576185 0.705895
O O8 0.065612 0.614678 0.791181
O O9 0.210047 0.210047 0.279599
O O10 0.118530 0.292552 0.283607
O O11 0.106442 0.193778 0.205687
O O12 0.169540 0.256273 0.000000
O O13 0.500000 0.228382 0.809815
O O14 0.589537 0.215083 0.000000
O O15 0.301068 0.000000 0.717418
O O16 0.300582 0.060379 0.000000
O O17 0.935318 0.158487 0.500000
O O18 0.911605 0.088396 0.253102
O O19 0.000000 0.157223 0.225527
#
# Coordination Sequence:
#
# PCOD9562179 Si02
#       6
#    16  16  16  16  16  16
#     4   8  13  21  36  62  95 130 169 213 262 316
#     4  10  21  36  54  76 101 130 166 209 257 307
#     4   9  18  34  55  76  99 129 166 207 246 284
#     4   8  14  27  47  67  89 122 163 203 244 295
#     4  10  21  36  55  80 108 138 171 204 243 298
#     4   9  17  28  43  65  93 126 163 201 242 287
#
# _framework density 22.378867
#
# number of rings (size 3 to 8) (size 9 to 14) (size 15 to 20)
#    0.000    3.000    0.000    2.000    0.000    3.667 
#    0.000    4.167    0.000    5.500    0.000    2.333 
#    0.000    0.000    0.000    6.500    0.000    6.667 
#
# Total GULP energy -534871.059455 kJ/mol
# GULP energy per Si atom -5571.573536 kJ/mol
# Density = 2.232793 g / cm^3
# Si number density = 22.378867 Si / 1000 Ang^3
#
#
#
# Elastic Constant Matrix: (Units=GPa)
#
#
# Indices 1 2 3 4 5 6 
#
# 1 91.5832 34.9390 1.2179 0.0000 0.0000 0.0000
# 2 34.9390 91.5832 1.2179 0.0000 0.0000 0.0000
# 3 1.2179 1.2179 51.0979 0.0000 0.0000 0.0000
# 4 0.0000 0.0000 0.0000 -0.7088 0.0000 0.0000
# 5 0.0000 0.0000 0.0000 0.0000 -0.7088 0.0000
# 6 0.0000 0.0000 0.0000 0.0000 0.0000 22.3848
#
#
#
# Elastic Compliance Matrix: (Units=1/GPa)
#
#
# Indices 1 2 3 4 5 6 
#
# 1 0.012781 -0.004873 -0.000188 0.000000 0.000000 0.000000
# 2 -0.004873 0.012781 -0.000188 0.000000 0.000000 0.000000
# 3 -0.000188 -0.000188 0.019579 0.000000 0.000000 0.000000
# 4 0.000000 0.000000 0.000000 -1.410801 0.000000 0.000000
# 5 0.000000 0.000000 0.000000 0.000000 -1.410801 0.000000
# 6 0.000000 0.000000 0.000000 0.000000 0.000000 0.044673
#
#
# Mechanical properties :
#
#
# Convention : Reuss Voigt Hill
#
# Bulk Modulus (GPa) = 28.86823 34.33486 31.60155
# Shear Modulus (GPa) = -1.84520 17.31940 7.73710
#
# Velocity S-wave (km/s) = -0.90902 2.78496 1.86141
# Velocity P-wave (km/s) = 3.43890 5.07121 4.33262
#
# Compressibility (1/GPa) = 0.03464016
#
# Stress axis : x y z
#
# Youngs Moduli (GPa) = 78.24280 78.24280 51.07448
#
# Poissons Ratio (x) = 0.38130 0.00963
# Poissons Ratio (y) = 0.38130 0.00963
# Poissons Ratio (z) = 0.01475 0.01475
#
# Static dielectric constant tensor:
#      x y z
#    x 1.855220 0.000000 0.000000 
#    y 0.000000 1.855220 0.000000 
#    z 0.000000 0.000000 1.854860 
# 
# From -- ./inp_files/1570.got.cif
#   From: 2010.05.17/outbox.cif.g08.bks.cpg/sg123_1_cif.got.tgz:1570.got - 2010.05.20 11:43:04.
