data_PCOD9562528
_publ_section_title
;
Structure prediction by ZEFSAII (Michael W. Deem and Ramdas Pophale) SiO2 
 PCOD9562528
Probable space group: P 4/M C C
;
_chemical_formula_sum "Si O2"
_cell_formula_units_Z 48
_cell_length_a 15.630625
_cell_length_b 15.630625
_cell_length_c 8.977642
_cell_angle_alpha 90.000000
_cell_angle_beta 90.000000
_cell_angle_gamma 90.000000
_cell_volume 2193.385514
_symmetry_space_group_name_H-M "P 4/M C C"
_symmetry_group_IT_number 124
_symmetry_cell_setting 'tetragonal'
loop_
_space_group_symop_operation_xyz
x,y,z
-y,x,z
-x,-y,z
y,-x,z
x,-y,1/2-z
-x,y,1/2-z
y,x,1/2-z
-y,-x,1/2-z
-x,-y,-z
y,-x,-z
x,y,-z
-y,x,-z
-x,y,1/2+z
x,-y,1/2+z
-y,-x,1/2+z
y,x,1/2+z
loop_
_atom_site_type_symbol
_atom_site_label
_atom_site_fract_x
_atom_site_fract_y
_atom_site_fract_z
Si Si1 0.411992 0.892121 0.668449
Si Si2 0.310545 0.418043 0.662012
Si Si3 0.774271 0.090771 0.818903
O O1 0.500000 0.917260 0.750000
O O2 0.403582 0.928780 0.500000
O O3 0.422565 0.790513 0.651480
O O4 0.324895 0.903993 0.762537
O O5 0.342887 0.500000 0.750000
O O6 0.333847 0.333847 0.750000
O O7 0.349631 0.414277 0.500000
O O8 0.832452 0.167549 0.750000
O O9 0.805901 0.000000 0.750000
O O10 0.777837 0.092056 0.000000
#
# Coordination Sequence:
#
# PCOD9562528 Si02
#       3
#    16  16  16
#     4  10  21  39  64  96 131 170 214 266 326 391
#     4  10  20  33  51  75 108 149 198 252 311 375
#     4  12  26  46  71 101 136 177 225 278 336 401
#
# _framework density 21.883977999999999
#
# number of rings (size 3 to 8) (size 9 to 14) (size 15 to 20)
#    0.000    1.333    0.000    6.000    0.000    8.000 
#    0.000    6.667    0.000    0.000    0.000    0.000 
#    0.000    0.000    0.000    0.000    0.000    0.000 
#
# Total GULP energy -267959.986970 kJ/mol
# GULP energy per Si atom -5582.499729 kJ/mol
# Density = 2.183417 g / cm^3
# Si number density = 21.883978 Si / 1000 Ang^3
#
#
#
# Elastic Constant Matrix: (Units=GPa)
#
#
# Indices 1 2 3 4 5 6 
#
# 1 112.8360 57.7101 74.5033 0.0000 0.0000 0.0000
# 2 57.7101 112.8320 74.5017 0.0000 0.0000 0.0000
# 3 74.5033 74.5017 239.0124 0.0000 0.0000 0.0000
# 4 0.0000 0.0000 0.0000 157.0045 0.0000 0.0000
# 5 0.0000 0.0000 0.0000 0.0000 156.9919 0.0000
# 6 0.0000 0.0000 0.0000 0.0000 0.0000 -65.9060
#
#
#
# Elastic Compliance Matrix: (Units=1/GPa)
#
#
# Indices 1 2 3 4 5 6 
#
# 1 0.013099 -0.005041 -0.002512 0.000000 0.000000 0.000000
# 2 -0.005041 0.013100 -0.002512 0.000000 0.000000 0.000000
# 3 -0.002512 -0.002512 0.005750 0.000000 0.000000 0.000000
# 4 0.000000 0.000000 0.000000 0.006369 0.000000 0.000000
# 5 0.000000 0.000000 0.000000 0.000000 0.006370 0.000000
# 6 0.000000 0.000000 0.000000 0.000000 0.000000 -0.015173
#
#
# Mechanical properties :
#
#
# Convention : Reuss Voigt Hill
#
# Bulk Modulus (GPa) = 84.61032 97.56784 91.08908
# Shear Modulus (GPa) = 93.31069 66.81578 80.06324
#
# Velocity S-wave (km/s) = 6.53692 5.53156 6.05514
# Velocity P-wave (km/s) = 9.78377 9.24545 9.51842
#
# Compressibility (1/GPa) = 0.01181889
#
# Stress axis : x y z
#
# Youngs Moduli (GPa) = 76.33973 76.33718 173.91929
#
# Poissons Ratio (x) = 0.38485 0.43685
# Poissons Ratio (y) = 0.38486 0.43685
# Poissons Ratio (z) = 0.19175 0.19174
#
# Static dielectric constant tensor:
#      x y z
#    x 1.821630 0.000000 0.000000 
#    y 0.000000 1.821630 0.000000 
#    z 0.000000 0.000000 1.736110 
# 
# From -- ./inp_files/475.got.cif
#   From: 2010.05.17/outbox.cif.g08.bks.cpg/sg124_1_cif.got.tgz:475.got - 2010.05.20 11:49:17.
