data_PCOD9562587
_publ_section_title
;
Structure prediction by ZEFSAII (Michael W. Deem and Ramdas Pophale) SiO2 
 PCOD9562587
Probable space group: P 4/M C C
;
_chemical_formula_sum "Si O2"
_cell_formula_units_Z 96
_cell_length_a 23.570607
_cell_length_b 23.570607
_cell_length_c 9.551094
_cell_angle_alpha 90.000000
_cell_angle_beta 90.000000
_cell_angle_gamma 90.000000
_cell_volume 5306.334859
_symmetry_space_group_name_H-M "P 4/M C C"
_symmetry_group_IT_number 124
_symmetry_cell_setting 'tetragonal'
loop_
_space_group_symop_operation_xyz
x,y,z
-y,x,z
-x,-y,z
y,-x,z
x,-y,1/2-z
-x,y,1/2-z
y,x,1/2-z
-y,-x,1/2-z
-x,-y,-z
y,-x,-z
x,y,-z
-y,x,-z
-x,y,1/2+z
x,-y,1/2+z
-y,-x,1/2+z
y,x,1/2+z
loop_
_atom_site_type_symbol
_atom_site_label
_atom_site_fract_x
_atom_site_fract_y
_atom_site_fract_z
Si Si1 0.271317 0.945421 0.659095
Si Si2 0.432476 0.335045 0.500000
Si Si3 0.722144 0.629161 0.744144
Si Si4 0.056691 0.439121 0.827236
Si Si5 0.943114 0.863902 0.664696
Si Si6 0.146177 0.636435 0.831632
Si Si7 0.567540 0.343434 0.500000
O O1 0.285479 0.960815 0.500000
O O2 0.203991 0.936978 0.670564
O O3 0.304469 0.887453 0.689198
O O4 0.286570 0.000000 0.750000
O O5 0.407874 0.297136 0.624710
O O6 0.499740 0.345095 0.500000
O O7 0.402321 0.397128 0.500000
O O8 0.689537 0.689537 0.750000
O O9 0.788441 0.636982 0.714646
O O10 0.692680 0.591827 0.626322
O O11 0.061774 0.500000 0.750000
O O12 0.110799 0.405133 0.769799
O O13 0.000000 0.414819 0.750000
O O14 0.052455 0.441479 0.000000
O O15 0.892905 0.892905 0.750000
O O16 0.945491 0.880288 0.500000
O O17 0.000000 0.879329 0.750000
O O18 0.142828 0.622265 0.000000
#
# Coordination Sequence:
#
# PCOD9562587 Si02
#       7
#    16   8  16  16  16  16   8
#     4   9  20  37  58  82 113 151 194 247 299 347
#     4  10  22  37  64  88 121 153 203 237 306 356
#     4  10  22  40  60  84 123 160 197 246 304 361
#     4  11  23  40  60  86 120 157 197 247 300 350
#     4  10  20  36  57  83 115 150 192 240 296 356
#     4  11  22  39  60  86 117 158 203 247 299 357
#     4  10  20  41  60  90 117 161 189 251 296 360
#
# _framework density 18.091583
#
# number of rings (size 3 to 8) (size 9 to 14) (size 15 to 20)
#    0.000    1.833    0.833    3.500    1.167    5.000 
#    0.000    0.833    0.000    3.000    0.000    0.000 
#    0.000    0.000    0.000    0.000    0.000    0.000 
#
# Total GULP energy -534677.392203 kJ/mol
# GULP energy per Si atom -5569.556169 kJ/mol
# Density = 1.805041 g / cm^3
# Si number density = 18.091583 Si / 1000 Ang^3
#
#
#
# Elastic Constant Matrix: (Units=GPa)
#
#
# Indices 1 2 3 4 5 6 
#
# 1 135.9698 67.2249 71.9572 0.0000 0.0000 0.0000
# 2 67.2249 135.9698 71.9572 0.0000 0.0000 0.0000
# 3 71.9572 71.9572 175.5412 0.0000 0.0000 0.0000
# 4 0.0000 0.0000 0.0000 31.4327 0.0000 0.0000
# 5 0.0000 0.0000 0.0000 0.0000 31.4327 0.0000
# 6 0.0000 0.0000 0.0000 0.0000 0.0000 19.8016
#
#
#
# Elastic Compliance Matrix: (Units=1/GPa)
#
#
# Indices 1 2 3 4 5 6 
#
# 1 0.010741 -0.003806 -0.002843 0.000000 0.000000 0.000000
# 2 -0.003806 0.010741 -0.002843 0.000000 0.000000 0.000000
# 3 -0.002843 -0.002843 0.008027 0.000000 0.000000 0.000000
# 4 0.000000 0.000000 0.000000 0.031814 0.000000 0.000000
# 5 0.000000 0.000000 0.000000 0.000000 0.031814 0.000000
# 6 0.000000 0.000000 0.000000 0.000000 0.000000 0.050501
#
#
# Mechanical properties :
#
#
# Convention : Reuss Voigt Hill
#
# Bulk Modulus (GPa) = 95.00293 96.63996 95.82144
# Shear Modulus (GPa) = 30.09716 32.28948 31.19332
#
# Velocity S-wave (km/s) = 4.08315 4.22925 4.15684
# Velocity P-wave (km/s) = 8.65192 8.79669 8.72461
#
# Compressibility (1/GPa) = 0.01052599
#
# Stress axis : x y z
#
# Youngs Moduli (GPa) = 93.10444 93.10444 124.57689
#
# Poissons Ratio (x) = 0.35435 0.35413
# Poissons Ratio (y) = 0.35435 0.35413
# Poissons Ratio (z) = 0.26466 0.26466
#
# Static dielectric constant tensor:
#      x y z
#    x 1.620870 0.000000 0.000000 
#    y 0.000000 1.620870 0.000000 
#    z 0.000000 0.000000 1.598920 
# 
# From -- ./inp_files/1425.got.cif
#   From: 2010.05.17/outbox.cif.g08.bks.cpg/sg124_1_cif.got.tgz:1425.got - 2010.05.20 11:49:17.
