data_PCOD9562625
_publ_section_title
;
Structure prediction by ZEFSAII (Michael W. Deem and Ramdas Pophale) SiO2 
 PCOD9562625
Probable space group: P 4/M C C
;
_chemical_formula_sum "Si O2"
_cell_formula_units_Z 88
_cell_length_a 15.278012
_cell_length_b 15.278012
_cell_length_c 20.721466
_cell_angle_alpha 90.000000
_cell_angle_beta 90.000000
_cell_angle_gamma 90.000000
_cell_volume 4836.755912
_symmetry_space_group_name_H-M "P 4/M C C"
_symmetry_group_IT_number 124
_symmetry_cell_setting 'tetragonal'
loop_
_space_group_symop_operation_xyz
x,y,z
-y,x,z
-x,-y,z
y,-x,z
x,-y,1/2-z
-x,y,1/2-z
y,x,1/2-z
-y,-x,1/2-z
-x,-y,-z
y,-x,-z
x,y,-z
-y,x,-z
-x,y,1/2+z
x,-y,1/2+z
-y,-x,1/2+z
y,x,1/2+z
loop_
_atom_site_type_symbol
_atom_site_label
_atom_site_fract_x
_atom_site_fract_y
_atom_site_fract_z
Si Si1 0.659561 0.307332 0.824757
Si Si2 0.732790 0.007980 0.671765
Si Si3 0.518493 0.743591 0.124311
Si Si4 0.809945 0.821321 0.672529
Si Si5 0.644342 0.475852 0.500000
Si Si6 0.933714 0.581295 0.575910
O O1 0.678980 0.321021 0.750000
O O2 0.563077 0.264789 0.827217
O O3 0.678945 0.401884 0.856598
O O4 0.733223 0.241984 0.852755
O O5 0.791174 0.092920 0.655952
O O6 0.650274 0.021995 0.624980
O O7 0.712254 0.000000 0.750000
O O8 0.784620 0.919702 0.655958
O O9 0.554288 0.840024 0.107580
O O10 0.472141 0.705204 0.061301
O O11 0.810949 0.810949 0.750000
O O12 0.596016 0.569325 0.500000
O O13 0.920859 0.609399 0.500000
O O14 0.000000 0.500000 0.573896
#
# Coordination Sequence:
#
# PCOD9562625 Si02
#       6
#    16  16  16  16   8  16
#     4  11  23  38  56  88 124 159 200 252 305 365
#     4  10  20  39  63  91 121 158 198 247 306 365
#     4  12  22  39  62  82 118 164 201 247 309 360
#     4   9  19  36  60  88 122 152 196 248 298 363
#     4  11  22  38  57  80 110 152 206 251 293 360
#     4  11  24  41  60  88 124 158 204 257 304 364
#
# _framework density 18.194013999999999
#
# number of rings (size 3 to 8) (size 9 to 14) (size 15 to 20)
#    0.000    1.364    4.545    1.636    0.000    1.091 
#    3.273    3.636    0.000    0.000    0.000    1.273 
#    0.000    0.000    0.000    0.000    0.000    0.000 
#
# Total GULP energy -490202.890896 kJ/mol
# GULP energy per Si atom -5570.487397 kJ/mol
# Density = 1.815260 g / cm^3
# Si number density = 18.194014 Si / 1000 Ang^3
#
#
#
# Elastic Constant Matrix: (Units=GPa)
#
#
# Indices 1 2 3 4 5 6 
#
# 1 107.2496 51.2172 30.1150 0.0000 0.0000 0.0000
# 2 51.2172 107.2500 30.1147 0.0000 0.0000 0.0000
# 3 30.1150 30.1147 66.6634 0.0000 0.0000 0.0000
# 4 0.0000 0.0000 0.0000 1381.8849 0.0000 0.0000
# 5 0.0000 0.0000 0.0000 0.0000 1372.2717 0.0000
# 6 0.0000 0.0000 0.0000 0.0000 0.0000 18.7960
#
#
#
# Elastic Compliance Matrix: (Units=1/GPa)
#
#
# Indices 1 2 3 4 5 6 
#
# 1 0.012733 -0.005114 -0.003442 0.000000 0.000000 0.000000
# 2 -0.005114 0.012733 -0.003442 0.000000 0.000000 0.000000
# 3 -0.003442 -0.003442 0.018110 0.000000 0.000000 0.000000
# 4 0.000000 0.000000 0.000000 0.000724 0.000000 0.000000
# 5 0.000000 0.000000 0.000000 0.000000 0.000729 0.000000
# 6 0.000000 0.000000 0.000000 0.000000 0.000000 0.053203
#
#
# Mechanical properties :
#
#
# Convention : Reuss Voigt Hill
#
# Bulk Modulus (GPa) = 51.07053 56.00629 53.53841
# Shear Modulus (GPa) = 38.83424 565.90492 302.36958
#
# Velocity S-wave (km/s) = 4.62502 17.65543 12.90553
# Velocity P-wave (km/s) = 7.52675 21.12981 15.86065
#
# Compressibility (1/GPa) = 0.01958076
#
# Stress axis : x y z
#
# Youngs Moduli (GPa) = 78.53794 78.53851 55.21743
#
# Poissons Ratio (x) = 0.40165 0.19004
# Poissons Ratio (y) = 0.40165 0.19004
# Poissons Ratio (z) = 0.27030 0.27030
#
# Static dielectric constant tensor:
#      x y z
#    x 1.626170 0.000000 0.000000 
#    y 0.000000 1.626180 0.000000 
#    z 0.000000 0.000000 1.731960 
# 
# From -- ./inp_files/5162.got.cif
#   From: 2010.05.17/outbox.cif.g08.bks.cpg/sg124_3_cif.got.tgz:5162.got - 2010.05.20 11:49:17.
