data_PCOD9562473
_publ_section_title
;
Structure prediction by ZEFSAII (Michael W. Deem and Ramdas Pophale) SiO2 
 PCOD9562473
Probable space group: P 4/M C C
;
_chemical_formula_sum "Si O2"
_cell_formula_units_Z 96
_cell_length_a 24.203329
_cell_length_b 24.203329
_cell_length_c 8.701071
_cell_angle_alpha 90.000000
_cell_angle_beta 90.000000
_cell_angle_gamma 90.000000
_cell_volume 5097.097265
_symmetry_space_group_name_H-M "P 4/M C C"
_symmetry_group_IT_number 124
_symmetry_cell_setting 'tetragonal'
loop_
_space_group_symop_operation_xyz
x,y,z
-y,x,z
-x,-y,z
y,-x,z
x,-y,1/2-z
-x,y,1/2-z
y,x,1/2-z
-y,-x,1/2-z
-x,-y,-z
y,-x,-z
x,y,-z
-y,x,-z
-x,y,1/2+z
x,-y,1/2+z
-y,-x,1/2+z
y,x,1/2+z
loop_
_atom_site_type_symbol
_atom_site_label
_atom_site_fract_x
_atom_site_fract_y
_atom_site_fract_z
Si Si1 0.838746 0.557965 0.185410
Si Si2 0.733996 0.180331 0.684904
Si Si3 0.356422 0.438446 0.183504
Si Si4 0.052842 0.608552 0.668435
Si Si5 0.057009 0.739339 0.327409
Si Si6 0.254299 0.625967 0.818439
O O1 0.858152 0.500000 0.250000
O O2 0.887225 0.599305 0.235933
O O3 0.785389 0.574988 0.279334
O O4 0.829043 0.559657 0.000000
O O5 0.785757 0.214244 0.750000
O O6 0.733079 0.179294 0.500000
O O7 0.739960 0.116778 0.743148
O O8 0.680021 0.218093 0.733213
O O9 0.345329 0.500000 0.250000
O O10 0.413333 0.413333 0.250000
O O11 0.309546 0.393647 0.232911
O O12 0.358012 0.441554 0.000000
O O13 0.055545 0.583298 0.500000
O O14 0.045732 0.673882 0.657159
O O15 0.000000 0.584400 0.750000
O O16 0.063148 0.762362 0.500000
O O17 0.000000 0.761773 0.250000
O O18 0.265275 0.631914 0.000000
#
# Coordination Sequence:
#
# PCOD9562473 Si02
#       6
#    16  16  16  16  16  16
#     4  11  22  36  52  75 105 144 190 241 292 343
#     4  11  23  37  58  88 121 157 198 243 292 345
#     4  12  26  46  70  95 122 151 187 231 286 351
#     4   9  19  33  51  72 100 139 184 235 288 338
#     4  10  19  35  57  82 114 153 197 241 292 347
#     4  11  23  40  61  87 117 154 193 235 289 347
#
# _framework density 18.834249
#
# number of rings (size 3 to 8) (size 9 to 14) (size 15 to 20)
#    0.000    1.333    1.667    4.500    0.000    5.833 
#    0.000    2.500    0.000    0.000    0.000    0.000 
#    0.000    0.333    0.000    3.333    0.000    2.000 
#
# Total GULP energy -534588.071866 kJ/mol
# GULP energy per Si atom -5568.625749 kJ/mol
# Density = 1.879138 g / cm^3
# Si number density = 18.834249 Si / 1000 Ang^3
#
#
#
# Elastic Constant Matrix: (Units=GPa)
#
#
# Indices 1 2 3 4 5 6 
#
# 1 78.6667 35.3428 43.1401 0.0000 0.0000 0.0000
# 2 35.3428 78.6663 43.1413 0.0000 0.0000 0.0000
# 3 43.1401 43.1413 93.9992 0.0000 0.0000 0.0000
# 4 0.0000 0.0000 0.0000-1488.6969 0.0000 0.0000
# 5 0.0000 0.0000 0.0000 0.0000-1563.8810 0.0000
# 6 0.0000 0.0000 0.0000 0.0000 0.0000 10.8844
#
#
#
# Elastic Compliance Matrix: (Units=1/GPa)
#
#
# Indices 1 2 3 4 5 6 
#
# 1 0.018260 -0.004822 -0.006168 0.000000 0.000000 0.000000
# 2 -0.004822 0.018261 -0.006168 0.000000 0.000000 0.000000
# 3 -0.006168 -0.006168 0.016300 0.000000 0.000000 0.000000
# 4 0.000000 0.000000 0.000000 -0.000672 0.000000 0.000000
# 5 0.000000 0.000000 0.000000 0.000000 -0.000639 0.000000
# 6 0.000000 0.000000 0.000000 0.000000 0.000000 0.091875
#
#
# Mechanical properties :
#
#
# Convention : Reuss Voigt Hill
#
# Bulk Modulus (GPa) = 54.03490 54.95341 54.49415
# Shear Modulus (GPa) = 27.19351 -599.69150 -286.24899
#
# Velocity S-wave (km/s) = 3.80390 -17.86326 -12.34152
# Velocity P-wave (km/s) = 6.93144 19.90529 13.19424
#
# Compressibility (1/GPa) = 0.01850656
#
# Stress axis : x y z
#
# Youngs Moduli (GPa) = 54.76368 54.76233 61.35061
#
# Poissons Ratio (x) = 0.26404 0.37838
# Poissons Ratio (y) = 0.26405 0.37841
# Poissons Ratio (z) = 0.33776 0.33778
#
# Static dielectric constant tensor:
#      x y z
#    x 1.705890 0.000000 0.000000 
#    y 0.000000 1.705880 0.000000 
#    z 0.000000 0.000000 1.680540 
# 
# From -- ./inp_files/1343.got.cif
#   From: 2010.05.17/outbox.cif.g08.bks.cpg/sg124_1_cif.got.tgz:1343.got - 2010.05.20 11:49:17.
