data_PCOD9562330
_publ_section_title
;
Structure prediction by ZEFSAII (Michael W. Deem and Ramdas Pophale) SiO2 
 PCOD9562330
Probable space group: P 4/M C C
;
_chemical_formula_sum "Si O2"
_cell_formula_units_Z 56
_cell_length_a 13.383811
_cell_length_b 13.383811
_cell_length_c 14.457746
_cell_angle_alpha 90.000000
_cell_angle_beta 90.000000
_cell_angle_gamma 90.000000
_cell_volume 2589.763948
_symmetry_space_group_name_H-M "P 4/M C C"
_symmetry_group_IT_number 124
_symmetry_cell_setting 'tetragonal'
loop_
_space_group_symop_operation_xyz
x,y,z
-y,x,z
-x,-y,z
y,-x,z
x,-y,1/2-z
-x,y,1/2-z
y,x,1/2-z
-y,-x,1/2-z
-x,-y,-z
y,-x,-z
x,y,-z
-y,x,-z
-x,y,1/2+z
x,-y,1/2+z
-y,-x,1/2+z
y,x,1/2+z
loop_
_atom_site_type_symbol
_atom_site_label
_atom_site_fract_x
_atom_site_fract_y
_atom_site_fract_z
Si Si1 0.941661 0.147319 0.387400
Si Si2 0.538932 0.830585 0.848501
Si Si3 0.549133 0.336883 0.500000
Si Si4 0.358789 0.023818 0.607433
O O1 0.937378 0.142550 0.500000
O O2 0.919718 0.259510 0.360745
O O3 0.875152 0.055091 0.356559
O O4 0.500000 0.794483 0.750000
O O5 0.620271 0.919947 0.839598
O O6 0.448640 0.897794 0.889385
O O7 0.565391 0.737693 0.913153
O O8 0.620527 0.434641 0.500000
O O9 0.345975 0.992565 0.500000
#
# Coordination Sequence:
#
# PCOD9562330 Si02
#       4
#    16  16   8  16
#     4   8  15  27  46  79 120 157 193 231 273 331
#     4  11  22  40  64  91 120 153 196 250 309 365
#     4  11  26  47  66  86 116 155 204 261 320 380
#     4  10  17  33  60  93 122 161 199 241 294 354
#
# _framework density 21.623593
#
# number of rings (size 3 to 8) (size 9 to 14) (size 15 to 20)
#    0.000    2.143    2.857    3.429    0.000    3.429 
#    0.000    1.429    0.000    5.143    0.000    8.000 
#    0.000    0.000    0.000    0.000    0.000    0.000 
#
# Total GULP energy -312417.552427 kJ/mol
# GULP energy per Si atom -5578.884865 kJ/mol
# Density = 2.157438 g / cm^3
# Si number density = 21.623593 Si / 1000 Ang^3
#
#
#
# Elastic Constant Matrix: (Units=GPa)
#
#
# Indices 1 2 3 4 5 6 
#
# 1 62.7581 -22.0187 -17.8374 0.0000 0.0000 0.0000
# 2 -22.0187 62.7581 -17.8374 0.0000 0.0000 0.0000
# 3 -17.8374 -17.8374 80.1328 0.0000 0.0000 0.0000
# 4 0.0000 0.0000 0.0000 7.8255 0.0000 0.0000
# 5 0.0000 0.0000 0.0000 0.0000 7.8255 0.0000
# 6 0.0000 0.0000 0.0000 0.0000 0.0000 7.4067
#
#
#
# Elastic Compliance Matrix: (Units=1/GPa)
#
#
# Indices 1 2 3 4 5 6 
#
# 1 0.021143 0.009347 0.006787 0.000000 0.000000 0.000000
# 2 0.009347 0.021143 0.006787 0.000000 0.000000 0.000000
# 3 0.006787 0.006787 0.015501 0.000000 0.000000 0.000000
# 4 0.000000 0.000000 0.000000 0.127788 0.000000 0.000000
# 5 0.000000 0.000000 0.000000 0.000000 0.127788 0.000000
# 6 0.000000 0.000000 0.000000 0.000000 0.000000 0.135013
#
#
# Mechanical properties :
#
#
# Convention : Reuss Voigt Hill
#
# Bulk Modulus (GPa) = 9.64997 10.02909 9.83953
# Shear Modulus (GPa) = 11.43968 22.16770 16.80369
#
# Velocity S-wave (km/s) = 2.30258 3.20529 2.79068
# Velocity P-wave (km/s) = 3.39728 4.28329 3.86576
#
# Compressibility (1/GPa) = 0.10362730
#
# Stress axis : x y z
#
# Youngs Moduli (GPa) = 47.29795 47.29795 64.51280
#
# Poissons Ratio (x) = -0.44209 -0.43784
# Poissons Ratio (y) = -0.44209 -0.43784
# Poissons Ratio (z) = -0.32101 -0.32101
#
# Static dielectric constant tensor:
#      x y z
#    x 1.772990 0.000000 0.000000 
#    y 0.000000 1.772990 0.000000 
#    z 0.000000 0.000000 1.867600 
# 
# From -- ./inp_files/2866.got.cif
#   From: 2010.05.17/outbox.cif.g08.bks.cpg/sg124_2_cif.got.tgz:2866.got - 2010.05.20 11:49:17.
