data_PCOD9562809
_publ_section_title
;
Structure prediction by ZEFSAII (Michael W. Deem and Ramdas Pophale) SiO2 
 PCOD9562809
Probable space group: P 4/M C C
;
_chemical_formula_sum "Si O2"
_cell_formula_units_Z 36
_cell_length_a 8.129145
_cell_length_b 8.129145
_cell_length_c 25.169195
_cell_angle_alpha 90.000000
_cell_angle_beta 90.000000
_cell_angle_gamma 90.000000
_cell_volume 1663.255874
_symmetry_space_group_name_H-M "P 4/M C C"
_symmetry_group_IT_number 124
_symmetry_cell_setting 'tetragonal'
loop_
_space_group_symop_operation_xyz
x,y,z
-y,x,z
-x,-y,z
y,-x,z
x,-y,1/2-z
-x,y,1/2-z
y,x,1/2-z
-y,-x,1/2-z
-x,-y,-z
y,-x,-z
x,y,-z
-y,x,-z
-x,y,1/2+z
x,-y,1/2+z
-y,-x,1/2+z
y,x,1/2+z
loop_
_atom_site_type_symbol
_atom_site_label
_atom_site_fract_x
_atom_site_fract_y
_atom_site_fract_z
Si Si1 0.415191 0.762308 0.662476
Si Si2 0.500000 0.000000 0.750000
Si Si3 0.739492 0.097468 0.559393
O O1 0.301111 0.602141 0.666239
O O2 0.378167 0.848190 0.606543
O O3 0.392496 0.887038 0.710916
O O4 0.671002 0.124038 0.500000
O O5 0.908206 0.203065 0.563765
#
# Coordination Sequence:
#
# PCOD9562809 Si02
#       3
#    16   4  16
#     4  11  24  41  63  92 124 160 206 261 320 382
#     4  12  24  42  62  82 116 162 204 256 316 378
#     4   9  19  38  64  94 129 168 209 254 308 373
#
# _framework density 21.644293999999999
#
# number of rings (size 3 to 8) (size 9 to 14) (size 15 to 20)
#    0.000    1.778    0.000    5.333    0.000    3.556 
#    0.000    7.778    0.000    2.667    0.000    0.000 
#    0.000    0.000    0.000    0.000    0.000    0.000 
#
# Total GULP energy -201511.250102 kJ/mol
# GULP energy per Si atom -5597.534725 kJ/mol
# Density = 2.159503 g / cm^3
# Si number density = 21.644294 Si / 1000 Ang^3
#
#
#
# Elastic Constant Matrix: (Units=GPa)
#
#
# Indices 1 2 3 4 5 6 
#
# 1 99.5803 47.1198 88.5691 0.0000 0.0000 0.0000
# 2 47.1198 99.5803 88.5691 0.0000 0.0000 0.0000
# 3 88.5691 88.5691 235.2567 0.0000 0.0000 0.0000
# 4 0.0000 0.0000 0.0000 40.2206 0.0000 0.0000
# 5 0.0000 0.0000 0.0000 0.0000 40.2206 0.0000
# 6 0.0000 0.0000 0.0000 0.0000 0.0000 33.0856
#
#
#
# Elastic Compliance Matrix: (Units=1/GPa)
#
#
# Indices 1 2 3 4 5 6 
#
# 1 0.015780 -0.003282 -0.004705 0.000000 0.000000 0.000000
# 2 -0.003282 0.015780 -0.004705 0.000000 0.000000 0.000000
# 3 -0.004705 -0.004705 0.007794 0.000000 0.000000 0.000000
# 4 0.000000 0.000000 0.000000 0.024863 0.000000 0.000000
# 5 0.000000 0.000000 0.000000 0.000000 0.024863 0.000000
# 6 0.000000 0.000000 0.000000 0.000000 0.000000 0.030225
#
#
# Mechanical properties :
#
#
# Convention : Reuss Voigt Hill
#
# Bulk Modulus (GPa) = 71.58828 98.10373 84.84600
# Shear Modulus (GPa) = 33.47944 36.71598 35.09771
#
# Velocity S-wave (km/s) = 3.93721 4.12313 4.03124
# Velocity P-wave (km/s) = 7.33591 8.25171 7.80725
#
# Compressibility (1/GPa) = 0.01396877
#
# Stress axis : x y z
#
# Youngs Moduli (GPa) = 63.37101 63.37101 128.31073
#
# Poissons Ratio (x) = 0.20797 0.60374
# Poissons Ratio (y) = 0.20797 0.60374
# Poissons Ratio (z) = 0.29818 0.29818
#
# Static dielectric constant tensor:
#      x y z
#    x 1.796710 0.000000 0.000000 
#    y 0.000000 1.796710 0.000000 
#    z 0.000000 0.000000 1.759550 
# 
# From -- ./inp_files/4687.got.cif
#   From: 2010.05.17/outbox.cif.g08.bks.cpg/sg124_3_cif.got.tgz:4687.got - 2010.05.20 11:49:17.
