data_PCOD9562934
_publ_section_title
;
Structure prediction by ZEFSAII (Michael W. Deem and Ramdas Pophale) SiO2 
 PCOD9562934
Probable space group: P 4/N B M
;
_chemical_formula_sum "Si O2"
_cell_formula_units_Z 112
_cell_length_a 14.555772
_cell_length_b 14.555772
_cell_length_c 28.850796
_cell_angle_alpha 90.000000
_cell_angle_beta 90.000000
_cell_angle_gamma 90.000000
_cell_volume 6112.632531
_symmetry_space_group_name_H-M "P 4/N B M"
_symmetry_group_IT_number 125
_space_group.IT_coordinate_system_code '2'
_symmetry_cell_setting 'tetragonal'
loop_
_space_group_symop_operation_xyz
x,y,z
1/2-y,x,z
1/2-x,1/2-y,z
y,1/2-x,z
x,1/2-y,-z
1/2-x,y,-z
y,x,-z
1/2-y,1/2-x,-z
-x,-y,-z
1/2+y,-x,-z
1/2+x,1/2+y,-z
-y,1/2+x,-z
-x,1/2+y,z
1/2+x,-y,z
-y,-x,z
1/2+y,1/2+x,z
loop_
_atom_site_type_symbol
_atom_site_label
_atom_site_fract_x
_atom_site_fract_y
_atom_site_fract_z
Si Si1 0.602038 0.244643 0.630820
Si Si2 0.477497 0.829347 0.535996
Si Si3 0.020762 0.133796 0.685305
Si Si4 0.851810 0.994590 0.977345
Si Si5 0.185516 0.108218 0.115265
Si Si6 0.149446 0.365628 0.595965
Si Si7 0.322447 0.113345 0.780021
O O1 0.685644 0.314357 0.640338
O O2 0.642781 0.142781 0.630738
O O3 0.565075 0.277193 0.581003
O O4 0.527863 0.271265 0.669260
O O5 0.501521 0.750000 0.500000
O O6 0.399766 0.899766 0.518609
O O7 0.564803 0.884752 0.556468
O O8 0.099559 0.120902 0.646706
O O9 0.054153 0.141956 0.737504
O O10 0.947824 0.052177 0.679804
O O11 0.840808 0.964057 0.923902
O O12 0.750000 0.001307 0.000000
O O13 0.911961 0.911961 0.000000
O O14 0.912963 0.087038 0.982327
O O15 0.293774 0.133247 0.110014
O O16 0.164381 0.076916 0.167769
O O17 0.127023 0.259762 0.590960
O O18 0.368880 0.213440 0.775965
#
# Coordination Sequence:
#
# PCOD9562934 Si02
#       7
#    16  16  16  16  16  16  16
#     4   8  15  29  48  69  95 129 168 206 245 304
#     4  10  20  35  55  79 106 134 166 207 258 316
#     4  10  19  32  52  77 105 134 171 219 269 320
#     4  11  22  35  57  87 118 156 200 248 301 357
#     4   9  17  32  56  82 108 143 191 246 291 333
#     4  10  21  38  57  74  98 135 176 218 265 318
#     4   9  18  33  53  77 107 143 182 222 273 329
#
# _framework density 18.322711999999999
#
# number of rings (size 3 to 8) (size 9 to 14) (size 15 to 20)
#    0.000    2.429    1.429    3.429    0.000    3.286 
#    0.000   12.143    0.000    1.714    0.000    2.000 
#    0.000    0.000    0.000    0.000    0.000    0.000 
#
# Total GULP energy -624526.648126 kJ/mol
# GULP energy per Si atom -5576.130787 kJ/mol
# Density = 1.828101 g / cm^3
# Si number density = 18.322712 Si / 1000 Ang^3
#
#
#
# Elastic Constant Matrix: (Units=GPa)
#
#
# Indices 1 2 3 4 5 6 
#
# 1 65.5777 28.5712 26.7099 0.0000 0.0000 0.0000
# 2 28.5712 65.5777 26.7099 0.0000 0.0000 0.0000
# 3 26.7099 26.7099 102.7063 0.0000 0.0000 0.0000
# 4 0.0000 0.0000 0.0000 22.3751 0.0000 0.0000
# 5 0.0000 0.0000 0.0000 0.0000 22.3751 0.0000
# 6 0.0000 0.0000 0.0000 0.0000 0.0000 14.8621
#
#
#
# Elastic Compliance Matrix: (Units=1/GPa)
#
#
# Indices 1 2 3 4 5 6 
#
# 1 0.019741 -0.007281 -0.003240 0.000000 0.000000 0.000000
# 2 -0.007281 0.019741 -0.003240 0.000000 0.000000 0.000000
# 3 -0.003240 -0.003240 0.011422 0.000000 0.000000 0.000000
# 4 0.000000 0.000000 0.000000 0.044693 0.000000 0.000000
# 5 0.000000 0.000000 0.000000 0.000000 0.044693 0.000000
# 6 0.000000 0.000000 0.000000 0.000000 0.000000 0.067285
#
#
# Mechanical properties :
#
#
# Convention : Reuss Voigt Hill
#
# Bulk Modulus (GPa) = 42.77071 44.20488 43.48779
# Shear Modulus (GPa) = 20.58528 22.04715 21.31621
#
# Velocity S-wave (km/s) = 3.35548 3.47258 3.41453
# Velocity P-wave (km/s) = 6.19726 6.34480 6.27146
#
# Compressibility (1/GPa) = 0.02338049
#
# Stress axis : x y z
#
# Youngs Moduli (GPa) = 50.65559 50.65559 87.55120
#
# Poissons Ratio (x) = 0.36883 0.28370
# Poissons Ratio (y) = 0.36883 0.28370
# Poissons Ratio (z) = 0.16414 0.16414
#
# Static dielectric constant tensor:
#      x y z
#    x 1.662110 0.000000 0.000000 
#    y 0.000000 1.662110 0.000000 
#    z 0.000000 0.000000 1.620530 
# 
# From -- ./inp_files/6421.got.cif
#   From: 2010.05.17/outbox.cif.g08.bks.cpg/sg125_4_cif.got.tgz:6421.got - 2010.05.20 11:54:10.
