data_PCOD9562453
_publ_section_title
;
Structure prediction by ZEFSAII (Michael W. Deem and Ramdas Pophale) SiO2 
 PCOD9562453
Probable space group: P 4/M C C
;
_chemical_formula_sum "Si O2"
_cell_formula_units_Z 96
_cell_length_a 24.415715
_cell_length_b 24.415715
_cell_length_c 9.082527
_cell_angle_alpha 90.000000
_cell_angle_beta 90.000000
_cell_angle_gamma 90.000000
_cell_volume 5414.340835
_symmetry_space_group_name_H-M "P 4/M C C"
_symmetry_group_IT_number 124
_symmetry_cell_setting 'tetragonal'
loop_
_space_group_symop_operation_xyz
x,y,z
-y,x,z
-x,-y,z
y,-x,z
x,-y,1/2-z
-x,y,1/2-z
y,x,1/2-z
-y,-x,1/2-z
-x,-y,-z
y,-x,-z
x,y,-z
-y,x,-z
-x,y,1/2+z
x,-y,1/2+z
-y,-x,1/2+z
y,x,1/2+z
loop_
_atom_site_type_symbol
_atom_site_label
_atom_site_fract_x
_atom_site_fract_y
_atom_site_fract_z
Si Si1 0.747795 0.824052 0.823833
Si Si2 0.945656 0.707488 0.677795
Si Si3 0.587268 0.054991 0.176634
Si Si4 0.629175 0.370826 0.250000
Si Si5 0.749414 0.645832 0.328383
Si Si6 0.425279 0.557238 0.000000
Si Si7 0.836069 0.450929 0.830932
O O1 0.802639 0.802639 0.750000
O O2 0.735815 0.887515 0.792398
O O3 0.699178 0.782653 0.773384
O O4 0.749874 0.818706 0.000000
O O5 0.951825 0.701184 0.500000
O O6 0.941517 0.648595 0.756895
O O7 0.000000 0.733867 0.750000
O O8 0.559467 0.109711 0.235976
O O9 0.563525 0.000000 0.250000
O O10 0.587188 0.051467 0.000000
O O11 0.626295 0.304151 0.238896
O O12 0.608465 0.413611 0.128906
O O13 0.731586 0.654770 0.500000
O O14 0.796258 0.600398 0.330085
O O15 0.425892 0.490451 0.000000
O O16 0.805566 0.500000 0.750000
O O17 0.850728 0.462874 0.000000
#
# Coordination Sequence:
#
# PCOD9562453 Si02
#       7
#    16  16  16   8  16   8  16
#     4  10  20  35  57  83 118 156 191 237 288 338
#     4  10  19  34  55  81 114 155 198 245 290 337
#     4  11  21  35  56  81 107 148 197 240 289 337
#     4  12  22  43  68  92 114 150 186 226 293 362
#     4  10  21  40  59  83 116 149 182 226 283 349
#     4  11  26  46  68  90 116 144 186 244 302 366
#     4  11  23  41  57  78 112 144 185 238 289 340
#
# _framework density 17.730689000000002
#
# number of rings (size 3 to 8) (size 9 to 14) (size 15 to 20)
#    0.000    1.417    3.333    4.000    0.000    3.667 
#    3.000    1.667    0.000    0.000    0.000    0.000 
#    0.000    0.333    0.000    3.667    0.000    2.667 
#
# Total GULP energy -534806.814303 kJ/mol
# GULP energy per Si atom -5570.904316 kJ/mol
# Density = 1.769033 g / cm^3
# Si number density = 17.730689 Si / 1000 Ang^3
#
#
#
# Elastic Constant Matrix: (Units=GPa)
#
#
# Indices 1 2 3 4 5 6 
#
# 1 106.1652 45.5823 31.4230 0.0000 0.0000 0.0000
# 2 45.5823 106.1650 31.4240 0.0000 0.0000 0.0000
# 3 31.4230 31.4240 63.7041 0.0000 0.0000 0.0000
# 4 0.0000 0.0000 0.0000 11.8015 0.0000 0.0000
# 5 0.0000 0.0000 0.0000 0.0000 11.8023 0.0000
# 6 0.0000 0.0000 0.0000 0.0000 0.0000 20.2033
#
#
#
# Elastic Compliance Matrix: (Units=1/GPa)
#
#
# Indices 1 2 3 4 5 6 
#
# 1 0.012394 -0.004112 -0.004085 0.000000 0.000000 0.000000
# 2 -0.004112 0.012394 -0.004085 0.000000 0.000000 0.000000
# 3 -0.004085 -0.004085 0.019728 0.000000 0.000000 0.000000
# 4 0.000000 0.000000 0.000000 0.084735 0.000000 0.000000
# 5 0.000000 0.000000 0.000000 0.000000 0.084730 0.000000
# 6 0.000000 0.000000 0.000000 0.000000 0.000000 0.049497
#
#
# Mechanical properties :
#
#
# Convention : Reuss Voigt Hill
#
# Bulk Modulus (GPa) = 50.12365 54.76587 52.44476
# Shear Modulus (GPa) = 16.96684 19.93509 18.45097
#
# Velocity S-wave (km/s) = 3.09677 3.35674 3.22937
# Velocity P-wave (km/s) = 6.41229 6.78073 6.59908
#
# Compressibility (1/GPa) = 0.01995066
#
# Stress axis : x y z
#
# Youngs Moduli (GPa) = 80.68425 80.68328 50.68988
#
# Poissons Ratio (x) = 0.33179 0.20707
# Poissons Ratio (y) = 0.33180 0.20709
# Poissons Ratio (z) = 0.32960 0.32962
#
# Static dielectric constant tensor:
#      x y z
#    x 1.628890 0.000000 0.000000 
#    y 0.000000 1.628890 0.000000 
#    z 0.000000 0.000000 1.559720 
# 
# From -- ./inp_files/1443.got.cif
#   From: 2010.05.17/outbox.cif.g08.bks.cpg/sg124_1_cif.got.tgz:1443.got - 2010.05.20 11:49:17.
