data_PCOD9562512
_publ_section_title
;
Structure prediction by ZEFSAII (Michael W. Deem and Ramdas Pophale) SiO2 
 PCOD9562512
Probable space group: P 4/M C C
;
_chemical_formula_sum "Si O2"
_cell_formula_units_Z 120
_cell_length_a 15.417600
_cell_length_b 15.417600
_cell_length_c 30.530569
_cell_angle_alpha 90.000000
_cell_angle_beta 90.000000
_cell_angle_gamma 90.000000
_cell_volume 7257.189212
_symmetry_space_group_name_H-M "P 4/M C C"
_symmetry_group_IT_number 124
_symmetry_cell_setting 'tetragonal'
loop_
_space_group_symop_operation_xyz
x,y,z
-y,x,z
-x,-y,z
y,-x,z
x,-y,1/2-z
-x,y,1/2-z
y,x,1/2-z
-y,-x,1/2-z
-x,-y,-z
y,-x,-z
x,y,-z
-y,x,-z
-x,y,1/2+z
x,-y,1/2+z
-y,-x,1/2+z
y,x,1/2+z
loop_
_atom_site_type_symbol
_atom_site_label
_atom_site_fract_x
_atom_site_fract_y
_atom_site_fract_z
Si Si1 0.199660 0.823702 0.051240
Si Si2 0.971444 0.400331 0.374788
Si Si3 0.015855 0.734119 0.948844
Si Si4 0.632111 0.437023 0.500000
Si Si5 0.190241 0.179064 0.301636
Si Si6 0.736570 0.007006 0.301710
Si Si7 0.565645 0.369515 0.095865
Si Si8 0.329303 0.779433 0.872401
O O1 0.102401 0.789798 0.059402
O O2 0.265384 0.780006 0.085435
O O3 0.210879 0.927356 0.057643
O O4 0.220651 0.805129 0.000000
O O5 0.001519 0.348642 0.331448
O O6 0.867661 0.385249 0.375411
O O7 0.000000 0.500000 0.375084
O O8 0.009563 0.347265 0.416239
O O9 0.017484 0.707121 0.000000
O O10 0.610198 0.539059 0.500000
O O11 0.670861 0.418239 0.452791
O O12 0.198900 0.198900 0.250000
O O13 0.202386 0.076406 0.309998
O O14 0.266073 0.219839 0.330666
O O15 0.095303 0.213830 0.313060
O O16 0.715517 0.000000 0.250000
O O17 0.611489 0.463320 0.099519
O O18 0.607186 0.301887 0.128474
#
# Coordination Sequence:
#
# PCOD9562512 Si02
#       8
#    16  16  16   8  16  16  16  16
#     4   9  18  31  48  71  99 129 162 198 239 292
#     4  10  21  35  50  69  99 135 170 204 241 291
#     4   9  18  33  50  70  97 128 164 205 245 288
#     4   7  12  26  46  68  93 116 144 193 249 296
#     4   9  18  33  52  77 105 132 163 202 246 293
#     4   9  18  33  54  78 103 129 160 202 250 297
#     4   9  18  32  51  73  97 124 160 208 259 303
#     4  10  20  32  50  73  99 131 166 204 248 295
#
# _framework density 16.535326999999999
#
# number of rings (size 3 to 8) (size 9 to 14) (size 15 to 20)
#    0.000    2.867    0.000    1.600    0.933    3.200 
#    0.000    2.667    0.000    7.200    0.000    0.933 
#    0.000    0.000    0.000    0.000    0.000    0.000 
#
# Total GULP energy -668266.758891 kJ/mol
# GULP energy per Si atom -5568.889657 kJ/mol
# Density = 1.649769 g / cm^3
# Si number density = 16.535327 Si / 1000 Ang^3
#
#
#
# Elastic Constant Matrix: (Units=GPa)
#
#
# Indices 1 2 3 4 5 6 
#
# 1 97.8419 66.8516 50.2146 0.0000 0.0000 0.0000
# 2 66.8516 97.8419 50.2146 0.0000 0.0000 0.0000
# 3 50.2146 50.2146 54.1426 0.0000 0.0000 0.0000
# 4 0.0000 0.0000 0.0000 22.1059 0.0000 0.0000
# 5 0.0000 0.0000 0.0000 0.0000 22.1059 0.0000
# 6 0.0000 0.0000 0.0000 0.0000 0.0000 24.5729
#
#
#
# Elastic Compliance Matrix: (Units=1/GPa)
#
#
# Indices 1 2 3 4 5 6 
#
# 1 0.023122 -0.009146 -0.012962 0.000000 0.000000 0.000000
# 2 -0.009146 0.023122 -0.012962 0.000000 0.000000 0.000000
# 3 -0.012962 -0.012962 0.042513 0.000000 0.000000 0.000000
# 4 0.000000 0.000000 0.000000 0.045237 0.000000 0.000000
# 5 0.000000 0.000000 0.000000 0.000000 0.045237 0.000000
# 6 0.000000 0.000000 0.000000 0.000000 0.000000 0.040695
#
#
# Mechanical properties :
#
#
# Convention : Reuss Voigt Hill
#
# Bulk Modulus (GPa) = 53.71473 64.93202 59.32337
# Shear Modulus (GPa) = 16.87630 19.25997 18.06814
#
# Velocity S-wave (km/s) = 3.19818 3.41659 3.30919
# Velocity P-wave (km/s) = 6.79656 7.41067 7.11024
#
# Compressibility (1/GPa) = 0.01861687
#
# Stress axis : x y z
#
# Youngs Moduli (GPa) = 43.24844 43.24844 23.52196
#
# Poissons Ratio (x) = 0.39555 0.30490
# Poissons Ratio (y) = 0.39555 0.30490
# Poissons Ratio (z) = 0.56060 0.56060
#
# Static dielectric constant tensor:
#      x y z
#    x 1.533750 0.000000 0.000000 
#    y 0.000000 1.533750 0.000000 
#    z 0.000000 0.000000 1.590920 
# 
# From -- ./inp_files/7333.got.cif
#   From: 2010.05.17/outbox.cif.g08.bks.cpg/sg124_4_cif.got.tgz:7333.got - 2010.05.20 11:49:17.
