data_PCOD9562986
_publ_section_title
;
Structure prediction by ZEFSAII (Michael W. Deem and Ramdas Pophale) SiO2 
 PCOD9562986
Probable space group: P 4/N B M
;
_chemical_formula_sum "Si O2"
_cell_formula_units_Z 96
_cell_length_a 20.528231
_cell_length_b 20.528231
_cell_length_c 11.784504
_cell_angle_alpha 90.000000
_cell_angle_beta 90.000000
_cell_angle_gamma 90.000000
_cell_volume 4966.087420
_symmetry_space_group_name_H-M "P 4/N B M"
_symmetry_group_IT_number 125
_space_group.IT_coordinate_system_code '2'
_symmetry_cell_setting 'tetragonal'
loop_
_space_group_symop_operation_xyz
x,y,z
1/2-y,x,z
1/2-x,1/2-y,z
y,1/2-x,z
x,1/2-y,-z
1/2-x,y,-z
y,x,-z
1/2-y,1/2-x,-z
-x,-y,-z
1/2+y,-x,-z
1/2+x,1/2+y,-z
-y,1/2+x,-z
-x,1/2+y,z
1/2+x,-y,z
-y,-x,z
1/2+y,1/2+x,z
loop_
_atom_site_type_symbol
_atom_site_label
_atom_site_fract_x
_atom_site_fract_y
_atom_site_fract_z
Si Si1 0.190101 0.397103 0.074956
Si Si2 0.198022 0.343359 0.330743
Si Si3 0.307346 0.587863 0.653405
Si Si4 0.929225 0.585000 0.621959
Si Si5 0.894861 0.494748 0.822650
Si Si6 0.837985 0.445672 0.394661
O O1 0.202223 0.364849 0.198142
O O2 0.140309 0.455634 0.094956
O O3 0.250000 0.421481 0.000000
O O4 0.158716 0.341285 0.000000
O O5 0.165273 0.273621 0.359905
O O6 0.147059 0.394120 0.383080
O O7 0.339989 0.660012 0.656573
O O8 0.341358 0.546377 0.752027
O O9 0.229542 0.580870 0.657515
O O10 0.328179 0.558457 0.531041
O O11 0.945319 0.554682 0.500000
O O12 0.932353 0.536774 0.727286
O O13 0.980643 0.643541 0.639242
O O14 0.944611 0.444611 0.878210
O O15 0.897947 0.397947 0.365765
#
# Coordination Sequence:
#
# PCOD9562986 Si02
#       6
#    16  16  16  16  16  16
#     4  11  22  37  60  83 107 144 188 244 298 344
#     4  10  22  36  53  80 112 152 199 240 283 339
#     4   9  19  35  55  78 110 149 190 233 279 333
#     4  11  22  33  55  81 120 161 193 229 278 341
#     4  10  22  38  57  84 114 148 190 234 288 355
#     4  10  20  32  52  80 112 153 194 230 270 328
#
# _framework density 19.331113999999999
#
# number of rings (size 3 to 8) (size 9 to 14) (size 15 to 20)
#    0.000    1.833    3.333    0.500    4.667    2.167 
#    0.000    2.500    0.000    1.000    0.000    0.000 
#    0.000    0.000    0.000    0.000    0.000    0.000 
#
# Total GULP energy -535453.181702 kJ/mol
# GULP energy per Si atom -5577.637309 kJ/mol
# Density = 1.928712 g / cm^3
# Si number density = 19.331114 Si / 1000 Ang^3
#
#
#
# Elastic Constant Matrix: (Units=GPa)
#
#
# Indices 1 2 3 4 5 6 
#
# 1 63.6791 21.0353 -0.1451 0.0000 0.0000 0.0000
# 2 21.0353 63.6839 -0.1436 0.0000 0.0000 0.0000
# 3 -0.1451 -0.1436 37.9774 0.0000 0.0000 0.0000
# 4 0.0000 0.0000 0.0000 -30.3594 0.0000 0.0000
# 5 0.0000 0.0000 0.0000 0.0000 -26.4318 0.0000
# 6 0.0000 0.0000 0.0000 0.0000 0.0000 -0.1503
#
#
#
# Elastic Compliance Matrix: (Units=1/GPa)
#
#
# Indices 1 2 3 4 5 6 
#
# 1 0.017627 -0.005822 0.000045 0.000000 0.000000 0.000000
# 2 -0.005822 0.017626 0.000044 0.000000 0.000000 0.000000
# 3 0.000045 0.000044 0.026332 0.000000 0.000000 0.000000
# 4 0.000000 0.000000 0.000000 -0.032939 0.000000 0.000000
# 5 0.000000 0.000000 0.000000 0.000000 -0.037833 0.000000
# 6 0.000000 0.000000 0.000000 0.000000 0.000000 -6.653209
#
#
# Mechanical properties :
#
#
# Convention : Reuss Voigt Hill
#
# Bulk Modulus (GPa) = 19.95226 22.98150 21.46688
# Shear Modulus (GPa) = -0.75367 -1.74869 -1.25118
#
# Velocity S-wave (km/s) = -0.62508 -0.95214 -0.80538
# Velocity P-wave (km/s) = 3.13413 3.27191 3.20376
#
# Compressibility (1/GPa) = 0.05011964
#
# Stress axis : x y z
#
# Youngs Moduli (GPa) = 56.73078 56.73499 37.97695
#
# Poissons Ratio (x) = 0.33033 -0.00172
# Poissons Ratio (y) = 0.33030 -0.00169
# Poissons Ratio (z) = -0.00257 -0.00252
#
# Static dielectric constant tensor:
#      x y z
#    x 1.597480 0.000000 0.000000 
#    y 0.000000 1.596860 0.000000 
#    z 0.000000 0.000000 1.658630 
# 
# From -- ./inp_files/4150.got.cif
#   From: 2010.05.17/outbox.cif.g08.bks.cpg/sg125_3_cif.got.tgz:4150.got - 2010.05.20 11:54:10.
