data_PCOD9562098
_publ_section_title
;
Structure prediction by ZEFSAII (Michael W. Deem and Ramdas Pophale) SiO2 
 PCOD9562098
Probable space group: P 4/M M M
;
_chemical_formula_sum "Si O2"
_cell_formula_units_Z 72
_cell_length_a 21.895717
_cell_length_b 21.895717
_cell_length_c 8.533916
_cell_angle_alpha 90.000000
_cell_angle_beta 90.000000
_cell_angle_gamma 90.000000
_cell_volume 4091.350686
_symmetry_space_group_name_H-M "P 4/M M M"
_symmetry_group_IT_number 123
_symmetry_cell_setting 'tetragonal'
loop_
_space_group_symop_operation_xyz
x,y,z
-y,x,z
-x,-y,z
y,-x,z
x,-y,-z
-x,y,-z
y,x,-z
-y,-x,-z
-x,-y,-z
y,-x,-z
x,y,-z
-y,x,-z
-x,y,z
x,-y,z
-y,-x,z
y,x,z
loop_
_atom_site_type_symbol
_atom_site_label
_atom_site_fract_x
_atom_site_fract_y
_atom_site_fract_z
Si Si1 0.070522 0.500000 0.688041
Si Si2 0.164012 0.598182 0.187962
Si Si3 0.401555 0.500000 0.808765
Si Si4 0.165547 0.735260 0.312348
Si Si5 0.831001 0.929920 0.189450
Si Si6 0.737094 0.500000 0.190699
O O1 0.072785 0.500000 0.500000
O O2 0.106629 0.440719 0.749880
O O3 0.000000 0.500000 0.738178
O O4 0.166062 0.666962 0.248004
O O5 0.223762 0.559279 0.237880
O O6 0.161811 0.598118 0.000000
O O7 0.440721 0.440721 0.761362
O O8 0.332222 0.500000 0.752423
O O9 0.400416 0.500000 0.000000
O O10 0.164863 0.733604 0.500000
O O11 0.224485 0.775516 0.261716
O O12 0.106747 0.772811 0.253348
O O13 0.890553 0.890553 0.236313
O O14 0.833289 0.000000 0.241890
O O15 0.828250 0.929446 0.000000
O O16 0.735400 0.500000 0.000000
#
# Coordination Sequence:
#
# PCOD9562098 Si02
#       6
#     8  16   8  16  16   8
#     4  10  21  37  56  77 103 136 171 208 255 311
#     4  10  20  34  53  76 102 133 170 213 259 304
#     4   8  13  22  38  62  94 129 159 188 227 277
#     4  10  21  36  53  74 102 136 174 215 258 307
#     4   9  18  33  53  77 104 133 166 205 250 301
#     4   8  16  29  44  68  99 128 161 200 243 293
#
# _framework density 17.598099999999999
#
# number of rings (size 3 to 8) (size 9 to 14) (size 15 to 20)
#    0.000    2.667    0.000    2.667    0.000    4.667 
#    0.000    3.333    0.000    0.000    0.000    3.111 
#    0.000    0.000    0.000   44.000    0.000   39.556 
#
# Total GULP energy -401564.982940 kJ/mol
# GULP energy per Si atom -5577.291430 kJ/mol
# Density = 1.755805 g / cm^3
# Si number density = 17.598100 Si / 1000 Ang^3
#
#
#
# Elastic Constant Matrix: (Units=GPa)
#
#
# Indices 1 2 3 4 5 6 
#
# 1 201.4719 110.8845 34.5773 0.0000 0.0000 0.0000
# 2 110.8845 201.4719 34.5773 0.0000 0.0000 0.0000
# 3 34.5773 34.5773 27.3630 0.0000 0.0000 0.0000
# 4 0.0000 0.0000 0.0000 18.4311 0.0000 0.0000
# 5 0.0000 0.0000 0.0000 0.0000 18.4311 0.0000
# 6 0.0000 0.0000 0.0000 0.0000 0.0000 5.5586
#
#
#
# Elastic Compliance Matrix: (Units=1/GPa)
#
#
# Indices 1 2 3 4 5 6 
#
# 1 0.007742 -0.003297 -0.005617 0.000000 0.000000 0.000000
# 2 -0.003297 0.007742 -0.005617 0.000000 0.000000 0.000000
# 3 -0.005617 -0.005617 0.050742 0.000000 0.000000 0.000000
# 4 0.000000 0.000000 0.000000 0.054256 0.000000 0.000000
# 5 0.000000 0.000000 0.000000 0.000000 0.054256 0.000000
# 6 0.000000 0.000000 0.000000 0.000000 0.000000 0.179903
#
#
# Mechanical properties :
#
#
# Convention : Reuss Voigt Hill
#
# Bulk Modulus (GPa) = 26.90799 87.82057 57.36428
# Shear Modulus (GPa) = 12.62337 25.16865 18.89601
#
# Velocity S-wave (km/s) = 2.68118 3.78589 3.28037
# Velocity P-wave (km/s) = 4.99083 8.31399 6.85678
#
# Compressibility (1/GPa) = 0.03716368
#
# Stress axis : x y z
#
# Youngs Moduli (GPa) = 129.16462 129.16462 19.70770
#
# Poissons Ratio (x) = 0.42586 0.11070
# Poissons Ratio (y) = 0.42586 0.11070
# Poissons Ratio (z) = 0.72552 0.72552
#
# Static dielectric constant tensor:
#      x y z
#    x 1.582130 0.000000 0.000000 
#    y 0.000000 1.582130 0.000000 
#    z 0.000000 0.000000 1.593070 
# 
# From -- ./inp_files/1224.got.cif
#   From: 2010.05.17/outbox.cif.g08.bks.cpg/sg123_1_cif.got.tgz:1224.got - 2010.05.20 11:43:04.
