data_PCOD9562339
_publ_section_title
;
Structure prediction by ZEFSAII (Michael W. Deem and Ramdas Pophale) SiO2 
 PCOD9562339
Probable space group: P 4/M C C
;
_chemical_formula_sum "Si O2"
_cell_formula_units_Z 128
_cell_length_a 20.133692
_cell_length_b 20.133692
_cell_length_c 14.102000
_cell_angle_alpha 90.000000
_cell_angle_beta 90.000000
_cell_angle_gamma 90.000000
_cell_volume 5716.465036
_symmetry_space_group_name_H-M "P 4/M C C"
_symmetry_group_IT_number 124
_symmetry_cell_setting 'tetragonal'
loop_
_space_group_symop_operation_xyz
x,y,z
-y,x,z
-x,-y,z
y,-x,z
x,-y,1/2-z
-x,y,1/2-z
y,x,1/2-z
-y,-x,1/2-z
-x,-y,-z
y,-x,-z
x,y,-z
-y,x,-z
-x,y,1/2+z
x,-y,1/2+z
-y,-x,1/2+z
y,x,1/2+z
loop_
_atom_site_type_symbol
_atom_site_label
_atom_site_fract_x
_atom_site_fract_y
_atom_site_fract_z
Si Si1 0.239256 0.190455 0.884423
Si Si2 0.255039 0.100191 0.383737
Si Si3 0.023493 0.598035 0.142462
Si Si4 0.167003 0.465985 0.384787
Si Si5 0.280043 0.363409 0.384443
Si Si6 0.597383 0.881018 0.393793
Si Si7 0.415796 0.431641 0.615027
Si Si8 0.750518 0.042059 0.393152
O O1 0.165849 0.215006 0.862021
O O2 0.295104 0.243643 0.853298
O O3 0.243989 0.114717 0.848109
O O4 0.246810 0.186945 0.000000
O O5 0.257961 0.094605 0.500000
O O6 0.330427 0.112444 0.348660
O O7 0.227234 0.028879 0.350817
O O8 0.095518 0.566206 0.136064
O O9 0.031048 0.671439 0.101489
O O10 0.000000 0.600467 0.250000
O O11 0.956115 0.568679 0.097945
O O12 0.170130 0.470348 0.500000
O O13 0.228707 0.421396 0.356307
O O14 0.163687 0.541269 0.346974
O O15 0.281963 0.360499 0.500000
O O16 0.354268 0.385076 0.354614
O O17 0.609129 0.854752 0.500000
O O18 0.490322 0.408831 0.642726
O O19 0.415009 0.431144 0.500000
O O20 0.778969 0.046790 0.500000
#
# Coordination Sequence:
#
# PCOD9562339 Si02
#       8
#    16  16  16  16  16  16  16  16
#     4   9  15  25  44  66  88 115 153 199 235 271
#     4   8  15  26  42  66  88 112 149 189 229 271
#     4  11  20  29  44  65  91 119 158 189 225 274
#     4  10  18  29  43  62  88 121 157 194 235 276
#     4   9  16  24  39  62  85 114 156 197 232 275
#     4   9  18  30  44  61  88 121 152 187 226 272
#     4   8  14  24  36  54  87 127 159 194 245 293
#     4   9  16  30  49  66  90 122 154 189 231 276
#
# _framework density 22.391459000000001
#
# number of rings (size 3 to 8) (size 9 to 14) (size 15 to 20)
#    0.000    2.875    1.250    2.625    0.000    3.000 
#    0.000    5.000    0.000    3.375    0.000    2.625 
#    0.000    0.000    0.000    4.500    0.000   20.000 
#
# Total GULP energy -713851.138972 kJ/mol
# GULP energy per Si atom -5576.962023 kJ/mol
# Density = 2.234050 g / cm^3
# Si number density = 22.391459 Si / 1000 Ang^3
#
#
#
# Elastic Constant Matrix: (Units=GPa)
#
#
# Indices 1 2 3 4 5 6 
#
# 1 118.7280 79.7309 15.7056 0.0000 0.0000 0.0000
# 2 79.7309 118.7280 15.7056 0.0000 0.0000 0.0000
# 3 15.7056 15.7056 72.4854 0.0000 0.0000 0.0000
# 4 0.0000 0.0000 0.0000 -0.4569 0.0000 0.0000
# 5 0.0000 0.0000 0.0000 0.0000 -0.4569 0.0000
# 6 0.0000 0.0000 0.0000 0.0000 0.0000 31.9991
#
#
#
# Elastic Compliance Matrix: (Units=1/GPa)
#
#
# Indices 1 2 3 4 5 6 
#
# 1 0.015430 -0.010213 -0.001131 0.000000 0.000000 0.000000
# 2 -0.010213 0.015430 -0.001131 0.000000 0.000000 0.000000
# 3 -0.001131 -0.001131 0.014286 0.000000 0.000000 0.000000
# 4 0.000000 0.000000 0.000000 -2.188713 0.000000 0.000000
# 5 0.000000 0.000000 0.000000 0.000000 -2.188713 0.000000
# 6 0.000000 0.000000 0.000000 0.000000 0.000000 0.031251
#
#
# Mechanical properties :
#
#
# Convention : Reuss Voigt Hill
#
# Bulk Modulus (GPa) = 49.50706 59.13619 54.32163
# Shear Modulus (GPa) = -1.17114 19.47036 9.14961
#
# Velocity S-wave (km/s) = -0.72399 2.95200 2.02363
# Velocity P-wave (km/s) = 4.63238 6.17143 5.45644
#
# Compressibility (1/GPa) = 0.02019914
#
# Stress axis : x y z
#
# Youngs Moduli (GPa) = 64.80738 64.80738 69.99960
#
# Poissons Ratio (x) = 0.66185 0.07914
# Poissons Ratio (y) = 0.66185 0.07914
# Poissons Ratio (z) = 0.07327 0.07327
#
# Static dielectric constant tensor:
#      x y z
#    x 1.825290 0.000000 0.000000 
#    y 0.000000 1.825290 0.000000 
#    z 0.000000 0.000000 1.910430 
# 
# From -- ./inp_files/4591.got.cif
#   From: 2010.05.17/outbox.cif.g08.bks.cpg/sg124_3_cif.got.tgz:4591.got - 2010.05.20 11:49:17.
