data_PCOD9562080
_publ_section_title
;
Structure prediction by ZEFSAII (Michael W. Deem and Ramdas Pophale) SiO2 
 PCOD9562080
Probable space group: P 4/M M M
;
_chemical_formula_sum "Si O2"
_cell_formula_units_Z 60
_cell_length_a 12.662084
_cell_length_b 12.662084
_cell_length_c 21.744279
_cell_angle_alpha 90.000000
_cell_angle_beta 90.000000
_cell_angle_gamma 90.000000
_cell_volume 3486.224835
_symmetry_space_group_name_H-M "P 4/M M M"
_symmetry_group_IT_number 123
_symmetry_cell_setting 'tetragonal'
loop_
_space_group_symop_operation_xyz
x,y,z
-y,x,z
-x,-y,z
y,-x,z
x,-y,-z
-x,y,-z
y,x,-z
-y,-x,-z
-x,-y,-z
y,-x,-z
x,y,-z
-y,x,-z
-x,y,z
x,-y,z
-y,-x,z
y,x,z
loop_
_atom_site_type_symbol
_atom_site_label
_atom_site_fract_x
_atom_site_fract_y
_atom_site_fract_z
Si Si1 0.000000 0.623663 0.599002
Si Si2 0.381916 0.792090 0.682963
Si Si3 0.000000 0.184243 0.500000
Si Si4 0.294330 0.120567 0.193242
Si Si5 0.622923 0.200688 0.068158
O O1 0.104233 0.630072 0.641128
O O2 0.000000 0.728566 0.555710
O O3 0.000000 0.500000 0.573443
O O4 0.500000 0.750092 0.674820
O O5 0.293995 0.706006 0.667564
O O6 0.365032 0.826708 0.753792
O O7 0.103220 0.103220 0.500000
O O8 0.186272 0.186272 0.191586
O O9 0.346375 0.130054 0.126173
O O10 0.276493 0.000000 0.209643
O O11 0.500000 0.227478 0.071903
O O12 0.695428 0.304573 0.072672
O O13 0.642354 0.153406 0.000000
#
# Coordination Sequence:
#
# PCOD9562080 Si02
#       5
#     8  16   4  16  16
#     4  10  20  37  60  83 110 147 188 221 254 309
#     4  10  20  34  54  80 109 142 179 221 267 316
#     4  11  23  38  58  86 121 151 176 218 270 311
#     4  10  20  34  51  71  98 131 171 218 265 316
#     4   9  18  31  47  69  96 127 165 210 261 316
#
# _framework density 17.210595000000001
#
# number of rings (size 3 to 8) (size 9 to 14) (size 15 to 20)
#    0.000    2.200    1.333    1.800    0.000    2.933 
#    0.000    2.667    0.000    4.800    0.000    3.733 
#    0.000    9.600    0.000    0.000    0.000    0.000 
#
# Total GULP energy -334170.292070 kJ/mol
# GULP energy per Si atom -5569.504868 kJ/mol
# Density = 1.717142 g / cm^3
# Si number density = 17.210595 Si / 1000 Ang^3
#
#
#
# Elastic Constant Matrix: (Units=GPa)
#
#
# Indices 1 2 3 4 5 6 
#
# 1 120.6162 38.1725 35.8824 0.0000 0.0000 0.0000
# 2 38.1725 120.6162 35.8824 0.0000 0.0000 0.0000
# 3 35.8824 35.8824 73.1043 0.0000 0.0000 0.0000
# 4 0.0000 0.0000 0.0000 23.6098 0.0000 0.0000
# 5 0.0000 0.0000 0.0000 0.0000 23.6098 0.0000
# 6 0.0000 0.0000 0.0000 0.0000 0.0000 12.3663
#
#
#
# Elastic Compliance Matrix: (Units=1/GPa)
#
#
# Indices 1 2 3 4 5 6 
#
# 1 0.010111 -0.002018 -0.003972 0.000000 0.000000 0.000000
# 2 -0.002018 0.010111 -0.003972 0.000000 0.000000 0.000000
# 3 -0.003972 -0.003972 0.017579 0.000000 0.000000 0.000000
# 4 0.000000 0.000000 0.000000 0.042355 0.000000 0.000000
# 5 0.000000 0.000000 0.000000 0.000000 0.042355 0.000000
# 6 0.000000 0.000000 0.000000 0.000000 0.000000 0.080865
#
#
# Mechanical properties :
#
#
# Convention : Reuss Voigt Hill
#
# Bulk Modulus (GPa) = 55.94335 59.35680 57.65007
# Shear Modulus (GPa) = 21.80924 25.54383 23.67653
#
# Velocity S-wave (km/s) = 3.56363 3.85670 3.71306
# Velocity P-wave (km/s) = 7.03622 7.37534 7.20777
#
# Compressibility (1/GPa) = 0.01787523
#
# Stress axis : x y z
#
# Youngs Moduli (GPa) = 98.89984 98.89984 56.88723
#
# Poissons Ratio (x) = 0.19960 0.22598
# Poissons Ratio (y) = 0.19960 0.22598
# Poissons Ratio (z) = 0.39286 0.39286
#
# Static dielectric constant tensor:
#      x y z
#    x 1.558680 0.000000 0.000000 
#    y 0.000000 1.558680 0.000000 
#    z 0.000000 0.000000 1.611350 
# 
# From -- ./inp_files/6168.got.cif
#   From: 2010.05.17/outbox.cif.g08.bks.cpg/sg123_4_cif.got.tgz:6168.got - 2010.05.20 11:43:04.
