data_PCOD9562572
_publ_section_title
;
Structure prediction by ZEFSAII (Michael W. Deem and Ramdas Pophale) SiO2 
 PCOD9562572
Probable space group: P 4/M C C
;
_chemical_formula_sum "Si O2"
_cell_formula_units_Z 120
_cell_length_a 18.163246
_cell_length_b 18.163246
_cell_length_c 20.465203
_cell_angle_alpha 90.000000
_cell_angle_beta 90.000000
_cell_angle_gamma 90.000000
_cell_volume 6751.542205
_symmetry_space_group_name_H-M "P 4/M C C"
_symmetry_group_IT_number 124
_symmetry_cell_setting 'tetragonal'
loop_
_space_group_symop_operation_xyz
x,y,z
-y,x,z
-x,-y,z
y,-x,z
x,-y,1/2-z
-x,y,1/2-z
y,x,1/2-z
-y,-x,1/2-z
-x,-y,-z
y,-x,-z
x,y,-z
-y,x,-z
-x,y,1/2+z
x,-y,1/2+z
-y,-x,1/2+z
y,x,1/2+z
loop_
_atom_site_type_symbol
_atom_site_label
_atom_site_fract_x
_atom_site_fract_y
_atom_site_fract_z
Si Si1 0.298015 0.868237 0.850278
Si Si2 0.413016 0.913732 0.744979
Si Si3 0.594642 0.572846 0.079473
Si Si4 0.011337 0.250859 0.577767
Si Si5 0.157667 0.318691 0.640720
Si Si6 0.002546 0.876365 0.321398
Si Si7 0.694168 0.288581 0.922320
Si Si8 0.199127 0.199127 0.750000
O O1 0.367833 0.875139 0.802807
O O2 0.303774 0.792389 0.890305
O O3 0.223837 0.862604 0.804302
O O4 0.295261 0.940231 0.895707
O O5 0.500000 0.908149 0.750000
O O6 0.388031 0.877148 0.677268
O O7 0.391665 0.000000 0.750000
O O8 0.512926 0.600481 0.099377
O O9 0.660035 0.626654 0.101357
O O10 0.595427 0.573671 0.000000
O O11 0.009746 0.244526 0.500000
O O12 0.089711 0.282456 0.601859
O O13 0.002237 0.174579 0.616234
O O14 0.228783 0.328254 0.595664
O O15 0.186879 0.266224 0.699559
O O16 0.071473 0.930830 0.322489
O O17 0.000000 0.837825 0.250000
O O18 0.688570 0.280464 0.000000
#
# Coordination Sequence:
#
# PCOD9562572 Si02
#       8
#    16  16  16  16  16  16  16   8
#     4  10  21  37  55  83 114 145 196 243 292 353
#     4  10  20  38  62  83 104 144 203 257 299 342
#     4   8  15  30  54  84 114 147 188 224 263 335
#     4  12  25  35  53  79 114 154 189 242 308 354
#     4  10  21  37  55  83 114 145 196 243 292 353
#     4   9  22  40  58  80 105 141 196 248 294 357
#     4  10  20  35  56  84 124 160 189 233 295 362
#     4   8  20  34  58  80  97 139 186 244 280 332
#
# _framework density 17.773717999999999
#
# number of rings (size 3 to 8) (size 9 to 14) (size 15 to 20)
#    0.000    2.267    1.333    1.600    7.467    1.600 
#    0.000    0.667    0.000    3.200    0.000    0.000 
#    0.000   37.333    0.000    0.000    0.000    0.000 
#
# Total GULP energy -668166.088265 kJ/mol
# GULP energy per Si atom -5568.050736 kJ/mol
# Density = 1.773326 g / cm^3
# Si number density = 17.773718 Si / 1000 Ang^3
#
#
#
# Elastic Constant Matrix: (Units=GPa)
#
#
# Indices 1 2 3 4 5 6 
#
# 1 182.7367 -62.2219 34.5328 0.0000 0.0000 0.0000
# 2 -62.2219 182.7367 34.5328 0.0000 0.0000 0.0000
# 3 34.5328 34.5328 101.5075 0.0000 0.0000 0.0000
# 4 0.0000 0.0000 0.0000 6.4638 0.0000 0.0000
# 5 0.0000 0.0000 0.0000 0.0000 6.4638 0.0000
# 6 0.0000 0.0000 0.0000 0.0000 0.0000 28.4286
#
#
#
# Elastic Compliance Matrix: (Units=1/GPa)
#
#
# Indices 1 2 3 4 5 6 
#
# 1 0.007195 0.003112 -0.003507 0.000000 0.000000 0.000000
# 2 0.003112 0.007195 -0.003507 0.000000 0.000000 0.000000
# 3 -0.003507 -0.003507 0.012237 0.000000 0.000000 0.000000
# 4 0.000000 0.000000 0.000000 0.154709 0.000000 0.000000
# 5 0.000000 0.000000 0.000000 0.000000 0.154709 0.000000
# 6 0.000000 0.000000 0.000000 0.000000 0.000000 0.035176
#
#
# Mechanical properties :
#
#
# Convention : Reuss Voigt Hill
#
# Bulk Modulus (GPa) = 53.11867 53.40759 53.26313
# Shear Modulus (GPa) = 12.97702 38.94703 25.96203
#
# Velocity S-wave (km/s) = 2.70501 4.68618 3.82605
# Velocity P-wave (km/s) = 6.30136 7.70677 7.03922
#
# Compressibility (1/GPa) = 0.01882577
#
# Stress axis : x y z
#
# Youngs Moduli (GPa) = 138.98915 138.98915 81.71721
#
# Poissons Ratio (x) = -0.43260 0.28654
# Poissons Ratio (y) = -0.43260 0.28654
# Poissons Ratio (z) = 0.48737 0.48737
#
# Static dielectric constant tensor:
#      x y z
#    x 1.627280 0.000000 0.000000 
#    y 0.000000 1.627280 0.000000 
#    z 0.000000 0.000000 1.589480 
# 
# From -- ./inp_files/5592.got.cif
#   From: 2010.05.17/outbox.cif.g08.bks.cpg/sg124_3_cif.got.tgz:5592.got - 2010.05.20 11:49:17.
