data_PCOD9562685
_publ_section_title
;
Structure prediction by ZEFSAII (Michael W. Deem and Ramdas Pophale) SiO2 
 PCOD9562685
Probable space group: P 4/M C C
;
_chemical_formula_sum "Si O2"
_cell_formula_units_Z 112
_cell_length_a 13.938138
_cell_length_b 13.938138
_cell_length_c 22.424533
_cell_angle_alpha 90.000000
_cell_angle_beta 90.000000
_cell_angle_gamma 90.000000
_cell_volume 4356.451944
_symmetry_space_group_name_H-M "P 4/M C C"
_symmetry_group_IT_number 124
_symmetry_cell_setting 'tetragonal'
loop_
_space_group_symop_operation_xyz
x,y,z
-y,x,z
-x,-y,z
y,-x,z
x,-y,1/2-z
-x,y,1/2-z
y,x,1/2-z
-y,-x,1/2-z
-x,-y,-z
y,-x,-z
x,y,-z
-y,x,-z
-x,y,1/2+z
x,-y,1/2+z
-y,-x,1/2+z
y,x,1/2+z
loop_
_atom_site_type_symbol
_atom_site_label
_atom_site_fract_x
_atom_site_fract_y
_atom_site_fract_z
Si Si1 0.296553 0.323248 0.068523
Si Si2 0.739999 0.101634 0.746885
Si Si3 0.321781 0.118286 0.119696
Si Si4 0.915925 0.396802 0.430367
Si Si5 0.352856 0.446626 0.827068
Si Si6 0.084902 0.135560 0.434994
Si Si7 0.865140 0.560069 0.806895
O O1 0.341805 0.224779 0.094592
O O2 0.178986 0.328107 0.072799
O O3 0.334892 0.415654 0.104215
O O4 0.321691 0.329092 0.000000
O O5 0.809785 0.190216 0.750000
O O6 0.668422 0.114682 0.690533
O O7 0.667464 0.095404 0.802204
O O8 0.793164 0.000000 0.750000
O O9 0.205446 0.116248 0.115647
O O10 0.353979 0.022116 0.083837
O O11 0.915733 0.430799 0.500000
O O12 0.893007 0.470469 0.374711
O O13 0.445062 0.382304 0.812239
O O14 0.248979 0.427265 0.800620
O O15 0.111548 0.177725 0.500000
O O16 0.970507 0.125586 0.432557
O O17 0.898439 0.500000 0.750000
#
# Coordination Sequence:
#
# PCOD9562685 Si02
#       7
#    16  16  16  16  16  16  16
#     4  10  22  40  69 107 152 202 247 311 392 464
#     4  12  28  48  70 105 153 206 268 324 399 472
#     4  12  22  37  67  94 142 198 261 313 374 457
#     4  10  21  43  71 108 150 198 260 322 386 470
#     4  10  24  47  78 116 146 182 242 318 394 475
#     4   9  18  31  52  89 131 175 238 310 369 426
#     4  11  26  48  80 112 152 202 251 323 401 478
#
# _framework density 25.708994000000001
#
# number of rings (size 3 to 8) (size 9 to 14) (size 15 to 20)
#    0.000    1.429    1.429    4.286    6.000    3.286 
#    0.000    1.429    0.000    0.857    0.000    0.000 
#    0.000    0.000    0.000    0.000    0.000    0.000 
#
# Total GULP energy -625954.032933 kJ/mol
# GULP energy per Si atom -5588.875294 kJ/mol
# Density = 2.565048 g / cm^3
# Si number density = 25.708994 Si / 1000 Ang^3
#
#
#
# Elastic Constant Matrix: (Units=GPa)
#
#
# Indices 1 2 3 4 5 6 
#
# 1 107.9265 35.6209 29.4643 0.0000 0.0000 0.0000
# 2 35.6209 107.9247 29.4638 0.0000 0.0000 0.0000
# 3 29.4643 29.4638 164.1197 0.0000 0.0000 0.0000
# 4 0.0000 0.0000 0.0000 37.3507 0.0000 0.0000
# 5 0.0000 0.0000 0.0000 0.0000 37.3513 0.0000
# 6 0.0000 0.0000 0.0000 0.0000 0.0000 37.3078
#
#
#
# Elastic Compliance Matrix: (Units=1/GPa)
#
#
# Indices 1 2 3 4 5 6 
#
# 1 0.010675 -0.003155 -0.001350 0.000000 0.000000 0.000000
# 2 -0.003155 0.010676 -0.001350 0.000000 0.000000 0.000000
# 3 -0.001350 -0.001350 0.006578 0.000000 0.000000 0.000000
# 4 0.000000 0.000000 0.000000 0.026773 0.000000 0.000000
# 5 0.000000 0.000000 0.000000 0.000000 0.026773 0.000000
# 6 0.000000 0.000000 0.000000 0.000000 0.000000 0.026804
#
#
# Mechanical properties :
#
#
# Convention : Reuss Voigt Hill
#
# Bulk Modulus (GPa) = 61.65785 63.22988 62.44387
# Shear Modulus (GPa) = 39.87381 41.43009 40.65195
#
# Velocity S-wave (km/s) = 3.94251 4.01871 3.98079
# Velocity P-wave (km/s) = 6.69026 6.79567 6.74317
#
# Compressibility (1/GPa) = 0.01621853
#
# Stress axis : x y z
#
# Youngs Moduli (GPa) = 93.67316 93.67171 152.02424
#
# Poissons Ratio (x) = 0.29552 0.20526
# Poissons Ratio (y) = 0.29552 0.20526
# Poissons Ratio (z) = 0.12647 0.12647
#
# Static dielectric constant tensor:
#      x y z
#    x 1.995610 0.000000 0.000000 
#    y 0.000000 1.995610 0.000000 
#    z 0.000000 0.000000 2.241660 
# 
# From -- ./inp_files/6111.got.cif
#   From: 2010.05.17/outbox.cif.g08.bks.cpg/sg124_4_cif.got.tgz:6111.got - 2010.05.20 11:49:17.
