data_PCOD9562011
_publ_section_title
;
Structure prediction by ZEFSAII (Michael W. Deem and Ramdas Pophale) SiO2 
 PCOD9562011
Probable space group: P 4/M M M
;
_chemical_formula_sum "Si O2"
_cell_formula_units_Z 104
_cell_length_a 18.659254
_cell_length_b 18.659254
_cell_length_c 15.504753
_cell_angle_alpha 90.000000
_cell_angle_beta 90.000000
_cell_angle_gamma 90.000000
_cell_volume 5398.255119
_symmetry_space_group_name_H-M "P 4/M M M"
_symmetry_group_IT_number 123
_symmetry_cell_setting 'tetragonal'
loop_
_space_group_symop_operation_xyz
x,y,z
-y,x,z
-x,-y,z
y,-x,z
x,-y,-z
-x,y,-z
y,x,-z
-y,-x,-z
-x,-y,-z
y,-x,-z
x,y,-z
-y,x,-z
-x,y,z
x,-y,z
-y,-x,z
y,x,z
loop_
_atom_site_type_symbol
_atom_site_label
_atom_site_fract_x
_atom_site_fract_y
_atom_site_fract_z
Si Si1 0.303448 0.418242 0.133411
Si Si2 0.193578 0.082008 0.604217
Si Si3 0.164474 0.336229 0.648305
Si Si4 0.418066 0.307157 0.344052
Si Si5 0.190555 0.311129 0.163738
Si Si6 0.416090 0.916618 0.500000
Si Si7 0.805461 0.919103 0.896794
O O1 0.302200 0.500000 0.104134
O O2 0.373252 0.373252 0.106146
O O3 0.304448 0.419139 0.238920
O O4 0.233447 0.371147 0.110584
O O5 0.197391 0.080325 0.500000
O O6 0.117874 0.117874 0.628570
O O7 0.255486 0.136786 0.633814
O O8 0.203185 0.000000 0.634690
O O9 0.244614 0.363568 0.626846
O O10 0.159014 0.347033 0.750548
O O11 0.115761 0.382472 0.585797
O O12 0.500000 0.296835 0.373583
O O13 0.382661 0.382661 0.369012
O O14 0.253218 0.253218 0.189107
O O15 0.128486 0.264878 0.120540
O O16 0.500000 0.903630 0.500000
O O17 0.400400 0.000000 0.500000
O O18 0.872887 0.872887 0.862759
O O19 0.801425 0.000000 0.862519
O O20 0.813440 0.923504 0.000000
#
# Coordination Sequence:
#
# PCOD9562011 Si02
#       7
#    16  16  16  16  16   8  16
#     4   8  14  25  43  69 100 131 165 205 247 295
#     4  10  20  33  49  69  92 120 156 199 248 301
#     4  11  19  34  53  72  97 130 172 217 257 304
#     4   9  17  29  46  70  98 128 163 203 249 300
#     4   9  18  32  51  76 103 135 174 213 255 307
#     4  11  24  38  51  72 102 132 169 223 278 322
#     4   9  18  33  54  81 111 141 174 214 261 314
#
# _framework density 19.265483
#
# number of rings (size 3 to 8) (size 9 to 14) (size 15 to 20)
#    0.000    2.538    0.769    3.231    0.000    2.462 
#    0.000    3.077    0.000    0.923    0.000    3.231 
#    0.000    1.846    0.000    6.154    0.000    4.769 
#
# Total GULP energy -579578.340115 kJ/mol
# GULP energy per Si atom -5572.868655 kJ/mol
# Density = 1.922163 g / cm^3
# Si number density = 19.265483 Si / 1000 Ang^3
#
#
#
# Elastic Constant Matrix: (Units=GPa)
#
#
# Indices 1 2 3 4 5 6 
#
# 1 151.0681 77.7264 16.7726 0.0000 0.0000 0.0000
# 2 77.7264 151.0681 16.7726 0.0000 0.0000 0.0000
# 3 16.7726 16.7726 40.5480 0.0000 0.0000 0.0000
# 4 0.0000 0.0000 0.0000 12.4703 0.0000 0.0000
# 5 0.0000 0.0000 0.0000 0.0000 12.4703 0.0000
# 6 0.0000 0.0000 0.0000 0.0000 0.0000 22.4652
#
#
#
# Elastic Compliance Matrix: (Units=1/GPa)
#
#
# Indices 1 2 3 4 5 6 
#
# 1 0.009144 -0.004491 -0.001925 0.000000 0.000000 0.000000
# 2 -0.004491 0.009144 -0.001925 0.000000 0.000000 0.000000
# 3 -0.001925 -0.001925 0.026254 0.000000 0.000000 0.000000
# 4 0.000000 0.000000 0.000000 0.080191 0.000000 0.000000
# 5 0.000000 0.000000 0.000000 0.000000 0.080191 0.000000
# 6 0.000000 0.000000 0.000000 0.000000 0.000000 0.044513
#
#
# Mechanical properties :
#
#
# Convention : Reuss Voigt Hill
#
# Bulk Modulus (GPa) = 35.89172 62.80304 49.34738
# Shear Modulus (GPa) = 18.15511 24.90865 21.53188
#
# Velocity S-wave (km/s) = 3.07313 3.59961 3.34674
# Velocity P-wave (km/s) = 5.59130 7.06723 6.37214
#
# Compressibility (1/GPa) = 0.02786158
#
# Stress axis : x y z
#
# Youngs Moduli (GPa) = 109.36291 109.36291 38.08882
#
# Poissons Ratio (x) = 0.49114 0.07331
# Poissons Ratio (y) = 0.49114 0.07331
# Poissons Ratio (z) = 0.21049 0.21049
#
# Static dielectric constant tensor:
#      x y z
#    x 1.673160 0.000000 0.000000 
#    y 0.000000 1.673160 0.000000 
#    z 0.000000 0.000000 1.725070 
# 
# From -- ./inp_files/5650.got.cif
#   From: 2010.05.17/outbox.cif.g08.bks.cpg/sg123_3_cif.got.tgz:5650.got - 2010.05.20 11:43:04.
