data_PCOD9562199
_publ_section_title
;
Structure prediction by ZEFSAII (Michael W. Deem and Ramdas Pophale) SiO2 
 PCOD9562199
Probable space group: P 4/M M M
;
_chemical_formula_sum "Si O2"
_cell_formula_units_Z 96
_cell_length_a 23.585628
_cell_length_b 23.585628
_cell_length_c 8.841927
_cell_angle_alpha 90.000000
_cell_angle_beta 90.000000
_cell_angle_gamma 90.000000
_cell_volume 4918.603493
_symmetry_space_group_name_H-M "P 4/M M M"
_symmetry_group_IT_number 123
_symmetry_cell_setting 'tetragonal'
loop_
_space_group_symop_operation_xyz
x,y,z
-y,x,z
-x,-y,z
y,-x,z
x,-y,-z
-x,y,-z
y,x,-z
-y,-x,-z
-x,-y,-z
y,-x,-z
x,y,-z
-y,x,-z
-x,y,z
x,-y,z
-y,-x,z
y,x,z
loop_
_atom_site_type_symbol
_atom_site_label
_atom_site_fract_x
_atom_site_fract_y
_atom_site_fract_z
Si Si1 0.937062 0.324102 0.680080
Si Si2 0.566156 0.658524 0.181747
Si Si3 0.153616 0.934494 0.325544
Si Si4 0.238850 0.149525 0.178127
Si Si5 0.223977 0.431493 0.671253
Si Si6 0.105013 0.565844 0.179457
O O1 0.934821 0.320516 0.500000
O O2 0.881555 0.292238 0.745234
O O3 0.932823 0.388852 0.734193
O O4 0.000000 0.301352 0.727558
O O5 0.500000 0.648911 0.221750
O O6 0.605757 0.605757 0.222897
O O7 0.587243 0.716270 0.259629
O O8 0.568456 0.665929 0.000000
O O9 0.174179 0.925574 0.500000
O O10 0.090594 0.909407 0.320326
O O11 0.191072 0.897427 0.214077
O O12 0.156045 0.000000 0.291792
O O13 0.209043 0.209043 0.230922
O O14 0.249484 0.155136 0.000000
O O15 0.215163 0.410558 0.500000
O O16 0.227594 0.500000 0.665157
O O17 0.169907 0.419939 0.775195
O O18 0.094598 0.500000 0.221403
O O19 0.097345 0.571258 0.000000
#
# Coordination Sequence:
#
# PCOD9562199 Si02
#       6
#    16  16  16  16  16  16
#     4  11  24  40  60  88 121 156 192 231 278 333
#     4   9  17  29  46  70 102 141 186 237 293 353
#     4   9  17  29  46  69  98 133 173 217 265 317
#     4  10  21  37  57  80 107 142 185 232 279 325
#     4   9  17  31  52  75 100 133 174 220 270 326
#     4  10  21  38  61  87 115 148 185 227 278 336
#
# _framework density 19.517734999999998
#
# number of rings (size 3 to 8) (size 9 to 14) (size 15 to 20)
#    0.000    2.333    0.000    2.500    0.000    8.667 
#    0.000    4.167    0.000    5.000    0.000    4.667 
#    0.000    0.000    0.000    0.000    0.000    0.000 
#
# Total GULP energy -535104.554302 kJ/mol
# GULP energy per Si atom -5574.005774 kJ/mol
# Density = 1.947331 g / cm^3
# Si number density = 19.517735 Si / 1000 Ang^3
#
#
#
# Elastic Constant Matrix: (Units=GPa)
#
#
# Indices 1 2 3 4 5 6 
#
# 1 72.5631 37.3559 20.1174 0.0000 0.0000 0.0000
# 2 37.3559 72.5631 20.1174 0.0000 0.0000 0.0000
# 3 20.1174 20.1174 34.8972 0.0000 0.0000 0.0000
# 4 0.0000 0.0000 0.0000 26.0511 0.0000 0.0000
# 5 0.0000 0.0000 0.0000 0.0000 26.0511 0.0000
# 6 0.0000 0.0000 0.0000 0.0000 0.0000 18.5219
#
#
#
# Elastic Compliance Matrix: (Units=1/GPa)
#
#
# Indices 1 2 3 4 5 6 
#
# 1 0.019967 -0.008436 -0.006647 0.000000 0.000000 0.000000
# 2 -0.008436 0.019967 -0.006647 0.000000 0.000000 0.000000
# 3 -0.006647 -0.006647 0.036320 0.000000 0.000000 0.000000
# 4 0.000000 0.000000 0.000000 0.038386 0.000000 0.000000
# 5 0.000000 0.000000 0.000000 0.000000 0.038386 0.000000
# 6 0.000000 0.000000 0.000000 0.000000 0.000000 0.053990
#
#
# Mechanical properties :
#
#
# Convention : Reuss Voigt Hill
#
# Bulk Modulus (GPa) = 30.49506 37.24500 33.87003
# Shear Modulus (GPa) = 19.12716 20.95363 20.04040
#
# Velocity S-wave (km/s) = 3.13387 3.28009 3.20782
# Velocity P-wave (km/s) = 5.36219 5.78527 5.57774
#
# Compressibility (1/GPa) = 0.03279220
#
# Stress axis : x y z
#
# Youngs Moduli (GPa) = 50.08257 50.08257 27.53334
#
# Poissons Ratio (x) = 0.42251 0.18302
# Poissons Ratio (y) = 0.42251 0.18302
# Poissons Ratio (z) = 0.33291 0.33291
#
# Static dielectric constant tensor:
#      x y z
#    x 1.704160 0.000000 0.000000 
#    y 0.000000 1.704160 0.000000 
#    z 0.000000 0.000000 1.674600 
# 
# From -- ./inp_files/1605.got.cif
#   From: 2010.05.17/outbox.cif.g08.bks.cpg/sg123_1_cif.got.tgz:1605.got - 2010.05.20 11:43:04.
