data_PCOD9562569
_publ_section_title
;
Structure prediction by ZEFSAII (Michael W. Deem and Ramdas Pophale) SiO2 
 PCOD9562569
Probable space group: P 4/M C C
;
_chemical_formula_sum "Si O2"
_cell_formula_units_Z 96
_cell_length_a 22.890965
_cell_length_b 22.890965
_cell_length_c 9.621161
_cell_angle_alpha 90.000000
_cell_angle_beta 90.000000
_cell_angle_gamma 90.000000
_cell_volume 5041.452560
_symmetry_space_group_name_H-M "P 4/M C C"
_symmetry_group_IT_number 124
_symmetry_cell_setting 'tetragonal'
loop_
_space_group_symop_operation_xyz
x,y,z
-y,x,z
-x,-y,z
y,-x,z
x,-y,1/2-z
-x,y,1/2-z
y,x,1/2-z
-y,-x,1/2-z
-x,-y,-z
y,-x,-z
x,y,-z
-y,x,-z
-x,y,1/2+z
x,-y,1/2+z
-y,-x,1/2+z
y,x,1/2+z
loop_
_atom_site_type_symbol
_atom_site_label
_atom_site_fract_x
_atom_site_fract_y
_atom_site_fract_z
Si Si1 0.746114 0.328426 0.655890
Si Si2 0.442191 0.175406 0.329866
Si Si3 0.423176 0.055125 0.159297
Si Si4 0.250322 0.857757 0.146982
Si Si5 0.123283 0.123283 0.250000
Si Si6 0.087141 0.952604 0.500000
Si Si7 0.284544 0.049622 0.149990
O O1 0.693247 0.306754 0.750000
O O2 0.724865 0.339098 0.500000
O O3 0.783454 0.385764 0.697026
O O4 0.792473 0.274627 0.649071
O O5 0.500000 0.198569 0.250000
O O6 0.448343 0.169943 0.500000
O O7 0.431865 0.112903 0.253379
O O8 0.354059 0.044219 0.141370
O O9 0.442879 0.000000 0.250000
O O10 0.447186 0.060289 0.000000
O O11 0.181909 0.870481 0.158183
O O12 0.274996 0.888459 0.281449
O O13 0.272848 0.883665 0.000000
O O14 0.070446 0.118493 0.359908
O O15 0.022167 0.923035 0.500000
O O16 0.260582 0.000000 0.250000
O O17 0.257271 0.045097 0.000000
#
# Coordination Sequence:
#
# PCOD9562569 Si02
#       7
#    16  16  16  16   8   8  16
#     4  10  22  39  63  88 122 163 198 243 302 358
#     4  11  23  40  61  88 121 163 213 260 302 358
#     4  10  20  35  55  82 115 160 208 255 306 361
#     4  11  22  38  57  85 118 146 183 234 292 363
#     4  12  24  41  64  88 108 138 182 240 301 372
#     4  11  26  48  66  80 106 144 190 244 312 386
#     4  10  21  34  53  78 111 149 187 233 291 350
#
# _framework density 19.04213
#
# number of rings (size 3 to 8) (size 9 to 14) (size 15 to 20)
#    0.000    1.417    3.333    2.000    1.167    5.667 
#    0.000    1.667    0.000    0.000    0.000    0.000 
#    0.000    0.333    0.000    3.667    0.000    2.667 
#
# Total GULP energy -535301.251069 kJ/mol
# GULP energy per Si atom -5576.054699 kJ/mol
# Density = 1.899879 g / cm^3
# Si number density = 19.042130 Si / 1000 Ang^3
#
#
#
# Elastic Constant Matrix: (Units=GPa)
#
#
# Indices 1 2 3 4 5 6 
#
# 1 77.2653 32.8415 46.5834 0.0000 0.0000 0.0000
# 2 32.8415 77.2639 46.5824 0.0000 0.0000 0.0000
# 3 46.5834 46.5824 161.3651 0.0000 0.0000 0.0000
# 4 0.0000 0.0000 0.0000 22.2926 0.0000 0.0000
# 5 0.0000 0.0000 0.0000 0.0000 22.2929 0.0000
# 6 0.0000 0.0000 0.0000 0.0000 0.0000 -2.1291
#
#
#
# Elastic Compliance Matrix: (Units=1/GPa)
#
#
# Indices 1 2 3 4 5 6 
#
# 1 0.017264 -0.005247 -0.003469 0.000000 0.000000 0.000000
# 2 -0.005247 0.017264 -0.003469 0.000000 0.000000 0.000000
# 3 -0.003469 -0.003469 0.008200 0.000000 0.000000 0.000000
# 4 0.000000 0.000000 0.000000 0.044858 0.000000 0.000000
# 5 0.000000 0.000000 0.000000 0.000000 0.044857 0.000000
# 6 0.000000 0.000000 0.000000 0.000000 0.000000 -0.469688
#
#
# Mechanical properties :
#
#
# Convention : Reuss Voigt Hill
#
# Bulk Modulus (GPa) = 54.47098 63.10101 58.78600
# Shear Modulus (GPa) = -16.29968 21.15041 2.42536
#
# Velocity S-wave (km/s) = -2.92889 3.33636 1.12980
# Velocity P-wave (km/s) = 4.15088 6.93190 5.71319
#
# Compressibility (1/GPa) = 0.01835840
#
# Stress axis : x y z
#
# Youngs Moduli (GPa) = 57.92358 57.92283 121.94919
#
# Poissons Ratio (x) = 0.30390 0.42308
# Poissons Ratio (y) = 0.30390 0.42307
# Poissons Ratio (z) = 0.20095 0.20095
#
# Static dielectric constant tensor:
#      x y z
#    x 1.702400 0.000000 0.000000 
#    y 0.000000 1.702400 0.000000 
#    z 0.000000 0.000000 1.669700 
# 
# From -- ./inp_files/1431.got.cif
#   From: 2010.05.17/outbox.cif.g08.bks.cpg/sg124_1_cif.got.tgz:1431.got - 2010.05.20 11:49:17.
