data_PCOD9562870
_publ_section_title
;
Structure prediction by ZEFSAII (Michael W. Deem and Ramdas Pophale) SiO2 
 PCOD9562870
Probable space group: P 4/M C C
;
_chemical_formula_sum "Si O2"
_cell_formula_units_Z 112
_cell_length_a 15.000000
_cell_length_b 15.000000
_cell_length_c 27.000000
_cell_angle_alpha 90.000000
_cell_angle_beta 90.000000
_cell_angle_gamma 90.000000
_cell_volume 6075.000000
_symmetry_space_group_name_H-M "P 4/M C C"
_symmetry_group_IT_number 124
_symmetry_cell_setting 'tetragonal'
loop_
_space_group_symop_operation_xyz
x,y,z
-y,x,z
-x,-y,z
y,-x,z
x,-y,1/2-z
-x,y,1/2-z
y,x,1/2-z
-y,-x,1/2-z
-x,-y,-z
y,-x,-z
x,y,-z
-y,x,-z
-x,y,1/2+z
x,-y,1/2+z
-y,-x,1/2+z
y,x,1/2+z
loop_
_atom_site_type_symbol
_atom_site_label
_atom_site_fract_x
_atom_site_fract_y
_atom_site_fract_z
Si Si1 0.398880 0.739095 0.224984
Si Si2 0.651357 0.329117 0.116348
Si Si3 0.259158 0.109012 0.759961
Si Si4 0.490464 0.279333 0.057023
Si Si5 0.091311 0.881142 0.055090
Si Si6 0.426541 0.074583 0.942594
Si Si7 0.142658 0.727158 0.875803
O O1 0.500000 0.744964 0.250000
O O2 0.338880 0.661121 0.250000
O O3 0.396321 0.705346 0.167376
O O4 0.339940 0.831391 0.233657
O O5 0.592917 0.288255 0.072323
O O6 0.665027 0.431919 0.097470
O O7 0.753175 0.296926 0.119851
O O8 0.167257 0.167257 0.750000
O O9 0.275343 0.117572 0.818559
O O10 0.255719 0.000000 0.750000
O O11 0.466014 0.174710 0.059680
O O12 0.473989 0.308464 0.000000
O O13 0.130012 0.822483 0.098719
O O14 0.984028 0.880277 0.058201
O O15 0.117050 0.847454 0.000000
O O16 0.341823 0.081316 0.906681
O O17 0.500000 0.000000 0.928828
O O18 0.400572 0.057121 0.000000
#
# Coordination Sequence:
#
# PCOD9562870 Si02
#       7
#    16  16  16  16  16  16  16
#     4  11  23  44  68  96 134 175 229 286 334 399
#     4  11  22  40  65  87 128 169 210 267 321 389
#     4  11  26  47  66  98 136 174 230 292 345 413
#     4  10  22  38  61  95 130 167 210 262 324 390
#     4   9  20  37  58  89 123 156 205 258 309 380
#     4   9  20  38  59  91 131 165 209 260 317 396
#     4  11  22  39  65  89 124 170 215 261 330 393
#
# _framework density 18.436214
#
# number of rings (size 3 to 8) (size 9 to 14) (size 15 to 20)
#    0.000    1.714    2.857    2.143    4.000    4.857 
#    0.000    5.000    0.000    0.000    0.000    0.000 
#    0.000    0.000    0.000    0.000    0.000    0.000 
#
# Total GULP energy -623876.250820 kJ/mol
# GULP energy per Si atom -5570.323668 kJ/mol
# Density = 1.839425 g / cm^3
# Si number density = 18.436214 Si / 1000 Ang^3
#
#
#
# Elastic Constant Matrix: (Units=GPa)
#
#
# Indices 1 2 3 4 5 6 
#
# 1 90.4384 30.6331 38.0974 0.0000 0.0000 0.0000
# 2 30.6331 90.4383 38.0974 0.0000 0.0000 0.0000
# 3 38.0974 38.0974 112.6287 0.0000 0.0000 0.0000
# 4 0.0000 0.0000 0.0000 29.4882 0.0000 0.0000
# 5 0.0000 0.0000 0.0000 0.0000 29.4881 0.0000
# 6 0.0000 0.0000 0.0000 0.0000 0.0000 29.3524
#
#
#
# Elastic Compliance Matrix: (Units=1/GPa)
#
#
# Indices 1 2 3 4 5 6 
#
# 1 0.013607 -0.003114 -0.003549 0.000000 0.000000 0.000000
# 2 -0.003114 0.013607 -0.003549 0.000000 0.000000 0.000000
# 3 -0.003549 -0.003549 0.011280 0.000000 0.000000 0.000000
# 4 0.000000 0.000000 0.000000 0.033912 0.000000 0.000000
# 5 0.000000 0.000000 0.000000 0.000000 0.033912 0.000000
# 6 0.000000 0.000000 0.000000 0.000000 0.000000 0.034069
#
#
# Mechanical properties :
#
#
# Convention : Reuss Voigt Hill
#
# Bulk Modulus (GPa) = 55.34359 56.35124 55.84742
# Shear Modulus (GPa) = 29.96967 30.11090 30.04028
#
# Velocity S-wave (km/s) = 4.03623 4.04573 4.04098
# Velocity P-wave (km/s) = 7.19762 7.24264 7.22016
#
# Compressibility (1/GPa) = 0.01806894
#
# Stress axis : x y z
#
# Youngs Moduli (GPa) = 73.49071 73.49062 88.65259
#
# Poissons Ratio (x) = 0.22883 0.31467
# Poissons Ratio (y) = 0.22883 0.31467
# Poissons Ratio (z) = 0.26085 0.26085
#
# Static dielectric constant tensor:
#      x y z
#    x 1.643700 0.000000 0.000000 
#    y 0.000000 1.643700 0.000000 
#    z 0.000000 0.000000 1.666160 
# 
# From -- ./inp_files/6651.got.cif
#   From: 2010.05.17/outbox.ucp.g08.bks.cvg/sg124_4_cif.got.tgz:6651.got - 2010.06.11 11:36:13.
