data_PCOD9562490
_publ_section_title
;
Structure prediction by ZEFSAII (Michael W. Deem and Ramdas Pophale) SiO2 
 PCOD9562490
Probable space group: P 4/M C C
;
_chemical_formula_sum "Si O2"
_cell_formula_units_Z 120
_cell_length_a 19.974322
_cell_length_b 19.974322
_cell_length_c 14.745022
_cell_angle_alpha 90.000000
_cell_angle_beta 90.000000
_cell_angle_gamma 90.000000
_cell_volume 5882.873615
_symmetry_space_group_name_H-M "P 4/M C C"
_symmetry_group_IT_number 124
_symmetry_cell_setting 'tetragonal'
loop_
_space_group_symop_operation_xyz
x,y,z
-y,x,z
-x,-y,z
y,-x,z
x,-y,1/2-z
-x,y,1/2-z
y,x,1/2-z
-y,-x,1/2-z
-x,-y,-z
y,-x,-z
x,y,-z
-y,x,-z
-x,y,1/2+z
x,-y,1/2+z
-y,-x,1/2+z
y,x,1/2+z
loop_
_atom_site_type_symbol
_atom_site_label
_atom_site_fract_x
_atom_site_fract_y
_atom_site_fract_z
Si Si1 0.893919 0.010566 0.889173
Si Si2 0.829543 0.766491 0.605589
Si Si3 0.080134 0.318676 0.262595
Si Si4 0.250152 0.676101 0.397372
Si Si5 0.579718 0.807153 0.249104
Si Si6 0.776441 0.089344 0.104269
Si Si7 0.391952 0.472346 0.500000
Si Si8 0.396777 0.336538 0.838968
O O1 0.819307 0.026648 0.860202
O O2 0.943449 0.070002 0.860155
O O3 0.892813 0.010528 0.000000
O O4 0.835669 0.745741 0.500000
O O5 0.888253 0.733298 0.663888
O O6 0.753383 0.750040 0.638603
O O7 0.826074 0.846959 0.607618
O O8 0.123581 0.385289 0.281094
O O9 0.101470 0.286157 0.166938
O O10 0.000000 0.327682 0.250000
O O11 0.224589 0.680502 0.500000
O O12 0.212304 0.618908 0.341622
O O13 0.327976 0.657058 0.394184
O O14 0.500000 0.814401 0.250000
O O15 0.595200 0.740729 0.190186
O O16 0.757674 0.078665 0.000000
O O17 0.454171 0.421482 0.500000
O O18 0.354039 0.456924 0.593690
O O19 0.383336 0.383336 0.750000
#
# Coordination Sequence:
#
# PCOD9562490 Si02
#       8
#    16  16  16  16  16  16   8  16
#     4   8  15  29  49  78 119 161 198 240 303 383
#     4  10  21  40  66  94 123 162 215 273 337 389
#     4  12  26  42  63  94 133 171 217 281 343 406
#     4  10  19  39  69  99 125 163 219 282 332 390
#     4  11  25  43  65  96 129 172 226 282 339 392
#     4  10  21  36  62  91 123 164 213 266 327 398
#     4  11  26  42  60  98 148 181 207 257 339 421
#     4  10  22  38  65  93 128 169 222 268 315 390
#
# _framework density 20.398194
#
# number of rings (size 3 to 8) (size 9 to 14) (size 15 to 20)
#    0.000    1.800    3.333    0.800    5.600    0.800 
#    0.000    0.667    0.000    0.000    0.000    2.800 
#    0.000    0.000    0.000    0.000    0.000    0.000 
#
# Total GULP energy -669258.225258 kJ/mol
# GULP energy per Si atom -5577.151877 kJ/mol
# Density = 2.035177 g / cm^3
# Si number density = 20.398194 Si / 1000 Ang^3
#
#
#
# Elastic Constant Matrix: (Units=GPa)
#
#
# Indices 1 2 3 4 5 6 
#
# 1 98.7896 47.0755 39.2348 0.0000 0.0000 0.0000
# 2 47.0755 98.7896 39.2348 0.0000 0.0000 0.0000
# 3 39.2348 39.2348 98.8674 0.0000 0.0000 0.0000
# 4 0.0000 0.0000 0.0000 14.7688 0.0000 0.0000
# 5 0.0000 0.0000 0.0000 0.0000 14.7688 0.0000
# 6 0.0000 0.0000 0.0000 0.0000 0.0000 36.9448
#
#
#
# Elastic Compliance Matrix: (Units=1/GPa)
#
#
# Indices 1 2 3 4 5 6 
#
# 1 0.014027 -0.005310 -0.003459 0.000000 0.000000 0.000000
# 2 -0.005310 0.014027 -0.003459 0.000000 0.000000 0.000000
# 3 -0.003459 -0.003459 0.012860 0.000000 0.000000 0.000000
# 4 0.000000 0.000000 0.000000 0.067710 0.000000 0.000000
# 5 0.000000 0.000000 0.000000 0.000000 0.067710 0.000000
# 6 0.000000 0.000000 0.000000 0.000000 0.000000 0.027067
#
#
# Mechanical properties :
#
#
# Convention : Reuss Voigt Hill
#
# Bulk Modulus (GPa) = 60.76571 60.83745 60.80158
# Shear Modulus (GPa) = 21.42758 24.68992 23.05875
#
# Velocity S-wave (km/s) = 3.24460 3.48285 3.36584
# Velocity P-wave (km/s) = 6.62503 6.78700 6.70650
#
# Compressibility (1/GPa) = 0.01645665
#
# Stress axis : x y z
#
# Youngs Moduli (GPa) = 71.29218 71.29218 77.76067
#
# Poissons Ratio (x) = 0.37858 0.26898
# Poissons Ratio (y) = 0.37858 0.26898
# Poissons Ratio (z) = 0.24661 0.24661
#
# Static dielectric constant tensor:
#      x y z
#    x 1.751920 0.000000 0.000000 
#    y 0.000000 1.751920 0.000000 
#    z 0.000000 0.000000 1.753200 
# 
# From -- ./inp_files/3520.got.cif
#   From: 2010.05.17/outbox.cif.g08.bks.cpg/sg124_2_cif.got.tgz:3520.got - 2010.05.20 11:49:17.
