data_PCOD9562752
_publ_section_title
;
Structure prediction by ZEFSAII (Michael W. Deem and Ramdas Pophale) SiO2 
 PCOD9562752
Probable space group: P 4/M C C
;
_chemical_formula_sum "Si O2"
_cell_formula_units_Z 72
_cell_length_a 11.670793
_cell_length_b 11.670793
_cell_length_c 26.707089
_cell_angle_alpha 90.000000
_cell_angle_beta 90.000000
_cell_angle_gamma 90.000000
_cell_volume 3637.703401
_symmetry_space_group_name_H-M "P 4/M C C"
_symmetry_group_IT_number 124
_symmetry_cell_setting 'tetragonal'
loop_
_space_group_symop_operation_xyz
x,y,z
-y,x,z
-x,-y,z
y,-x,z
x,-y,1/2-z
-x,y,1/2-z
y,x,1/2-z
-y,-x,1/2-z
-x,-y,-z
y,-x,-z
x,y,-z
-y,x,-z
-x,y,1/2+z
x,-y,1/2+z
-y,-x,1/2+z
y,x,1/2+z
loop_
_atom_site_type_symbol
_atom_site_label
_atom_site_fract_x
_atom_site_fract_y
_atom_site_fract_z
Si Si1 0.680121 0.857359 0.864237
Si Si2 0.885488 0.289439 0.391742
Si Si3 0.684257 0.471086 0.809281
Si Si4 0.508082 0.860664 0.943878
Si Si5 0.935286 0.179868 0.500000
O O1 0.802791 0.796462 0.862574
O O2 0.587044 0.802641 0.826846
O O3 0.628744 0.830253 0.919544
O O4 0.691336 0.994683 0.863037
O O5 0.825555 0.409583 0.405168
O O6 0.913333 0.243811 0.447867
O O7 0.625522 0.590762 0.825740
O O8 0.691143 0.500000 0.750000
O O9 0.500000 0.000000 0.945477
O O10 0.493474 0.817490 0.000000
O O11 0.066665 0.141384 0.500000
#
# Coordination Sequence:
#
# PCOD9562752 Si02
#       5
#    16  16  16  16   8
#     4  11  22  34  54  87 122 161 204 251 306 369
#     4  11  21  33  54  81 127 169 214 260 298 356
#     4   9  19  40  70  91 108 141 191 255 324 387
#     4   9  19  31  47  72 110 156 201 247 293 334
#     4  11  20  32  49  79 127 181 236 253 278 360
#
# _framework density 19.792708999999999
#
# number of rings (size 3 to 8) (size 9 to 14) (size 15 to 20)
#    0.000    1.889    3.333    2.000    3.111    0.444 
#    0.000    0.000    0.000   35.333    0.000    4.667 
#    0.000   28.444    0.000    0.000    0.000    0.000 
#
# Total GULP energy -401009.218282 kJ/mol
# GULP energy per Si atom -5569.572476 kJ/mol
# Density = 1.974766 g / cm^3
# Si number density = 19.792709 Si / 1000 Ang^3
#
#
#
# Elastic Constant Matrix: (Units=GPa)
#
#
# Indices 1 2 3 4 5 6 
#
# 1 96.3288 26.2594 31.1767 0.0000 0.0000 0.0000
# 2 26.2594 96.3288 31.1767 0.0000 0.0000 0.0000
# 3 31.1767 31.1767 47.7774 0.0000 0.0000 0.0000
# 4 0.0000 0.0000 0.0000 26.6016 0.0000 0.0000
# 5 0.0000 0.0000 0.0000 0.0000 26.6016 0.0000
# 6 0.0000 0.0000 0.0000 0.0000 0.0000 62.3167
#
#
#
# Elastic Compliance Matrix: (Units=1/GPa)
#
#
# Indices 1 2 3 4 5 6 
#
# 1 0.013241 -0.001031 -0.007968 0.000000 0.000000 0.000000
# 2 -0.001031 0.013241 -0.007968 0.000000 0.000000 0.000000
# 3 -0.007968 -0.007968 0.031329 0.000000 0.000000 0.000000
# 4 0.000000 0.000000 0.000000 0.037592 0.000000 0.000000
# 5 0.000000 0.000000 0.000000 0.000000 0.037592 0.000000
# 6 0.000000 0.000000 0.000000 0.000000 0.000000 0.016047
#
#
# Mechanical properties :
#
#
# Convention : Reuss Voigt Hill
#
# Bulk Modulus (GPa) = 41.87852 46.40671 44.14261
# Shear Modulus (GPa) = 26.18736 33.22547 29.70641
#
# Velocity S-wave (km/s) = 3.64136 4.10160 3.87832
# Velocity P-wave (km/s) = 6.23569 6.77703 6.51199
#
# Compressibility (1/GPa) = 0.02387859
#
# Stress axis : x y z
#
# Youngs Moduli (GPa) = 75.52423 75.52423 31.91965
#
# Poissons Ratio (x) = 0.07785 0.25432
# Poissons Ratio (y) = 0.07785 0.25432
# Poissons Ratio (z) = 0.60174 0.60174
#
# Static dielectric constant tensor:
#      x y z
#    x 1.738210 0.000000 0.000000 
#    y 0.000000 1.738210 0.000000 
#    z 0.000000 0.000000 1.719540 
# 
# From -- ./inp_files/6502.got.cif
#   From: 2010.05.17/outbox.cif.g08.bks.cpg/sg124_4_cif.got.tgz:6502.got - 2010.05.20 11:49:17.
