data_PCOD9562246
_publ_section_title
;
Structure prediction by ZEFSAII (Michael W. Deem and Ramdas Pophale) SiO2 
 PCOD9562246
Probable space group: P 4/M M M
;
_chemical_formula_sum "Si O2"
_cell_formula_units_Z 96
_cell_length_a 25.091194
_cell_length_b 25.091194
_cell_length_c 7.626509
_cell_angle_alpha 90.000000
_cell_angle_beta 90.000000
_cell_angle_gamma 90.000000
_cell_volume 4801.406143
_symmetry_space_group_name_H-M "P 4/M M M"
_symmetry_group_IT_number 123
_symmetry_cell_setting 'tetragonal'
loop_
_space_group_symop_operation_xyz
x,y,z
-y,x,z
-x,-y,z
y,-x,z
x,-y,-z
-x,y,-z
y,x,-z
-y,-x,-z
-x,-y,-z
y,-x,-z
x,y,-z
-y,x,-z
-x,y,z
x,-y,z
-y,-x,z
y,x,z
loop_
_atom_site_type_symbol
_atom_site_label
_atom_site_fract_x
_atom_site_fract_y
_atom_site_fract_z
Si Si1 0.731275 0.646631 0.285405
Si Si2 0.560136 0.644429 0.286081
Si Si3 0.440063 0.060113 0.209190
Si Si4 0.354055 0.149792 0.296139
Si Si5 0.231468 0.146902 0.211871
Si Si6 0.060291 0.855401 0.785994
O O1 0.732325 0.648071 0.500000
O O2 0.700787 0.700787 0.230146
O O3 0.693650 0.597513 0.233934
O O4 0.790965 0.639451 0.217212
O O5 0.559110 0.644721 0.500000
O O6 0.500000 0.647981 0.223178
O O7 0.590846 0.590846 0.232677
O O8 0.500000 0.074742 0.274051
O O9 0.394258 0.103564 0.238989
O O10 0.427402 0.000000 0.275197
O O11 0.444001 0.056215 0.000000
O O12 0.365317 0.155619 0.500000
O O13 0.291456 0.138183 0.272517
O O14 0.201358 0.201358 0.270536
O O15 0.193440 0.098179 0.267122
O O16 0.232157 0.148051 0.000000
O O17 0.090687 0.909314 0.733436
O O18 0.000000 0.851587 0.723748
O O19 0.059356 0.854809 0.000000
#
# Coordination Sequence:
#
# PCOD9562246 Si02
#       6
#    16  16  16  16  16  16
#     4   8  15  27  40  58  90 128 158 187 231 283
#     4   8  13  21  33  50  76 112 151 188 224 263
#     4   9  20  40  60  74  94 127 162 196 241 301
#     4  11  21  31  50  78 101 123 158 205 251 296
#     4   9  18  32  48  68  99 138 175 207 241 289
#     4   8  14  25  42  65  92 122 157 197 239 281
#
# _framework density 19.994142
#
# number of rings (size 3 to 8) (size 9 to 14) (size 15 to 20)
#    0.000    3.167    0.000    3.500    0.000    3.333 
#    0.000    5.833    0.000    0.000    0.000    0.000 
#    0.000    0.000    0.000    3.667    0.000    4.167 
#
# Total GULP energy -535104.023458 kJ/mol
# GULP energy per Si atom -5574.000244 kJ/mol
# Density = 1.994863 g / cm^3
# Si number density = 19.994142 Si / 1000 Ang^3
#
#
#
# Elastic Constant Matrix: (Units=GPa)
#
#
# Indices 1 2 3 4 5 6 
#
# 1 223.4277 73.4095 4.1516 0.0000 0.0000 0.0000
# 2 73.4095 223.4277 4.1516 0.0000 0.0000 0.0000
# 3 4.1516 4.1516 36.7704 0.0000 0.0000 0.0000
# 4 0.0000 0.0000 0.0000 -5.2167 0.0000 0.0000
# 5 0.0000 0.0000 0.0000 0.0000 -5.2167 0.0000
# 6 0.0000 0.0000 0.0000 0.0000 0.0000 22.8240
#
#
#
# Elastic Compliance Matrix: (Units=1/GPa)
#
#
# Indices 1 2 3 4 5 6 
#
# 1 0.005023 -0.001643 -0.000382 0.000000 0.000000 0.000000
# 2 -0.001643 0.005023 -0.000382 0.000000 0.000000 0.000000
# 3 -0.000382 -0.000382 0.027282 0.000000 0.000000 0.000000
# 4 0.000000 0.000000 0.000000 -0.191692 0.000000 0.000000
# 5 0.000000 0.000000 0.000000 0.000000 -0.191692 0.000000
# 6 0.000000 0.000000 0.000000 0.000000 0.000000 0.043814
#
#
# Mechanical properties :
#
#
# Convention : Reuss Voigt Hill
#
# Bulk Modulus (GPa) = 30.75532 71.89460 51.32496
# Shear Modulus (GPa) = -17.44640 29.27233 5.91297
#
# Velocity S-wave (km/s) = -2.95714 3.83044 1.72156
# Velocity P-wave (km/s) = 1.93803 7.45647 5.44770
#
# Compressibility (1/GPa) = 0.03251469
#
# Stress axis : x y z
#
# Youngs Moduli (GPa) = 199.09652 199.09652 36.65430
#
# Poissons Ratio (x) = 0.32715 0.01399
# Poissons Ratio (y) = 0.32715 0.01399
# Poissons Ratio (z) = 0.07597 0.07597
#
# Static dielectric constant tensor:
#      x y z
#    x 1.704700 0.000000 0.000000 
#    y 0.000000 1.704700 0.000000 
#    z 0.000000 0.000000 1.775720 
# 
# From -- ./inp_files/1653.got.cif
#   From: 2010.05.17/outbox.cif.g08.bks.cpg/sg123_1_cif.got.tgz:1653.got - 2010.05.20 11:43:04.
