data_PCOD9562420
_publ_section_title
;
Structure prediction by ZEFSAII (Michael W. Deem and Ramdas Pophale) SiO2 
 PCOD9562420
Probable space group: P 4/M C C
;
_chemical_formula_sum "Si O2"
_cell_formula_units_Z 116
_cell_length_a 17.267338
_cell_length_b 17.267338
_cell_length_c 17.855465
_cell_angle_alpha 90.000000
_cell_angle_beta 90.000000
_cell_angle_gamma 90.000000
_cell_volume 5323.802614
_symmetry_space_group_name_H-M "P 4/M C C"
_symmetry_group_IT_number 124
_symmetry_cell_setting 'tetragonal'
loop_
_space_group_symop_operation_xyz
x,y,z
-y,x,z
-x,-y,z
y,-x,z
x,-y,1/2-z
-x,y,1/2-z
y,x,1/2-z
-y,-x,1/2-z
-x,-y,-z
y,-x,-z
x,y,-z
-y,x,-z
-x,y,1/2+z
x,-y,1/2+z
-y,-x,1/2+z
y,x,1/2+z
loop_
_atom_site_type_symbol
_atom_site_label
_atom_site_fract_x
_atom_site_fract_y
_atom_site_fract_z
Si Si1 0.000000 0.000000 0.354148
Si Si2 0.575157 0.875301 0.196251
Si Si3 0.598076 0.299651 0.084627
Si Si4 0.431132 0.726493 0.586132
Si Si5 0.781637 0.320519 0.703889
Si Si6 0.322671 0.954667 0.586645
Si Si7 0.809392 0.790042 0.581703
Si Si8 0.837173 0.033574 0.913645
O O1 0.095469 0.002108 0.360928
O O2 0.500000 0.887664 0.250000
O O3 0.565709 0.798538 0.143104
O O4 0.649799 0.851815 0.246504
O O5 0.605038 0.945084 0.142703
O O6 0.509336 0.324419 0.092817
O O7 0.666487 0.361153 0.096105
O O8 0.610497 0.236093 0.147385
O O9 0.604168 0.269873 0.000000
O O10 0.426409 0.756068 0.500000
O O11 0.705653 0.294348 0.750000
O O12 0.793186 0.247441 0.650991
O O13 0.345357 0.970510 0.500000
O O14 0.277616 0.871987 0.587801
O O15 0.251691 0.012629 0.606667
O O16 0.770675 0.780369 0.500000
O O17 0.846192 0.874415 0.581814
O O18 0.849864 0.004776 0.000000
#
# Coordination Sequence:
#
# PCOD9562420 Si02
#       8
#     4  16  16  16  16  16  16  16
#     4  12  17  28  60 108 149 174 205 252 313 398
#     4  12  23  37  58  83 113 157 214 270 321 368
#     4  10  20  34  52  78 111 147 186 242 314 390
#     4  10  20  34  53  80 113 149 191 246 318 396
#     4  12  21  34  57  80 111 151 201 257 312 370
#     4  10  20  36  59  90 129 168 207 257 316 381
#     4  10  20  35  57  89 125 163 203 245 302 375
#     4  10  19  32  58  96 139 175 204 246 307 385
#
# _framework density 21.788938000000002
#
# number of rings (size 3 to 8) (size 9 to 14) (size 15 to 20)
#    0.000    1.379    5.517    1.448    0.000    2.483 
#    0.000    2.069    0.000    1.655    0.000    3.862 
#    0.000    0.000    0.000    0.000    0.000    0.000 
#
# Total GULP energy -645784.512437 kJ/mol
# GULP energy per Si atom -5567.107866 kJ/mol
# Density = 2.173935 g / cm^3
# Si number density = 21.788938 Si / 1000 Ang^3
#
#
#
# Elastic Constant Matrix: (Units=GPa)
#
#
# Indices 1 2 3 4 5 6 
#
# 1 58.9078 8.3670 21.3327 0.0000 0.0000 0.0000
# 2 8.3670 58.9078 21.3327 0.0000 0.0000 0.0000
# 3 21.3327 21.3327 90.2387 0.0000 0.0000 0.0000
# 4 0.0000 0.0000 0.0000 28.7156 0.0000 0.0000
# 5 0.0000 0.0000 0.0000 0.0000 28.7195 0.0000
# 6 0.0000 0.0000 0.0000 0.0000 0.0000 14.8828
#
#
#
# Elastic Compliance Matrix: (Units=1/GPa)
#
#
# Indices 1 2 3 4 5 6 
#
# 1 0.018636 -0.001150 -0.004134 0.000000 0.000000 0.000000
# 2 -0.001150 0.018636 -0.004134 0.000000 0.000000 0.000000
# 3 -0.004134 -0.004134 0.013036 0.000000 0.000000 0.000000
# 4 0.000000 0.000000 0.000000 0.034824 0.000000 0.000000
# 5 0.000000 0.000000 0.000000 0.000000 0.034820 0.000000
# 6 0.000000 0.000000 0.000000 0.000000 0.000000 0.067191
#
#
# Mechanical properties :
#
#
# Convention : Reuss Voigt Hill
#
# Bulk Modulus (GPa) = 31.77303 34.45767 33.11535
# Shear Modulus (GPa) = 23.09793 24.93170 24.01482
#
# Velocity S-wave (km/s) = 3.25941 3.38633 3.32348
# Velocity P-wave (km/s) = 5.36459 5.58016 5.47344
#
# Compressibility (1/GPa) = 0.03147323
#
# Stress axis : x y z
#
# Youngs Moduli (GPa) = 53.65955 53.65959 76.70952
#
# Poissons Ratio (x) = 0.06171 0.31710
# Poissons Ratio (y) = 0.06171 0.31710
# Poissons Ratio (z) = 0.22182 0.22182
#
# Static dielectric constant tensor:
#      x y z
#    x 1.816280 0.000000 0.000000 
#    y 0.000000 1.816280 0.000000 
#    z 0.000000 0.000000 1.847020 
# 
# From -- ./inp_files/4434.got.cif
#   From: 2010.05.17/outbox.cif.g08.bks.cpg/sg124_3_cif.got.tgz:4434.got - 2010.05.20 11:49:17.
