data_PCOD9562804
_publ_section_title
;
Structure prediction by ZEFSAII (Michael W. Deem and Ramdas Pophale) SiO2 
 PCOD9562804
Probable space group: P 4/M C C
;
_chemical_formula_sum "Si O2"
_cell_formula_units_Z 80
_cell_length_a 11.637949
_cell_length_b 11.637949
_cell_length_c 28.153755
_cell_angle_alpha 90.000000
_cell_angle_beta 90.000000
_cell_angle_gamma 90.000000
_cell_volume 3813.196857
_symmetry_space_group_name_H-M "P 4/M C C"
_symmetry_group_IT_number 124
_symmetry_cell_setting 'tetragonal'
loop_
_space_group_symop_operation_xyz
x,y,z
-y,x,z
-x,-y,z
y,-x,z
x,-y,1/2-z
-x,y,1/2-z
y,x,1/2-z
-y,-x,1/2-z
-x,-y,-z
y,-x,-z
x,y,-z
-y,x,-z
-x,y,1/2+z
x,-y,1/2+z
-y,-x,1/2+z
y,x,1/2+z
loop_
_atom_site_type_symbol
_atom_site_label
_atom_site_fract_x
_atom_site_fract_y
_atom_site_fract_z
Si Si1 0.892171 0.414865 0.054584
Si Si2 0.044127 0.819677 0.107847
Si Si3 0.089466 0.764664 0.786566
Si Si4 0.134573 0.473713 0.304796
Si Si5 0.512111 0.306469 0.114783
O O1 0.919146 0.302760 0.086669
O O2 0.782309 0.487295 0.072202
O O3 0.000000 0.500000 0.058031
O O4 0.877651 0.378389 0.000000
O O5 0.037862 0.816502 0.165649
O O6 0.917873 0.864417 0.093191
O O7 0.149740 0.850261 0.750000
O O8 0.163416 0.661632 0.807369
O O9 0.000000 0.706300 0.750000
O O10 0.154607 0.500000 0.250000
O O11 0.222003 0.532426 0.340447
O O12 0.000000 0.500000 0.317279
O O13 0.615940 0.396645 0.114743
#
# Coordination Sequence:
#
# PCOD9562804 Si02
#       5
#    16  16  16  16  16
#     4  11  27  48  76 104 134 180 235 293 359 432
#     4  11  25  43  69 106 147 183 223 287 351 419
#     4  12  23  36  62  99 136 181 230 272 328 408
#     4  11  24  39  63  97 135 184 232 282 341 409
#     4  11  27  46  69 100 137 182 235 296 356 420
#
# _framework density 20.979771
#
# number of rings (size 3 to 8) (size 9 to 14) (size 15 to 20)
#    0.000    0.800    6.000    0.600    5.600    1.800 
#    0.000    3.000    0.000    0.000    0.000    0.000 
#    0.000    0.000    0.000    0.000    0.000    0.000 
#
# Total GULP energy -446287.218006 kJ/mol
# GULP energy per Si atom -5578.590225 kJ/mol
# Density = 2.093202 g / cm^3
# Si number density = 20.979771 Si / 1000 Ang^3
#
#
#
# Elastic Constant Matrix: (Units=GPa)
#
#
# Indices 1 2 3 4 5 6 
#
# 1 81.7472 20.4808 41.0971 0.0000 0.0000 0.0000
# 2 20.4808 81.7456 41.0979 0.0000 0.0000 0.0000
# 3 41.0971 41.0979 126.8568 0.0000 0.0000 0.0000
# 4 0.0000 0.0000 0.0000 16.0019 0.0000 0.0000
# 5 0.0000 0.0000 0.0000 0.0000 16.0011 0.0000
# 6 0.0000 0.0000 0.0000 0.0000 0.0000 17.7389
#
#
#
# Elastic Compliance Matrix: (Units=1/GPa)
#
#
# Indices 1 2 3 4 5 6 
#
# 1 0.014775 -0.001547 -0.004285 0.000000 0.000000 0.000000
# 2 -0.001547 0.014775 -0.004285 0.000000 0.000000 0.000000
# 3 -0.004285 -0.004285 0.010660 0.000000 0.000000 0.000000
# 4 0.000000 0.000000 0.000000 0.062493 0.000000 0.000000
# 5 0.000000 0.000000 0.000000 0.000000 0.062496 0.000000
# 6 0.000000 0.000000 0.000000 0.000000 0.000000 0.056373
#
#
# Mechanical properties :
#
#
# Convention : Reuss Voigt Hill
#
# Bulk Modulus (GPa) = 50.06612 55.07791 52.57201
# Shear Modulus (GPa) = 20.12355 22.45997 21.29176
#
# Velocity S-wave (km/s) = 3.10044 3.27548 3.18916
# Velocity P-wave (km/s) = 6.06075 6.37298 6.21883
#
# Compressibility (1/GPa) = 0.01997359
#
# Stress axis : x y z
#
# Youngs Moduli (GPa) = 67.68270 67.68059 93.81268
#
# Poissons Ratio (x) = 0.10472 0.40201
# Poissons Ratio (y) = 0.10473 0.40203
# Poissons Ratio (z) = 0.29004 0.29004
#
# Static dielectric constant tensor:
#      x y z
#    x 7.669340 0.000000 0.000000 
#    y 0.000000 8.052880 0.000000 
#    z 0.000000 0.000000 1.748250 
# 
# From -- ./inp_files/6904.got.cif
#   From: 2010.05.17/outbox.cif.g08.bks.cpg/sg124_4_cif.got.tgz:6904.got - 2010.05.20 11:49:17.
