data_PCOD9562699
_publ_section_title
;
Structure prediction by ZEFSAII (Michael W. Deem and Ramdas Pophale) SiO2 
 PCOD9562699
Probable space group: P 4/M C C
;
_chemical_formula_sum "Si O2"
_cell_formula_units_Z 80
_cell_length_a 11.822018
_cell_length_b 11.822018
_cell_length_c 27.749813
_cell_angle_alpha 90.000000
_cell_angle_beta 90.000000
_cell_angle_gamma 90.000000
_cell_volume 3878.316906
_symmetry_space_group_name_H-M "P 4/M C C"
_symmetry_group_IT_number 124
_symmetry_cell_setting 'tetragonal'
loop_
_space_group_symop_operation_xyz
x,y,z
-y,x,z
-x,-y,z
y,-x,z
x,-y,1/2-z
-x,y,1/2-z
y,x,1/2-z
-y,-x,1/2-z
-x,-y,-z
y,-x,-z
x,y,-z
-y,x,-z
-x,y,1/2+z
x,-y,1/2+z
-y,-x,1/2+z
y,x,1/2+z
loop_
_atom_site_type_symbol
_atom_site_label
_atom_site_fract_x
_atom_site_fract_y
_atom_site_fract_z
Si Si1 0.200062 0.551543 0.196928
Si Si2 0.204102 0.808251 0.197232
Si Si3 0.605745 0.915188 0.553847
Si Si4 0.466750 0.684552 0.104989
Si Si5 0.692460 0.013607 0.648542
O O1 0.183967 0.500000 0.250000
O O2 0.248412 0.679542 0.201840
O O3 0.275875 0.479213 0.160531
O O4 0.914566 0.415103 0.167694
O O5 0.160286 0.839715 0.250000
O O6 0.291080 0.901879 0.180325
O O7 0.100362 0.794430 0.160021
O O8 0.653500 0.903332 0.500000
O O9 0.562821 0.794420 0.573733
O O10 0.684403 0.972269 0.594138
O O11 0.500000 0.000000 0.551378
O O12 0.372986 0.588671 0.095449
#
# Coordination Sequence:
#
# PCOD9562699 Si02
#       5
#    16  16  16  16  16
#     4  10  24  39  64  94 136 185 224 277 344 420
#     4  10  22  38  63  98 135 176 227 276 339 419
#     4  11  23  43  69  96 124 172 232 287 349 410
#     4  11  25  44  66  99 143 185 229 287 347 413
#     4  10  23  41  63  96 134 177 227 288 345 413
#
# _framework density 20.627504999999999
#
# number of rings (size 3 to 8) (size 9 to 14) (size 15 to 20)
#    1.200    0.400    2.000    1.800    5.600    1.200 
#    3.600    6.000    0.000    0.000    0.000    1.400 
#    0.000    0.000    0.000    0.000    0.000    0.000 
#
# Total GULP energy -446125.881741 kJ/mol
# GULP energy per Si atom -5576.573522 kJ/mol
# Density = 2.058056 g / cm^3
# Si number density = 20.627505 Si / 1000 Ang^3
#
#
#
# Elastic Constant Matrix: (Units=GPa)
#
#
# Indices 1 2 3 4 5 6 
#
# 1 78.1581 50.0993 44.7868 0.0000 0.0000 0.0000
# 2 50.0993 78.1580 44.7869 0.0000 0.0000 0.0000
# 3 44.7868 44.7869 175.0351 0.0000 0.0000 0.0000
# 4 0.0000 0.0000 0.0000 -4.4893 0.0000 0.0000
# 5 0.0000 0.0000 0.0000 0.0000 -4.4927 0.0000
# 6 0.0000 0.0000 0.0000 0.0000 0.0000 27.7913
#
#
#
# Elastic Compliance Matrix: (Units=1/GPa)
#
#
# Indices 1 2 3 4 5 6 
#
# 1 0.022566 -0.013073 -0.002429 0.000000 0.000000 0.000000
# 2 -0.013073 0.022566 -0.002429 0.000000 0.000000 0.000000
# 3 -0.002429 -0.002429 0.006956 0.000000 0.000000 0.000000
# 4 0.000000 0.000000 0.000000 -0.222751 0.000000 0.000000
# 5 0.000000 0.000000 0.000000 0.000000 -0.222583 0.000000
# 6 0.000000 0.000000 0.000000 0.000000 0.000000 0.035983
#
#
# Mechanical properties :
#
#
# Convention : Reuss Voigt Hill
#
# Bulk Modulus (GPa) = 61.62779 67.85523 64.74151
# Shear Modulus (GPa) = -15.82323 16.54039 0.35858
#
# Velocity S-wave (km/s) = -2.77265 2.83479 0.41739
# Velocity P-wave (km/s) = 4.43748 6.60921 5.62907
#
# Compressibility (1/GPa) = 0.01622645
#
# Stress axis : x y z
#
# Youngs Moduli (GPa) = 44.31371 44.31361 143.75640
#
# Poissons Ratio (x) = 0.57932 0.34919
# Poissons Ratio (y) = 0.57932 0.34920
# Poissons Ratio (z) = 0.10764 0.10764
#
# Static dielectric constant tensor:
#      x y z
#    x 1.778970 0.000000 0.000000 
#    y 0.000000 1.778970 0.000000 
#    z 0.000000 0.000000 1.738220 
# 
# From -- ./inp_files/6952.got.cif
#   From: 2010.05.17/outbox.cif.g08.bks.cpg/sg124_4_cif.got.tgz:6952.got - 2010.05.20 11:49:17.
