data_PCOD9562959
_publ_section_title
;
Structure prediction by ZEFSAII (Michael W. Deem and Ramdas Pophale) SiO2 
 PCOD9562959
Probable space group: P 4/N B M
;
_chemical_formula_sum "Si O2"
_cell_formula_units_Z 112
_cell_length_a 16.109740
_cell_length_b 16.109740
_cell_length_c 21.879083
_cell_angle_alpha 90.000000
_cell_angle_beta 90.000000
_cell_angle_gamma 90.000000
_cell_volume 5678.141073
_symmetry_space_group_name_H-M "P 4/N B M"
_symmetry_group_IT_number 125
_space_group.IT_coordinate_system_code '2'
_symmetry_cell_setting 'tetragonal'
loop_
_space_group_symop_operation_xyz
x,y,z
1/2-y,x,z
1/2-x,1/2-y,z
y,1/2-x,z
x,1/2-y,-z
1/2-x,y,-z
y,x,-z
1/2-y,1/2-x,-z
-x,-y,-z
1/2+y,-x,-z
1/2+x,1/2+y,-z
-y,1/2+x,-z
-x,1/2+y,z
1/2+x,-y,z
-y,-x,z
1/2+y,1/2+x,z
loop_
_atom_site_type_symbol
_atom_site_label
_atom_site_fract_x
_atom_site_fract_y
_atom_site_fract_z
Si Si1 0.498961 0.747346 0.433291
Si Si2 0.836687 0.855373 0.927409
Si Si3 0.426754 0.427805 0.598609
Si Si4 0.044934 0.679986 0.191795
Si Si5 0.617605 0.252920 0.683219
Si Si6 0.072512 0.067958 0.257507
Si Si7 0.150770 0.511614 0.851113
O O1 0.456335 0.750000 0.500000
O O2 0.549462 0.660434 0.431248
O O3 0.543691 0.836703 0.425518
O O4 0.443606 0.741076 0.372968
O O5 0.738585 0.861517 0.910896
O O6 0.874430 0.935708 0.895079
O O7 0.854438 0.854438 0.000000
O O8 0.499544 0.500457 0.590577
O O9 0.416324 0.411426 0.671635
O O10 0.104989 0.604989 0.170768
O O11 0.084081 0.716951 0.253843
O O12 0.957673 0.645032 0.216640
O O13 0.038584 0.753773 0.143331
O O14 0.658307 0.341694 0.695206
O O15 0.688371 0.188371 0.663471
O O16 0.142676 0.023146 0.218310
O O17 0.993855 0.006146 0.257472
O O18 0.087674 0.587674 0.858198
#
# Coordination Sequence:
#
# PCOD9562959 Si02
#       7
#    16  16  16  16  16  16  16
#     4  12  25  40  61  83 110 155 204 248 306 381
#     4   9  19  38  61  83 115 160 204 246 294 345
#     4  11  24  44  64  86 118 154 196 253 316 374
#     4  10  19  35  56  81 120 163 200 243 306 376
#     4  10  20  35  56  82 113 150 197 255 315 374
#     4   9  19  35  56  81 113 149 190 244 299 353
#     4  11  21  32  55  92 124 155 200 248 296 355
#
# _framework density 19.724765000000001
#
# number of rings (size 3 to 8) (size 9 to 14) (size 15 to 20)
#    0.000    1.714    1.429    3.857    0.000    5.429 
#    0.000    1.429    0.000    0.857    0.000    0.000 
#    0.000    0.000    0.000    0.000    0.000    0.000 
#
# Total GULP energy -624190.693109 kJ/mol
# GULP energy per Si atom -5573.131188 kJ/mol
# Density = 1.967987 g / cm^3
# Si number density = 19.724765 Si / 1000 Ang^3
#
#
#
# Elastic Constant Matrix: (Units=GPa)
#
#
# Indices 1 2 3 4 5 6 
#
# 1 92.3284 15.1188 7.9553 0.0000 0.0000 0.0000
# 2 15.1188 92.3284 7.9553 0.0000 0.0000 0.0000
# 3 7.9553 7.9553 27.8140 0.0000 0.0000 0.0000
# 4 0.0000 0.0000 0.0000 -39.5114 0.0000 0.0000
# 5 0.0000 0.0000 0.0000 0.0000 -39.5114 0.0000
# 6 0.0000 0.0000 0.0000 0.0000 0.0000 29.8631
#
#
#
# Elastic Compliance Matrix: (Units=1/GPa)
#
#
# Indices 1 2 3 4 5 6 
#
# 1 0.011335 -0.001617 -0.002780 0.000000 0.000000 0.000000
# 2 -0.001617 0.011335 -0.002780 0.000000 0.000000 0.000000
# 3 -0.002780 -0.002780 0.037543 0.000000 0.000000 0.000000
# 4 0.000000 0.000000 0.000000 -0.025309 0.000000 0.000000
# 5 0.000000 0.000000 0.000000 0.000000 -0.025309 0.000000
# 6 0.000000 0.000000 0.000000 0.000000 0.000000 0.033486
#
#
# Mechanical properties :
#
#
# Convention : Reuss Voigt Hill
#
# Bulk Modulus (GPa) = 21.80476 30.50330 26.15403
# Shear Modulus (GPa) = 68.75631 2.26413 35.51022
#
# Velocity S-wave (km/s) = 5.91046 1.07255 4.24758
# Velocity P-wave (km/s) = 7.59319 4.12697 6.11099
#
# Compressibility (1/GPa) = 0.04586155
#
# Stress axis : x y z
#
# Youngs Moduli (GPa) = 88.22126 88.22126 26.63593
#
# Poissons Ratio (x) = 0.14262 0.07404
# Poissons Ratio (y) = 0.14262 0.07404
# Poissons Ratio (z) = 0.24523 0.24523
#
# Static dielectric constant tensor:
#      x y z
#    x 1.746010 0.000000 0.000000 
#    y 0.000000 1.746010 0.000000 
#    z 0.000000 0.000000 -2.113070 
# 
# From -- ./inp_files/6259.got.cif
#   From: 2010.05.17/outbox.cif.g08.bks.cpg/sg125_4_cif.got.tgz:6259.got - 2010.05.20 11:54:10.
