data_PCOD9562023
_publ_section_title
;
Structure prediction by ZEFSAII (Michael W. Deem and Ramdas Pophale) SiO2 
 PCOD9562023
Probable space group: P 4/M M M
;
_chemical_formula_sum "Si O2"
_cell_formula_units_Z 88
_cell_length_a 13.847661
_cell_length_b 13.847661
_cell_length_c 27.911824
_cell_angle_alpha 90.000000
_cell_angle_beta 90.000000
_cell_angle_gamma 90.000000
_cell_volume 5352.307596
_symmetry_space_group_name_H-M "P 4/M M M"
_symmetry_group_IT_number 123
_symmetry_cell_setting 'tetragonal'
loop_
_space_group_symop_operation_xyz
x,y,z
-y,x,z
-x,-y,z
y,-x,z
x,-y,-z
-x,y,-z
y,x,-z
-y,-x,-z
-x,-y,-z
y,-x,-z
x,y,-z
-y,x,-z
-x,y,z
x,-y,z
-y,-x,z
y,x,z
loop_
_atom_site_type_symbol
_atom_site_label
_atom_site_fract_x
_atom_site_fract_y
_atom_site_fract_z
Si Si1 0.271503 0.887176 0.174123
Si Si2 0.774092 0.386438 0.634392
Si Si3 0.110333 0.617051 0.000000
Si Si4 0.614791 0.773611 0.904174
Si Si5 0.270539 0.887416 0.556756
Si Si6 0.271324 0.887133 0.712903
O O1 0.173083 0.826918 0.165889
O O2 0.351648 0.837408 0.141026
O O3 0.294598 0.878559 0.230637
O O4 0.261126 0.000000 0.162753
O O5 0.758203 0.500000 0.634584
O O6 0.675509 0.324492 0.634502
O O7 0.835439 0.351614 0.588346
O O8 0.836121 0.351081 0.680108
O O9 0.168022 0.643988 0.047849
O O10 0.106012 0.500000 0.000000
O O11 0.000000 0.652901 0.000000
O O12 0.500000 0.759047 0.904452
O O13 0.674217 0.674217 0.902803
O O14 0.290850 0.879874 0.500000
O O15 0.171868 0.828133 0.566182
O O16 0.261764 0.000000 0.569075
O O17 0.172402 0.827599 0.704415
O O18 0.261504 0.000000 0.701264
#
# Coordination Sequence:
#
# PCOD9562023 Si02
#       6
#    16  16   8  16  16  16
#     4   9  18  32  50  73 100 129 161 197 238 286
#     4  10  21  36  52  70  94 124 161 205 247 287
#     4   9  17  30  49  71  93 119 153 193 238 287
#     4  10  20  33  49  70  97 129 166 206 245 286
#     4   9  18  32  50  74 103 132 161 193 231 279
#     4   9  18  32  50  74 102 129 158 193 235 286
#
# _framework density 16.441507000000001
#
# number of rings (size 3 to 8) (size 9 to 14) (size 15 to 20)
#    0.000    2.636    0.000    1.364    0.000    4.545 
#    0.000    5.455    0.000    4.909    0.000    7.636 
#    0.000    6.545    0.000    0.000    0.000    0.000 
#
# Total GULP energy -490628.142031 kJ/mol
# GULP energy per Si atom -5575.319796 kJ/mol
# Density = 1.640409 g / cm^3
# Si number density = 16.441507 Si / 1000 Ang^3
#
#
#
# Elastic Constant Matrix: (Units=GPa)
#
#
# Indices 1 2 3 4 5 6 
#
# 1 127.6846 80.4364 60.0096 0.0000 0.0000 0.0000
# 2 80.4364 127.6846 60.0096 0.0000 0.0000 0.0000
# 3 60.0096 60.0096 70.0682 0.0000 0.0000 0.0000
# 4 0.0000 0.0000 0.0000 22.9510 0.0000 0.0000
# 5 0.0000 0.0000 0.0000 0.0000 22.9510 0.0000
# 6 0.0000 0.0000 0.0000 0.0000 0.0000 5.3891
#
#
#
# Elastic Compliance Matrix: (Units=1/GPa)
#
#
# Indices 1 2 3 4 5 6 
#
# 1 0.015329 -0.005835 -0.008131 0.000000 0.000000 0.000000
# 2 -0.005835 0.015329 -0.008131 0.000000 0.000000 0.000000
# 3 -0.008131 -0.008131 0.028199 0.000000 0.000000 0.000000
# 4 0.000000 0.000000 0.000000 0.043571 0.000000 0.000000
# 5 0.000000 0.000000 0.000000 0.000000 0.043571 0.000000
# 6 0.000000 0.000000 0.000000 0.000000 0.000000 0.185558
#
#
# Mechanical properties :
#
#
# Convention : Reuss Voigt Hill
#
# Bulk Modulus (GPa) = 68.19837 80.70538 74.45188
# Shear Modulus (GPa) = 13.13574 18.59034 15.86304
#
# Velocity S-wave (km/s) = 2.82961 3.36623 3.10952
# Velocity P-wave (km/s) = 7.22807 8.01883 7.63370
#
# Compressibility (1/GPa) = 0.01466311
#
# Stress axis : x y z
#
# Youngs Moduli (GPa) = 65.23435 65.23435 35.46187
#
# Poissons Ratio (x) = 0.38067 0.28834
# Poissons Ratio (y) = 0.38067 0.28834
# Poissons Ratio (z) = 0.53042 0.53042
#
# Static dielectric constant tensor:
#      x y z
#    x 1.528030 0.000000 0.000000 
#    y 0.000000 1.528030 0.000000 
#    z 0.000000 0.000000 1.565570 
# 
# From -- ./inp_files/8477.got.cif
#   From: 2010.05.17/outbox.cif.g08.bks.cpg/sg123_5_cif.got.tgz:8477.got - 2010.05.20 11:43:04.
