data_PCOD9562798
_publ_section_title
;
Structure prediction by ZEFSAII (Michael W. Deem and Ramdas Pophale) SiO2 
 PCOD9562798
Probable space group: P 4/M C C
;
_chemical_formula_sum "Si O2"
_cell_formula_units_Z 56
_cell_length_a 10.636429
_cell_length_b 10.636429
_cell_length_c 21.458684
_cell_angle_alpha 90.000000
_cell_angle_beta 90.000000
_cell_angle_gamma 90.000000
_cell_volume 2427.698642
_symmetry_space_group_name_H-M "P 4/M C C"
_symmetry_group_IT_number 124
_symmetry_cell_setting 'tetragonal'
loop_
_space_group_symop_operation_xyz
x,y,z
-y,x,z
-x,-y,z
y,-x,z
x,-y,1/2-z
-x,y,1/2-z
y,x,1/2-z
-y,-x,1/2-z
-x,-y,-z
y,-x,-z
x,y,-z
-y,x,-z
-x,y,1/2+z
x,-y,1/2+z
-y,-x,1/2+z
y,x,1/2+z
loop_
_atom_site_type_symbol
_atom_site_label
_atom_site_fract_x
_atom_site_fract_y
_atom_site_fract_z
Si Si1 0.785241 0.009377 0.000000
Si Si2 0.767623 0.273917 0.318802
Si Si3 0.580208 0.306222 0.934102
Si Si4 0.347758 0.015321 0.866555
O O1 0.883470 0.126273 0.000000
O O2 0.702566 0.006994 0.063036
O O3 0.712566 0.287435 0.250000
O O4 0.749689 0.385894 0.368150
O O5 0.700728 0.152688 0.347605
O O6 0.918901 0.273649 0.320654
O O7 0.657399 0.435436 0.935612
O O8 0.607950 0.238783 0.000000
O O9 0.500000 0.000000 0.862640
#
# Coordination Sequence:
#
# PCOD9562798 Si02
#       4
#     8  16  16  16
#     4  11  23  48  80 112 147 189 244 304 362 429
#     4  12  27  46  68 100 142 188 239 295 361 437
#     4   9  20  40  65  95 133 176 228 291 353 419
#     4  12  27  47  73 107 147 189 239 304 370 431
#
# _framework density 23.067112999999999
#
# number of rings (size 3 to 8) (size 9 to 14) (size 15 to 20)
#    0.000    1.000    2.857    3.857    4.000    6.286 
#    0.000    2.857    0.000    0.000    0.000    0.000 
#    0.000    0.000    0.000    0.000    0.000    0.000 
#
# Total GULP energy -312862.039873 kJ/mol
# GULP energy per Si atom -5586.822141 kJ/mol
# Density = 2.301461 g / cm^3
# Si number density = 23.067113 Si / 1000 Ang^3
#
#
#
# Elastic Constant Matrix: (Units=GPa)
#
#
# Indices 1 2 3 4 5 6 
#
# 1 105.1881 32.9027 24.1355 0.0000 0.0000 0.0000
# 2 32.9027 105.1877 24.1352 0.0000 0.0000 0.0000
# 3 24.1355 24.1352 172.0834 0.0000 0.0000 0.0000
# 4 0.0000 0.0000 0.0000 -1.9436 0.0000 0.0000
# 5 0.0000 0.0000 0.0000 0.0000 -1.9415 0.0000
# 6 0.0000 0.0000 0.0000 0.0000 0.0000 39.0180
#
#
#
# Elastic Compliance Matrix: (Units=1/GPa)
#
#
# Indices 1 2 3 4 5 6 
#
# 1 0.010725 -0.003110 -0.001068 0.000000 0.000000 0.000000
# 2 -0.003110 0.010725 -0.001068 0.000000 0.000000 0.000000
# 3 -0.001068 -0.001068 0.006111 0.000000 0.000000 0.000000
# 4 0.000000 0.000000 0.000000 -0.514517 0.000000 0.000000
# 5 0.000000 0.000000 0.000000 0.000000 -0.515065 0.000000
# 6 0.000000 0.000000 0.000000 0.000000 0.000000 0.025629
#
#
# Mechanical properties :
#
#
# Convention : Reuss Voigt Hill
#
# Bulk Modulus (GPa) = 58.58731 60.53399 59.56065
# Shear Modulus (GPa) = -5.20718 27.11230 10.95256
#
# Velocity S-wave (km/s) = -1.50410 3.43208 2.18138
# Velocity P-wave (km/s) = 4.73681 6.48113 5.67637
#
# Compressibility (1/GPa) = 0.01706854
#
# Stress axis : x y z
#
# Youngs Moduli (GPa) = 93.24437 93.24405 163.64675
#
# Poissons Ratio (x) = 0.28995 0.17478
# Poissons Ratio (y) = 0.28995 0.17478
# Poissons Ratio (z) = 0.09959 0.09959
#
# Static dielectric constant tensor:
#      x y z
#    x 1.929050 0.000000 0.000000 
#    y 0.000000 1.929050 0.000000 
#    z 0.000000 0.000000 1.889240 
# 
# From -- ./inp_files/4843.got.cif
#   From: 2010.05.17/outbox.cif.g08.bks.cpg/sg124_3_cif.got.tgz:4843.got - 2010.05.20 11:49:17.
