data_PCOD9562007
_publ_section_title
;
Structure prediction by ZEFSAII (Michael W. Deem and Ramdas Pophale) SiO2 
 PCOD9562007
Probable space group: P 4/M M M
;
_chemical_formula_sum "Si O2"
_cell_formula_units_Z 64
_cell_length_a 21.600186
_cell_length_b 21.600186
_cell_length_c 8.647838
_cell_angle_alpha 90.000000
_cell_angle_beta 90.000000
_cell_angle_gamma 90.000000
_cell_volume 4034.804785
_symmetry_space_group_name_H-M "P 4/M M M"
_symmetry_group_IT_number 123
_symmetry_cell_setting 'tetragonal'
loop_
_space_group_symop_operation_xyz
x,y,z
-y,x,z
-x,-y,z
y,-x,z
x,-y,-z
-x,y,-z
y,x,-z
-y,-x,-z
-x,-y,-z
y,-x,-z
x,y,-z
-y,x,-z
-x,y,z
x,-y,z
-y,-x,z
y,x,z
loop_
_atom_site_type_symbol
_atom_site_label
_atom_site_fract_x
_atom_site_fract_y
_atom_site_fract_z
Si Si1 0.383709 0.284737 0.322106
Si Si2 0.500000 0.893720 0.319760
Si Si3 0.714203 0.188171 0.186712
Si Si4 0.365084 0.069774 0.186329
Si Si5 0.500000 0.237269 0.826574
O O1 0.402254 0.273771 0.500000
O O2 0.350387 0.350387 0.312346
O O3 0.333296 0.234146 0.270799
O O4 0.440137 0.277187 0.207713
O O5 0.500000 0.909014 0.500000
O O6 0.565422 0.916543 0.248417
O O7 0.500000 0.820397 0.289179
O O8 0.782808 0.217193 0.221472
O O9 0.687587 0.120300 0.230766
O O10 0.707244 0.192921 0.000000
O O11 0.347921 0.000000 0.233197
O O12 0.369411 0.072105 0.000000
O O13 0.500000 0.212021 0.000000
#
# Coordination Sequence:
#
# PCOD9562007 Si02
#       5
#    16   8  16  16   8
#     4  10  20  33  50  72  95 119 151 195 244 287
#     4  12  23  33  46  67  95 129 165 200 235 277
#     4   9  17  30  48  68  91 122 159 196 234 280
#     4  10  20  33  48  67  95 130 163 197 239 285
#     4  12  22  33  51  71  95 125 159 196 236 284
#
# _framework density 15.861981999999999
#
# number of rings (size 3 to 8) (size 9 to 14) (size 15 to 20)
#    0.000    1.750    2.500    3.375    0.000    3.500 
#    0.000    0.000    0.000    0.375    0.000    2.625 
#    0.000    0.500    0.000    7.000    0.000    0.000 
#
# Total GULP energy -356469.218014 kJ/mol
# GULP energy per Si atom -5569.831531 kJ/mol
# Density = 1.582588 g / cm^3
# Si number density = 15.861982 Si / 1000 Ang^3
#
#
#
# Elastic Constant Matrix: (Units=GPa)
#
#
# Indices 1 2 3 4 5 6 
#
# 1 87.4528 55.1716 14.2799 0.0000 0.0000 0.0000
# 2 55.1716 87.4528 14.2799 0.0000 0.0000 0.0000
# 3 14.2799 14.2799 14.5528 0.0000 0.0000 0.0000
# 4 0.0000 0.0000 0.0000 3.5005 0.0000 0.0000
# 5 0.0000 0.0000 0.0000 0.0000 3.5005 0.0000
# 6 0.0000 0.0000 0.0000 0.0000 0.0000 -30.9879
#
#
#
# Elastic Compliance Matrix: (Units=1/GPa)
#
#
# Indices 1 2 3 4 5 6 
#
# 1 0.019852 -0.011126 -0.008562 0.000000 0.000000 0.000000
# 2 -0.011126 0.019852 -0.008562 0.000000 0.000000 0.000000
# 3 -0.008562 -0.008562 0.085519 0.000000 0.000000 0.000000
# 4 0.000000 0.000000 0.000000 0.285672 0.000000 0.000000
# 5 0.000000 0.000000 0.000000 0.000000 0.285672 0.000000
# 6 0.000000 0.000000 0.000000 0.000000 0.000000 -0.032271
#
#
# Mechanical properties :
#
#
# Convention : Reuss Voigt Hill
#
# Bulk Modulus (GPa) = 14.55150 39.65791 27.10470
# Shear Modulus (GPa) = 6.72309 2.25110 4.48710
#
# Velocity S-wave (km/s) = 2.06099 1.19259 1.68374
# Velocity P-wave (km/s) = 3.85452 5.19158 4.57219
#
# Compressibility (1/GPa) = 0.06872145
#
# Stress axis : x y z
#
# Youngs Moduli (GPa) = 50.37310 50.37310 11.69332
#
# Poissons Ratio (x) = 0.56044 0.10012
# Poissons Ratio (y) = 0.56044 0.10012
# Poissons Ratio (z) = 0.43131 0.43131
#
# Static dielectric constant tensor:
#      x y z
#    x 1.550040 0.000000 0.000000 
#    y 0.000000 1.550040 0.000000 
#    z 0.000000 0.000000 1.537600 
# 
# From -- ./inp_files/902.got.cif
#   From: 2010.05.17/outbox.cif.g08.bks.cpg/sg123_1_cif.got.tgz:902.got - 2010.05.20 11:43:04.
