data_PCOD9562221
_publ_section_title
;
Structure prediction by ZEFSAII (Michael W. Deem and Ramdas Pophale) SiO2 
 PCOD9562221
Probable space group: P 4/M M M
;
_chemical_formula_sum "Si O2"
_cell_formula_units_Z 64
_cell_length_a 20.904122
_cell_length_b 20.904122
_cell_length_c 7.393020
_cell_angle_alpha 90.000000
_cell_angle_beta 90.000000
_cell_angle_gamma 90.000000
_cell_volume 3230.619006
_symmetry_space_group_name_H-M "P 4/M M M"
_symmetry_group_IT_number 123
_symmetry_cell_setting 'tetragonal'
loop_
_space_group_symop_operation_xyz
x,y,z
-y,x,z
-x,-y,z
y,-x,z
x,-y,-z
-x,y,-z
y,x,-z
-y,-x,-z
-x,-y,-z
y,-x,-z
x,y,-z
-y,x,-z
-x,y,z
x,-y,z
-y,-x,z
y,x,z
loop_
_atom_site_type_symbol
_atom_site_label
_atom_site_fract_x
_atom_site_fract_y
_atom_site_fract_z
Si Si1 0.854306 0.747041 0.788207
Si Si2 0.074315 0.500000 0.220594
Si Si3 0.820594 0.927868 0.500000
Si Si4 0.178136 0.603969 0.220129
Si Si5 0.427858 0.676899 0.220613
O O1 0.793234 0.793234 0.764897
O O2 0.910559 0.777462 0.672531
O O3 0.835604 0.676492 0.727374
O O4 0.870303 0.745120 0.000000
O O5 0.118682 0.559843 0.276671
O O6 0.000000 0.500000 0.280704
O O7 0.072058 0.500000 0.000000
O O8 0.880228 0.880228 0.500000
O O9 0.841706 0.000000 0.500000
O O10 0.249369 0.583385 0.278721
O O11 0.179725 0.600859 0.000000
O O12 0.500000 0.657490 0.273095
O O13 0.372576 0.627425 0.279502
O O14 0.425894 0.677270 0.000000
#
# Coordination Sequence:
#
# PCOD9562221 Si02
#       5
#    16   8   8  16  16
#     4   9  18  33  55  81 107 139 180 225 269 312
#     4   9  16  24  36  59  90 124 167 214 258 316
#     4  10  22  39  58  83 113 141 174 218 266 322
#     4   9  15  26  43  65  96 132 172 217 268 321
#     4   9  15  22  34  55  87 128 173 221 268 316
#
# _framework density 19.810445000000001
#
# number of rings (size 3 to 8) (size 9 to 14) (size 15 to 20)
#    0.000    2.875    1.250    0.750    0.000    4.875 
#    0.000    3.750    0.000    0.750    0.000    5.250 
#    0.000    0.000    0.000    0.000    0.000   12.250 
#
# Total GULP energy -357131.006001 kJ/mol
# GULP energy per Si atom -5580.171969 kJ/mol
# Density = 1.976536 g / cm^3
# Si number density = 19.810445 Si / 1000 Ang^3
#
#
#
# Elastic Constant Matrix: (Units=GPa)
#
#
# Indices 1 2 3 4 5 6 
#
# 1 146.4543 56.6491 26.4556 0.0000 0.0000 0.0000
# 2 56.6491 146.4543 26.4556 0.0000 0.0000 0.0000
# 3 26.4556 26.4556 60.2283 0.0000 0.0000 0.0000
# 4 0.0000 0.0000 0.0000 -2.3507 0.0000 0.0000
# 5 0.0000 0.0000 0.0000 0.0000 -2.3507 0.0000
# 6 0.0000 0.0000 0.0000 0.0000 0.0000 -0.3588
#
#
#
# Elastic Compliance Matrix: (Units=1/GPa)
#
#
# Indices 1 2 3 4 5 6 
#
# 1 0.008348 -0.002788 -0.002442 0.000000 0.000000 0.000000
# 2 -0.002788 0.008348 -0.002442 0.000000 0.000000 0.000000
# 3 -0.002442 -0.002442 0.018749 0.000000 0.000000 0.000000
# 4 0.000000 0.000000 0.000000 -0.425406 0.000000 0.000000
# 5 0.000000 0.000000 0.000000 0.000000 -0.425406 0.000000
# 6 0.000000 0.000000 0.000000 0.000000 0.000000 -2.787014
#
#
# Mechanical properties :
#
#
# Convention : Reuss Voigt Hill
#
# Bulk Modulus (GPa) = 49.75151 63.58415 56.66783
# Shear Modulus (GPa) = -1.39652 15.22641 6.91494
#
# Velocity S-wave (km/s) = -0.84052 2.77538 1.87033
# Velocity P-wave (km/s) = 4.92203 6.51431 5.77333
#
# Compressibility (1/GPa) = 0.02009989
#
# Stress axis : x y z
#
# Youngs Moduli (GPa) = 119.79611 119.79611 53.33629
#
# Poissons Ratio (x) = 0.33396 0.13026
# Poissons Ratio (y) = 0.33396 0.13026
# Poissons Ratio (z) = 0.29256 0.29256
#
# Static dielectric constant tensor:
#      x y z
#    x 1.663720 0.000000 0.000000 
#    y 0.000000 1.663720 0.000000 
#    z 0.000000 0.000000 1.822900 
# 
# From -- ./inp_files/942.got.cif
#   From: 2010.05.17/outbox.cif.g08.bks.cpg/sg123_1_cif.got.tgz:942.got - 2010.05.20 11:43:04.
