data_PCOD9562878
_publ_section_title
;
Structure prediction by ZEFSAII (Michael W. Deem and Ramdas Pophale) SiO2 
 PCOD9562878
Probable space group: P 4/N B M
;
_chemical_formula_sum "Si O2"
_cell_formula_units_Z 72
_cell_length_a 20.730511
_cell_length_b 20.730511
_cell_length_c 9.301529
_cell_angle_alpha 90.000000
_cell_angle_beta 90.000000
_cell_angle_gamma 90.000000
_cell_volume 3997.370097
_symmetry_space_group_name_H-M "P 4/N B M"
_symmetry_group_IT_number 125
_space_group.IT_coordinate_system_code '2'
_symmetry_cell_setting 'tetragonal'
loop_
_space_group_symop_operation_xyz
x,y,z
1/2-y,x,z
1/2-x,1/2-y,z
y,1/2-x,z
x,1/2-y,-z
1/2-x,y,-z
y,x,-z
1/2-y,1/2-x,-z
-x,-y,-z
1/2+y,-x,-z
1/2+x,1/2+y,-z
-y,1/2+x,-z
-x,1/2+y,z
1/2+x,-y,z
-y,-x,z
1/2+y,1/2+x,z
loop_
_atom_site_type_symbol
_atom_site_label
_atom_site_fract_x
_atom_site_fract_y
_atom_site_fract_z
Si Si1 0.184155 0.479916 0.594496
Si Si2 0.951459 0.048542 0.922227
Si Si3 0.048753 0.951247 0.422066
Si Si4 0.649538 0.850463 0.000000
Si Si5 0.995020 0.815210 0.064339
Si Si6 0.838780 0.804847 0.321538
O O1 0.250000 0.487610 0.500000
O O2 0.122784 0.524288 0.546657
O O3 0.195967 0.492812 0.764089
O O4 0.166362 0.403717 0.611069
O O5 0.958947 0.041054 0.750303
O O6 0.878735 0.034696 0.962474
O O7 0.000000 0.000000 0.000000
O O8 0.000000 0.000000 0.500000
O O9 0.685944 0.836330 0.148257
O O10 0.667339 0.926078 0.989611
O O11 0.020959 0.750000 0.000000
O O12 0.770636 0.836239 0.359875
#
# Coordination Sequence:
#
# PCOD9562878 Si02
#       6
#    16   8   8   8  16  16
#     4  10  23  39  58  82 117 149 198 245 288 345
#     4  10  20  38  58  89 120 149 191 246 291 351
#     4  10  24  40  60  85 116 159 197 244 301 347
#     4  10  16  30  50  74 112 152 194 224 272 330
#     4  10  20  35  58  85 114 152 189 237 292 344
#     4  10  20  31  49  77 113 154 190 227 275 333
#
# _framework density 18.011842999999999
#
# number of rings (size 3 to 8) (size 9 to 14) (size 15 to 20)
#    0.000    2.000    1.111    3.333    3.111    2.667 
#    0.000    1.111    0.000    0.667    0.000    4.667 
#    0.000    0.000    0.000    0.000    0.000    0.000 
#
# Total GULP energy -401026.069221 kJ/mol
# GULP energy per Si atom -5569.806517 kJ/mol
# Density = 1.797085 g / cm^3
# Si number density = 18.011843 Si / 1000 Ang^3
#
#
#
# Elastic Constant Matrix: (Units=GPa)
#
#
# Indices 1 2 3 4 5 6 
#
# 1 129.8752 71.2641 62.6615 0.0000 0.0000 0.0000
# 2 71.2641 129.8791 62.6613 0.0000 0.0000 0.0000
# 3 62.6615 62.6613 65.0869 0.0000 0.0000 0.0000
# 4 0.0000 0.0000 0.0000 16.2912 0.0000 0.0000
# 5 0.0000 0.0000 0.0000 0.0000 16.2917 0.0000
# 6 0.0000 0.0000 0.0000 0.0000 0.0000 23.7896
#
#
#
# Elastic Compliance Matrix: (Units=1/GPa)
#
#
# Indices 1 2 3 4 5 6 
#
# 1 0.014743 -0.002318 -0.011962 0.000000 0.000000 0.000000
# 2 -0.002318 0.014742 -0.011961 0.000000 0.000000 0.000000
# 3 -0.011962 -0.011961 0.038395 0.000000 0.000000 0.000000
# 4 0.000000 0.000000 0.000000 0.061383 0.000000 0.000000
# 5 0.000000 0.000000 0.000000 0.000000 0.061381 0.000000
# 6 0.000000 0.000000 0.000000 0.000000 0.000000 0.042035
#
#
# Mechanical properties :
#
#
# Convention : Reuss Voigt Hill
#
# Bulk Modulus (GPa) = 64.94104 79.77945 72.36025
# Shear Modulus (GPa) = 17.22395 19.82477 18.52436
#
# Velocity S-wave (km/s) = 3.09570 3.32121 3.21043
# Velocity P-wave (km/s) = 6.99362 7.68740 7.34870
#
# Compressibility (1/GPa) = 0.01539858
#
# Stress axis : x y z
#
# Youngs Moduli (GPa) = 67.82862 67.83281 26.04516
#
# Poissons Ratio (x) = 0.15727 0.31154
# Poissons Ratio (y) = 0.15726 0.31152
# Poissons Ratio (z) = 0.81134 0.81133
#
# Static dielectric constant tensor:
#      x y z
#    x 1.638810 0.000000 0.000000 
#    y 0.000000 1.638810 0.000000 
#    z 0.000000 0.000000 1.683570 
# 
# From -- ./inp_files/2633.got.cif
#   From: 2010.05.17/outbox.cif.g08.bks.cpg/sg125_2_cif.got.tgz:2633.got - 2010.05.20 11:54:10.
