data_PCOD9562939
_publ_section_title
;
Structure prediction by ZEFSAII (Michael W. Deem and Ramdas Pophale) SiO2 
 PCOD9562939
Probable space group: P 4/N B M
;
_chemical_formula_sum "Si O2"
_cell_formula_units_Z 56
_cell_length_a 17.730057
_cell_length_b 17.730057
_cell_length_c 10.166043
_cell_angle_alpha 90.000000
_cell_angle_beta 90.000000
_cell_angle_gamma 90.000000
_cell_volume 3195.745646
_symmetry_space_group_name_H-M "P 4/N B M"
_symmetry_group_IT_number 125
_space_group.IT_coordinate_system_code '2'
_symmetry_cell_setting 'tetragonal'
loop_
_space_group_symop_operation_xyz
x,y,z
1/2-y,x,z
1/2-x,1/2-y,z
y,1/2-x,z
x,1/2-y,-z
1/2-x,y,-z
y,x,-z
1/2-y,1/2-x,-z
-x,-y,-z
1/2+y,-x,-z
1/2+x,1/2+y,-z
-y,1/2+x,-z
-x,1/2+y,z
1/2+x,-y,z
-y,-x,z
1/2+y,1/2+x,z
loop_
_atom_site_type_symbol
_atom_site_label
_atom_site_fract_x
_atom_site_fract_y
_atom_site_fract_z
Si Si1 0.967622 0.585922 0.857847
Si Si2 0.290826 0.365687 0.222626
Si Si3 0.919321 0.750000 0.500000
Si Si4 0.604797 0.509432 0.393776
O O1 0.942280 0.672255 0.832433
O O2 0.920175 0.541515 0.746732
O O3 0.053089 0.553089 0.843621
O O4 0.938841 0.561160 0.000000
O O5 0.205886 0.342954 0.183336
O O6 0.288862 0.372409 0.382208
O O7 0.971818 0.689815 0.426765
O O8 0.556581 0.556581 0.500000
O O9 0.576107 0.423894 0.403643
#
# Coordination Sequence:
#
# PCOD9562939 Si02
#       4
#    16  16   8  16
#     4  10  21  37  53  71 103 145 185 224 263 312
#     4  11  21  32  49  78 113 144 172 209 265 327
#     4  12  18  33  54  81 104 142 176 222 268 327
#     4  10  19  33  52  74 100 136 182 221 261 317
#
# _framework density 17.523296999999999
#
# number of rings (size 3 to 8) (size 9 to 14) (size 15 to 20)
#    0.000    1.429    5.714    0.857    0.000    2.286 
#    0.000    1.429    0.000    0.429    0.000    0.000 
#    0.000    1.143    0.000    6.286    0.000    0.000 
#
# Total GULP energy -312018.126445 kJ/mol
# GULP energy per Si atom -5571.752258 kJ/mol
# Density = 1.748341 g / cm^3
# Si number density = 17.523297 Si / 1000 Ang^3
#
#
#
# Elastic Constant Matrix: (Units=GPa)
#
#
# Indices 1 2 3 4 5 6 
#
# 1 68.4517 45.0928 11.5931 0.0000 0.0000 0.0000
# 2 45.0928 68.4520 11.5929 0.0000 0.0000 0.0000
# 3 11.5931 11.5929 92.4705 0.0000 0.0000 0.0000
# 4 0.0000 0.0000 0.0000 21.2419 0.0000 0.0000
# 5 0.0000 0.0000 0.0000 0.0000 21.2412 0.0000
# 6 0.0000 0.0000 0.0000 0.0000 0.0000 44.1693
#
#
#
# Elastic Compliance Matrix: (Units=1/GPa)
#
#
# Indices 1 2 3 4 5 6 
#
# 1 0.025924 -0.016886 -0.001133 0.000000 0.000000 0.000000
# 2 -0.016886 0.025924 -0.001133 0.000000 0.000000 0.000000
# 3 -0.001133 -0.001133 0.011098 0.000000 0.000000 0.000000
# 4 0.000000 0.000000 0.000000 0.047077 0.000000 0.000000
# 5 0.000000 0.000000 0.000000 0.000000 0.047078 0.000000
# 6 0.000000 0.000000 0.000000 0.000000 0.000000 0.022640
#
#
# Mechanical properties :
#
#
# Convention : Reuss Voigt Hill
#
# Bulk Modulus (GPa) = 40.57984 40.65907 40.61945
# Shear Modulus (GPa) = 22.09845 28.07018 25.08431
#
# Velocity S-wave (km/s) = 3.55504 4.00669 3.78760
# Velocity P-wave (km/s) = 6.32921 6.68266 6.50834
#
# Compressibility (1/GPa) = 0.02464278
#
# Stress axis : x y z
#
# Youngs Moduli (GPa) = 38.57392 38.57409 90.10316
#
# Poissons Ratio (x) = 0.65135 0.10210
# Poissons Ratio (y) = 0.65135 0.10210
# Poissons Ratio (z) = 0.04371 0.04371
#
# Static dielectric constant tensor:
#      x y z
#    x 1.646750 0.000000 0.000000 
#    y 0.000000 1.646750 0.000000 
#    z 0.000000 0.000000 1.626710 
# 
# From -- ./inp_files/2060.got.cif
#   From: 2010.05.17/outbox.cif.g08.bks.cpg/sg125_2_cif.got.tgz:2060.got - 2010.05.20 11:54:10.
