data_PCOD9562988
_publ_section_title
;
Structure prediction by ZEFSAII (Michael W. Deem and Ramdas Pophale) SiO2 
 PCOD9562988
Probable space group: P 4/N B M
;
_chemical_formula_sum "Si O2"
_cell_formula_units_Z 96
_cell_length_a 20.596886
_cell_length_b 20.596886
_cell_length_c 13.596911
_cell_angle_alpha 90.000000
_cell_angle_beta 90.000000
_cell_angle_gamma 90.000000
_cell_volume 5768.240844
_symmetry_space_group_name_H-M "P 4/N B M"
_symmetry_group_IT_number 125
_space_group.IT_coordinate_system_code '2'
_symmetry_cell_setting 'tetragonal'
loop_
_space_group_symop_operation_xyz
x,y,z
1/2-y,x,z
1/2-x,1/2-y,z
y,1/2-x,z
x,1/2-y,-z
1/2-x,y,-z
y,x,-z
1/2-y,1/2-x,-z
-x,-y,-z
1/2+y,-x,-z
1/2+x,1/2+y,-z
-y,1/2+x,-z
-x,1/2+y,z
1/2+x,-y,z
-y,-x,z
1/2+y,1/2+x,z
loop_
_atom_site_type_symbol
_atom_site_label
_atom_site_fract_x
_atom_site_fract_y
_atom_site_fract_z
Si Si1 0.168627 0.560995 0.083071
Si Si2 0.312836 0.921117 0.854577
Si Si3 0.812450 0.836527 0.615875
Si Si4 0.430081 0.040506 0.111753
Si Si5 0.449362 0.166624 0.240834
Si Si6 0.745208 0.641572 0.884844
O O1 0.117080 0.617080 0.101481
O O2 0.235924 0.584568 0.128821
O O3 0.138000 0.495828 0.126166
O O4 0.168801 0.551785 0.964046
O O5 0.356226 0.856226 0.841559
O O6 0.325721 0.972839 0.767641
O O7 0.735793 0.836148 0.645390
O O8 0.830062 0.830062 0.500000
O O9 0.837238 0.903595 0.662881
O O10 0.436939 0.100329 0.182979
O O11 0.488542 0.988542 0.125037
O O12 0.434965 0.065036 0.000000
O O13 0.420555 0.226979 0.178139
O O14 0.809211 0.684511 0.866375
O O15 0.750000 0.624587 0.000000
#
# Coordination Sequence:
#
# PCOD9562988 Si02
#       6
#    16  16  16  16  16  16
#     4   9  19  34  49  66  98 146 190 216 249 309
#     4  10  21  33  47  71 102 137 181 228 267 304
#     4   9  20  39  56  73 102 138 179 220 257 312
#     4  10  20  33  46  69 108 146 170 200 255 322
#     4  12  21  27  54  73 101 134 175 209 264 315
#     4   9  20  30  36  61 103 134 157 192 238 296
#
# _framework density 16.642855999999998
#
# number of rings (size 3 to 8) (size 9 to 14) (size 15 to 20)
#    0.000    2.167    1.667    2.500    9.333    1.667 
#    0.000    1.667    0.000    2.000    0.000    0.000 
#    0.000    0.000    0.000    0.000    0.000    0.000 
#
# Total GULP energy -534553.991908 kJ/mol
# GULP energy per Si atom -5568.270749 kJ/mol
# Density = 1.660498 g / cm^3
# Si number density = 16.642856 Si / 1000 Ang^3
#
#
#
# Elastic Constant Matrix: (Units=GPa)
#
#
# Indices 1 2 3 4 5 6 
#
# 1 76.2604 28.7944 22.0297 0.0000 0.0000 0.0000
# 2 28.7944 76.2606 22.0296 0.0000 0.0000 0.0000
# 3 22.0297 22.0296 49.1391 0.0000 0.0000 0.0000
# 4 0.0000 0.0000 0.0000 18.9338 0.0000 0.0000
# 5 0.0000 0.0000 0.0000 0.0000 18.9338 0.0000
# 6 0.0000 0.0000 0.0000 0.0000 0.0000 22.1971
#
#
#
# Elastic Compliance Matrix: (Units=1/GPa)
#
#
# Indices 1 2 3 4 5 6 
#
# 1 0.016395 -0.004672 -0.005256 0.000000 0.000000 0.000000
# 2 -0.004672 0.016395 -0.005255 0.000000 0.000000 0.000000
# 3 -0.005256 -0.005255 0.025063 0.000000 0.000000 0.000000
# 4 0.000000 0.000000 0.000000 0.052816 0.000000 0.000000
# 5 0.000000 0.000000 0.000000 0.000000 0.052816 0.000000
# 6 0.000000 0.000000 0.000000 0.000000 0.000000 0.045051
#
#
# Mechanical properties :
#
#
# Convention : Reuss Voigt Hill
#
# Bulk Modulus (GPa) = 36.38165 38.59640 37.48902
# Shear Modulus (GPa) = 20.15606 20.60004 20.37805
#
# Velocity S-wave (km/s) = 3.48385 3.52201 3.50298
# Velocity P-wave (km/s) = 6.17176 6.30720 6.23985
#
# Compressibility (1/GPa) = 0.02748638
#
# Stress axis : x y z
#
# Youngs Moduli (GPa) = 60.99288 60.99321 39.90005
#
# Poissons Ratio (x) = 0.28498 0.20970
# Poissons Ratio (y) = 0.28498 0.20969
# Poissons Ratio (z) = 0.32055 0.32055
#
# Static dielectric constant tensor:
#      x y z
#    x 1.597260 0.000000 0.000000 
#    y 0.000000 1.597260 0.000000 
#    z 0.000000 0.000000 1.585310 
# 
# From -- ./inp_files/4997.got.cif
#   From: 2010.05.17/outbox.cif.g08.bks.cpg/sg125_3_cif.got.tgz:4997.got - 2010.05.20 11:54:10.
