data_PCOD9562887
_publ_section_title
;
Structure prediction by ZEFSAII (Michael W. Deem and Ramdas Pophale) SiO2 
 PCOD9562887
Probable space group: P 4/N B M
;
_chemical_formula_sum "Si O2"
_cell_formula_units_Z 42
_cell_length_a 13.725708
_cell_length_b 13.725708
_cell_length_c 8.824172
_cell_angle_alpha 90.000000
_cell_angle_beta 90.000000
_cell_angle_gamma 90.000000
_cell_volume 1662.430414
_symmetry_space_group_name_H-M "P 4/N B M"
_symmetry_group_IT_number 125
_space_group.IT_coordinate_system_code '2'
_symmetry_cell_setting 'tetragonal'
loop_
_space_group_symop_operation_xyz
x,y,z
1/2-y,x,z
1/2-x,1/2-y,z
y,1/2-x,z
x,1/2-y,-z
1/2-x,y,-z
y,x,-z
1/2-y,1/2-x,-z
-x,-y,-z
1/2+y,-x,-z
1/2+x,1/2+y,-z
-y,1/2+x,-z
-x,1/2+y,z
1/2+x,-y,z
-y,-x,z
1/2+y,1/2+x,z
loop_
_atom_site_type_symbol
_atom_site_label
_atom_site_fract_x
_atom_site_fract_y
_atom_site_fract_z
Si Si1 0.081612 0.918389 0.520611
Si Si2 0.106299 0.893702 0.171161
Si Si3 0.750000 0.250000 0.000000
Si Si4 0.894478 0.684851 0.816410
Si Si5 0.250000 0.042381 0.500000
O O1 0.113504 0.886497 0.352988
O O2 0.028728 0.825328 0.589654
O O3 0.000000 0.000000 0.500000
O O4 0.180541 0.819460 0.097087
O O5 0.995119 0.864156 0.133909
O O6 0.875151 0.797782 0.858304
O O7 0.900978 0.692450 0.630949
#
# Coordination Sequence:
#
# PCOD9562887 Si02
#       5
#     8   8   2  16   8
#     4  10  20  33  55  91 128 164 210 272 352 414
#     4  10  24  43  64  91 130 175 234 299 337 411
#     4  12  28  52  72  94 124 192 252 272 344 414
#     4  10  20  36  62  96 132 173 221 277 348 422
#     4  10  18  30  54  90 136 180 210 260 340 438
#
# _framework density 25.264215
#
# number of rings (size 3 to 8) (size 9 to 14) (size 15 to 20)
#    0.000    1.905    0.000    5.714    0.000    9.524 
#    0.000    3.810    0.000    2.286    0.000    0.000 
#    0.000    0.000    0.000    0.000    0.000    0.000 
#
# Total GULP energy -235183.377310 kJ/mol
# GULP energy per Si atom -5599.604222 kJ/mol
# Density = 2.520671 g / cm^3
# Si number density = 25.264215 Si / 1000 Ang^3
#
#
#
# Elastic Constant Matrix: (Units=GPa)
#
#
# Indices 1 2 3 4 5 6 
#
# 1 215.3710 119.9984 45.2509 0.0000 0.0000 0.0000
# 2 119.9984 215.3710 45.2509 0.0000 0.0000 0.0000
# 3 45.2509 45.2509 91.5496 0.0000 0.0000 0.0000
# 4 0.0000 0.0000 0.0000 42.5476 0.0000 0.0000
# 5 0.0000 0.0000 0.0000 0.0000 42.5476 0.0000
# 6 0.0000 0.0000 0.0000 0.0000 0.0000 56.8207
#
#
#
# Elastic Compliance Matrix: (Units=1/GPa)
#
#
# Indices 1 2 3 4 5 6 
#
# 1 0.006963 -0.003522 -0.001701 0.000000 0.000000 0.000000
# 2 -0.003522 0.006963 -0.001701 0.000000 0.000000 0.000000
# 3 -0.001701 -0.001701 0.012604 0.000000 0.000000 0.000000
# 4 0.000000 0.000000 0.000000 0.023503 0.000000 0.000000
# 5 0.000000 0.000000 0.000000 0.000000 0.023503 0.000000
# 6 0.000000 0.000000 0.000000 0.000000 0.000000 0.017599
#
#
# Mechanical properties :
#
#
# Convention : Reuss Voigt Hill
#
# Bulk Modulus (GPa) = 78.84567 104.81023 91.82795
# Shear Modulus (GPa) = 45.78319 49.16927 47.47623
#
# Velocity S-wave (km/s) = 4.26158 4.41636 4.33966
# Velocity P-wave (km/s) = 7.44923 8.22079 7.84450
#
# Compressibility (1/GPa) = 0.01268301
#
# Stress axis : x y z
#
# Youngs Moduli (GPa) = 143.61712 143.61712 79.33832
#
# Poissons Ratio (x) = 0.50585 0.13493
# Poissons Ratio (y) = 0.50585 0.13493
# Poissons Ratio (z) = 0.24425 0.24425
#
# Static dielectric constant tensor:
#      x y z
#    x 1.981400 0.000000 0.000000 
#    y 0.000000 1.981400 0.000000 
#    z 0.000000 0.000000 2.135090 
# 
# From -- ./inp_files/3388.got.cif
#   From: 2010.05.17/outbox.cif.g08.bks.cpg/sg125_2_cif.got.tgz:3388.got - 2010.05.20 11:54:10.
