data_PCOD9562542
_publ_section_title
;
Structure prediction by ZEFSAII (Michael W. Deem and Ramdas Pophale) SiO2 
 PCOD9562542
Probable space group: P 4/M C C
;
_chemical_formula_sum "Si O2"
_cell_formula_units_Z 88
_cell_length_a 18.814138
_cell_length_b 18.814138
_cell_length_c 15.510318
_cell_angle_alpha 90.000000
_cell_angle_beta 90.000000
_cell_angle_gamma 90.000000
_cell_volume 5490.215006
_symmetry_space_group_name_H-M "P 4/M C C"
_symmetry_group_IT_number 124
_symmetry_cell_setting 'tetragonal'
loop_
_space_group_symop_operation_xyz
x,y,z
-y,x,z
-x,-y,z
y,-x,z
x,-y,1/2-z
-x,y,1/2-z
y,x,1/2-z
-y,-x,1/2-z
-x,-y,-z
y,-x,-z
x,y,-z
-y,x,-z
-x,y,1/2+z
x,-y,1/2+z
-y,-x,1/2+z
y,x,1/2+z
loop_
_atom_site_type_symbol
_atom_site_label
_atom_site_fract_x
_atom_site_fract_y
_atom_site_fract_z
Si Si1 0.355244 0.219924 0.403365
Si Si2 0.155089 0.269048 0.745327
Si Si3 0.515208 0.196516 0.648862
Si Si4 0.574037 0.041825 0.401915
Si Si5 0.250470 0.343251 0.399960
Si Si6 0.000000 0.320097 0.750000
O O1 0.334583 0.196602 0.500000
O O2 0.316196 0.176836 0.328287
O O3 0.439557 0.211569 0.394391
O O4 0.323680 0.299329 0.391622
O O5 0.192293 0.192293 0.750000
O O6 0.192834 0.306256 0.662903
O O7 0.070716 0.273005 0.744817
O O8 0.500000 0.191762 0.750000
O O9 0.551583 0.122756 0.619166
O O10 0.574901 0.254719 0.627568
O O11 0.601466 0.037482 0.500000
O O12 0.500000 0.000000 0.397103
O O13 0.627830 0.008265 0.332809
O O14 0.228519 0.339080 0.500000
#
# Coordination Sequence:
#
# PCOD9562542 Si02
#       6
#    16  16  16  16  16   8
#     4  10  20  34  53  75 103 140 181 221 262 311
#     4  10  21  36  53  76 103 135 176 219 262 315
#     4  12  20  32  52  75 106 142 177 218 264 318
#     4  11  22  32  47  76 111 139 168 206 258 325
#     4  10  20  35  53  74 102 138 180 222 262 311
#     4  12  21  34  54  75 104 140 174 210 266 315
#
# _framework density 16.028516
#
# number of rings (size 3 to 8) (size 9 to 14) (size 15 to 20)
#    0.000    1.273    3.636    4.091    0.000    2.182 
#    0.000    0.000    0.000    0.818    0.000    3.818 
#    0.000    0.000    0.000   10.727    0.000    0.000 
#
# Total GULP energy -490858.900454 kJ/mol
# GULP energy per Si atom -5577.942051 kJ/mol
# Density = 1.599203 g / cm^3
# Si number density = 16.028516 Si / 1000 Ang^3
#
#
#
# Elastic Constant Matrix: (Units=GPa)
#
#
# Indices 1 2 3 4 5 6 
#
# 1 82.6710 40.3190 32.6989 0.0000 0.0000 0.0000
# 2 40.3190 82.6710 32.6989 0.0000 0.0000 0.0000
# 3 32.6989 32.6989 120.9883 0.0000 0.0000 0.0000
# 4 0.0000 0.0000 0.0000 10.8126 0.0000 0.0000
# 5 0.0000 0.0000 0.0000 0.0000 10.8126 0.0000
# 6 0.0000 0.0000 0.0000 0.0000 0.0000 21.1810
#
#
#
# Elastic Compliance Matrix: (Units=1/GPa)
#
#
# Indices 1 2 3 4 5 6 
#
# 1 0.016553 -0.007058 -0.002566 0.000000 0.000000 0.000000
# 2 -0.007058 0.016553 -0.002566 0.000000 0.000000 0.000000
# 3 -0.002566 -0.002566 0.009652 0.000000 0.000000 0.000000
# 4 0.000000 0.000000 0.000000 0.092485 0.000000 0.000000
# 5 0.000000 0.000000 0.000000 0.000000 0.092485 0.000000
# 6 0.000000 0.000000 0.000000 0.000000 0.000000 0.047212
#
#
# Mechanical properties :
#
#
# Convention : Reuss Voigt Hill
#
# Bulk Modulus (GPa) = 54.41287 55.30711 54.85999
# Shear Modulus (GPa) = 16.36938 20.60213 18.48576
#
# Velocity S-wave (km/s) = 3.19919 3.58906 3.39972
# Velocity P-wave (km/s) = 6.90418 7.19413 7.05064
#
# Compressibility (1/GPa) = 0.01837801
#
# Stress axis : x y z
#
# Youngs Moduli (GPa) = 60.41031 60.41031 103.60116
#
# Poissons Ratio (x) = 0.42639 0.26587
# Poissons Ratio (y) = 0.42639 0.26587
# Poissons Ratio (z) = 0.15503 0.15503
#
# Static dielectric constant tensor:
#      x y z
#    x 1.546820 0.000000 0.000000 
#    y 0.000000 1.546820 0.000000 
#    z 0.000000 0.000000 1.570530 
# 
# From -- ./inp_files/3190.got.cif
#   From: 2010.05.17/outbox.cif.g08.bks.cpg/sg124_2_cif.got.tgz:3190.got - 2010.05.20 11:49:17.
