data_PCOD9562589
_publ_section_title
;
Structure prediction by ZEFSAII (Michael W. Deem and Ramdas Pophale) SiO2 
 PCOD9562589
Probable space group: P 4/M C C
;
_chemical_formula_sum "Si O2"
_cell_formula_units_Z 96
_cell_length_a 17.865129
_cell_length_b 17.865129
_cell_length_c 16.787585
_cell_angle_alpha 90.000000
_cell_angle_beta 90.000000
_cell_angle_gamma 90.000000
_cell_volume 5357.973208
_symmetry_space_group_name_H-M "P 4/M C C"
_symmetry_group_IT_number 124
_symmetry_cell_setting 'tetragonal'
loop_
_space_group_symop_operation_xyz
x,y,z
-y,x,z
-x,-y,z
y,-x,z
x,-y,1/2-z
-x,y,1/2-z
y,x,1/2-z
-y,-x,1/2-z
-x,-y,-z
y,-x,-z
x,y,-z
-y,x,-z
-x,y,1/2+z
x,-y,1/2+z
-y,-x,1/2+z
y,x,1/2+z
loop_
_atom_site_type_symbol
_atom_site_label
_atom_site_fract_x
_atom_site_fract_y
_atom_site_fract_z
Si Si1 0.413955 0.114388 0.259428
Si Si2 0.462673 0.617393 0.405315
Si Si3 0.044490 0.728117 0.826779
Si Si4 0.631383 0.729446 0.189910
Si Si5 0.767304 0.802424 0.095508
Si Si6 0.313533 0.099758 0.591130
O O1 0.500000 0.091758 0.250000
O O2 0.354666 0.070854 0.202875
O O3 0.403033 0.200614 0.235986
O O4 0.382557 0.105473 0.348474
O O5 0.409184 0.546556 0.387244
O O6 0.458460 0.631129 0.500000
O O7 0.433605 0.686444 0.355957
O O8 0.118609 0.769450 0.857644
O O9 0.000000 0.760673 0.750000
O O10 0.982655 0.720112 0.895075
O O11 0.674612 0.674612 0.250000
O O12 0.693453 0.760289 0.127793
O O13 0.838078 0.748879 0.113213
O O14 0.763625 0.813891 0.000000
O O15 0.334913 0.112040 0.500000
#
# Coordination Sequence:
#
# PCOD9562589 Si02
#       6
#    16  16  16  16  16  16
#     4  10  22  38  53  80 114 146 183 237 285 328
#     4   9  20  37  53  73 104 141 183 235 294 347
#     4   9  20  35  58  84 115 150 185 228 279 338
#     4  11  21  33  54  77 105 140 189 233 283 333
#     4  10  20  36  57  84 113 143 187 234 274 331
#     4  10  20  37  60  84 111 151 190 225 280 338
#
# _framework density 17.917223
#
# number of rings (size 3 to 8) (size 9 to 14) (size 15 to 20)
#    0.000    2.167    1.667    1.500    2.333    3.000 
#    0.000    6.667    0.000    0.500    0.000    5.833 
#    0.000    0.000    0.000    0.000    0.000    0.000 
#
# Total GULP energy -535706.373810 kJ/mol
# GULP energy per Si atom -5580.274727 kJ/mol
# Density = 1.787644 g / cm^3
# Si number density = 17.917223 Si / 1000 Ang^3
#
#
#
# Elastic Constant Matrix: (Units=GPa)
#
#
# Indices 1 2 3 4 5 6 
#
# 1 54.8236 11.3749 35.2923 0.0000 0.0000 0.0000
# 2 11.3749 54.8236 35.2923 0.0000 0.0000 0.0000
# 3 35.2923 35.2923 70.0681 0.0000 0.0000 0.0000
# 4 0.0000 0.0000 0.0000 27.2101 0.0000 0.0000
# 5 0.0000 0.0000 0.0000 0.0000 27.2101 0.0000
# 6 0.0000 0.0000 0.0000 0.0000 0.0000 4.9471
#
#
#
# Elastic Compliance Matrix: (Units=1/GPa)
#
#
# Indices 1 2 3 4 5 6 
#
# 1 0.027823 0.004808 -0.016436 0.000000 0.000000 0.000000
# 2 0.004808 0.027823 -0.016436 0.000000 0.000000 0.000000
# 3 -0.016436 -0.016436 0.030829 0.000000 0.000000 0.000000
# 4 0.000000 0.000000 0.000000 0.036751 0.000000 0.000000
# 5 0.000000 0.000000 0.000000 0.000000 0.036751 0.000000
# 6 0.000000 0.000000 0.000000 0.000000 0.000000 0.202137
#
#
# Mechanical properties :
#
#
# Convention : Reuss Voigt Hill
#
# Bulk Modulus (GPa) = 32.95165 38.18160 35.56662
# Shear Modulus (GPa) = 11.67250 18.39053 15.03151
#
# Velocity S-wave (km/s) = 2.55516 3.20725 2.89959
# Velocity P-wave (km/s) = 5.20923 5.92212 5.57708
#
# Compressibility (1/GPa) = 0.03034750
#
# Stress axis : x y z
#
# Youngs Moduli (GPa) = 35.94127 35.94127 32.43738
#
# Poissons Ratio (x) = -0.17279 0.53313
# Poissons Ratio (y) = -0.17279 0.53313
# Poissons Ratio (z) = 0.59072 0.59072
#
# Static dielectric constant tensor:
#      x y z
#    x 1.606600 0.000000 0.000000 
#    y 0.000000 1.606600 0.000000 
#    z 0.000000 0.000000 1.614880 
# 
# From -- ./inp_files/4286.got.cif
#   From: 2010.05.17/outbox.cif.g08.bks.cpg/sg124_3_cif.got.tgz:4286.got - 2010.05.20 11:49:17.
