data_PCOD9562501
_publ_section_title
;
Structure prediction by ZEFSAII (Michael W. Deem and Ramdas Pophale) SiO2 
 PCOD9562501
Probable space group: P 4/M C C
;
_chemical_formula_sum "Si O2"
_cell_formula_units_Z 64
_cell_length_a 19.760895
_cell_length_b 19.760895
_cell_length_c 8.835995
_cell_angle_alpha 90.000000
_cell_angle_beta 90.000000
_cell_angle_gamma 90.000000
_cell_volume 3450.393941
_symmetry_space_group_name_H-M "P 4/M C C"
_symmetry_group_IT_number 124
_symmetry_cell_setting 'tetragonal'
loop_
_space_group_symop_operation_xyz
x,y,z
-y,x,z
-x,-y,z
y,-x,z
x,-y,1/2-z
-x,y,1/2-z
y,x,1/2-z
-y,-x,1/2-z
-x,-y,-z
y,-x,-z
x,y,-z
-y,x,-z
-x,y,1/2+z
x,-y,1/2+z
-y,-x,1/2+z
y,x,1/2+z
loop_
_atom_site_type_symbol
_atom_site_label
_atom_site_fract_x
_atom_site_fract_y
_atom_site_fract_z
Si Si1 0.929892 0.678229 0.173395
Si Si2 0.677147 0.574737 0.183045
Si Si3 0.159395 0.067137 0.668415
Si Si4 0.783712 0.319020 0.182240
O O1 0.935549 0.759765 0.166280
O O2 0.860849 0.667710 0.266571
O O3 0.000000 0.653595 0.250000
O O4 0.923764 0.653453 0.000000
O O5 0.684004 0.500000 0.250000
O O6 0.609720 0.609720 0.250000
O O7 0.737649 0.621656 0.246692
O O8 0.676657 0.575300 0.000000
O O9 0.133346 0.133346 0.750000
O O10 0.132988 0.068456 0.500000
O O11 0.134190 0.000000 0.750000
O O12 0.749770 0.250231 0.250000
O O13 0.778471 0.317244 0.000000
#
# Coordination Sequence:
#
# PCOD9562501 Si02
#       4
#    16  16  16  16
#     4  10  20  34  52  76 104 137 176 226 281 335
#     4  11  22  39  61  89 122 157 194 232 274 324
#     4  10  20  32  46  63  87 118 158 205 260 320
#     4  11  21  35  56  83 113 149 190 235 283 336
#
# _framework density 18.548605999999999
#
# number of rings (size 3 to 8) (size 9 to 14) (size 15 to 20)
#    0.000    1.500    0.000    8.250    0.000    5.500 
#    0.000    2.500    0.000    0.750    0.000    5.250 
#    0.000    0.000    0.000    0.000    0.000    0.000 
#
# Total GULP energy -357177.324295 kJ/mol
# GULP energy per Si atom -5580.895692 kJ/mol
# Density = 1.850639 g / cm^3
# Si number density = 18.548606 Si / 1000 Ang^3
#
#
#
# Elastic Constant Matrix: (Units=GPa)
#
#
# Indices 1 2 3 4 5 6 
#
# 1 100.1910 26.4903 52.7443 0.0000 0.0000 0.0000
# 2 26.4903 100.1943 52.7453 0.0000 0.0000 0.0000
# 3 52.7443 52.7453 206.8308 0.0000 0.0000 0.0000
# 4 0.0000 0.0000 0.0000 9.6856 0.0000 0.0000
# 5 0.0000 0.0000 0.0000 0.0000 9.6835 0.0000
# 6 0.0000 0.0000 0.0000 0.0000 0.0000 12.9970
#
#
#
# Elastic Compliance Matrix: (Units=1/GPa)
#
#
# Indices 1 2 3 4 5 6 
#
# 1 0.011795 -0.001773 -0.002556 0.000000 0.000000 0.000000
# 2 -0.001773 0.011795 -0.002556 0.000000 0.000000 0.000000
# 3 -0.002556 -0.002556 0.006138 0.000000 0.000000 0.000000
# 4 0.000000 0.000000 0.000000 0.103246 0.000000 0.000000
# 5 0.000000 0.000000 0.000000 0.000000 0.103268 0.000000
# 6 0.000000 0.000000 0.000000 0.000000 0.000000 0.076941
#
#
# Mechanical properties :
#
#
# Convention : Reuss Voigt Hill
#
# Bulk Modulus (GPa) = 62.65964 74.57509 68.61737
# Shear Modulus (GPa) = 15.04789 24.82230 19.93510
#
# Velocity S-wave (km/s) = 2.85137 3.66215 3.28189
# Velocity P-wave (km/s) = 6.68544 7.62721 7.17180
#
# Compressibility (1/GPa) = 0.01595924
#
# Stress axis : x y z
#
# Youngs Moduli (GPa) = 84.78040 84.78314 162.90996
#
# Poissons Ratio (x) = 0.15033 0.41635
# Poissons Ratio (y) = 0.15032 0.41635
# Poissons Ratio (z) = 0.21668 0.21668
#
# Static dielectric constant tensor:
#      x y z
#    x 1.638400 0.000000 0.000000 
#    y 0.000000 1.638400 0.000000 
#    z 0.000000 0.000000 1.644860 
# 
# From -- ./inp_files/860.got.cif
#   From: 2010.05.17/outbox.cif.g08.bks.cpg/sg124_1_cif.got.tgz:860.got - 2010.05.20 11:49:17.
