data_PCOD9562083
_publ_section_title
;
Structure prediction by ZEFSAII (Michael W. Deem and Ramdas Pophale) SiO2 
 PCOD9562083
Probable space group: P 4/M M M
;
_chemical_formula_sum "Si O2"
_cell_formula_units_Z 104
_cell_length_a 26.482971
_cell_length_b 26.482971
_cell_length_c 8.423375
_cell_angle_alpha 90.000000
_cell_angle_beta 90.000000
_cell_angle_gamma 90.000000
_cell_volume 5907.715129
_symmetry_space_group_name_H-M "P 4/M M M"
_symmetry_group_IT_number 123
_symmetry_cell_setting 'tetragonal'
loop_
_space_group_symop_operation_xyz
x,y,z
-y,x,z
-x,-y,z
y,-x,z
x,-y,-z
-x,y,-z
y,x,-z
-y,-x,-z
-x,-y,-z
y,-x,-z
x,y,-z
-y,x,-z
-x,y,z
x,-y,z
-y,-x,z
y,x,z
loop_
_atom_site_type_symbol
_atom_site_label
_atom_site_fract_x
_atom_site_fract_y
_atom_site_fract_z
Si Si1 0.555138 0.783238 0.309979
Si Si2 0.664812 0.254352 0.692084
Si Si3 0.686883 0.858000 0.685376
Si Si4 0.862907 0.055524 0.312498
Si Si5 0.000000 0.560342 0.677911
Si Si6 0.943628 0.752590 0.185760
Si Si7 0.890424 0.583551 0.818318
O O1 0.555507 0.777313 0.500000
O O2 0.500000 0.765311 0.250270
O O3 0.606810 0.755790 0.250996
O O4 0.558935 0.843192 0.273889
O O5 0.661940 0.259427 0.500000
O O6 0.697871 0.302130 0.750777
O O7 0.693817 0.201255 0.723009
O O8 0.671026 0.860107 0.500000
O O9 0.731562 0.896796 0.715310
O O10 0.642387 0.878901 0.794944
O O11 0.849623 0.061390 0.500000
O O12 0.901229 0.098772 0.267207
O O13 0.812344 0.056788 0.211301
O O14 0.886324 0.000000 0.295873
O O15 0.947122 0.574442 0.758901
O O16 0.000000 0.500000 0.670062
O O17 0.000000 0.581864 0.500000
O O18 0.000000 0.734315 0.236986
O O19 0.937889 0.740161 0.000000
O O20 0.886968 0.567636 0.000000
#
# Coordination Sequence:
#
# PCOD9562083 Si02
#       7
#    16  16  16  16   8  16  16
#     4   9  17  31  51  73  98 130 168 207 249 298
#     4   8  15  29  49  73  99 126 160 204 248 290
#     4  10  20  34  52  72  95 127 165 202 247 297
#     4   9  18  33  52  73  95 119 150 188 235 294
#     4  11  23  37  51  67  91 125 165 209 254 295
#     4  10  21  35  50  69  95 124 158 201 248 297
#     4  11  22  34  49  70  97 127 163 206 251 298
#
# _framework density 17.604099000000001
#
# number of rings (size 3 to 8) (size 9 to 14) (size 15 to 20)
#    0.000    2.385    0.000    3.923    1.077    4.769 
#    0.000    2.308    0.000   11.077    0.000    2.154 
#    0.000    0.308    0.000    4.308    0.000    0.000 
#
# Total GULP energy -579258.496614 kJ/mol
# GULP energy per Si atom -5569.793237 kJ/mol
# Density = 1.756403 g / cm^3
# Si number density = 17.604099 Si / 1000 Ang^3
#
#
#
# Elastic Constant Matrix: (Units=GPa)
#
#
# Indices 1 2 3 4 5 6 
#
# 1 90.7611 61.1280 9.2940 0.0000 0.0000 0.0000
# 2 61.1280 90.7611 9.2940 0.0000 0.0000 0.0000
# 3 9.2940 9.2940 21.3736 0.0000 0.0000 0.0000
# 4 0.0000 0.0000 0.0000 -35.5989 0.0000 0.0000
# 5 0.0000 0.0000 0.0000 0.0000 -35.5989 0.0000
# 6 0.0000 0.0000 0.0000 0.0000 0.0000 32.3812
#
#
#
# Elastic Compliance Matrix: (Units=1/GPa)
#
#
# Indices 1 2 3 4 5 6 
#
# 1 0.020350 -0.013396 -0.003024 0.000000 0.000000 0.000000
# 2 -0.013396 0.020350 -0.003024 0.000000 0.000000 0.000000
# 3 -0.003024 -0.003024 0.049416 0.000000 0.000000 0.000000
# 4 0.000000 0.000000 0.000000 -0.028091 0.000000 0.000000
# 5 0.000000 0.000000 0.000000 0.000000 -0.028091 0.000000
# 6 0.000000 0.000000 0.000000 0.000000 0.000000 0.030882
#
#
# Mechanical properties :
#
#
# Convention : Reuss Voigt Hill
#
# Bulk Modulus (GPa) = 19.52023 40.25862 29.88942
# Shear Modulus (GPa) = 41.39748 0.44866 20.92307
#
# Velocity S-wave (km/s) = 4.85457 0.50539 3.45125
# Velocity P-wave (km/s) = 6.52189 4.82277 5.73560
#
# Compressibility (1/GPa) = 0.05122891
#
# Stress axis : x y z
#
# Youngs Moduli (GPa) = 49.14022 49.14022 20.23625
#
# Poissons Ratio (x) = 0.65829 0.06119
# Poissons Ratio (y) = 0.65829 0.06119
# Poissons Ratio (z) = 0.14859 0.14859
#
# Static dielectric constant tensor:
#      x y z
#    x 1.624480 0.000000 0.000000 
#    y 0.000000 1.624480 0.000000 
#    z 0.000000 0.000000 1.631300 
# 
# From -- ./inp_files/1934.got.cif
#   From: 2010.05.17/outbox.cif.g08.bks.cpg/sg123_1_cif.got.tgz:1934.got - 2010.05.20 11:43:04.
