data_PCOD9562478
_publ_section_title
;
Structure prediction by ZEFSAII (Michael W. Deem and Ramdas Pophale) SiO2 
 PCOD9562478
Probable space group: P 4/M C C
;
_chemical_formula_sum "Si O2"
_cell_formula_units_Z 88
_cell_length_a 13.427078
_cell_length_b 13.427078
_cell_length_c 28.372549
_cell_angle_alpha 90.000000
_cell_angle_beta 90.000000
_cell_angle_gamma 90.000000
_cell_volume 5115.185388
_symmetry_space_group_name_H-M "P 4/M C C"
_symmetry_group_IT_number 124
_symmetry_cell_setting 'tetragonal'
loop_
_space_group_symop_operation_xyz
x,y,z
-y,x,z
-x,-y,z
y,-x,z
x,-y,1/2-z
-x,y,1/2-z
y,x,1/2-z
-y,-x,1/2-z
-x,-y,-z
y,-x,-z
x,y,-z
-y,x,-z
-x,y,1/2+z
x,-y,1/2+z
-y,-x,1/2+z
y,x,1/2+z
loop_
_atom_site_type_symbol
_atom_site_label
_atom_site_fract_x
_atom_site_fract_y
_atom_site_fract_z
Si Si1 0.117018 0.876802 0.500000
Si Si2 0.594174 0.373654 0.943665
Si Si3 0.887604 0.620514 0.153383
Si Si4 0.613366 0.220344 0.747632
Si Si5 0.124083 0.393973 0.354278
Si Si6 0.226728 0.235221 0.913656
O O1 0.167069 0.824460 0.545905
O O2 0.996512 0.863389 0.500000
O O3 0.634984 0.480623 0.925937
O O4 0.668801 0.285593 0.933041
O O5 0.588039 0.379723 0.000000
O O6 0.852462 0.626646 0.207645
O O7 0.852678 0.510714 0.134989
O O8 0.844595 0.714617 0.125248
O O9 0.005780 0.618070 0.148299
O O10 0.500000 0.257914 0.750000
O O11 0.690745 0.309256 0.750000
O O12 0.626109 0.165903 0.697906
O O13 0.168465 0.312902 0.389872
#
# Coordination Sequence:
#
# PCOD9562478 Si02
#       6
#     8  16  16  16  16  16
#     4  11  26  44  58  77 106 144 190 241 300 342
#     4   9  18  33  53  78 109 143 174 208 259 324
#     4  10  21  36  57  85 113 144 184 228 277 332
#     4  10  19  36  57  82 116 150 181 222 276 336
#     4  10  21  36  57  85 113 144 184 228 277 332
#     4  12  20  37  60  81 109 143 187 233 274 331
#
# _framework density 17.203679000000001
#
# number of rings (size 3 to 8) (size 9 to 14) (size 15 to 20)
#    0.000    1.727    2.727    3.273    0.000    2.364 
#    0.000    0.000    0.000    4.364    0.000    1.273 
#    0.000    0.000    0.000    0.000    0.000    0.000 
#
# Total GULP energy -490606.947991 kJ/mol
# GULP energy per Si atom -5575.078954 kJ/mol
# Density = 1.716452 g / cm^3
# Si number density = 17.203679 Si / 1000 Ang^3
#
#
#
# Elastic Constant Matrix: (Units=GPa)
#
#
# Indices 1 2 3 4 5 6 
#
# 1 67.5381 23.1934 24.8995 0.0000 0.0000 0.0000
# 2 23.1934 67.5372 24.9020 0.0000 0.0000 0.0000
# 3 24.8995 24.9020 66.0444 0.0000 0.0000 0.0000
# 4 0.0000 0.0000 0.0000 13.9770 0.0000 0.0000
# 5 0.0000 0.0000 0.0000 0.0000 13.9749 0.0000
# 6 0.0000 0.0000 0.0000 0.0000 0.0000 33.6423
#
#
#
# Elastic Compliance Matrix: (Units=1/GPa)
#
#
# Indices 1 2 3 4 5 6 
#
# 1 0.018224 -0.004327 -0.005239 0.000000 0.000000 0.000000
# 2 -0.004327 0.018225 -0.005240 0.000000 0.000000 0.000000
# 3 -0.005239 -0.005240 0.019092 0.000000 0.000000 0.000000
# 4 0.000000 0.000000 0.000000 0.071546 0.000000 0.000000
# 5 0.000000 0.000000 0.000000 0.000000 0.071557 0.000000
# 6 0.000000 0.000000 0.000000 0.000000 0.000000 0.029724
#
#
# Mechanical properties :
#
#
# Convention : Reuss Voigt Hill
#
# Bulk Modulus (GPa) = 38.56764 38.56772 38.56768
# Shear Modulus (GPa) = 18.75301 20.86050 19.80675
#
# Velocity S-wave (km/s) = 3.30518 3.48596 3.39678
# Velocity P-wave (km/s) = 6.08544 6.21848 6.15232
#
# Compressibility (1/GPa) = 0.02592847
#
# Stress axis : x y z
#
# Youngs Moduli (GPa) = 54.87325 54.87061 52.37661
#
# Poissons Ratio (x) = 0.23740 0.27441
# Poissons Ratio (y) = 0.23741 0.27448
# Poissons Ratio (z) = 0.28749 0.28755
#
# Static dielectric constant tensor:
#      x y z
#    x 1.578490 0.000000 0.000000 
#    y 0.000000 1.578480 0.000000 
#    z 0.000000 0.000000 1.592570 
# 
# From -- ./inp_files/7077.got.cif
#   From: 2010.05.17/outbox.cif.g08.bks.cpg/sg124_4_cif.got.tgz:7077.got - 2010.05.20 11:49:17.
