data_PCOD9562621
_publ_section_title
;
Structure prediction by ZEFSAII (Michael W. Deem and Ramdas Pophale) SiO2 
 PCOD9562621
Probable space group: P 4/M C C
;
_chemical_formula_sum "Si O2"
_cell_formula_units_Z 88
_cell_length_a 16.259079
_cell_length_b 16.259079
_cell_length_c 18.840613
_cell_angle_alpha 90.000000
_cell_angle_beta 90.000000
_cell_angle_gamma 90.000000
_cell_volume 4980.660176
_symmetry_space_group_name_H-M "P 4/M C C"
_symmetry_group_IT_number 124
_symmetry_cell_setting 'tetragonal'
loop_
_space_group_symop_operation_xyz
x,y,z
-y,x,z
-x,-y,z
y,-x,z
x,-y,1/2-z
-x,y,1/2-z
y,x,1/2-z
-y,-x,1/2-z
-x,-y,-z
y,-x,-z
x,y,-z
-y,x,-z
-x,y,1/2+z
x,-y,1/2+z
-y,-x,1/2+z
y,x,1/2+z
loop_
_atom_site_type_symbol
_atom_site_label
_atom_site_fract_x
_atom_site_fract_y
_atom_site_fract_z
Si Si1 0.350961 0.385179 0.000000
Si Si2 0.532535 0.087771 0.137489
Si Si3 0.649516 0.853235 0.157386
Si Si4 0.568446 0.835321 0.500000
Si Si5 0.000000 0.357633 0.250000
Si Si6 0.627622 0.809169 0.000000
Si Si7 0.695059 0.304942 0.750000
Si Si8 0.566304 0.615469 0.656982
O O1 0.374751 0.289804 0.000000
O O2 0.379283 0.427577 0.927780
O O3 0.253646 0.393601 0.000000
O O4 0.451428 0.140659 0.156813
O O5 0.587794 0.124268 0.075226
O O6 0.585931 0.062612 0.204965
O O7 0.500000 0.000000 0.109172
O O8 0.682748 0.777478 0.204117
O O9 0.682031 0.938562 0.192255
O O10 0.667580 0.839966 0.073658
O O11 0.468340 0.835042 0.500000
O O12 0.685654 0.380940 0.694638
O O13 0.471047 0.609343 0.676611
#
# Coordination Sequence:
#
# PCOD9562621 Si02
#       8
#     8  16  16   8   8   8   8  16
#     4  12  22  36  51  74  95 144 195 238 281 329
#     4   9  18  34  51  78 101 129 170 226 284 349
#     4  10  21  36  55  76 106 136 174 221 283 341
#     4  10  21  30  56  69  97 138 182 228 276 339
#     4  10  21  34  56  84 108 133 172 229 288 344
#     4  10  20  39  49  73 100 142 181 229 281 331
#     4  12  24  35  58  76 106 143 184 238 284 342
#     4  11  24  38  50  68  98 142 197 249 286 315
#
# _framework density 17.668341000000002
#
# number of rings (size 3 to 8) (size 9 to 14) (size 15 to 20)
#    0.000    1.636    1.818    4.909    5.091    5.091 
#    0.000    0.000    0.000    0.000    0.000    0.000 
#    0.000    0.364    0.000    0.000    0.000   11.636 
#
# Total GULP energy -490829.808794 kJ/mol
# GULP energy per Si atom -5577.611464 kJ/mol
# Density = 1.762813 g / cm^3
# Si number density = 17.668341 Si / 1000 Ang^3
#
#
#
# Elastic Constant Matrix: (Units=GPa)
#
#
# Indices 1 2 3 4 5 6 
#
# 1 43.9003 5.9106 28.2612 0.0000 0.0000 0.0000
# 2 5.9106 43.9009 28.2611 0.0000 0.0000 0.0000
# 3 28.2612 28.2611 141.0304 0.0000 0.0000 0.0000
# 4 0.0000 0.0000 0.0000 22.2600 0.0000 0.0000
# 5 0.0000 0.0000 0.0000 0.0000 22.2596 0.0000
# 6 0.0000 0.0000 0.0000 0.0000 0.0000 11.7130
#
#
#
# Elastic Compliance Matrix: (Units=1/GPa)
#
#
# Indices 1 2 3 4 5 6 
#
# 1 0.026154 -0.000169 -0.005207 0.000000 0.000000 0.000000
# 2 -0.000169 0.026153 -0.005207 0.000000 0.000000 0.000000
# 3 -0.005207 -0.005207 0.009178 0.000000 0.000000 0.000000
# 4 0.000000 0.000000 0.000000 0.044924 0.000000 0.000000
# 5 0.000000 0.000000 0.000000 0.000000 0.044924 0.000000
# 6 0.000000 0.000000 0.000000 0.000000 0.000000 0.085375
#
#
# Mechanical properties :
#
#
# Convention : Reuss Voigt Hill
#
# Bulk Modulus (GPa) = 24.80269 39.29971 32.05120
# Shear Modulus (GPa) = 18.42885 22.33975 20.38430
#
# Velocity S-wave (km/s) = 3.23312 3.55969 3.40033
# Velocity P-wave (km/s) = 5.29205 6.25991 5.79622
#
# Compressibility (1/GPa) = 0.04031820
#
# Stress axis : x y z
#
# Youngs Moduli (GPa) = 38.23538 38.23600 108.96157
#
# Poissons Ratio (x) = 0.00647 0.56737
# Poissons Ratio (y) = 0.00647 0.56736
# Poissons Ratio (z) = 0.19909 0.19909
#
# Static dielectric constant tensor:
#      x y z
#    x 1.600820 0.000000 0.000000 
#    y 0.000000 1.600830 0.000000 
#    z 0.000000 0.000000 1.736910 
# 
# From -- ./inp_files/5263.got.cif
#   From: 2010.05.17/outbox.cif.g08.bks.cpg/sg124_3_cif.got.tgz:5263.got - 2010.05.20 11:49:17.
