data_PCOD9562944
_publ_section_title
;
Structure prediction by ZEFSAII (Michael W. Deem and Ramdas Pophale) SiO2 
 PCOD9562944
Probable space group: P 4/N B M
;
_chemical_formula_sum "Si O2"
_cell_formula_units_Z 96
_cell_length_a 14.614785
_cell_length_b 14.614785
_cell_length_c 23.279026
_cell_angle_alpha 90.000000
_cell_angle_beta 90.000000
_cell_angle_gamma 90.000000
_cell_volume 4972.212339
_symmetry_space_group_name_H-M "P 4/N B M"
_symmetry_group_IT_number 125
_space_group.IT_coordinate_system_code '2'
_symmetry_cell_setting 'tetragonal'
loop_
_space_group_symop_operation_xyz
x,y,z
1/2-y,x,z
1/2-x,1/2-y,z
y,1/2-x,z
x,1/2-y,-z
1/2-x,y,-z
y,x,-z
1/2-y,1/2-x,-z
-x,-y,-z
1/2+y,-x,-z
1/2+x,1/2+y,-z
-y,1/2+x,-z
-x,1/2+y,z
1/2+x,-y,z
-y,-x,z
1/2+y,1/2+x,z
loop_
_atom_site_type_symbol
_atom_site_label
_atom_site_fract_x
_atom_site_fract_y
_atom_site_fract_z
Si Si1 0.582342 0.928548 0.628555
Si Si2 0.731473 0.418688 0.351621
Si Si3 0.506113 0.851051 0.971332
Si Si4 0.998264 0.851616 0.261822
Si Si5 0.837715 0.482330 0.460444
Si Si6 0.303034 0.395278 0.145518
O O1 0.571876 0.867535 0.685274
O O2 0.575219 0.877156 0.567858
O O3 0.492153 0.992153 0.627578
O O4 0.665032 0.995804 0.637601
O O5 0.672394 0.327606 0.354673
O O6 0.779218 0.432061 0.290255
O O7 0.800636 0.429527 0.403977
O O8 0.538165 0.831481 0.906271
O O9 0.414844 0.914844 0.974566
O O10 0.496038 0.750000 0.000000
O O11 0.588017 0.911984 0.000000
O O12 0.055521 0.944480 0.250455
O O13 0.946212 0.819443 0.205657
O O14 0.750000 0.493964 0.500000
O O15 0.917996 0.417996 0.487065
O O16 0.197445 0.363239 0.141486
#
# Coordination Sequence:
#
# PCOD9562944 Si02
#       6
#    16  16  16  16  16  16
#     4   8  17  33  50  71 101 138 180 225 277 343
#     4  10  19  33  54  75 101 142 186 232 289 353
#     4  11  23  42  68  97 132 173 215 265 321 375
#     4  10  20  35  54  81 116 148 186 238 298 362
#     4  10  20  32  48  72 102 134 173 227 286 349
#     4  11  22  37  62  92 121 160 212 261 301 358
#
# _framework density 19.307302
#
# number of rings (size 3 to 8) (size 9 to 14) (size 15 to 20)
#    0.000    2.000    1.667    3.500    0.000    3.167 
#    0.000    4.167    0.000    6.500    0.000    4.667 
#    0.000    0.000    0.000    0.000    0.000    0.000 
#
# Total GULP energy -535595.660315 kJ/mol
# GULP energy per Si atom -5579.121462 kJ/mol
# Density = 1.926336 g / cm^3
# Si number density = 19.307302 Si / 1000 Ang^3
#
#
#
# Elastic Constant Matrix: (Units=GPa)
#
#
# Indices 1 2 3 4 5 6 
#
# 1 90.6837 55.2814 42.5171 0.0000 0.0000 0.0000
# 2 55.2814 90.6840 42.5174 0.0000 0.0000 0.0000
# 3 42.5171 42.5174 126.4342 0.0000 0.0000 0.0000
# 4 0.0000 0.0000 0.0000 20.4435 0.0000 0.0000
# 5 0.0000 0.0000 0.0000 0.0000 20.4434 0.0000
# 6 0.0000 0.0000 0.0000 0.0000 0.0000 36.9042
#
#
#
# Elastic Compliance Matrix: (Units=1/GPa)
#
#
# Indices 1 2 3 4 5 6 
#
# 1 0.018383 -0.009863 -0.002865 0.000000 0.000000 0.000000
# 2 -0.009863 0.018383 -0.002865 0.000000 0.000000 0.000000
# 3 -0.002865 -0.002865 0.009836 0.000000 0.000000 0.000000
# 4 0.000000 0.000000 0.000000 0.048915 0.000000 0.000000
# 5 0.000000 0.000000 0.000000 0.000000 0.048915 0.000000
# 6 0.000000 0.000000 0.000000 0.000000 0.000000 0.027097
#
#
# Mechanical properties :
#
#
# Convention : Reuss Voigt Hill
#
# Bulk Modulus (GPa) = 64.86829 65.38154 65.12491
# Shear Modulus (GPa) = 24.05503 26.72395 25.38949
#
# Velocity S-wave (km/s) = 3.53357 3.72444 3.63025
# Velocity P-wave (km/s) = 7.09358 7.24102 7.16768
#
# Compressibility (1/GPa) = 0.01541585
#
# Stress axis : x y z
#
# Youngs Moduli (GPa) = 54.39696 54.39709 101.66506
#
# Poissons Ratio (x) = 0.53653 0.29128
# Poissons Ratio (y) = 0.53653 0.29129
# Poissons Ratio (z) = 0.15585 0.15586
#
# Static dielectric constant tensor:
#      x y z
#    x 1.717690 0.000000 0.000000 
#    y 0.000000 1.717690 0.000000 
#    z 0.000000 0.000000 1.669520 
# 
# From -- ./inp_files/5912.got.cif
#   From: 2010.05.17/outbox.cif.g08.bks.cpg/sg125_3_cif.got.tgz:5912.got - 2010.05.20 11:54:10.
