data_PCOD9562558
_publ_section_title
;
Structure prediction by ZEFSAII (Michael W. Deem and Ramdas Pophale) SiO2 
 PCOD9562558
Probable space group: P 4/M C C
;
_chemical_formula_sum "Si O2"
_cell_formula_units_Z 96
_cell_length_a 25.917792
_cell_length_b 25.917792
_cell_length_c 8.979984
_cell_angle_alpha 90.000000
_cell_angle_beta 90.000000
_cell_angle_gamma 90.000000
_cell_volume 6032.142093
_symmetry_space_group_name_H-M "P 4/M C C"
_symmetry_group_IT_number 124
_symmetry_cell_setting 'tetragonal'
loop_
_space_group_symop_operation_xyz
x,y,z
-y,x,z
-x,-y,z
y,-x,z
x,-y,1/2-z
-x,y,1/2-z
y,x,1/2-z
-y,-x,1/2-z
-x,-y,-z
y,-x,-z
x,y,-z
-y,x,-z
-x,y,1/2+z
x,-y,1/2+z
-y,-x,1/2+z
y,x,1/2+z
loop_
_atom_site_type_symbol
_atom_site_label
_atom_site_fract_x
_atom_site_fract_y
_atom_site_fract_z
Si Si1 0.141470 0.781479 0.322157
Si Si2 0.262267 0.447424 0.173010
Si Si3 0.335064 0.849348 0.180792
Si Si4 0.263553 0.657798 0.177493
Si Si5 0.447103 0.863549 0.828521
Si Si6 0.866753 0.055799 0.821128
O O1 0.192410 0.807591 0.250000
O O2 0.149144 0.783076 0.500000
O O3 0.129598 0.721963 0.282458
O O4 0.093583 0.818684 0.285020
O O5 0.279511 0.500000 0.250000
O O6 0.280740 0.398371 0.265444
O O7 0.199295 0.447354 0.177444
O O8 0.276886 0.444025 0.000000
O O9 0.335294 0.793665 0.257510
O O10 0.388956 0.877149 0.227052
O O11 0.338298 0.843782 0.000000
O O12 0.299522 0.700479 0.250000
O O13 0.263559 0.660978 0.000000
O O14 0.500000 0.880975 0.750000
O O15 0.450603 0.879411 0.000000
O O16 0.916496 0.083505 0.750000
O O17 0.859425 0.000000 0.750000
O O18 0.871578 0.052709 0.000000
#
# Coordination Sequence:
#
# PCOD9562558 Si02
#       6
#    16  16  16  16  16  16
#     4   9  18  31  47  66  91 121 153 187 228 275
#     4   9  16  27  40  54  72  98 131 168 210 257
#     4   9  17  29  42  59  84 116 150 184 221 265
#     4  11  20  28  38  55  79 108 140 175 211 251
#     4   8  14  23  36  53  77 107 141 178 215 253
#     4  10  20  35  54  76 100 127 157 192 232 277
#
# _framework density 15.914743
#
# number of rings (size 3 to 8) (size 9 to 14) (size 15 to 20)
#    0.000    2.667    0.000    4.000    0.000    6.833 
#    0.000    0.833    0.000    0.000    0.000    0.000 
#    0.000    1.000    0.000   11.667    0.000    2.333 
#
# Total GULP energy -534417.470399 kJ/mol
# GULP energy per Si atom -5566.848650 kJ/mol
# Density = 1.587852 g / cm^3
# Si number density = 15.914743 Si / 1000 Ang^3
#
#
#
# Elastic Constant Matrix: (Units=GPa)
#
#
# Indices 1 2 3 4 5 6 
#
# 1 81.6787 25.4840 24.5214 0.0000 0.0000 0.0000
# 2 25.4840 81.6801 24.5206 0.0000 0.0000 0.0000
# 3 24.5214 24.5206 48.9075 0.0000 0.0000 0.0000
# 4 0.0000 0.0000 0.0000 16.4480 0.0000 0.0000
# 5 0.0000 0.0000 0.0000 0.0000 16.4480 0.0000
# 6 0.0000 0.0000 0.0000 0.0000 0.0000 9.5046
#
#
#
# Elastic Compliance Matrix: (Units=1/GPa)
#
#
# Indices 1 2 3 4 5 6 
#
# 1 0.014953 -0.002842 -0.006072 0.000000 0.000000 0.000000
# 2 -0.002842 0.014952 -0.006071 0.000000 0.000000 0.000000
# 3 -0.006072 -0.006071 0.026535 0.000000 0.000000 0.000000
# 4 0.000000 0.000000 0.000000 0.060798 0.000000 0.000000
# 5 0.000000 0.000000 0.000000 0.000000 0.060798 0.000000
# 6 0.000000 0.000000 0.000000 0.000000 0.000000 0.105212
#
#
# Mechanical properties :
#
#
# Convention : Reuss Voigt Hill
#
# Bulk Modulus (GPa) = 37.78059 40.14646 38.96352
# Shear Modulus (GPa) = 15.52591 17.66282 16.59437
#
# Velocity S-wave (km/s) = 3.12680 3.33504 3.23260
# Velocity P-wave (km/s) = 6.06850 6.33330 6.20231
#
# Compressibility (1/GPa) = 0.02646862
#
# Stress axis : x y z
#
# Youngs Moduli (GPa) = 66.87677 66.87894 37.68577
#
# Poissons Ratio (x) = 0.19010 0.22883
# Poissons Ratio (y) = 0.19009 0.22881
# Poissons Ratio (z) = 0.40608 0.40605
#
# Static dielectric constant tensor:
#      x y z
#    x 1.554580 0.000000 0.000000 
#    y 0.000000 1.554580 0.000000 
#    z 0.000000 0.000000 1.532040 
# 
# From -- ./inp_files/1536.got.cif
#   From: 2010.05.17/outbox.cif.g08.bks.cpg/sg124_1_cif.got.tgz:1536.got - 2010.05.20 11:49:17.
