data_PCOD9562677
_publ_section_title
;
Structure prediction by ZEFSAII (Michael W. Deem and Ramdas Pophale) SiO2 
 PCOD9562677
Probable space group: P 4/M C C
;
_chemical_formula_sum "Si O2"
_cell_formula_units_Z 112
_cell_length_a 13.705218
_cell_length_b 13.705218
_cell_length_c 23.782305
_cell_angle_alpha 90.000000
_cell_angle_beta 90.000000
_cell_angle_gamma 90.000000
_cell_volume 4467.101705
_symmetry_space_group_name_H-M "P 4/M C C"
_symmetry_group_IT_number 124
_symmetry_cell_setting 'tetragonal'
loop_
_space_group_symop_operation_xyz
x,y,z
-y,x,z
-x,-y,z
y,-x,z
x,-y,1/2-z
-x,y,1/2-z
y,x,1/2-z
-y,-x,1/2-z
-x,-y,-z
y,-x,-z
x,y,-z
-y,x,-z
-x,y,1/2+z
x,-y,1/2+z
-y,-x,1/2+z
y,x,1/2+z
loop_
_atom_site_type_symbol
_atom_site_label
_atom_site_fract_x
_atom_site_fract_y
_atom_site_fract_z
Si Si1 0.354199 0.430620 0.674222
Si Si2 0.137596 0.330488 0.936156
Si Si3 0.471736 0.238941 0.933646
Si Si4 0.843906 0.611651 0.263591
Si Si5 0.128205 0.905283 0.911024
Si Si6 0.950972 0.395930 0.125387
Si Si7 0.214362 0.906295 0.788671
O O1 0.454839 0.375138 0.685520
O O2 0.320523 0.431331 0.608780
O O3 0.264724 0.390391 0.710742
O O4 0.214147 0.414053 0.918720
O O5 0.162071 0.215940 0.933858
O O6 0.036471 0.335094 0.902565
O O7 0.114667 0.358229 0.000000
O O8 0.416023 0.139083 0.916648
O O9 0.462964 0.261146 0.000000
O O10 0.866368 0.500000 0.250000
O O11 0.909125 0.646089 0.316741
O O12 0.876729 0.671834 0.208794
O O13 0.150084 0.906353 0.844185
O O14 0.020272 0.869524 0.926959
O O15 0.000000 0.500000 0.136821
O O16 0.182382 0.817619 0.750000
O O17 0.196501 0.000000 0.750000
#
# Coordination Sequence:
#
# PCOD9562677 Si02
#       7
#    16  16  16  16  16  16  16
#     4  10  24  46  67  92 132 176 218 272 338 411
#     4  10  21  40  67  96 131 174 220 275 340 409
#     4   9  19  38  66  98 129 167 219 279 338 405
#     4  11  27  40  67  98 133 173 229 283 340 407
#     4  11  25  44  66  94 133 180 228 283 341 414
#     4   9  19  37  61  93 132 169 214 274 342 402
#     4  12  26  43  68  99 137 181 232 284 347 410
#
# _framework density 25.072184
#
# number of rings (size 3 to 8) (size 9 to 14) (size 15 to 20)
#    0.000    1.714    1.429    1.286   10.000    3.000 
#    2.571    2.143    0.000    0.000    0.000    0.000 
#    0.000    0.000    0.000    0.000    0.000    0.000 
#
# Total GULP energy -626595.857932 kJ/mol
# GULP energy per Si atom -5594.605874 kJ/mol
# Density = 2.501512 g / cm^3
# Si number density = 25.072184 Si / 1000 Ang^3
#
#
#
# Elastic Constant Matrix: (Units=GPa)
#
#
# Indices 1 2 3 4 5 6 
#
# 1 91.9463 9.4799 20.9385 0.0000 0.0000 0.0000
# 2 9.4799 91.9489 20.9389 0.0000 0.0000 0.0000
# 3 20.9385 20.9389 100.2522 0.0000 0.0000 0.0000
# 4 0.0000 0.0000 0.0000 21.5270 0.0000 0.0000
# 5 0.0000 0.0000 0.0000 0.0000 21.5256 0.0000
# 6 0.0000 0.0000 0.0000 0.0000 0.0000 23.6687
#
#
#
# Elastic Compliance Matrix: (Units=1/GPa)
#
#
# Indices 1 2 3 4 5 6 
#
# 1 0.011458 -0.000668 -0.002254 0.000000 0.000000 0.000000
# 2 -0.000668 0.011458 -0.002254 0.000000 0.000000 0.000000
# 3 -0.002254 -0.002254 0.010916 0.000000 0.000000 0.000000
# 4 0.000000 0.000000 0.000000 0.046453 0.000000 0.000000
# 5 0.000000 0.000000 0.000000 0.000000 0.046456 0.000000
# 6 0.000000 0.000000 0.000000 0.000000 0.000000 0.042250
#
#
# Mechanical properties :
#
#
# Convention : Reuss Voigt Hill
#
# Bulk Modulus (GPa) = 42.58681 42.98465 42.78573
# Shear Modulus (GPa) = 26.71383 28.86359 27.78871
#
# Velocity S-wave (km/s) = 3.26771 3.39664 3.33280
# Velocity P-wave (km/s) = 5.59104 5.70653 5.64908
#
# Compressibility (1/GPa) = 0.02348145
#
# Stress axis : x y z
#
# Youngs Moduli (GPa) = 87.27532 87.27775 91.60698
#
# Poissons Ratio (x) = 0.05831 0.20644
# Poissons Ratio (y) = 0.05831 0.20644
# Poissons Ratio (z) = 0.19668 0.19668
#
# Static dielectric constant tensor:
#      x y z
#    x 2.049900 0.000000 0.000000 
#    y 0.000000 2.049900 0.000000 
#    z 0.000000 0.000000 1.978860 
# 
# From -- ./inp_files/6091.got.cif
#   From: 2010.05.17/outbox.cif.g08.bks.cpg/sg124_4_cif.got.tgz:6091.got - 2010.05.20 11:49:17.
