data_PCOD9562893
_publ_section_title
;
Structure prediction by ZEFSAII (Michael W. Deem and Ramdas Pophale) SiO2 
 PCOD9562893
Probable space group: P 4/N B M
;
_chemical_formula_sum "Si O2"
_cell_formula_units_Z 96
_cell_length_a 20.395973
_cell_length_b 20.395973
_cell_length_c 12.086948
_cell_angle_alpha 90.000000
_cell_angle_beta 90.000000
_cell_angle_gamma 90.000000
_cell_volume 5028.118571
_symmetry_space_group_name_H-M "P 4/N B M"
_symmetry_group_IT_number 125
_space_group.IT_coordinate_system_code '2'
_symmetry_cell_setting 'tetragonal'
loop_
_space_group_symop_operation_xyz
x,y,z
1/2-y,x,z
1/2-x,1/2-y,z
y,1/2-x,z
x,1/2-y,-z
1/2-x,y,-z
y,x,-z
1/2-y,1/2-x,-z
-x,-y,-z
1/2+y,-x,-z
1/2+x,1/2+y,-z
-y,1/2+x,-z
-x,1/2+y,z
1/2+x,-y,z
-y,-x,z
1/2+y,1/2+x,z
loop_
_atom_site_type_symbol
_atom_site_label
_atom_site_fract_x
_atom_site_fract_y
_atom_site_fract_z
Si Si1 0.997871 0.110984 0.291493
Si Si2 0.933872 0.325648 0.493542
Si Si3 0.248041 0.646515 0.866348
Si Si4 0.296355 0.509158 0.903330
Si Si5 0.901952 0.991336 0.936239
Si Si6 0.505974 0.894589 0.691714
O O1 0.965277 0.149373 0.392047
O O2 0.021577 0.161621 0.196642
O O3 0.058318 0.067275 0.334516
O O4 0.942115 0.057886 0.250146
O O5 0.917468 0.250000 0.500000
O O6 0.869702 0.369702 0.473742
O O7 0.986748 0.340462 0.397011
O O8 0.307884 0.692117 0.824426
O O9 0.180532 0.680532 0.828386
O O10 0.259693 0.570429 0.846985
O O11 0.250000 0.651439 0.000000
O O12 0.250000 0.476911 0.000000
O O13 0.355027 0.532481 0.984497
O O14 0.870476 0.981041 0.816578
O O15 0.926002 0.926002 0.000000
O O16 0.967357 0.032644 0.914838
O O17 0.443450 0.943450 0.691990
#
# Coordination Sequence:
#
# PCOD9562893 Si02
#       6
#    16  16  16  16  16  16
#     4  10  19  35  56  78 103 141 193 247 294 331
#     4  10  22  38  58  80 109 150 194 239 281 341
#     4   8  14  25  38  54  86 134 184 223 248 290
#     4  11  21  29  46  75 111 145 179 223 280 342
#     4  10  18  31  52  77 106 142 180 230 290 343
#     4   9  18  34  57  79 102 137 188 242 295 339
#
# _framework density 19.092628000000001
#
# number of rings (size 3 to 8) (size 9 to 14) (size 15 to 20)
#    0.000    2.333    1.667    2.500    2.333    3.500 
#    0.000    0.833    0.000    1.000    0.000    0.000 
#    0.000    5.667    2.333    0.000    0.000    0.000 
#
# Total GULP energy -534521.129315 kJ/mol
# GULP energy per Si atom -5567.928430 kJ/mol
# Density = 1.904917 g / cm^3
# Si number density = 19.092628 Si / 1000 Ang^3
#
#
#
# Elastic Constant Matrix: (Units=GPa)
#
#
# Indices 1 2 3 4 5 6 
#
# 1 57.3288 42.2270 34.6160 0.0000 0.0000 0.0000
# 2 42.2270 57.3288 34.6160 0.0000 0.0000 0.0000
# 3 34.6160 34.6160 82.6318 0.0000 0.0000 0.0000
# 4 0.0000 0.0000 0.0000 22.9172 0.0000 0.0000
# 5 0.0000 0.0000 0.0000 0.0000 22.9172 0.0000
# 6 0.0000 0.0000 0.0000 0.0000 0.0000 187.8371
#
#
#
# Elastic Compliance Matrix: (Units=1/GPa)
#
#
# Indices 1 2 3 4 5 6 
#
# 1 0.040196 -0.026022 -0.005938 0.000000 0.000000 0.000000
# 2 -0.026022 0.040196 -0.005938 0.000000 0.000000 0.000000
# 3 -0.005938 -0.005938 0.017077 0.000000 0.000000 0.000000
# 4 0.000000 0.000000 0.000000 0.043635 0.000000 0.000000
# 5 0.000000 0.000000 0.000000 0.000000 0.043635 0.000000
# 6 0.000000 0.000000 0.000000 0.000000 0.000000 0.005324
#
#
# Mechanical properties :
#
#
# Convention : Reuss Voigt Hill
#
# Bulk Modulus (GPa) = 46.13921 46.68969 46.41445
# Shear Modulus (GPa) = 18.30960 52.45631 35.38296
#
# Velocity S-wave (km/s) = 3.10011 5.24731 4.30958
# Velocity P-wave (km/s) = 6.08545 7.82431 7.00901
#
# Compressibility (1/GPa) = 0.02167354
#
# Stress axis : x y z
#
# Youngs Moduli (GPa) = 24.87841 24.87841 58.55950
#
# Poissons Ratio (x) = 0.64738 0.34770
# Poissons Ratio (y) = 0.64738 0.34770
# Poissons Ratio (z) = 0.14772 0.14772
#
# Static dielectric constant tensor:
#      x y z
#    x 1.707660 0.000000 0.000000 
#    y 0.000000 1.707660 0.000000 
#    z 0.000000 0.000000 1.727940 
# 
# From -- ./inp_files/4116.got.cif
#   From: 2010.05.17/outbox.cif.g08.bks.cpg/sg125_3_cif.got.tgz:4116.got - 2010.05.20 11:54:10.
