data_PCOD9562228
_publ_section_title
;
Structure prediction by ZEFSAII (Michael W. Deem and Ramdas Pophale) SiO2 
 PCOD9562228
Probable space group: P 4/M M M
;
_chemical_formula_sum "Si O2"
_cell_formula_units_Z 64
_cell_length_a 20.025502
_cell_length_b 20.025502
_cell_length_c 8.481845
_cell_angle_alpha 90.000000
_cell_angle_beta 90.000000
_cell_angle_gamma 90.000000
_cell_volume 3401.395677
_symmetry_space_group_name_H-M "P 4/M M M"
_symmetry_group_IT_number 123
_symmetry_cell_setting 'tetragonal'
loop_
_space_group_symop_operation_xyz
x,y,z
-y,x,z
-x,-y,z
y,-x,z
x,-y,-z
-x,y,-z
y,x,-z
-y,-x,-z
-x,-y,-z
y,-x,-z
x,y,-z
-y,x,-z
-x,y,z
x,-y,z
-y,-x,z
y,x,z
loop_
_atom_site_type_symbol
_atom_site_label
_atom_site_fract_x
_atom_site_fract_y
_atom_site_fract_z
Si Si1 0.257309 0.000000 0.683544
Si Si2 0.425820 0.312592 0.500000
Si Si3 0.626697 0.260160 0.822759
Si Si4 0.000000 0.892391 0.189594
Si Si5 0.500000 0.080343 0.680260
Si Si6 0.354887 0.109736 0.818249
O O1 0.303237 0.936465 0.726722
O O2 0.244532 0.000000 0.500000
O O3 0.184930 0.000000 0.764227
O O4 0.500000 0.341169 0.500000
O O5 0.370216 0.370216 0.500000
O O6 0.416148 0.271995 0.335948
O O7 0.681810 0.318191 0.823769
O O8 0.660674 0.187998 0.806560
O O9 0.594152 0.260811 0.000000
O O10 0.065107 0.934894 0.243503
O O11 0.000000 0.894836 0.000000
O O12 0.500000 0.104357 0.500000
O O13 0.431299 0.102146 0.761186
O O14 0.500000 0.000000 0.680084
O O15 0.351851 0.088890 0.000000
#
# Coordination Sequence:
#
# PCOD9562228 Si02
#       6
#     8   8  16   8   8  16
#     4  12  25  38  56  88 123 154 192 242 297 352
#     4  10  22  39  62  89 119 155 192 240 294 350
#     4   9  21  40  60  86 118 153 196 243 291 347
#     4   9  20  42  69  91 113 148 195 243 294 356
#     4  11  23  37  55  81 116 154 190 241 292 343
#     4  11  23  38  59  83 113 156 200 241 287 346
#
# _framework density 18.815805999999998
#
# number of rings (size 3 to 8) (size 9 to 14) (size 15 to 20)
#    0.000    1.750    1.250    2.625    5.250    2.625 
#    0.000    3.125    0.000    0.000    0.000    3.500 
#    0.000    0.000    0.000    0.000    0.000    0.000 
#
# Total GULP energy -356962.418015 kJ/mol
# GULP energy per Si atom -5577.537781 kJ/mol
# Density = 1.877298 g / cm^3
# Si number density = 18.815806 Si / 1000 Ang^3
#
#
#
# Elastic Constant Matrix: (Units=GPa)
#
#
# Indices 1 2 3 4 5 6 
#
# 1 80.3227 13.1223 26.3155 0.0000 0.0000 0.0000
# 2 13.1223 80.3227 26.3155 0.0000 0.0000 0.0000
# 3 26.3155 26.3155 109.9115 0.0000 0.0000 0.0000
# 4 0.0000 0.0000 0.0000 58.1294 0.0000 0.0000
# 5 0.0000 0.0000 0.0000 0.0000 58.1294 0.0000
# 6 0.0000 0.0000 0.0000 0.0000 0.0000 24.2687
#
#
#
# Elastic Compliance Matrix: (Units=1/GPa)
#
#
# Indices 1 2 3 4 5 6 
#
# 1 0.013625 -0.001256 -0.002962 0.000000 0.000000 0.000000
# 2 -0.001256 0.013625 -0.002962 0.000000 0.000000 0.000000
# 3 -0.002962 -0.002962 0.010516 0.000000 0.000000 0.000000
# 4 0.000000 0.000000 0.000000 0.017203 0.000000 0.000000
# 5 0.000000 0.000000 0.000000 0.000000 0.017203 0.000000
# 6 0.000000 0.000000 0.000000 0.000000 0.000000 0.041205
#
#
# Mechanical properties :
#
#
# Convention : Reuss Voigt Hill
#
# Bulk Modulus (GPa) = 42.71832 44.67370 43.69601
# Shear Modulus (GPa) = 36.88984 41.75907 39.32445
#
# Velocity S-wave (km/s) = 4.43264 4.71612 4.57658
# Velocity P-wave (km/s) = 6.99646 7.31094 7.15543
#
# Compressibility (1/GPa) = 0.02340916
#
# Stress axis : x y z
#
# Youngs Moduli (GPa) = 73.39350 73.39350 95.08984
#
# Poissons Ratio (x) = 0.09216 0.28161
# Poissons Ratio (y) = 0.09216 0.28161
# Poissons Ratio (z) = 0.21736 0.21736
#
# Static dielectric constant tensor:
#      x y z
#    x 1.691920 0.000000 0.000000 
#    y 0.000000 1.691920 0.000000 
#    z 0.000000 0.000000 1.686730 
# 
# From -- ./inp_files/1020.got.cif
#   From: 2010.05.17/outbox.cif.g08.bks.cpg/sg123_1_cif.got.tgz:1020.got - 2010.05.20 11:43:04.
