data_PCOD9562461
_publ_section_title
;
Structure prediction by ZEFSAII (Michael W. Deem and Ramdas Pophale) SiO2 
 PCOD9562461
Probable space group: P 4/M C C
;
_chemical_formula_sum "Si O2"
_cell_formula_units_Z 104
_cell_length_a 20.407859
_cell_length_b 20.407859
_cell_length_c 15.768726
_cell_angle_alpha 90.000000
_cell_angle_beta 90.000000
_cell_angle_gamma 90.000000
_cell_volume 6567.370184
_symmetry_space_group_name_H-M "P 4/M C C"
_symmetry_group_IT_number 124
_symmetry_cell_setting 'tetragonal'
loop_
_space_group_symop_operation_xyz
x,y,z
-y,x,z
-x,-y,z
y,-x,z
x,-y,1/2-z
-x,y,1/2-z
y,x,1/2-z
-y,-x,1/2-z
-x,-y,-z
y,-x,-z
x,y,-z
-y,x,-z
-x,y,1/2+z
x,-y,1/2+z
-y,-x,1/2+z
y,x,1/2+z
loop_
_atom_site_type_symbol
_atom_site_label
_atom_site_fract_x
_atom_site_fract_y
_atom_site_fract_z
Si Si1 0.636746 0.398828 0.161444
Si Si2 0.922336 0.579243 0.246379
Si Si3 0.590328 0.439616 0.500000
Si Si4 0.377560 0.175981 0.598723
Si Si5 0.157878 0.627730 0.096400
Si Si6 0.248181 0.506820 0.850422
Si Si7 0.723286 0.285945 0.100506
O O1 0.599862 0.400139 0.250000
O O2 0.678710 0.464185 0.146182
O O3 0.687701 0.339095 0.158986
O O4 0.589301 0.381578 0.085134
O O5 0.912693 0.500000 0.250000
O O6 0.882571 0.606360 0.164383
O O7 0.892844 0.614369 0.329186
O O8 0.000000 0.590447 0.250000
O O9 0.586379 0.516275 0.500000
O O10 0.376374 0.155095 0.500000
O O11 0.437492 0.228038 0.609995
O O12 0.310174 0.215796 0.618014
O O13 0.205842 0.564370 0.105907
O O14 0.200617 0.693982 0.110162
O O15 0.132186 0.628328 0.000000
O O16 0.233630 0.500000 0.750000
O O17 0.709519 0.299258 0.000000
#
# Coordination Sequence:
#
# PCOD9562461 Si02
#       7
#    16  16   8  16  16  16  16
#     4  11  24  35  55  71  87 119 156 197 259 311
#     4  11  23  37  51  73 103 132 173 213 248 303
#     4  11  28  44  48  58  88 120 157 205 251 319
#     4  11  21  34  55  78 100 126 162 209 256 298
#     4  10  19  35  52  72 101 132 162 202 257 305
#     4  11  20  32  51  75  96 120 155 203 251 306
#     4   9  20  34  51  80 101 119 158 207 251 304
#
# _framework density 15.835867
#
# number of rings (size 3 to 8) (size 9 to 14) (size 15 to 20)
#    0.000    1.462    3.846    1.385    8.615    0.615 
#    0.000    2.308    0.000    0.000    0.000    0.000 
#    0.000    0.000    0.000    0.000    0.000    6.154 
#
# Total GULP energy -579903.696939 kJ/mol
# GULP energy per Si atom -5575.997086 kJ/mol
# Density = 1.579982 g / cm^3
# Si number density = 15.835867 Si / 1000 Ang^3
#
#
#
# Elastic Constant Matrix: (Units=GPa)
#
#
# Indices 1 2 3 4 5 6 
#
# 1 102.4943 17.8567 45.6184 0.0000 0.0000 0.0000
# 2 17.8567 102.4947 45.6180 0.0000 0.0000 0.0000
# 3 45.6184 45.6180 120.6623 0.0000 0.0000 0.0000
# 4 0.0000 0.0000 0.0000 12.3421 0.0000 0.0000
# 5 0.0000 0.0000 0.0000 0.0000 12.3420 0.0000
# 6 0.0000 0.0000 0.0000 0.0000 0.0000 16.3789
#
#
#
# Elastic Compliance Matrix: (Units=1/GPa)
#
#
# Indices 1 2 3 4 5 6 
#
# 1 0.011731 -0.000084 -0.004403 0.000000 0.000000 0.000000
# 2 -0.000084 0.011731 -0.004403 0.000000 0.000000 0.000000
# 3 -0.004403 -0.004403 0.011617 0.000000 0.000000 0.000000
# 4 0.000000 0.000000 0.000000 0.081023 0.000000 0.000000
# 5 0.000000 0.000000 0.000000 0.000000 0.081024 0.000000
# 6 0.000000 0.000000 0.000000 0.000000 0.000000 0.061054
#
#
# Mechanical properties :
#
#
# Convention : Reuss Voigt Hill
#
# Bulk Modulus (GPa) = 57.81049 60.42639 59.11844
# Shear Modulus (GPa) = 17.74757 22.64981 20.19869
#
# Velocity S-wave (km/s) = 3.35135 3.78601 3.57529
# Velocity P-wave (km/s) = 7.18058 7.57315 7.37948
#
# Compressibility (1/GPa) = 0.01729790
#
# Stress axis : x y z
#
# Youngs Moduli (GPa) = 85.24308 85.24392 86.07987
#
# Poissons Ratio (x) = 0.00716 0.37905
# Poissons Ratio (y) = 0.00716 0.37904
# Poissons Ratio (z) = 0.37536 0.37536
#
# Static dielectric constant tensor:
#      x y z
#    x 1.539850 0.000000 0.000000 
#    y 0.000000 1.539850 0.000000 
#    z 0.000000 0.000000 1.625350 
# 
# From -- ./inp_files/3426.got.cif
#   From: 2010.05.17/outbox.cif.g08.bks.cpg/sg124_2_cif.got.tgz:3426.got - 2010.05.20 11:49:17.
