data_PCOD9562376
_publ_section_title
;
Structure prediction by ZEFSAII (Michael W. Deem and Ramdas Pophale) SiO2 
 PCOD9562376
Probable space group: P 4/M C C
;
_chemical_formula_sum "Si O2"
_cell_formula_units_Z 92
_cell_length_a 15.050399
_cell_length_b 15.050399
_cell_length_c 26.079686
_cell_angle_alpha 90.000000
_cell_angle_beta 90.000000
_cell_angle_gamma 90.000000
_cell_volume 5907.427297
_symmetry_space_group_name_H-M "P 4/M C C"
_symmetry_group_IT_number 124
_symmetry_cell_setting 'tetragonal'
loop_
_space_group_symop_operation_xyz
x,y,z
-y,x,z
-x,-y,z
y,-x,z
x,-y,1/2-z
-x,y,1/2-z
y,x,1/2-z
-y,-x,1/2-z
-x,-y,-z
y,-x,-z
x,y,-z
-y,x,-z
-x,y,1/2+z
x,-y,1/2+z
-y,-x,1/2+z
y,x,1/2+z
loop_
_atom_site_type_symbol
_atom_site_label
_atom_site_fract_x
_atom_site_fract_y
_atom_site_fract_z
Si Si1 0.999437 0.148645 0.190227
Si Si2 0.500000 0.500000 0.095730
Si Si3 0.649304 0.836347 0.938477
Si Si4 0.693401 0.203529 0.938970
Si Si5 0.010089 0.278927 0.097233
Si Si6 0.301304 0.492719 0.939044
Si Si7 0.149041 0.995975 0.500000
O O1 0.914354 0.085103 0.181480
O O2 0.000000 0.175039 0.250000
O O3 0.999976 0.228552 0.150714
O O4 0.608984 0.489933 0.091296
O O5 0.737660 0.779477 0.925040
O O6 0.650831 0.931227 0.911107
O O7 0.564810 0.774576 0.927287
O O8 0.650509 0.850371 0.000000
O O9 0.605544 0.262432 0.931310
O O10 0.687275 0.110241 0.910118
O O11 0.699119 0.184433 0.000000
O O12 0.995691 0.208472 0.050838
O O13 0.324187 0.502111 0.000000
O O14 0.083573 0.912000 0.500000
#
# Coordination Sequence:
#
# PCOD9562376 Si02
#       7
#    16   4  16  16  16  16   8
#     4   9  18  32  49  68  89 122 173 224 256 274
#     4  12  17  32  52  72  88 132 181 218 241 272
#     4  10  19  30  43  66  96 131 168 204 242 286
#     4  10  19  30  43  66  96 131 168 204 242 286
#     4  12  20  30  45  66 102 135 156 195 241 298
#     4  10  19  29  48  67  91 128 174 212 244 284
#     4  11  20  28  42  63  88 132 178 193 214 265
#
# _framework density 15.573615
#
# number of rings (size 3 to 8) (size 9 to 14) (size 15 to 20)
#    0.000    1.652    3.478    4.435    0.000    2.087 
#    0.000    2.609    0.000    0.000    0.000    2.435 
#    0.000    0.000    0.000    3.826    0.000    0.348 
#
# Total GULP energy -512453.794093 kJ/mol
# GULP energy per Si atom -5570.149936 kJ/mol
# Density = 1.553817 g / cm^3
# Si number density = 15.573615 Si / 1000 Ang^3
#
#
#
# Elastic Constant Matrix: (Units=GPa)
#
#
# Indices 1 2 3 4 5 6 
#
# 1 45.6312 -13.0343 6.4945 0.0000 0.0000 0.0000
# 2 -13.0343 45.6312 6.4945 0.0000 0.0000 0.0000
# 3 6.4945 6.4945 30.3447 0.0000 0.0000 0.0000
# 4 0.0000 0.0000 0.0000 9.7182 0.0000 0.0000
# 5 0.0000 0.0000 0.0000 0.0000 9.7182 0.0000
# 6 0.0000 0.0000 0.0000 0.0000 0.0000 21.3191
#
#
#
# Elastic Compliance Matrix: (Units=1/GPa)
#
#
# Indices 1 2 3 4 5 6 
#
# 1 0.025292 0.008246 -0.007178 0.000000 0.000000 0.000000
# 2 0.008246 0.025292 -0.007178 0.000000 0.000000 0.000000
# 3 -0.007178 -0.007178 0.036027 0.000000 0.000000 0.000000
# 4 0.000000 0.000000 0.000000 0.102900 0.000000 0.000000
# 5 0.000000 0.000000 0.000000 0.000000 0.102900 0.000000
# 6 0.000000 0.000000 0.000000 0.000000 0.000000 0.046906
#
#
# Mechanical properties :
#
#
# Convention : Reuss Voigt Hill
#
# Bulk Modulus (GPa) = 13.44238 13.50180 13.47209
# Shear Modulus (GPa) = 13.28608 16.26126 14.77367
#
# Velocity S-wave (km/s) = 2.92398 3.23484 3.08333
# Velocity P-wave (km/s) = 4.47770 4.75823 4.62010
#
# Compressibility (1/GPa) = 0.07439156
#
# Stress axis : x y z
#
# Youngs Moduli (GPa) = 39.53835 39.53835 27.75679
#
# Poissons Ratio (x) = -0.32604 0.19924
# Poissons Ratio (y) = -0.32604 0.19924
# Poissons Ratio (z) = 0.28380 0.28380
#
# Static dielectric constant tensor:
#      x y z
#    x 1.536150 0.000000 0.000000 
#    y 0.000000 1.536150 0.000000 
#    z 0.000000 0.000000 1.483980 
# 
# From -- ./inp_files/7221.got.cif
#   From: 2010.05.17/outbox.cif.g08.bks.cpg/sg124_4_cif.got.tgz:7221.got - 2010.05.20 11:49:17.
