data_PCOD9562251
_publ_section_title
;
Structure prediction by ZEFSAII (Michael W. Deem and Ramdas Pophale) SiO2 
 PCOD9562251
Probable space group: P 4/M M M
;
_chemical_formula_sum "Si O2"
_cell_formula_units_Z 88
_cell_length_a 18.189788
_cell_length_b 18.189788
_cell_length_c 14.448057
_cell_angle_alpha 90.000000
_cell_angle_beta 90.000000
_cell_angle_gamma 90.000000
_cell_volume 4780.405322
_symmetry_space_group_name_H-M "P 4/M M M"
_symmetry_group_IT_number 123
_symmetry_cell_setting 'tetragonal'
loop_
_space_group_symop_operation_xyz
x,y,z
-y,x,z
-x,-y,z
y,-x,z
x,-y,-z
-x,y,-z
y,x,-z
-y,-x,-z
-x,-y,-z
y,-x,-z
x,y,-z
-y,x,-z
-x,y,z
x,-y,z
-y,-x,z
y,x,z
loop_
_atom_site_type_symbol
_atom_site_label
_atom_site_fract_x
_atom_site_fract_y
_atom_site_fract_z
Si Si1 0.584090 0.707922 0.300611
Si Si2 0.663595 0.150788 0.389159
Si Si3 0.000000 0.416547 0.387582
Si Si4 0.627061 0.752671 0.102213
Si Si5 0.799647 0.082680 0.295660
Si Si6 0.746113 0.872061 0.102421
O O1 0.500000 0.698083 0.333379
O O2 0.635781 0.635781 0.311234
O O3 0.624953 0.776334 0.350101
O O4 0.582219 0.730335 0.192113
O O5 0.663645 0.154951 0.500000
O O6 0.744921 0.136117 0.351228
O O7 0.621549 0.075952 0.359348
O O8 0.000000 0.500000 0.355456
O O9 0.000000 0.415782 0.500000
O O10 0.692110 0.692110 0.099064
O O11 0.668524 0.830420 0.115970
O O12 0.591909 0.752519 0.000000
O O13 0.879234 0.120767 0.294650
O O14 0.767998 0.081518 0.191127
O O15 0.799858 0.000000 0.333667
O O16 0.807384 0.807384 0.100819
O O17 0.746618 0.906580 0.000000
#
# Coordination Sequence:
#
# PCOD9562251 Si02
#       6
#    16  16   8  16  16  16
#     4  11  23  38  58  85 117 155 197 238 283 338
#     4  11  22  39  61  86 112 142 186 239 295 349
#     4   9  18  34  58  86 112 136 168 221 290 352
#     4   8  14  28  52  80 109 141 181 231 282 331
#     4  11  22  36  56  83 115 151 192 235 282 340
#     4   8  14  28  52  79 107 141 183 231 279 329
#
# _framework density 18.408480999999998
#
# number of rings (size 3 to 8) (size 9 to 14) (size 15 to 20)
#    0.000    2.273    2.727    2.182    0.000    3.636 
#    0.000    0.000    0.000    0.000    0.000    7.636 
#    0.000    5.818    0.000    0.000    0.000    0.000 
#
# Total GULP energy -490282.018700 kJ/mol
# GULP energy per Si atom -5571.386576 kJ/mol
# Density = 1.836658 g / cm^3
# Si number density = 18.408481 Si / 1000 Ang^3
#
#
#
# Elastic Constant Matrix: (Units=GPa)
#
#
# Indices 1 2 3 4 5 6 
#
# 1 102.5605 63.4164 29.6178 0.0000 0.0000 0.0000
# 2 63.4164 102.5605 29.6178 0.0000 0.0000 0.0000
# 3 29.6178 29.6178 67.0149 0.0000 0.0000 0.0000
# 4 0.0000 0.0000 0.0000 15.4770 0.0000 0.0000
# 5 0.0000 0.0000 0.0000 0.0000 15.4770 0.0000
# 6 0.0000 0.0000 0.0000 0.0000 0.0000 16.1387
#
#
#
# Elastic Compliance Matrix: (Units=1/GPa)
#
#
# Indices 1 2 3 4 5 6 
#
# 1 0.016350 -0.009197 -0.003161 0.000000 0.000000 0.000000
# 2 -0.009197 0.016350 -0.003161 0.000000 0.000000 0.000000
# 3 -0.003161 -0.003161 0.017717 0.000000 0.000000 0.000000
# 4 0.000000 0.000000 0.000000 0.064612 0.000000 0.000000
# 5 0.000000 0.000000 0.000000 0.000000 0.064612 0.000000
# 6 0.000000 0.000000 0.000000 0.000000 0.000000 0.061963
#
#
# Mechanical properties :
#
#
# Convention : Reuss Voigt Hill
#
# Bulk Modulus (GPa) = 51.60697 57.49332 54.55015
# Shear Modulus (GPa) = 17.91463 19.38412 18.64937
#
# Velocity S-wave (km/s) = 3.12296 3.24852 3.18635
# Velocity P-wave (km/s) = 6.41085 6.73574 6.57530
#
# Compressibility (1/GPa) = 0.01937723
#
# Stress axis : x y z
#
# Youngs Moduli (GPa) = 61.16242 61.16242 56.44454
#
# Poissons Ratio (x) = 0.56249 0.17845
# Poissons Ratio (y) = 0.56249 0.17845
# Poissons Ratio (z) = 0.19336 0.19336
#
# Static dielectric constant tensor:
#      x y z
#    x 1.630820 0.000000 0.000000 
#    y 0.000000 1.630820 0.000000 
#    z 0.000000 0.000000 1.662470 
# 
# From -- ./inp_files/4112.got.cif
#   From: 2010.05.17/outbox.cif.g08.bks.cpg/sg123_3_cif.got.tgz:4112.got - 2010.05.20 11:43:04.
