data_PCOD9562696
_publ_section_title
;
Structure prediction by ZEFSAII (Michael W. Deem and Ramdas Pophale) SiO2 
 PCOD9562696
Probable space group: P 4/M C C
;
_chemical_formula_sum "Si O2"
_cell_formula_units_Z 40
_cell_length_a 7.126851
_cell_length_b 7.126851
_cell_length_c 28.661985
_cell_angle_alpha 90.000000
_cell_angle_beta 90.000000
_cell_angle_gamma 90.000000
_cell_volume 1455.799690
_symmetry_space_group_name_H-M "P 4/M C C"
_symmetry_group_IT_number 124
_symmetry_cell_setting 'tetragonal'
loop_
_space_group_symop_operation_xyz
x,y,z
-y,x,z
-x,-y,z
y,-x,z
x,-y,1/2-z
-x,y,1/2-z
y,x,1/2-z
-y,-x,1/2-z
-x,-y,-z
y,-x,-z
x,y,-z
-y,x,-z
-x,y,1/2+z
x,-y,1/2+z
-y,-x,1/2+z
y,x,1/2+z
loop_
_atom_site_type_symbol
_atom_site_label
_atom_site_fract_x
_atom_site_fract_y
_atom_site_fract_z
Si Si1 0.274608 0.725393 0.750000
Si Si2 0.322905 0.234155 0.150329
Si Si3 0.133028 0.714142 0.500000
Si Si4 0.500000 0.000000 0.080723
O O1 0.248016 0.500000 0.750000
O O2 0.176647 0.761296 0.799433
O O3 0.551506 0.255055 0.148292
O O4 0.320497 0.080390 0.109891
O O5 0.157013 0.589328 0.453688
O O6 0.910806 0.764312 0.500000
#
# Coordination Sequence:
#
# PCOD9562696 Si02
#       4
#     8  16   8   8
#     4   7  12  26  46  66  96 131 158 197 256 312
#     4   9  17  31  51  75 106 138 173 220 274 323
#     4  10  22  38  52  72 110 148 180 228 282 324
#     4  11  20  32  55  82 102 138 193 229 262 328
#
# _framework density 27.476305
#
# number of rings (size 3 to 8) (size 9 to 14) (size 15 to 20)
#    0.000    2.800    0.000    4.800    0.000    0.000 
#    0.000    9.000    0.000    9.600    0.000    0.000 
#    0.000   38.400    0.000    0.000    0.000    0.000 
#
# Total GULP energy -222755.858219 kJ/mol
# GULP energy per Si atom -5568.896455 kJ/mol
# Density = 2.741377 g / cm^3
# Si number density = 27.476305 Si / 1000 Ang^3
#
#
#
# Elastic Constant Matrix: (Units=GPa)
#
#
# Indices 1 2 3 4 5 6 
#
# 1 93.2899 10.7231 16.0199 0.0000 0.0000 0.0000
# 2 10.7231 93.2889 16.0195 0.0000 0.0000 0.0000
# 3 16.0199 16.0195 196.6718 0.0000 0.0000 0.0000
# 4 0.0000 0.0000 0.0000 -12.5696 0.0000 0.0000
# 5 0.0000 0.0000 0.0000 0.0000 -12.5692 0.0000
# 6 0.0000 0.0000 0.0000 0.0000 0.0000 32.8951
#
#
#
# Elastic Compliance Matrix: (Units=1/GPa)
#
#
# Indices 1 2 3 4 5 6 
#
# 1 0.010987 -0.001125 -0.000803 0.000000 0.000000 0.000000
# 2 -0.001125 0.010987 -0.000803 0.000000 0.000000 0.000000
# 3 -0.000803 -0.000803 0.005215 0.000000 0.000000 0.000000
# 4 0.000000 0.000000 0.000000 -0.079557 0.000000 0.000000
# 5 0.000000 0.000000 0.000000 0.000000 -0.079560 0.000000
# 6 0.000000 0.000000 0.000000 0.000000 0.000000 0.030400
#
#
# Mechanical properties :
#
#
# Convention : Reuss Voigt Hill
#
# Bulk Modulus (GPa) = 46.02841 52.08617 49.05729
# Shear Modulus (GPa) = -56.29138 24.25047 -16.02045
#
# Velocity S-wave (km/s) = -4.53119 2.97407 -2.41729
# Velocity P-wave (km/s) = 3.25380 5.54900 3.17838
#
# Compressibility (1/GPa) = 0.02172571
#
# Stress axis : x y z
#
# Youngs Moduli (GPa) = 91.02072 91.01974 191.73713
#
# Poissons Ratio (x) = 0.10239 0.15402
# Poissons Ratio (y) = 0.10239 0.15402
# Poissons Ratio (z) = 0.07312 0.07311
#
# Static dielectric constant tensor:
#      x y z
#    x 1.416450 0.000000 0.000000 
#    y 0.000000 1.416810 0.000000 
#    z 0.000000 0.000000 2.574220 
# 
# From -- ./inp_files/6342.got.cif
#   From: 2010.05.17/outbox.cif.g08.bks.cpg/sg124_4_cif.got.tgz:6342.got - 2010.05.20 11:49:17.
