data_PCOD9562042
_publ_section_title
;
Structure prediction by ZEFSAII (Michael W. Deem and Ramdas Pophale) SiO2 
 PCOD9562042
Probable space group: P 4/M M M
;
_chemical_formula_sum "Si O2"
_cell_formula_units_Z 72
_cell_length_a 13.559917
_cell_length_b 13.559917
_cell_length_c 23.823036
_cell_angle_alpha 90.000000
_cell_angle_beta 90.000000
_cell_angle_gamma 90.000000
_cell_volume 4380.373768
_symmetry_space_group_name_H-M "P 4/M M M"
_symmetry_group_IT_number 123
_symmetry_cell_setting 'tetragonal'
loop_
_space_group_symop_operation_xyz
x,y,z
-y,x,z
-x,-y,z
y,-x,z
x,-y,-z
-x,y,-z
y,x,-z
-y,-x,-z
-x,-y,-z
y,-x,-z
x,y,-z
-y,x,-z
-x,y,z
x,-y,z
-y,-x,z
y,x,z
loop_
_atom_site_type_symbol
_atom_site_label
_atom_site_fract_x
_atom_site_fract_y
_atom_site_fract_z
Si Si1 0.117543 0.281248 0.500000
Si Si2 0.277516 0.117985 0.290737
Si Si3 0.117905 0.386243 0.824184
Si Si4 0.781140 0.617147 0.606151
Si Si5 0.776984 0.382600 0.938294
O O1 0.178125 0.178125 0.500000
O O2 0.154337 0.341892 0.554284
O O3 0.000000 0.268330 0.500000
O O4 0.174091 0.174091 0.298987
O O5 0.320201 0.143549 0.229271
O O6 0.351370 0.161422 0.337398
O O7 0.269767 0.000000 0.295793
O O8 0.149427 0.500000 0.814210
O O9 0.161384 0.352750 0.883702
O O10 0.000000 0.386296 0.828684
O O11 0.767526 0.500000 0.602700
O O12 0.678632 0.678632 0.605112
O O13 0.764866 0.500000 0.936050
O O14 0.673738 0.326263 0.935585
O O15 0.821564 0.359138 0.000000
#
# Coordination Sequence:
#
# PCOD9562042 Si02
#       5
#     8  16  16  16  16
#     4  10  21  36  54  78 106 136 171 208 246 288
#     4  10  20  33  50  72  97 126 160 197 238 285
#     4   9  17  29  46  67  89 115 149 189 233 279
#     4  10  21  36  54  77 103 131 165 203 243 289
#     4   9  17  28  42  61  86 116 148 183 224 270
#
# _framework density 16.436955000000001
#
# number of rings (size 3 to 8) (size 9 to 14) (size 15 to 20)
#    0.000    2.444    0.000    2.333    0.000    4.333 
#    0.000    3.333    0.000    6.000    0.000    3.111 
#    0.000    0.000    0.000   20.667    0.000    0.444 
#
# Total GULP energy -401198.953802 kJ/mol
# GULP energy per Si atom -5572.207692 kJ/mol
# Density = 1.639954 g / cm^3
# Si number density = 16.436955 Si / 1000 Ang^3
#
#
#
# Elastic Constant Matrix: (Units=GPa)
#
#
# Indices 1 2 3 4 5 6 
#
# 1 82.9578 70.9047 52.5222 0.0000 0.0000 0.0000
# 2 70.9047 82.9578 52.5222 0.0000 0.0000 0.0000
# 3 52.5222 52.5222 139.8688 0.0000 0.0000 0.0000
# 4 0.0000 0.0000 0.0000 22.0779 0.0000 0.0000
# 5 0.0000 0.0000 0.0000 0.0000 22.0779 0.0000
# 6 0.0000 0.0000 0.0000 0.0000 0.0000 14.4026
#
#
#
# Elastic Compliance Matrix: (Units=1/GPa)
#
#
# Indices 1 2 3 4 5 6 
#
# 1 0.045853 -0.037113 -0.003282 0.000000 0.000000 0.000000
# 2 -0.037113 0.045853 -0.003282 0.000000 0.000000 0.000000
# 3 -0.003282 -0.003282 0.009614 0.000000 0.000000 0.000000
# 4 0.000000 0.000000 0.000000 0.045294 0.000000 0.000000
# 5 0.000000 0.000000 0.000000 0.000000 0.045294 0.000000
# 6 0.000000 0.000000 0.000000 0.000000 0.000000 0.069432
#
#
# Mechanical properties :
#
#
# Convention : Reuss Voigt Hill
#
# Bulk Modulus (GPa) = 71.59997 73.07585 72.33791
# Shear Modulus (GPa) = 14.15030 20.36738 17.25884
#
# Velocity S-wave (km/s) = 2.93726 3.52393 3.24389
# Velocity P-wave (km/s) = 7.42686 7.81743 7.62465
#
# Compressibility (1/GPa) = 0.01396649
#
# Stress axis : x y z
#
# Youngs Moduli (GPa) = 21.80888 21.80888 104.01107
#
# Poissons Ratio (x) = 0.80939 0.34136
# Poissons Ratio (y) = 0.80939 0.34136
# Poissons Ratio (z) = 0.07158 0.07158
#
# Static dielectric constant tensor:
#      x y z
#    x 1.530260 0.000000 0.000000 
#    y 0.000000 1.530260 0.000000 
#    z 0.000000 0.000000 1.577210 
# 
# From -- ./inp_files/7808.got.cif
#   From: 2010.05.17/outbox.cif.g08.bks.cpg/sg123_4_cif.got.tgz:7808.got - 2010.05.20 11:43:04.
