data_PCOD9562991
_publ_section_title
;
Structure prediction by ZEFSAII (Michael W. Deem and Ramdas Pophale) SiO2 
 PCOD9562991
Probable space group: P 4/N B M
;
_chemical_formula_sum "Si O2"
_cell_formula_units_Z 96
_cell_length_a 23.593083
_cell_length_b 23.593083
_cell_length_c 9.518446
_cell_angle_alpha 90.000000
_cell_angle_beta 90.000000
_cell_angle_gamma 90.000000
_cell_volume 5298.286534
_symmetry_space_group_name_H-M "P 4/N B M"
_symmetry_group_IT_number 125
_space_group.IT_coordinate_system_code '2'
_symmetry_cell_setting 'tetragonal'
loop_
_space_group_symop_operation_xyz
x,y,z
1/2-y,x,z
1/2-x,1/2-y,z
y,1/2-x,z
x,1/2-y,-z
1/2-x,y,-z
y,x,-z
1/2-y,1/2-x,-z
-x,-y,-z
1/2+y,-x,-z
1/2+x,1/2+y,-z
-y,1/2+x,-z
-x,1/2+y,z
1/2+x,-y,z
-y,-x,z
1/2+y,1/2+x,z
loop_
_atom_site_type_symbol
_atom_site_label
_atom_site_fract_x
_atom_site_fract_y
_atom_site_fract_z
Si Si1 0.947624 0.052377 0.629334
Si Si2 0.371922 0.354967 0.147207
Si Si3 0.493393 0.733672 0.647586
Si Si4 0.193694 0.381889 0.421335
Si Si5 0.351283 0.489262 0.196166
Si Si6 0.958164 0.041837 0.306606
Si Si7 0.351133 0.994609 0.127139
O O1 0.974022 0.107083 0.706049
O O2 0.938143 0.061858 0.462194
O O3 0.995232 0.004769 0.656634
O O4 0.352828 0.315143 0.272003
O O5 0.368230 0.422469 0.181834
O O6 0.438080 0.340801 0.127977
O O7 0.343246 0.343246 0.000000
O O8 0.463466 0.750000 0.500000
O O9 0.550476 0.700573 0.596260
O O10 0.510816 0.790328 0.729742
O O11 0.466021 0.694921 0.769119
O O12 0.250000 0.362481 0.500000
O O13 0.136543 0.363458 0.500000
O O14 0.350936 0.517304 0.039610
O O15 0.984056 0.090476 0.208274
#
# Coordination Sequence:
#
# PCOD9562991 Si02
#       7
#     8  16  16  16  16   8  16
#     4  11  23  33  55  81 111 146 175 232 285 349
#     4   9  18  31  50  73  99 129 170 220 274 331
#     4  10  20  34  52  75 103 139 182 228 273 332
#     4  10  20  34  50  71  95 131 176 230 282 333
#     4  11  20  35  53  77 106 142 182 223 280 339
#     4  11  21  35  49  81 113 140 181 224 287 337
#     4  10  20  33  52  75 107 143 180 223 271 339
#
# _framework density 18.119066
#
# number of rings (size 3 to 8) (size 9 to 14) (size 15 to 20)
#    0.000    1.833    1.667    4.000    0.000    2.167 
#    0.000    2.500    0.000    0.000    0.000   11.667 
#    0.000    0.667    0.000    6.667    0.000    4.000 
#
# Total GULP energy -534514.708401 kJ/mol
# GULP energy per Si atom -5567.861546 kJ/mol
# Density = 1.807783 g / cm^3
# Si number density = 18.119066 Si / 1000 Ang^3
#
#
#
# Elastic Constant Matrix: (Units=GPa)
#
#
# Indices 1 2 3 4 5 6 
#
# 1 27.2728 2.6476 16.4176 0.0000 0.0000 0.0000
# 2 2.6476 27.2729 16.4092 0.0000 0.0000 0.0000
# 3 16.4176 16.4092 161.4158 0.0000 0.0000 0.0000
# 4 0.0000 0.0000 0.0000 -4.1218 0.0000 0.0000
# 5 0.0000 0.0000 0.0000 0.0000 -4.1148 0.0000
# 6 0.0000 0.0000 0.0000 0.0000 0.0000 7.5926
#
#
#
# Elastic Compliance Matrix: (Units=1/GPa)
#
#
# Indices 1 2 3 4 5 6 
#
# 1 0.039115 -0.001495 -0.003826 0.000000 0.000000 0.000000
# 2 -0.001495 0.039112 -0.003824 0.000000 0.000000 0.000000
# 3 -0.003826 -0.003824 0.006973 0.000000 0.000000 0.000000
# 4 0.000000 0.000000 0.000000 -0.242614 0.000000 0.000000
# 5 0.000000 0.000000 0.000000 0.000000 -0.243027 0.000000
# 6 0.000000 0.000000 0.000000 0.000000 0.000000 0.131708
#
#
# Mechanical properties :
#
#
# Convention : Reuss Voigt Hill
#
# Bulk Modulus (GPa) = 14.94551 31.87891 23.41221
# Shear Modulus (GPa) = -21.91655 11.90368 -5.00644
#
# Velocity S-wave (km/s) = -3.48168 2.56592 -1.66405
# Velocity P-wave (km/s) = 2.81005 5.13916 3.04258
#
# Compressibility (1/GPa) = 0.06690971
#
# Stress axis : x y z
#
# Youngs Moduli (GPa) = 25.56556 25.56741 143.40809
#
# Poissons Ratio (x) = 0.03822 0.54874
# Poissons Ratio (y) = 0.03822 0.54839
# Poissons Ratio (z) = 0.09782 0.09777
#
# Static dielectric constant tensor:
#      x y z
#    x 1.625720 0.000000 0.000000 
#    y 0.000000 1.625730 0.000000 
#    z 0.000000 0.000000 1.747750 
# 
# From -- ./inp_files/2930.got.cif
#   From: 2010.05.17/outbox.cif.g08.bks.cpg/sg125_2_cif.got.tgz:2930.got - 2010.05.20 11:54:10.
