data_PCOD9562498
_publ_section_title
;
Structure prediction by ZEFSAII (Michael W. Deem and Ramdas Pophale) SiO2 
 PCOD9562498
Probable space group: P 4/M C C
;
_chemical_formula_sum "Si O2"
_cell_formula_units_Z 80
_cell_length_a 19.399761
_cell_length_b 19.399761
_cell_length_c 14.720959
_cell_angle_alpha 90.000000
_cell_angle_beta 90.000000
_cell_angle_gamma 90.000000
_cell_volume 5540.243620
_symmetry_space_group_name_H-M "P 4/M C C"
_symmetry_group_IT_number 124
_symmetry_cell_setting 'tetragonal'
loop_
_space_group_symop_operation_xyz
x,y,z
-y,x,z
-x,-y,z
y,-x,z
x,-y,1/2-z
-x,y,1/2-z
y,x,1/2-z
-y,-x,1/2-z
-x,-y,-z
y,-x,-z
x,y,-z
-y,x,-z
-x,y,1/2+z
x,-y,1/2+z
-y,-x,1/2+z
y,x,1/2+z
loop_
_atom_site_type_symbol
_atom_site_label
_atom_site_fract_x
_atom_site_fract_y
_atom_site_fract_z
Si Si1 0.692696 0.580484 0.357900
Si Si2 0.692696 0.419516 0.357900
Si Si3 0.666067 0.222014 0.500000
Si Si4 0.666067 0.777986 0.500000
Si Si5 0.917315 0.500000 0.351093
Si Si6 0.918373 0.614628 0.000000
Si Si7 0.385372 0.918373 0.500000
O O1 0.690424 0.500000 0.383231
O O2 0.620814 0.620814 0.375968
O O3 0.705686 0.584778 0.250000
O O4 0.749714 0.621824 0.414573
O O5 0.749714 0.378176 0.414573
O O6 0.737911 0.262089 0.500000
O O7 0.672351 0.139895 0.500000
O O8 0.672351 0.860105 0.500000
O O9 0.886396 0.500000 0.250000
O O10 0.902876 0.433506 0.412575
O O11 0.902876 0.566494 0.412575
O O12 0.000000 0.500000 0.342306
O O13 0.000000 0.632064 0.000000
#
# Coordination Sequence:
#
# PCOD9562498 Si02
#       7
#    16  16   8   8  16   8   8
#     4   9  18  30  43  59  78 105 141 177 213 249
#     4   9  18  30  43  59  78 105 141 177 213 249
#     4  10  20  32  43  58  84 110 133 166 210 253
#     4  10  20  32  43  58  84 110 133 166 210 253
#     4   8  15  27  42  63  87 106 129 165 205 238
#     4   9  18  30  44  63  83 105 138 171 199 242
#     4   9  18  30  44  63  83 105 138 171 199 242
#
# _framework density 14.439799000000001
#
# number of rings (size 3 to 8) (size 9 to 14) (size 15 to 20)
#    0.000    3.000    0.000    1.800    5.600    2.000 
#    0.000    2.000    0.000    3.600    0.000    0.000 
#    0.000    0.400    0.000    0.000    0.000    0.000 
#
# Total GULP energy -445491.702532 kJ/mol
# GULP energy per Si atom -5568.646282 kJ/mol
# Density = 1.440693 g / cm^3
# Si number density = 14.439799 Si / 1000 Ang^3
#
#
#
# Elastic Constant Matrix: (Units=GPa)
#
#
# Indices 1 2 3 4 5 6 
#
# 1 92.6542 36.0743 18.4242 0.0000 0.0000 0.0000
# 2 36.0743 92.6542 18.4242 0.0000 0.0000 0.0000
# 3 18.4242 18.4242 77.2278 0.0000 0.0000 0.0000
# 4 0.0000 0.0000 0.0000 7.1928 0.0000 0.0000
# 5 0.0000 0.0000 0.0000 0.0000 7.1928 0.0000
# 6 0.0000 0.0000 0.0000 0.0000 0.0000 14.5416
#
#
#
# Elastic Compliance Matrix: (Units=1/GPa)
#
#
# Indices 1 2 3 4 5 6 
#
# 1 0.013006 -0.004668 -0.001989 0.000000 0.000000 0.000000
# 2 -0.004668 0.013006 -0.001989 0.000000 0.000000 0.000000
# 3 -0.001989 -0.001989 0.013898 0.000000 0.000000 0.000000
# 4 0.000000 0.000000 0.000000 0.139028 0.000000 0.000000
# 5 0.000000 0.000000 0.000000 0.000000 0.139028 0.000000
# 6 0.000000 0.000000 0.000000 0.000000 0.000000 0.068768
#
#
# Mechanical properties :
#
#
# Convention : Reuss Voigt Hill
#
# Bulk Modulus (GPa) = 44.21514 45.37572 44.79543
# Shear Modulus (GPa) = 12.14872 18.42634 15.28753
#
# Velocity S-wave (km/s) = 2.90373 3.57610 3.25731
# Velocity P-wave (km/s) = 6.47526 6.96732 6.72579
#
# Compressibility (1/GPa) = 0.02261669
#
# Stress axis : x y z
#
# Youngs Moduli (GPa) = 76.88815 76.88815 71.95387
#
# Poissons Ratio (x) = 0.35893 0.14312
# Poissons Ratio (y) = 0.35893 0.14312
# Poissons Ratio (z) = 0.15294 0.15294
#
# Static dielectric constant tensor:
#      x y z
#    x 1.469850 0.000000 0.000000 
#    y 0.000000 1.469850 0.000000 
#    z 0.000000 0.000000 1.536710 
# 
# From -- ./inp_files/3171.got.cif
#   From: 2010.05.17/outbox.cif.g08.bks.cpg/sg124_2_cif.got.tgz:3171.got - 2010.05.20 11:49:17.
