data_PCOD9562618
_publ_section_title
;
Structure prediction by ZEFSAII (Michael W. Deem and Ramdas Pophale) SiO2 
 PCOD9562618
Probable space group: P 4/M C C
;
_chemical_formula_sum "Si O2"
_cell_formula_units_Z 96
_cell_length_a 14.482595
_cell_length_b 14.482595
_cell_length_c 19.017444
_cell_angle_alpha 90.000000
_cell_angle_beta 90.000000
_cell_angle_gamma 90.000000
_cell_volume 3988.824402
_symmetry_space_group_name_H-M "P 4/M C C"
_symmetry_group_IT_number 124
_symmetry_cell_setting 'tetragonal'
loop_
_space_group_symop_operation_xyz
x,y,z
-y,x,z
-x,-y,z
y,-x,z
x,-y,1/2-z
-x,y,1/2-z
y,x,1/2-z
-y,-x,1/2-z
-x,-y,-z
y,-x,-z
x,y,-z
-y,x,-z
-x,y,1/2+z
x,-y,1/2+z
-y,-x,1/2+z
y,x,1/2+z
loop_
_atom_site_type_symbol
_atom_site_label
_atom_site_fract_x
_atom_site_fract_y
_atom_site_fract_z
Si Si1 0.360360 0.566507 0.574943
Si Si2 0.535358 0.791110 0.670022
Si Si3 0.192034 0.206758 0.000000
Si Si4 0.928467 0.860953 0.127675
Si Si5 0.332388 0.165806 0.124795
Si Si6 0.979508 0.609869 0.168811
Si Si7 0.805127 0.194874 0.250000
O O1 0.384064 0.458053 0.575578
O O2 0.311942 0.587479 0.500000
O O3 0.301323 0.583465 0.643688
O O4 0.500000 0.793689 0.750000
O O5 0.439906 0.805234 0.626745
O O6 0.608728 0.871476 0.654708
O O7 0.112149 0.192969 0.938444
O O8 0.273046 0.205374 0.938245
O O9 0.894082 0.812493 0.198900
O O10 0.037385 0.880221 0.125979
O O11 0.282296 0.192026 0.198111
O O12 0.335781 0.053353 0.122759
O O13 0.000000 0.500000 0.161425
O O14 0.000000 0.631096 0.250000
#
# Coordination Sequence:
#
# PCOD9562618 Si02
#       7
#    16  16   8  16  16  16   8
#     4   9  21  43  69  95 131 174 216 269 338 414
#     4  11  21  39  68  95 127 173 220 271 330 402
#     4  10  22  37  55  88 124 169 207 287 340 378
#     4  10  20  38  62  84 117 169 231 277 331 405
#     4  10  22  38  60  89 136 172 221 274 339 404
#     4   9  16  37  59  85 122 173 214 260 329 404
#     4  10  22  37  58  94 126 169 218 290 342 382
#
# _framework density 24.067240000000002
#
# number of rings (size 3 to 8) (size 9 to 14) (size 15 to 20)
#    0.000    2.167    3.333    1.500    1.167    6.000 
#    1.500    2.083    0.000    0.000    0.000    0.000 
#    0.000    0.000    0.000    0.000    0.000    0.000 
#
# Total GULP energy -535114.648648 kJ/mol
# GULP energy per Si atom -5574.110923 kJ/mol
# Density = 2.401246 g / cm^3
# Si number density = 24.067240 Si / 1000 Ang^3
#
#
#
# Elastic Constant Matrix: (Units=GPa)
#
#
# Indices 1 2 3 4 5 6 
#
# 1 111.3131 -3.3786 33.5632 0.0000 0.0000 0.0000
# 2 -3.3786 111.3130 33.5632 0.0000 0.0000 0.0000
# 3 33.5632 33.5632 113.1789 0.0000 0.0000 0.0000
# 4 0.0000 0.0000 0.0000 25.9440 0.0000 0.0000
# 5 0.0000 0.0000 0.0000 0.0000 25.9444 0.0000
# 6 0.0000 0.0000 0.0000 0.0000 0.0000 5.4666
#
#
#
# Elastic Compliance Matrix: (Units=1/GPa)
#
#
# Indices 1 2 3 4 5 6 
#
# 1 0.010040 0.001320 -0.003369 0.000000 0.000000 0.000000
# 2 0.001320 0.010040 -0.003369 0.000000 0.000000 0.000000
# 3 -0.003369 -0.003369 0.010834 0.000000 0.000000 0.000000
# 4 0.000000 0.000000 0.000000 0.038545 0.000000 0.000000
# 5 0.000000 0.000000 0.000000 0.000000 0.038544 0.000000
# 6 0.000000 0.000000 0.000000 0.000000 0.000000 0.182930
#
#
# Mechanical properties :
#
#
# Convention : Reuss Voigt Hill
#
# Bulk Modulus (GPa) = 49.80481 51.47785 50.64133
# Shear Modulus (GPa) = 16.20964 29.60814 22.90889
#
# Velocity S-wave (km/s) = 2.59803 3.51126 3.08859
# Velocity P-wave (km/s) = 5.45332 6.15420 5.81433
#
# Compressibility (1/GPa) = 0.02007838
#
# Stress axis : x y z
#
# Youngs Moduli (GPa) = 99.60647 99.60630 92.30535
#
# Poissons Ratio (x) = -0.13153 0.31096
# Poissons Ratio (y) = -0.13153 0.31096
# Poissons Ratio (z) = 0.33555 0.33556
#
# Static dielectric constant tensor:
#      x y z
#    x 2.003060 0.000000 0.000000 
#    y 0.000000 2.003060 0.000000 
#    z 0.000000 0.000000 1.859730 
# 
# From -- ./inp_files/4306.got.cif
#   From: 2010.05.17/outbox.cif.g08.bks.cpg/sg124_3_cif.got.tgz:4306.got - 2010.05.20 11:49:17.
