data_PCOD9562639
_publ_section_title
;
Structure prediction by ZEFSAII (Michael W. Deem and Ramdas Pophale) SiO2 
 PCOD9562639
Probable space group: P 4/M C C
;
_chemical_formula_sum "Si O2"
_cell_formula_units_Z 72
_cell_length_a 14.563473
_cell_length_b 14.563473
_cell_length_c 17.975386
_cell_angle_alpha 90.000000
_cell_angle_beta 90.000000
_cell_angle_gamma 90.000000
_cell_volume 3812.484925
_symmetry_space_group_name_H-M "P 4/M C C"
_symmetry_group_IT_number 124
_symmetry_cell_setting 'tetragonal'
loop_
_space_group_symop_operation_xyz
x,y,z
-y,x,z
-x,-y,z
y,-x,z
x,-y,1/2-z
-x,y,1/2-z
y,x,1/2-z
-y,-x,1/2-z
-x,-y,-z
y,-x,-z
x,y,-z
-y,x,-z
-x,y,1/2+z
x,-y,1/2+z
-y,-x,1/2+z
y,x,1/2+z
loop_
_atom_site_type_symbol
_atom_site_label
_atom_site_fract_x
_atom_site_fract_y
_atom_site_fract_z
Si Si1 0.637535 0.425256 0.500000
Si Si2 0.847074 0.233152 0.817213
Si Si3 0.151854 0.024287 0.084193
Si Si4 0.668484 0.796711 0.416099
Si Si5 0.106367 0.600326 0.725431
O O1 0.620895 0.535693 0.500000
O O2 0.702355 0.389157 0.431496
O O3 0.840096 0.159905 0.750000
O O4 0.945557 0.226107 0.856717
O O5 0.766627 0.223087 0.877732
O O6 0.836977 0.327320 0.773738
O O7 0.071872 0.100998 0.093739
O O8 0.185807 0.029759 0.000000
O O9 0.682418 0.834302 0.500000
O O10 0.618818 0.867408 0.360386
O O11 0.134864 0.500000 0.750000
O O12 0.000000 0.610348 0.750000
#
# Coordination Sequence:
#
# PCOD9562639 Si02
#       5
#     8  16  16  16  16
#     4   9  20  38  68  97 121 146 197 264 328 370
#     4  10  21  34  55  81 112 156 196 243 303 350
#     4   9  19  34  52  78 112 149 194 249 294 344
#     4   9  21  38  63  89 120 155 203 252 303 373
#     4  10  23  41  59  85 124 163 203 250 303 360
#
# _framework density 18.885318999999999
#
# number of rings (size 3 to 8) (size 9 to 14) (size 15 to 20)
#    0.667    1.889    0.000    1.333    9.333    0.000 
#    0.000    5.556    0.000    0.000    0.000    0.000 
#    0.000    0.000    0.000    0.000    0.000    0.000 
#
# Total GULP energy -400938.901508 kJ/mol
# GULP energy per Si atom -5568.595854 kJ/mol
# Density = 1.884234 g / cm^3
# Si number density = 18.885319 Si / 1000 Ang^3
#
#
#
# Elastic Constant Matrix: (Units=GPa)
#
#
# Indices 1 2 3 4 5 6 
#
# 1 53.0947 11.2581 34.2293 0.0000 0.0000 0.0000
# 2 11.2581 53.0945 34.2289 0.0000 0.0000 0.0000
# 3 34.2293 34.2289 137.6848 0.0000 0.0000 0.0000
# 4 0.0000 0.0000 0.0000 19.8433 0.0000 0.0000
# 5 0.0000 0.0000 0.0000 0.0000 19.8438 0.0000
# 6 0.0000 0.0000 0.0000 0.0000 0.0000 25.0181
#
#
#
# Elastic Compliance Matrix: (Units=1/GPa)
#
#
# Indices 1 2 3 4 5 6 
#
# 1 0.022515 -0.001388 -0.005252 0.000000 0.000000 0.000000
# 2 -0.001388 0.022515 -0.005252 0.000000 0.000000 0.000000
# 3 -0.005252 -0.005252 0.009874 0.000000 0.000000 0.000000
# 4 0.000000 0.000000 0.000000 0.050395 0.000000 0.000000
# 5 0.000000 0.000000 0.000000 0.000000 0.050394 0.000000
# 6 0.000000 0.000000 0.000000 0.000000 0.000000 0.039971
#
#
# Mechanical properties :
#
#
# Convention : Reuss Voigt Hill
#
# Bulk Modulus (GPa) = 32.13481 44.81184 38.47332
# Shear Modulus (GPa) = 21.75609 23.88489 22.82049
#
# Velocity S-wave (km/s) = 3.39781 3.56017 3.47994
# Velocity P-wave (km/s) = 5.69616 6.37806 6.04673
#
# Compressibility (1/GPa) = 0.03111890
#
# Stress axis : x y z
#
# Youngs Moduli (GPa) = 44.41561 44.41562 101.27210
#
# Poissons Ratio (x) = 0.06165 0.53190
# Poissons Ratio (y) = 0.06165 0.53189
# Poissons Ratio (z) = 0.23328 0.23328
#
# Static dielectric constant tensor:
#      x y z
#    x 1.682930 0.000000 0.000000 
#    y 0.000000 1.682930 0.000000 
#    z 0.000000 0.000000 1.676840 
# 
# From -- ./inp_files/4041.got.cif
#   From: 2010.05.17/outbox.cif.g08.bks.cpg/sg124_3_cif.got.tgz:4041.got - 2010.05.20 11:49:17.
