data_PCOD9562183
_publ_section_title
;
Structure prediction by ZEFSAII (Michael W. Deem and Ramdas Pophale) SiO2 
 PCOD9562183
Probable space group: P 4/M M M
;
_chemical_formula_sum "Si O2"
_cell_formula_units_Z 72
_cell_length_a 20.602056
_cell_length_b 20.602056
_cell_length_c 7.651852
_cell_angle_alpha 90.000000
_cell_angle_beta 90.000000
_cell_angle_gamma 90.000000
_cell_volume 3247.788114
_symmetry_space_group_name_H-M "P 4/M M M"
_symmetry_group_IT_number 123
_symmetry_cell_setting 'tetragonal'
loop_
_space_group_symop_operation_xyz
x,y,z
-y,x,z
-x,-y,z
y,-x,z
x,-y,-z
-x,y,-z
y,x,-z
-y,-x,-z
-x,-y,-z
y,-x,-z
x,y,-z
-y,x,-z
-x,y,z
x,-y,z
-y,-x,z
y,x,z
loop_
_atom_site_type_symbol
_atom_site_label
_atom_site_fract_x
_atom_site_fract_y
_atom_site_fract_z
Si Si1 0.175852 0.928541 0.213364
Si Si2 0.500000 0.745255 0.312182
Si Si3 0.679410 0.892840 0.785993
Si Si4 0.249121 0.352315 0.206977
Si Si5 0.607104 0.500000 0.797753
Si Si6 0.000000 0.424639 0.786469
O O1 0.129152 0.870848 0.273588
O O2 0.250751 0.920351 0.266942
O O3 0.152442 0.000000 0.265462
O O4 0.175980 0.926412 0.000000
O O5 0.500000 0.778012 0.500000
O O6 0.429883 0.756409 0.228877
O O7 0.500000 0.667652 0.322991
O O8 0.675161 0.818703 0.723754
O O9 0.618418 0.937461 0.732587
O O10 0.678134 0.892691 0.000000
O O11 0.312759 0.312759 0.274843
O O12 0.249566 0.342019 0.000000
O O13 0.562068 0.562068 0.773834
O O14 0.629737 0.500000 0.000000
O O15 0.000000 0.500000 0.728600
O O16 0.000000 0.426243 0.000000
#
# Coordination Sequence:
#
# PCOD9562183 Si02
#       6
#    16   8  16  16   8   8
#     4   9  15  23  36  57  91 133 171 208 251 302
#     4  12  25  37  51  73 103 136 170 212 269 326
#     4   9  16  28  45  68  98 132 169 212 264 313
#     4  10  21  36  55  78 103 136 180 226 268 313
#     4   9  18  34  56  78  99 127 165 208 254 307
#     4   9  16  24  40  68  99 127 161 211 266 311
#
# _framework density 22.168932999999999
#
# number of rings (size 3 to 8) (size 9 to 14) (size 15 to 20)
#    0.000    2.444    1.111    2.667    1.556    6.444 
#    0.000    1.667    0.000    0.000    0.000    1.556 
#    0.000    0.000    0.000    0.000    0.000    0.222 
#
# Total GULP energy -401530.518443 kJ/mol
# GULP energy per Si atom -5576.812756 kJ/mol
# Density = 2.211848 g / cm^3
# Si number density = 22.168933 Si / 1000 Ang^3
#
#
#
# Elastic Constant Matrix: (Units=GPa)
#
#
# Indices 1 2 3 4 5 6 
#
# 1 144.5943 74.8692 4.5493 0.0000 0.0000 0.0000
# 2 74.8692 144.5943 4.5493 0.0000 0.0000 0.0000
# 3 4.5493 4.5493 23.9414 0.0000 0.0000 0.0000
# 4 0.0000 0.0000 0.0000 -8.2502 0.0000 0.0000
# 5 0.0000 0.0000 0.0000 0.0000 -8.2502 0.0000
# 6 0.0000 0.0000 0.0000 0.0000 0.0000 78.1319
#
#
#
# Elastic Compliance Matrix: (Units=1/GPa)
#
#
# Indices 1 2 3 4 5 6 
#
# 1 0.009467 -0.004875 -0.000873 0.000000 0.000000 0.000000
# 2 -0.004875 0.009467 -0.000873 0.000000 0.000000 0.000000
# 3 -0.000873 -0.000873 0.042100 0.000000 0.000000 0.000000
# 4 0.000000 0.000000 0.000000 -0.121209 0.000000 0.000000
# 5 0.000000 0.000000 0.000000 0.000000 -0.121209 0.000000
# 6 0.000000 0.000000 0.000000 0.000000 0.000000 0.012799
#
#
# Mechanical properties :
#
#
# Convention : Reuss Voigt Hill
#
# Bulk Modulus (GPa) = 20.92270 53.45175 37.18723
# Shear Modulus (GPa) = -35.86488 27.60377 -4.13055
#
# Velocity S-wave (km/s) = -4.02655 3.53250 -1.36648
# Velocity P-wave (km/s) = 3.48700 6.38761 3.78434
#
# Compressibility (1/GPa) = 0.04779497
#
# Stress axis : x y z
#
# Youngs Moduli (GPa) = 105.62578 105.62578 23.75280
#
# Poissons Ratio (x) = 0.51489 0.02073
# Poissons Ratio (y) = 0.51489 0.02073
# Poissons Ratio (z) = 0.09218 0.09218
#
# Static dielectric constant tensor:
#      x y z
#    x 1.949950 0.000000 0.000000 
#    y 0.000000 1.949950 0.000000 
#    z 0.000000 0.000000 1.981510 
# 
# From -- ./inp_files/1166.got.cif
#   From: 2010.05.17/outbox.cif.g08.bks.cpg/sg123_1_cif.got.tgz:1166.got - 2010.05.20 11:43:04.
