data_PCOD9562822
_publ_section_title
;
Structure prediction by ZEFSAII (Michael W. Deem and Ramdas Pophale) SiO2 
 PCOD9562822
Probable space group: P 4/M C C
;
_chemical_formula_sum "Si O2"
_cell_formula_units_Z 48
_cell_length_a 10.599135
_cell_length_b 10.599135
_cell_length_c 21.310206
_cell_angle_alpha 90.000000
_cell_angle_beta 90.000000
_cell_angle_gamma 90.000000
_cell_volume 2394.023976
_symmetry_space_group_name_H-M "P 4/M C C"
_symmetry_group_IT_number 124
_symmetry_cell_setting 'tetragonal'
loop_
_space_group_symop_operation_xyz
x,y,z
-y,x,z
-x,-y,z
y,-x,z
x,-y,1/2-z
-x,y,1/2-z
y,x,1/2-z
-y,-x,1/2-z
-x,-y,-z
y,-x,-z
x,y,-z
-y,x,-z
-x,y,1/2+z
x,-y,1/2+z
-y,-x,1/2+z
y,x,1/2+z
loop_
_atom_site_type_symbol
_atom_site_label
_atom_site_fract_x
_atom_site_fract_y
_atom_site_fract_z
Si Si1 0.489557 0.711396 0.000000
Si Si2 0.446453 0.141843 0.372234
Si Si3 0.500000 0.710550 0.750000
Si Si4 0.168207 0.875481 0.175872
O O1 0.372624 0.614905 0.000000
O O2 0.482193 0.793172 0.937228
O O3 0.509117 0.206224 0.311905
O O4 0.296506 0.163875 0.358526
O O5 0.500000 0.000000 0.373646
O O6 0.380069 0.619932 0.750000
O O7 0.165165 0.834835 0.250000
O O8 0.026201 0.831814 0.160793
#
# Coordination Sequence:
#
# PCOD9562822 Si02
#       4
#     8  16   8  16
#     4  11  27  50  70  91 134 186 224 281 351 408
#     4  12  26  41  70 103 132 176 231 283 338 405
#     4  11  25  42  66 102 139 179 224 282 342 403
#     4   9  21  40  65  97 137 179 214 271 346 399
#
# _framework density 20.049923
#
# number of rings (size 3 to 8) (size 9 to 14) (size 15 to 20)
#    0.000    1.333    0.000    5.000   18.667    2.667 
#    0.000    0.000    0.000    2.000    0.000    0.000 
#    0.000    0.000    0.000    0.000    0.000    0.000 
#
# Total GULP energy -267802.581169 kJ/mol
# GULP energy per Si atom -5579.220441 kJ/mol
# Density = 2.000429 g / cm^3
# Si number density = 20.049923 Si / 1000 Ang^3
#
#
#
# Elastic Constant Matrix: (Units=GPa)
#
#
# Indices 1 2 3 4 5 6 
#
# 1 113.2323 60.5138 84.4209 0.0000 0.0000 0.0000
# 2 60.5138 113.2321 84.4212 0.0000 0.0000 0.0000
# 3 84.4209 84.4212 188.3517 0.0000 0.0000 0.0000
# 4 0.0000 0.0000 0.0000 19.5159 0.0000 0.0000
# 5 0.0000 0.0000 0.0000 0.0000 19.4966 0.0000
# 6 0.0000 0.0000 0.0000 0.0000 0.0000 14.2558
#
#
#
# Elastic Compliance Matrix: (Units=1/GPa)
#
#
# Indices 1 2 3 4 5 6 
#
# 1 0.014583 -0.004386 -0.004570 0.000000 0.000000 0.000000
# 2 -0.004386 0.014583 -0.004570 0.000000 0.000000 0.000000
# 3 -0.004570 -0.004570 0.009406 0.000000 0.000000 0.000000
# 4 0.000000 0.000000 0.000000 0.051240 0.000000 0.000000
# 5 0.000000 0.000000 0.000000 0.000000 0.051291 0.000000
# 6 0.000000 0.000000 0.000000 0.000000 0.000000 0.070147
#
#
# Mechanical properties :
#
#
# Convention : Reuss Voigt Hill
#
# Bulk Modulus (GPa) = 86.81650 97.05867 91.93758
# Shear Modulus (GPa) = 20.64899 23.01767 21.83333
#
# Velocity S-wave (km/s) = 3.21265 3.39192 3.30350
# Velocity P-wave (km/s) = 7.56014 7.99085 7.77848
#
# Compressibility (1/GPa) = 0.01151855
#
# Stress axis : x y z
#
# Youngs Moduli (GPa) = 68.57421 68.57378 106.31334
#
# Poissons Ratio (x) = 0.30076 0.48588
# Poissons Ratio (y) = 0.30076 0.48589
# Poissons Ratio (z) = 0.31340 0.31341
#
# Static dielectric constant tensor:
#      x y z
#    x 1.732020 0.000000 0.000000 
#    y 0.000000 1.732020 0.000000 
#    z 0.000000 0.000000 1.638790 
# 
# From -- ./inp_files/4777.got.cif
#   From: 2010.05.17/outbox.cif.g08.bks.cpg/sg124_3_cif.got.tgz:4777.got - 2010.05.20 11:49:17.
