data_PCOD9562604
_publ_section_title
;
Structure prediction by ZEFSAII (Michael W. Deem and Ramdas Pophale) SiO2 
 PCOD9562604
Probable space group: P 4/M C C
;
_chemical_formula_sum "Si O2"
_cell_formula_units_Z 96
_cell_length_a 18.724359
_cell_length_b 18.724359
_cell_length_c 14.801180
_cell_angle_alpha 90.000000
_cell_angle_beta 90.000000
_cell_angle_gamma 90.000000
_cell_volume 5189.317685
_symmetry_space_group_name_H-M "P 4/M C C"
_symmetry_group_IT_number 124
_symmetry_cell_setting 'tetragonal'
loop_
_space_group_symop_operation_xyz
x,y,z
-y,x,z
-x,-y,z
y,-x,z
x,-y,1/2-z
-x,y,1/2-z
y,x,1/2-z
-y,-x,1/2-z
-x,-y,-z
y,-x,-z
x,y,-z
-y,x,-z
-x,y,1/2+z
x,-y,1/2+z
-y,-x,1/2+z
y,x,1/2+z
loop_
_atom_site_type_symbol
_atom_site_label
_atom_site_fract_x
_atom_site_fract_y
_atom_site_fract_z
Si Si1 0.416334 0.119285 0.244226
Si Si2 0.456724 0.605088 0.391250
Si Si3 0.059592 0.696800 0.891896
Si Si4 0.637321 0.729138 0.179453
Si Si5 0.773598 0.801697 0.104410
Si Si6 0.301543 0.102417 0.607390
O O1 0.500000 0.103435 0.250000
O O2 0.373901 0.074123 0.167658
O O3 0.401673 0.202044 0.220081
O O4 0.375128 0.107744 0.338202
O O5 0.409355 0.537469 0.359468
O O6 0.458272 0.602384 0.500000
O O7 0.421420 0.678276 0.363457
O O8 0.119520 0.753774 0.860885
O O9 0.979019 0.723605 0.879579
O O10 0.069748 0.682866 0.000000
O O11 0.681660 0.681660 0.250000
O O12 0.699337 0.758606 0.113587
O O13 0.837668 0.753793 0.143432
O O14 0.792674 0.811342 0.000000
O O15 0.312538 0.114014 0.500000
#
# Coordination Sequence:
#
# PCOD9562604 Si02
#       6
#    16  16  16  16  16  16
#     4  11  24  38  53  81 114 143 184 234 278 323
#     4   9  20  37  54  73 100 138 181 227 284 344
#     4   9  20  37  59  83 112 148 184 223 274 330
#     4  11  21  33  53  75 105 134 181 226 277 324
#     4   9  18  35  56  80 107 138 180 226 264 319
#     4  10  20  37  59  83 110 149 187 220 274 333
#
# _framework density 18.499542000000002
#
# number of rings (size 3 to 8) (size 9 to 14) (size 15 to 20)
#    0.000    2.167    1.667    1.500    2.333    2.667 
#    0.000    2.500    0.000    0.500    0.000    3.500 
#    0.000    3.000    0.000    0.333    0.000    0.000 
#
# Total GULP energy -535443.903231 kJ/mol
# GULP energy per Si atom -5577.540659 kJ/mol
# Density = 1.845744 g / cm^3
# Si number density = 18.499542 Si / 1000 Ang^3
#
#
#
# Elastic Constant Matrix: (Units=GPa)
#
#
# Indices 1 2 3 4 5 6 
#
# 1 97.9304 55.1169 29.7486 0.0000 0.0000 0.0000
# 2 55.1169 97.9304 29.7486 0.0000 0.0000 0.0000
# 3 29.7486 29.7486 52.3191 0.0000 0.0000 0.0000
# 4 0.0000 0.0000 0.0000 23.2653 0.0000 0.0000
# 5 0.0000 0.0000 0.0000 0.0000 23.2653 0.0000
# 6 0.0000 0.0000 0.0000 0.0000 0.0000 11.8644
#
#
#
# Elastic Compliance Matrix: (Units=1/GPa)
#
#
# Indices 1 2 3 4 5 6 
#
# 1 0.015873 -0.007485 -0.004769 0.000000 0.000000 0.000000
# 2 -0.007485 0.015873 -0.004769 0.000000 0.000000 0.000000
# 3 -0.004769 -0.004769 0.024537 0.000000 0.000000 0.000000
# 4 0.000000 0.000000 0.000000 0.042982 0.000000 0.000000
# 5 0.000000 0.000000 0.000000 0.000000 0.042982 0.000000
# 6 0.000000 0.000000 0.000000 0.000000 0.000000 0.084286
#
#
# Mechanical properties :
#
#
# Convention : Reuss Voigt Hill
#
# Bulk Modulus (GPa) = 44.97289 53.04538 49.00913
# Shear Modulus (GPa) = 18.65726 20.58337 19.62032
#
# Velocity S-wave (km/s) = 3.17917 3.33925 3.26019
# Velocity P-wave (km/s) = 6.15136 6.60330 6.38133
#
# Compressibility (1/GPa) = 0.02223562
#
# Stress axis : x y z
#
# Youngs Moduli (GPa) = 63.00172 63.00172 40.75427
#
# Poissons Ratio (x) = 0.47154 0.19438
# Poissons Ratio (y) = 0.47154 0.19438
# Poissons Ratio (z) = 0.30048 0.30048
#
# Static dielectric constant tensor:
#      x y z
#    x 1.636980 0.000000 0.000000 
#    y 0.000000 1.636980 0.000000 
#    z 0.000000 0.000000 1.680280 
# 
# From -- ./inp_files/4285.got.cif
#   From: 2010.05.17/outbox.cif.g08.bks.cpg/sg124_3_cif.got.tgz:4285.got - 2010.05.20 11:49:17.
