data_PCOD9562312
_publ_section_title
;
Structure prediction by ZEFSAII (Michael W. Deem and Ramdas Pophale) SiO2 
 PCOD9562312
Probable space group: P 4/M C C
;
_chemical_formula_sum "Si O2"
_cell_formula_units_Z 64
_cell_length_a 23.484577
_cell_length_b 23.484577
_cell_length_c 8.841450
_cell_angle_alpha 90.000000
_cell_angle_beta 90.000000
_cell_angle_gamma 90.000000
_cell_volume 4876.283866
_symmetry_space_group_name_H-M "P 4/M C C"
_symmetry_group_IT_number 124
_symmetry_cell_setting 'tetragonal'
loop_
_space_group_symop_operation_xyz
x,y,z
-y,x,z
-x,-y,z
y,-x,z
x,-y,1/2-z
-x,y,1/2-z
y,x,1/2-z
-y,-x,1/2-z
-x,-y,-z
y,-x,-z
x,y,-z
-y,x,-z
-x,y,1/2+z
x,-y,1/2+z
-y,-x,1/2+z
y,x,1/2+z
loop_
_atom_site_type_symbol
_atom_site_label
_atom_site_fract_x
_atom_site_fract_y
_atom_site_fract_z
Si Si1 0.564109 0.057769 0.682673
Si Si2 0.730194 0.647373 0.672554
Si Si3 0.632010 0.553290 0.666660
Si Si4 0.564216 0.177689 0.182157
O O1 0.500000 0.057521 0.750000
O O2 0.563270 0.056871 0.500000
O O3 0.585715 0.117627 0.747840
O O4 0.591355 0.000000 0.750000
O O5 0.704035 0.704035 0.750000
O O6 0.749917 0.658302 0.500000
O O7 0.677060 0.603970 0.661201
O O8 0.775930 0.610965 0.767249
O O9 0.658775 0.500000 0.750000
O O10 0.576906 0.576906 0.750000
O O11 0.616734 0.534880 0.500000
O O12 0.500000 0.188682 0.250000
O O13 0.559204 0.174834 0.000000
#
# Coordination Sequence:
#
# PCOD9562312 Si02
#       4
#    16  16  16  16
#     4  10  17  27  41  59  82 105 127 152 183 222
#     4  10  20  33  46  60  76  96 120 151 187 224
#     4  10  20  32  45  57  70  85 106 135 173 217
#     4  11  20  30  44  62  81 103 129 157 189 230
#
# _framework density 13.124749
#
# number of rings (size 3 to 8) (size 9 to 14) (size 15 to 20)
#    0.000    1.750    0.000    9.000    0.000    5.250 
#    0.000    1.250    0.000    0.000    0.000    0.000 
#    0.000    0.000    0.000    0.000    0.000    0.000 
#
# Total GULP energy -356404.332190 kJ/mol
# GULP energy per Si atom -5568.817690 kJ/mol
# Density = 1.309488 g / cm^3
# Si number density = 13.124749 Si / 1000 Ang^3
#
#
#
# Elastic Constant Matrix: (Units=GPa)
#
#
# Indices 1 2 3 4 5 6 
#
# 1 57.3261 19.3000 35.7342 0.0000 0.0000 0.0000
# 2 19.3000 57.3261 35.7342 0.0000 0.0000 0.0000
# 3 35.7342 35.7342 146.1318 0.0000 0.0000 0.0000
# 4 0.0000 0.0000 0.0000 14.9030 0.0000 0.0000
# 5 0.0000 0.0000 0.0000 0.0000 14.9030 0.0000
# 6 0.0000 0.0000 0.0000 0.0000 0.0000 4.5258
#
#
#
# Elastic Compliance Matrix: (Units=1/GPa)
#
#
# Indices 1 2 3 4 5 6 
#
# 1 0.021602 -0.004696 -0.004134 0.000000 0.000000 0.000000
# 2 -0.004696 0.021602 -0.004134 0.000000 0.000000 0.000000
# 3 -0.004134 -0.004134 0.008865 0.000000 0.000000 0.000000
# 4 0.000000 0.000000 0.000000 0.067101 0.000000 0.000000
# 5 0.000000 0.000000 0.000000 0.000000 0.067101 0.000000
# 6 0.000000 0.000000 0.000000 0.000000 0.000000 0.220953
#
#
# Mechanical properties :
#
#
# Convention : Reuss Voigt Hill
#
# Bulk Modulus (GPa) = 38.25420 49.14677 43.70048
# Shear Modulus (GPa) = 11.31567 18.20073 14.75820
#
# Velocity S-wave (km/s) = 2.93945 3.72795 3.35693
# Velocity P-wave (km/s) = 6.38203 7.48714 6.95657
#
# Compressibility (1/GPa) = 0.02614092
#
# Stress axis : x y z
#
# Youngs Moduli (GPa) = 46.29198 46.29198 112.80278
#
# Poissons Ratio (x) = 0.21737 0.46635
# Poissons Ratio (y) = 0.21737 0.46635
# Poissons Ratio (z) = 0.19138 0.19138
#
# Static dielectric constant tensor:
#      x y z
#    x 1.447940 0.000000 0.000000 
#    y 0.000000 1.447940 0.000000 
#    z 0.000000 0.000000 1.465930 
# 
# From -- ./inp_files/882.got.cif
#   From: 2010.05.17/outbox.cif.g08.bks.cpg/sg124_1_cif.got.tgz:882.got - 2010.05.20 11:49:17.
