data_PCOD9562187
_publ_section_title
;
Structure prediction by ZEFSAII (Michael W. Deem and Ramdas Pophale) SiO2 
 PCOD9562187
Probable space group: P 4/M M M
;
_chemical_formula_sum "Si O2"
_cell_formula_units_Z 72
_cell_length_a 21.029829
_cell_length_b 21.029829
_cell_length_c 8.564311
_cell_angle_alpha 90.000000
_cell_angle_beta 90.000000
_cell_angle_gamma 90.000000
_cell_volume 3787.598294
_symmetry_space_group_name_H-M "P 4/M M M"
_symmetry_group_IT_number 123
_symmetry_cell_setting 'tetragonal'
loop_
_space_group_symop_operation_xyz
x,y,z
-y,x,z
-x,-y,z
y,-x,z
x,-y,-z
-x,y,-z
y,x,-z
-y,-x,-z
-x,-y,-z
y,-x,-z
x,y,-z
-y,x,-z
-x,y,z
x,-y,z
-y,-x,z
y,x,z
loop_
_atom_site_type_symbol
_atom_site_label
_atom_site_fract_x
_atom_site_fract_y
_atom_site_fract_z
Si Si1 0.426704 0.323022 0.185165
Si Si2 0.332575 0.225851 0.321346
Si Si3 0.907096 0.320868 0.818444
Si Si4 0.824512 0.928574 0.190225
Si Si5 0.425742 0.000000 0.686245
O O1 0.500000 0.330923 0.222112
O O2 0.386784 0.386784 0.213866
O O3 0.393994 0.267771 0.283557
O O4 0.420345 0.308170 0.000000
O O5 0.333434 0.202892 0.500000
O O6 0.272688 0.272688 0.301493
O O7 0.328236 0.167590 0.205441
O O8 0.922566 0.249369 0.757501
O O9 0.941350 0.381072 0.739809
O O10 0.924787 0.321839 0.000000
O O11 0.872228 0.872228 0.243505
O O12 0.846955 0.000000 0.231589
O O13 0.823182 0.924854 0.000000
O O14 0.500000 0.000000 0.743752
O O15 0.429111 0.000000 0.500000
#
# Coordination Sequence:
#
# PCOD9562187 Si02
#       5
#    16  16  16  16   8
#     4   9  18  33  53  78 108 142 182 229 282 340
#     4  10  21  36  55  81 112 147 188 233 283 338
#     4  11  21  37  60  85 114 149 192 238 287 342
#     4   9  17  30  51  83 120 154 189 231 278 329
#     4  11  25  43  61  83 112 147 188 236 293 355
#
# _framework density 19.009405999999998
#
# number of rings (size 3 to 8) (size 9 to 14) (size 15 to 20)
#    0.000    2.111    1.111    2.333    0.000    4.889 
#    0.000    2.222    0.000    0.000    0.000    3.111 
#    0.000    0.889    0.000    0.000    0.000    0.000 
#
# Total GULP energy -401513.429474 kJ/mol
# GULP energy per Si atom -5576.575409 kJ/mol
# Density = 1.896614 g / cm^3
# Si number density = 19.009406 Si / 1000 Ang^3
#
#
#
# Elastic Constant Matrix: (Units=GPa)
#
#
# Indices 1 2 3 4 5 6 
#
# 1 123.2587 40.3999 23.8311 0.0000 0.0000 0.0000
# 2 40.3999 123.2587 23.8311 0.0000 0.0000 0.0000
# 3 23.8311 23.8311 25.4179 0.0000 0.0000 0.0000
# 4 0.0000 0.0000 0.0000 16.5381 0.0000 0.0000
# 5 0.0000 0.0000 0.0000 0.0000 16.5381 0.0000
# 6 0.0000 0.0000 0.0000 0.0000 0.0000 -16.3014
#
#
#
# Elastic Compliance Matrix: (Units=1/GPa)
#
#
# Indices 1 2 3 4 5 6 
#
# 1 0.010237 -0.001832 -0.007881 0.000000 0.000000 0.000000
# 2 -0.001832 0.010237 -0.007881 0.000000 0.000000 0.000000
# 3 -0.007881 -0.007881 0.054120 0.000000 0.000000 0.000000
# 4 0.000000 0.000000 0.000000 0.060467 0.000000 0.000000
# 5 0.000000 0.000000 0.000000 0.000000 0.060467 0.000000
# 6 0.000000 0.000000 0.000000 0.000000 0.000000 -0.061345
#
#
# Mechanical properties :
#
#
# Convention : Reuss Voigt Hill
#
# Bulk Modulus (GPa) = 25.37560 49.78439 37.58000
# Shear Modulus (GPa) = 27.39660 15.61317 21.50488
#
# Velocity S-wave (km/s) = 3.80045 2.86901 3.36709
# Velocity P-wave (km/s) = 5.71278 6.10091 5.91003
#
# Compressibility (1/GPa) = 0.03940794
#
# Stress axis : x y z
#
# Youngs Moduli (GPa) = 97.68451 97.68451 18.47752
#
# Poissons Ratio (x) = 0.17893 0.14561
# Poissons Ratio (y) = 0.17893 0.14561
# Poissons Ratio (z) = 0.76982 0.76982
#
# Static dielectric constant tensor:
#      x y z
#    x 1.654370 0.000000 0.000000 
#    y 0.000000 1.654370 0.000000 
#    z 0.000000 0.000000 1.671720 
# 
# From -- ./inp_files/1068.got.cif
#   From: 2010.05.17/outbox.cif.g08.bks.cpg/sg123_1_cif.got.tgz:1068.got - 2010.05.20 11:43:04.
