data_PCOD9562144
_publ_section_title
;
Structure prediction by ZEFSAII (Michael W. Deem and Ramdas Pophale) SiO2 
 PCOD9562144
Probable space group: P 4/M M M
;
_chemical_formula_sum "Si O2"
_cell_formula_units_Z 96
_cell_length_a 23.926713
_cell_length_b 23.926713
_cell_length_c 7.358232
_cell_angle_alpha 90.000000
_cell_angle_beta 90.000000
_cell_angle_gamma 90.000000
_cell_volume 4212.496541
_symmetry_space_group_name_H-M "P 4/M M M"
_symmetry_group_IT_number 123
_symmetry_cell_setting 'tetragonal'
loop_
_space_group_symop_operation_xyz
x,y,z
-y,x,z
-x,-y,z
y,-x,z
x,-y,-z
-x,y,-z
y,x,-z
-y,-x,-z
-x,-y,-z
y,-x,-z
x,y,-z
-y,x,-z
-x,y,z
x,-y,z
-y,-x,z
y,x,z
loop_
_atom_site_type_symbol
_atom_site_label
_atom_site_fract_x
_atom_site_fract_y
_atom_site_fract_z
Si Si1 0.432264 0.775148 0.706741
Si Si2 0.436958 0.898126 0.719883
Si Si3 0.060490 0.318582 0.786268
Si Si4 0.345643 0.435692 0.722548
Si Si5 0.758718 0.154279 0.207180
Si Si6 0.937284 0.149047 0.280604
O O1 0.410500 0.776929 0.500000
O O2 0.500000 0.771732 0.697789
O O3 0.421975 0.835666 0.789383
O O4 0.415290 0.715570 0.786060
O O5 0.439229 0.895509 0.500000
O O6 0.500000 0.913182 0.779523
O O7 0.385339 0.936489 0.769550
O O8 0.118090 0.292133 0.709373
O O9 0.000000 0.299068 0.711720
O O10 0.060674 0.304503 0.000000
O O11 0.343795 0.435730 0.500000
O O12 0.354560 0.500000 0.777644
O O13 0.394817 0.394817 0.779111
O O14 0.791053 0.208948 0.285923
O O15 0.805922 0.105983 0.206080
O O16 0.743404 0.169525 0.000000
O O17 0.936573 0.155153 0.500000
O O18 0.911411 0.088590 0.238209
O O19 0.000000 0.156586 0.216284
#
# Coordination Sequence:
#
# PCOD9562144 Si02
#       6
#    16  16  16  16  16  16
#     4   7  11  22  38  53  72 103 144 186 224 263
#     4   9  18  33  52  72  95 126 164 203 242 288
#     4  10  21  35  51  74 103 131 158 192 239 293
#     4   8  12  17  27  46  75 112 151 190 234 284
#     4   9  18  34  54  71  90 122 162 199 234 276
#     4   9  17  28  43  65  92 121 153 190 232 276
#
# _framework density 22.789335000000001
#
# number of rings (size 3 to 8) (size 9 to 14) (size 15 to 20)
#    0.000    3.333    0.000    2.500    0.000    3.000 
#    0.000    4.167    0.000    1.000    0.000    2.333 
#    0.000    0.000    0.000    0.000    0.000    0.167 
#
# Total GULP energy -534807.830483 kJ/mol
# GULP energy per Si atom -5570.914901 kJ/mol
# Density = 2.273747 g / cm^3
# Si number density = 22.789335 Si / 1000 Ang^3
#
#
#
# Elastic Constant Matrix: (Units=GPa)
#
#
# Indices 1 2 3 4 5 6 
#
# 1 101.0118 41.1782 -0.2494 0.0000 0.0000 0.0000
# 2 41.1782 101.0118 -0.2494 0.0000 0.0000 0.0000
# 3 -0.2494 -0.2494 86.2276 0.0000 0.0000 0.0000
# 4 0.0000 0.0000 0.0000 0.5449 0.0000 0.0000
# 5 0.0000 0.0000 0.0000 0.0000 0.5449 0.0000
# 6 0.0000 0.0000 0.0000 0.0000 0.0000 27.3316
#
#
#
# Elastic Compliance Matrix: (Units=1/GPa)
#
#
# Indices 1 2 3 4 5 6 
#
# 1 0.011873 -0.004840 0.000020 0.000000 0.000000 0.000000
# 2 -0.004840 0.011873 0.000020 0.000000 0.000000 0.000000
# 3 0.000020 0.000020 0.011597 0.000000 0.000000 0.000000
# 4 0.000000 0.000000 0.000000 1.835111 0.000000 0.000000
# 5 0.000000 0.000000 0.000000 0.000000 1.835111 0.000000
# 6 0.000000 0.000000 0.000000 0.000000 0.000000 0.036588
#
#
# Mechanical properties :
#
#
# Convention : Reuss Voigt Hill
#
# Bulk Modulus (GPa) = 38.84321 41.06779 39.95550
# Shear Modulus (GPa) = 1.32967 22.18909 11.75938
#
# Velocity S-wave (km/s) = 0.76468 3.12374 2.27404
# Velocity P-wave (km/s) = 4.22624 5.57405 4.94627
#
# Compressibility (1/GPa) = 0.02574452
#
# Stress axis : x y z
#
# Youngs Moduli (GPa) = 84.22499 84.22499 86.22673
#
# Poissons Ratio (x) = 0.40765 -0.00175
# Poissons Ratio (y) = 0.40765 -0.00175
# Poissons Ratio (z) = -0.00171 -0.00171
#
# Static dielectric constant tensor:
#      x y z
#    x 1.865870 0.000000 0.000000 
#    y 0.000000 1.865870 0.000000 
#    z 0.000000 0.000000 2.052910 
# 
# From -- ./inp_files/1612.got.cif
#   From: 2010.05.17/outbox.cif.g08.bks.cpg/sg123_1_cif.got.tgz:1612.got - 2010.05.20 11:43:04.
