data_PCOD9562482
_publ_section_title
;
Structure prediction by ZEFSAII (Michael W. Deem and Ramdas Pophale) SiO2 
 PCOD9562482
Probable space group: P 4/M C C
;
_chemical_formula_sum "Si O2"
_cell_formula_units_Z 56
_cell_length_a 12.745392
_cell_length_b 12.745392
_cell_length_c 19.122005
_cell_angle_alpha 90.000000
_cell_angle_beta 90.000000
_cell_angle_gamma 90.000000
_cell_volume 3106.274432
_symmetry_space_group_name_H-M "P 4/M C C"
_symmetry_group_IT_number 124
_symmetry_cell_setting 'tetragonal'
loop_
_space_group_symop_operation_xyz
x,y,z
-y,x,z
-x,-y,z
y,-x,z
x,-y,1/2-z
-x,y,1/2-z
y,x,1/2-z
-y,-x,1/2-z
-x,-y,-z
y,-x,-z
x,y,-z
-y,x,-z
-x,y,1/2+z
x,-y,1/2+z
-y,-x,1/2+z
y,x,1/2+z
loop_
_atom_site_type_symbol
_atom_site_label
_atom_site_fract_x
_atom_site_fract_y
_atom_site_fract_z
Si Si1 0.359427 0.093443 0.344127
Si Si2 0.896926 0.710544 0.000000
Si Si3 0.148764 0.595365 0.151148
Si Si4 0.248901 0.751100 0.750000
Si Si5 0.697341 0.860649 0.000000
O O1 0.349124 0.111758 0.426930
O O2 0.473089 0.143864 0.329957
O O3 0.266994 0.149335 0.301011
O O4 0.363592 0.969007 0.330521
O O5 0.802173 0.792063 0.000000
O O6 0.019875 0.740492 0.000000
O O7 0.235810 0.655225 0.196232
O O8 0.159149 0.626996 0.069339
#
# Coordination Sequence:
#
# PCOD9562482 Si02
#       5
#    16   8  16   8   8
#     4  10  21  37  58  83 109 142 187 231 270 320
#     4  10  19  36  59  84 110 142 183 228 274 324
#     4  10  21  37  58  83 109 142 187 231 270 320
#     4  12  20  32  56  82 116 144 172 222 284 324
#     4  10  19  36  59  84 110 142 183 228 274 324
#
# _framework density 18.028027999999999
#
# number of rings (size 3 to 8) (size 9 to 14) (size 15 to 20)
#    0.000    1.714    2.857    2.571    0.000    6.000 
#    0.000    0.000    0.000   13.714    0.000    2.000 
#    0.000    0.000    0.000    0.000    0.000    0.000 
#
# Total GULP energy -311767.350462 kJ/mol
# GULP energy per Si atom -5567.274115 kJ/mol
# Density = 1.798700 g / cm^3
# Si number density = 18.028028 Si / 1000 Ang^3
#
#
#
# Elastic Constant Matrix: (Units=GPa)
#
#
# Indices 1 2 3 4 5 6 
#
# 1 63.5891 49.6248 29.7614 0.0000 0.0000 0.0000
# 2 49.6248 63.5886 29.7610 0.0000 0.0000 0.0000
# 3 29.7614 29.7610 125.7531 0.0000 0.0000 0.0000
# 4 0.0000 0.0000 0.0000 22.1279 0.0000 0.0000
# 5 0.0000 0.0000 0.0000 0.0000 22.1281 0.0000
# 6 0.0000 0.0000 0.0000 0.0000 0.0000 28.9697
#
#
#
# Elastic Compliance Matrix: (Units=1/GPa)
#
#
# Indices 1 2 3 4 5 6 
#
# 1 0.040850 -0.030762 -0.002388 0.000000 0.000000 0.000000
# 2 -0.030762 0.040850 -0.002387 0.000000 0.000000 0.000000
# 3 -0.002388 -0.002387 0.009082 0.000000 0.000000 0.000000
# 4 0.000000 0.000000 0.000000 0.045192 0.000000 0.000000
# 5 0.000000 0.000000 0.000000 0.000000 0.045191 0.000000
# 6 0.000000 0.000000 0.000000 0.000000 0.000000 0.034519
#
#
# Mechanical properties :
#
#
# Convention : Reuss Voigt Hill
#
# Bulk Modulus (GPa) = 50.73981 52.35834 51.54908
# Shear Modulus (GPa) = 17.04572 24.23072 20.63822
#
# Velocity S-wave (km/s) = 3.07825 3.67012 3.38714
# Velocity P-wave (km/s) = 6.39064 6.86043 6.62970
#
# Compressibility (1/GPa) = 0.01970839
#
# Stress axis : x y z
#
# Youngs Moduli (GPa) = 24.47966 24.47953 110.10612
#
# Poissons Ratio (x) = 0.75305 0.26288
# Poissons Ratio (y) = 0.75305 0.26287
# Poissons Ratio (z) = 0.05845 0.05844
#
# Static dielectric constant tensor:
#      x y z
#    x 1.599800 0.000000 0.000000 
#    y 0.000000 1.599800 0.000000 
#    z 0.000000 0.000000 1.706030 
# 
# From -- ./inp_files/4914.got.cif
#   From: 2010.05.17/outbox.cif.g08.bks.cpg/sg124_3_cif.got.tgz:4914.got - 2010.05.20 11:49:17.
