data_PCOD9562127
_publ_section_title
;
Structure prediction by ZEFSAII (Michael W. Deem and Ramdas Pophale) SiO2 
 PCOD9562127
Probable space group: P 4/M M M
;
_chemical_formula_sum "Si O2"
_cell_formula_units_Z 72
_cell_length_a 23.332259
_cell_length_b 23.332259
_cell_length_c 7.618944
_cell_angle_alpha 90.000000
_cell_angle_beta 90.000000
_cell_angle_gamma 90.000000
_cell_volume 4147.709762
_symmetry_space_group_name_H-M "P 4/M M M"
_symmetry_group_IT_number 123
_symmetry_cell_setting 'tetragonal'
loop_
_space_group_symop_operation_xyz
x,y,z
-y,x,z
-x,-y,z
y,-x,z
x,-y,-z
-x,y,-z
y,x,-z
-y,-x,-z
-x,-y,-z
y,-x,-z
x,y,-z
-y,x,-z
-x,y,z
x,-y,z
-y,-x,z
y,x,z
loop_
_atom_site_type_symbol
_atom_site_label
_atom_site_fract_x
_atom_site_fract_y
_atom_site_fract_z
Si Si1 0.253215 0.067329 0.293815
Si Si2 0.635757 0.729468 0.294367
Si Si3 0.567960 0.337501 0.000000
Si Si4 0.863895 0.366784 0.202964
Si Si5 0.568358 0.066614 0.500000
Si Si6 0.066940 0.160548 0.000000
O O1 0.242106 0.076173 0.500000
O O2 0.305214 0.106929 0.233437
O O3 0.268539 0.000000 0.268681
O O4 0.199176 0.079104 0.170927
O O5 0.622017 0.722428 0.500000
O O6 0.696197 0.696197 0.262239
O O7 0.590279 0.698111 0.168810
O O8 0.637184 0.796755 0.251140
O O9 0.500000 0.344125 0.000000
O O10 0.602643 0.397358 0.000000
O O11 0.898757 0.408441 0.332071
O O12 0.869342 0.383721 0.000000
O O13 0.500000 0.066017 0.500000
O O14 0.588862 0.000000 0.500000
O O15 0.105136 0.105136 0.000000
O O16 0.000000 0.146766 0.000000
#
# Coordination Sequence:
#
# PCOD9562127 Si02
#       6
#    16  16   8  16   8   8
#     4  10  20  36  59  84 112 148 193 243 291 342
#     4  10  21  39  60  87 123 156 191 237 290 346
#     4  10  22  40  63  91 122 156 192 236 287 338
#     4  12  22  37  62  91 114 156 196 240 294 348
#     4  11  26  44  59  82 120 160 201 246 286 335
#     4  10  22  38  57  85 116 148 190 238 291 354
#
# _framework density 17.358975999999998
#
# number of rings (size 3 to 8) (size 9 to 14) (size 15 to 20)
#    0.000    1.444    4.444    0.667    0.000    4.667 
#    0.000    1.111    0.000    0.000    0.000    6.222 
#    0.000    0.000    0.000    0.000    0.000    0.000 
#
# Total GULP energy -402036.335039 kJ/mol
# GULP energy per Si atom -5583.837987 kJ/mol
# Density = 1.731947 g / cm^3
# Si number density = 17.358976 Si / 1000 Ang^3
#
#
#
# Elastic Constant Matrix: (Units=GPa)
#
#
# Indices 1 2 3 4 5 6 
#
# 1 118.2471 72.4789 62.8552 0.0000 0.0000 0.0000
# 2 72.4789 118.2470 62.8553 0.0000 0.0000 0.0000
# 3 62.8552 62.8553 156.2216 0.0000 0.0000 0.0000
# 4 0.0000 0.0000 0.0000 10.5031 0.0000 0.0000
# 5 0.0000 0.0000 0.0000 0.0000 10.5041 0.0000
# 6 0.0000 0.0000 0.0000 0.0000 0.0000 53.0908
#
#
#
# Elastic Compliance Matrix: (Units=1/GPa)
#
#
# Indices 1 2 3 4 5 6 
#
# 1 0.014492 -0.007357 -0.002871 0.000000 0.000000 0.000000
# 2 -0.007357 0.014492 -0.002871 0.000000 0.000000 0.000000
# 3 -0.002871 -0.002871 0.008711 0.000000 0.000000 0.000000
# 4 0.000000 0.000000 0.000000 0.095210 0.000000 0.000000
# 5 0.000000 0.000000 0.000000 0.000000 0.095201 0.000000
# 6 0.000000 0.000000 0.000000 0.000000 0.000000 0.018836
#
#
# Mechanical properties :
#
#
# Convention : Reuss Voigt Hill
#
# Bulk Modulus (GPa) = 86.96767 87.67718 87.32243
# Shear Modulus (GPa) = 18.05233 27.78801 22.92017
#
# Velocity S-wave (km/s) = 3.22831 4.00532 3.63762
# Velocity P-wave (km/s) = 8.00652 8.48576 8.24962
#
# Compressibility (1/GPa) = 0.01149853
#
# Stress axis : x y z
#
# Youngs Moduli (GPa) = 69.00215 69.00192 114.79270
#
# Poissons Ratio (x) = 0.50764 0.32956
# Poissons Ratio (y) = 0.50765 0.32956
# Poissons Ratio (z) = 0.19810 0.19810
#
# Static dielectric constant tensor:
#      x y z
#    x 1.564500 0.000000 0.000000 
#    y 0.000000 1.564500 0.000000 
#    z 0.000000 0.000000 0.598930 
# 
# From -- ./inp_files/1188.got.cif
#   From: 2010.05.17/outbox.cif.g08.bks.cpg/sg123_1_cif.got.tgz:1188.got - 2010.05.20 11:43:04.
