data_PCOD9562185
_publ_section_title
;
Structure prediction by ZEFSAII (Michael W. Deem and Ramdas Pophale) SiO2 
 PCOD9562185
Probable space group: P 4/M M M
;
_chemical_formula_sum "Si O2"
_cell_formula_units_Z 104
_cell_length_a 18.119500
_cell_length_b 18.119500
_cell_length_c 17.952730
_cell_angle_alpha 90.000000
_cell_angle_beta 90.000000
_cell_angle_gamma 90.000000
_cell_volume 5894.173534
_symmetry_space_group_name_H-M "P 4/M M M"
_symmetry_group_IT_number 123
_symmetry_cell_setting 'tetragonal'
loop_
_space_group_symop_operation_xyz
x,y,z
-y,x,z
-x,-y,z
y,-x,z
x,-y,-z
-x,y,-z
y,x,-z
-y,-x,-z
-x,-y,-z
y,-x,-z
x,y,-z
-y,x,-z
-x,y,z
x,-y,z
-y,-x,z
y,x,z
loop_
_atom_site_type_symbol
_atom_site_label
_atom_site_fract_x
_atom_site_fract_y
_atom_site_fract_z
Si Si1 0.911929 0.911929 0.916635
Si Si2 0.135759 0.864242 0.413877
Si Si3 0.143611 0.856390 0.753052
Si Si4 0.670600 0.204959 0.916312
Si Si5 0.708327 0.415015 0.208341
Si Si6 0.085338 0.703904 0.803354
Si Si7 0.414095 0.147419 0.301340
Si Si8 0.083762 0.695798 0.414191
O O1 0.883992 0.883992 0.835301
O O2 0.000000 0.898995 0.916516
O O3 0.884756 0.884756 0.000000
O O4 0.110225 0.889776 0.500000
O O5 0.112513 0.887488 0.327270
O O6 0.117241 0.777781 0.412603
O O7 0.125417 0.769194 0.756995
O O8 0.741380 0.258621 0.915158
O O9 0.611133 0.245320 0.863969
O O10 0.695571 0.128197 0.880630
O O11 0.643843 0.196936 0.000000
O O12 0.685611 0.500000 0.201676
O O13 0.640349 0.359652 0.217582
O O14 0.767968 0.408090 0.274523
O O15 0.098365 0.626858 0.761185
O O16 0.000000 0.721978 0.811257
O O17 0.500000 0.128977 0.309724
O O18 0.364900 0.131417 0.372752
O O19 0.078503 0.674809 0.500000
O O20 0.000000 0.698875 0.382549
#
# Coordination Sequence:
#
# PCOD9562185 Si02
#       8
#     8   8   8  16  16  16  16  16
#     4   9  20  38  56  78 112 148 182 232 298 355
#     4  10  22  37  57  84 117 154 194 248 294 342
#     4  12  21  34  58  81 109 148 196 238 285 350
#     4   9  18  34  53  74 106 144 183 227 277 334
#     4   9  19  34  56  83 112 145 184 228 280 342
#     4  11  22  34  53  80 106 142 189 233 279 340
#     4  10  21  36  55  80 110 144 180 228 284 337
#     4  10  21  36  56  83 112 148 192 236 288 343
#
# _framework density 17.644542999999999
#
# number of rings (size 3 to 8) (size 9 to 14) (size 15 to 20)
#    0.000    2.077    2.308    1.154    2.154    3.538 
#    0.000    0.769    0.000    0.231    0.000    8.615 
#    0.000    0.000    0.000    3.385    0.000    0.000 
#
# Total GULP energy -579244.631798 kJ/mol
# GULP energy per Si atom -5569.659921 kJ/mol
# Density = 1.760438 g / cm^3
# Si number density = 17.644543 Si / 1000 Ang^3
#
#
#
# Elastic Constant Matrix: (Units=GPa)
#
#
# Indices 1 2 3 4 5 6 
#
# 1 76.8603 43.8531 26.2868 0.0000 0.0000 0.0000
# 2 43.8531 76.8601 26.2867 0.0000 0.0000 0.0000
# 3 26.2868 26.2867 115.6528 0.0000 0.0000 0.0000
# 4 0.0000 0.0000 0.0000 13.3514 0.0000 0.0000
# 5 0.0000 0.0000 0.0000 0.0000 13.3514 0.0000
# 6 0.0000 0.0000 0.0000 0.0000 0.0000 20.4756
#
#
#
# Elastic Compliance Matrix: (Units=1/GPa)
#
#
# Indices 1 2 3 4 5 6 
#
# 1 0.019745 -0.010551 -0.002090 0.000000 0.000000 0.000000
# 2 -0.010551 0.019745 -0.002090 0.000000 0.000000 0.000000
# 3 -0.002090 -0.002090 0.009597 0.000000 0.000000 0.000000
# 4 0.000000 0.000000 0.000000 0.074898 0.000000 0.000000
# 5 0.000000 0.000000 0.000000 0.000000 0.074898 0.000000
# 6 0.000000 0.000000 0.000000 0.000000 0.000000 0.048839
#
#
# Mechanical properties :
#
#
# Convention : Reuss Voigt Hill
#
# Bulk Modulus (GPa) = 50.95294 51.35851 51.15573
# Shear Modulus (GPa) = 17.62265 20.96547 19.29406
#
# Velocity S-wave (km/s) = 3.16374 3.45079 3.31038
# Velocity P-wave (km/s) = 6.50276 6.71176 6.60808
#
# Compressibility (1/GPa) = 0.01962595
#
# Stress axis : x y z
#
# Youngs Moduli (GPa) = 50.64489 50.64480 104.20430
#
# Poissons Ratio (x) = 0.53436 0.21776
# Poissons Ratio (y) = 0.53436 0.21776
# Poissons Ratio (z) = 0.10584 0.10583
#
# Static dielectric constant tensor:
#      x y z
#    x 1.594430 0.000000 0.000000 
#    y 0.000000 1.594430 0.000000 
#    z 0.000000 0.000000 1.668950 
# 
# From -- ./inp_files/5654.got.cif
#   From: 2010.05.17/outbox.cif.g08.bks.cpg/sg123_3_cif.got.tgz:5654.got - 2010.05.20 11:43:04.
