data_PCOD9562938
_publ_section_title
;
Structure prediction by ZEFSAII (Michael W. Deem and Ramdas Pophale) SiO2 
 PCOD9562938
Probable space group: P 4/N B M
;
_chemical_formula_sum "Si O2"
_cell_formula_units_Z 80
_cell_length_a 23.136075
_cell_length_b 23.136075
_cell_length_c 9.573572
_cell_angle_alpha 90.000000
_cell_angle_beta 90.000000
_cell_angle_gamma 90.000000
_cell_volume 5124.522151
_symmetry_space_group_name_H-M "P 4/N B M"
_symmetry_group_IT_number 125
_space_group.IT_coordinate_system_code '2'
_symmetry_cell_setting 'tetragonal'
loop_
_space_group_symop_operation_xyz
x,y,z
1/2-y,x,z
1/2-x,1/2-y,z
y,1/2-x,z
x,1/2-y,-z
1/2-x,y,-z
y,x,-z
1/2-y,1/2-x,-z
-x,-y,-z
1/2+y,-x,-z
1/2+x,1/2+y,-z
-y,1/2+x,-z
-x,1/2+y,z
1/2+x,-y,z
-y,-x,z
1/2+y,1/2+x,z
loop_
_atom_site_type_symbol
_atom_site_label
_atom_site_fract_x
_atom_site_fract_y
_atom_site_fract_z
Si Si1 0.250000 0.653868 0.500000
Si Si2 0.732940 0.076127 0.769023
Si Si3 0.863425 0.460983 0.165768
Si Si4 0.750000 0.161674 0.000000
Si Si5 0.520799 0.118261 0.839801
Si Si6 0.040414 0.441530 0.342101
O O1 0.195782 0.695782 0.529483
O O2 0.236506 0.612642 0.371017
O O3 0.796256 0.052128 0.807534
O O4 0.718281 0.121709 0.890923
O O5 0.680801 0.031243 0.771817
O O6 0.902926 0.402926 0.181736
O O7 0.886625 0.508108 0.275995
O O8 0.874362 0.482984 0.007372
O O9 0.703474 0.203474 0.072226
O O10 0.576231 0.076231 0.813677
O O11 0.466884 0.087188 0.766147
O O12 0.064108 0.435893 0.500000
O O13 0.990478 0.490478 0.348061
#
# Coordination Sequence:
#
# PCOD9562938 Si02
#       6
#     8  16  16   8  16  16
#     4  11  24  36  44  62  98 142 180 213 250 288
#     4  12  22  33  50  72  98 131 172 216 254 296
#     4  10  19  33  51  72  97 127 166 209 254 300
#     4  11  20  32  48  66  94 134 176 209 238 280
#     4  10  19  33  51  72  97 127 166 209 254 300
#     4   9  19  33  51  71  93 124 161 206 257 307
#
# _framework density 15.611212
#
# number of rings (size 3 to 8) (size 9 to 14) (size 15 to 20)
#    0.000    1.600    2.000    4.200    2.800    4.000 
#    0.000    0.000    0.000    0.000    0.000    0.000 
#    0.000    0.800    0.000    5.800    0.000    1.600 
#
# Total GULP energy -446305.012297 kJ/mol
# GULP energy per Si atom -5578.812654 kJ/mol
# Density = 1.557568 g / cm^3
# Si number density = 15.611212 Si / 1000 Ang^3
#
#
#
# Elastic Constant Matrix: (Units=GPa)
#
#
# Indices 1 2 3 4 5 6 
#
# 1 61.4092 32.1473 14.5382 0.0000 0.0000 0.0000
# 2 32.1473 61.4093 14.5382 0.0000 0.0000 0.0000
# 3 14.5382 14.5382 63.0561 0.0000 0.0000 0.0000
# 4 0.0000 0.0000 0.0000 22.4250 0.0000 0.0000
# 5 0.0000 0.0000 0.0000 0.0000 22.4250 0.0000
# 6 0.0000 0.0000 0.0000 0.0000 0.0000 28.3884
#
#
#
# Elastic Compliance Matrix: (Units=1/GPa)
#
#
# Indices 1 2 3 4 5 6 
#
# 1 0.022844 -0.011330 -0.002655 0.000000 0.000000 0.000000
# 2 -0.011330 0.022844 -0.002655 0.000000 0.000000 0.000000
# 3 -0.002655 -0.002655 0.017083 0.000000 0.000000 0.000000
# 4 0.000000 0.000000 0.000000 0.044593 0.000000 0.000000
# 5 0.000000 0.000000 0.000000 0.000000 0.044593 0.000000
# 6 0.000000 0.000000 0.000000 0.000000 0.000000 0.035226
#
#
# Mechanical properties :
#
#
# Convention : Reuss Voigt Hill
#
# Bulk Modulus (GPa) = 33.90746 34.25802 34.08274
# Shear Modulus (GPa) = 21.71154 22.95773 22.33464
#
# Velocity S-wave (km/s) = 3.73334 3.83899 3.78654
# Velocity P-wave (km/s) = 6.35224 6.45311 6.40287
#
# Compressibility (1/GPa) = 0.02949203
#
# Stress axis : x y z
#
# Youngs Moduli (GPa) = 43.77524 43.77531 58.53779
#
# Poissons Ratio (x) = 0.49598 0.15540
# Poissons Ratio (y) = 0.49598 0.15539
# Poissons Ratio (z) = 0.11621 0.11621
#
# Static dielectric constant tensor:
#      x y z
#    x 1.497080 0.000000 0.000000 
#    y 0.000000 1.497080 0.000000 
#    z 0.000000 0.000000 1.124040 
# 
# From -- ./inp_files/2769.got.cif
#   From: 2010.05.17/outbox.cif.g08.bks.cpg/sg125_2_cif.got.tgz:2769.got - 2010.05.20 11:54:10.
