data_PCOD9562642
_publ_section_title
;
Structure prediction by ZEFSAII (Michael W. Deem and Ramdas Pophale) SiO2 
 PCOD9562642
Probable space group: P 4/M C C
;
_chemical_formula_sum "Si O2"
_cell_formula_units_Z 112
_cell_length_a 18.362238
_cell_length_b 18.362238
_cell_length_c 14.702938
_cell_angle_alpha 90.000000
_cell_angle_beta 90.000000
_cell_angle_gamma 90.000000
_cell_volume 4957.415841
_symmetry_space_group_name_H-M "P 4/M C C"
_symmetry_group_IT_number 124
_symmetry_cell_setting 'tetragonal'
loop_
_space_group_symop_operation_xyz
x,y,z
-y,x,z
-x,-y,z
y,-x,z
x,-y,1/2-z
-x,y,1/2-z
y,x,1/2-z
-y,-x,1/2-z
-x,-y,-z
y,-x,-z
x,y,-z
-y,x,-z
-x,y,1/2+z
x,-y,1/2+z
-y,-x,1/2+z
y,x,1/2+z
loop_
_atom_site_type_symbol
_atom_site_label
_atom_site_fract_x
_atom_site_fract_y
_atom_site_fract_z
Si Si1 0.284099 0.240149 0.389890
Si Si2 0.069276 0.196445 0.364468
Si Si3 0.445594 0.227517 0.607777
Si Si4 0.662963 0.839866 0.102332
Si Si5 0.382971 0.501811 0.141108
Si Si6 0.081090 0.521449 0.111567
Si Si7 0.807064 0.094650 0.146509
O O1 0.283239 0.247806 0.500000
O O2 0.365903 0.245769 0.355403
O O3 0.233079 0.305154 0.352801
O O4 0.249362 0.160389 0.371771
O O5 0.111473 0.265287 0.402404
O O6 0.080497 0.196700 0.254928
O O7 0.115181 0.124637 0.388046
O O8 0.985808 0.203301 0.391826
O O9 0.437889 0.218334 0.500000
O O10 0.497722 0.297377 0.619734
O O11 0.470852 0.148486 0.641310
O O12 0.600457 0.890344 0.142866
O O13 0.636996 0.820821 0.000000
O O14 0.428038 0.429738 0.109198
O O15 0.387299 0.500000 0.250000
O O16 0.000000 0.500000 0.142031
O O17 0.077720 0.520991 0.000000
#
# Coordination Sequence:
#
# PCOD9562642 Si02
#       7
#    16  16  16  16  16  16  16
#     4   9  19  34  52  77 107 138 175 221 266 317
#     4   9  18  32  51  74 101 135 172 221 266 320
#     4  10  21  35  57  85 111 140 182 231 271 316
#     4   9  18  33  53  75 102 137 176 216 262 317
#     4   9  20  40  60  82 115 151 185 220 270 336
#     4   9  19  34  52  77 107 140 176 216 267 321
#     4   9  18  33  50  74 103 133 176 217 269 319
#
# _framework density 22.592414999999999
#
# number of rings (size 3 to 8) (size 9 to 14) (size 15 to 20)
#    0.000    2.857    0.000    0.429    4.000    1.429 
#    2.571    3.571    0.000    0.429    0.000    4.000 
#    0.000    0.000    0.000    0.000    0.000    0.000 
#
# Total GULP energy -624532.047398 kJ/mol
# GULP energy per Si atom -5576.178995 kJ/mol
# Density = 2.254099 g / cm^3
# Si number density = 22.592415 Si / 1000 Ang^3
#
#
#
# Elastic Constant Matrix: (Units=GPa)
#
#
# Indices 1 2 3 4 5 6 
#
# 1 145.7390 60.4359 4.9975 0.0000 0.0000 0.0000
# 2 60.4359 145.7390 4.9975 0.0000 0.0000 0.0000
# 3 4.9975 4.9975 63.0780 0.0000 0.0000 0.0000
# 4 0.0000 0.0000 0.0000 12.0446 0.0000 0.0000
# 5 0.0000 0.0000 0.0000 0.0000 12.0446 0.0000
# 6 0.0000 0.0000 0.0000 0.0000 0.0000 15.2293
#
#
#
# Elastic Compliance Matrix: (Units=1/GPa)
#
#
# Indices 1 2 3 4 5 6 
#
# 1 0.008296 -0.003427 -0.000386 0.000000 0.000000 0.000000
# 2 -0.003427 0.008296 -0.000386 0.000000 0.000000 0.000000
# 3 -0.000386 -0.000386 0.015915 0.000000 0.000000 0.000000
# 4 0.000000 0.000000 0.000000 0.083025 0.000000 0.000000
# 5 0.000000 0.000000 0.000000 0.000000 0.083025 0.000000
# 6 0.000000 0.000000 0.000000 0.000000 0.000000 0.065663
#
#
# Mechanical properties :
#
#
# Convention : Reuss Voigt Hill
#
# Bulk Modulus (GPa) = 41.47762 55.04645 48.26204
# Shear Modulus (GPa) = 17.81564 26.80537 22.31050
#
# Velocity S-wave (km/s) = 2.81119 3.44826 3.14590
# Velocity P-wave (km/s) = 5.37922 6.34602 5.88251
#
# Compressibility (1/GPa) = 0.02410938
#
# Stress axis : x y z
#
# Youngs Moduli (GPa) = 120.54111 120.54111 62.83573
#
# Poissons Ratio (x) = 0.41309 0.02424
# Poissons Ratio (y) = 0.41309 0.02424
# Poissons Ratio (z) = 0.04650 0.04650
#
# Static dielectric constant tensor:
#      x y z
#    x 1.848090 0.000000 0.000000 
#    y 0.000000 1.848090 0.000000 
#    z 0.000000 0.000000 1.906160 
# 
# From -- ./inp_files/5560.got.cif
#   From: 2010.05.17/outbox.cif.g08.bks.cpg/sg124_3_cif.got.tgz:5560.got - 2010.05.20 11:49:17.
