data_PCOD9562475
_publ_section_title
;
Structure prediction by ZEFSAII (Michael W. Deem and Ramdas Pophale) SiO2 
 PCOD9562475
Probable space group: P 4/M C C
;
_chemical_formula_sum "Si O2"
_cell_formula_units_Z 88
_cell_length_a 16.499944
_cell_length_b 16.499944
_cell_length_c 16.008812
_cell_angle_alpha 90.000000
_cell_angle_beta 90.000000
_cell_angle_gamma 90.000000
_cell_volume 4358.369483
_symmetry_space_group_name_H-M "P 4/M C C"
_symmetry_group_IT_number 124
_symmetry_cell_setting 'tetragonal'
loop_
_space_group_symop_operation_xyz
x,y,z
-y,x,z
-x,-y,z
y,-x,z
x,-y,1/2-z
-x,y,1/2-z
y,x,1/2-z
-y,-x,1/2-z
-x,-y,-z
y,-x,-z
x,y,-z
-y,x,-z
-x,y,1/2+z
x,-y,1/2+z
-y,-x,1/2+z
y,x,1/2+z
loop_
_atom_site_type_symbol
_atom_site_label
_atom_site_fract_x
_atom_site_fract_y
_atom_site_fract_z
Si Si1 0.081383 0.340037 0.856029
Si Si2 0.325061 0.376541 0.837677
Si Si3 0.819269 0.494656 0.651581
Si Si4 0.392705 0.581099 0.000000
Si Si5 0.219134 0.763599 0.403143
Si Si6 0.336494 0.894538 0.345495
O O1 0.124583 0.423524 0.886193
O O2 0.125561 0.261007 0.892970
O O3 0.096434 0.337063 0.755530
O O4 0.986691 0.343106 0.875901
O O5 0.371303 0.371303 0.750000
O O6 0.271437 0.457536 0.851127
O O7 0.383751 0.359895 0.914506
O O8 0.262020 0.302834 0.843891
O O9 0.838563 0.500000 0.750000
O O10 0.841488 0.585550 0.623515
O O11 0.391392 0.485799 0.000000
O O12 0.240944 0.750082 0.500000
O O13 0.255439 0.848966 0.374743
#
# Coordination Sequence:
#
# PCOD9562475 Si02
#       6
#    16  16  16   8  16  16
#     4   9  19  36  57  86 126 150 195 254 311 359
#     4  11  23  40  64  85 120 163 208 262 310 363
#     4   9  18  32  59  92 116 154 200 247 306 369
#     4  11  28  44  56  82 117 159 219 270 313 351
#     4  11  22  37  56  87 123 160 201 247 301 368
#     4  10  19  35  61  89 114 158 202 247 301 376
#
# _framework density 20.191036
#
# number of rings (size 3 to 8) (size 9 to 14) (size 15 to 20)
#    0.000    1.909    0.909    4.364    5.091    2.909 
#    0.000    0.909    0.000    3.818    0.000    3.818 
#    0.000    0.000    0.000    0.000    0.000    0.000 
#
# Total GULP energy -490894.751983 kJ/mol
# GULP energy per Si atom -5578.349454 kJ/mol
# Density = 2.014508 g / cm^3
# Si number density = 20.191036 Si / 1000 Ang^3
#
#
#
# Elastic Constant Matrix: (Units=GPa)
#
#
# Indices 1 2 3 4 5 6 
#
# 1 128.5336 27.6391 20.2892 0.0000 0.0000 0.0000
# 2 27.6391 128.5336 20.2892 0.0000 0.0000 0.0000
# 3 20.2892 20.2892 69.3088 0.0000 0.0000 0.0000
# 4 0.0000 0.0000 0.0000 15.8789 0.0000 0.0000
# 5 0.0000 0.0000 0.0000 0.0000 15.8789 0.0000
# 6 0.0000 0.0000 0.0000 0.0000 0.0000 29.7311
#
#
#
# Elastic Compliance Matrix: (Units=1/GPa)
#
#
# Indices 1 2 3 4 5 6 
#
# 1 0.008421 -0.001491 -0.002029 0.000000 0.000000 0.000000
# 2 -0.001491 0.008421 -0.002029 0.000000 0.000000 0.000000
# 3 -0.002029 -0.002029 0.015616 0.000000 0.000000 0.000000
# 4 0.000000 0.000000 0.000000 0.062977 0.000000 0.000000
# 5 0.000000 0.000000 0.000000 0.000000 0.062977 0.000000
# 6 0.000000 0.000000 0.000000 0.000000 0.000000 0.033635
#
#
# Mechanical properties :
#
#
# Convention : Reuss Voigt Hill
#
# Bulk Modulus (GPa) = 46.81306 51.42345 49.11826
# Shear Modulus (GPa) = 23.77984 29.50837 26.64410
#
# Velocity S-wave (km/s) = 3.43555 3.82705 3.63657
# Velocity P-wave (km/s) = 6.24281 6.71209 6.48170
#
# Compressibility (1/GPa) = 0.02136156
#
# Stress axis : x y z
#
# Youngs Moduli (GPa) = 118.75331 118.75331 64.03705
#
# Poissons Ratio (x) = 0.17700 0.12991
# Poissons Ratio (y) = 0.17700 0.12991
# Poissons Ratio (z) = 0.24092 0.24092
#
# Static dielectric constant tensor:
#      x y z
#    x 1.749520 0.000000 0.000000 
#    y 0.000000 1.749520 0.000000 
#    z 0.000000 0.000000 1.762440 
# 
# From -- ./inp_files/3251.got.cif
#   From: 2010.05.17/outbox.cif.g08.bks.cpg/sg124_2_cif.got.tgz:3251.got - 2010.05.20 11:49:17.
