data_PCOD9562929
_publ_section_title
;
Structure prediction by ZEFSAII (Michael W. Deem and Ramdas Pophale) SiO2 
 PCOD9562929
Probable space group: P 4/N B M
;
_chemical_formula_sum "Si O2"
_cell_formula_units_Z 64
_cell_length_a 22.026053
_cell_length_b 22.026053
_cell_length_c 6.788702
_cell_angle_alpha 90.000000
_cell_angle_beta 90.000000
_cell_angle_gamma 90.000000
_cell_volume 3293.518482
_symmetry_space_group_name_H-M "P 4/N B M"
_symmetry_group_IT_number 125
_space_group.IT_coordinate_system_code '2'
_symmetry_cell_setting 'tetragonal'
loop_
_space_group_symop_operation_xyz
x,y,z
1/2-y,x,z
1/2-x,1/2-y,z
y,1/2-x,z
x,1/2-y,-z
1/2-x,y,-z
y,x,-z
1/2-y,1/2-x,-z
-x,-y,-z
1/2+y,-x,-z
1/2+x,1/2+y,-z
-y,1/2+x,-z
-x,1/2+y,z
1/2+x,-y,z
-y,-x,z
1/2+y,1/2+x,z
loop_
_atom_site_type_symbol
_atom_site_label
_atom_site_fract_x
_atom_site_fract_y
_atom_site_fract_z
Si Si1 0.405466 0.688638 0.089091
Si Si2 0.087871 0.177839 0.962475
Si Si3 0.512050 0.814023 0.598489
Si Si4 0.484948 0.613084 0.786140
O O1 0.354140 0.645861 0.174467
O O2 0.456404 0.698836 0.253053
O O3 0.380139 0.750000 0.000000
O O4 0.437429 0.654602 0.906481
O O5 0.066311 0.165548 0.739899
O O6 0.077686 0.250000 0.000000
O O7 0.156106 0.156106 0.000000
O O8 0.046496 0.133908 0.101527
O O9 0.527994 0.750000 0.500000
O O10 0.493186 0.863405 0.436262
O O11 0.454858 0.545143 0.794456
#
# Coordination Sequence:
#
# PCOD9562929 Si02
#       4
#    16  16  16  16
#     4  10  19  31  51  80 115 155 200 249 304 362
#     4  11  24  42  63  91 125 162 203 254 309 368
#     4  11  18  37  62  84 113 154 204 250 300 365
#     4  10  20  37  62  90 118 154 198 251 309 363
#
# _framework density 19.432106999999998
#
# number of rings (size 3 to 8) (size 9 to 14) (size 15 to 20)
#    0.000    1.500    5.000    2.250    0.000    3.000 
#    0.000    1.250    0.000    0.000    0.000    0.000 
#    0.000    0.000    0.000    0.000    0.000    0.000 
#
# Total GULP energy -356651.402978 kJ/mol
# GULP energy per Si atom -5572.678172 kJ/mol
# Density = 1.938788 g / cm^3
# Si number density = 19.432107 Si / 1000 Ang^3
#
#
#
# Elastic Constant Matrix: (Units=GPa)
#
#
# Indices 1 2 3 4 5 6 
#
# 1 55.0683 55.8021 26.4483 0.0000 0.0000 0.0000
# 2 55.8021 55.0683 26.4483 0.0000 0.0000 0.0000
# 3 26.4483 26.4483 117.3210 0.0000 0.0000 0.0000
# 4 0.0000 0.0000 0.0000 10.6893 0.0000 0.0000
# 5 0.0000 0.0000 0.0000 0.0000 10.6893 0.0000
# 6 0.0000 0.0000 0.0000 0.0000 0.0000 20.7938
#
#
#
# Elastic Compliance Matrix: (Units=1/GPa)
#
#
# Indices 1 2 3 4 5 6 
#
# 1 -0.676414 0.686521 -0.002278 0.000000 0.000000 0.000000
# 2 0.686521 -0.676414 -0.002278 0.000000 0.000000 0.000000
# 3 -0.002278 -0.002278 0.009551 0.000000 0.000000 0.000000
# 4 0.000000 0.000000 0.000000 0.093552 0.000000 0.000000
# 5 0.000000 0.000000 0.000000 0.000000 0.093552 0.000000
# 6 0.000000 0.000000 0.000000 0.000000 0.000000 0.048091
#
#
# Mechanical properties :
#
#
# Convention : Reuss Voigt Hill
#
# Bulk Modulus (GPa) = 48.42501 49.42835 48.92668
# Shear Modulus (GPa) = -2.02829 16.35172 7.16171
#
# Velocity S-wave (km/s) = -1.02277 2.90397 1.92185
# Velocity P-wave (km/s) = 4.85587 6.06100 5.49159
#
# Compressibility (1/GPa) = 0.02065049
#
# Stress axis : x y z
#
# Youngs Moduli (GPa) = -1.47838 -1.47838 104.70236
#
# Poissons Ratio (x) = 1.01494 0.23855
# Poissons Ratio (y) = 1.01494 0.23855
# Poissons Ratio (z) = -0.00337 -0.00337
#
# Static dielectric constant tensor:
#      x y z
#    x 1.709110 0.000000 0.000000 
#    y 0.000000 1.709110 0.000000 
#    z 0.000000 0.000000 1.680630 
# 
# From -- ./inp_files/945.got.cif
#   From: 2010.05.17/outbox.cif.g08.bks.cpg/sg125_1_cif.got.tgz:945.got - 2010.05.20 11:54:10.
