data_PCOD9562808
_publ_section_title
;
Structure prediction by ZEFSAII (Michael W. Deem and Ramdas Pophale) SiO2 
 PCOD9562808
Probable space group: P 4/M C C
;
_chemical_formula_sum "Si O2"
_cell_formula_units_Z 48
_cell_length_a 8.247506
_cell_length_b 8.247506
_cell_length_c 32.855566
_cell_angle_alpha 90.000000
_cell_angle_beta 90.000000
_cell_angle_gamma 90.000000
_cell_volume 2234.880126
_symmetry_space_group_name_H-M "P 4/M C C"
_symmetry_group_IT_number 124
_symmetry_cell_setting 'tetragonal'
loop_
_space_group_symop_operation_xyz
x,y,z
-y,x,z
-x,-y,z
y,-x,z
x,-y,1/2-z
-x,y,1/2-z
y,x,1/2-z
-y,-x,1/2-z
-x,-y,-z
y,-x,-z
x,y,-z
-y,x,-z
-x,y,1/2+z
x,-y,1/2+z
-y,-x,1/2+z
y,x,1/2+z
loop_
_atom_site_type_symbol
_atom_site_label
_atom_site_fract_x
_atom_site_fract_y
_atom_site_fract_z
Si Si1 0.194795 0.805206 0.250000
Si Si2 0.000000 0.500000 0.887318
Si Si3 0.260592 0.379531 0.166600
Si Si4 0.760697 0.581167 0.454266
O O1 0.312109 0.761812 0.212216
O O2 0.000000 0.782422 0.250000
O O3 0.096814 0.369064 0.859506
O O4 0.112963 0.600145 0.918472
O O5 0.430869 0.294952 0.157466
O O6 0.602916 0.693818 0.450501
O O7 0.826751 0.603247 0.500000
#
# Coordination Sequence:
#
# PCOD9562808 Si02
#       4
#     8   8  16  16
#     4  11  24  43  66  94 128 163 206 269 350 426
#     4  12  21  34  61  96 128 164 222 286 340 402
#     4  11  24  41  62  89 123 167 220 276 336 409
#     4   9  19  37  61  91 130 175 222 275 339 411
#
# _framework density 21.477661000000001
#
# number of rings (size 3 to 8) (size 9 to 14) (size 15 to 20)
#    0.000    1.500    0.000    6.500    0.000    5.333 
#    0.000    0.000    0.000    9.000    0.000   18.667 
#    0.000    0.000    0.000    0.000    0.000    0.000 
#
# Total GULP energy -267306.511504 kJ/mol
# GULP energy per Si atom -5568.885656 kJ/mol
# Density = 2.142878 g / cm^3
# Si number density = 21.477661 Si / 1000 Ang^3
#
#
#
# Elastic Constant Matrix: (Units=GPa)
#
#
# Indices 1 2 3 4 5 6 
#
# 1 76.9016 22.5058 63.0061 0.0000 0.0000 0.0000
# 2 22.5058 76.9023 63.0061 0.0000 0.0000 0.0000
# 3 63.0061 63.0061 185.5900 0.0000 0.0000 0.0000
# 4 0.0000 0.0000 0.0000 31.2632 0.0000 0.0000
# 5 0.0000 0.0000 0.0000 0.0000 31.2607 0.0000
# 6 0.0000 0.0000 0.0000 0.0000 0.0000 227.6903
#
#
#
# Elastic Compliance Matrix: (Units=1/GPa)
#
#
# Indices 1 2 3 4 5 6 
#
# 1 0.018022 -0.000362 -0.005995 0.000000 0.000000 0.000000
# 2 -0.000362 0.018021 -0.005995 0.000000 0.000000 0.000000
# 3 -0.005995 -0.005995 0.009459 0.000000 0.000000 0.000000
# 4 0.000000 0.000000 0.000000 0.031987 0.000000 0.000000
# 5 0.000000 0.000000 0.000000 0.000000 0.031989 0.000000
# 6 0.000000 0.000000 0.000000 0.000000 0.000000 0.004392
#
#
# Mechanical properties :
#
#
# Convention : Reuss Voigt Hill
#
# Bulk Modulus (GPa) = 48.08471 70.71444 59.39957
# Shear Modulus (GPa) = 34.36277 70.76789 52.56533
#
# Velocity S-wave (km/s) = 4.00425 5.74640 4.95253
# Velocity P-wave (km/s) = 6.61933 8.77634 7.77302
#
# Compressibility (1/GPa) = 0.02079663
#
# Stress axis : x y z
#
# Youngs Moduli (GPa) = 55.48923 55.48991 105.72170
#
# Poissons Ratio (x) = 0.02010 0.63382
# Poissons Ratio (y) = 0.02010 0.63381
# Poissons Ratio (z) = 0.33267 0.33267
#
# Static dielectric constant tensor:
#      x y z
#    x 1.901990 0.000000 0.000000 
#    y 0.000000 1.902000 0.000000 
#    z 0.000000 0.000000 1.834000 
# 
# From -- ./inp_files/6782.got.cif
#   From: 2010.05.17/outbox.cif.g08.bks.cpg/sg124_4_cif.got.tgz:6782.got - 2010.05.20 11:49:17.
