data_PCOD9562716
_publ_section_title
;
Structure prediction by ZEFSAII (Michael W. Deem and Ramdas Pophale) SiO2 
 PCOD9562716
Probable space group: P 4/M C C
;
_chemical_formula_sum "Si O2"
_cell_formula_units_Z 40
_cell_length_a 8.167936
_cell_length_b 8.167936
_cell_length_c 29.089653
_cell_angle_alpha 90.000000
_cell_angle_beta 90.000000
_cell_angle_gamma 90.000000
_cell_volume 1940.721392
_symmetry_space_group_name_H-M "P 4/M C C"
_symmetry_group_IT_number 124
_symmetry_cell_setting 'tetragonal'
loop_
_space_group_symop_operation_xyz
x,y,z
-y,x,z
-x,-y,z
y,-x,z
x,-y,1/2-z
-x,y,1/2-z
y,x,1/2-z
-y,-x,1/2-z
-x,-y,-z
y,-x,-z
x,y,-z
-y,x,-z
-x,y,1/2+z
x,-y,1/2+z
-y,-x,1/2+z
y,x,1/2+z
loop_
_atom_site_type_symbol
_atom_site_label
_atom_site_fract_x
_atom_site_fract_y
_atom_site_fract_z
Si Si1 0.500000 0.231738 0.750000
Si Si2 0.747301 0.116733 0.000000
Si Si3 0.399710 0.758424 0.094476
Si Si4 0.000000 0.500000 0.664853
O O1 0.656275 0.343726 0.750000
O O2 0.533700 0.137710 0.702686
O O3 0.645324 0.170378 0.044704
O O4 0.923342 0.210141 0.000000
O O5 0.295769 0.590721 0.099956
O O6 0.374646 0.905544 0.130878
#
# Coordination Sequence:
#
# PCOD9562716 Si02
#       4
#     8   8  16   8
#     4  10  22  42  66  92 122 160 206 256 320 396
#     4  11  24  41  62  93 132 170 212 267 326 379
#     4  11  23  40  64  92 124 168 217 262 315 383
#     4  11  22  37  64  94 122 155 204 265 314 368
#
# _framework density 20.610893000000001
#
# number of rings (size 3 to 8) (size 9 to 14) (size 15 to 20)
#    0.000    1.200    0.000    6.000    0.000    7.200 
#    0.000    0.000    0.000   40.800    0.000    0.000 
#    0.000    0.000    0.000    0.000    0.000    0.000 
#
# Total GULP energy -222751.019864 kJ/mol
# GULP energy per Si atom -5568.775497 kJ/mol
# Density = 2.056398 g / cm^3
# Si number density = 20.610893 Si / 1000 Ang^3
#
#
#
# Elastic Constant Matrix: (Units=GPa)
#
#
# Indices 1 2 3 4 5 6 
#
# 1 112.3582 45.1177 64.3791 0.0000 0.0000 0.0000
# 2 45.1177 112.3598 64.3789 0.0000 0.0000 0.0000
# 3 64.3791 64.3789 184.1857 0.0000 0.0000 0.0000
# 4 0.0000 0.0000 0.0000 -4.5976 0.0000 0.0000
# 5 0.0000 0.0000 0.0000 0.0000 -4.5863 0.0000
# 6 0.0000 0.0000 0.0000 0.0000 0.0000 21.1334
#
#
#
# Elastic Compliance Matrix: (Units=1/GPa)
#
#
# Indices 1 2 3 4 5 6 
#
# 1 0.011882 -0.002990 -0.003108 0.000000 0.000000 0.000000
# 2 -0.002990 0.011881 -0.003108 0.000000 0.000000 0.000000
# 3 -0.003108 -0.003108 0.007602 0.000000 0.000000 0.000000
# 4 0.000000 0.000000 0.000000 -0.217503 0.000000 0.000000
# 5 0.000000 0.000000 0.000000 0.000000 -0.218043 0.000000
# 6 0.000000 0.000000 0.000000 0.000000 0.000000 0.047319
#
#
# Mechanical properties :
#
#
# Convention : Reuss Voigt Hill
#
# Bulk Modulus (GPa) = 77.20152 84.07279 80.63716
# Shear Modulus (GPa) = -14.96408 18.05844 1.54718
#
# Velocity S-wave (km/s) = -2.69741 2.96321 0.86735
# Velocity P-wave (km/s) = 5.27604 7.25166 6.34126
#
# Compressibility (1/GPa) = 0.01295311
#
# Stress axis : x y z
#
# Youngs Moduli (GPa) = 84.16384 84.16546 131.54740
#
# Poissons Ratio (x) = 0.25168 0.40882
# Poissons Ratio (y) = 0.25168 0.40881
# Poissons Ratio (z) = 0.26156 0.26156
#
# Static dielectric constant tensor:
#      x y z
#    x 1.762640 0.000000 0.000000 
#    y 0.000000 1.762630 0.000000 
#    z 0.000000 0.000000 1.700520 
# 
# From -- ./inp_files/6343.got.cif
#   From: 2010.05.17/outbox.cif.g08.bks.cpg/sg124_4_cif.got.tgz:6343.got - 2010.05.20 11:49:17.
