data_PCOD9562120
_publ_section_title
;
Structure prediction by ZEFSAII (Michael W. Deem and Ramdas Pophale) SiO2 
 PCOD9562120
Probable space group: P 4/M M M
;
_chemical_formula_sum "Si O2"
_cell_formula_units_Z 96
_cell_length_a 19.853040
_cell_length_b 19.853040
_cell_length_c 14.098590
_cell_angle_alpha 90.000000
_cell_angle_beta 90.000000
_cell_angle_gamma 90.000000
_cell_volume 5556.863339
_symmetry_space_group_name_H-M "P 4/M M M"
_symmetry_group_IT_number 123
_symmetry_cell_setting 'tetragonal'
loop_
_space_group_symop_operation_xyz
x,y,z
-y,x,z
-x,-y,z
y,-x,z
x,-y,-z
-x,y,-z
y,x,-z
-y,-x,-z
-x,-y,-z
y,-x,-z
x,y,-z
-y,x,-z
-x,y,z
x,-y,z
-y,-x,z
y,x,z
loop_
_atom_site_type_symbol
_atom_site_label
_atom_site_fract_x
_atom_site_fract_y
_atom_site_fract_z
Si Si1 0.687768 0.580710 0.688215
Si Si2 0.317437 0.794332 0.612126
Si Si3 0.580208 0.104486 0.106879
Si Si4 0.580660 0.736339 0.897247
Si Si5 0.078248 0.190406 0.891468
Si Si6 0.075194 0.689378 0.743317
O O1 0.685212 0.500000 0.676026
O O2 0.619811 0.619811 0.658350
O O3 0.750396 0.615855 0.635136
O O4 0.700563 0.597627 0.799419
O O5 0.313766 0.806607 0.500000
O O6 0.254668 0.745333 0.639124
O O7 0.315981 0.863857 0.669551
O O8 0.500000 0.095526 0.119312
O O9 0.595770 0.184396 0.110515
O O10 0.623500 0.073640 0.190187
O O11 0.597145 0.080977 0.000000
O O12 0.500000 0.731326 0.901985
O O13 0.606772 0.712816 0.000000
O O14 0.128792 0.128792 0.875570
O O15 0.089212 0.249071 0.815583
O O16 0.000000 0.169267 0.884663
O O17 0.088980 0.215104 0.000000
O O18 0.000000 0.698902 0.701694
#
# Coordination Sequence:
#
# PCOD9562120 Si02
#       6
#    16  16  16  16  16  16
#     4  10  20  35  56  80 106 136 171 214 264 314
#     4  10  22  40  59  76  97 131 174 215 261 322
#     4   9  17  30  48  72 106 145 179 207 239 289
#     4   8  14  27  48  72 100 135 172 207 241 284
#     4   9  18  32  50  75 108 143 176 209 248 297
#     4  11  21  33  53  79 108 136 167 216 266 305
#
# _framework density 17.275932999999998
#
# number of rings (size 3 to 8) (size 9 to 14) (size 15 to 20)
#    0.000    2.500    1.667    2.000    0.000    2.667 
#    0.000    1.667    0.000    0.000    0.000    7.000 
#    0.000    0.000    0.000   15.500    0.000    0.167 
#
# Total GULP energy -534946.585387 kJ/mol
# GULP energy per Si atom -5572.360264 kJ/mol
# Density = 1.723661 g / cm^3
# Si number density = 17.275933 Si / 1000 Ang^3
#
#
#
# Elastic Constant Matrix: (Units=GPa)
#
#
# Indices 1 2 3 4 5 6 
#
# 1 108.6035 58.2858 49.8941 0.0000 0.0000 0.0000
# 2 58.2858 108.6035 49.8941 0.0000 0.0000 0.0000
# 3 49.8941 49.8941 65.1506 0.0000 0.0000 0.0000
# 4 0.0000 0.0000 0.0000 5.7918 0.0000 0.0000
# 5 0.0000 0.0000 0.0000 0.0000 5.7918 0.0000
# 6 0.0000 0.0000 0.0000 0.0000 0.0000 20.5963
#
#
#
# Elastic Compliance Matrix: (Units=1/GPa)
#
#
# Indices 1 2 3 4 5 6 
#
# 1 0.015464 -0.004410 -0.008465 0.000000 0.000000 0.000000
# 2 -0.004410 0.015464 -0.008465 0.000000 0.000000 0.000000
# 3 -0.008465 -0.008465 0.028315 0.000000 0.000000 0.000000
# 4 0.000000 0.000000 0.000000 0.172657 0.000000 0.000000
# 5 0.000000 0.000000 0.000000 0.000000 0.172657 0.000000
# 6 0.000000 0.000000 0.000000 0.000000 0.000000 0.048552
#
#
# Mechanical properties :
#
#
# Convention : Reuss Voigt Hill
#
# Bulk Modulus (GPa) = 60.38161 66.50064 63.44112
# Shear Modulus (GPa) = 9.97390 14.72157 12.34773
#
# Velocity S-wave (km/s) = 2.40537 2.92232 2.67636
# Velocity P-wave (km/s) = 6.53771 7.06848 6.80827
#
# Compressibility (1/GPa) = 0.01656133
#
# Stress axis : x y z
#
# Youngs Moduli (GPa) = 64.66789 64.66789 35.31741
#
# Poissons Ratio (x) = 0.28519 0.29897
# Poissons Ratio (y) = 0.28519 0.29897
# Poissons Ratio (z) = 0.54742 0.54742
#
# Static dielectric constant tensor:
#      x y z
#    x 1.599250 0.000000 0.000000 
#    y 0.000000 1.599250 0.000000 
#    z 0.000000 0.000000 1.591800 
# 
# From -- ./inp_files/3147.got.cif
#   From: 2010.05.17/outbox.cif.g08.bks.cpg/sg123_2_cif.got.tgz:3147.got - 2010.05.20 11:43:04.
