data_PCOD9562220
_publ_section_title
;
Structure prediction by ZEFSAII (Michael W. Deem and Ramdas Pophale) SiO2 
 PCOD9562220
Probable space group: P 4/M M M
;
_chemical_formula_sum "Si O2"
_cell_formula_units_Z 72
_cell_length_a 20.825914
_cell_length_b 20.825914
_cell_length_c 8.829962
_cell_angle_alpha 90.000000
_cell_angle_beta 90.000000
_cell_angle_gamma 90.000000
_cell_volume 3829.719586
_symmetry_space_group_name_H-M "P 4/M M M"
_symmetry_group_IT_number 123
_symmetry_cell_setting 'tetragonal'
loop_
_space_group_symop_operation_xyz
x,y,z
-y,x,z
-x,-y,z
y,-x,z
x,-y,-z
-x,y,-z
y,x,-z
-y,-x,-z
-x,-y,-z
y,-x,-z
x,y,-z
-y,x,-z
-x,y,z
x,-y,z
-y,-x,z
y,x,z
loop_
_atom_site_type_symbol
_atom_site_label
_atom_site_fract_x
_atom_site_fract_y
_atom_site_fract_z
Si Si1 0.500000 0.752858 0.683841
Si Si2 0.272284 0.833290 0.170745
Si Si3 0.177230 0.925162 0.673931
Si Si4 0.393010 0.500000 0.183153
Si Si5 0.576889 0.000000 0.829344
Si Si6 0.861395 0.601177 0.675939
O O1 0.500000 0.746005 0.500000
O O2 0.500000 0.680096 0.750885
O O3 0.441522 0.800621 0.729660
O O4 0.231954 0.768047 0.182117
O O5 0.222926 0.890015 0.208222
O O6 0.327180 0.838841 0.293178
O O7 0.298150 0.839200 0.000000
O O8 0.200229 0.913677 0.500000
O O9 0.108228 0.891773 0.684605
O O10 0.174842 0.000000 0.699495
O O11 0.437176 0.437176 0.224897
O O12 0.388103 0.500000 0.000000
O O13 0.594166 0.931794 0.752043
O O14 0.500000 0.000000 0.834888
O O15 0.603395 0.000000 0.000000
O O16 0.870609 0.585884 0.500000
#
# Coordination Sequence:
#
# PCOD9562220 Si02
#       6
#     8  16  16   8   8  16
#     4  10  23  40  60  90 122 154 193 238 288 344
#     4  10  22  39  57  80 112 149 192 241 290 343
#     4   9  18  33  53  77 105 139 180 228 285 345
#     4   9  20  40  65  93 125 162 202 243 292 352
#     4  11  23  39  61  89 119 153 196 245 294 351
#     4  11  23  40  61  85 118 157 197 241 295 355
#
# _framework density 18.800332000000001
#
# number of rings (size 3 to 8) (size 9 to 14) (size 15 to 20)
#    0.000    2.000    1.111    2.000    1.556    5.556 
#    0.000    6.111    0.000    0.000    0.000    3.111 
#    0.000    0.000    0.000    0.000    0.000    0.000 
#
# Total GULP energy -401123.145357 kJ/mol
# GULP energy per Si atom -5571.154797 kJ/mol
# Density = 1.875754 g / cm^3
# Si number density = 18.800332 Si / 1000 Ang^3
#
#
#
# Elastic Constant Matrix: (Units=GPa)
#
#
# Indices 1 2 3 4 5 6 
#
# 1 106.9795 51.7991 29.7107 0.0000 0.0000 0.0000
# 2 51.7991 106.9795 29.7107 0.0000 0.0000 0.0000
# 3 29.7107 29.7107 45.7362 0.0000 0.0000 0.0000
# 4 0.0000 0.0000 0.0000 13.6768 0.0000 0.0000
# 5 0.0000 0.0000 0.0000 0.0000 13.6768 0.0000
# 6 0.0000 0.0000 0.0000 0.0000 0.0000 -22.5674
#
#
#
# Elastic Compliance Matrix: (Units=1/GPa)
#
#
# Indices 1 2 3 4 5 6 
#
# 1 0.013222 -0.004901 -0.005405 0.000000 0.000000 0.000000
# 2 -0.004901 0.013222 -0.005405 0.000000 0.000000 0.000000
# 3 -0.005405 -0.005405 0.028887 0.000000 0.000000 0.000000
# 4 0.000000 0.000000 0.000000 0.073117 0.000000 0.000000
# 5 0.000000 0.000000 0.000000 0.000000 0.073117 0.000000
# 6 0.000000 0.000000 0.000000 0.000000 0.000000 -0.044312
#
#
# Mechanical properties :
#
#
# Convention : Reuss Voigt Hill
#
# Bulk Modulus (GPa) = 41.82749 53.57069 47.69909
# Shear Modulus (GPa) = 25.42657 10.85553 18.14105
#
# Velocity S-wave (km/s) = 3.68156 2.40555 3.10971
# Velocity P-wave (km/s) = 6.35362 6.02262 6.19033
#
# Compressibility (1/GPa) = 0.02390772
#
# Stress axis : x y z
#
# Youngs Moduli (GPa) = 75.63321 75.63321 34.61720
#
# Poissons Ratio (x) = 0.37066 0.18712
# Poissons Ratio (y) = 0.37066 0.18712
# Poissons Ratio (z) = 0.40883 0.40883
#
# Static dielectric constant tensor:
#      x y z
#    x 1.656040 0.000000 0.000000 
#    y 0.000000 1.656040 0.000000 
#    z 0.000000 0.000000 1.688610 
# 
# From -- ./inp_files/1210.got.cif
#   From: 2010.05.17/outbox.cif.g08.bks.cpg/sg123_1_cif.got.tgz:1210.got - 2010.05.20 11:43:04.
