data_PCOD9562683
_publ_section_title
;
Structure prediction by ZEFSAII (Michael W. Deem and Ramdas Pophale) SiO2 
 PCOD9562683
Probable space group: P 4/M C C
;
_chemical_formula_sum "Si O2"
_cell_formula_units_Z 96
_cell_length_a 13.236962
_cell_length_b 13.236962
_cell_length_c 24.979491
_cell_angle_alpha 90.000000
_cell_angle_beta 90.000000
_cell_angle_gamma 90.000000
_cell_volume 4376.835546
_symmetry_space_group_name_H-M "P 4/M C C"
_symmetry_group_IT_number 124
_symmetry_cell_setting 'tetragonal'
loop_
_space_group_symop_operation_xyz
x,y,z
-y,x,z
-x,-y,z
y,-x,z
x,-y,1/2-z
-x,y,1/2-z
y,x,1/2-z
-y,-x,1/2-z
-x,-y,-z
y,-x,-z
x,y,-z
-y,x,-z
-x,y,1/2+z
x,-y,1/2+z
-y,-x,1/2+z
y,x,1/2+z
loop_
_atom_site_type_symbol
_atom_site_label
_atom_site_fract_x
_atom_site_fract_y
_atom_site_fract_z
Si Si1 0.658275 0.813545 0.118561
Si Si2 0.625118 0.387056 0.812908
Si Si3 0.542622 0.892866 0.589274
Si Si4 0.226099 0.862393 0.060365
Si Si5 0.982953 0.634841 0.190392
Si Si6 0.950250 0.155493 0.667345
O O1 0.666388 0.711306 0.152918
O O2 0.551207 0.817139 0.087343
O O3 0.752795 0.813599 0.078836
O O4 0.655762 0.913334 0.156838
O O5 0.637594 0.507590 0.823600
O O6 0.636295 0.363706 0.750000
O O7 0.651077 0.865239 0.565155
O O8 0.500000 0.000000 0.567704
O O9 0.566268 0.914249 0.652289
O O10 0.181266 0.938670 0.104388
O O11 0.197224 0.886184 0.000000
O O12 0.000000 0.599574 0.250000
O O13 0.925615 0.741294 0.196162
O O14 0.062686 0.120850 0.680546
#
# Coordination Sequence:
#
# PCOD9562683 Si02
#       6
#    16  16  16  16  16  16
#     4  11  21  39  60  87 123 162 202 261 305 370
#     4   9  19  34  55  86 119 154 195 241 302 370
#     4   9  22  42  62  89 129 162 202 264 320 375
#     4  11  24  41  64  92 118 159 217 264 315 382
#     4  10  22  39  62  92 125 164 208 246 306 380
#     4  10  21  42  61  85 125 157 203 257 311 373
#
# _framework density 21.933655999999999
#
# number of rings (size 3 to 8) (size 9 to 14) (size 15 to 20)
#    0.000    2.000    1.667    1.500    0.000   10.667 
#    0.000    1.667    0.000    0.000    0.000    3.500 
#    0.000    0.000    0.000    0.000    0.000    0.000 
#
# Total GULP energy -536345.712066 kJ/mol
# GULP energy per Si atom -5586.934501 kJ/mol
# Density = 2.188373 g / cm^3
# Si number density = 21.933656 Si / 1000 Ang^3
#
#
#
# Elastic Constant Matrix: (Units=GPa)
#
#
# Indices 1 2 3 4 5 6 
#
# 1 78.4405 1.2833 -10.6057 0.0000 0.0000 0.0000
# 2 1.2833 78.4407 -10.6058 0.0000 0.0000 0.0000
# 3 -10.6057 -10.6058 57.8925 0.0000 0.0000 0.0000
# 4 0.0000 0.0000 0.0000 5.9916 0.0000 0.0000
# 5 0.0000 0.0000 0.0000 0.0000 5.9915 0.0000
# 6 0.0000 0.0000 0.0000 0.0000 0.0000 21.3944
#
#
#
# Elastic Compliance Matrix: (Units=1/GPa)
#
#
# Indices 1 2 3 4 5 6 
#
# 1 0.013073 0.000113 0.002416 0.000000 0.000000 0.000000
# 2 0.000113 0.013073 0.002416 0.000000 0.000000 0.000000
# 3 0.002416 0.002416 0.018158 0.000000 0.000000 0.000000
# 4 0.000000 0.000000 0.000000 0.166901 0.000000 0.000000
# 5 0.000000 0.000000 0.000000 0.000000 0.166902 0.000000
# 6 0.000000 0.000000 0.000000 0.000000 0.000000 0.046741
#
#
# Mechanical properties :
#
#
# Convention : Reuss Voigt Hill
#
# Bulk Modulus (GPa) = 18.45255 19.43524 18.94390
# Shear Modulus (GPa) = 11.54666 22.32230 16.93448
#
# Velocity S-wave (km/s) = 2.29691 3.19363 2.78164
# Velocity P-wave (km/s) = 3.93262 4.74122 4.35573
#
# Compressibility (1/GPa) = 0.05419305
#
# Stress axis : x y z
#
# Youngs Moduli (GPa) = 76.49185 76.49204 55.07071
#
# Poissons Ratio (x) = -0.00862 -0.13303
# Poissons Ratio (y) = -0.00862 -0.13303
# Poissons Ratio (z) = -0.18478 -0.18478
#
# Static dielectric constant tensor:
#      x y z
#    x 1.825200 0.000000 0.000000 
#    y 0.000000 1.825200 0.000000 
#    z 0.000000 0.000000 1.776270 
# 
# From -- ./inp_files/5344.got.cif
#   From: 2010.05.17/outbox.cif.g08.bks.cpg/sg124_3_cif.got.tgz:5344.got - 2010.05.20 11:49:17.
