data_PCOD9563865
_publ_section_title
;
Structure prediction by ZEFSAII (Michael W. Deem and Ramdas Pophale) SiO2 
 PCOD9563865
Probable space group: P 4/M B M
;
_chemical_formula_sum "Si O2"
_cell_formula_units_Z 104
_cell_length_a 15.456496
_cell_length_b 15.456496
_cell_length_c 22.582303
_cell_angle_alpha 90.000000
_cell_angle_beta 90.000000
_cell_angle_gamma 90.000000
_cell_volume 5394.985999
_symmetry_space_group_name_H-M "P 4/M B M"
_symmetry_group_IT_number 127
_symmetry_cell_setting 'tetragonal'
loop_
_space_group_symop_operation_xyz
x,y,z
-y,x,z
-x,-y,z
y,-x,z
1/2+x,1/2-y,-z
1/2-x,1/2+y,-z
1/2+y,1/2+x,-z
1/2-y,1/2-x,-z
-x,-y,-z
y,-x,-z
x,y,-z
-y,x,-z
1/2-x,1/2+y,z
1/2+x,1/2-y,z
1/2-y,1/2-x,z
1/2+y,1/2+x,z
loop_
_atom_site_type_symbol
_atom_site_label
_atom_site_fract_x
_atom_site_fract_y
_atom_site_fract_z
Si Si1 0.597831 0.607609 0.000000
Si Si2 0.259070 0.900140 0.330866
Si Si3 0.830780 0.182595 0.226724
Si Si4 0.003542 0.636902 0.897702
Si Si5 0.029626 0.141948 0.430979
Si Si6 0.532556 0.826483 0.762373
Si Si7 0.127850 0.223717 0.101529
O O1 0.495466 0.615926 0.000000
O O2 0.645864 0.645700 0.942831
O O3 0.318861 0.818861 0.348416
O O4 0.182084 0.867873 0.287672
O O5 0.218786 0.949450 0.386246
O O6 0.314302 0.961313 0.287384
O O7 0.754482 0.254482 0.225714
O O8 0.919195 0.235593 0.225739
O O9 0.813217 0.126239 0.168290
O O10 0.935815 0.564186 0.918327
O O11 0.961211 0.727286 0.916313
O O12 0.099159 0.599159 0.912500
O O13 0.999106 0.641903 0.826066
O O14 0.034975 0.167850 0.500000
O O15 0.935596 0.098859 0.421575
O O16 0.604643 0.895358 0.742662
O O17 0.203775 0.296226 0.098627
#
# Coordination Sequence:
#
# PCOD9563865 Si02
#       7
#     8  16  16  16  16  16  16
#     4  11  27  44  56  75 107 147 184 225 280 341
#     4  11  20  32  52  82 115 145 181 227 278 328
#     4   9  19  32  51  80 110 139 176 223 268 317
#     4   9  17  31  54  82 109 136 169 216 274 328
#     4   9  19  37  58  78 105 145 192 238 280 326
#     4  10  19  31  50  79 113 146 176 213 266 328
#     4  10  20  39  61  81 107 141 184 232 278 329
#
# _framework density 19.277158
#
# number of rings (size 3 to 8) (size 9 to 14) (size 15 to 20)
#    0.000    2.231    1.538    2.077    2.154    1.231 
#    0.000    1.154    0.000    5.077    0.000    1.077 
#    0.000    0.000    0.000    0.000    0.000    0.000 
#
# Total GULP energy -580133.669953 kJ/mol
# GULP energy per Si atom -5578.208365 kJ/mol
# Density = 1.923328 g / cm^3
# Si number density = 19.277158 Si / 1000 Ang^3
#
#
#
# Elastic Constant Matrix: (Units=GPa)
#
#
# Indices 1 2 3 4 5 6 
#
# 1 48.9935 2.0907 4.0505 0.0000 0.0000 0.0000
# 2 2.0907 48.9935 4.0505 0.0000 0.0000 0.0000
# 3 4.0505 4.0505 42.4798 0.0000 0.0000 0.0000
# 4 0.0000 0.0000 0.0000 19.7730 0.0000 0.0000
# 5 0.0000 0.0000 0.0000 0.0000 19.7730 0.0000
# 6 0.0000 0.0000 0.0000 0.0000 0.0000 27.9609
#
#
#
# Elastic Compliance Matrix: (Units=1/GPa)
#
#
# Indices 1 2 3 4 5 6 
#
# 1 0.020598 -0.000722 -0.001895 0.000000 0.000000 0.000000
# 2 -0.000722 0.020598 -0.001895 0.000000 0.000000 0.000000
# 3 -0.001895 -0.001895 0.023902 0.000000 0.000000 0.000000
# 4 0.000000 0.000000 0.000000 0.050574 0.000000 0.000000
# 5 0.000000 0.000000 0.000000 0.000000 0.050574 0.000000
# 6 0.000000 0.000000 0.000000 0.000000 0.000000 0.035764
#
#
# Mechanical properties :
#
#
# Convention : Reuss Voigt Hill
#
# Bulk Modulus (GPa) = 17.83379 17.87224 17.85302
# Shear Modulus (GPa) = 21.76489 22.18637 21.97563
#
# Velocity S-wave (km/s) = 3.36378 3.39619 3.38003
# Velocity P-wave (km/s) = 4.93539 4.96691 4.95117
#
# Compressibility (1/GPa) = 0.05607334
#
# Stress axis : x y z
#
# Youngs Moduli (GPa) = 48.54753 48.54753 41.83745
#
# Poissons Ratio (x) = 0.03507 0.07929
# Poissons Ratio (y) = 0.03507 0.07929
# Poissons Ratio (z) = 0.09201 0.09201
#
# Static dielectric constant tensor:
#      x y z
#    x 1.694960 0.000000 0.000000 
#    y 0.000000 1.694960 0.000000 
#    z 0.000000 0.000000 1.646810 
# 
# From -- ./inp_files/6193.got.cif
#   From: 2010.05.17/outbox.cif.g08.bks.cpg/sg127_4_cif.got.tgz:6193.got - 2010.05.20 12:03:00.
