data_PCOD9563667
_publ_section_title
;
Structure prediction by ZEFSAII (Michael W. Deem and Ramdas Pophale) SiO2 
 PCOD9563667
Probable space group: P 4/N N C
;
_chemical_formula_sum "Si O2"
_cell_formula_units_Z 36
_cell_length_a 8.385485
_cell_length_b 8.385485
_cell_length_c 23.717590
_cell_angle_alpha 90.000000
_cell_angle_beta 90.000000
_cell_angle_gamma 90.000000
_cell_volume 1667.734566
_symmetry_space_group_name_H-M "P 4/N N C"
_symmetry_group_IT_number 126
_space_group.IT_coordinate_system_code '2'
_symmetry_cell_setting 'tetragonal'
loop_
_space_group_symop_operation_xyz
x,y,z
1/2-y,x,z
1/2-x,1/2-y,z
y,1/2-x,z
x,1/2-y,1/2-z
1/2-x,y,1/2-z
y,x,1/2-z
1/2-y,1/2-x,1/2-z
-x,-y,-z
1/2+y,-x,-z
1/2+x,1/2+y,-z
-y,1/2+x,-z
-x,1/2+y,1/2+z
1/2+x,-y,1/2+z
-y,-x,1/2+z
1/2+y,1/2+x,1/2+z
loop_
_atom_site_type_symbol
_atom_site_label
_atom_site_fract_x
_atom_site_fract_y
_atom_site_fract_z
Si Si1 0.791502 0.013850 0.185482
Si Si2 0.816327 0.489769 0.904338
Si Si3 0.250000 0.750000 0.500000
O O1 0.626508 0.921845 0.173699
O O2 0.750000 0.060616 0.250000
O O3 0.876014 0.150093 0.148949
O O4 0.935832 0.639445 0.904183
O O5 0.831621 0.379761 0.959468
#
# Coordination Sequence:
#
# PCOD9563667 Si02
#       3
#    16  16   4
#     4   9  19  40  67  95 128 170 213 255 318 397
#     4  11  24  42  67  98 129 167 217 274 331 381
#     4  12  24  44  66  88 128 176 216 266 324 404
#
# _framework density 21.586171
#
# number of rings (size 3 to 8) (size 9 to 14) (size 15 to 20)
#    0.000    1.778    0.000    5.333    0.000    0.000 
#    0.000   36.667    0.000   21.333    0.000    0.000 
#    0.000    0.000    0.000    0.000    0.000    0.000 
#
# Total GULP energy -200506.093962 kJ/mol
# GULP energy per Si atom -5569.613721 kJ/mol
# Density = 2.153704 g / cm^3
# Si number density = 21.586171 Si / 1000 Ang^3
#
#
#
# Elastic Constant Matrix: (Units=GPa)
#
#
# Indices 1 2 3 4 5 6 
#
# 1 79.3257 81.7059 58.8719 0.0000 0.0000 0.0000
# 2 81.7059 79.3257 58.8719 0.0000 0.0000 0.0000
# 3 58.8719 58.8719 118.5312 0.0000 0.0000 0.0000
# 4 0.0000 0.0000 0.0000 30.3316 0.0000 0.0000
# 5 0.0000 0.0000 0.0000 0.0000 30.3316 0.0000
# 6 0.0000 0.0000 0.0000 0.0000 0.0000 73.6530
#
#
#
# Elastic Compliance Matrix: (Units=1/GPa)
#
#
# Indices 1 2 3 4 5 6 
#
# 1 -0.205190 0.214941 -0.004843 0.000000 0.000000 0.000000
# 2 0.214941 -0.205190 -0.004843 0.000000 0.000000 0.000000
# 3 -0.004843 -0.004843 0.013248 0.000000 0.000000 0.000000
# 4 0.000000 0.000000 0.000000 0.032969 0.000000 0.000000
# 5 0.000000 0.000000 0.000000 0.000000 0.032969 0.000000
# 6 0.000000 0.000000 0.000000 0.000000 0.000000 0.013577
#
#
# Mechanical properties :
#
#
# Convention : Reuss Voigt Hill
#
# Bulk Modulus (GPa) = 74.75392 75.12021 74.93707
# Shear Modulus (GPa) = -6.90926 32.04545 12.56810
#
# Velocity S-wave (km/s) = -1.79101 3.85715 2.41556
# Velocity P-wave (km/s) = 5.51622 7.39679 6.52461
#
# Compressibility (1/GPa) = 0.01337722
#
# Stress axis : x y z
#
# Youngs Moduli (GPa) = -4.87354 -4.87354 75.48506
#
# Poissons Ratio (x) = 1.04752 0.36559
# Poissons Ratio (y) = 1.04752 0.36559
# Poissons Ratio (z) = -0.02360 -0.02360
#
# Static dielectric constant tensor:
#      x y z
#    x 1.868240 0.000000 0.000000 
#    y 0.000000 1.868240 0.000000 
#    z 0.000000 0.000000 1.795410 
# 
# From -- ./inp_files/4776.got.cif
#   From: 2010.05.17/outbox.cif.g08.bks.cpg/sg126_3_cif.got.tgz:4776.got - 2010.05.20 11:58:20.
