data_PCOD9563866
_publ_section_title
;
Structure prediction by ZEFSAII (Michael W. Deem and Ramdas Pophale) SiO2 
 PCOD9563866
Probable space group: P 4/M B M
;
_chemical_formula_sum "Si O2"
_cell_formula_units_Z 80
_cell_length_a 17.477190
_cell_length_b 17.477190
_cell_length_c 13.547168
_cell_angle_alpha 90.000000
_cell_angle_beta 90.000000
_cell_angle_gamma 90.000000
_cell_volume 4138.011867
_symmetry_space_group_name_H-M "P 4/M B M"
_symmetry_group_IT_number 127
_symmetry_cell_setting 'tetragonal'
loop_
_space_group_symop_operation_xyz
x,y,z
-y,x,z
-x,-y,z
y,-x,z
1/2+x,1/2-y,-z
1/2-x,1/2+y,-z
1/2+y,1/2+x,-z
1/2-y,1/2-x,-z
-x,-y,-z
y,-x,-z
x,y,-z
-y,x,-z
1/2-x,1/2+y,z
1/2+x,1/2-y,z
1/2-y,1/2-x,z
1/2+y,1/2+x,z
loop_
_atom_site_type_symbol
_atom_site_label
_atom_site_fract_x
_atom_site_fract_y
_atom_site_fract_z
Si Si1 0.951431 0.112544 0.380518
Si Si2 0.892424 0.062136 0.881398
Si Si3 0.626366 0.995187 0.113807
Si Si4 0.189251 0.191468 0.382959
Si Si5 0.235116 0.390912 0.790487
O O1 0.956690 0.113332 0.500000
O O2 0.897082 0.182128 0.352338
O O3 0.037689 0.097349 0.349445
O O4 0.816308 0.103316 0.844769
O O5 0.972516 0.101719 0.850946
O O6 0.891426 0.062401 0.000000
O O7 0.584685 0.915315 0.139670
O O8 0.558583 0.058583 0.113131
O O9 0.690056 0.030901 0.185159
O O10 0.655039 0.990187 0.000000
O O11 0.173635 0.196782 0.500000
O O12 0.271235 0.228766 0.363591
O O13 0.129069 0.242764 0.321970
O O14 0.178634 0.321367 0.823710
#
# Coordination Sequence:
#
# PCOD9563866 Si02
#       5
#    16  16  16  16  16
#     4   8  14  26  46  70  90 110 147 201 249 283
#     4   9  19  36  55  75 103 137 165 191 238 307
#     4   8  14  26  46  72  98 121 149 192 247 299
#     4   9  18  31  45  65  98 136 168 200 243 293
#     4  10  19  31  51  76 100 131 171 211 248 288
#
# _framework density 19.332957
#
# number of rings (size 3 to 8) (size 9 to 14) (size 15 to 20)
#    0.000    3.200    0.000    2.400    0.000    2.800 
#    0.000    3.000    0.000    3.000    0.000    7.000 
#    0.000    0.000    0.000    0.000    0.000    0.000 
#
# Total GULP energy -445468.027758 kJ/mol
# GULP energy per Si atom -5568.350347 kJ/mol
# Density = 1.928895 g / cm^3
# Si number density = 19.332957 Si / 1000 Ang^3
#
#
#
# Elastic Constant Matrix: (Units=GPa)
#
#
# Indices 1 2 3 4 5 6 
#
# 1 70.3097 39.8316 10.4754 0.0000 0.0000 0.0000
# 2 39.8316 70.3097 10.4754 0.0000 0.0000 0.0000
# 3 10.4754 10.4754 35.2240 0.0000 0.0000 0.0000
# 4 0.0000 0.0000 0.0000 19.9546 0.0000 0.0000
# 5 0.0000 0.0000 0.0000 0.0000 19.9546 0.0000
# 6 0.0000 0.0000 0.0000 0.0000 0.0000 19.6757
#
#
#
# Elastic Compliance Matrix: (Units=1/GPa)
#
#
# Indices 1 2 3 4 5 6 
#
# 1 0.021217 -0.011593 -0.002862 0.000000 0.000000 0.000000
# 2 -0.011593 0.021217 -0.002862 0.000000 0.000000 0.000000
# 3 -0.002862 -0.002862 0.030092 0.000000 0.000000 0.000000
# 4 0.000000 0.000000 0.000000 0.050114 0.000000 0.000000
# 5 0.000000 0.000000 0.000000 0.000000 0.050114 0.000000
# 6 0.000000 0.000000 0.000000 0.000000 0.000000 0.050824
#
#
# Mechanical properties :
#
#
# Convention : Reuss Voigt Hill
#
# Bulk Modulus (GPa) = 26.39130 33.04536 29.71833
# Shear Modulus (GPa) = 18.46089 19.58773 19.02431
#
# Velocity S-wave (km/s) = 3.09349 3.18650 3.14034
# Velocity P-wave (km/s) = 5.14199 5.53789 5.34361
#
# Compressibility (1/GPa) = 0.03789127
#
# Stress axis : x y z
#
# Youngs Moduli (GPa) = 47.13189 47.13189 33.23143
#
# Poissons Ratio (x) = 0.54642 0.09511
# Poissons Ratio (y) = 0.54642 0.09511
# Poissons Ratio (z) = 0.13489 0.13489
#
# Static dielectric constant tensor:
#      x y z
#    x 1.687860 0.000000 0.000000 
#    y 0.000000 1.687860 0.000000 
#    z 0.000000 0.000000 1.733630 
# 
# From -- ./inp_files/4250.got.cif
#   From: 2010.05.17/outbox.cif.g08.bks.cpg/sg127_3_cif.got.tgz:4250.got - 2010.05.20 12:03:00.
