data_PCOD9563844
_publ_section_title
;
Structure prediction by ZEFSAII (Michael W. Deem and Ramdas Pophale) SiO2 
 PCOD9563844
Probable space group: P 4/M B M
;
_chemical_formula_sum "Si O2"
_cell_formula_units_Z 96
_cell_length_a 23.636403
_cell_length_b 23.636403
_cell_length_c 7.401566
_cell_angle_alpha 90.000000
_cell_angle_beta 90.000000
_cell_angle_gamma 90.000000
_cell_volume 4135.103538
_symmetry_space_group_name_H-M "P 4/M B M"
_symmetry_group_IT_number 127
_symmetry_cell_setting 'tetragonal'
loop_
_space_group_symop_operation_xyz
x,y,z
-y,x,z
-x,-y,z
y,-x,z
1/2+x,1/2-y,-z
1/2-x,1/2+y,-z
1/2+y,1/2+x,-z
1/2-y,1/2-x,-z
-x,-y,-z
y,-x,-z
x,y,-z
-y,x,-z
1/2-x,1/2+y,z
1/2+x,1/2-y,z
1/2-y,1/2-x,z
1/2+y,1/2+x,z
loop_
_atom_site_type_symbol
_atom_site_label
_atom_site_fract_x
_atom_site_fract_y
_atom_site_fract_z
Si Si1 0.797261 0.917891 0.290319
Si Si2 0.519313 0.108001 0.294336
Si Si3 0.913160 0.970949 0.720466
Si Si4 0.285990 0.306571 0.219458
Si Si5 0.895098 0.701209 0.204224
Si Si6 0.672381 0.913627 0.278200
O O1 0.794516 0.935243 0.500000
O O2 0.852504 0.948846 0.214175
O O3 0.803926 0.850146 0.281022
O O4 0.734930 0.927948 0.212117
O O5 0.507696 0.090798 0.500000
O O6 0.558610 0.058610 0.212232
O O7 0.556869 0.165240 0.299419
O O8 0.460664 0.127998 0.213959
O O9 0.912438 0.969946 0.500000
O O10 0.965409 0.930361 0.774563
O O11 0.246561 0.253440 0.277102
O O12 0.256797 0.365428 0.280961
O O13 0.284820 0.307210 0.000000
O O14 0.842426 0.657575 0.194926
O O15 0.914801 0.712289 0.000000
O O16 0.673653 0.915247 0.500000
O O17 0.647751 0.852250 0.228004
#
# Coordination Sequence:
#
# PCOD9563844 Si02
#       6
#    16  16  16  16  16  16
#     4  10  19  30  49  74  94 119 158 201 241 278
#     4   9  17  29  47  70  93 122 163 203 235 276
#     4   8  15  29  48  71  99 127 155 190 235 289
#     4   9  18  32  48  67  96 133 165 193 235 293
#     4   8  15  29  47  66  91 122 152 188 238 285
#     4   9  18  31  45  66  99 130 156 197 248 285
#
# _framework density 23.215862999999999
#
# number of rings (size 3 to 8) (size 9 to 14) (size 15 to 20)
#    0.000    3.167    0.000    2.000    0.000    3.333 
#    0.000    7.500    0.000    2.500    0.000    3.500 
#    0.000    0.000    0.000    0.000    0.000    0.000 
#
# Total GULP energy -535484.459153 kJ/mol
# GULP energy per Si atom -5577.963116 kJ/mol
# Density = 2.316302 g / cm^3
# Si number density = 23.215863 Si / 1000 Ang^3
#
#
#
# Elastic Constant Matrix: (Units=GPa)
#
#
# Indices 1 2 3 4 5 6 
#
# 1 134.8571 94.4693 4.1078 0.0000 0.0000 0.0000
# 2 94.4693 134.8571 4.1078 0.0000 0.0000 0.0000
# 3 4.1078 4.1078 78.6162 0.0000 0.0000 0.0000
# 4 0.0000 0.0000 0.0000 18.9345 0.0000 0.0000
# 5 0.0000 0.0000 0.0000 0.0000 18.9345 0.0000
# 6 0.0000 0.0000 0.0000 0.0000 0.0000 39.6838
#
#
#
# Elastic Compliance Matrix: (Units=1/GPa)
#
#
# Indices 1 2 3 4 5 6 
#
# 1 0.014564 -0.010196 -0.000228 0.000000 0.000000 0.000000
# 2 -0.010196 0.014564 -0.000228 0.000000 0.000000 0.000000
# 3 -0.000228 -0.000228 0.012744 0.000000 0.000000 0.000000
# 4 0.000000 0.000000 0.000000 0.052814 0.000000 0.000000
# 5 0.000000 0.000000 0.000000 0.000000 0.052814 0.000000
# 6 0.000000 0.000000 0.000000 0.000000 0.000000 0.025199
#
#
# Mechanical properties :
#
#
# Convention : Reuss Voigt Hill
#
# Bulk Modulus (GPa) = 48.61841 61.52224 55.07033
# Shear Modulus (GPa) = 24.89300 31.88691 28.38996
#
# Velocity S-wave (km/s) = 3.27806 3.71009 3.50075
# Velocity P-wave (km/s) = 5.94264 6.70154 6.33347
#
# Compressibility (1/GPa) = 0.02056834
#
# Stress axis : x y z
#
# Youngs Moduli (GPa) = 68.66073 68.66073 78.46899
#
# Poissons Ratio (x) = 0.70004 0.01791
# Poissons Ratio (y) = 0.70004 0.01791
# Poissons Ratio (z) = 0.01567 0.01567
#
# Static dielectric constant tensor:
#      x y z
#    x 1.873710 0.000000 0.000000 
#    y 0.000000 1.873710 0.000000 
#    z 0.000000 0.000000 1.885150 
# 
# From -- ./inp_files/2019.got.cif
#   From: 2010.05.17/outbox.cif.g08.bks.cpg/sg127_2_cif.got.tgz:2019.got - 2010.05.20 12:03:00.
