data_PCOD9563263
_publ_section_title
;
Structure prediction by ZEFSAII (Michael W. Deem and Ramdas Pophale) SiO2 
 PCOD9563263
Probable space group: P 4/N B M
;
_chemical_formula_sum "Si O2"
_cell_formula_units_Z 48
_cell_length_a 10.406253
_cell_length_b 10.406253
_cell_length_c 20.021049
_cell_angle_alpha 90.000000
_cell_angle_beta 90.000000
_cell_angle_gamma 90.000000
_cell_volume 2168.081428
_symmetry_space_group_name_H-M "P 4/N B M"
_symmetry_group_IT_number 125
_space_group.IT_coordinate_system_code '2'
_symmetry_cell_setting 'tetragonal'
loop_
_space_group_symop_operation_xyz
x,y,z
1/2-y,x,z
1/2-x,1/2-y,z
y,1/2-x,z
x,1/2-y,-z
1/2-x,y,-z
y,x,-z
1/2-y,1/2-x,-z
-x,-y,-z
1/2+y,-x,-z
1/2+x,1/2+y,-z
-y,1/2+x,-z
-x,1/2+y,z
1/2+x,-y,z
-y,-x,z
1/2+y,1/2+x,z
loop_
_atom_site_type_symbol
_atom_site_label
_atom_site_fract_x
_atom_site_fract_y
_atom_site_fract_z
Si Si1 0.256535 0.466316 0.717324
Si Si2 0.651007 0.151007 0.829564
Si Si3 0.748465 0.968472 0.571849
Si Si4 0.396912 0.603089 0.975088
O O1 0.130488 0.377835 0.719884
O O2 0.273027 0.556844 0.780104
O O3 0.254486 0.532868 0.644269
O O4 0.750000 0.250000 0.860848
O O5 0.590181 0.090181 0.894598
O O6 0.625762 0.872462 0.571788
O O7 0.750000 0.036724 0.500000
O O8 0.425213 0.750000 0.000000
O O9 0.500000 0.500000 0.000000
#
# Coordination Sequence:
#
# PCOD9563263 Si02
#       4
#    16   8  16   8
#     4   9  20  36  60  92 122 164 219 264 314 380
#     4  12  26  41  69  91 136 166 204 257 329 378
#     4   7  10  22  48  79 111 152 208 266 311 363
#     4  11  27  52  77 109 143 180 228 280 346 419
#
# _framework density 22.139389000000001
#
# number of rings (size 3 to 8) (size 9 to 14) (size 15 to 20)
#    0.000    2.833    1.667    3.000    7.000    0.333 
#    0.000    0.000    3.667    4.000    0.000    0.000 
#    0.000    0.000    0.000    0.000    0.000    0.000 
#
# Total GULP energy -267726.115299 kJ/mol
# GULP energy per Si atom -5577.627402 kJ/mol
# Density = 2.208900 g / cm^3
# Si number density = 22.139389 Si / 1000 Ang^3
#
#
#
# Elastic Constant Matrix: (Units=GPa)
#
#
# Indices 1 2 3 4 5 6 
#
# 1 72.0321 45.9235 35.4629 0.0000 0.0000 0.0000
# 2 45.9235 72.0321 35.4629 0.0000 0.0000 0.0000
# 3 35.4629 35.4629 215.0495 0.0000 0.0000 0.0000
# 4 0.0000 0.0000 0.0000 -93.4936 0.0000 0.0000
# 5 0.0000 0.0000 0.0000 0.0000 -93.4936 0.0000
# 6 0.0000 0.0000 0.0000 0.0000 0.0000 29.0402
#
#
#
# Elastic Compliance Matrix: (Units=1/GPa)
#
#
# Indices 1 2 3 4 5 6 
#
# 1 0.023856 -0.014445 -0.001552 0.000000 0.000000 0.000000
# 2 -0.014445 0.023856 -0.001552 0.000000 0.000000 0.000000
# 3 -0.001552 -0.001552 0.005162 0.000000 0.000000 0.000000
# 4 0.000000 0.000000 0.000000 -0.010696 0.000000 0.000000
# 5 0.000000 0.000000 0.000000 0.000000 -0.010696 0.000000
# 6 0.000000 0.000000 0.000000 0.000000 0.000000 0.034435
#
#
# Mechanical properties :
#
#
# Convention : Reuss Voigt Hill
#
# Bulk Modulus (GPa) = 56.25527 65.86803 61.06165
# Shear Modulus (GPa) = 46.75458 -15.43845 15.65806
#
# Velocity S-wave (km/s) = 4.60045 -2.64356 2.66230
# Velocity P-wave (km/s) = 7.32691 4.52749 6.09023
#
# Compressibility (1/GPa) = 0.01777611
#
# Stress axis : x y z
#
# Youngs Moduli (GPa) = 41.91772 41.91772 193.72602
#
# Poissons Ratio (x) = 0.60552 0.30065
# Poissons Ratio (y) = 0.60552 0.30065
# Poissons Ratio (z) = 0.06505 0.06505
#
# Static dielectric constant tensor:
#      x y z
#    x 1.850770 0.000000 0.000000 
#    y 0.000000 1.850770 0.000000 
#    z 0.000000 0.000000 1.810020 
# 
# From -- ./inp_files/5198.got.cif
#   From: 2010.05.17/outbox.cif.g08.bks.cpg/sg125_3_cif.got.tgz:5198.got - 2010.05.20 11:54:10.
