data_PCOD9563796
_publ_section_title
;
Structure prediction by ZEFSAII (Michael W. Deem and Ramdas Pophale) SiO2 
 PCOD9563796
Probable space group: P 4/M B M
;
_chemical_formula_sum "Si O2"
_cell_formula_units_Z 112
_cell_length_a 14.451025
_cell_length_b 14.451025
_cell_length_c 29.041705
_cell_angle_alpha 90.000000
_cell_angle_beta 90.000000
_cell_angle_gamma 90.000000
_cell_volume 6064.840927
_symmetry_space_group_name_H-M "P 4/M B M"
_symmetry_group_IT_number 127
_symmetry_cell_setting 'tetragonal'
loop_
_space_group_symop_operation_xyz
x,y,z
-y,x,z
-x,-y,z
y,-x,z
1/2+x,1/2-y,-z
1/2-x,1/2+y,-z
1/2+y,1/2+x,-z
1/2-y,1/2-x,-z
-x,-y,-z
y,-x,-z
x,y,-z
-y,x,-z
1/2-x,1/2+y,z
1/2+x,1/2-y,z
1/2-y,1/2-x,z
1/2+y,1/2+x,z
loop_
_atom_site_type_symbol
_atom_site_label
_atom_site_fract_x
_atom_site_fract_y
_atom_site_fract_z
Si Si1 0.579199 0.920802 0.653438
Si Si2 0.382385 0.269980 0.145430
Si Si3 0.574601 0.223329 0.451085
Si Si4 0.631472 0.415093 0.051959
Si Si5 0.110881 0.610881 0.551605
Si Si6 0.210170 0.441319 0.291907
Si Si7 0.913737 0.739938 0.184237
Si Si8 0.144288 0.949793 0.634181
O O1 0.625243 0.874758 0.607563
O O2 0.526550 0.845447 0.684872
O O3 0.500000 0.000000 0.640746
O O4 0.323182 0.176819 0.151328
O O5 0.377416 0.306291 0.092983
O O6 0.489573 0.253496 0.157823
O O7 0.330113 0.348804 0.175890
O O8 0.564283 0.274508 0.500000
O O9 0.671244 0.171244 0.450443
O O10 0.494583 0.145457 0.450231
O O11 0.568250 0.285994 0.407055
O O12 0.622664 0.526535 0.056368
O O13 0.663872 0.394108 0.000000
O O14 0.147323 0.647323 0.500000
O O15 0.147960 0.352041 0.302891
O O16 0.223703 0.442329 0.237328
O O17 0.306688 0.433753 0.317519
O O18 0.848122 0.651879 0.170569
O O19 0.055136 0.886885 0.630092
#
# Coordination Sequence:
#
# PCOD9563796 Si02
#       8
#     8  16  16  16   8  16  16  16
#     4  10  18  33  62  88 112 150 183 226 302 353
#     4  11  22  38  63  91 123 167 210 254 315 367
#     4  10  20  38  63  88 112 139 179 231 283 338
#     4   9  17  33  59  90 124 163 209 261 312 366
#     4  10  18  31  58  92 118 136 168 231 295 342
#     4  10  22  42  62  86 117 149 195 246 289 344
#     4  10  24  41  59  90 124 158 209 259 306 370
#     4  11  25  42  57  79 115 155 189 224 282 350
#
# _framework density 18.467096999999999
#
# number of rings (size 3 to 8) (size 9 to 14) (size 15 to 20)
#    0.000    1.857    2.857    1.500    3.000    3.000 
#    5.143    0.714    0.000    0.429    0.000    1.000 
#    0.000    0.000    0.000    0.000    0.000    0.000 
#
# Total GULP energy -624021.328061 kJ/mol
# GULP energy per Si atom -5571.619001 kJ/mol
# Density = 1.842506 g / cm^3
# Si number density = 18.467097 Si / 1000 Ang^3
#
#
#
# Elastic Constant Matrix: (Units=GPa)
#
#
# Indices 1 2 3 4 5 6 
#
# 1 67.3011 22.0211 32.6909 0.0000 0.0000 0.0000
# 2 22.0211 67.3011 32.6909 0.0000 0.0000 0.0000
# 3 32.6909 32.6909 97.3177 0.0000 0.0000 0.0000
# 4 0.0000 0.0000 0.0000 9.4976 0.0000 0.0000
# 5 0.0000 0.0000 0.0000 0.0000 9.4976 0.0000
# 6 0.0000 0.0000 0.0000 0.0000 0.0000 28.2484
#
#
#
# Elastic Compliance Matrix: (Units=1/GPa)
#
#
# Indices 1 2 3 4 5 6 
#
# 1 0.018465 -0.003620 -0.004987 0.000000 0.000000 0.000000
# 2 -0.003620 0.018465 -0.004987 0.000000 0.000000 0.000000
# 3 -0.004987 -0.004987 0.013626 0.000000 0.000000 0.000000
# 4 0.000000 0.000000 0.000000 0.105290 0.000000 0.000000
# 5 0.000000 0.000000 0.000000 0.000000 0.105290 0.000000
# 6 0.000000 0.000000 0.000000 0.000000 0.000000 0.035400
#
#
# Mechanical properties :
#
#
# Convention : Reuss Voigt Hill
#
# Bulk Modulus (GPa) = 42.79047 45.19176 43.99112
# Shear Modulus (GPa) = 15.08232 19.08316 17.08274
#
# Velocity S-wave (km/s) = 2.86092 3.21808 3.04474
# Velocity P-wave (km/s) = 5.84249 6.19134 6.01944
#
# Compressibility (1/GPa) = 0.02336969
#
# Stress axis : x y z
#
# Youngs Moduli (GPa) = 54.15564 54.15564 73.38865
#
# Poissons Ratio (x) = 0.19602 0.36599
# Poissons Ratio (y) = 0.19602 0.36599
# Poissons Ratio (z) = 0.27007 0.27007
#
# Static dielectric constant tensor:
#      x y z
#    x 1.627040 0.000000 0.000000 
#    y 0.000000 1.627040 0.000000 
#    z 0.000000 0.000000 1.650760 
# 
# From -- ./inp_files/6427.got.cif
#   From: 2010.05.17/outbox.cif.g08.bks.cpg/sg127_4_cif.got.tgz:6427.got - 2010.05.20 12:03:00.
