data_PCOD9563840
_publ_section_title
;
Structure prediction by ZEFSAII (Michael W. Deem and Ramdas Pophale) SiO2 
 PCOD9563840
Probable space group: P 4/M B M
;
_chemical_formula_sum "Si O2"
_cell_formula_units_Z 72
_cell_length_a 20.344983
_cell_length_b 20.344983
_cell_length_c 11.144433
_cell_angle_alpha 90.000000
_cell_angle_beta 90.000000
_cell_angle_gamma 90.000000
_cell_volume 4612.885133
_symmetry_space_group_name_H-M "P 4/M B M"
_symmetry_group_IT_number 127
_symmetry_cell_setting 'tetragonal'
loop_
_space_group_symop_operation_xyz
x,y,z
-y,x,z
-x,-y,z
y,-x,z
1/2+x,1/2-y,-z
1/2-x,1/2+y,-z
1/2+y,1/2+x,-z
1/2-y,1/2-x,-z
-x,-y,-z
y,-x,-z
x,y,-z
-y,x,-z
1/2-x,1/2+y,z
1/2+x,1/2-y,z
1/2-y,1/2-x,z
1/2+y,1/2+x,z
loop_
_atom_site_type_symbol
_atom_site_label
_atom_site_fract_x
_atom_site_fract_y
_atom_site_fract_z
Si Si1 0.074454 0.824079 0.858144
Si Si2 0.169154 0.932861 0.752214
Si Si3 0.309761 0.919547 0.856527
Si Si4 0.607110 0.532554 0.500000
Si Si5 0.568773 0.825993 0.145124
O O1 0.120946 0.875198 0.792615
O O2 0.084963 0.748613 0.816734
O O3 0.998563 0.840635 0.831516
O O4 0.086725 0.827161 0.000000
O O5 0.243792 0.911259 0.779420
O O6 0.150259 0.953126 0.617568
O O7 0.363078 0.863078 0.836664
O O8 0.337929 0.992090 0.827613
O O9 0.292778 0.919617 0.000000
O O10 0.542072 0.579089 0.500000
O O11 0.619357 0.880644 0.190934
O O12 0.573252 0.826124 0.000000
#
# Coordination Sequence:
#
# PCOD9563840 Si02
#       5
#    16  16  16   8  16
#     4  10  19  30  47  73 104 134 167 209 256 311
#     4  11  20  34  50  72 101 135 176 211 258 304
#     4   9  18  32  51  78 108 134 165 211 265 313
#     4  11  22  38  53  72  98 137 184 223 255 291
#     4   8  15  28  46  71 103 136 166 194 238 307
#
# _framework density 15.608453000000001
#
# number of rings (size 3 to 8) (size 9 to 14) (size 15 to 20)
#    0.000    2.333    2.222    3.333    0.000    1.778 
#    0.000    6.111    0.000    0.000    0.000   12.444 
#    0.000    7.111    0.000    0.000    0.000    0.000 
#
# Total GULP energy -401153.287449 kJ/mol
# GULP energy per Si atom -5571.573437 kJ/mol
# Density = 1.557293 g / cm^3
# Si number density = 15.608453 Si / 1000 Ang^3
#
#
#
# Elastic Constant Matrix: (Units=GPa)
#
#
# Indices 1 2 3 4 5 6 
#
# 1 90.7596 72.9805 15.1469 0.0000 0.0000 0.0000
# 2 72.9805 90.7596 15.1469 0.0000 0.0000 0.0000
# 3 15.1469 15.1469 39.4961 0.0000 0.0000 0.0000
# 4 0.0000 0.0000 0.0000 8.0276 0.0000 0.0000
# 5 0.0000 0.0000 0.0000 0.0000 8.0276 0.0000
# 6 0.0000 0.0000 0.0000 0.0000 0.0000 33.8626
#
#
#
# Elastic Compliance Matrix: (Units=1/GPa)
#
#
# Indices 1 2 3 4 5 6 
#
# 1 0.031410 -0.024836 -0.002521 0.000000 0.000000 0.000000
# 2 -0.024836 0.031410 -0.002521 0.000000 0.000000 0.000000
# 3 -0.002521 -0.002521 0.027253 0.000000 0.000000 0.000000
# 4 0.000000 0.000000 0.000000 0.124571 0.000000 0.000000
# 5 0.000000 0.000000 0.000000 0.000000 0.124571 0.000000
# 6 0.000000 0.000000 0.000000 0.000000 0.000000 0.029531
#
#
# Mechanical properties :
#
#
# Convention : Reuss Voigt Hill
#
# Bulk Modulus (GPa) = 32.98607 47.50709 40.24658
# Shear Modulus (GPa) = 11.39975 17.83295 14.61635
#
# Velocity S-wave (km/s) = 2.70544 3.38378 3.06345
# Velocity P-wave (km/s) = 5.56225 6.76532 6.19306
#
# Compressibility (1/GPa) = 0.03031583
#
# Stress axis : x y z
#
# Youngs Moduli (GPa) = 31.83733 31.83733 36.69380
#
# Poissons Ratio (x) = 0.79071 0.09251
# Poissons Ratio (y) = 0.79071 0.09251
# Poissons Ratio (z) = 0.08026 0.08026
#
# Static dielectric constant tensor:
#      x y z
#    x 1.520650 0.000000 0.000000 
#    y 0.000000 1.520650 0.000000 
#    z 0.000000 0.000000 1.498100 
# 
# From -- ./inp_files/1511.got.cif
#   From: 2010.05.17/outbox.cif.g08.bks.cpg/sg127_1_cif.got.tgz:1511.got - 2010.05.20 12:03:00.
