data_PCOD9563371
_publ_section_title
;
Structure prediction by ZEFSAII (Michael W. Deem and Ramdas Pophale) SiO2 
 PCOD9563371
Probable space group: P 4/N N C
;
_chemical_formula_sum "Si O2"
_cell_formula_units_Z 96
_cell_length_a 20.208387
_cell_length_b 20.208387
_cell_length_c 12.816197
_cell_angle_alpha 90.000000
_cell_angle_beta 90.000000
_cell_angle_gamma 90.000000
_cell_volume 5233.864499
_symmetry_space_group_name_H-M "P 4/N N C"
_symmetry_group_IT_number 126
_space_group.IT_coordinate_system_code '2'
_symmetry_cell_setting 'tetragonal'
loop_
_space_group_symop_operation_xyz
x,y,z
1/2-y,x,z
1/2-x,1/2-y,z
y,1/2-x,z
x,1/2-y,1/2-z
1/2-x,y,1/2-z
y,x,1/2-z
1/2-y,1/2-x,1/2-z
-x,-y,-z
1/2+y,-x,-z
1/2+x,1/2+y,-z
-y,1/2+x,-z
-x,1/2+y,1/2+z
1/2+x,-y,1/2+z
-y,-x,1/2+z
1/2+y,1/2+x,1/2+z
loop_
_atom_site_type_symbol
_atom_site_label
_atom_site_fract_x
_atom_site_fract_y
_atom_site_fract_z
Si Si1 0.533651 0.023108 0.145588
Si Si2 0.329852 0.172142 0.372945
Si Si3 0.412973 0.830958 0.314868
Si Si4 0.437480 0.398857 0.511578
Si Si5 0.460378 0.792690 0.086294
Si Si6 0.294135 0.834205 0.455211
O O1 0.593444 0.071783 0.167012
O O2 0.484331 0.061835 0.069508
O O3 0.495749 0.004252 0.250000
O O4 0.565925 0.955210 0.100497
O O5 0.340586 0.250979 0.388715
O O6 0.343180 0.156821 0.250000
O O7 0.373442 0.127409 0.450595
O O8 0.428021 0.817300 0.194711
O O9 0.461148 0.785595 0.387698
O O10 0.338645 0.817790 0.355474
O O11 0.474908 0.334543 0.559174
O O12 0.408463 0.803946 0.993496
O O13 0.283858 0.679977 0.454274
#
# Coordination Sequence:
#
# PCOD9563371 Si02
#       6
#    16  16  16  16  16  16
#     4  11  22  37  54  79 116 148 183 227 277 328
#     4   9  20  41  65  87 112 140 180 236 291 337
#     4  10  20  35  53  76 110 146 184 232 268 325
#     4  11  22  35  58  84 108 148 185 225 276 344
#     4  10  20  34  54  78 109 146 186 222 278 323
#     4   9  18  34  55  76 103 143 190 233 267 316
#
# _framework density 18.342086999999999
#
# number of rings (size 3 to 8) (size 9 to 14) (size 15 to 20)
#    0.000    2.000    3.333    1.000    2.333    0.667 
#    0.000    3.333    3.667    0.000    0.000    1.167 
#    0.000    0.000    0.000    0.000    0.000    0.000 
#
# Total GULP energy -534518.596752 kJ/mol
# GULP energy per Si atom -5567.902050 kJ/mol
# Density = 1.830034 g / cm^3
# Si number density = 18.342087 Si / 1000 Ang^3
#
#
#
# Elastic Constant Matrix: (Units=GPa)
#
#
# Indices 1 2 3 4 5 6 
#
# 1 101.5534 -53.3254 5.0370 0.0000 0.0000 0.0000
# 2 -53.3254 101.5423 5.0215 0.0000 0.0000 0.0000
# 3 5.0370 5.0215 55.3218 0.0000 0.0000 0.0000
# 4 0.0000 0.0000 0.0000 27.5430 0.0000 0.0000
# 5 0.0000 0.0000 0.0000 0.0000 27.5431 0.0000
# 6 0.0000 0.0000 0.0000 0.0000 0.0000 25.2946
#
#
#
# Elastic Compliance Matrix: (Units=1/GPa)
#
#
# Indices 1 2 3 4 5 6 
#
# 1 0.013797 0.007341 -0.001922 0.000000 0.000000 0.000000
# 2 0.007341 0.013798 -0.001921 0.000000 0.000000 0.000000
# 3 -0.001922 -0.001921 0.018425 0.000000 0.000000 0.000000
# 4 0.000000 0.000000 0.000000 0.036307 0.000000 0.000000
# 5 0.000000 0.000000 0.000000 0.000000 0.036307 0.000000
# 6 0.000000 0.000000 0.000000 0.000000 0.000000 0.039534
#
#
# Mechanical properties :
#
#
# Convention : Reuss Voigt Hill
#
# Bulk Modulus (GPa) = 18.86257 19.09817 18.98037
# Shear Modulus (GPa) = 29.61292 36.18843 32.90067
#
# Velocity S-wave (km/s) = 4.02242 4.44663 4.23983
# Velocity P-wave (km/s) = 5.64617 6.06615 5.85992
#
# Compressibility (1/GPa) = 0.05301504
#
# Stress axis : x y z
#
# Youngs Moduli (GPa) = 72.47999 72.47410 54.27279
#
# Poissons Ratio (x) = -0.53200 0.10434
# Poissons Ratio (y) = -0.53205 0.10425
# Poissons Ratio (z) = 0.13934 0.13921
#
# Static dielectric constant tensor:
#      x y z
#    x 1.641210 0.000000 0.000000 
#    y 0.000000 1.641210 0.000000 
#    z 0.000000 0.000000 1.658460 
# 
# From -- ./inp_files/2901.got.cif
#   From: 2010.05.17/outbox.cif.g08.bks.cpg/sg126_2_cif.got.tgz:2901.got - 2010.05.20 11:58:20.
