data_PCOD9563232
_publ_section_title
;
Structure prediction by ZEFSAII (Michael W. Deem and Ramdas Pophale) SiO2 
 PCOD9563232
Probable space group: P 4/N B M
;
_chemical_formula_sum "Si O2"
_cell_formula_units_Z 96
_cell_length_a 15.375672
_cell_length_b 15.375672
_cell_length_c 22.604669
_cell_angle_alpha 90.000000
_cell_angle_beta 90.000000
_cell_angle_gamma 90.000000
_cell_volume 5343.998946
_symmetry_space_group_name_H-M "P 4/N B M"
_symmetry_group_IT_number 125
_space_group.IT_coordinate_system_code '2'
_symmetry_cell_setting 'tetragonal'
loop_
_space_group_symop_operation_xyz
x,y,z
1/2-y,x,z
1/2-x,1/2-y,z
y,1/2-x,z
x,1/2-y,-z
1/2-x,y,-z
y,x,-z
1/2-y,1/2-x,-z
-x,-y,-z
1/2+y,-x,-z
1/2+x,1/2+y,-z
-y,1/2+x,-z
-x,1/2+y,z
1/2+x,-y,z
-y,-x,z
1/2+y,1/2+x,z
loop_
_atom_site_type_symbol
_atom_site_label
_atom_site_fract_x
_atom_site_fract_y
_atom_site_fract_z
Si Si1 0.823440 0.176561 0.139129
Si Si2 0.896966 0.751295 0.433530
Si Si3 0.991260 0.759939 0.688104
Si Si4 0.823233 0.323233 0.725186
Si Si5 0.992564 0.261796 0.931020
Si Si6 0.432978 0.421204 0.887957
Si Si7 0.933652 0.920409 0.253667
O O1 0.750000 0.250000 0.140093
O O2 0.846701 0.153300 0.206710
O O3 0.906877 0.213214 0.105581
O O4 0.832745 0.834115 0.428454
O O5 0.934545 0.750000 0.500000
O O6 0.963273 0.752180 0.379720
O O7 0.970331 0.671942 0.724011
O O8 0.938674 0.841506 0.715385
O O9 0.091405 0.785572 0.694827
O O10 0.750000 0.250000 0.726769
O O11 0.057107 0.342531 0.919911
O O12 0.030987 0.171759 0.907400
O O13 0.972512 0.250000 0.000000
O O14 0.503378 0.496622 0.902365
O O15 0.421407 0.420764 0.817061
O O16 0.003114 0.996887 0.268143
#
# Coordination Sequence:
#
# PCOD9563232 Si02
#       7
#     8  16  16   8  16  16  16
#     4  11  24  42  65  93 118 155 220 274 307 356
#     4   9  18  35  59  92 128 159 196 250 304 356
#     4  12  21  37  66  94 126 161 213 258 313 367
#     4  11  24  42  62  86 128 171 205 255 323 380
#     4  12  26  41  65  89 122 164 206 254 319 386
#     4  11  24  44  63  89 126 162 203 258 321 376
#     4  11  23  38  62  93 126 161 207 261 314 377
#
# _framework density 17.964075000000001
#
# number of rings (size 3 to 8) (size 9 to 14) (size 15 to 20)
#    0.000    1.000    3.333    5.000    2.333    4.000 
#    0.000    2.500    3.667    2.000    0.000    0.000 
#    0.000    0.000    0.000    0.000    0.000    0.000 
#
# Total GULP energy -536765.176762 kJ/mol
# GULP energy per Si atom -5591.303925 kJ/mol
# Density = 1.792319 g / cm^3
# Si number density = 17.964075 Si / 1000 Ang^3
#
#
#
# Elastic Constant Matrix: (Units=GPa)
#
#
# Indices 1 2 3 4 5 6 
#
# 1 104.8754 20.1367 43.0433 0.0000 0.0000 0.0000
# 2 20.1367 104.8754 43.0433 0.0000 0.0000 0.0000
# 3 43.0433 43.0433 129.7443 0.0000 0.0000 0.0000
# 4 0.0000 0.0000 0.0000 17.8487 0.0000 0.0000
# 5 0.0000 0.0000 0.0000 0.0000 17.8487 0.0000
# 6 0.0000 0.0000 0.0000 0.0000 0.0000 30.4904
#
#
#
# Elastic Compliance Matrix: (Units=1/GPa)
#
#
# Indices 1 2 3 4 5 6 
#
# 1 0.011084 -0.000717 -0.003440 0.000000 0.000000 0.000000
# 2 -0.000717 0.011084 -0.003440 0.000000 0.000000 0.000000
# 3 -0.003440 -0.003440 0.009990 0.000000 0.000000 0.000000
# 4 0.000000 0.000000 0.000000 0.056027 0.000000 0.000000
# 5 0.000000 0.000000 0.000000 0.000000 0.056027 0.000000
# 6 0.000000 0.000000 0.000000 0.000000 0.000000 0.032797
#
#
# Mechanical properties :
#
#
# Convention : Reuss Voigt Hill
#
# Bulk Modulus (GPa) = 58.93800 61.32687 60.13243
# Shear Modulus (GPa) = 25.27091 28.78901 27.02996
#
# Velocity S-wave (km/s) = 3.75473 4.00758 3.88321
# Velocity P-wave (km/s) = 7.18870 7.45835 7.32476
#
# Compressibility (1/GPa) = 0.01696698
#
# Stress axis : x y z
#
# Youngs Moduli (GPa) = 90.21695 90.21695 100.10358
#
# Poissons Ratio (x) = 0.06465 0.34431
# Poissons Ratio (y) = 0.06465 0.34431
# Poissons Ratio (z) = 0.31031 0.31031
#
# Static dielectric constant tensor:
#      x y z
#    x 1.598710 0.000000 0.000000 
#    y 0.000000 1.598710 0.000000 
#    z 0.000000 0.000000 1.600420 
# 
# From -- ./inp_files/5953.got.cif
#   From: 2010.05.17/outbox.cif.g08.bks.cpg/sg125_3_cif.got.tgz:5953.got - 2010.05.20 11:54:10.
