data_PCOD9563373
_publ_section_title
;
Structure prediction by ZEFSAII (Michael W. Deem and Ramdas Pophale) SiO2 
 PCOD9563373
Probable space group: P 4/N N C
;
_chemical_formula_sum "Si O2"
_cell_formula_units_Z 112
_cell_length_a 15.259678
_cell_length_b 15.259678
_cell_length_c 21.497619
_cell_angle_alpha 90.000000
_cell_angle_beta 90.000000
_cell_angle_gamma 90.000000
_cell_volume 5005.887678
_symmetry_space_group_name_H-M "P 4/N N C"
_symmetry_group_IT_number 126
_space_group.IT_coordinate_system_code '2'
_symmetry_cell_setting 'tetragonal'
loop_
_space_group_symop_operation_xyz
x,y,z
1/2-y,x,z
1/2-x,1/2-y,z
y,1/2-x,z
x,1/2-y,1/2-z
1/2-x,y,1/2-z
y,x,1/2-z
1/2-y,1/2-x,1/2-z
-x,-y,-z
1/2+y,-x,-z
1/2+x,1/2+y,-z
-y,1/2+x,-z
-x,1/2+y,1/2+z
1/2+x,-y,1/2+z
-y,-x,1/2+z
1/2+y,1/2+x,1/2+z
loop_
_atom_site_type_symbol
_atom_site_label
_atom_site_fract_x
_atom_site_fract_y
_atom_site_fract_z
Si Si1 0.123991 0.175858 0.949126
Si Si2 0.312539 0.906175 0.557216
Si Si3 0.320456 0.381141 0.412934
Si Si4 0.614825 0.121995 0.078120
Si Si5 0.392199 0.003274 0.200275
Si Si6 0.770280 0.149057 0.666526
Si Si7 0.467294 0.454293 0.612099
O O1 0.221239 0.136366 0.948199
O O2 0.083591 0.157635 0.017696
O O3 0.078008 0.132040 0.890557
O O4 0.321060 0.889993 0.484182
O O5 0.211319 0.921285 0.573594
O O6 0.338994 0.827714 0.603518
O O7 0.383178 0.980081 0.572791
O O8 0.215488 0.364332 0.408197
O O9 0.350475 0.445042 0.358413
O O10 0.609042 0.180107 0.140300
O O11 0.539500 0.049631 0.081057
O O12 0.422814 0.077187 0.250000
O O13 0.326478 0.919230 0.209069
O O14 0.483763 0.962734 0.176735
O O15 0.750000 0.250000 0.686585
#
# Coordination Sequence:
#
# PCOD9563373 Si02
#       7
#    16  16  16  16  16  16  16
#     4   9  19  37  63  97 136 163 195 261 342 427
#     4  10  20  34  55  87 129 163 208 261 332 419
#     4   9  21  40  63  96 132 170 211 261 333 414
#     4  11  20  34  58  89 126 168 206 264 338 414
#     4  11  26  44  63  91 130 175 235 291 329 385
#     4   9  21  39  63  91 124 171 223 275 343 412
#     4  11  24  35  56  94 125 165 216 266 337 409
#
# _framework density 22.373654999999999
#
# number of rings (size 3 to 8) (size 9 to 14) (size 15 to 20)
#    0.000    2.000    1.429    2.143    8.000    1.714 
#    0.000    0.714    0.000   16.286    0.000    1.000 
#    0.000    0.000    0.000    0.000    0.000    0.000 
#
# Total GULP energy -624939.809115 kJ/mol
# GULP energy per Si atom -5579.819724 kJ/mol
# Density = 2.232273 g / cm^3
# Si number density = 22.373655 Si / 1000 Ang^3
#
#
#
# Elastic Constant Matrix: (Units=GPa)
#
#
# Indices 1 2 3 4 5 6 
#
# 1 68.7086 76.6877 29.6259 0.0000 0.0000 0.0000
# 2 76.6877 68.7076 29.6265 0.0000 0.0000 0.0000
# 3 29.6259 29.6265 69.0862 0.0000 0.0000 0.0000
# 4 0.0000 0.0000 0.0000 19.6828 0.0000 0.0000
# 5 0.0000 0.0000 0.0000 0.0000 19.6841 0.0000
# 6 0.0000 0.0000 0.0000 0.0000 0.0000 41.7758
#
#
#
# Elastic Compliance Matrix: (Units=1/GPa)
#
#
# Indices 1 2 3 4 5 6 
#
# 1 -0.058491 0.066826 -0.003575 0.000000 0.000000 0.000000
# 2 0.066826 -0.058493 -0.003573 0.000000 0.000000 0.000000
# 3 -0.003575 -0.003573 0.017540 0.000000 0.000000 0.000000
# 4 0.000000 0.000000 0.000000 0.050806 0.000000 0.000000
# 5 0.000000 0.000000 0.000000 0.000000 0.050802 0.000000
# 6 0.000000 0.000000 0.000000 0.000000 0.000000 0.023937
#
#
# Mechanical properties :
#
#
# Convention : Reuss Voigt Hill
#
# Bulk Modulus (GPa) = 50.21958 53.15360 51.68659
# Shear Modulus (GPa) = -57.72479 20.93269 -18.39605
#
# Velocity S-wave (km/s) = -5.08491 3.06207 -2.87055
# Velocity P-wave (km/s) = 3.46129 6.02582 3.48783
#
# Compressibility (1/GPa) = 0.01991255
#
# Stress axis : x y z
#
# Youngs Moduli (GPa) = -17.09657 -17.09611 57.01277
#
# Poissons Ratio (x) = 1.14247 0.20381
# Poissons Ratio (y) = 1.14250 0.20371
# Poissons Ratio (z) = -0.06112 -0.06109
#
# Static dielectric constant tensor:
#      x y z
#    x 1.880050 0.000000 0.000000 
#    y 0.000000 1.880050 0.000000 
#    z 0.000000 0.000000 1.799450 
# 
# From -- ./inp_files/6243.got.cif
#   From: 2010.05.17/outbox.cif.g08.bks.cpg/sg126_4_cif.got.tgz:6243.got - 2010.05.20 11:58:20.
