data_PCOD9563074
_publ_section_title
;
Structure prediction by ZEFSAII (Michael W. Deem and Ramdas Pophale) SiO2 
 PCOD9563074
Probable space group: P 4/N B M
;
_chemical_formula_sum "Si O2"
_cell_formula_units_Z 112
_cell_length_a 13.864131
_cell_length_b 13.864131
_cell_length_c 35.173604
_cell_angle_alpha 90.000000
_cell_angle_beta 90.000000
_cell_angle_gamma 90.000000
_cell_volume 6760.863635
_symmetry_space_group_name_H-M "P 4/N B M"
_symmetry_group_IT_number 125
_space_group.IT_coordinate_system_code '2'
_symmetry_cell_setting 'tetragonal'
loop_
_space_group_symop_operation_xyz
x,y,z
1/2-y,x,z
1/2-x,1/2-y,z
y,1/2-x,z
x,1/2-y,-z
1/2-x,y,-z
y,x,-z
1/2-y,1/2-x,-z
-x,-y,-z
1/2+y,-x,-z
1/2+x,1/2+y,-z
-y,1/2+x,-z
-x,1/2+y,z
1/2+x,-y,z
-y,-x,z
1/2+y,1/2+x,z
loop_
_atom_site_type_symbol
_atom_site_label
_atom_site_fract_x
_atom_site_fract_y
_atom_site_fract_z
Si Si1 0.995328 0.657767 0.347435
Si Si2 0.517579 0.854064 0.610207
Si Si3 0.010043 0.348885 0.477919
Si Si4 0.752306 0.410282 0.044855
Si Si5 0.277233 0.411035 0.814492
Si Si6 0.590719 0.712027 0.731782
Si Si7 0.734564 0.586858 0.101694
O O1 0.902362 0.604984 0.366236
O O2 0.974452 0.687323 0.304040
O O3 0.083065 0.583065 0.349935
O O4 0.012940 0.754375 0.370945
O O5 0.431118 0.931118 0.611898
O O6 0.540774 0.837034 0.565934
O O7 0.994260 0.250000 0.500000
O O8 0.090852 0.409149 0.500000
O O9 0.913590 0.413590 0.478349
O O10 0.666448 0.333553 0.051369
O O11 0.851826 0.351826 0.052651
O O12 0.737098 0.503753 0.070519
O O13 0.750000 0.434783 0.000000
O O14 0.174584 0.356078 0.814280
O O15 0.292118 0.459343 0.773427
O O16 0.278563 0.458727 0.855919
O O17 0.681611 0.638463 0.729637
O O18 0.833577 0.649194 0.098485
#
# Coordination Sequence:
#
# PCOD9563074 Si02
#       7
#    16  16  16  16  16  16  16
#     4  11  21  34  53  77 106 139 172 210 253 298
#     4  10  22  37  54  78 106 133 167 210 254 302
#     4  10  21  38  57  78 104 134 168 209 254 300
#     4   9  19  35  51  67  93 133 178 220 260 305
#     4   7  12  24  45  71 100 130 159 199 251 300
#     4   9  15  28  51  76 100 129 168 212 251 292
#     4   9  17  30  49  76 106 131 161 208 261 312
#
# _framework density 16.565930000000002
#
# number of rings (size 3 to 8) (size 9 to 14) (size 15 to 20)
#    0.000    2.714    1.429    3.000    0.000    3.714 
#    0.000    5.714    0.000    6.000    0.000    0.000 
#    0.000    0.000    0.000    0.000    0.000    0.000 
#
# Total GULP energy -623579.668559 kJ/mol
# GULP energy per Si atom -5567.675612 kJ/mol
# Density = 1.652823 g / cm^3
# Si number density = 16.565930 Si / 1000 Ang^3
#
#
#
# Elastic Constant Matrix: (Units=GPa)
#
#
# Indices 1 2 3 4 5 6 
#
# 1 60.3348 0.3813 52.5100 0.0000 0.0000 0.0000
# 2 0.3813 60.3399 52.5167 0.0000 0.0000 0.0000
# 3 52.5100 52.5167 160.2082 0.0000 0.0000 0.0000
# 4 0.0000 0.0000 0.0000 20.0652 0.0000 0.0000
# 5 0.0000 0.0000 0.0000 0.0000 20.0549 0.0000
# 6 0.0000 0.0000 0.0000 0.0000 0.0000 4.0131
#
#
#
# Elastic Compliance Matrix: (Units=1/GPa)
#
#
# Indices 1 2 3 4 5 6 
#
# 1 0.027356 0.010677 -0.012466 0.000000 0.000000 0.000000
# 2 0.010677 0.027356 -0.012467 0.000000 0.000000 0.000000
# 3 -0.012466 -0.012467 0.014415 0.000000 0.000000 0.000000
# 4 0.000000 0.000000 0.000000 0.049838 0.000000 0.000000
# 5 0.000000 0.000000 0.000000 0.000000 0.049863 0.000000
# 6 0.000000 0.000000 0.000000 0.000000 0.000000 0.249182
#
#
# Mechanical properties :
#
#
# Convention : Reuss Voigt Hill
#
# Bulk Modulus (GPa) = 24.62174 54.63319 39.62747
# Shear Modulus (GPa) = 10.86815 20.52497 15.69656
#
# Velocity S-wave (km/s) = 2.56413 3.52374 3.08152
# Velocity P-wave (km/s) = 4.86431 7.04319 6.05261
#
# Compressibility (1/GPa) = 0.04061452
#
# Stress axis : x y z
#
# Youngs Moduli (GPa) = 36.55470 36.55537 69.37458
#
# Poissons Ratio (x) = -0.39031 0.86484
# Poissons Ratio (y) = -0.39030 0.86488
# Poissons Ratio (z) = 0.45570 0.45573
#
# Static dielectric constant tensor:
#      x y z
#    x 1.536280 0.000000 0.000000 
#    y 0.000000 1.536280 0.000000 
#    z 0.000000 0.000000 1.591920 
# 
# From -- ./inp_files/6640.got.cif
#   From: 2010.05.17/outbox.cif.g08.bks.cpg/sg125_4_cif.got.tgz:6640.got - 2010.05.20 11:54:10.
