data_PCOD9563554
_publ_section_title
;
Structure prediction by ZEFSAII (Michael W. Deem and Ramdas Pophale) SiO2 
 PCOD9563554
Probable space group: P 4/N N C
;
_chemical_formula_sum "Si O2"
_cell_formula_units_Z 80
_cell_length_a 11.467630
_cell_length_b 11.467630
_cell_length_c 29.222042
_cell_angle_alpha 90.000000
_cell_angle_beta 90.000000
_cell_angle_gamma 90.000000
_cell_volume 3842.889571
_symmetry_space_group_name_H-M "P 4/N N C"
_symmetry_group_IT_number 126
_space_group.IT_coordinate_system_code '2'
_symmetry_cell_setting 'tetragonal'
loop_
_space_group_symop_operation_xyz
x,y,z
1/2-y,x,z
1/2-x,1/2-y,z
y,1/2-x,z
x,1/2-y,1/2-z
1/2-x,y,1/2-z
y,x,1/2-z
1/2-y,1/2-x,1/2-z
-x,-y,-z
1/2+y,-x,-z
1/2+x,1/2+y,-z
-y,1/2+x,-z
-x,1/2+y,1/2+z
1/2+x,-y,1/2+z
-y,-x,1/2+z
1/2+y,1/2+x,1/2+z
loop_
_atom_site_type_symbol
_atom_site_label
_atom_site_fract_x
_atom_site_fract_y
_atom_site_fract_z
Si Si1 0.563520 0.723351 0.195673
Si Si2 0.257741 0.611428 0.560895
Si Si3 0.939006 0.775565 0.979900
Si Si4 0.387643 0.921231 0.357164
Si Si5 0.138897 0.968508 0.384386
O O1 0.655914 0.623111 0.180156
O O2 0.558518 0.750000 0.250000
O O3 0.443056 0.672480 0.177468
O O4 0.250000 0.750000 0.556246
O O5 0.277140 0.548771 0.513062
O O6 0.367553 0.585378 0.592919
O O7 0.142020 0.578774 0.590143
O O8 0.846357 0.876441 0.990115
O O9 0.966936 0.796590 0.926778
O O10 0.247817 0.929184 0.353157
O O11 0.450762 0.046832 0.358013
#
# Coordination Sequence:
#
# PCOD9563554 Si02
#       5
#    16  16  16  16  16
#     4   9  19  39  71 101 126 157 195 250 322 389
#     4  10  24  36  55  84 117 165 221 285 330 364
#     4  11  23  39  56  78 117 170 230 268 315 379
#     4  11  22  39  60  90 129 168 214 258 323 384
#     4  11  23  37  58  85 126 173 218 271 318 382
#
# _framework density 20.817668000000001
#
# number of rings (size 3 to 8) (size 9 to 14) (size 15 to 20)
#    0.000    1.600    2.000    3.000    5.600    2.000 
#    0.000    2.000    0.000   31.800    0.000    0.000 
#    0.000   25.600    0.000    0.000    0.000    0.000 
#
# Total GULP energy -446585.604535 kJ/mol
# GULP energy per Si atom -5582.320057 kJ/mol
# Density = 2.077029 g / cm^3
# Si number density = 20.817668 Si / 1000 Ang^3
#
#
#
# Elastic Constant Matrix: (Units=GPa)
#
#
# Indices 1 2 3 4 5 6 
#
# 1 84.1950 27.0300 29.5081 0.0000 0.0000 0.0000
# 2 27.0300 84.1950 29.5081 0.0000 0.0000 0.0000
# 3 29.5081 29.5081 43.1961 0.0000 0.0000 0.0000
# 4 0.0000 0.0000 0.0000 28.3716 0.0000 0.0000
# 5 0.0000 0.0000 0.0000 0.0000 28.3716 0.0000
# 6 0.0000 0.0000 0.0000 0.0000 0.0000 -80.8027
#
#
#
# Elastic Compliance Matrix: (Units=1/GPa)
#
#
# Indices 1 2 3 4 5 6 
#
# 1 0.015798 -0.001695 -0.009634 0.000000 0.000000 0.000000
# 2 -0.001695 0.015798 -0.009634 0.000000 0.000000 0.000000
# 3 -0.009634 -0.009634 0.036312 0.000000 0.000000 0.000000
# 4 0.000000 0.000000 0.000000 0.035247 0.000000 0.000000
# 5 0.000000 0.000000 0.000000 0.000000 0.035247 0.000000
# 6 0.000000 0.000000 0.000000 0.000000 0.000000 -0.012376
#
#
# Mechanical properties :
#
#
# Convention : Reuss Voigt Hill
#
# Bulk Modulus (GPa) = 38.48766 42.63097 40.55931
# Shear Modulus (GPa) = 28.31078 3.55741 15.93410
#
# Velocity S-wave (km/s) = 3.69174 1.30865 2.76961
# Velocity P-wave (km/s) = 6.05805 4.77558 5.45464
#
# Compressibility (1/GPa) = 0.02598236
#
# Stress axis : x y z
#
# Youngs Moduli (GPa) = 63.29991 63.29991 27.53904
#
# Poissons Ratio (x) = 0.10732 0.26530
# Poissons Ratio (y) = 0.10732 0.26530
# Poissons Ratio (z) = 0.60981 0.60981
#
# Static dielectric constant tensor:
#      x y z
#    x 1.797450 0.000000 0.000000 
#    y 0.000000 1.797450 0.000000 
#    z 0.000000 0.000000 1.747730 
# 
# From -- ./inp_files/6444.got.cif
#   From: 2010.05.17/outbox.cif.g08.bks.cpg/sg126_4_cif.got.tgz:6444.got - 2010.05.20 11:58:20.
