data_PCOD9563058
_publ_section_title
;
Structure prediction by ZEFSAII (Michael W. Deem and Ramdas Pophale) SiO2 
 PCOD9563058
Probable space group: P 4/N B M
;
_chemical_formula_sum "Si O2"
_cell_formula_units_Z 88
_cell_length_a 17.952729
_cell_length_b 17.952729
_cell_length_c 12.808617
_cell_angle_alpha 90.000000
_cell_angle_beta 90.000000
_cell_angle_gamma 90.000000
_cell_volume 4128.223389
_symmetry_space_group_name_H-M "P 4/N B M"
_symmetry_group_IT_number 125
_space_group.IT_coordinate_system_code '2'
_symmetry_cell_setting 'tetragonal'
loop_
_space_group_symop_operation_xyz
x,y,z
1/2-y,x,z
1/2-x,1/2-y,z
y,1/2-x,z
x,1/2-y,-z
1/2-x,y,-z
y,x,-z
1/2-y,1/2-x,-z
-x,-y,-z
1/2+y,-x,-z
1/2+x,1/2+y,-z
-y,1/2+x,-z
-x,1/2+y,z
1/2+x,-y,z
-y,-x,z
1/2+y,1/2+x,z
loop_
_atom_site_type_symbol
_atom_site_label
_atom_site_fract_x
_atom_site_fract_y
_atom_site_fract_z
Si Si1 0.084404 0.042616 0.612468
Si Si2 0.865904 0.935017 0.819399
Si Si3 0.399233 0.899233 0.897431
Si Si4 0.294480 0.579043 0.607900
Si Si5 0.292276 0.449677 0.890521
Si Si6 0.730149 0.107503 0.838981
O O1 0.080548 0.080548 0.500000
O O2 0.068840 0.099367 0.704625
O O3 0.160935 0.997485 0.625250
O O4 0.019210 0.980791 0.616015
O O5 0.776534 0.935564 0.812493
O O6 0.895728 0.861373 0.876933
O O7 0.894890 0.009918 0.875860
O O8 0.396899 0.806737 0.899900
O O9 0.250000 0.576217 0.500000
O O10 0.356386 0.643615 0.597063
O O11 0.251065 0.598955 0.714758
O O12 0.317862 0.535072 0.871844
O O13 0.250000 0.442229 0.000000
O O14 0.680751 0.180751 0.852918
#
# Coordination Sequence:
#
# PCOD9563058 Si02
#       6
#    16  16   8  16  16  16
#     4  10  21  35  61  95 132 182 222 275 338 409
#     4  11  23  44  68  97 139 171 232 285 351 408
#     4  10  23  38  72  94 128 187 219 273 346 414
#     4  10  22  35  58  92 135 183 228 272 330 401
#     4  11  25  45  70 101 128 178 234 290 352 408
#     4  10  22  42  64  95 141 177 223 279 345 405
#
# _framework density 21.316676000000001
#
# number of rings (size 3 to 8) (size 9 to 14) (size 15 to 20)
#    0.000    1.636    2.727    0.818    7.636    0.545 
#    6.545    4.545    0.000    0.000    0.000    1.273 
#    0.000    0.000    0.000    0.000    0.000    0.000 
#
# Total GULP energy -490040.613496 kJ/mol
# GULP energy per Si atom -5568.643335 kJ/mol
# Density = 2.126816 g / cm^3
# Si number density = 21.316676 Si / 1000 Ang^3
#
#
#
# Elastic Constant Matrix: (Units=GPa)
#
#
# Indices 1 2 3 4 5 6 
#
# 1 109.5560 45.8662 14.7777 0.0000 0.0000 0.0000
# 2 45.8662 109.5560 14.7777 0.0000 0.0000 0.0000
# 3 14.7777 14.7777 90.3295 0.0000 0.0000 0.0000
# 4 0.0000 0.0000 0.0000 17.9937 0.0000 0.0000
# 5 0.0000 0.0000 0.0000 0.0000 17.9937 0.0000
# 6 0.0000 0.0000 0.0000 0.0000 0.0000 34.7906
#
#
#
# Elastic Compliance Matrix: (Units=1/GPa)
#
#
# Indices 1 2 3 4 5 6 
#
# 1 0.011171 -0.004530 -0.001086 0.000000 0.000000 0.000000
# 2 -0.004530 0.011171 -0.001086 0.000000 0.000000 0.000000
# 3 -0.001086 -0.001086 0.011426 0.000000 0.000000 0.000000
# 4 0.000000 0.000000 0.000000 0.055575 0.000000 0.000000
# 5 0.000000 0.000000 0.000000 0.000000 0.055575 0.000000
# 6 0.000000 0.000000 0.000000 0.000000 0.000000 0.028743
#
#
# Mechanical properties :
#
#
# Convention : Reuss Voigt Hill
#
# Bulk Modulus (GPa) = 49.11156 51.14274 50.12715
# Shear Modulus (GPa) = 25.79250 29.75690 27.77470
#
# Velocity S-wave (km/s) = 3.48223 3.74029 3.61356
# Velocity P-wave (km/s) = 6.26554 6.53429 6.40133
#
# Compressibility (1/GPa) = 0.02036180
#
# Stress axis : x y z
#
# Youngs Moduli (GPa) = 89.51834 89.51834 87.51939
#
# Poissons Ratio (x) = 0.40554 0.09508
# Poissons Ratio (y) = 0.40554 0.09508
# Poissons Ratio (z) = 0.09725 0.09725
#
# Static dielectric constant tensor:
#      x y z
#    x 1.758500 0.000000 0.000000 
#    y 0.000000 1.758500 0.000000 
#    z 0.000000 0.000000 1.880550 
# 
# From -- ./inp_files/4859.got.cif
#   From: 2010.05.17/outbox.cif.g08.bks.cpg/sg125_3_cif.got.tgz:4859.got - 2010.05.20 11:54:10.
