data_PCOD9563160
_publ_section_title
;
Structure prediction by ZEFSAII (Michael W. Deem and Ramdas Pophale) SiO2 
 PCOD9563160
Probable space group: P 4/N B M
;
_chemical_formula_sum "Si O2"
_cell_formula_units_Z 72
_cell_length_a 15.699671
_cell_length_b 15.699671
_cell_length_c 14.492528
_cell_angle_alpha 90.000000
_cell_angle_beta 90.000000
_cell_angle_gamma 90.000000
_cell_volume 3572.113512
_symmetry_space_group_name_H-M "P 4/N B M"
_symmetry_group_IT_number 125
_space_group.IT_coordinate_system_code '2'
_symmetry_cell_setting 'tetragonal'
loop_
_space_group_symop_operation_xyz
x,y,z
1/2-y,x,z
1/2-x,1/2-y,z
y,1/2-x,z
x,1/2-y,-z
1/2-x,y,-z
y,x,-z
1/2-y,1/2-x,-z
-x,-y,-z
1/2+y,-x,-z
1/2+x,1/2+y,-z
-y,1/2+x,-z
-x,1/2+y,z
1/2+x,-y,z
-y,-x,z
1/2+y,1/2+x,z
loop_
_atom_site_type_symbol
_atom_site_label
_atom_site_fract_x
_atom_site_fract_y
_atom_site_fract_z
Si Si1 0.761862 0.614757 0.254131
Si Si2 0.884340 0.384340 0.374509
Si Si3 0.025679 0.974322 0.634997
Si Si4 0.726780 0.489074 0.404918
Si Si5 0.059877 0.321685 0.063690
Si Si6 0.947512 0.052489 0.812188
O O1 0.839042 0.675268 0.280434
O O2 0.765342 0.531516 0.313547
O O3 0.768062 0.604142 0.145146
O O4 0.956553 0.456553 0.406633
O O5 0.790326 0.408011 0.409487
O O6 0.893833 0.393833 0.263408
O O7 0.013004 0.874736 0.609442
O O8 0.006869 0.993132 0.744919
O O9 0.750000 0.537293 0.500000
O O10 0.002100 0.387148 0.121124
O O11 0.015687 0.250000 0.000000
O O12 0.124712 0.375289 0.000000
#
# Coordination Sequence:
#
# PCOD9563160 Si02
#       6
#    16   8   8  16  16   8
#     4  11  22  38  60  96 138 173 219 280 349 421
#     4  10  23  44  70  96 138 177 230 285 348 411
#     4  10  25  46  70  95 141 182 224 291 356 408
#     4  12  24  42  69  96 132 183 234 287 345 413
#     4  12  23  38  67  98 130 175 229 278 347 422
#     4  10  23  46  65  93 139 179 218 285 344 414
#
# _framework density 20.156136
#
# number of rings (size 3 to 8) (size 9 to 14) (size 15 to 20)
#    0.667    0.222    4.444    3.667    0.000    5.111 
#    0.000    2.222    0.000    0.333    0.000    0.000 
#    0.000    0.000    0.000    0.000    0.000    0.000 
#
# Total GULP energy -400965.259560 kJ/mol
# GULP energy per Si atom -5568.961938 kJ/mol
# Density = 2.011026 g / cm^3
# Si number density = 20.156136 Si / 1000 Ang^3
#
#
#
# Elastic Constant Matrix: (Units=GPa)
#
#
# Indices 1 2 3 4 5 6 
#
# 1 96.7197 32.0031 49.9073 0.0000 0.0000 0.0000
# 2 32.0031 96.7200 49.9073 0.0000 0.0000 0.0000
# 3 49.9073 49.9073 125.8910 0.0000 0.0000 0.0000
# 4 0.0000 0.0000 0.0000 35.0261 0.0000 0.0000
# 5 0.0000 0.0000 0.0000 0.0000 35.0259 0.0000
# 6 0.0000 0.0000 0.0000 0.0000 0.0000 38.5032
#
#
#
# Elastic Compliance Matrix: (Units=1/GPa)
#
#
# Indices 1 2 3 4 5 6 
#
# 1 0.013334 -0.002118 -0.004447 0.000000 0.000000 0.000000
# 2 -0.002118 0.013334 -0.004447 0.000000 0.000000 0.000000
# 3 -0.004447 -0.004447 0.011469 0.000000 0.000000 0.000000
# 4 0.000000 0.000000 0.000000 0.028550 0.000000 0.000000
# 5 0.000000 0.000000 0.000000 0.000000 0.028550 0.000000
# 6 0.000000 0.000000 0.000000 0.000000 0.000000 0.025972
#
#
# Mechanical properties :
#
#
# Convention : Reuss Voigt Hill
#
# Bulk Modulus (GPa) = 62.05133 64.77400 63.41266
# Shear Modulus (GPa) = 33.64654 34.21190 33.92922
#
# Velocity S-wave (km/s) = 4.09013 4.12435 4.10728
# Velocity P-wave (km/s) = 7.29094 7.40853 7.34997
#
# Compressibility (1/GPa) = 0.01611569
#
# Stress axis : x y z
#
# Youngs Moduli (GPa) = 74.99449 74.99466 87.19176
#
# Poissons Ratio (x) = 0.15881 0.38771
# Poissons Ratio (y) = 0.15881 0.38771
# Poissons Ratio (z) = 0.33347 0.33347
#
# Static dielectric constant tensor:
#      x y z
#    x 1.762030 0.000000 0.000000 
#    y 0.000000 1.762030 0.000000 
#    z 0.000000 0.000000 1.791600 
# 
# From -- ./inp_files/3853.got.cif
#   From: 2010.05.17/outbox.cif.g08.bks.cpg/sg125_2_cif.got.tgz:3853.got - 2010.05.20 11:54:10.
