data_PCOD9563962
_publ_section_title
;
Structure prediction by ZEFSAII (Michael W. Deem and Ramdas Pophale) SiO2 
 PCOD9563962
Probable space group: P 4/M B M
;
_chemical_formula_sum "Si O2"
_cell_formula_units_Z 120
_cell_length_a 27.018539
_cell_length_b 27.018539
_cell_length_c 7.710295
_cell_angle_alpha 90.000000
_cell_angle_beta 90.000000
_cell_angle_gamma 90.000000
_cell_volume 5628.526528
_symmetry_space_group_name_H-M "P 4/M B M"
_symmetry_group_IT_number 127
_symmetry_cell_setting 'tetragonal'
loop_
_space_group_symop_operation_xyz
x,y,z
-y,x,z
-x,-y,z
y,-x,z
1/2+x,1/2-y,-z
1/2-x,1/2+y,-z
1/2+y,1/2+x,-z
1/2-y,1/2-x,-z
-x,-y,-z
y,-x,-z
x,y,-z
-y,x,-z
1/2-x,1/2+y,z
1/2+x,1/2-y,z
1/2-y,1/2-x,z
1/2+y,1/2+x,z
loop_
_atom_site_type_symbol
_atom_site_label
_atom_site_fract_x
_atom_site_fract_y
_atom_site_fract_z
Si Si1 0.116785 0.939264 0.301531
Si Si2 0.259232 0.678107 0.712797
Si Si3 0.932735 0.239504 0.695935
Si Si4 0.042493 0.542493 0.795987
Si Si5 0.460327 0.769999 0.296979
Si Si6 0.535383 0.117058 0.788976
Si Si7 0.207575 0.867723 0.294955
Si Si8 0.455572 0.364572 0.192372
O O1 0.118488 0.955676 0.500000
O O2 0.154482 0.894001 0.280229
O O3 0.063958 0.917323 0.254595
O O4 0.134249 0.985568 0.193170
O O5 0.262164 0.675453 0.500000
O O6 0.214849 0.714849 0.758482
O O7 0.250164 0.621510 0.773220
O O8 0.311982 0.700951 0.773444
O O9 0.932516 0.260228 0.500000
O O10 0.936833 0.180121 0.691152
O O11 0.985390 0.255818 0.778490
O O12 0.091433 0.515852 0.726240
O O13 0.000000 0.500000 0.786602
O O14 0.051545 0.551545 0.000000
O O15 0.462229 0.753863 0.500000
O O16 0.456412 0.828715 0.282706
O O17 0.410194 0.744804 0.223934
O O18 0.580003 0.080003 0.742747
O O19 0.533749 0.119337 0.000000
O O20 0.220093 0.862146 0.500000
O O21 0.436312 0.355289 0.000000
#
# Coordination Sequence:
#
# PCOD9563962 Si02
#       8
#    16  16  16   8  16  16  16  16
#     4  11  21  39  62  82 109 152 193 225 272 341
#     4   9  17  31  55  85 111 142 191 242 279 323
#     4  10  19  36  58  80 110 154 196 230 280 350
#     4   7  12  28  53  73  93 133 187 225 255 325
#     4  10  20  33  52  84 115 142 184 236 286 336
#     4   9  18  34  55  77 104 143 186 226 278 343
#     4   9  17  31  55  82 106 139 187 232 269 321
#     4  12  24  37  57  89 119 145 183 239 291 331
#
# _framework density 21.319966999999998
#
# number of rings (size 3 to 8) (size 9 to 14) (size 15 to 20)
#    0.000    2.200    2.667    2.400    0.000    1.600 
#    1.200    3.000    0.000    1.600    0.000    0.000 
#    0.000    0.000    0.000    0.000    0.000    0.000 
#
# Total GULP energy -669025.638306 kJ/mol
# GULP energy per Si atom -5575.213653 kJ/mol
# Density = 2.127144 g / cm^3
# Si number density = 21.319967 Si / 1000 Ang^3
#
#
#
# Elastic Constant Matrix: (Units=GPa)
#
#
# Indices 1 2 3 4 5 6 
#
# 1 97.5060 26.1670 4.6788 0.0000 0.0000 0.0000
# 2 26.1670 97.5060 4.6788 0.0000 0.0000 0.0000
# 3 4.6788 4.6788 46.5730 0.0000 0.0000 0.0000
# 4 0.0000 0.0000 0.0000 23.1196 0.0000 0.0000
# 5 0.0000 0.0000 0.0000 0.0000 23.1196 0.0000
# 6 0.0000 0.0000 0.0000 0.0000 0.0000 17.4579
#
#
#
# Elastic Compliance Matrix: (Units=1/GPa)
#
#
# Indices 1 2 3 4 5 6 
#
# 1 0.011083 -0.002935 -0.000819 0.000000 0.000000 0.000000
# 2 -0.002935 0.011083 -0.000819 0.000000 0.000000 0.000000
# 3 -0.000819 -0.000819 0.021636 0.000000 0.000000 0.000000
# 4 0.000000 0.000000 0.000000 0.043253 0.000000 0.000000
# 5 0.000000 0.000000 0.000000 0.000000 0.043253 0.000000
# 6 0.000000 0.000000 0.000000 0.000000 0.000000 0.057281
#
#
# Mechanical properties :
#
#
# Convention : Reuss Voigt Hill
#
# Bulk Modulus (GPa) = 28.85375 34.73712 31.79543
# Shear Modulus (GPa) = 24.00556 26.47681 25.24118
#
# Velocity S-wave (km/s) = 3.35918 3.52785 3.44455
# Velocity P-wave (km/s) = 5.34869 5.73785 5.54669
#
# Compressibility (1/GPa) = 0.03465754
#
# Stress axis : x y z
#
# Youngs Moduli (GPa) = 90.23096 90.23096 46.21903
#
# Poissons Ratio (x) = 0.26482 0.03783
# Poissons Ratio (y) = 0.26482 0.03783
# Poissons Ratio (z) = 0.07386 0.07386
#
# Static dielectric constant tensor:
#      x y z
#    x 1.793220 0.000000 0.000000 
#    y 0.000000 1.793220 0.000000 
#    z 0.000000 0.000000 1.797790 
# 
# From -- ./inp_files/2360.got.cif
#   From: 2010.05.17/outbox.cif.g08.bks.cpg/sg127_2_cif.got.tgz:2360.got - 2010.05.20 12:03:00.
