data_PCOD9563262
_publ_section_title
;
Structure prediction by ZEFSAII (Michael W. Deem and Ramdas Pophale) SiO2 
 PCOD9563262
Probable space group: P 4/N B M
;
_chemical_formula_sum "Si O2"
_cell_formula_units_Z 52
_cell_length_a 22.406274
_cell_length_b 22.406274
_cell_length_c 5.124828
_cell_angle_alpha 90.000000
_cell_angle_beta 90.000000
_cell_angle_gamma 90.000000
_cell_volume 2572.874361
_symmetry_space_group_name_H-M "P 4/N B M"
_symmetry_group_IT_number 125
_space_group.IT_coordinate_system_code '2'
_symmetry_cell_setting 'tetragonal'
loop_
_space_group_symop_operation_xyz
x,y,z
1/2-y,x,z
1/2-x,1/2-y,z
y,1/2-x,z
x,1/2-y,-z
1/2-x,y,-z
y,x,-z
1/2-y,1/2-x,-z
-x,-y,-z
1/2+y,-x,-z
1/2+x,1/2+y,-z
-y,1/2+x,-z
-x,1/2+y,z
1/2+x,-y,z
-y,-x,z
1/2+y,1/2+x,z
loop_
_atom_site_type_symbol
_atom_site_label
_atom_site_fract_x
_atom_site_fract_y
_atom_site_fract_z
Si Si1 0.000000 0.000000 0.000000
Si Si2 0.750000 0.151347 0.500000
Si Si3 0.680276 0.909954 0.560608
Si Si4 0.020561 0.358395 0.065606
Si Si5 0.250000 0.929456 0.000000
O O1 0.999175 0.925755 0.008465
O O2 0.693940 0.193940 0.446508
O O3 0.761457 0.110814 0.250903
O O4 0.750000 0.916201 0.500000
O O5 0.655789 0.844211 0.500000
O O6 0.663259 0.931220 0.849945
O O7 0.645501 0.952020 0.354953
O O8 0.969281 0.308553 0.048434
#
# Coordination Sequence:
#
# PCOD9563262 Si02
#       5
#     4   8  16  16   8
#     4  12  28  46  72 114 144 182 248 306 364 426
#     4  11  26  46  68 100 138 178 237 296 346 417
#     4  12  23  46  70  98 141 186 234 288 358 428
#     4  12  26  45  69 104 142 187 231 291 363 431
#     4  12  24  47  72 102 137 196 228 288 362 442
#
# _framework density 20.210857000000001
#
# number of rings (size 3 to 8) (size 9 to 14) (size 15 to 20)
#    0.000    0.154    6.154    2.769    4.308    4.000 
#    0.000    0.000    0.000    3.692    0.000    0.000 
#    0.000    0.000    0.000    0.000    0.000    0.000 
#
# Total GULP energy -289862.369959 kJ/mol
# GULP energy per Si atom -5574.276345 kJ/mol
# Density = 2.016486 g / cm^3
# Si number density = 20.210857 Si / 1000 Ang^3
#
#
#
# Elastic Constant Matrix: (Units=GPa)
#
#
# Indices 1 2 3 4 5 6 
#
# 1 116.2677 20.1112 -16.3749 0.0000 0.0000 0.0000
# 2 20.1112 116.2677 -16.3749 0.0000 0.0000 0.0000
# 3 -16.3749 -16.3749 67.7526 0.0000 0.0000 0.0000
# 4 0.0000 0.0000 0.0000 19.7364 0.0000 0.0000
# 5 0.0000 0.0000 0.0000 0.0000 19.7364 0.0000
# 6 0.0000 0.0000 0.0000 0.0000 0.0000 13.2369
#
#
#
# Elastic Compliance Matrix: (Units=1/GPa)
#
#
# Indices 1 2 3 4 5 6 
#
# 1 0.009092 -0.001308 0.001881 0.000000 0.000000 0.000000
# 2 -0.001308 0.009092 0.001881 0.000000 0.000000 0.000000
# 3 0.001881 0.001881 0.015669 0.000000 0.000000 0.000000
# 4 0.000000 0.000000 0.000000 0.050668 0.000000 0.000000
# 5 0.000000 0.000000 0.000000 0.000000 0.050668 0.000000
# 6 0.000000 0.000000 0.000000 0.000000 0.000000 0.075546
#
#
# Mechanical properties :
#
#
# Convention : Reuss Voigt Hill
#
# Bulk Modulus (GPa) = 25.79776 30.55674 28.17725
# Shear Modulus (GPa) = 22.85756 31.40372 27.13064
#
# Velocity S-wave (km/s) = 3.36662 3.94611 3.66782
# Velocity P-wave (km/s) = 5.28244 5.99284 5.64882
#
# Compressibility (1/GPa) = 0.03876305
#
# Stress axis : x y z
#
# Youngs Moduli (GPa) = 109.98671 109.98671 63.82031
#
# Poissons Ratio (x) = 0.14383 -0.12007
# Poissons Ratio (y) = 0.14383 -0.12007
# Poissons Ratio (z) = -0.20693 -0.20693
#
# Static dielectric constant tensor:
#      x y z
#    x 1.709870 0.000000 0.000000 
#    y 0.000000 1.709870 0.000000 
#    z 0.000000 0.000000 1.693400 
# 
# From -- ./inp_files/758.got.cif
#   From: 2010.05.17/outbox.cif.g08.bks.cpg/sg125_1_cif.got.tgz:758.got - 2010.05.20 11:54:10.
