data_PCOD9563699
_publ_section_title
;
Structure prediction by ZEFSAII (Michael W. Deem and Ramdas Pophale) SiO2 
 PCOD9563699
Probable space group: P 4/N N C
;
_chemical_formula_sum "Si O2"
_cell_formula_units_Z 40
_cell_length_a 13.337911
_cell_length_b 13.337911
_cell_length_c 7.943615
_cell_angle_alpha 90.000000
_cell_angle_beta 90.000000
_cell_angle_gamma 90.000000
_cell_volume 1413.168075
_symmetry_space_group_name_H-M "P 4/N N C"
_symmetry_group_IT_number 126
_space_group.IT_coordinate_system_code '2'
_symmetry_cell_setting 'tetragonal'
loop_
_space_group_symop_operation_xyz
x,y,z
1/2-y,x,z
1/2-x,1/2-y,z
y,1/2-x,z
x,1/2-y,1/2-z
1/2-x,y,1/2-z
y,x,1/2-z
1/2-y,1/2-x,1/2-z
-x,-y,-z
1/2+y,-x,-z
1/2+x,1/2+y,-z
-y,1/2+x,-z
-x,1/2+y,1/2+z
1/2+x,-y,1/2+z
-y,-x,1/2+z
1/2+y,1/2+x,1/2+z
loop_
_atom_site_type_symbol
_atom_site_label
_atom_site_fract_x
_atom_site_fract_y
_atom_site_fract_z
Si Si1 0.831535 0.145380 0.896474
Si Si2 0.643402 0.618874 0.435513
Si Si3 0.468620 0.031381 0.250000
O O1 0.750000 0.146799 0.750000
O O2 0.913961 0.067441 0.834984
O O3 0.753612 0.121372 0.051679
O O4 0.763239 0.616227 0.444976
O O5 0.595784 0.595784 0.250000
O O6 0.603826 0.556420 0.591202
#
# Coordination Sequence:
#
# PCOD9563699 Si02
#       3
#    16  16   8
#     4  11  26  54  84 121 180 247 304 400 493 562
#     4   9  18  36  65 111 167 225 283 373 475 544
#     4  12  24  45  84 124 158 237 322 378 460 592
#
# _framework density 28.305197
#
# number of rings (size 3 to 8) (size 9 to 14) (size 15 to 20)
#    0.000    1.600    0.000    7.200    0.000    3.200 
#   28.800    0.000   13.200    0.000    0.000    0.000 
#    0.000    0.000    0.000    0.000    0.000    4.800 
#
# Total GULP energy -223313.328714 kJ/mol
# GULP energy per Si atom -5582.833218 kJ/mol
# Density = 2.824077 g / cm^3
# Si number density = 28.305197 Si / 1000 Ang^3
#
#
#
# Elastic Constant Matrix: (Units=GPa)
#
#
# Indices 1 2 3 4 5 6 
#
# 1 230.0899 72.5924 77.3914 0.0000 0.0000 0.0000
# 2 72.5924 230.0905 77.3916 0.0000 0.0000 0.0000
# 3 77.3914 77.3916 225.0145 0.0000 0.0000 0.0000
# 4 0.0000 0.0000 0.0000 12.4966 0.0000 0.0000
# 5 0.0000 0.0000 0.0000 0.0000 12.4971 0.0000
# 6 0.0000 0.0000 0.0000 0.0000 0.0000 -388.7094
#
#
#
# Elastic Compliance Matrix: (Units=1/GPa)
#
#
# Indices 1 2 3 4 5 6 
#
# 1 0.005179 -0.001170 -0.001379 0.000000 0.000000 0.000000
# 2 -0.001170 0.005179 -0.001379 0.000000 0.000000 0.000000
# 3 -0.001379 -0.001379 0.005393 0.000000 0.000000 0.000000
# 4 0.000000 0.000000 0.000000 0.080022 0.000000 0.000000
# 5 0.000000 0.000000 0.000000 0.000000 0.080019 0.000000
# 6 0.000000 0.000000 0.000000 0.000000 0.000000 -0.002573
#
#
# Mechanical properties :
#
#
# Convention : Reuss Voigt Hill
#
# Bulk Modulus (GPa) = 126.66061 126.66065 126.66063
# Shear Modulus (GPa) = 27.21737 -42.22186 -7.50224
#
# Velocity S-wave (km/s) = 3.10428 -3.86640 -1.62980
# Velocity P-wave (km/s) = 7.59566 4.99132 6.42679
#
# Compressibility (1/GPa) = 0.00789511
#
# Stress axis : x y z
#
# Youngs Moduli (GPa) = 193.08402 193.08455 185.43878
#
# Poissons Ratio (x) = 0.22595 0.25569
# Poissons Ratio (y) = 0.22595 0.25569
# Poissons Ratio (z) = 0.26623 0.26623
#
# Static dielectric constant tensor:
#      x y z
#    x 0.853270 0.000000 0.000000 
#    y 0.000000 0.852750 0.000000 
#    z 0.000000 0.000000 2.281140 
# 
# From -- ./inp_files/929.got.cif
#   From: 2010.05.17/outbox.cif.g08.bks.cpg/sg126_1_cif.got.tgz:929.got - 2010.05.20 11:58:20.
