data_PCOD9563273
_publ_section_title
;
Structure prediction by ZEFSAII (Michael W. Deem and Ramdas Pophale) SiO2 
 PCOD9563273
Probable space group: P 4/N B M
;
_chemical_formula_sum "Si O2"
_cell_formula_units_Z 112
_cell_length_a 15.000000
_cell_length_b 15.000000
_cell_length_c 27.000000
_cell_angle_alpha 90.000000
_cell_angle_beta 90.000000
_cell_angle_gamma 90.000000
_cell_volume 6075.000000
_symmetry_space_group_name_H-M "P 4/N B M"
_symmetry_group_IT_number 125
_space_group.IT_coordinate_system_code '2'
_symmetry_cell_setting 'tetragonal'
loop_
_space_group_symop_operation_xyz
x,y,z
1/2-y,x,z
1/2-x,1/2-y,z
y,1/2-x,z
x,1/2-y,-z
1/2-x,y,-z
y,x,-z
1/2-y,1/2-x,-z
-x,-y,-z
1/2+y,-x,-z
1/2+x,1/2+y,-z
-y,1/2+x,-z
-x,1/2+y,z
1/2+x,-y,z
-y,-x,z
1/2+y,1/2+x,z
loop_
_atom_site_type_symbol
_atom_site_label
_atom_site_fract_x
_atom_site_fract_y
_atom_site_fract_z
Si Si1 0.607945 0.244684 0.630373
Si Si2 0.479728 0.661607 0.532130
Si Si3 0.025507 0.120845 0.679406
Si Si4 0.003128 0.146972 0.979294
Si Si5 0.187586 0.114346 0.111446
Si Si6 0.152008 0.138348 0.591411
Si Si7 0.321824 0.120327 0.773084
O O1 0.678369 0.321632 0.615023
O O2 0.667454 0.167454 0.655887
O O3 0.563451 0.200361 0.582790
O O4 0.533484 0.294643 0.662073
O O5 0.494876 0.750000 0.500000
O O6 0.408684 0.591317 0.510536
O O7 0.570239 0.614274 0.551049
O O8 0.112691 0.114778 0.644925
O O9 0.051794 0.135003 0.735784
O O10 0.965823 0.034178 0.671486
O O11 0.032943 0.157854 0.922315
O O12 0.997860 0.250000 0.000000
O O13 0.085783 0.085783 0.000000
O O14 0.913344 0.086657 0.986081
O O15 0.292013 0.136452 0.101472
O O16 0.171936 0.096893 0.169284
O O17 0.258017 0.130525 0.585381
O O18 0.366043 0.216705 0.763623
#
# Coordination Sequence:
#
# PCOD9563273 Si02
#       7
#    16  16  16  16  16  16  16
#     4   9  19  37  59  82 110 142 181 228 273 330
#     4  11  23  41  64  89 112 139 179 227 280 337
#     4  11  21  36  59  87 115 150 195 237 288 346
#     4  11  22  35  58  90 124 166 214 264 319 377
#     4   9  17  33  58  85 116 156 205 261 313 362
#     4  11  23  41  60  81 114 152 183 222 277 337
#     4   9  19  35  56  84 118 155 194 243 308 364
#
# _framework density 18.436214
#
# number of rings (size 3 to 8) (size 9 to 14) (size 15 to 20)
#    0.000    1.857    2.857    2.571    0.000    3.286 
#    0.000    1.429    0.000    1.714    0.000    2.000 
#    0.000    0.000    0.000    0.000    0.000    0.000 
#
# Total GULP energy -624611.486497 kJ/mol
# GULP energy per Si atom -5576.888272 kJ/mol
# Density = 1.839425 g / cm^3
# Si number density = 18.436214 Si / 1000 Ang^3
#
#
#
# Elastic Constant Matrix: (Units=GPa)
#
#
# Indices 1 2 3 4 5 6 
#
# 1 92.6025 37.2644 34.2462 0.0000 0.0000 0.0000
# 2 37.2644 92.6025 34.2462 0.0000 0.0000 0.0000
# 3 34.2462 34.2462 58.9612 0.0000 0.0000 0.0000
# 4 0.0000 0.0000 0.0000 21.6199 0.0000 0.0000
# 5 0.0000 0.0000 0.0000 0.0000 21.6199 0.0000
# 6 0.0000 0.0000 0.0000 0.0000 0.0000 10.7439
#
#
#
# Elastic Compliance Matrix: (Units=1/GPa)
#
#
# Indices 1 2 3 4 5 6 
#
# 1 0.014586 -0.003485 -0.006448 0.000000 0.000000 0.000000
# 2 -0.003485 0.014586 -0.006448 0.000000 0.000000 0.000000
# 3 -0.006448 -0.006448 0.024450 0.000000 0.000000 0.000000
# 4 0.000000 0.000000 0.000000 0.046254 0.000000 0.000000
# 5 0.000000 0.000000 0.000000 0.000000 0.046254 0.000000
# 6 0.000000 0.000000 0.000000 0.000000 0.000000 0.093076
#
#
# Mechanical properties :
#
#
# Convention : Reuss Voigt Hill
#
# Bulk Modulus (GPa) = 47.93582 50.63109 49.28346
# Shear Modulus (GPa) = 17.92635 20.02402 18.97518
#
# Velocity S-wave (km/s) = 3.12163 3.29922 3.21165
# Velocity P-wave (km/s) = 6.24901 6.48348 6.36732
#
# Compressibility (1/GPa) = 0.02086123
#
# Stress axis : x y z
#
# Youngs Moduli (GPa) = 68.56028 68.56028 40.89952
#
# Poissons Ratio (x) = 0.23893 0.26370
# Poissons Ratio (y) = 0.23893 0.26370
# Poissons Ratio (z) = 0.44205 0.44205
#
# Static dielectric constant tensor:
#      x y z
#    x 1.657160 0.000000 0.000000 
#    y 0.000000 1.657160 0.000000 
#    z 0.000000 0.000000 1.627070 
# 
# From -- ./inp_files/6231.got.cif
#   From: 2010.05.17/outbox.ucp.g08.bks.cvg/sg125_4_cif.got.tgz:6231.got - 2010.06.11 11:36:31.
