data_PCOD9563931
_publ_section_title
;
Structure prediction by ZEFSAII (Michael W. Deem and Ramdas Pophale) SiO2 
 PCOD9563931
Probable space group: P 4/M B M
;
_chemical_formula_sum "Si O2"
_cell_formula_units_Z 120
_cell_length_a 15.184243
_cell_length_b 15.184243
_cell_length_c 30.830809
_cell_angle_alpha 90.000000
_cell_angle_beta 90.000000
_cell_angle_gamma 90.000000
_cell_volume 7108.389414
_symmetry_space_group_name_H-M "P 4/M B M"
_symmetry_group_IT_number 127
_symmetry_cell_setting 'tetragonal'
loop_
_space_group_symop_operation_xyz
x,y,z
-y,x,z
-x,-y,z
y,-x,z
1/2+x,1/2-y,-z
1/2-x,1/2+y,-z
1/2+y,1/2+x,-z
1/2-y,1/2-x,-z
-x,-y,-z
y,-x,-z
x,y,-z
-y,x,-z
1/2-x,1/2+y,z
1/2+x,1/2-y,z
1/2-y,1/2-x,z
1/2+y,1/2+x,z
loop_
_atom_site_type_symbol
_atom_site_label
_atom_site_fract_x
_atom_site_fract_y
_atom_site_fract_z
Si Si1 0.473326 0.352343 0.357243
Si Si2 0.243932 0.596855 0.720629
Si Si3 0.425901 0.925901 0.950849
Si Si4 0.684195 0.333542 0.124234
Si Si5 0.973426 0.146906 0.453451
Si Si6 0.014768 0.265896 0.891740
Si Si7 0.612674 0.402726 0.215291
Si Si8 0.998070 0.645112 0.201880
O O1 0.567834 0.401707 0.352964
O O2 0.454641 0.279535 0.321093
O O3 0.465995 0.311983 0.405817
O O4 0.174064 0.674064 0.710900
O O5 0.332040 0.632808 0.744237
O O6 0.199013 0.533869 0.756978
O O7 0.344995 0.964501 0.923817
O O8 0.500000 0.000000 0.952595
O O9 0.401190 0.901190 0.000000
O O10 0.752669 0.252669 0.125328
O O11 0.592808 0.304073 0.103085
O O12 0.727311 0.418005 0.101874
O O13 0.658621 0.364684 0.172629
O O14 0.964682 0.194951 0.500000
O O15 0.067812 0.097762 0.453716
O O16 0.019263 0.300018 0.841747
O O17 0.618106 0.509265 0.215985
O O18 0.911621 0.588380 0.212574
O O19 0.075728 0.575728 0.190668
#
# Coordination Sequence:
#
# PCOD9563931 Si02
#       8
#    16  16   8  16  16  16  16  16
#     4   9  17  30  47  66  94 131 166 208 266 325
#     4  11  21  32  45  68 102 141 180 220 262 318
#     4  11  24  46  72  96 120 153 203 249 288 333
#     4  12  22  36  59  90 122 155 189 231 281 338
#     4   7  10  19  39  66  89 112 153 208 261 316
#     4  12  23  39  63  93 123 153 188 235 288 341
#     4  11  21  34  51  75 107 144 182 224 273 330
#     4  10  19  34  55  75 101 142 187 232 269 307
#
# _framework density 16.881461999999999
#
# number of rings (size 3 to 8) (size 9 to 14) (size 15 to 20)
#    0.000    1.667    4.000    3.600    0.000    1.333 
#    0.000    4.667    0.000    0.400    0.000    0.933 
#    0.000    1.600    0.000    3.333    0.000    0.000 
#
# Total GULP energy -669135.602807 kJ/mol
# GULP energy per Si atom -5576.130023 kJ/mol
# Density = 1.684304 g / cm^3
# Si number density = 16.881462 Si / 1000 Ang^3
#
#
#
# Elastic Constant Matrix: (Units=GPa)
#
#
# Indices 1 2 3 4 5 6 
#
# 1 61.1449 15.3100 24.3211 0.0000 0.0000 0.0000
# 2 15.3100 61.1449 24.3211 0.0000 0.0000 0.0000
# 3 24.3211 24.3211 104.3015 0.0000 0.0000 0.0000
# 4 0.0000 0.0000 0.0000 12.2590 0.0000 0.0000
# 5 0.0000 0.0000 0.0000 0.0000 12.2590 0.0000
# 6 0.0000 0.0000 0.0000 0.0000 0.0000 23.5211
#
#
#
# Elastic Compliance Matrix: (Units=1/GPa)
#
#
# Indices 1 2 3 4 5 6 
#
# 1 0.018588 -0.003230 -0.003581 0.000000 0.000000 0.000000
# 2 -0.003230 0.018588 -0.003581 0.000000 0.000000 0.000000
# 3 -0.003581 -0.003581 0.011258 0.000000 0.000000 0.000000
# 4 0.000000 0.000000 0.000000 0.081573 0.000000 0.000000
# 5 0.000000 0.000000 0.000000 0.000000 0.081573 0.000000
# 6 0.000000 0.000000 0.000000 0.000000 0.000000 0.042515
#
#
# Mechanical properties :
#
#
# Convention : Reuss Voigt Hill
#
# Bulk Modulus (GPa) = 36.16770 39.38844 37.77807
# Shear Modulus (GPa) = 17.59979 20.45042 19.02510
#
# Velocity S-wave (km/s) = 3.23236 3.48431 3.36070
# Velocity P-wave (km/s) = 5.94995 6.29049 6.12259
#
# Compressibility (1/GPa) = 0.02764898
#
# Stress axis : x y z
#
# Youngs Moduli (GPa) = 53.79894 53.79894 88.82795
#
# Poissons Ratio (x) = 0.17375 0.31811
# Poissons Ratio (y) = 0.17375 0.31811
# Poissons Ratio (z) = 0.19266 0.19266
#
# Static dielectric constant tensor:
#      x y z
#    x 1.588900 0.000000 0.000000 
#    y 0.000000 1.588900 0.000000 
#    z 0.000000 0.000000 1.597790 
# 
# From -- ./inp_files/6689.got.cif
#   From: 2010.05.17/outbox.cif.g08.bks.cpg/sg127_4_cif.got.tgz:6689.got - 2010.05.20 12:03:00.
