data_PCOD9563072
_publ_section_title
;
Structure prediction by ZEFSAII (Michael W. Deem and Ramdas Pophale) SiO2 
 PCOD9563072
Probable space group: P 4/N B M
;
_chemical_formula_sum "Si O2"
_cell_formula_units_Z 64
_cell_length_a 25.979180
_cell_length_b 25.979180
_cell_length_c 5.205194
_cell_angle_alpha 90.000000
_cell_angle_beta 90.000000
_cell_angle_gamma 90.000000
_cell_volume 3513.078049
_symmetry_space_group_name_H-M "P 4/N B M"
_symmetry_group_IT_number 125
_space_group.IT_coordinate_system_code '2'
_symmetry_cell_setting 'tetragonal'
loop_
_space_group_symop_operation_xyz
x,y,z
1/2-y,x,z
1/2-x,1/2-y,z
y,1/2-x,z
x,1/2-y,-z
1/2-x,y,-z
y,x,-z
1/2-y,1/2-x,-z
-x,-y,-z
1/2+y,-x,-z
1/2+x,1/2+y,-z
-y,1/2+x,-z
-x,1/2+y,z
1/2+x,-y,z
-y,-x,z
1/2+y,1/2+x,z
loop_
_atom_site_type_symbol
_atom_site_label
_atom_site_fract_x
_atom_site_fract_y
_atom_site_fract_z
Si Si1 0.465725 0.307988 0.091564
Si Si2 0.630809 0.047009 0.172783
Si Si3 0.869670 0.215235 0.750449
Si Si4 0.859250 0.941299 0.595716
O O1 0.445249 0.315875 0.376318
O O2 0.474825 0.250000 0.000000
O O3 0.518337 0.341012 0.063704
O O4 0.429599 0.334269 0.873382
O O5 0.581945 0.081945 0.108606
O O6 0.674394 0.084267 0.287998
O O7 0.618295 0.998850 0.357173
O O8 0.864417 0.250000 0.500000
O O9 0.818494 0.181507 0.793730
O O10 0.879574 0.250000 0.000000
O O11 0.902030 0.902030 0.500000
#
# Coordination Sequence:
#
# PCOD9563072 Si02
#       4
#    16  16  16  16
#     4  10  21  37  61  84 115 156 192 231 283 334
#     4   9  23  36  57  83 116 156 196 238 287 345
#     4  11  24  39  57  80 109 150 202 254 301 344
#     4  10  22  38  59  87 119 149 190 237 282 346
#
# _framework density 18.217642999999999
#
# number of rings (size 3 to 8) (size 9 to 14) (size 15 to 20)
#    1.500    0.500    0.000    3.000    7.000    3.000 
#    0.000    1.250    0.000    0.000    0.000    0.000 
#    0.000   35.000    0.000    0.000    0.000    0.000 
#
# Total GULP energy -356328.957871 kJ/mol
# GULP energy per Si atom -5567.639967 kJ/mol
# Density = 1.817618 g / cm^3
# Si number density = 18.217643 Si / 1000 Ang^3
#
#
#
# Elastic Constant Matrix: (Units=GPa)
#
#
# Indices 1 2 3 4 5 6 
#
# 1 37.1943 30.6239 6.8761 0.0000 0.0000 0.0000
# 2 30.6239 37.1943 6.8761 0.0000 0.0000 0.0000
# 3 6.8761 6.8761 58.8149 0.0000 0.0000 0.0000
# 4 0.0000 0.0000 0.0000 17.7896 0.0000 0.0000
# 5 0.0000 0.0000 0.0000 0.0000 17.7896 0.0000
# 6 0.0000 0.0000 0.0000 0.0000 0.0000 17.4324
#
#
#
# Elastic Compliance Matrix: (Units=1/GPa)
#
#
# Indices 1 2 3 4 5 6 
#
# 1 0.083650 -0.068546 -0.001766 0.000000 0.000000 0.000000
# 2 -0.068546 0.083650 -0.001766 0.000000 0.000000 0.000000
# 3 -0.001766 -0.001766 0.017415 0.000000 0.000000 0.000000
# 4 0.000000 0.000000 0.000000 0.056213 0.000000 0.000000
# 5 0.000000 0.000000 0.000000 0.000000 0.056213 0.000000
# 6 0.000000 0.000000 0.000000 0.000000 0.000000 0.057364
#
#
# Mechanical properties :
#
#
# Convention : Reuss Voigt Hill
#
# Bulk Modulus (GPa) = 24.65537 24.66173 24.65855
# Shear Modulus (GPa) = 9.76219 16.52417 13.14318
#
# Velocity S-wave (km/s) = 2.31739 3.01498 2.68890
# Velocity P-wave (km/s) = 4.55231 5.06822 4.81718
#
# Compressibility (1/GPa) = 0.04055912
#
# Stress axis : x y z
#
# Youngs Moduli (GPa) = 11.95460 11.95460 57.42055
#
# Poissons Ratio (x) = 0.81945 0.10139
# Poissons Ratio (y) = 0.81945 0.10139
# Poissons Ratio (z) = 0.02111 0.02111
#
# Static dielectric constant tensor:
#      x y z
#    x 1.620930 0.000000 0.000000 
#    y 0.000000 1.620930 0.000000 
#    z 0.000000 0.000000 1.641650 
# 
# From -- ./inp_files/947.got.cif
#   From: 2010.05.17/outbox.cif.g08.bks.cpg/sg125_1_cif.got.tgz:947.got - 2010.05.20 11:54:10.
