data_PCOD9563435
_publ_section_title
;
Structure prediction by ZEFSAII (Michael W. Deem and Ramdas Pophale) SiO2 
 PCOD9563435
Probable space group: P 4/N N C
;
_chemical_formula_sum "Si O2"
_cell_formula_units_Z 80
_cell_length_a 27.240549
_cell_length_b 27.240549
_cell_length_c 5.402269
_cell_angle_alpha 90.000000
_cell_angle_beta 90.000000
_cell_angle_gamma 90.000000
_cell_volume 4008.740259
_symmetry_space_group_name_H-M "P 4/N N C"
_symmetry_group_IT_number 126
_space_group.IT_coordinate_system_code '2'
_symmetry_cell_setting 'tetragonal'
loop_
_space_group_symop_operation_xyz
x,y,z
1/2-y,x,z
1/2-x,1/2-y,z
y,1/2-x,z
x,1/2-y,1/2-z
1/2-x,y,1/2-z
y,x,1/2-z
1/2-y,1/2-x,1/2-z
-x,-y,-z
1/2+y,-x,-z
1/2+x,1/2+y,-z
-y,1/2+x,-z
-x,1/2+y,1/2+z
1/2+x,-y,1/2+z
-y,-x,1/2+z
1/2+y,1/2+x,1/2+z
loop_
_atom_site_type_symbol
_atom_site_label
_atom_site_fract_x
_atom_site_fract_y
_atom_site_fract_z
Si Si1 0.145940 0.354061 0.250000
Si Si2 0.408049 0.895819 0.249999
Si Si3 0.692438 0.959125 0.750000
Si Si4 0.978272 0.193415 0.750000
Si Si5 0.153785 0.694427 0.750000
Si Si6 0.808421 0.808421 0.250000
O O1 0.158770 0.411377 0.249997
O O2 0.169029 0.330973 0.499845
O O3 0.422270 0.922270 0.499999
O O4 0.432679 0.842746 0.249999
O O5 0.349070 0.886864 0.249999
O O6 0.750000 0.943622 0.750000
O O7 0.684881 0.990351 0.499560
O O8 0.684881 0.990351 0.000440
O O9 0.962247 0.250000 0.750000
O O10 0.134359 0.750000 0.750000
O O11 0.184799 0.684799 0.500000
O O12 0.750000 0.817237 0.250000
#
# Coordination Sequence:
#
# PCOD9563435 Si02
#       6
#     8  16  16  16  16   8
#     4  12  22  37  60  88 120 159 206 255 290 331
#     4  10  21  35  55  80 105 142 183 230 285 347
#     4  10  21  37  59  86 116 153 196 243 291 341
#     4  10  21  38  57  81 115 153 196 243 293 349
#     4  10  21  34  47  68 101 138 175 214 258 320
#     4  11  22  34  52  84 130 175 202 225 272 345
#
# _framework density 19.956394
#
# number of rings (size 3 to 8) (size 9 to 14) (size 15 to 20)
#    0.000    1.700    0.000    4.800    0.000   10.000 
#    0.000    2.000    0.000    0.000    0.000   14.000 
#    0.000    0.000    0.000    0.000    0.000    0.000 
#
# Total GULP energy -446934.982434 kJ/mol
# GULP energy per Si atom -5586.687280 kJ/mol
# Density = 1.991097 g / cm^3
# Si number density = 19.956394 Si / 1000 Ang^3
#
#
#
# Elastic Constant Matrix: (Units=GPa)
#
#
# Indices 1 2 3 4 5 6 
#
# 1 43.1694 25.5019 28.9711 0.0000 0.0000 0.0000
# 2 25.5019 43.1712 28.9711 0.0000 0.0000 0.0000
# 3 28.9711 28.9711 211.3763 0.0000 0.0000 0.0000
# 4 0.0000 0.0000 0.0000 20.8661 0.0000 0.0000
# 5 0.0000 0.0000 0.0000 0.0000 20.8660 0.0000
# 6 0.0000 0.0000 0.0000 0.0000 0.0000 24.3104
#
#
#
# Elastic Compliance Matrix: (Units=1/GPa)
#
#
# Indices 1 2 3 4 5 6 
#
# 1 0.036533 -0.020066 -0.002257 0.000000 0.000000 0.000000
# 2 -0.020066 0.036531 -0.002257 0.000000 0.000000 0.000000
# 3 -0.002257 -0.002257 0.005350 0.000000 0.000000 0.000000
# 4 0.000000 0.000000 0.000000 0.047925 0.000000 0.000000
# 5 0.000000 0.000000 0.000000 0.000000 0.047925 0.000000
# 6 0.000000 0.000000 0.000000 0.000000 0.000000 0.041135
#
#
# Mechanical properties :
#
#
# Convention : Reuss Voigt Hill
#
# Bulk Modulus (GPa) = 34.18283 51.62280 42.90281
# Shear Modulus (GPa) = 18.22760 27.49335 22.86048
#
# Velocity S-wave (km/s) = 3.02548 3.71573 3.38823
# Velocity P-wave (km/s) = 5.41947 6.65829 6.07056
#
# Compressibility (1/GPa) = 0.02925445
#
# Stress axis : x y z
#
# Youngs Moduli (GPa) = 27.37246 27.37369 186.93199
#
# Poissons Ratio (x) = 0.54928 0.42189
# Poissons Ratio (y) = 0.54926 0.42186
# Poissons Ratio (z) = 0.06178 0.06178
#
# Static dielectric constant tensor:
#      x y z
#    x 1.672540 0.000000 0.000000 
#    y 0.000000 1.672540 0.000000 
#    z 0.000000 0.000000 1.803420 
# 
# From -- ./inp_files/615.got.cif
#   From: 2010.05.17/outbox.cif.g08.bks.cpg/sg126_1_cif.got.tgz:615.got - 2010.05.20 11:58:20.
