data_PCOD9563419
_publ_section_title
;
Structure prediction by ZEFSAII (Michael W. Deem and Ramdas Pophale) SiO2 
 PCOD9563419
Probable space group: P 4/N N C
;
_chemical_formula_sum "Si O2"
_cell_formula_units_Z 108
_cell_length_a 14.172998
_cell_length_b 14.172998
_cell_length_c 25.048060
_cell_angle_alpha 90.000000
_cell_angle_beta 90.000000
_cell_angle_gamma 90.000000
_cell_volume 5031.500806
_symmetry_space_group_name_H-M "P 4/N N C"
_symmetry_group_IT_number 126
_space_group.IT_coordinate_system_code '2'
_symmetry_cell_setting 'tetragonal'
loop_
_space_group_symop_operation_xyz
x,y,z
1/2-y,x,z
1/2-x,1/2-y,z
y,1/2-x,z
x,1/2-y,1/2-z
1/2-x,y,1/2-z
y,x,1/2-z
1/2-y,1/2-x,1/2-z
-x,-y,-z
1/2+y,-x,-z
1/2+x,1/2+y,-z
-y,1/2+x,-z
-x,1/2+y,1/2+z
1/2+x,-y,1/2+z
-y,-x,1/2+z
1/2+y,1/2+x,1/2+z
loop_
_atom_site_type_symbol
_atom_site_label
_atom_site_fract_x
_atom_site_fract_y
_atom_site_fract_z
Si Si1 0.405684 0.015820 0.145370
Si Si2 0.043813 0.211109 0.891618
Si Si3 0.087349 0.817543 0.202414
Si Si4 0.623530 0.330307 0.480586
Si Si5 0.478478 0.021523 0.750000
Si Si6 0.519582 0.906097 0.059064
Si Si7 0.250000 0.250000 0.853883
Si Si8 0.035826 0.693481 0.865538
O O1 0.454350 0.114839 0.130830
O O2 0.445371 0.991373 0.203539
O O3 0.446014 0.940680 0.103439
O O4 0.294156 0.010692 0.143655
O O5 0.140988 0.208655 0.858419
O O6 0.956614 0.226882 0.851286
O O7 0.051387 0.298664 0.931105
O O8 0.036210 0.114427 0.925614
O O9 0.119634 0.750000 0.250000
O O10 0.163757 0.893365 0.182221
O O11 0.999054 0.877270 0.225472
O O12 0.728599 0.372205 0.488773
O O13 0.541609 0.397588 0.505197
O O14 0.596262 0.307910 0.419879
#
# Coordination Sequence:
#
# PCOD9563419 Si02
#       8
#    16  16  16  16   8  16   4  16
#     4  11  24  45  71  95 143 178 237 305 350 435
#     4  10  20  39  63  98 135 186 225 279 343 430
#     4  11  23  40  65  94 134 177 231 287 351 416
#     4  11  24  41  69 104 141 189 235 289 359 436
#     4  10  22  42  62  96 132 178 224 286 358 404
#     4  11  21  41  66  97 138 180 224 286 343 421
#     4   8  20  32  57  92 144 176 224 264 344 413
#     4  11  25  47  68 105 137 186 239 300 362 429
#
# _framework density 21.464766999999998
#
# number of rings (size 3 to 8) (size 9 to 14) (size 15 to 20)
#    0.000    1.333    4.444    1.778    2.074    4.444 
#    0.000    2.593    0.000    5.333    0.000    0.000 
#    0.000    0.000    0.000    0.000    0.000    0.000 
#
# Total GULP energy -602250.469470 kJ/mol
# GULP energy per Si atom -5576.393236 kJ/mol
# Density = 2.141591 g / cm^3
# Si number density = 21.464767 Si / 1000 Ang^3
#
#
#
# Elastic Constant Matrix: (Units=GPa)
#
#
# Indices 1 2 3 4 5 6 
#
# 1 118.0774 13.6072 26.6315 0.0000 0.0000 0.0000
# 2 13.6072 118.0779 26.6314 0.0000 0.0000 0.0000
# 3 26.6315 26.6314 89.1252 0.0000 0.0000 0.0000
# 4 0.0000 0.0000 0.0000 28.0633 0.0000 0.0000
# 5 0.0000 0.0000 0.0000 0.0000 28.0622 0.0000
# 6 0.0000 0.0000 0.0000 0.0000 0.0000 50.4254
#
#
#
# Elastic Compliance Matrix: (Units=1/GPa)
#
#
# Indices 1 2 3 4 5 6 
#
# 1 0.009105 -0.000467 -0.002581 0.000000 0.000000 0.000000
# 2 -0.000467 0.009105 -0.002581 0.000000 0.000000 0.000000
# 3 -0.002581 -0.002581 0.012763 0.000000 0.000000 0.000000
# 4 0.000000 0.000000 0.000000 0.035634 0.000000 0.000000
# 5 0.000000 0.000000 0.000000 0.000000 0.035635 0.000000
# 6 0.000000 0.000000 0.000000 0.000000 0.000000 0.019831
#
#
# Mechanical properties :
#
#
# Convention : Reuss Voigt Hill
#
# Bulk Modulus (GPa) = 50.72513 51.00230 50.86372
# Shear Modulus (GPa) = 35.73917 38.53756 37.13837
#
# Velocity S-wave (km/s) = 4.08489 4.24180 4.16408
# Velocity P-wave (km/s) = 6.77728 6.91397 6.84597
#
# Compressibility (1/GPa) = 0.01971409
#
# Stress axis : x y z
#
# Youngs Moduli (GPa) = 109.82983 109.83031 78.35357
#
# Poissons Ratio (x) = 0.05130 0.20224
# Poissons Ratio (y) = 0.05130 0.20224
# Poissons Ratio (z) = 0.28348 0.28348
#
# Static dielectric constant tensor:
#      x y z
#    x 1.786550 0.000000 0.000000 
#    y 0.000000 1.786550 0.000000 
#    z 0.000000 0.000000 1.806830 
# 
# From -- ./inp_files/5878.got.cif
#   From: 2010.05.17/outbox.cif.g08.bks.cpg/sg126_3_cif.got.tgz:5878.got - 2010.05.20 11:58:20.
