data_PCOD9563803
_publ_section_title
;
Structure prediction by ZEFSAII (Michael W. Deem and Ramdas Pophale) SiO2 
 PCOD9563803
Probable space group: P 4/M B M
;
_chemical_formula_sum "Si O2"
_cell_formula_units_Z 96
_cell_length_a 14.776522
_cell_length_b 14.776522
_cell_length_c 23.687857
_cell_angle_alpha 90.000000
_cell_angle_beta 90.000000
_cell_angle_gamma 90.000000
_cell_volume 5172.139407
_symmetry_space_group_name_H-M "P 4/M B M"
_symmetry_group_IT_number 127
_symmetry_cell_setting 'tetragonal'
loop_
_space_group_symop_operation_xyz
x,y,z
-y,x,z
-x,-y,z
y,-x,z
1/2+x,1/2-y,-z
1/2-x,1/2+y,-z
1/2+y,1/2+x,-z
1/2-y,1/2-x,-z
-x,-y,-z
y,-x,-z
x,y,-z
-y,x,-z
1/2-x,1/2+y,z
1/2+x,1/2-y,z
1/2-y,1/2-x,z
1/2+y,1/2+x,z
loop_
_atom_site_type_symbol
_atom_site_label
_atom_site_fract_x
_atom_site_fract_y
_atom_site_fract_z
Si Si1 0.291558 0.946176 0.179656
Si Si2 0.021309 0.753642 0.434459
Si Si3 0.077830 0.577830 0.755574
Si Si4 0.068014 0.136871 0.735178
Si Si5 0.503498 0.847964 0.936655
Si Si6 0.343501 0.690242 0.380022
Si Si7 0.575070 0.924931 0.628090
O O1 0.363872 0.863872 0.181769
O O2 0.200148 0.916951 0.210583
O O3 0.283261 0.978682 0.114960
O O4 0.338348 0.030177 0.213134
O O5 0.046758 0.756610 0.500000
O O6 0.089640 0.815141 0.398278
O O7 0.034609 0.655920 0.407656
O O8 0.917781 0.779508 0.425285
O O9 0.103310 0.603310 0.691490
O O10 0.000000 0.500000 0.755663
O O11 0.105910 0.189024 0.680268
O O12 0.960621 0.116572 0.734269
O O13 0.425570 0.925570 0.936523
O O14 0.596391 0.903610 0.926197
O O15 0.506444 0.809240 0.000000
O O16 0.257383 0.757383 0.379499
O O17 0.500000 0.000000 0.635950
#
# Coordination Sequence:
#
# PCOD9563803 Si02
#       7
#    16  16   8  16  16  16   8
#     4  10  18  33  57  89 123 158 201 249 303 361
#     4  12  26  43  66  93 122 160 206 256 317 392
#     4   9  18  31  53  87 123 154 186 237 301 363
#     4  11  24  43  62  83 116 156 202 254 309 374
#     4   8  13  24  47  84 128 167 199 239 296 356
#     4  12  25  45  68  92 123 159 204 261 320 384
#     4  11  23  40  61  91 130 164 201 257 327 388
#
# _framework density 18.560984999999999
#
# number of rings (size 3 to 8) (size 9 to 14) (size 15 to 20)
#    0.000    1.500    3.333    3.250    0.000    4.000 
#    1.500    0.833    0.000    1.000    0.000    3.500 
#    0.000    0.000    0.000    0.000    0.000    0.000 
#
# Total GULP energy -535780.345711 kJ/mol
# GULP energy per Si atom -5581.045268 kJ/mol
# Density = 1.851874 g / cm^3
# Si number density = 18.560985 Si / 1000 Ang^3
#
#
#
# Elastic Constant Matrix: (Units=GPa)
#
#
# Indices 1 2 3 4 5 6 
#
# 1 47.0167 -3.9121 22.6642 0.0000 0.0000 0.0000
# 2 -3.9121 47.0167 22.6642 0.0000 0.0000 0.0000
# 3 22.6642 22.6642 148.1778 0.0000 0.0000 0.0000
# 4 0.0000 0.0000 0.0000 21.9629 0.0000 0.0000
# 5 0.0000 0.0000 0.0000 0.0000 21.9629 0.0000
# 6 0.0000 0.0000 0.0000 0.0000 0.0000 14.7228
#
#
#
# Elastic Compliance Matrix: (Units=1/GPa)
#
#
# Indices 1 2 3 4 5 6 
#
# 1 0.023641 0.004005 -0.004229 0.000000 0.000000 0.000000
# 2 0.004005 0.023641 -0.004229 0.000000 0.000000 0.000000
# 3 -0.004229 -0.004229 0.008042 0.000000 0.000000 0.000000
# 4 0.000000 0.000000 0.000000 0.045531 0.000000 0.000000
# 5 0.000000 0.000000 0.000000 0.000000 0.045531 0.000000
# 6 0.000000 0.000000 0.000000 0.000000 0.000000 0.067922
#
#
# Mechanical properties :
#
#
# Convention : Reuss Voigt Hill
#
# Bulk Modulus (GPa) = 21.54235 36.11599 28.82917
# Shear Modulus (GPa) = 20.94814 25.11605 23.03210
#
# Velocity S-wave (km/s) = 3.36313 3.68253 3.52645
# Velocity P-wave (km/s) = 5.16839 6.13038 5.66983
#
# Compressibility (1/GPa) = 0.04642019
#
# Stress axis : x y z
#
# Youngs Moduli (GPa) = 42.29995 42.29995 124.34430
#
# Poissons Ratio (x) = -0.16943 0.52580
# Poissons Ratio (y) = -0.16943 0.52580
# Poissons Ratio (z) = 0.17887 0.17887
#
# Static dielectric constant tensor:
#      x y z
#    x 1.664780 0.000000 0.000000 
#    y 0.000000 1.664780 0.000000 
#    z 0.000000 0.000000 1.650730 
# 
# From -- ./inp_files/5825.got.cif
#   From: 2010.05.17/outbox.cif.g08.bks.cpg/sg127_3_cif.got.tgz:5825.got - 2010.05.20 12:03:00.
