data_PCOD9563606
_publ_section_title
;
Structure prediction by ZEFSAII (Michael W. Deem and Ramdas Pophale) SiO2 
 PCOD9563606
Probable space group: P 4/N N C
;
_chemical_formula_sum "Si O2"
_cell_formula_units_Z 108
_cell_length_a 14.226938
_cell_length_b 14.226938
_cell_length_c 33.752412
_cell_angle_alpha 90.000000
_cell_angle_beta 90.000000
_cell_angle_gamma 90.000000
_cell_volume 6831.682767
_symmetry_space_group_name_H-M "P 4/N N C"
_symmetry_group_IT_number 126
_space_group.IT_coordinate_system_code '2'
_symmetry_cell_setting 'tetragonal'
loop_
_space_group_symop_operation_xyz
x,y,z
1/2-y,x,z
1/2-x,1/2-y,z
y,1/2-x,z
x,1/2-y,1/2-z
1/2-x,y,1/2-z
y,x,1/2-z
1/2-y,1/2-x,1/2-z
-x,-y,-z
1/2+y,-x,-z
1/2+x,1/2+y,-z
-y,1/2+x,-z
-x,1/2+y,1/2+z
1/2+x,-y,1/2+z
-y,-x,1/2+z
1/2+y,1/2+x,1/2+z
loop_
_atom_site_type_symbol
_atom_site_label
_atom_site_fract_x
_atom_site_fract_y
_atom_site_fract_z
Si Si1 0.598308 0.201929 0.455326
Si Si2 0.860098 0.865473 0.163011
Si Si3 0.587171 0.611078 0.927917
Si Si4 0.104233 0.707557 0.451197
Si Si5 0.137594 0.362407 0.750000
Si Si6 0.124859 0.347370 0.983239
Si Si7 0.750000 0.750000 0.901822
Si Si8 0.971020 0.571310 0.412157
O O1 0.503917 0.178037 0.432626
O O2 0.684313 0.131937 0.445562
O O3 0.642979 0.303152 0.447065
O O4 0.578024 0.195511 0.502430
O O5 0.747200 0.877182 0.159950
O O6 0.894202 0.897265 0.206888
O O7 0.912170 0.917441 0.127638
O O8 0.670084 0.664933 0.905537
O O9 0.544068 0.514525 0.911479
O O10 0.625238 0.593088 0.972690
O O11 0.028598 0.666465 0.421432
O O12 0.123176 0.250000 0.750000
O O13 0.124794 0.234899 0.979072
O O14 0.065788 0.401139 0.950027
#
# Coordination Sequence:
#
# PCOD9563606 Si02
#       8
#    16  16  16  16   8  16   4  16
#     4   9  19  33  47  60  84 129 180 212 262 296
#     4   9  18  33  49  75 108 140 165 194 234 292
#     4  12  22  34  50  65  86 135 182 222 252 299
#     4   9  19  32  44  62  91 125 167 222 257 305
#     4   7  12  28  54  70  96 143 172 178 222 299
#     4  11  22  35  46  63  96 140 178 220 257 291
#     4  12  24  44  52  60  92 129 188 229 248 304
#     4  12  23  27  48  73 101 124 170 216 263 290
#
# _framework density 15.808697
#
# number of rings (size 3 to 8) (size 9 to 14) (size 15 to 20)
#    0.000    1.852    2.963    4.000    4.148    1.185 
#    0.000    0.000    0.000    0.000    0.000    0.000 
#    0.000    5.333    0.593    0.000    0.000    0.000 
#
# Total GULP energy -601713.168673 kJ/mol
# GULP energy per Si atom -5571.418228 kJ/mol
# Density = 1.577272 g / cm^3
# Si number density = 15.808697 Si / 1000 Ang^3
#
#
#
# Elastic Constant Matrix: (Units=GPa)
#
#
# Indices 1 2 3 4 5 6 
#
# 1 78.5923 22.7714 18.2288 0.0000 0.0000 0.0000
# 2 22.7714 78.5920 18.2288 0.0000 0.0000 0.0000
# 3 18.2288 18.2288 38.5068 0.0000 0.0000 0.0000
# 4 0.0000 0.0000 0.0000 11.1072 0.0000 0.0000
# 5 0.0000 0.0000 0.0000 0.0000 11.1074 0.0000
# 6 0.0000 0.0000 0.0000 0.0000 0.0000 30.1210
#
#
#
# Elastic Compliance Matrix: (Units=1/GPa)
#
#
# Indices 1 2 3 4 5 6 
#
# 1 0.014902 -0.003012 -0.005629 0.000000 0.000000 0.000000
# 2 -0.003012 0.014902 -0.005629 0.000000 0.000000 0.000000
# 3 -0.005629 -0.005629 0.031298 0.000000 0.000000 0.000000
# 4 0.000000 0.000000 0.000000 0.090031 0.000000 0.000000
# 5 0.000000 0.000000 0.000000 0.000000 0.090030 0.000000
# 6 0.000000 0.000000 0.000000 0.000000 0.000000 0.033199
#
#
# Mechanical properties :
#
#
# Convention : Reuss Voigt Hill
#
# Bulk Modulus (GPa) = 30.70879 34.90546 32.80712
# Shear Modulus (GPa) = 15.93588 19.56461 17.75024
#
# Velocity S-wave (km/s) = 3.17842 3.52175 3.35448
# Velocity P-wave (km/s) = 5.73909 6.21810 5.98339
#
# Compressibility (1/GPa) = 0.03256397
#
# Stress axis : x y z
#
# Youngs Moduli (GPa) = 67.10434 67.10402 31.95044
#
# Poissons Ratio (x) = 0.20214 0.17984
# Poissons Ratio (y) = 0.20214 0.17984
# Poissons Ratio (z) = 0.37770 0.37770
#
# Static dielectric constant tensor:
#      x y z
#    x 1.572580 0.000000 0.000000 
#    y 0.000000 1.572580 0.000000 
#    z 0.000000 0.000000 1.508530 
# 
# From -- ./inp_files/6656.got.cif
#   From: 2010.05.17/outbox.cif.g08.bks.cpg/sg126_4_cif.got.tgz:6656.got - 2010.05.20 11:58:20.
