data_PCOD9563502
_publ_section_title
;
Structure prediction by ZEFSAII (Michael W. Deem and Ramdas Pophale) SiO2 
 PCOD9563502
Probable space group: P 4/N N C
;
_chemical_formula_sum "Si O2"
_cell_formula_units_Z 112
_cell_length_a 14.475808
_cell_length_b 14.475808
_cell_length_c 26.916895
_cell_angle_alpha 90.000000
_cell_angle_beta 90.000000
_cell_angle_gamma 90.000000
_cell_volume 5640.408895
_symmetry_space_group_name_H-M "P 4/N N C"
_symmetry_group_IT_number 126
_space_group.IT_coordinate_system_code '2'
_symmetry_cell_setting 'tetragonal'
loop_
_space_group_symop_operation_xyz
x,y,z
1/2-y,x,z
1/2-x,1/2-y,z
y,1/2-x,z
x,1/2-y,1/2-z
1/2-x,y,1/2-z
y,x,1/2-z
1/2-y,1/2-x,1/2-z
-x,-y,-z
1/2+y,-x,-z
1/2+x,1/2+y,-z
-y,1/2+x,-z
-x,1/2+y,1/2+z
1/2+x,-y,1/2+z
-y,-x,1/2+z
1/2+y,1/2+x,1/2+z
loop_
_atom_site_type_symbol
_atom_site_label
_atom_site_fract_x
_atom_site_fract_y
_atom_site_fract_z
Si Si1 0.223292 0.602497 0.506578
Si Si2 0.958131 0.570727 0.367705
Si Si3 0.267702 0.981116 0.613444
Si Si4 0.015405 0.427678 0.044148
Si Si5 0.151904 0.802202 0.296454
Si Si6 0.330441 0.382313 0.389299
Si Si7 0.495352 0.089938 0.296783
O O1 0.150527 0.686233 0.516392
O O2 0.251120 0.557131 0.558638
O O3 0.169114 0.528530 0.473102
O O4 0.858577 0.543437 0.388812
O O5 0.973649 0.510552 0.318179
O O6 0.967724 0.679585 0.364041
O O7 0.034902 0.537093 0.407186
O O8 0.289896 0.898812 0.651416
O O9 0.122090 0.423790 0.061279
O O10 0.000000 0.500000 0.000000
O O11 0.250000 0.750000 0.300819
O O12 0.104193 0.750000 0.250000
O O13 0.148089 0.911735 0.285329
O O14 0.220867 0.372466 0.388073
O O15 0.361662 0.440859 0.341642
O O16 0.430173 0.069828 0.250000
#
# Coordination Sequence:
#
# PCOD9563502 Si02
#       7
#    16  16  16  16  16  16  16
#     4  11  24  37  59  92 120 159 208 264 336 396
#     4  10  22  38  59  88 118 164 202 263 319 385
#     4  11  22  39  60  85 125 160 211 260 318 395
#     4  11  22  39  63  83 122 161 213 264 323 393
#     4  10  23  39  63  98 131 162 211 272 334 394
#     4  10  25  43  62  92 128 174 221 266 322 398
#     4  10  22  42  68  95 129 174 213 266 341 400
#
# _framework density 19.856715999999999
#
# number of rings (size 3 to 8) (size 9 to 14) (size 15 to 20)
#    0.000    1.571    2.857    0.857    4.000    5.429 
#    0.000    0.714    0.000    0.000    0.000    2.000 
#    0.000    0.000    0.000    0.000    0.000    0.000 
#
# Total GULP energy -625351.856450 kJ/mol
# GULP energy per Si atom -5583.498718 kJ/mol
# Density = 1.981152 g / cm^3
# Si number density = 19.856716 Si / 1000 Ang^3
#
#
#
# Elastic Constant Matrix: (Units=GPa)
#
#
# Indices 1 2 3 4 5 6 
#
# 1 79.1691 32.7197 15.5375 0.0000 0.0000 0.0000
# 2 32.7197 79.1688 15.5378 0.0000 0.0000 0.0000
# 3 15.5375 15.5378 61.3275 0.0000 0.0000 0.0000
# 4 0.0000 0.0000 0.0000 24.1659 0.0000 0.0000
# 5 0.0000 0.0000 0.0000 0.0000 24.1661 0.0000
# 6 0.0000 0.0000 0.0000 0.0000 0.0000 20.2045
#
#
#
# Elastic Compliance Matrix: (Units=1/GPa)
#
#
# Indices 1 2 3 4 5 6 
#
# 1 0.015571 -0.005957 -0.002436 0.000000 0.000000 0.000000
# 2 -0.005957 0.015571 -0.002436 0.000000 0.000000 0.000000
# 3 -0.002436 -0.002436 0.017540 0.000000 0.000000 0.000000
# 4 0.000000 0.000000 0.000000 0.041381 0.000000 0.000000
# 5 0.000000 0.000000 0.000000 0.000000 0.041380 0.000000
# 6 0.000000 0.000000 0.000000 0.000000 0.000000 0.049494
#
#
# Mechanical properties :
#
#
# Convention : Reuss Voigt Hill
#
# Bulk Modulus (GPa) = 37.00274 38.58394 37.79334
# Shear Modulus (GPa) = 23.62907 24.09869 23.86388
#
# Velocity S-wave (km/s) = 3.45335 3.48750 3.47047
# Velocity P-wave (km/s) = 5.88015 5.97413 5.92733
#
# Compressibility (1/GPa) = 0.02702502
#
# Stress axis : x y z
#
# Youngs Moduli (GPa) = 64.22048 64.22006 57.01218
#
# Poissons Ratio (x) = 0.38259 0.13886
# Poissons Ratio (y) = 0.38259 0.13887
# Poissons Ratio (z) = 0.15642 0.15643
#
# Static dielectric constant tensor:
#      x y z
#    x 1.718070 0.000000 0.000000 
#    y 0.000000 1.718070 0.000000 
#    z 0.000000 0.000000 1.684580 
# 
# From -- ./inp_files/5830.got.cif
#   From: 2010.05.17/outbox.cif.g08.bks.cpg/sg126_3_cif.got.tgz:5830.got - 2010.05.20 11:58:20.
