data_PCOD9563860
_publ_section_title
;
Structure prediction by ZEFSAII (Michael W. Deem and Ramdas Pophale) SiO2 
 PCOD9563860
Probable space group: P 4/M B M
;
_chemical_formula_sum "Si O2"
_cell_formula_units_Z 96
_cell_length_a 15.920793
_cell_length_b 15.920793
_cell_length_c 21.090026
_cell_angle_alpha 90.000000
_cell_angle_beta 90.000000
_cell_angle_gamma 90.000000
_cell_volume 5345.723683
_symmetry_space_group_name_H-M "P 4/M B M"
_symmetry_group_IT_number 127
_symmetry_cell_setting 'tetragonal'
loop_
_space_group_symop_operation_xyz
x,y,z
-y,x,z
-x,-y,z
y,-x,z
1/2+x,1/2-y,-z
1/2-x,1/2+y,-z
1/2+y,1/2+x,-z
1/2-y,1/2-x,-z
-x,-y,-z
y,-x,-z
x,y,-z
-y,x,-z
1/2-x,1/2+y,z
1/2+x,1/2-y,z
1/2-y,1/2-x,z
1/2+y,1/2+x,z
loop_
_atom_site_type_symbol
_atom_site_label
_atom_site_fract_x
_atom_site_fract_y
_atom_site_fract_z
Si Si1 0.169129 0.186934 0.302627
Si Si2 0.128389 0.057984 0.926523
Si Si3 0.633472 0.003630 0.599947
Si Si4 0.122937 0.768236 0.430544
Si Si5 0.745871 0.894273 0.183541
Si Si6 0.458114 0.820931 0.739642
O O1 0.239203 0.260798 0.306817
O O2 0.173377 0.140179 0.370023
O O3 0.197574 0.128330 0.244911
O O4 0.084121 0.234286 0.284054
O O5 0.196872 0.088027 0.876788
O O6 0.040442 0.106937 0.917191
O O7 0.153708 0.069458 0.000000
O O8 0.562427 0.937574 0.579371
O O9 0.720422 0.966767 0.574561
O O10 0.596292 0.096292 0.584228
O O11 0.641218 0.000277 0.676204
O O12 0.130863 0.807936 0.500000
O O13 0.193548 0.693548 0.427103
O O14 0.682862 0.817139 0.172759
O O15 0.694154 0.975726 0.205451
O O16 0.384187 0.884187 0.759404
#
# Coordination Sequence:
#
# PCOD9563860 Si02
#       6
#    16  16  16  16  16  16
#     4   9  18  31  46  69  98 131 175 220 262 313
#     4   9  19  37  59  83 112 145 182 222 263 310
#     4   9  16  27  44  68  97 127 161 205 262 328
#     4   9  16  28  45  64  93 132 170 214 269 323
#     4  11  20  32  54  81 109 140 176 220 271 323
#     4  10  19  31  49  73 103 135 171 218 265 317
#
# _framework density 17.958279999999998
#
# number of rings (size 3 to 8) (size 9 to 14) (size 15 to 20)
#    0.000    2.500    1.667    2.000    0.000    1.667 
#    0.000    2.500    0.000    4.500    0.000    1.167 
#    0.000    1.333    0.000    0.000    0.000    0.000 
#
# Total GULP energy -535139.232556 kJ/mol
# GULP energy per Si atom -5574.367006 kJ/mol
# Density = 1.791741 g / cm^3
# Si number density = 17.958280 Si / 1000 Ang^3
#
#
#
# Elastic Constant Matrix: (Units=GPa)
#
#
# Indices 1 2 3 4 5 6 
#
# 1 51.5339 26.4848 54.7585 0.0000 0.0000 0.0000
# 2 26.4848 51.5339 54.7585 0.0000 0.0000 0.0000
# 3 54.7585 54.7585 144.2570 0.0000 0.0000 0.0000
# 4 0.0000 0.0000 0.0000 10.8839 0.0000 0.0000
# 5 0.0000 0.0000 0.0000 0.0000 10.8839 0.0000
# 6 0.0000 0.0000 0.0000 0.0000 0.0000 19.4066
#
#
#
# Elastic Compliance Matrix: (Units=1/GPa)
#
#
# Indices 1 2 3 4 5 6 
#
# 1 0.033679 -0.006242 -0.010415 0.000000 0.000000 0.000000
# 2 -0.006242 0.033679 -0.010415 0.000000 0.000000 0.000000
# 3 -0.010415 -0.010415 0.014839 0.000000 0.000000 0.000000
# 4 0.000000 0.000000 0.000000 0.091878 0.000000 0.000000
# 5 0.000000 0.000000 0.000000 0.000000 0.091878 0.000000
# 6 0.000000 0.000000 0.000000 0.000000 0.000000 0.051529
#
#
# Mechanical properties :
#
#
# Convention : Reuss Voigt Hill
#
# Bulk Modulus (GPa) = 35.64618 57.70317 46.67468
# Shear Modulus (GPa) = 13.12412 15.65644 14.39028
#
# Velocity S-wave (km/s) = 2.70629 2.95587 2.83383
# Velocity P-wave (km/s) = 5.44590 6.62202 6.06255
#
# Compressibility (1/GPa) = 0.02805349
#
# Stress axis : x y z
#
# Youngs Moduli (GPa) = 29.69187 29.69187 67.39105
#
# Poissons Ratio (x) = 0.18535 0.70186
# Poissons Ratio (y) = 0.18535 0.70186
# Poissons Ratio (z) = 0.30923 0.30923
#
# Static dielectric constant tensor:
#      x y z
#    x 1.637670 0.000000 0.000000 
#    y 0.000000 1.637670 0.000000 
#    z 0.000000 0.000000 1.602310 
# 
# From -- ./inp_files/5790.got.cif
#   From: 2010.05.17/outbox.cif.g08.bks.cpg/sg127_3_cif.got.tgz:5790.got - 2010.05.20 12:03:00.
