data_PCOD9563795
_publ_section_title
;
Structure prediction by ZEFSAII (Michael W. Deem and Ramdas Pophale) SiO2 
 PCOD9563795
Probable space group: P 4/M B M
;
_chemical_formula_sum "Si O2"
_cell_formula_units_Z 88
_cell_length_a 15.302382
_cell_length_b 15.302382
_cell_length_c 21.722575
_cell_angle_alpha 90.000000
_cell_angle_beta 90.000000
_cell_angle_gamma 90.000000
_cell_volume 5086.621046
_symmetry_space_group_name_H-M "P 4/M B M"
_symmetry_group_IT_number 127
_symmetry_cell_setting 'tetragonal'
loop_
_space_group_symop_operation_xyz
x,y,z
-y,x,z
-x,-y,z
y,-x,z
1/2+x,1/2-y,-z
1/2-x,1/2+y,-z
1/2+y,1/2+x,-z
1/2-y,1/2-x,-z
-x,-y,-z
y,-x,-z
x,y,-z
-y,x,-z
1/2-x,1/2+y,z
1/2+x,1/2-y,z
1/2-y,1/2-x,z
1/2+y,1/2+x,z
loop_
_atom_site_type_symbol
_atom_site_label
_atom_site_fract_x
_atom_site_fract_y
_atom_site_fract_z
Si Si1 0.552262 0.363159 0.292362
Si Si2 0.363254 0.447538 0.849686
Si Si3 0.503594 0.853337 0.500000
Si Si4 0.075211 0.575211 0.146225
Si Si5 0.424988 0.075013 0.712599
Si Si6 0.045586 0.305501 0.632849
Si Si7 0.951766 0.696751 0.071735
O O1 0.608305 0.451146 0.300501
O O2 0.563320 0.334051 0.221309
O O3 0.573954 0.286161 0.338855
O O4 0.451354 0.391692 0.857957
O O5 0.286988 0.425380 0.896558
O O6 0.595668 0.904333 0.500000
O O7 0.488651 0.801338 0.437058
O O8 0.430146 0.930146 0.500000
O O9 0.097056 0.597056 0.216905
O O10 0.155324 0.532380 0.109647
O O11 0.000000 0.500000 0.147467
O O12 0.468543 0.154326 0.675426
O O13 0.500000 0.000000 0.713961
O O14 0.124864 0.375137 0.634552
O O15 0.872953 0.627047 0.075718
O O16 0.974058 0.707514 0.000000
#
# Coordination Sequence:
#
# PCOD9563795 Si02
#       7
#    16  16   8   8   8  16  16
#     4   9  19  37  56  74 103 140 175 217 270 319
#     4   9  19  37  58  76  98 134 178 221 265 314
#     4   9  16  30  50  75 112 148 173 207 260 310
#     4   9  17  30  48  72 103 137 167 200 253 316
#     4   9  16  26  48  78 104 129 163 212 263 305
#     4  10  18  31  53  81 108 138 176 217 261 310
#     4  10  20  34  52  75 106 139 170 210 262 318
#
# _framework density 17.300287999999998
#
# number of rings (size 3 to 8) (size 9 to 14) (size 15 to 20)
#    0.000    2.636    0.909    2.455    0.000    4.000 
#    3.273    1.818    0.000    2.182    0.000    0.000 
#    0.000    0.000    0.000    0.000    0.000    0.000 
#
# Total GULP energy -490695.024574 kJ/mol
# GULP energy per Si atom -5576.079825 kJ/mol
# Density = 1.726091 g / cm^3
# Si number density = 17.300288 Si / 1000 Ang^3
#
#
#
# Elastic Constant Matrix: (Units=GPa)
#
#
# Indices 1 2 3 4 5 6 
#
# 1 39.5620 -4.0829 38.6871 0.0000 0.0000 0.0000
# 2 -4.0829 39.5619 38.6871 0.0000 0.0000 0.0000
# 3 38.6871 38.6871 145.8356 0.0000 0.0000 0.0000
# 4 0.0000 0.0000 0.0000 19.1906 0.0000 0.0000
# 5 0.0000 0.0000 0.0000 0.0000 19.1904 0.0000
# 6 0.0000 0.0000 0.0000 0.0000 0.0000 3.1106
#
#
#
# Elastic Compliance Matrix: (Units=1/GPa)
#
#
# Indices 1 2 3 4 5 6 
#
# 1 0.044893 0.021981 -0.017740 0.000000 0.000000 0.000000
# 2 0.021981 0.044893 -0.017740 0.000000 0.000000 0.000000
# 3 -0.017740 -0.017740 0.016269 0.000000 0.000000 0.000000
# 4 0.000000 0.000000 0.000000 0.052109 0.000000 0.000000
# 5 0.000000 0.000000 0.000000 0.000000 0.052109 0.000000
# 6 0.000000 0.000000 0.000000 0.000000 0.000000 0.321482
#
#
# Mechanical properties :
#
#
# Convention : Reuss Voigt Hill
#
# Bulk Modulus (GPa) = 12.64913 41.28247 26.96580
# Shear Modulus (GPa) = 8.54543 18.40953 13.47748
#
# Velocity S-wave (km/s) = 2.22490 3.26562 2.79414
# Velocity P-wave (km/s) = 3.73198 6.17520 5.10200
#
# Compressibility (1/GPa) = 0.07905683
#
# Stress axis : x y z
#
# Youngs Moduli (GPa) = 22.27505 22.27495 61.46532
#
# Poissons Ratio (x) = -0.48963 1.09042
# Poissons Ratio (y) = -0.48963 1.09042
# Poissons Ratio (z) = 0.39517 0.39517
#
# Static dielectric constant tensor:
#      x y z
#    x 1.581060 0.000000 0.000000 
#    y 0.000000 1.581060 0.000000 
#    z 0.000000 0.000000 1.581450 
# 
# From -- ./inp_files/5725.got.cif
#   From: 2010.05.17/outbox.cif.g08.bks.cpg/sg127_3_cif.got.tgz:5725.got - 2010.05.20 12:03:00.
