data_PCOD9563722
_publ_section_title
;
Structure prediction by ZEFSAII (Michael W. Deem and Ramdas Pophale) SiO2 
 PCOD9563722
Probable space group: P 4/N N C
;
_chemical_formula_sum "Si O2"
_cell_formula_units_Z 64
_cell_length_a 9.944432
_cell_length_b 9.944432
_cell_length_c 27.351390
_cell_angle_alpha 90.000000
_cell_angle_beta 90.000000
_cell_angle_gamma 90.000000
_cell_volume 2704.826215
_symmetry_space_group_name_H-M "P 4/N N C"
_symmetry_group_IT_number 126
_space_group.IT_coordinate_system_code '2'
_symmetry_cell_setting 'tetragonal'
loop_
_space_group_symop_operation_xyz
x,y,z
1/2-y,x,z
1/2-x,1/2-y,z
y,1/2-x,z
x,1/2-y,1/2-z
1/2-x,y,1/2-z
y,x,1/2-z
1/2-y,1/2-x,1/2-z
-x,-y,-z
1/2+y,-x,-z
1/2+x,1/2+y,-z
-y,1/2+x,-z
-x,1/2+y,1/2+z
1/2+x,-y,1/2+z
-y,-x,1/2+z
1/2+y,1/2+x,1/2+z
loop_
_atom_site_type_symbol
_atom_site_label
_atom_site_fract_x
_atom_site_fract_y
_atom_site_fract_z
Si Si1 0.369202 0.671437 0.136229
Si Si2 0.292502 0.470636 0.940987
Si Si3 0.577944 0.611049 0.691995
Si Si4 0.525329 0.708659 0.549209
O O1 0.250000 0.750000 0.163719
O O2 0.451227 0.789408 0.109477
O O3 0.443240 0.559605 0.168816
O O4 0.314663 0.586760 0.089546
O O5 0.146948 0.400472 0.940869
O O6 0.307020 0.534067 0.994553
O O7 0.729464 0.569648 0.677575
O O8 0.584621 0.584621 0.750000
O O9 0.646420 0.599110 0.554275
#
# Coordination Sequence:
#
# PCOD9563722 Si02
#       4
#    16  16  16  16
#     4  12  25  32  61  98 128 160 218 269 318 384
#     4   9  22  40  55  78 129 186 217 249 311 385
#     4   9  20  43  71  91 117 153 203 274 345 381
#     4   9  20  38  58  82 121 175 225 269 308 361
#
# _framework density 23.661408999999999
#
# number of rings (size 3 to 8) (size 9 to 14) (size 15 to 20)
#    0.000    2.250    0.000    3.750   10.500    4.000 
#    0.000    2.500    0.000    0.000    0.000    1.750 
#    0.000    0.000    0.000    0.000    0.000    0.000 
#
# Total GULP energy -357369.862538 kJ/mol
# GULP energy per Si atom -5583.904102 kJ/mol
# Density = 2.360755 g / cm^3
# Si number density = 23.661409 Si / 1000 Ang^3
#
#
#
# Elastic Constant Matrix: (Units=GPa)
#
#
# Indices 1 2 3 4 5 6 
#
# 1 47.7860 31.2087 18.4853 0.0000 0.0000 0.0000
# 2 31.2087 47.7860 18.4853 0.0000 0.0000 0.0000
# 3 18.4853 18.4853 78.4581 0.0000 0.0000 0.0000
# 4 0.0000 0.0000 0.0000 12.4748 0.0000 0.0000
# 5 0.0000 0.0000 0.0000 0.0000 12.4748 0.0000
# 6 0.0000 0.0000 0.0000 0.0000 0.0000 24.6243
#
#
#
# Elastic Compliance Matrix: (Units=1/GPa)
#
#
# Indices 1 2 3 4 5 6 
#
# 1 0.037276 -0.023048 -0.003352 0.000000 0.000000 0.000000
# 2 -0.023048 0.037276 -0.003352 0.000000 0.000000 0.000000
# 3 -0.003352 -0.003352 0.014325 0.000000 0.000000 0.000000
# 4 0.000000 0.000000 0.000000 0.080162 0.000000 0.000000
# 5 0.000000 0.000000 0.000000 0.000000 0.080162 0.000000
# 6 0.000000 0.000000 0.000000 0.000000 0.000000 0.040610
#
#
# Mechanical properties :
#
#
# Convention : Reuss Voigt Hill
#
# Bulk Modulus (GPa) = 34.04560 34.48760 34.26660
# Shear Modulus (GPa) = 13.92350 16.97151 15.44751
#
# Velocity S-wave (km/s) = 2.42843 2.68109 2.55788
# Velocity P-wave (km/s) = 4.72048 4.91848 4.82049
#
# Compressibility (1/GPa) = 0.02937237
#
# Stress axis : x y z
#
# Youngs Moduli (GPa) = 26.82713 26.82713 69.80680
#
# Poissons Ratio (x) = 0.61830 0.23401
# Poissons Ratio (y) = 0.61830 0.23401
# Poissons Ratio (z) = 0.08993 0.08993
#
# Static dielectric constant tensor:
#      x y z
#    x 1.978330 0.000000 0.000000 
#    y 0.000000 1.978330 0.000000 
#    z 0.000000 0.000000 1.904530 
# 
# From -- ./inp_files/6060.got.cif
#   From: 2010.05.17/outbox.cif.g08.bks.cpg/sg126_4_cif.got.tgz:6060.got - 2010.05.20 11:58:20.
