data_PCOD9563039
_publ_section_title
;
Structure prediction by ZEFSAII (Michael W. Deem and Ramdas Pophale) SiO2 
 PCOD9563039
Probable space group: P 4/N B M
;
_chemical_formula_sum "Si O2"
_cell_formula_units_Z 112
_cell_length_a 15.035612
_cell_length_b 15.035612
_cell_length_c 23.438737
_cell_angle_alpha 90.000000
_cell_angle_beta 90.000000
_cell_angle_gamma 90.000000
_cell_volume 5298.786559
_symmetry_space_group_name_H-M "P 4/N B M"
_symmetry_group_IT_number 125
_space_group.IT_coordinate_system_code '2'
_symmetry_cell_setting 'tetragonal'
loop_
_space_group_symop_operation_xyz
x,y,z
1/2-y,x,z
1/2-x,1/2-y,z
y,1/2-x,z
x,1/2-y,-z
1/2-x,y,-z
y,x,-z
1/2-y,1/2-x,-z
-x,-y,-z
1/2+y,-x,-z
1/2+x,1/2+y,-z
-y,1/2+x,-z
-x,1/2+y,z
1/2+x,-y,z
-y,-x,z
1/2+y,1/2+x,z
loop_
_atom_site_type_symbol
_atom_site_label
_atom_site_fract_x
_atom_site_fract_y
_atom_site_fract_z
Si Si1 0.473181 0.666504 0.539367
Si Si2 0.102521 0.753135 0.105757
Si Si3 0.439036 0.792478 0.230079
Si Si4 0.426614 0.783252 0.644219
Si Si5 0.683816 0.881439 0.735624
Si Si6 0.924646 0.570266 0.626866
Si Si7 0.895131 0.748897 0.068750
O O1 0.491257 0.750000 0.500000
O O2 0.401553 0.598448 0.513077
O O3 0.433500 0.704596 0.598979
O O4 0.556808 0.612590 0.563525
O O5 0.162545 0.837456 0.085698
O O6 0.164460 0.664460 0.094859
O O7 0.090337 0.759587 0.174181
O O8 0.000331 0.748345 0.083997
O O9 0.370700 0.870700 0.238330
O O10 0.436829 0.739129 0.289127
O O11 0.536749 0.835101 0.223142
O O12 0.334725 0.834725 0.636290
O O13 0.506594 0.849764 0.629348
O O14 0.636060 0.788133 0.743707
O O15 0.652785 0.911713 0.672528
O O16 0.982411 0.482411 0.642000
O O17 0.837559 0.836291 0.088026
O O18 0.891719 0.750000 0.000000
#
# Coordination Sequence:
#
# PCOD9563039 Si02
#       7
#    16  16  16  16  16  16  16
#     4  11  23  38  56  80 113 147 187 242 299 360
#     4  10  23  41  61  94 138 179 223 275 329 389
#     4  11  22  39  60  85 122 165 206 249 303 366
#     4  11  22  37  60  84 109 150 198 241 295 358
#     4  11  21  36  58  84 114 150 193 240 294 355
#     4  10  20  38  60  83 111 144 190 241 295 362
#     4   9  20  42  70  98 132 176 228 283 335 390
#
# _framework density 21.136915999999999
#
# number of rings (size 3 to 8) (size 9 to 14) (size 15 to 20)
#    0.000    1.571    2.857    2.143    0.000    5.286 
#    0.000    7.143    0.000    0.000    0.000    1.000 
#    0.000    0.000    0.000    0.000    0.000    0.000 
#
# Total GULP energy -625108.911061 kJ/mol
# GULP energy per Si atom -5581.329563 kJ/mol
# Density = 2.108881 g / cm^3
# Si number density = 21.136916 Si / 1000 Ang^3
#
#
#
# Elastic Constant Matrix: (Units=GPa)
#
#
# Indices 1 2 3 4 5 6 
#
# 1 118.7201 58.9097 31.9552 0.0000 0.0000 0.0000
# 2 58.9097 118.7201 31.9552 0.0000 0.0000 0.0000
# 3 31.9552 31.9552 41.2968 0.0000 0.0000 0.0000
# 4 0.0000 0.0000 0.0000 31.9718 0.0000 0.0000
# 5 0.0000 0.0000 0.0000 0.0000 31.9718 0.0000
# 6 0.0000 0.0000 0.0000 0.0000 0.0000 27.6801
#
#
#
# Elastic Compliance Matrix: (Units=1/GPa)
#
#
# Indices 1 2 3 4 5 6 
#
# 1 0.012261 -0.004459 -0.006037 0.000000 0.000000 0.000000
# 2 -0.004459 0.012261 -0.006037 0.000000 0.000000 0.000000
# 3 -0.006037 -0.006037 0.033558 0.000000 0.000000 0.000000
# 4 0.000000 0.000000 0.000000 0.031278 0.000000 0.000000
# 5 0.000000 0.000000 0.000000 0.000000 0.031278 0.000000
# 6 0.000000 0.000000 0.000000 0.000000 0.000000 0.036127
#
#
# Mechanical properties :
#
#
# Convention : Reuss Voigt Hill
#
# Bulk Modulus (GPa) = 39.97863 58.26412 49.12138
# Shear Modulus (GPa) = 25.23159 28.71920 26.97540
#
# Velocity S-wave (km/s) = 3.45878 3.69008 3.57630
# Velocity P-wave (km/s) = 5.90813 6.76613 6.35164
#
# Compressibility (1/GPa) = 0.02501336
#
# Stress axis : x y z
#
# Youngs Moduli (GPa) = 81.56190 81.56190 29.79954
#
# Poissons Ratio (x) = 0.36368 0.17990
# Poissons Ratio (y) = 0.36368 0.17990
# Poissons Ratio (z) = 0.49238 0.49238
#
# Static dielectric constant tensor:
#      x y z
#    x 1.804690 0.000000 0.000000 
#    y 0.000000 1.804690 0.000000 
#    z 0.000000 0.000000 1.795740 
# 
# From -- ./inp_files/6222.got.cif
#   From: 2010.05.17/outbox.cif.g08.bks.cpg/sg125_4_cif.got.tgz:6222.got - 2010.05.20 11:54:10.
