data_PCOD9563702
_publ_section_title
;
Structure prediction by ZEFSAII (Michael W. Deem and Ramdas Pophale) SiO2 
 PCOD9563702
Probable space group: P 4/N N C
;
_chemical_formula_sum "Si O2"
_cell_formula_units_Z 40
_cell_length_a 8.998716
_cell_length_b 8.998716
_cell_length_c 22.385709
_cell_angle_alpha 90.000000
_cell_angle_beta 90.000000
_cell_angle_gamma 90.000000
_cell_volume 1812.725087
_symmetry_space_group_name_H-M "P 4/N N C"
_symmetry_group_IT_number 126
_space_group.IT_coordinate_system_code '2'
_symmetry_cell_setting 'tetragonal'
loop_
_space_group_symop_operation_xyz
x,y,z
1/2-y,x,z
1/2-x,1/2-y,z
y,1/2-x,z
x,1/2-y,1/2-z
1/2-x,y,1/2-z
y,x,1/2-z
1/2-y,1/2-x,1/2-z
-x,-y,-z
1/2+y,-x,-z
1/2+x,1/2+y,-z
-y,1/2+x,-z
-x,1/2+y,1/2+z
1/2+x,-y,1/2+z
-y,-x,1/2+z
1/2+y,1/2+x,1/2+z
loop_
_atom_site_type_symbol
_atom_site_label
_atom_site_fract_x
_atom_site_fract_y
_atom_site_fract_z
Si Si1 0.209229 0.495722 0.406016
Si Si2 0.613091 0.063708 0.206691
Si Si3 0.750000 0.250000 0.000000
Si Si4 0.750000 0.750000 0.333113
O O1 0.084726 0.367915 0.410604
O O2 0.184451 0.573553 0.342401
O O3 0.195880 0.616878 0.457762
O O4 0.750000 0.095728 0.250000
O O5 0.475510 0.024491 0.250000
O O6 0.658566 0.909242 0.173389
#
# Coordination Sequence:
#
# PCOD9563702 Si02
#       4
#    16  16   4   4
#     4  11  27  50  73 108 148 188 250 316 377 436
#     4   9  19  40  70 111 149 191 236 291 372 454
#     4  12  28  52  78  96 136 212 252 298 368 464
#     4   8  17  36  64 112 148 184 240 280 345 462
#
# _framework density 22.066227000000001
#
# number of rings (size 3 to 8) (size 9 to 14) (size 15 to 20)
#    0.000    2.000    0.000    4.800   11.200    1.600 
#    0.000    2.000    0.000    0.000    0.000    0.000 
#    0.000    0.000    0.000    0.000    0.000    0.000 
#
# Total GULP energy -222720.576985 kJ/mol
# GULP energy per Si atom -5568.014425 kJ/mol
# Density = 2.201600 g / cm^3
# Si number density = 22.066227 Si / 1000 Ang^3
#
#
#
# Elastic Constant Matrix: (Units=GPa)
#
#
# Indices 1 2 3 4 5 6 
#
# 1 110.5471 44.1085 70.4739 0.0000 0.0000 0.0000
# 2 44.1085 110.5464 70.4742 0.0000 0.0000 0.0000
# 3 70.4739 70.4742 155.4618 0.0000 0.0000 0.0000
# 4 0.0000 0.0000 0.0000 40.6112 0.0000 0.0000
# 5 0.0000 0.0000 0.0000 0.0000 40.6113 0.0000
# 6 0.0000 0.0000 0.0000 0.0000 0.0000 41.7466
#
#
#
# Elastic Compliance Matrix: (Units=1/GPa)
#
#
# Indices 1 2 3 4 5 6 
#
# 1 0.013035 -0.002017 -0.004995 0.000000 0.000000 0.000000
# 2 -0.002017 0.013035 -0.004995 0.000000 0.000000 0.000000
# 3 -0.004995 -0.004995 0.010961 0.000000 0.000000 0.000000
# 4 0.000000 0.000000 0.000000 0.024624 0.000000 0.000000
# 5 0.000000 0.000000 0.000000 0.000000 0.024624 0.000000
# 6 0.000000 0.000000 0.000000 0.000000 0.000000 0.023954
#
#
# Mechanical properties :
#
#
# Convention : Reuss Voigt Hill
#
# Bulk Modulus (GPa) = 76.81618 82.96317 79.88967
# Shear Modulus (GPa) = 36.07929 37.36038 36.71983
#
# Velocity S-wave (km/s) = 4.04796 4.11920 4.08373
# Velocity P-wave (km/s) = 7.53227 7.76548 7.64977
#
# Compressibility (1/GPa) = 0.01301809
#
# Stress axis : x y z
#
# Youngs Moduli (GPa) = 76.71819 76.71728 91.23382
#
# Poissons Ratio (x) = 0.15472 0.45568
# Poissons Ratio (y) = 0.15472 0.45569
# Poissons Ratio (z) = 0.38318 0.38318
#
# Static dielectric constant tensor:
#      x y z
#    x 1.832160 0.000000 0.000000 
#    y 0.000000 1.832160 0.000000 
#    z 0.000000 0.000000 1.802580 
# 
# From -- ./inp_files/5570.got.cif
#   From: 2010.05.17/outbox.cif.g08.bks.cpg/sg126_3_cif.got.tgz:5570.got - 2010.05.20 11:58:20.
