data_PCOD9563874
_publ_section_title
;
Structure prediction by ZEFSAII (Michael W. Deem and Ramdas Pophale) SiO2 
 PCOD9563874
Probable space group: P 4/M B M
;
_chemical_formula_sum "Si O2"
_cell_formula_units_Z 120
_cell_length_a 15.013288
_cell_length_b 15.013288
_cell_length_c 29.806818
_cell_angle_alpha 90.000000
_cell_angle_beta 90.000000
_cell_angle_gamma 90.000000
_cell_volume 6718.421503
_symmetry_space_group_name_H-M "P 4/M B M"
_symmetry_group_IT_number 127
_symmetry_cell_setting 'tetragonal'
loop_
_space_group_symop_operation_xyz
x,y,z
-y,x,z
-x,-y,z
y,-x,z
1/2+x,1/2-y,-z
1/2-x,1/2+y,-z
1/2+y,1/2+x,-z
1/2-y,1/2-x,-z
-x,-y,-z
y,-x,-z
x,y,-z
-y,x,-z
1/2-x,1/2+y,z
1/2+x,1/2-y,z
1/2-y,1/2-x,z
1/2+y,1/2+x,z
loop_
_atom_site_type_symbol
_atom_site_label
_atom_site_fract_x
_atom_site_fract_y
_atom_site_fract_z
Si Si1 0.570995 0.070995 0.054463
Si Si2 0.179992 0.828572 0.093210
Si Si3 0.279274 0.631784 0.640396
Si Si4 0.215905 0.864761 0.725198
Si Si5 0.854795 0.499931 0.686920
Si Si6 0.760388 0.998724 0.946920
Si Si7 0.092531 0.117735 0.816574
Si Si8 0.082586 0.874691 0.450921
O O1 0.539793 0.167009 0.068723
O O2 0.500000 0.000000 0.069806
O O3 0.572316 0.072316 0.000000
O O4 0.264537 0.764537 0.084171
O O5 0.090646 0.777436 0.079815
O O6 0.174346 0.859956 0.144559
O O7 0.175399 0.918968 0.063811
O O8 0.219034 0.719034 0.636240
O O9 0.347595 0.654712 0.681050
O O10 0.211841 0.551485 0.653383
O O11 0.325086 0.613942 0.593247
O O12 0.276227 0.776227 0.731192
O O13 0.154995 0.881731 0.768047
O O14 0.286382 0.945864 0.718626
O O15 0.921492 0.421492 0.705164
O O16 0.923163 0.576838 0.669166
O O17 0.758350 0.979798 0.000000
O O18 0.985553 0.120447 0.821656
O O19 0.107752 0.836354 0.500000
O O20 0.975622 0.881725 0.449502
#
# Coordination Sequence:
#
# PCOD9563874 Si02
#       8
#     8  16  16  16  16  16  16  16
#     4   9  18  36  60  90 124 153 191 243 293 342
#     4  12  24  42  64  89 123 160 198 244 299 358
#     4  10  19  31  52  81 108 138 182 232 278 334
#     4  10  20  35  57  84 110 142 187 236 283 338
#     4   9  18  33  53  78 111 147 182 227 286 345
#     4  11  23  39  64  93 120 156 199 243 292 351
#     4  11  23  40  59  81 113 151 189 232 290 350
#     4   9  18  32  49  70 101 141 181 225 280 335
#
# _framework density 17.861338
#
# number of rings (size 3 to 8) (size 9 to 14) (size 15 to 20)
#    0.000    1.800    2.000    3.200    0.000    1.867 
#    0.000    2.667    0.000    1.200    0.000    1.867 
#    0.000    0.000    0.000    0.000    0.000    0.000 
#
# Total GULP energy -668788.551525 kJ/mol
# GULP energy per Si atom -5573.237929 kJ/mol
# Density = 1.782069 g / cm^3
# Si number density = 17.861338 Si / 1000 Ang^3
#
#
#
# Elastic Constant Matrix: (Units=GPa)
#
#
# Indices 1 2 3 4 5 6 
#
# 1 50.4874 25.3935 21.2795 0.0000 0.0000 0.0000
# 2 25.3935 50.4874 21.2795 0.0000 0.0000 0.0000
# 3 21.2795 21.2795 70.9782 0.0000 0.0000 0.0000
# 4 0.0000 0.0000 0.0000 27.4505 0.0000 0.0000
# 5 0.0000 0.0000 0.0000 0.0000 27.4505 0.0000
# 6 0.0000 0.0000 0.0000 0.0000 0.0000 18.7371
#
#
#
# Elastic Compliance Matrix: (Units=1/GPa)
#
#
# Indices 1 2 3 4 5 6 
#
# 1 0.027846 -0.012004 -0.004750 0.000000 0.000000 0.000000
# 2 -0.012004 0.027846 -0.004750 0.000000 0.000000 0.000000
# 3 -0.004750 -0.004750 0.016937 0.000000 0.000000 0.000000
# 4 0.000000 0.000000 0.000000 0.036429 0.000000 0.000000
# 5 0.000000 0.000000 0.000000 0.000000 0.036429 0.000000
# 6 0.000000 0.000000 0.000000 0.000000 0.000000 0.053370
#
#
# Mechanical properties :
#
#
# Convention : Reuss Voigt Hill
#
# Bulk Modulus (GPa) = 33.75738 34.20645 33.98191
# Shear Modulus (GPa) = 19.86188 21.66101 20.76145
#
# Velocity S-wave (km/s) = 3.33829 3.48621 3.41305
# Velocity P-wave (km/s) = 5.81374 5.94958 5.88206
#
# Compressibility (1/GPa) = 0.02962315
#
# Stress axis : x y z
#
# Youngs Moduli (GPa) = 35.91127 35.91127 59.04334
#
# Poissons Ratio (x) = 0.43108 0.28043
# Poissons Ratio (y) = 0.43108 0.28043
# Poissons Ratio (z) = 0.17056 0.17056
#
# Static dielectric constant tensor:
#      x y z
#    x 1.636590 0.000000 0.000000 
#    y 0.000000 1.636590 0.000000 
#    z 0.000000 0.000000 1.592910 
# 
# From -- ./inp_files/6681.got.cif
#   From: 2010.05.17/outbox.cif.g08.bks.cpg/sg127_4_cif.got.tgz:6681.got - 2010.05.20 12:03:00.
