data_PCOD9563706
_publ_section_title
;
Structure prediction by ZEFSAII (Michael W. Deem and Ramdas Pophale) SiO2 
 PCOD9563706
Probable space group: P 4/N N C
;
_chemical_formula_sum "Si O2"
_cell_formula_units_Z 60
_cell_length_a 11.488756
_cell_length_b 11.488756
_cell_length_c 20.331330
_cell_angle_alpha 90.000000
_cell_angle_beta 90.000000
_cell_angle_gamma 90.000000
_cell_volume 2683.563037
_symmetry_space_group_name_H-M "P 4/N N C"
_symmetry_group_IT_number 126
_space_group.IT_coordinate_system_code '2'
_symmetry_cell_setting 'tetragonal'
loop_
_space_group_symop_operation_xyz
x,y,z
1/2-y,x,z
1/2-x,1/2-y,z
y,1/2-x,z
x,1/2-y,1/2-z
1/2-x,y,1/2-z
y,x,1/2-z
1/2-y,1/2-x,1/2-z
-x,-y,-z
1/2+y,-x,-z
1/2+x,1/2+y,-z
-y,1/2+x,-z
-x,1/2+y,1/2+z
1/2+x,-y,1/2+z
-y,-x,1/2+z
1/2+y,1/2+x,1/2+z
loop_
_atom_site_type_symbol
_atom_site_label
_atom_site_fract_x
_atom_site_fract_y
_atom_site_fract_z
Si Si1 0.609002 0.890999 0.250000
Si Si2 0.310022 0.547762 0.096034
Si Si3 0.514577 0.251614 0.947954
Si Si4 0.463609 0.930607 0.635975
Si Si5 0.250000 0.250000 0.581034
O O1 0.593882 0.750000 0.250000
O O2 0.525511 0.931980 0.191018
O O3 0.385762 0.663436 0.080742
O O4 0.403012 0.451868 0.117486
O O5 0.206132 0.559359 0.148567
O O6 0.251935 0.512522 0.026686
O O7 0.543326 0.122344 0.924275
O O8 0.388456 0.285768 0.921383
#
# Coordination Sequence:
#
# PCOD9563706 Si02
#       5
#     8  16  16  16   4
#     4  11  28  52  78 105 146 198 266 321 362 451
#     4  12  25  44  71 107 154 191 246 315 388 469
#     4  12  23  43  68 110 150 195 241 311 395 463
#     4  12  26  45  72 106 147 202 250 309 386 452
#     4  12  24  36  72  97 148 197 240 296 384 470
#
# _framework density 22.358335
#
# number of rings (size 3 to 8) (size 9 to 14) (size 15 to 20)
#    0.000    0.133    5.333    4.800    0.000    1.600 
#    0.000    1.333    0.000    1.600    0.000    0.000 
#    0.000    0.000    0.000    0.000    0.000    0.000 
#
# Total GULP energy -334404.872270 kJ/mol
# GULP energy per Si atom -5573.414538 kJ/mol
# Density = 2.230745 g / cm^3
# Si number density = 22.358335 Si / 1000 Ang^3
#
#
#
# Elastic Constant Matrix: (Units=GPa)
#
#
# Indices 1 2 3 4 5 6 
#
# 1 185.3532 51.0996 39.8143 0.0000 0.0000 0.0000
# 2 51.0996 185.3519 39.8144 0.0000 0.0000 0.0000
# 3 39.8143 39.8144 77.0280 0.0000 0.0000 0.0000
# 4 0.0000 0.0000 0.0000 9.8984 0.0000 0.0000
# 5 0.0000 0.0000 0.0000 0.0000 9.8988 0.0000
# 6 0.0000 0.0000 0.0000 0.0000 0.0000 42.6981
#
#
#
# Elastic Compliance Matrix: (Units=1/GPa)
#
#
# Indices 1 2 3 4 5 6 
#
# 1 0.006285 -0.001164 -0.002647 0.000000 0.000000 0.000000
# 2 -0.001164 0.006285 -0.002647 0.000000 0.000000 0.000000
# 3 -0.002647 -0.002647 0.015718 0.000000 0.000000 0.000000
# 4 0.000000 0.000000 0.000000 0.101027 0.000000 0.000000
# 5 0.000000 0.000000 0.000000 0.000000 0.101023 0.000000
# 6 0.000000 0.000000 0.000000 0.000000 0.000000 0.023420
#
#
# Mechanical properties :
#
#
# Convention : Reuss Voigt Hill
#
# Bulk Modulus (GPa) = 65.05090 78.79887 71.92488
# Shear Modulus (GPa) = 18.39613 33.63270 26.01442
#
# Velocity S-wave (km/s) = 2.87154 3.88268 3.41474
# Velocity P-wave (km/s) = 6.33657 7.44449 6.91276
#
# Compressibility (1/GPa) = 0.01537258
#
# Stress axis : x y z
#
# Youngs Moduli (GPa) = 159.12076 159.11946 63.61991
#
# Poissons Ratio (x) = 0.18523 0.16838
# Poissons Ratio (y) = 0.18523 0.16838
# Poissons Ratio (z) = 0.42114 0.42114
#
# Static dielectric constant tensor:
#      x y z
#    x 1.849200 0.000000 0.000000 
#    y 0.000000 1.849200 0.000000 
#    z 0.000000 0.000000 1.889700 
# 
# From -- ./inp_files/4968.got.cif
#   From: 2010.05.17/outbox.cif.g08.bks.cpg/sg126_3_cif.got.tgz:4968.got - 2010.05.20 11:58:20.
