data_PCOD9563280
_publ_section_title
;
Structure prediction by ZEFSAII (Michael W. Deem and Ramdas Pophale) SiO2 
 PCOD9563280
Probable space group: P 4/N N C
;
_chemical_formula_sum "Si O2"
_cell_formula_units_Z 88
_cell_length_a 15.780730
_cell_length_b 15.780730
_cell_length_c 21.241803
_cell_angle_alpha 90.000000
_cell_angle_beta 90.000000
_cell_angle_gamma 90.000000
_cell_volume 5289.876775
_symmetry_space_group_name_H-M "P 4/N N C"
_symmetry_group_IT_number 126
_space_group.IT_coordinate_system_code '2'
_symmetry_cell_setting 'tetragonal'
loop_
_space_group_symop_operation_xyz
x,y,z
1/2-y,x,z
1/2-x,1/2-y,z
y,1/2-x,z
x,1/2-y,1/2-z
1/2-x,y,1/2-z
y,x,1/2-z
1/2-y,1/2-x,1/2-z
-x,-y,-z
1/2+y,-x,-z
1/2+x,1/2+y,-z
-y,1/2+x,-z
-x,1/2+y,1/2+z
1/2+x,-y,1/2+z
-y,-x,1/2+z
1/2+y,1/2+x,1/2+z
loop_
_atom_site_type_symbol
_atom_site_label
_atom_site_fract_x
_atom_site_fract_y
_atom_site_fract_z
Si Si1 0.602540 0.158469 0.774267
Si Si2 0.973279 0.678067 0.123414
Si Si3 0.389252 0.219447 0.000109
Si Si4 0.610201 0.775094 0.853682
Si Si5 0.972454 0.250000 0.250000
Si Si6 0.349474 0.068996 0.805963
O O1 0.633783 0.250000 0.750000
O O2 0.564547 0.167432 0.844574
O O3 0.672946 0.087454 0.770474
O O4 0.521262 0.137985 0.729078
O O5 0.919162 0.595543 0.142881
O O6 0.933533 0.759174 0.160273
O O7 0.961324 0.698314 0.050334
O O8 0.346851 0.311853 0.989968
O O9 0.415227 0.216939 0.073107
O O10 0.655633 0.684012 0.843308
O O11 0.532979 0.780943 0.806278
O O12 0.363185 0.136816 0.750000
#
# Coordination Sequence:
#
# PCOD9563280 Si02
#       6
#    16  16  16  16   8  16
#     4   9  21  35  50  75 100 133 179 231 257 300
#     4  10  16  28  48  74 112 145 164 199 249 309
#     4   9  16  29  50  79 112 147 167 186 246 329
#     4   9  20  35  55  84 110 128 168 221 268 322
#     4  12  21  37  62  70  92 138 188 227 281 306
#     4   9  17  27  42  76 112 136 166 202 244 302
#
# _framework density 16.635546999999999
#
# number of rings (size 3 to 8) (size 9 to 14) (size 15 to 20)
#    0.000    2.545    1.818    3.545    0.000    5.455 
#    0.000    4.545    8.000    3.273    0.000    0.000 
#    0.000    0.000    0.000    0.000    0.000    0.000 
#
# Total GULP energy -490134.115111 kJ/mol
# GULP energy per Si atom -5569.705854 kJ/mol
# Density = 1.659768 g / cm^3
# Si number density = 16.635547 Si / 1000 Ang^3
#
#
#
# Elastic Constant Matrix: (Units=GPa)
#
#
# Indices 1 2 3 4 5 6 
#
# 1 55.6752 31.1134 43.6300 0.0000 0.0000 0.0000
# 2 31.1134 55.6751 43.6301 0.0000 0.0000 0.0000
# 3 43.6300 43.6301 101.9276 0.0000 0.0000 0.0000
# 4 0.0000 0.0000 0.0000 14.2439 0.0000 0.0000
# 5 0.0000 0.0000 0.0000 0.0000 14.2440 0.0000
# 6 0.0000 0.0000 0.0000 0.0000 0.0000 7.6296
#
#
#
# Elastic Compliance Matrix: (Units=1/GPa)
#
#
# Indices 1 2 3 4 5 6 
#
# 1 0.030471 -0.010243 -0.008658 0.000000 0.000000 0.000000
# 2 -0.010243 0.030471 -0.008659 0.000000 0.000000 0.000000
# 3 -0.008658 -0.008659 0.017223 0.000000 0.000000 0.000000
# 4 0.000000 0.000000 0.000000 0.070206 0.000000 0.000000
# 5 0.000000 0.000000 0.000000 0.000000 0.070205 0.000000
# 6 0.000000 0.000000 0.000000 0.000000 0.000000 0.131069
#
#
# Mechanical properties :
#
#
# Convention : Reuss Voigt Hill
#
# Bulk Modulus (GPa) = 43.39333 50.00277 46.69805
# Shear Modulus (GPa) = 12.12279 13.55044 12.83661
#
# Velocity S-wave (km/s) = 2.70242 2.85712 2.78085
# Velocity P-wave (km/s) = 5.98989 6.40369 6.20024
#
# Compressibility (1/GPa) = 0.02304502
#
# Stress axis : x y z
#
# Youngs Moduli (GPa) = 32.81837 32.81822 58.06047
#
# Poissons Ratio (x) = 0.33616 0.50271
# Poissons Ratio (y) = 0.33616 0.50272
# Poissons Ratio (z) = 0.28416 0.28416
#
# Static dielectric constant tensor:
#      x y z
#    x 1.555430 0.000000 0.000000 
#    y 0.000000 1.555430 0.000000 
#    z 0.000000 0.000000 1.579050 
# 
# From -- ./inp_files/5186.got.cif
#   From: 2010.05.17/outbox.cif.g08.bks.cpg/sg126_3_cif.got.tgz:5186.got - 2010.05.20 11:58:20.
