data_PCOD9563218
_publ_section_title
;
Structure prediction by ZEFSAII (Michael W. Deem and Ramdas Pophale) SiO2 
 PCOD9563218
Probable space group: P 4/N B M
;
_chemical_formula_sum "Si O2"
_cell_formula_units_Z 84
_cell_length_a 14.082321
_cell_length_b 14.082321
_cell_length_c 23.659207
_cell_angle_alpha 90.000000
_cell_angle_beta 90.000000
_cell_angle_gamma 90.000000
_cell_volume 4691.899093
_symmetry_space_group_name_H-M "P 4/N B M"
_symmetry_group_IT_number 125
_space_group.IT_coordinate_system_code '2'
_symmetry_cell_setting 'tetragonal'
loop_
_space_group_symop_operation_xyz
x,y,z
1/2-y,x,z
1/2-x,1/2-y,z
y,1/2-x,z
x,1/2-y,-z
1/2-x,y,-z
y,x,-z
1/2-y,1/2-x,-z
-x,-y,-z
1/2+y,-x,-z
1/2+x,1/2+y,-z
-y,1/2+x,-z
-x,1/2+y,z
1/2+x,-y,z
-y,-x,z
1/2+y,1/2+x,z
loop_
_atom_site_type_symbol
_atom_site_label
_atom_site_fract_x
_atom_site_fract_y
_atom_site_fract_z
Si Si1 0.352024 0.003403 0.970669
Si Si2 0.920583 0.924111 0.739806
Si Si3 0.752250 0.019587 0.676862
Si Si4 0.175827 0.389593 0.858996
Si Si5 0.744980 0.589792 0.435180
Si Si6 0.250000 0.750000 0.687458
O O1 0.403031 0.903031 0.978681
O O2 0.351577 0.031987 0.904803
O O3 0.250000 0.005448 0.000000
O O4 0.417288 0.082712 0.000000
O O5 0.855487 0.912410 0.795402
O O6 0.963730 0.827873 0.713499
O O7 0.853099 0.975722 0.694905
O O8 0.008223 0.991777 0.754829
O O9 0.749562 0.131695 0.686945
O O10 0.738022 0.991543 0.611347
O O11 0.126757 0.287659 0.868520
O O12 0.838170 0.656236 0.427650
O O13 0.750000 0.555658 0.500000
#
# Coordination Sequence:
#
# PCOD9563218 Si02
#       6
#    16  16  16  16  16   4
#     4  11  23  41  66  91 127 171 210 253 309 372
#     4  12  24  40  66  91 131 172 209 264 320 384
#     4  12  23  41  65  93 125 170 218 262 322 388
#     4  11  22  37  63  99 128 158 212 269 316 364
#     4   9  18  34  62  99 128 155 207 272 326 379
#     4  12  28  44  61  88 132 172 221 256 324 418
#
# _framework density 17.903199000000001
#
# number of rings (size 3 to 8) (size 9 to 14) (size 15 to 20)
#    0.000    0.952    7.619    1.143    0.000    0.762 
#    0.000    1.429    2.095    3.429    0.000    0.000 
#    0.000    0.000    0.000    0.000    0.000    0.000 
#
# Total GULP energy -467605.722037 kJ/mol
# GULP energy per Si atom -5566.734786 kJ/mol
# Density = 1.786245 g / cm^3
# Si number density = 17.903199 Si / 1000 Ang^3
#
#
#
# Elastic Constant Matrix: (Units=GPa)
#
#
# Indices 1 2 3 4 5 6 
#
# 1 122.6284 11.2646 32.2688 0.0000 0.0000 0.0000
# 2 11.2646 122.6260 32.2704 0.0000 0.0000 0.0000
# 3 32.2688 32.2704 99.3149 0.0000 0.0000 0.0000
# 4 0.0000 0.0000 0.0000 10.5453 0.0000 0.0000
# 5 0.0000 0.0000 0.0000 0.0000 10.5460 0.0000
# 6 0.0000 0.0000 0.0000 0.0000 0.0000 21.8384
#
#
#
# Elastic Compliance Matrix: (Units=1/GPa)
#
#
# Indices 1 2 3 4 5 6 
#
# 1 0.008918 -0.000062 -0.002877 0.000000 0.000000 0.000000
# 2 -0.000062 0.008918 -0.002878 0.000000 0.000000 0.000000
# 3 -0.002877 -0.002878 0.011939 0.000000 0.000000 0.000000
# 4 0.000000 0.000000 0.000000 0.094829 0.000000 0.000000
# 5 0.000000 0.000000 0.000000 0.000000 0.094823 0.000000
# 6 0.000000 0.000000 0.000000 0.000000 0.000000 0.045791
#
#
# Mechanical properties :
#
#
# Convention : Reuss Voigt Hill
#
# Bulk Modulus (GPa) = 55.12498 55.13080 55.12789
# Shear Modulus (GPa) = 17.67425 26.50363 22.08894
#
# Velocity S-wave (km/s) = 3.14540 3.85175 3.51636
# Velocity P-wave (km/s) = 6.63693 7.11632 6.88080
#
# Compressibility (1/GPa) = 0.01814059
#
# Stress axis : x y z
#
# Youngs Moduli (GPa) = 112.13840 112.13499 83.76013
#
# Poissons Ratio (x) = 0.00695 0.24100
# Poissons Ratio (y) = 0.00695 0.24102
# Poissons Ratio (z) = 0.32266 0.32267
#
# Static dielectric constant tensor:
#      x y z
#    x 1.599980 0.000000 0.000000 
#    y 0.000000 1.599980 0.000000 
#    z 0.000000 0.000000 1.638500 
# 
# From -- ./inp_files/5858.got.cif
#   From: 2010.05.17/outbox.cif.g08.bks.cpg/sg125_3_cif.got.tgz:5858.got - 2010.05.20 11:54:10.
