data_PCOD9563611
_publ_section_title
;
Structure prediction by ZEFSAII (Michael W. Deem and Ramdas Pophale) SiO2 
 PCOD9563611
Probable space group: P 4/N N C
;
_chemical_formula_sum "Si O2"
_cell_formula_units_Z 80
_cell_length_a 13.946267
_cell_length_b 13.946267
_cell_length_c 20.442402
_cell_angle_alpha 90.000000
_cell_angle_beta 90.000000
_cell_angle_gamma 90.000000
_cell_volume 3976.013730
_symmetry_space_group_name_H-M "P 4/N N C"
_symmetry_group_IT_number 126
_space_group.IT_coordinate_system_code '2'
_symmetry_cell_setting 'tetragonal'
loop_
_space_group_symop_operation_xyz
x,y,z
1/2-y,x,z
1/2-x,1/2-y,z
y,1/2-x,z
x,1/2-y,1/2-z
1/2-x,y,1/2-z
y,x,1/2-z
1/2-y,1/2-x,1/2-z
-x,-y,-z
1/2+y,-x,-z
1/2+x,1/2+y,-z
-y,1/2+x,-z
-x,1/2+y,1/2+z
1/2+x,-y,1/2+z
-y,-x,1/2+z
1/2+y,1/2+x,1/2+z
loop_
_atom_site_type_symbol
_atom_site_label
_atom_site_fract_x
_atom_site_fract_y
_atom_site_fract_z
Si Si1 0.372742 0.149580 0.998017
Si Si2 0.444350 0.390916 0.859108
Si Si3 0.938539 0.130741 0.437412
Si Si4 0.472493 0.702129 0.315294
Si Si5 0.843420 0.181410 0.072426
O O1 0.379933 0.263481 0.007721
O O2 0.397057 0.119634 0.924437
O O3 0.452969 0.105018 0.043971
O O4 0.552824 0.406372 0.884778
O O5 0.448214 0.283162 0.832807
O O6 0.397531 0.469457 0.811852
O O7 0.925347 0.240025 0.413152
O O8 0.876370 0.130016 0.505611
O O9 0.428077 0.750000 0.250000
O O10 0.394083 0.682720 0.371381
O O11 0.750000 0.250000 0.066752
#
# Coordination Sequence:
#
# PCOD9563611 Si02
#       5
#    16  16  16  16  16
#     4  11  22  36  59  94 133 165 204 256 329 399
#     4  12  23  42  63  92 127 171 216 263 317 385
#     4  12  22  38  65  98 127 167 211 272 336 389
#     4  12  27  44  64  90 127 177 221 264 310 383
#     4  12  21  40  63  93 128 164 215 268 329 383
#
# _framework density 20.120653000000001
#
# number of rings (size 3 to 8) (size 9 to 14) (size 15 to 20)
#    0.000    0.200    8.000    2.400    2.800    0.800 
#    0.000    1.000    0.000    0.000    0.000    0.000 
#    0.000    0.000    0.000    0.000    0.000    0.000 
#
# Total GULP energy -446378.321674 kJ/mol
# GULP energy per Si atom -5579.729021 kJ/mol
# Density = 2.007486 g / cm^3
# Si number density = 20.120653 Si / 1000 Ang^3
#
#
#
# Elastic Constant Matrix: (Units=GPa)
#
#
# Indices 1 2 3 4 5 6 
#
# 1 74.9044 30.6529 24.7641 0.0000 0.0000 0.0000
# 2 30.6529 74.9044 24.7641 0.0000 0.0000 0.0000
# 3 24.7641 24.7641 67.9855 0.0000 0.0000 0.0000
# 4 0.0000 0.0000 0.0000 17.3369 0.0000 0.0000
# 5 0.0000 0.0000 0.0000 0.0000 17.3369 0.0000
# 6 0.0000 0.0000 0.0000 0.0000 0.0000 22.6441
#
#
#
# Elastic Compliance Matrix: (Units=1/GPa)
#
#
# Indices 1 2 3 4 5 6 
#
# 1 0.017012 -0.005586 -0.004162 0.000000 0.000000 0.000000
# 2 -0.005586 0.017012 -0.004162 0.000000 0.000000 0.000000
# 3 -0.004162 -0.004162 0.017741 0.000000 0.000000 0.000000
# 4 0.000000 0.000000 0.000000 0.057680 0.000000 0.000000
# 5 0.000000 0.000000 0.000000 0.000000 0.057680 0.000000
# 6 0.000000 0.000000 0.000000 0.000000 0.000000 0.044162
#
#
# Mechanical properties :
#
#
# Convention : Reuss Voigt Hill
#
# Bulk Modulus (GPa) = 41.76154 42.01740 41.88947
# Shear Modulus (GPa) = 20.23551 20.63778 20.43665
#
# Velocity S-wave (km/s) = 3.17473 3.20613 3.19047
# Velocity P-wave (km/s) = 5.85142 5.88505 5.86826
#
# Compressibility (1/GPa) = 0.02394548
#
# Stress axis : x y z
#
# Youngs Moduli (GPa) = 58.78112 58.78112 56.36597
#
# Poissons Ratio (x) = 0.32834 0.23460
# Poissons Ratio (y) = 0.32834 0.23460
# Poissons Ratio (z) = 0.24466 0.24466
#
# Static dielectric constant tensor:
#      x y z
#    x 1.758850 0.000000 0.000000 
#    y 0.000000 1.758850 0.000000 
#    z 0.000000 0.000000 1.765590 
# 
# From -- ./inp_files/5070.got.cif
#   From: 2010.05.17/outbox.cif.g08.bks.cpg/sg126_3_cif.got.tgz:5070.got - 2010.05.20 11:58:20.
