data_PCOD9563630
_publ_section_title
;
Structure prediction by ZEFSAII (Michael W. Deem and Ramdas Pophale) SiO2 
 PCOD9563630
Probable space group: P 4/N N C
;
_chemical_formula_sum "Si O2"
_cell_formula_units_Z 80
_cell_length_a 11.818202
_cell_length_b 11.818202
_cell_length_c 29.342971
_cell_angle_alpha 90.000000
_cell_angle_beta 90.000000
_cell_angle_gamma 90.000000
_cell_volume 4098.329782
_symmetry_space_group_name_H-M "P 4/N N C"
_symmetry_group_IT_number 126
_space_group.IT_coordinate_system_code '2'
_symmetry_cell_setting 'tetragonal'
loop_
_space_group_symop_operation_xyz
x,y,z
1/2-y,x,z
1/2-x,1/2-y,z
y,1/2-x,z
x,1/2-y,1/2-z
1/2-x,y,1/2-z
y,x,1/2-z
1/2-y,1/2-x,1/2-z
-x,-y,-z
1/2+y,-x,-z
1/2+x,1/2+y,-z
-y,1/2+x,-z
-x,1/2+y,1/2+z
1/2+x,-y,1/2+z
-y,-x,1/2+z
1/2+y,1/2+x,1/2+z
loop_
_atom_site_type_symbol
_atom_site_label
_atom_site_fract_x
_atom_site_fract_y
_atom_site_fract_z
Si Si1 0.779869 0.929814 0.978335
Si Si2 0.885225 0.065616 0.248197
Si Si3 0.112774 0.749738 0.677097
Si Si4 0.178748 0.639805 0.418644
Si Si5 0.271337 0.069582 0.912767
O O1 0.659881 0.876121 0.963393
O O2 0.817045 0.050401 0.959347
O O3 0.757510 0.932386 0.032796
O O4 0.750000 0.054824 0.250000
O O5 0.920241 0.146239 0.290387
O O6 0.918837 0.134800 0.202722
O O7 0.947960 0.947960 0.250000
O O8 0.250000 0.750000 0.676098
O O9 0.078554 0.765345 0.625119
O O10 0.250000 0.750000 0.431449
O O11 0.056441 0.686842 0.402969
O O12 0.371107 0.154946 0.896687
#
# Coordination Sequence:
#
# PCOD9563630 Si02
#       5
#    16  16  16  16  16
#     4   9  21  38  54  76 112 153 192 244 297 338
#     4   9  17  34  60  79 109 144 176 215 276 334
#     4   8  18  37  51  77 110 146 179 220 268 326
#     4  11  23  33  58  85 110 148 198 240 283 356
#     4   9  21  40  56  76 114 157 193 242 303 348
#
# _framework density 19.520146
#
# number of rings (size 3 to 8) (size 9 to 14) (size 15 to 20)
#    0.000    2.800    0.000    2.400    5.600    3.400 
#    7.200    0.000    0.000    4.800    0.000    0.000 
#    0.000    0.000    0.000    0.000    0.000    0.000 
#
# Total GULP energy -445477.340472 kJ/mol
# GULP energy per Si atom -5568.466756 kJ/mol
# Density = 1.947572 g / cm^3
# Si number density = 19.520146 Si / 1000 Ang^3
#
#
#
# Elastic Constant Matrix: (Units=GPa)
#
#
# Indices 1 2 3 4 5 6 
#
# 1 69.2459 38.8971 -10.1933 0.0000 0.0000 0.0000
# 2 38.8971 69.2459 -10.1933 0.0000 0.0000 0.0000
# 3 -10.1933 -10.1933 15.1462 0.0000 0.0000 0.0000
# 4 0.0000 0.0000 0.0000 -23.7959 0.0000 0.0000
# 5 0.0000 0.0000 0.0000 0.0000 -23.7959 0.0000
# 6 0.0000 0.0000 0.0000 0.0000 0.0000 1.9519
#
#
#
# Elastic Compliance Matrix: (Units=1/GPa)
#
#
# Indices 1 2 3 4 5 6 
#
# 1 0.021770 -0.011180 0.007127 0.000000 0.000000 0.000000
# 2 -0.011180 0.021770 0.007127 0.000000 0.000000 0.000000
# 3 0.007127 0.007127 0.075617 0.000000 0.000000 0.000000
# 4 0.000000 0.000000 0.000000 -0.042024 0.000000 0.000000
# 5 0.000000 0.000000 0.000000 0.000000 -0.042024 0.000000
# 6 0.000000 0.000000 0.000000 0.000000 0.000000 0.512318
#
#
# Mechanical properties :
#
#
# Convention : Reuss Voigt Hill
#
# Bulk Modulus (GPa) = 7.98035 21.18432 14.58233
# Shear Modulus (GPa) = 8.57565 -0.11945 4.22810
#
# Velocity S-wave (km/s) = 2.09828 -0.24764 1.47334
# Velocity P-wave (km/s) = 3.15713 3.28547 3.22194
#
# Compressibility (1/GPa) = 0.12530786
#
# Stress axis : x y z
#
# Youngs Moduli (GPa) = 45.93392 45.93392 13.22460
#
# Poissons Ratio (x) = 0.51353 -0.09426
# Poissons Ratio (y) = 0.51353 -0.09426
# Poissons Ratio (z) = -0.32739 -0.32739
#
# Static dielectric constant tensor:
#      x y z
#    x 1.683050 0.000000 0.000000 
#    y 0.000000 1.683050 0.000000 
#    z 0.000000 0.000000 1.747740 
# 
# From -- ./inp_files/6425.got.cif
#   From: 2010.05.17/outbox.cif.g08.bks.cpg/sg126_4_cif.got.tgz:6425.got - 2010.05.20 11:58:20.
