data_PCOD9563166
_publ_section_title
;
Structure prediction by ZEFSAII (Michael W. Deem and Ramdas Pophale) SiO2 
 PCOD9563166
Probable space group: P 4/N B M
;
_chemical_formula_sum "Si O2"
_cell_formula_units_Z 72
_cell_length_a 21.631912
_cell_length_b 21.631912
_cell_length_c 6.965570
_cell_angle_alpha 90.000000
_cell_angle_beta 90.000000
_cell_angle_gamma 90.000000
_cell_volume 3259.466156
_symmetry_space_group_name_H-M "P 4/N B M"
_symmetry_group_IT_number 125
_space_group.IT_coordinate_system_code '2'
_symmetry_cell_setting 'tetragonal'
loop_
_space_group_symop_operation_xyz
x,y,z
1/2-y,x,z
1/2-x,1/2-y,z
y,1/2-x,z
x,1/2-y,-z
1/2-x,y,-z
y,x,-z
1/2-y,1/2-x,-z
-x,-y,-z
1/2+y,-x,-z
1/2+x,1/2+y,-z
-y,1/2+x,-z
-x,1/2+y,z
1/2+x,-y,z
-y,-x,z
1/2+y,1/2+x,z
loop_
_atom_site_type_symbol
_atom_site_label
_atom_site_fract_x
_atom_site_fract_y
_atom_site_fract_z
Si Si1 0.684042 0.974308 0.305866
Si Si2 0.349160 0.549563 0.690390
Si Si3 0.942835 0.250000 0.000000
Si Si4 0.046402 0.449897 0.731302
Si Si5 0.244067 0.350208 0.769842
O O1 0.618650 0.946661 0.233088
O O2 0.731251 0.917368 0.310535
O O3 0.677336 0.014229 0.501893
O O4 0.706697 0.018683 0.139788
O O5 0.397927 0.602073 0.627423
O O6 0.391487 0.495639 0.787382
O O7 0.299757 0.580267 0.837222
O O8 0.045901 0.454100 0.500000
O O9 0.012284 0.512284 0.799258
O O10 0.186803 0.305759 0.715492
O O11 0.250000 0.355403 0.000000
#
# Coordination Sequence:
#
# PCOD9563166 Si02
#       5
#    16  16   8  16  16
#     4  11  21  38  67  96 135 179 236 281 331 404
#     4  10  24  46  68  99 134 169 221 286 355 418
#     4  12  26  40  64 104 132 174 222 270 344 418
#     4   8  17  36  63  94 128 170 214 273 343 399
#     4   9  19  35  57  90 138 196 251 296 334 382
#
# _framework density 22.089507999999999
#
# number of rings (size 3 to 8) (size 9 to 14) (size 15 to 20)
#    0.000    2.222    1.111    3.333    3.111    2.667 
#    4.000    2.222    0.000    0.333    0.000    0.000 
#    0.000    0.000    0.000    0.000    0.000    0.000 
#
# Total GULP energy -401514.247548 kJ/mol
# GULP energy per Si atom -5576.586772 kJ/mol
# Density = 2.203923 g / cm^3
# Si number density = 22.089508 Si / 1000 Ang^3
#
#
#
# Elastic Constant Matrix: (Units=GPa)
#
#
# Indices 1 2 3 4 5 6 
#
# 1 73.3867 23.8577 38.7851 0.0000 0.0000 0.0000
# 2 23.8577 73.3868 38.7854 0.0000 0.0000 0.0000
# 3 38.7851 38.7854 132.3067 0.0000 0.0000 0.0000
# 4 0.0000 0.0000 0.0000 10.1544 0.0000 0.0000
# 5 0.0000 0.0000 0.0000 0.0000 10.1553 0.0000
# 6 0.0000 0.0000 0.0000 0.0000 0.0000 -17.4814
#
#
#
# Elastic Compliance Matrix: (Units=1/GPa)
#
#
# Indices 1 2 3 4 5 6 
#
# 1 0.016806 -0.003384 -0.003935 0.000000 0.000000 0.000000
# 2 -0.003384 0.016806 -0.003935 0.000000 0.000000 0.000000
# 3 -0.003935 -0.003935 0.009865 0.000000 0.000000 0.000000
# 4 0.000000 0.000000 0.000000 0.098480 0.000000 0.000000
# 5 0.000000 0.000000 0.000000 0.000000 0.098471 0.000000
# 6 0.000000 0.000000 0.000000 0.000000 0.000000 -0.057204
#
#
# Mechanical properties :
#
#
# Convention : Reuss Voigt Hill
#
# Bulk Modulus (GPa) = 47.68601 53.54851 50.61726
# Shear Modulus (GPa) = 23.50497 12.40911 17.95704
#
# Velocity S-wave (km/s) = 3.26556 2.37273 2.85427
# Velocity P-wave (km/s) = 5.98774 5.63921 5.81609
#
# Compressibility (1/GPa) = 0.02097051
#
# Stress axis : x y z
#
# Youngs Moduli (GPa) = 59.50248 59.50233 101.36827
#
# Poissons Ratio (x) = 0.20136 0.39884
# Poissons Ratio (y) = 0.20136 0.39885
# Poissons Ratio (z) = 0.23412 0.23412
#
# Static dielectric constant tensor:
#      x y z
#    x 1.834280 0.000000 0.000000 
#    y 0.000000 1.834280 0.000000 
#    z 0.000000 0.000000 2.221780 
# 
# From -- ./inp_files/2578.got.cif
#   From: 2010.05.17/outbox.cif.g08.bks.cpg/sg125_2_cif.got.tgz:2578.got - 2010.05.20 11:54:10.
