data_PCOD9563488
_publ_section_title
;
Structure prediction by ZEFSAII (Michael W. Deem and Ramdas Pophale) SiO2 
 PCOD9563488
Probable space group: P 4/N N C
;
_chemical_formula_sum "Si O2"
_cell_formula_units_Z 64
_cell_length_a 10.499459
_cell_length_b 10.499459
_cell_length_c 29.051295
_cell_angle_alpha 90.000000
_cell_angle_beta 90.000000
_cell_angle_gamma 90.000000
_cell_volume 3202.575230
_symmetry_space_group_name_H-M "P 4/N N C"
_symmetry_group_IT_number 126
_space_group.IT_coordinate_system_code '2'
_symmetry_cell_setting 'tetragonal'
loop_
_space_group_symop_operation_xyz
x,y,z
1/2-y,x,z
1/2-x,1/2-y,z
y,1/2-x,z
x,1/2-y,1/2-z
1/2-x,y,1/2-z
y,x,1/2-z
1/2-y,1/2-x,1/2-z
-x,-y,-z
1/2+y,-x,-z
1/2+x,1/2+y,-z
-y,1/2+x,-z
-x,1/2+y,1/2+z
1/2+x,-y,1/2+z
-y,-x,1/2+z
1/2+y,1/2+x,1/2+z
loop_
_atom_site_type_symbol
_atom_site_label
_atom_site_fract_x
_atom_site_fract_y
_atom_site_fract_z
Si Si1 0.452718 0.800298 0.988304
Si Si2 0.570171 0.651770 0.419852
Si Si3 0.897341 0.287093 0.394277
Si Si4 0.252818 0.465024 0.198652
O O1 0.479216 0.781056 0.934534
O O2 0.396614 0.665364 0.005629
O O3 0.557670 0.844471 0.024454
O O4 0.699779 0.582959 0.405624
O O5 0.439482 0.594522 0.401026
O O6 0.750000 0.250000 0.403052
O O7 0.939666 0.248057 0.343765
O O8 0.129288 0.373503 0.195243
O O9 0.250000 0.522845 0.250000
#
# Coordination Sequence:
#
# PCOD9563488 Si02
#       4
#    16  16  16  16
#     4   9  16  33  49  76 110 147 189 233 274 318
#     4  10  22  36  52  81 121 159 192 234 282 339
#     4  11  21  34  60  86 114 150 200 233 287 350
#     4   9  21  41  62  87 116 142 183 247 301 341
#
# _framework density 19.983919
#
# number of rings (size 3 to 8) (size 9 to 14) (size 15 to 20)
#    0.000    2.250    5.000    0.750    3.500    6.500 
#    0.000    2.500    0.000    0.000    0.000    0.000 
#    0.000    0.000    0.000    0.000    0.000    0.000 
#
# Total GULP energy -357455.731021 kJ/mol
# GULP energy per Si atom -5585.245797 kJ/mol
# Density = 1.993843 g / cm^3
# Si number density = 19.983919 Si / 1000 Ang^3
#
#
#
# Elastic Constant Matrix: (Units=GPa)
#
#
# Indices 1 2 3 4 5 6 
#
# 1 32.3847 13.2520 10.4934 0.0000 0.0000 0.0000
# 2 13.2520 32.3847 10.4934 0.0000 0.0000 0.0000
# 3 10.4934 10.4934 136.0524 0.0000 0.0000 0.0000
# 4 0.0000 0.0000 0.0000 25.5546 0.0000 0.0000
# 5 0.0000 0.0000 0.0000 0.0000 25.5546 0.0000
# 6 0.0000 0.0000 0.0000 0.0000 0.0000 16.1433
#
#
#
# Elastic Compliance Matrix: (Units=1/GPa)
#
#
# Indices 1 2 3 4 5 6 
#
# 1 0.037492 -0.014774 -0.001752 0.000000 0.000000 0.000000
# 2 -0.014774 0.037492 -0.001752 0.000000 0.000000 0.000000
# 3 -0.001752 -0.001752 0.007620 0.000000 0.000000 0.000000
# 4 0.000000 0.000000 0.000000 0.039132 0.000000 0.000000
# 5 0.000000 0.000000 0.000000 0.000000 0.039132 0.000000
# 6 0.000000 0.000000 0.000000 0.000000 0.000000 0.061945
#
#
# Mechanical properties :
#
#
# Convention : Reuss Voigt Hill
#
# Bulk Modulus (GPa) = 21.71667 29.92217 25.81942
# Shear Modulus (GPa) = 18.20034 24.55603 21.37819
#
# Velocity S-wave (km/s) = 3.02114 3.50921 3.27428
# Velocity P-wave (km/s) = 4.80212 5.60581 5.21945
#
# Compressibility (1/GPa) = 0.04604758
#
# Stress axis : x y z
#
# Youngs Moduli (GPa) = 26.67224 26.67224 131.22680
#
# Poissons Ratio (x) = 0.39406 0.22993
# Poissons Ratio (y) = 0.39406 0.22993
# Poissons Ratio (z) = 0.04673 0.04673
#
# Static dielectric constant tensor:
#      x y z
#    x 1.728850 0.000000 0.000000 
#    y 0.000000 1.728850 0.000000 
#    z 0.000000 0.000000 1.702560 
# 
# From -- ./inp_files/4920.got.cif
#   From: 2010.05.17/outbox.cif.g08.bks.cpg/sg126_3_cif.got.tgz:4920.got - 2010.05.20 11:58:20.
