data_PCOD9563468
_publ_section_title
;
Structure prediction by ZEFSAII (Michael W. Deem and Ramdas Pophale) SiO2 
 PCOD9563468
Probable space group: P 4/N N C
;
_chemical_formula_sum "Si O2"
_cell_formula_units_Z 96
_cell_length_a 25.988813
_cell_length_b 25.988813
_cell_length_c 7.746440
_cell_angle_alpha 90.000000
_cell_angle_beta 90.000000
_cell_angle_gamma 90.000000
_cell_volume 5232.088119
_symmetry_space_group_name_H-M "P 4/N N C"
_symmetry_group_IT_number 126
_space_group.IT_coordinate_system_code '2'
_symmetry_cell_setting 'tetragonal'
loop_
_space_group_symop_operation_xyz
x,y,z
1/2-y,x,z
1/2-x,1/2-y,z
y,1/2-x,z
x,1/2-y,1/2-z
1/2-x,y,1/2-z
y,x,1/2-z
1/2-y,1/2-x,1/2-z
-x,-y,-z
1/2+y,-x,-z
1/2+x,1/2+y,-z
-y,1/2+x,-z
-x,1/2+y,1/2+z
1/2+x,-y,1/2+z
-y,-x,1/2+z
1/2+y,1/2+x,1/2+z
loop_
_atom_site_type_symbol
_atom_site_label
_atom_site_fract_x
_atom_site_fract_y
_atom_site_fract_z
Si Si1 0.807670 0.893139 0.750000
Si Si2 0.839351 0.527511 0.039186
Si Si3 0.750000 0.048330 0.451726
Si Si4 0.160649 0.027511 0.960814
Si Si5 0.457680 0.457680 0.544600
Si Si6 0.833712 0.250000 0.047675
O O1 0.750000 0.873676 0.750000
O O2 0.848491 0.848491 0.750000
O O3 0.816658 0.926851 0.577112
O O4 0.816658 0.926851 0.922888
O O5 0.802882 0.479114 0.987662
O O6 0.836700 0.534816 0.250000
O O7 0.899932 0.525842 0.988980
O O8 0.750000 0.037746 0.250000
O O9 0.750000 0.109225 0.474238
O O10 0.697118 0.020886 0.512338
O O11 0.100068 0.025842 0.011020
O O12 0.455008 0.455008 0.750000
O O13 0.500000 0.500000 0.500000
O O14 0.839725 0.250000 0.250000
O O15 0.799617 0.200383 1.000000
#
# Coordination Sequence:
#
# PCOD9563468 Si02
#       6
#    16  16  16  16  16  16
#     4  12  24  39  68  94 124 166 210 254 316 376
#     4  10  22  40  61  89 124 167 208 252 309 379
#     4  10  21  39  64  90 119 153 212 262 305 374
#     4  10  22  40  61  89 124 167 208 252 309 379
#     4  10  22  38  58  88 126 165 205 253 315 371
#     4  11  23  40  61  84 120 164 209 263 324 378
#
# _framework density 18.348316000000001
#
# number of rings (size 3 to 8) (size 9 to 14) (size 15 to 20)
#    0.000    1.500    3.333    2.000    4.667    1.500 
#    0.000    3.333    0.000    0.000    0.000    2.333 
#    0.000    0.000    0.000    0.000    0.000    0.000 
#
# Total GULP energy -534958.706052 kJ/mol
# GULP energy per Si atom -5572.486521 kJ/mol
# Density = 1.830655 g / cm^3
# Si number density = 18.348316 Si / 1000 Ang^3
#
#
#
# Elastic Constant Matrix: (Units=GPa)
#
#
# Indices 1 2 3 4 5 6 
#
# 1 157.3825 75.7293 3.0098 0.0000 0.0000 0.0000
# 2 75.7293 157.3825 3.0098 0.0000 0.0000 0.0000
# 3 3.0098 3.0098 27.8582 0.0000 0.0000 0.0000
# 4 0.0000 0.0000 0.0000 5.7617 0.0000 0.0000
# 5 0.0000 0.0000 0.0000 0.0000 5.7617 0.0000
# 6 0.0000 0.0000 0.0000 0.0000 0.0000 23.7789
#
#
#
# Elastic Compliance Matrix: (Units=1/GPa)
#
#
# Indices 1 2 3 4 5 6 
#
# 1 0.008274 -0.003973 -0.000465 0.000000 0.000000 0.000000
# 2 -0.003973 0.008274 -0.000465 0.000000 0.000000 0.000000
# 3 -0.000465 -0.000465 0.035996 0.000000 0.000000 0.000000
# 4 0.000000 0.000000 0.000000 0.173559 0.000000 0.000000
# 5 0.000000 0.000000 0.000000 0.000000 0.173559 0.000000
# 6 0.000000 0.000000 0.000000 0.000000 0.000000 0.042054
#
#
# Mechanical properties :
#
#
# Convention : Reuss Voigt Hill
#
# Bulk Modulus (GPa) = 23.39674 56.23565 39.81620
# Shear Modulus (GPa) = 10.73495 24.45211 17.59353
#
# Velocity S-wave (km/s) = 2.42144 3.65453 3.09991
# Velocity P-wave (km/s) = 4.53838 6.96584 5.87877
#
# Compressibility (1/GPa) = 0.04274099
#
# Stress axis : x y z
#
# Youngs Moduli (GPa) = 120.85541 120.85541 27.78052
#
# Poissons Ratio (x) = 0.48011 0.01291
# Poissons Ratio (y) = 0.48011 0.01291
# Poissons Ratio (z) = 0.05617 0.05617
#
# Static dielectric constant tensor:
#      x y z
#    x 1.615660 0.000000 0.000000 
#    y 0.000000 1.615660 0.000000 
#    z 0.000000 0.000000 1.680610 
# 
# From -- ./inp_files/1743.got.cif
#   From: 2010.05.17/outbox.cif.g08.bks.cpg/sg126_1_cif.got.tgz:1743.got - 2010.05.20 11:58:20.
