data_PCOD9563147
_publ_section_title
;
Structure prediction by ZEFSAII (Michael W. Deem and Ramdas Pophale) SiO2 
 PCOD9563147
Probable space group: P 4/N B M
;
_chemical_formula_sum "Si O2"
_cell_formula_units_Z 42
_cell_length_a 10.208405
_cell_length_b 10.208405
_cell_length_c 19.971585
_cell_angle_alpha 90.000000
_cell_angle_beta 90.000000
_cell_angle_gamma 90.000000
_cell_volume 2081.269482
_symmetry_space_group_name_H-M "P 4/N B M"
_symmetry_group_IT_number 125
_space_group.IT_coordinate_system_code '2'
_symmetry_cell_setting 'tetragonal'
loop_
_space_group_symop_operation_xyz
x,y,z
1/2-y,x,z
1/2-x,1/2-y,z
y,1/2-x,z
x,1/2-y,-z
1/2-x,y,-z
y,x,-z
1/2-y,1/2-x,-z
-x,-y,-z
1/2+y,-x,-z
1/2+x,1/2+y,-z
-y,1/2+x,-z
-x,1/2+y,z
1/2+x,-y,z
-y,-x,z
1/2+y,1/2+x,z
loop_
_atom_site_type_symbol
_atom_site_label
_atom_site_fract_x
_atom_site_fract_y
_atom_site_fract_z
Si Si1 0.350050 0.649951 0.687960
Si Si2 0.384013 0.884013 0.878060
Si Si3 0.250000 0.750000 0.000000
Si Si4 0.030283 0.246924 0.426398
Si Si5 0.091867 0.591867 0.172009
O O1 0.250000 0.750000 0.722100
O O2 0.268727 0.559090 0.637625
O O3 0.423377 0.576624 0.747707
O O4 0.245048 0.931024 0.846307
O O5 0.494025 0.994025 0.866436
O O6 0.340866 0.840866 0.952957
O O7 0.126191 0.121755 0.424021
O O8 0.965900 0.250000 0.500000
#
# Coordination Sequence:
#
# PCOD9563147 Si02
#       5
#     8   8   2  16   8
#     4  12  25  35  60  85 121 162 213 257 325 378
#     4  10  22  45  67 102 135 174 211 266 305 393
#     4   8  20  44  80 104 136 172 210 264 324 356
#     4   9  22  40  56  79 111 153 210 274 328 376
#     4  10  24  41  63  95 142 172 219 262 327 383
#
# _framework density 20.179991999999999
#
# number of rings (size 3 to 8) (size 9 to 14) (size 15 to 20)
#    0.000    2.286    1.905    1.143   10.667    5.333 
#    0.000    0.000    0.000    9.143    0.000    0.000 
#    0.000    0.000    0.000    0.000    0.000    0.000 
#
# Total GULP energy -234297.635638 kJ/mol
# GULP energy per Si atom -5578.515134 kJ/mol
# Density = 2.013406 g / cm^3
# Si number density = 20.179992 Si / 1000 Ang^3
#
#
#
# Elastic Constant Matrix: (Units=GPa)
#
#
# Indices 1 2 3 4 5 6 
#
# 1 100.3662 64.8656 44.3681 0.0000 0.0000 0.0000
# 2 64.8656 100.3662 44.3681 0.0000 0.0000 0.0000
# 3 44.3681 44.3681 157.9122 0.0000 0.0000 0.0000
# 4 0.0000 0.0000 0.0000 16.9798 0.0000 0.0000
# 5 0.0000 0.0000 0.0000 0.0000 16.9798 0.0000
# 6 0.0000 0.0000 0.0000 0.0000 0.0000 34.1773
#
#
#
# Elastic Compliance Matrix: (Units=1/GPa)
#
#
# Indices 1 2 3 4 5 6 
#
# 1 0.017648 -0.010521 -0.002003 0.000000 0.000000 0.000000
# 2 -0.010521 0.017648 -0.002003 0.000000 0.000000 0.000000
# 3 -0.002003 -0.002003 0.007458 0.000000 0.000000 0.000000
# 4 0.000000 0.000000 0.000000 0.058893 0.000000 0.000000
# 5 0.000000 0.000000 0.000000 0.000000 0.058893 0.000000
# 6 0.000000 0.000000 0.000000 0.000000 0.000000 0.029259
#
#
# Mechanical properties :
#
#
# Convention : Reuss Voigt Hill
#
# Bulk Modulus (GPa) = 72.97842 73.98315 73.48078
# Shear Modulus (GPa) = 22.37945 27.29689 24.83817
#
# Velocity S-wave (km/s) = 3.33377 3.68186 3.51213
# Velocity P-wave (km/s) = 7.14569 7.40378 7.27588
#
# Compressibility (1/GPa) = 0.01370268
#
# Stress axis : x y z
#
# Youngs Moduli (GPa) = 56.66333 56.66333 134.08469
#
# Poissons Ratio (x) = 0.59613 0.26852
# Poissons Ratio (y) = 0.59613 0.26852
# Poissons Ratio (z) = 0.11348 0.11348
#
# Static dielectric constant tensor:
#      x y z
#    x 1.734110 0.000000 0.000000 
#    y 0.000000 1.734110 0.000000 
#    z 0.000000 0.000000 1.715690 
# 
# From -- ./inp_files/5663.got.cif
#   From: 2010.05.17/outbox.cif.g08.bks.cpg/sg125_3_cif.got.tgz:5663.got - 2010.05.20 11:54:10.
