data_PCOD9563353
_publ_section_title
;
Structure prediction by ZEFSAII (Michael W. Deem and Ramdas Pophale) SiO2 
 PCOD9563353
Probable space group: P 4/N N C
;
_chemical_formula_sum "Si O2"
_cell_formula_units_Z 80
_cell_length_a 15.837100
_cell_length_b 15.837100
_cell_length_c 13.229400
_cell_angle_alpha 90.000000
_cell_angle_beta 90.000000
_cell_angle_gamma 90.000000
_cell_volume 3318.115244
_symmetry_space_group_name_H-M "P 4/N N C"
_symmetry_group_IT_number 126
_space_group.IT_coordinate_system_code '2'
_symmetry_cell_setting 'tetragonal'
loop_
_space_group_symop_operation_xyz
x,y,z
1/2-y,x,z
1/2-x,1/2-y,z
y,1/2-x,z
x,1/2-y,1/2-z
1/2-x,y,1/2-z
y,x,1/2-z
1/2-y,1/2-x,1/2-z
-x,-y,-z
1/2+y,-x,-z
1/2+x,1/2+y,-z
-y,1/2+x,-z
-x,1/2+y,1/2+z
1/2+x,-y,1/2+z
-y,-x,1/2+z
1/2+y,1/2+x,1/2+z
loop_
_atom_site_type_symbol
_atom_site_label
_atom_site_fract_x
_atom_site_fract_y
_atom_site_fract_z
Si Si1 0.358924 0.157237 0.927003
Si Si2 0.555987 0.944014 0.250000
Si Si3 0.114385 0.716096 0.524677
Si Si4 0.327141 0.571913 0.684350
Si Si5 0.116229 0.750000 0.750000
Si Si6 0.651314 0.854238 0.644182
O O1 0.363015 0.258952 0.918236
O O2 0.412787 0.112579 0.842853
O O3 0.390194 0.126077 0.036898
O O4 0.463068 0.916294 0.278325
O O5 0.151797 0.805724 0.483170
O O6 0.054466 0.686397 0.433891
O O7 0.078285 0.721330 0.639405
O O8 0.250000 0.535987 0.750000
O O9 0.331182 0.671027 0.708279
O O10 0.636633 0.753233 0.644211
O O11 0.614449 0.885552 0.750000
#
# Coordination Sequence:
#
# PCOD9563353 Si02
#       6
#    16   8  16  16   8  16
#     4   9  16  28  46  70 107 167 229 265 296 360
#     4  12  24  33  48  82 136 179 204 250 330 404
#     4   9  17  31  63 100 125 149 205 278 335 390
#     4  11  21  37  61  97 133 170 216 272 330 394
#     4  10  19  38  68  98 120 159 216 283 336 386
#     4   7  10  18  36  62  88 123 198 284 318 329
#
# _framework density 24.110074000000001
#
# number of rings (size 3 to 8) (size 9 to 14) (size 15 to 20)
#    0.000    2.600    2.000    3.900    0.000    0.800 
#    0.000    1.000    0.000    7.200    0.000    0.000 
#    0.000    0.400    0.000    0.000    0.000    0.000 
#
# Total GULP energy -446259.448787 kJ/mol
# GULP energy per Si atom -5578.243110 kJ/mol
# Density = 2.405520 g / cm^3
# Si number density = 24.110074 Si / 1000 Ang^3
#
#
#
# Elastic Constant Matrix: (Units=GPa)
#
#
# Indices 1 2 3 4 5 6 
#
# 1 49.7339 15.8088 18.8243 0.0000 0.0000 0.0000
# 2 15.8088 49.7343 18.8238 0.0000 0.0000 0.0000
# 3 18.8243 18.8238 240.2918 0.0000 0.0000 0.0000
# 4 0.0000 0.0000 0.0000 63.6014 0.0000 0.0000
# 5 0.0000 0.0000 0.0000 0.0000 63.6130 0.0000
# 6 0.0000 0.0000 0.0000 0.0000 0.0000 5.2391
#
#
#
# Elastic Compliance Matrix: (Units=1/GPa)
#
#
# Indices 1 2 3 4 5 6 
#
# 1 0.022726 -0.006750 -0.001252 0.000000 0.000000 0.000000
# 2 -0.006750 0.022726 -0.001252 0.000000 0.000000 0.000000
# 3 -0.001252 -0.001252 0.004358 0.000000 0.000000 0.000000
# 4 0.000000 0.000000 0.000000 0.015723 0.000000 0.000000
# 5 0.000000 0.000000 0.000000 0.000000 0.015720 0.000000
# 6 0.000000 0.000000 0.000000 0.000000 0.000000 0.190872
#
#
# Mechanical properties :
#
#
# Convention : Reuss Voigt Hill
#
# Bulk Modulus (GPa) = 31.94512 49.63042 40.78777
# Shear Modulus (GPa) = 16.60761 45.57757 31.09259
#
# Velocity S-wave (km/s) = 2.62739 4.35258 3.59501
# Velocity P-wave (km/s) = 4.74160 6.77419 5.84689
#
# Compressibility (1/GPa) = 0.03130369
#
# Stress axis : x y z
#
# Youngs Moduli (GPa) = 44.00170 44.00206 229.47924
#
# Poissons Ratio (x) = 0.29702 0.28721
# Poissons Ratio (y) = 0.29702 0.28719
# Poissons Ratio (z) = 0.05507 0.05507
#
# Static dielectric constant tensor:
#      x y z
#    x 1.924790 0.000000 0.000000 
#    y 0.000000 1.924780 0.000000 
#    z 0.000000 0.000000 1.983350 
# 
# From -- ./inp_files/3698.got.cif
#   From: 2010.05.17/outbox.cif.g08.bks.cpg/sg126_2_cif.got.tgz:3698.got - 2010.05.20 11:58:20.
