data_PCOD9563568
_publ_section_title
;
Structure prediction by ZEFSAII (Michael W. Deem and Ramdas Pophale) SiO2 
 PCOD9563568
Probable space group: P 4/N N C
;
_chemical_formula_sum "Si O2"
_cell_formula_units_Z 96
_cell_length_a 19.372008
_cell_length_b 19.372008
_cell_length_c 11.944635
_cell_angle_alpha 90.000000
_cell_angle_beta 90.000000
_cell_angle_gamma 90.000000
_cell_volume 4482.519244
_symmetry_space_group_name_H-M "P 4/N N C"
_symmetry_group_IT_number 126
_space_group.IT_coordinate_system_code '2'
_symmetry_cell_setting 'tetragonal'
loop_
_space_group_symop_operation_xyz
x,y,z
1/2-y,x,z
1/2-x,1/2-y,z
y,1/2-x,z
x,1/2-y,1/2-z
1/2-x,y,1/2-z
y,x,1/2-z
1/2-y,1/2-x,1/2-z
-x,-y,-z
1/2+y,-x,-z
1/2+x,1/2+y,-z
-y,1/2+x,-z
-x,1/2+y,1/2+z
1/2+x,-y,1/2+z
-y,-x,1/2+z
1/2+y,1/2+x,1/2+z
loop_
_atom_site_type_symbol
_atom_site_label
_atom_site_fract_x
_atom_site_fract_y
_atom_site_fract_z
Si Si1 0.343686 0.930092 0.454689
Si Si2 0.633934 0.750346 0.628246
Si Si3 0.313804 0.638410 0.831231
Si Si4 0.470068 0.852779 0.348416
Si Si5 0.250000 0.585126 0.250000
Si Si6 0.106253 0.393748 0.750000
Si Si7 0.712967 0.546936 0.082325
O O1 0.302022 0.879712 0.539747
O O2 0.415170 0.890850 0.428321
O O3 0.301529 0.947102 0.341531
O O4 0.346219 0.001450 0.522239
O O5 0.683626 0.683798 0.625937
O O6 0.597408 0.750000 0.750000
O O7 0.589896 0.747942 0.516884
O O8 0.250000 0.656054 0.750000
O O9 0.346555 0.572088 0.767839
O O10 0.367166 0.700043 0.823380
O O11 0.540145 0.894610 0.330768
O O12 0.496523 0.775310 0.377482
O O13 0.094212 0.323895 0.823183
#
# Coordination Sequence:
#
# PCOD9563568 Si02
#       7
#    16  16  16  16   8   8  16
#     4  11  24  43  68  93 139 181 229 289 353 421
#     4   9  20  41  67  98 134 170 222 294 362 420
#     4  11  20  42  60  93 127 171 220 288 352 405
#     4  11  24  44  66  96 139 179 231 289 352 424
#     4  10  25  36  64  94 120 177 230 280 348 420
#     4  12  24  42  68  99 140 192 232 285 360 426
#     4  12  23  43  69  99 135 184 239 291 355 432
#
# _framework density 21.416529000000001
#
# number of rings (size 3 to 8) (size 9 to 14) (size 15 to 20)
#    0.000    1.167    3.333    3.250    3.500    0.667 
#    0.000    1.667    0.000    1.000    0.000    0.000 
#    0.000    0.000    0.000    0.000    0.000    0.000 
#
# Total GULP energy -535168.700584 kJ/mol
# GULP energy per Si atom -5574.673964 kJ/mol
# Density = 2.136778 g / cm^3
# Si number density = 21.416529 Si / 1000 Ang^3
#
#
#
# Elastic Constant Matrix: (Units=GPa)
#
#
# Indices 1 2 3 4 5 6 
#
# 1 91.2704 37.0532 41.1962 0.0000 0.0000 0.0000
# 2 37.0532 91.2709 41.1964 0.0000 0.0000 0.0000
# 3 41.1962 41.1964 123.5017 0.0000 0.0000 0.0000
# 4 0.0000 0.0000 0.0000 33.3585 0.0000 0.0000
# 5 0.0000 0.0000 0.0000 0.0000 33.3587 0.0000
# 6 0.0000 0.0000 0.0000 0.0000 0.0000 -363.0215
#
#
#
# Elastic Compliance Matrix: (Units=1/GPa)
#
#
# Indices 1 2 3 4 5 6 
#
# 1 0.014181 -0.004264 -0.003308 0.000000 0.000000 0.000000
# 2 -0.004264 0.014180 -0.003308 0.000000 0.000000 0.000000
# 3 -0.003308 -0.003308 0.010304 0.000000 0.000000 0.000000
# 4 0.000000 0.000000 0.000000 0.029977 0.000000 0.000000
# 5 0.000000 0.000000 0.000000 0.000000 0.029977 0.000000
# 6 0.000000 0.000000 0.000000 0.000000 0.000000 -0.002755
#
#
# Mechanical properties :
#
#
# Convention : Reuss Voigt Hill
#
# Bulk Modulus (GPa) = 59.15182 60.54830 59.85006
# Shear Modulus (GPa) = 40.56497 -46.82104 -3.12803
#
# Velocity S-wave (km/s) = 4.35684 -4.68077 -1.20985
# Velocity P-wave (km/s) = 7.27936 0.93788 5.10438
#
# Compressibility (1/GPa) = 0.01690565
#
# Stress axis : x y z
#
# Youngs Moduli (GPa) = 70.51937 70.51972 97.05092
#
# Poissons Ratio (x) = 0.30068 0.32103
# Poissons Ratio (y) = 0.30068 0.32103
# Poissons Ratio (z) = 0.23327 0.23327
#
# Static dielectric constant tensor:
#      x y z
#    x 1.801950 0.000000 0.000000 
#    y 0.000000 1.801950 0.000000 
#    z 0.000000 0.000000 1.783130 
# 
# From -- ./inp_files/2942.got.cif
#   From: 2010.05.17/outbox.cif.g08.bks.cpg/sg126_2_cif.got.tgz:2942.got - 2010.05.20 11:58:20.
