data_PCOD9563069
_publ_section_title
;
Structure prediction by ZEFSAII (Michael W. Deem and Ramdas Pophale) SiO2 
 PCOD9563069
Probable space group: P 4/N B M
;
_chemical_formula_sum "Si O2"
_cell_formula_units_Z 104
_cell_length_a 31.967814
_cell_length_b 31.967814
_cell_length_c 5.350993
_cell_angle_alpha 90.000000
_cell_angle_beta 90.000000
_cell_angle_gamma 90.000000
_cell_volume 5468.399843
_symmetry_space_group_name_H-M "P 4/N B M"
_symmetry_group_IT_number 125
_space_group.IT_coordinate_system_code '2'
_symmetry_cell_setting 'tetragonal'
loop_
_space_group_symop_operation_xyz
x,y,z
1/2-y,x,z
1/2-x,1/2-y,z
y,1/2-x,z
x,1/2-y,-z
1/2-x,y,-z
y,x,-z
1/2-y,1/2-x,-z
-x,-y,-z
1/2+y,-x,-z
1/2+x,1/2+y,-z
-y,1/2+x,-z
-x,1/2+y,z
1/2+x,-y,z
-y,-x,z
1/2+y,1/2+x,z
loop_
_atom_site_type_symbol
_atom_site_label
_atom_site_fract_x
_atom_site_fract_y
_atom_site_fract_z
Si Si1 0.363968 0.930344 0.851640
Si Si2 0.173198 0.118820 0.668772
Si Si3 0.392660 0.250000 0.000000
Si Si4 0.546909 0.812591 0.713653
Si Si5 0.275226 0.956533 0.741924
Si Si6 0.886819 0.943737 0.107051
Si Si7 0.598037 0.029947 0.647481
O O1 0.385650 0.885650 0.839289
O O2 0.314986 0.928728 0.808637
O O3 0.383948 0.956818 0.621778
O O4 0.376116 0.949895 0.120270
O O5 0.157314 0.157314 0.500000
O O6 0.214447 0.130397 0.830962
O O7 0.182625 0.074994 0.530662
O O8 0.131167 0.100684 0.793822
O O9 0.423971 0.279090 0.849408
O O10 0.501674 0.794097 0.665495
O O11 0.543333 0.853080 0.894094
O O12 0.250000 0.941330 0.500000
O O13 0.250000 0.962141 0.000000
O O14 0.894855 0.980636 0.305511
O O15 0.931989 0.931989 0.000000
O O16 0.551858 0.051858 0.664976
#
# Coordination Sequence:
#
# PCOD9563069 Si02
#       7
#    16  16   8  16  16  16  16
#     4  10  21  39  59  82 118 163 205 251 302 363
#     4  11  22  37  57  82 115 159 191 239 304 381
#     4  10  22  34  56  80 114 151 184 234 297 362
#     4  11  21  37  52  82 117 154 187 238 305 358
#     4  12  23  35  58  90 119 155 197 247 305 364
#     4  11  22  35  54  79 112 158 204 253 299 354
#     4  10  21  37  58  80 111 164 222 256 296 347
#
# _framework density 19.018360999999999
#
# number of rings (size 3 to 8) (size 9 to 14) (size 15 to 20)
#    0.000    1.231    3.846    3.231    2.154    0.308 
#    0.000    0.000    0.000    3.231    0.000    0.000 
#    0.000   23.385    0.000    0.000    0.000    0.000 
#
# Total GULP energy -579570.544556 kJ/mol
# GULP energy per Si atom -5572.793698 kJ/mol
# Density = 1.897507 g / cm^3
# Si number density = 19.018361 Si / 1000 Ang^3
#
#
#
# Elastic Constant Matrix: (Units=GPa)
#
#
# Indices 1 2 3 4 5 6 
#
# 1 59.5896 29.4282 -2.5474 0.0000 0.0000 0.0000
# 2 29.4282 59.5896 -2.5474 0.0000 0.0000 0.0000
# 3 -2.5474 -2.5474 38.7354 0.0000 0.0000 0.0000
# 4 0.0000 0.0000 0.0000 24.5166 0.0000 0.0000
# 5 0.0000 0.0000 0.0000 0.0000 24.5166 0.0000
# 6 0.0000 0.0000 0.0000 0.0000 0.0000 3.2878
#
#
#
# Elastic Compliance Matrix: (Units=1/GPa)
#
#
# Indices 1 2 3 4 5 6 
#
# 1 0.022216 -0.010939 0.000742 0.000000 0.000000 0.000000
# 2 -0.010939 0.022216 0.000742 0.000000 0.000000 0.000000
# 3 0.000742 0.000742 0.025914 0.000000 0.000000 0.000000
# 4 0.000000 0.000000 0.000000 0.040789 0.000000 0.000000
# 5 0.000000 0.000000 0.000000 0.000000 0.040789 0.000000
# 6 0.000000 0.000000 0.000000 0.000000 0.000000 0.304153
#
#
# Mechanical properties :
#
#
# Convention : Reuss Voigt Hill
#
# Bulk Modulus (GPa) = 19.44305 22.95350 21.19827
# Shear Modulus (GPa) = 10.15988 19.36963 14.76475
#
# Velocity S-wave (km/s) = 2.31381 3.19481 2.78931
# Velocity P-wave (km/s) = 4.16939 5.06995 4.64156
#
# Compressibility (1/GPa) = 0.05143227
#
# Stress axis : x y z
#
# Youngs Moduli (GPa) = 45.01355 45.01355 38.58958
#
# Poissons Ratio (x) = 0.49242 -0.02862
# Poissons Ratio (y) = 0.49242 -0.02862
# Poissons Ratio (z) = -0.03338 -0.03338
#
# Static dielectric constant tensor:
#      x y z
#    x 1.664920 0.000000 0.000000 
#    y 0.000000 1.664920 0.000000 
#    z 0.000000 0.000000 1.803820 
# 
# From -- ./inp_files/1362.got.cif
#   From: 2010.05.17/outbox.cif.g08.bks.cpg/sg125_1_cif.got.tgz:1362.got - 2010.05.20 11:54:10.
