data_PCOD9563429
_publ_section_title
;
Structure prediction by ZEFSAII (Michael W. Deem and Ramdas Pophale) SiO2 
 PCOD9563429
Probable space group: P 4/N N C
;
_chemical_formula_sum "Si O2"
_cell_formula_units_Z 48
_cell_length_a 19.887530
_cell_length_b 19.887530
_cell_length_c 5.103889
_cell_angle_alpha 90.000000
_cell_angle_beta 90.000000
_cell_angle_gamma 90.000000
_cell_volume 2018.658786
_symmetry_space_group_name_H-M "P 4/N N C"
_symmetry_group_IT_number 126
_space_group.IT_coordinate_system_code '2'
_symmetry_cell_setting 'tetragonal'
loop_
_space_group_symop_operation_xyz
x,y,z
1/2-y,x,z
1/2-x,1/2-y,z
y,1/2-x,z
x,1/2-y,1/2-z
1/2-x,y,1/2-z
y,x,1/2-z
1/2-y,1/2-x,1/2-z
-x,-y,-z
1/2+y,-x,-z
1/2+x,1/2+y,-z
-y,1/2+x,-z
-x,1/2+y,1/2+z
1/2+x,-y,1/2+z
-y,-x,1/2+z
1/2+y,1/2+x,1/2+z
loop_
_atom_site_type_symbol
_atom_site_label
_atom_site_fract_x
_atom_site_fract_y
_atom_site_fract_z
Si Si1 0.561944 0.675724 0.358942
Si Si2 0.464914 0.750000 0.750000
Si Si3 0.563654 0.132422 0.569407
Si Si4 0.169971 0.330030 0.250000
O O1 0.578727 0.750000 0.250000
O O2 0.511558 0.695540 0.602121
O O3 0.627680 0.646185 0.500916
O O4 0.514626 0.635218 0.158394
O O5 0.425215 0.789712 0.523163
O O6 0.595744 0.095427 0.818661
O O7 0.159883 0.250000 0.250000
#
# Coordination Sequence:
#
# PCOD9563429 Si02
#       4
#    16   8  16   8
#     4  10  22  42  69 102 148 193 246 311 383 453
#     4  10  20  42  69 101 142 188 240 302 372 450
#     4  11  22  40  72 106 138 191 246 289 369 460
#     4  11  24  44  70 104 144 192 258 320 388 459
#
# _framework density 23.778164
#
# number of rings (size 3 to 8) (size 9 to 14) (size 15 to 20)
#    0.000    1.500    5.000    0.000    0.000    1.333 
#    0.000    3.333    0.000    3.000    0.000    0.000 
#    0.000    0.000    0.000    0.000    0.000    0.000 
#
# Total GULP energy -267525.234379 kJ/mol
# GULP energy per Si atom -5573.442383 kJ/mol
# Density = 2.372404 g / cm^3
# Si number density = 23.778164 Si / 1000 Ang^3
#
#
#
# Elastic Constant Matrix: (Units=GPa)
#
#
# Indices 1 2 3 4 5 6 
#
# 1 102.3010 74.0600 73.2041 0.0000 0.0000 0.0000
# 2 74.0600 102.2994 73.2039 0.0000 0.0000 0.0000
# 3 73.2041 73.2039 235.3510 0.0000 0.0000 0.0000
# 4 0.0000 0.0000 0.0000 54.9071 0.0000 0.0000
# 5 0.0000 0.0000 0.0000 0.0000 54.9056 0.0000
# 6 0.0000 0.0000 0.0000 0.0000 0.0000 10.2722
#
#
#
# Elastic Compliance Matrix: (Units=1/GPa)
#
#
# Indices 1 2 3 4 5 6 
#
# 1 0.021527 -0.013883 -0.002378 0.000000 0.000000 0.000000
# 2 -0.013883 0.021527 -0.002378 0.000000 0.000000 0.000000
# 3 -0.002378 -0.002378 0.005728 0.000000 0.000000 0.000000
# 4 0.000000 0.000000 0.000000 0.018213 0.000000 0.000000
# 5 0.000000 0.000000 0.000000 0.000000 0.018213 0.000000
# 6 0.000000 0.000000 0.000000 0.000000 0.000000 0.097350
#
#
# Mechanical properties :
#
#
# Convention : Reuss Voigt Hill
#
# Bulk Modulus (GPa) = 86.91383 97.87636 92.39510
# Shear Modulus (GPa) = 22.35428 38.64920 30.50174
#
# Velocity S-wave (km/s) = 3.06946 4.03601 3.58545
# Velocity P-wave (km/s) = 7.01380 7.93541 7.48880
#
# Compressibility (1/GPa) = 0.01150565
#
# Stress axis : x y z
#
# Youngs Moduli (GPa) = 46.45320 46.45234 174.57972
#
# Poissons Ratio (x) = 0.64491 0.41507
# Poissons Ratio (y) = 0.64492 0.41509
# Poissons Ratio (z) = 0.11045 0.11045
#
# Static dielectric constant tensor:
#      x y z
#    x 1.975380 0.000000 0.000000 
#    y 0.000000 1.975390 0.000000 
#    z 0.000000 0.000000 2.151800 
# 
# From -- ./inp_files/300.got.cif
#   From: 2010.05.17/outbox.cif.g08.bks.cpg/sg126_1_cif.got.tgz:300.got - 2010.05.20 11:58:20.
