data_PCOD9563061
_publ_section_title
;
Structure prediction by ZEFSAII (Michael W. Deem and Ramdas Pophale) SiO2 
 PCOD9563061
Probable space group: P 4/N B M
;
_chemical_formula_sum "Si O2"
_cell_formula_units_Z 56
_cell_length_a 13.763764
_cell_length_b 13.763764
_cell_length_c 16.204312
_cell_angle_alpha 90.000000
_cell_angle_beta 90.000000
_cell_angle_gamma 90.000000
_cell_volume 3069.764302
_symmetry_space_group_name_H-M "P 4/N B M"
_symmetry_group_IT_number 125
_space_group.IT_coordinate_system_code '2'
_symmetry_cell_setting 'tetragonal'
loop_
_space_group_symop_operation_xyz
x,y,z
1/2-y,x,z
1/2-x,1/2-y,z
y,1/2-x,z
x,1/2-y,-z
1/2-x,y,-z
y,x,-z
1/2-y,1/2-x,-z
-x,-y,-z
1/2+y,-x,-z
1/2+x,1/2+y,-z
-y,1/2+x,-z
-x,1/2+y,z
1/2+x,-y,z
-y,-x,z
1/2+y,1/2+x,z
loop_
_atom_site_type_symbol
_atom_site_label
_atom_site_fract_x
_atom_site_fract_y
_atom_site_fract_z
Si Si1 0.911923 0.245488 0.091171
Si Si2 0.473796 0.130662 0.668445
Si Si3 0.505752 0.168679 0.254083
Si Si4 0.634012 0.865989 0.500000
O O1 0.857705 0.142296 0.105945
O O2 0.825139 0.325139 0.087379
O O3 0.978666 0.279526 0.166111
O O4 0.957793 0.250000 0.000000
O O5 0.490838 0.244135 0.681514
O O6 0.422102 0.102835 0.582325
O O7 0.575186 0.075186 0.673907
O O8 0.402449 0.086124 0.737884
O O9 0.600098 0.100098 0.270029
O O10 0.618943 0.750000 0.500000
#
# Coordination Sequence:
#
# PCOD9563061 Si02
#       4
#    16  16  16   8
#     4   8  14  28  52  79 110 149 187 226 273 324
#     4  11  22  37  59  83 111 146 183 231 282 329
#     4  10  21  36  55  84 114 145 189 231 274 332
#     4  11  21  38  60  80 107 147 186 224 278 334
#
# _framework density 18.242443000000002
#
# number of rings (size 3 to 8) (size 9 to 14) (size 15 to 20)
#    0.000    2.143    2.857    2.143    0.000    2.286 
#    0.000    1.429    0.000    6.857    0.000    2.000 
#    0.000    0.000    0.000    0.000    0.000    0.000 
#
# Total GULP energy -311976.636268 kJ/mol
# GULP energy per Si atom -5571.011362 kJ/mol
# Density = 1.820092 g / cm^3
# Si number density = 18.242443 Si / 1000 Ang^3
#
#
#
# Elastic Constant Matrix: (Units=GPa)
#
#
# Indices 1 2 3 4 5 6 
#
# 1 69.9699 35.3250 18.7250 0.0000 0.0000 0.0000
# 2 35.3250 69.9692 18.7253 0.0000 0.0000 0.0000
# 3 18.7250 18.7253 96.5858 0.0000 0.0000 0.0000
# 4 0.0000 0.0000 0.0000 18.7467 0.0000 0.0000
# 5 0.0000 0.0000 0.0000 0.0000 18.7467 0.0000
# 6 0.0000 0.0000 0.0000 0.0000 0.0000 12.2522
#
#
#
# Elastic Compliance Matrix: (Units=1/GPa)
#
#
# Indices 1 2 3 4 5 6 
#
# 1 0.019532 -0.009332 -0.001978 0.000000 0.000000 0.000000
# 2 -0.009332 0.019533 -0.001978 0.000000 0.000000 0.000000
# 3 -0.001978 -0.001978 0.011120 0.000000 0.000000 0.000000
# 4 0.000000 0.000000 0.000000 0.053343 0.000000 0.000000
# 5 0.000000 0.000000 0.000000 0.000000 0.053343 0.000000
# 6 0.000000 0.000000 0.000000 0.000000 0.000000 0.081618
#
#
# Mechanical properties :
#
#
# Convention : Reuss Voigt Hill
#
# Bulk Modulus (GPa) = 42.35309 42.45282 42.40296
# Shear Modulus (GPa) = 18.31948 20.86577 19.59262
#
# Velocity S-wave (km/s) = 3.17239 3.38569 3.28077
# Velocity P-wave (km/s) = 6.05689 6.21336 6.13562
#
# Compressibility (1/GPa) = 0.02361103
#
# Stress axis : x y z
#
# Youngs Moduli (GPa) = 51.19695 51.19629 89.92582
#
# Poissons Ratio (x) = 0.47776 0.17783
# Poissons Ratio (y) = 0.47777 0.17784
# Poissons Ratio (z) = 0.10124 0.10125
#
# Static dielectric constant tensor:
#      x y z
#    x 1.610500 0.000000 0.000000 
#    y 0.000000 1.610500 0.000000 
#    z 0.000000 0.000000 1.682290 
# 
# From -- ./inp_files/4553.got.cif
#   From: 2010.05.17/outbox.cif.g08.bks.cpg/sg125_3_cif.got.tgz:4553.got - 2010.05.20 11:54:10.
