data_PCOD9563357
_publ_section_title
;
Structure prediction by ZEFSAII (Michael W. Deem and Ramdas Pophale) SiO2 
 PCOD9563357
Probable space group: P 4/N N C
;
_chemical_formula_sum "Si O2"
_cell_formula_units_Z 80
_cell_length_a 29.159676
_cell_length_b 29.159676
_cell_length_c 5.236667
_cell_angle_alpha 90.000000
_cell_angle_beta 90.000000
_cell_angle_gamma 90.000000
_cell_volume 4452.668326
_symmetry_space_group_name_H-M "P 4/N N C"
_symmetry_group_IT_number 126
_space_group.IT_coordinate_system_code '2'
_symmetry_cell_setting 'tetragonal'
loop_
_space_group_symop_operation_xyz
x,y,z
1/2-y,x,z
1/2-x,1/2-y,z
y,1/2-x,z
x,1/2-y,1/2-z
1/2-x,y,1/2-z
y,x,1/2-z
1/2-y,1/2-x,1/2-z
-x,-y,-z
1/2+y,-x,-z
1/2+x,1/2+y,-z
-y,1/2+x,-z
-x,1/2+y,1/2+z
1/2+x,-y,1/2+z
-y,-x,1/2+z
1/2+y,1/2+x,1/2+z
loop_
_atom_site_type_symbol
_atom_site_label
_atom_site_fract_x
_atom_site_fract_y
_atom_site_fract_z
Si Si1 0.150681 0.349320 0.250000
Si Si2 0.413685 0.875173 0.308462
Si Si3 0.697891 0.944171 0.775372
Si Si4 0.994339 0.197345 0.725232
Si Si5 0.165515 0.701230 0.327002
Si Si6 0.804587 0.804587 0.250000
O O1 0.162602 0.402925 0.254397
O O2 0.172775 0.326336 0.499961
O O3 0.408884 0.903024 0.572008
O O4 0.458130 0.843462 0.266857
O O5 0.373002 0.837613 0.320691
O O6 0.750000 0.925396 0.750000
O O7 0.693025 0.981723 0.550808
O O8 0.693828 0.968073 0.050200
O O9 0.975389 0.250000 0.750000
O O10 0.145426 0.750000 0.250000
O O11 0.187904 0.700956 0.604447
O O12 0.750000 0.812600 0.250000
#
# Coordination Sequence:
#
# PCOD9563357 Si02
#       6
#     8  16  16  16  16   8
#     4  12  22  37  56  80 116 149 186 237 264 307
#     4  10  20  34  53  77 101 130 169 216 272 326
#     4  10  21  35  55  82 109 145 184 220 270 318
#     4  10  20  36  56  80 110 140 178 226 275 327
#     4  10  20  31  44  64  92 127 165 201 244 300
#     4  11  22  34  52  78 112 157 194 219 256 303
#
# _framework density 17.966756
#
# number of rings (size 3 to 8) (size 9 to 14) (size 15 to 20)
#    0.000    1.700    0.000    5.400    0.000    3.600 
#    0.000    6.000    0.000    0.000    0.000   14.000 
#    0.000    0.000    0.000    0.000    0.000    0.000 
#
# Total GULP energy -446550.306321 kJ/mol
# GULP energy per Si atom -5581.878829 kJ/mol
# Density = 1.792586 g / cm^3
# Si number density = 17.966756 Si / 1000 Ang^3
#
#
#
# Elastic Constant Matrix: (Units=GPa)
#
#
# Indices 1 2 3 4 5 6 
#
# 1 44.0616 22.0198 -3.7368 0.0000 0.0000 0.0000
# 2 22.0198 44.0634 -3.7370 0.0000 0.0000 0.0000
# 3 -3.7368 -3.7370 79.2573 0.0000 0.0000 0.0000
# 4 0.0000 0.0000 0.0000 19.4854 0.0000 0.0000
# 5 0.0000 0.0000 0.0000 0.0000 19.4852 0.0000
# 6 0.0000 0.0000 0.0000 0.0000 0.0000 28.5811
#
#
#
# Elastic Compliance Matrix: (Units=1/GPa)
#
#
# Indices 1 2 3 4 5 6 
#
# 1 0.030291 -0.015076 0.000717 0.000000 0.000000 0.000000
# 2 -0.015076 0.030290 0.000717 0.000000 0.000000 0.000000
# 3 0.000717 0.000717 0.012685 0.000000 0.000000 0.000000
# 4 0.000000 0.000000 0.000000 0.051321 0.000000 0.000000
# 5 0.000000 0.000000 0.000000 0.000000 0.051321 0.000000
# 6 0.000000 0.000000 0.000000 0.000000 0.000000 0.034988
#
#
# Mechanical properties :
#
#
# Convention : Reuss Voigt Hill
#
# Bulk Modulus (GPa) = 21.74786 21.83049 21.78918
# Shear Modulus (GPa) = 19.72344 23.69942 21.71143
#
# Velocity S-wave (km/s) = 3.31686 3.63584 3.48001
# Velocity P-wave (km/s) = 5.17683 5.45918 5.31988
#
# Compressibility (1/GPa) = 0.04598154
#
# Stress axis : x y z
#
# Youngs Moduli (GPa) = 33.01338 33.01471 78.83466
#
# Poissons Ratio (x) = 0.49774 -0.05655
# Poissons Ratio (y) = 0.49772 -0.05655
# Poissons Ratio (z) = -0.02368 -0.02368
#
# Static dielectric constant tensor:
#      x y z
#    x 1.602740 0.000000 0.000000 
#    y 0.000000 1.602730 0.000000 
#    z 0.000000 0.000000 1.595250 
# 
# From -- ./inp_files/614.got.cif
#   From: 2010.05.17/outbox.cif.g08.bks.cpg/sg126_1_cif.got.tgz:614.got - 2010.05.20 11:58:20.
