data_PCOD9563682
_publ_section_title
;
Structure prediction by ZEFSAII (Michael W. Deem and Ramdas Pophale) SiO2 
 PCOD9563682
Probable space group: P 4/N N C
;
_chemical_formula_sum "Si O2"
_cell_formula_units_Z 32
_cell_length_a 12.456208
_cell_length_b 12.456208
_cell_length_c 7.847758
_cell_angle_alpha 90.000000
_cell_angle_beta 90.000000
_cell_angle_gamma 90.000000
_cell_volume 1217.635512
_symmetry_space_group_name_H-M "P 4/N N C"
_symmetry_group_IT_number 126
_space_group.IT_coordinate_system_code '2'
_symmetry_cell_setting 'tetragonal'
loop_
_space_group_symop_operation_xyz
x,y,z
1/2-y,x,z
1/2-x,1/2-y,z
y,1/2-x,z
x,1/2-y,1/2-z
1/2-x,y,1/2-z
y,x,1/2-z
1/2-y,1/2-x,1/2-z
-x,-y,-z
1/2+y,-x,-z
1/2+x,1/2+y,-z
-y,1/2+x,-z
-x,1/2+y,1/2+z
1/2+x,-y,1/2+z
-y,-x,1/2+z
1/2+y,1/2+x,1/2+z
loop_
_atom_site_type_symbol
_atom_site_label
_atom_site_fract_x
_atom_site_fract_y
_atom_site_fract_z
Si Si1 0.110220 0.355743 0.452347
Si Si2 0.104922 0.688157 0.426548
O O1 0.108184 0.228701 0.504562
O O2 0.118119 0.381881 0.250000
O O3 0.996061 0.386188 0.530940
O O4 0.093861 0.750000 0.250000
O O5 0.121977 0.784520 0.562873
#
# Coordination Sequence:
#
# PCOD9563682 Si02
#       2
#    16  16
#     4   9  21  42  69  97 134 181 223 284 344 409
#     4  11  25  43  68 100 142 184 232 287 342 408
#
# _framework density 26.280442000000001
#
# number of rings (size 3 to 8) (size 9 to 14) (size 15 to 20)
#    0.000    2.000    0.000    4.500   14.000    4.000 
#    0.000    2.500    0.000    0.000    0.000    0.000 
#    0.000    0.000    0.000    0.000    0.000    0.000 
#
# Total GULP energy -178689.268079 kJ/mol
# GULP energy per Si atom -5584.039627 kJ/mol
# Density = 2.622063 g / cm^3
# Si number density = 26.280442 Si / 1000 Ang^3
#
#
#
# Elastic Constant Matrix: (Units=GPa)
#
#
# Indices 1 2 3 4 5 6 
#
# 1 181.1361 -1.3603 43.8682 0.0000 0.0000 0.0000
# 2 -1.3603 181.1361 43.8682 0.0000 0.0000 0.0000
# 3 43.8682 43.8682 128.8837 0.0000 0.0000 0.0000
# 4 0.0000 0.0000 0.0000 8.1084 0.0000 0.0000
# 5 0.0000 0.0000 0.0000 0.0000 8.1084 0.0000
# 6 0.0000 0.0000 0.0000 0.0000 0.0000 -25.2774
#
#
#
# Elastic Compliance Matrix: (Units=1/GPa)
#
#
# Indices 1 2 3 4 5 6 
#
# 1 0.006075 0.000595 -0.002270 0.000000 0.000000 0.000000
# 2 0.000595 0.006075 -0.002270 0.000000 0.000000 0.000000
# 3 -0.002270 -0.002270 0.009305 0.000000 0.000000 0.000000
# 4 0.000000 0.000000 0.000000 0.123329 0.000000 0.000000
# 5 0.000000 0.000000 0.000000 0.000000 0.123329 0.000000
# 6 0.000000 0.000000 0.000000 0.000000 0.000000 -0.039561
#
#
# Mechanical properties :
#
#
# Convention : Reuss Voigt Hill
#
# Bulk Modulus (GPa) = 73.72575 73.76758 73.74666
# Shear Modulus (GPa) = 20.75004 25.17320 22.96162
#
# Velocity S-wave (km/s) = 2.81296 3.09830 2.95907
# Velocity P-wave (km/s) = 6.21810 6.39763 6.30850
#
# Compressibility (1/GPa) = 0.01356378
#
# Stress axis : x y z
#
# Youngs Moduli (GPa) = 164.60769 164.60769 107.47463
#
# Poissons Ratio (x) = -0.09802 0.24402
# Poissons Ratio (y) = -0.09802 0.24402
# Poissons Ratio (z) = 0.37373 0.37373
#
# Static dielectric constant tensor:
#      x y z
#    x 2.079900 0.000000 0.000000 
#    y 0.000000 2.079900 0.000000 
#    z 0.000000 0.000000 2.036070 
# 
# From -- ./inp_files/795.got.cif
#   From: 2010.05.17/outbox.cif.g08.bks.cpg/sg126_1_cif.got.tgz:795.got - 2010.05.20 11:58:20.
