data_PCOD9563917
_publ_section_title
;
Structure prediction by ZEFSAII (Michael W. Deem and Ramdas Pophale) SiO2 
 PCOD9563917
Probable space group: P 4/M B M
;
_chemical_formula_sum "Si O2"
_cell_formula_units_Z 56
_cell_length_a 17.007580
_cell_length_b 17.007580
_cell_length_c 10.607682
_cell_angle_alpha 90.000000
_cell_angle_beta 90.000000
_cell_angle_gamma 90.000000
_cell_volume 3068.354519
_symmetry_space_group_name_H-M "P 4/M B M"
_symmetry_group_IT_number 127
_symmetry_cell_setting 'tetragonal'
loop_
_space_group_symop_operation_xyz
x,y,z
-y,x,z
-x,-y,z
y,-x,z
1/2+x,1/2-y,-z
1/2-x,1/2+y,-z
1/2+y,1/2+x,-z
1/2-y,1/2-x,-z
-x,-y,-z
y,-x,-z
x,y,-z
-y,x,-z
1/2-x,1/2+y,z
1/2+x,1/2-y,z
1/2-y,1/2-x,z
1/2+y,1/2+x,z
loop_
_atom_site_type_symbol
_atom_site_label
_atom_site_fract_x
_atom_site_fract_y
_atom_site_fract_z
Si Si1 0.994468 0.371970 0.000000
Si Si2 0.431428 0.798462 0.242597
Si Si3 0.189873 0.175500 0.144797
Si Si4 0.910957 0.280049 0.359610
O O1 0.015949 0.324545 0.876608
O O2 0.055882 0.444119 0.000000
O O3 0.907334 0.407334 0.000000
O O4 0.365720 0.865720 0.265586
O O5 0.385979 0.719966 0.201127
O O6 0.495699 0.791904 0.351058
O O7 0.256820 0.243181 0.138222
O O8 0.221596 0.114430 0.247696
O O9 0.178022 0.147568 0.000000
O O10 0.889468 0.250858 0.500000
O O11 0.861085 0.361085 0.341653
#
# Coordination Sequence:
#
# PCOD9563917 Si02
#       4
#     8  16  16  16
#     4   9  16  26  44  76 112 137 163 209 264 315
#     4  10  19  33  54  80 109 143 183 224 273 332
#     4   9  18  34  55  77 104 141 187 231 269 322
#     4  10  22  36  51  78 114 149 184 223 273 329
#
# _framework density 18.250824999999999
#
# number of rings (size 3 to 8) (size 9 to 14) (size 15 to 20)
#    0.000    2.429    1.429    0.857    2.000    3.429 
#    0.000    4.286    0.000    0.857    0.000    4.000 
#    0.000    0.000    0.000    0.000    0.000    0.000 
#
# Total GULP energy -312047.369214 kJ/mol
# GULP energy per Si atom -5572.274450 kJ/mol
# Density = 1.820928 g / cm^3
# Si number density = 18.250825 Si / 1000 Ang^3
#
#
#
# Elastic Constant Matrix: (Units=GPa)
#
#
# Indices 1 2 3 4 5 6 
#
# 1 62.3517 44.0530 48.1413 0.0000 0.0000 0.0000
# 2 44.0530 62.3515 48.1413 0.0000 0.0000 0.0000
# 3 48.1413 48.1413 118.4486 0.0000 0.0000 0.0000
# 4 0.0000 0.0000 0.0000 -71.7694 0.0000 0.0000
# 5 0.0000 0.0000 0.0000 0.0000 -71.9915 0.0000
# 6 0.0000 0.0000 0.0000 0.0000 0.0000 28.1252
#
#
#
# Elastic Compliance Matrix: (Units=1/GPa)
#
#
# Indices 1 2 3 4 5 6 
#
# 1 0.034757 -0.019892 -0.006042 0.000000 0.000000 0.000000
# 2 -0.019892 0.034757 -0.006042 0.000000 0.000000 0.000000
# 3 -0.006042 -0.006042 0.013353 0.000000 0.000000 0.000000
# 4 0.000000 0.000000 0.000000 -0.013934 0.000000 0.000000
# 5 0.000000 0.000000 0.000000 0.000000 -0.013891 0.000000
# 6 0.000000 0.000000 0.000000 0.000000 0.000000 0.035555
#
#
# Mechanical properties :
#
#
# Convention : Reuss Voigt Hill
#
# Bulk Modulus (GPa) = 52.86244 58.20256 55.53250
# Shear Modulus (GPa) = 31.08399 -16.27274 7.40562
#
# Velocity S-wave (km/s) = 4.13141 -2.98923 2.01656
# Velocity P-wave (km/s) = 7.19620 4.47723 5.99295
#
# Compressibility (1/GPa) = 0.01891702
#
# Stress axis : x y z
#
# Youngs Moduli (GPa) = 28.77131 28.77120 74.88679
#
# Poissons Ratio (x) = 0.57231 0.45243
# Poissons Ratio (y) = 0.57232 0.45244
# Poissons Ratio (z) = 0.17382 0.17383
#
# Static dielectric constant tensor:
#      x y z
#    x 1.626670 0.000000 0.000000 
#    y 0.000000 1.626670 0.000000 
#    z 0.000000 0.000000 1.673880 
# 
# From -- ./inp_files/1073.got.cif
#   From: 2010.05.17/outbox.cif.g08.bks.cpg/sg127_1_cif.got.tgz:1073.got - 2010.05.20 12:03:00.
