data_PCOD9563421
_publ_section_title
;
Structure prediction by ZEFSAII (Michael W. Deem and Ramdas Pophale) SiO2 
 PCOD9563421
Probable space group: P 4/N N C
;
_chemical_formula_sum "Si O2"
_cell_formula_units_Z 112
_cell_length_a 14.123040
_cell_length_b 14.123040
_cell_length_c 22.655781
_cell_angle_alpha 90.000000
_cell_angle_beta 90.000000
_cell_angle_gamma 90.000000
_cell_volume 4518.927943
_symmetry_space_group_name_H-M "P 4/N N C"
_symmetry_group_IT_number 126
_space_group.IT_coordinate_system_code '2'
_symmetry_cell_setting 'tetragonal'
loop_
_space_group_symop_operation_xyz
x,y,z
1/2-y,x,z
1/2-x,1/2-y,z
y,1/2-x,z
x,1/2-y,1/2-z
1/2-x,y,1/2-z
y,x,1/2-z
1/2-y,1/2-x,1/2-z
-x,-y,-z
1/2+y,-x,-z
1/2+x,1/2+y,-z
-y,1/2+x,-z
-x,1/2+y,1/2+z
1/2+x,-y,1/2+z
-y,-x,1/2+z
1/2+y,1/2+x,1/2+z
loop_
_atom_site_type_symbol
_atom_site_label
_atom_site_fract_x
_atom_site_fract_y
_atom_site_fract_z
Si Si1 0.288828 0.478208 0.100058
Si Si2 0.086818 0.570867 0.987381
Si Si3 0.398898 0.244550 0.821336
Si Si4 0.989527 0.551571 0.817901
Si Si5 0.786139 0.396530 0.182740
Si Si6 0.213209 0.100390 0.515683
Si Si7 0.890677 0.124860 0.121431
O O1 0.351033 0.548590 0.057715
O O2 0.365650 0.437671 0.145346
O O3 0.212492 0.539313 0.134623
O O4 0.230141 0.412186 0.055015
O O5 0.171029 0.501117 0.965759
O O6 0.112894 0.613170 0.050888
O O7 0.000000 0.500000 0.000000
O O8 0.343488 0.337423 0.839691
O O9 0.400707 0.250000 0.750000
O O10 0.503330 0.246635 0.841483
O O11 0.100887 0.585485 0.818449
O O12 0.960442 0.539559 0.750000
O O13 0.962671 0.451647 0.849601
O O14 0.750000 0.382980 0.250000
O O15 0.710309 0.339206 0.144937
O O16 0.317060 0.138975 0.532642
#
# Coordination Sequence:
#
# PCOD9563421 Si02
#       7
#    16  16  16  16  16  16  16
#     4  11  24  46  73 106 153 205 256 322 398 473
#     4  11  21  44  75 109 153 193 247 312 397 470
#     4   8  14  25  49  82 118 168 228 285 350 423
#     4  12  25  45  73 106 149 204 265 325 388 471
#     4  11  22  39  64  97 146 197 251 310 381 457
#     4  10  20  39  74 113 148 190 247 317 394 472
#     4  11  25  45  72 110 148 200 256 318 393 478
#
# _framework density 24.784638999999999
#
# number of rings (size 3 to 8) (size 9 to 14) (size 15 to 20)
#    0.000    1.429    4.286    2.143    2.000    3.429 
#    0.000    3.571    0.000    0.000    0.000    2.000 
#    0.000    0.000    0.000    0.000    0.000    0.000 
#
# Total GULP energy -625282.090794 kJ/mol
# GULP energy per Si atom -5582.875811 kJ/mol
# Density = 2.472823 g / cm^3
# Si number density = 24.784639 Si / 1000 Ang^3
#
#
#
# Elastic Constant Matrix: (Units=GPa)
#
#
# Indices 1 2 3 4 5 6 
#
# 1 162.8486 -46.8866 33.7215 0.0000 0.0000 0.0000
# 2 -46.8866 162.8480 33.7212 0.0000 0.0000 0.0000
# 3 33.7215 33.7212 139.6872 0.0000 0.0000 0.0000
# 4 0.0000 0.0000 0.0000 22.2408 0.0000 0.0000
# 5 0.0000 0.0000 0.0000 0.0000 22.2410 0.0000
# 6 0.0000 0.0000 0.0000 0.0000 0.0000 34.9932
#
#
#
# Elastic Compliance Matrix: (Units=1/GPa)
#
#
# Indices 1 2 3 4 5 6 
#
# 1 0.007400 0.002632 -0.002422 0.000000 0.000000 0.000000
# 2 0.002632 0.007400 -0.002422 0.000000 0.000000 0.000000
# 3 -0.002422 -0.002422 0.008328 0.000000 0.000000 0.000000
# 4 0.000000 0.000000 0.000000 0.044962 0.000000 0.000000
# 5 0.000000 0.000000 0.000000 0.000000 0.044962 0.000000
# 6 0.000000 0.000000 0.000000 0.000000 0.000000 0.028577
#
#
# Mechanical properties :
#
#
# Convention : Reuss Voigt Hill
#
# Bulk Modulus (GPa) = 53.46156 56.27732 54.86944
# Shear Modulus (GPa) = 32.83263 45.55018 39.19141
#
# Velocity S-wave (km/s) = 3.64361 4.29165 3.98084
# Velocity P-wave (km/s) = 6.27045 6.87848 6.58149
#
# Compressibility (1/GPa) = 0.01870503
#
# Stress axis : x y z
#
# Youngs Moduli (GPa) = 135.13562 135.13527 120.07509
#
# Poissons Ratio (x) = -0.35568 0.29080
# Poissons Ratio (y) = -0.35568 0.29080
# Poissons Ratio (z) = 0.32727 0.32727
#
# Static dielectric constant tensor:
#      x y z
#    x 2.060170 0.000000 0.000000 
#    y 0.000000 2.060170 0.000000 
#    z 0.000000 0.000000 2.023150 
# 
# From -- ./inp_files/5816.got.cif
#   From: 2010.05.17/outbox.cif.g08.bks.cpg/sg126_3_cif.got.tgz:5816.got - 2010.05.20 11:58:20.
