data_PCOD9563388
_publ_section_title
;
Structure prediction by ZEFSAII (Michael W. Deem and Ramdas Pophale) SiO2 
 PCOD9563388
Probable space group: P 4/N N C
;
_chemical_formula_sum "Si O2"
_cell_formula_units_Z 64
_cell_length_a 12.271753
_cell_length_b 12.271753
_cell_length_c 21.623927
_cell_angle_alpha 90.000000
_cell_angle_beta 90.000000
_cell_angle_gamma 90.000000
_cell_volume 3256.475217
_symmetry_space_group_name_H-M "P 4/N N C"
_symmetry_group_IT_number 126
_space_group.IT_coordinate_system_code '2'
_symmetry_cell_setting 'tetragonal'
loop_
_space_group_symop_operation_xyz
x,y,z
1/2-y,x,z
1/2-x,1/2-y,z
y,1/2-x,z
x,1/2-y,1/2-z
1/2-x,y,1/2-z
y,x,1/2-z
1/2-y,1/2-x,1/2-z
-x,-y,-z
1/2+y,-x,-z
1/2+x,1/2+y,-z
-y,1/2+x,-z
-x,1/2+y,1/2+z
1/2+x,-y,1/2+z
-y,-x,1/2+z
1/2+y,1/2+x,1/2+z
loop_
_atom_site_type_symbol
_atom_site_label
_atom_site_fract_x
_atom_site_fract_y
_atom_site_fract_z
Si Si1 0.960646 0.990893 0.900836
Si Si2 0.104431 0.959243 0.788162
Si Si3 0.386732 0.134421 0.982593
Si Si4 0.686819 0.136938 0.168853
O O1 0.010244 0.938972 0.838349
O O2 0.890805 0.097078 0.881860
O O3 0.893067 0.914527 0.946183
O O4 0.063704 0.034225 0.939895
O O5 0.219702 0.956079 0.823702
O O6 0.123685 0.870436 0.734483
O O7 0.066561 0.066561 0.750000
O O8 0.398239 0.262161 0.970662
O O9 0.750000 0.250000 0.158906
#
# Coordination Sequence:
#
# PCOD9563388 Si02
#       4
#    16  16  16  16
#     4  10  21  37  62  85 119 160 199 251 300 360
#     4   9  18  33  54  84 117 149 187 241 302 362
#     4  10  22  40  58  83 120 161 205 247 297 356
#     4  10  20  35  59  89 120 153 199 250 305 365
#
# _framework density 19.65315
#
# number of rings (size 3 to 8) (size 9 to 14) (size 15 to 20)
#    0.000    2.250    0.000    3.000    3.500    0.000 
#    0.000    0.000    0.000   60.000    0.000   12.250 
#    0.000    0.000    0.000    0.000    0.000    0.000 
#
# Total GULP energy -356634.236197 kJ/mol
# GULP energy per Si atom -5572.409941 kJ/mol
# Density = 1.960842 g / cm^3
# Si number density = 19.653150 Si / 1000 Ang^3
#
#
#
# Elastic Constant Matrix: (Units=GPa)
#
#
# Indices 1 2 3 4 5 6 
#
# 1 45.9377 25.4984 2.9854 0.0000 0.0000 0.0000
# 2 25.4984 45.9377 2.9854 0.0000 0.0000 0.0000
# 3 2.9854 2.9854 58.5287 0.0000 0.0000 0.0000
# 4 0.0000 0.0000 0.0000 32.3312 0.0000 0.0000
# 5 0.0000 0.0000 0.0000 0.0000 32.3312 0.0000
# 6 0.0000 0.0000 0.0000 0.0000 0.0000 29.6818
#
#
#
# Elastic Compliance Matrix: (Units=1/GPa)
#
#
# Indices 1 2 3 4 5 6 
#
# 1 0.031492 -0.017433 -0.000717 0.000000 0.000000 0.000000
# 2 -0.017433 0.031492 -0.000717 0.000000 0.000000 0.000000
# 3 -0.000717 -0.000717 0.017159 0.000000 0.000000 0.000000
# 4 0.000000 0.000000 0.000000 0.030930 0.000000 0.000000
# 5 0.000000 0.000000 0.000000 0.000000 0.030930 0.000000
# 6 0.000000 0.000000 0.000000 0.000000 0.000000 0.033691
#
#
# Mechanical properties :
#
#
# Convention : Reuss Voigt Hill
#
# Bulk Modulus (GPa) = 23.58081 23.70472 23.64277
# Shear Modulus (GPa) = 21.97183 26.79785 24.38484
#
# Velocity S-wave (km/s) = 3.34725 3.69662 3.52626
# Velocity P-wave (km/s) = 5.19262 5.50525 5.35122
#
# Compressibility (1/GPa) = 0.04240737
#
# Stress axis : x y z
#
# Youngs Moduli (GPa) = 31.75415 31.75415 58.27920
#
# Poissons Ratio (x) = 0.55359 0.04179
# Poissons Ratio (y) = 0.55359 0.04179
# Poissons Ratio (z) = 0.02277 0.02277
#
# Static dielectric constant tensor:
#      x y z
#    x 1.700550 0.000000 0.000000 
#    y 0.000000 1.700550 0.000000 
#    z 0.000000 0.000000 1.734040 
# 
# From -- ./inp_files/4932.got.cif
#   From: 2010.05.17/outbox.cif.g08.bks.cpg/sg126_3_cif.got.tgz:4932.got - 2010.05.20 11:58:20.
