data_PCOD9563375
_publ_section_title
;
Structure prediction by ZEFSAII (Michael W. Deem and Ramdas Pophale) SiO2 
 PCOD9563375
Probable space group: P 4/N N C
;
_chemical_formula_sum "Si O2"
_cell_formula_units_Z 112
_cell_length_a 16.253819
_cell_length_b 16.253819
_cell_length_c 23.711630
_cell_angle_alpha 90.000000
_cell_angle_beta 90.000000
_cell_angle_gamma 90.000000
_cell_volume 6264.295671
_symmetry_space_group_name_H-M "P 4/N N C"
_symmetry_group_IT_number 126
_space_group.IT_coordinate_system_code '2'
_symmetry_cell_setting 'tetragonal'
loop_
_space_group_symop_operation_xyz
x,y,z
1/2-y,x,z
1/2-x,1/2-y,z
y,1/2-x,z
x,1/2-y,1/2-z
1/2-x,y,1/2-z
y,x,1/2-z
1/2-y,1/2-x,1/2-z
-x,-y,-z
1/2+y,-x,-z
1/2+x,1/2+y,-z
-y,1/2+x,-z
-x,1/2+y,1/2+z
1/2+x,-y,1/2+z
-y,-x,1/2+z
1/2+y,1/2+x,1/2+z
loop_
_atom_site_type_symbol
_atom_site_label
_atom_site_fract_x
_atom_site_fract_y
_atom_site_fract_z
Si Si1 0.304384 0.645806 0.531017
Si Si2 0.481144 0.588365 0.974916
Si Si3 0.700235 0.433283 0.809378
Si Si4 0.322334 0.137316 0.074539
Si Si5 0.844305 0.263038 0.662355
Si Si6 0.415654 0.622972 0.853581
Si Si7 0.095033 0.405525 0.186592
O O1 0.225878 0.645668 0.489569
O O2 0.358907 0.566790 0.520961
O O3 0.276388 0.653763 0.595076
O O4 0.565643 0.631588 0.957735
O O5 0.426846 0.589998 0.917240
O O6 0.500000 0.500000 0.000000
O O7 0.750000 0.442062 0.750000
O O8 0.641703 0.352481 0.810138
O O9 0.776833 0.424331 0.852981
O O10 0.644020 0.510939 0.824554
O O11 0.359714 0.226275 0.061710
O O12 0.337926 0.120218 0.140709
O O13 0.750000 0.250000 0.680718
O O14 0.891059 0.176289 0.671149
O O15 0.494813 0.588579 0.819409
O O16 0.117392 0.382609 0.250000
#
# Coordination Sequence:
#
# PCOD9563375 Si02
#       7
#    16  16  16  16  16  16  16
#     4  11  19  35  58  84 111 145 186 235 294 348
#     4  11  24  36  58  83 111 149 189 239 290 345
#     4  11  22  37  59  84 115 153 189 235 296 339
#     4  10  24  40  56  77 110 152 193 237 279 338
#     4  10  20  34  56  82 112 147 184 233 283 354
#     4  10  21  38  51  81 116 142 191 230 278 351
#     4  11  21  36  55  80 111 149 186 233 276 335
#
# _framework density 17.879104000000002
#
# number of rings (size 3 to 8) (size 9 to 14) (size 15 to 20)
#    0.000    1.429    4.286    2.571    6.000    2.571 
#    0.000    0.714    0.000    0.000    0.000    0.000 
#    0.000    0.571    0.000    1.286    0.000    0.000 
#
# Total GULP energy -624714.988534 kJ/mol
# GULP energy per Si atom -5577.812398 kJ/mol
# Density = 1.783841 g / cm^3
# Si number density = 17.879104 Si / 1000 Ang^3
#
#
#
# Elastic Constant Matrix: (Units=GPa)
#
#
# Indices 1 2 3 4 5 6 
#
# 1 55.5197 76.4481 7.9726 0.0000 0.0000 0.0000
# 2 76.4481 55.5181 7.9727 0.0000 0.0000 0.0000
# 3 7.9726 7.9727 45.8349 0.0000 0.0000 0.0000
# 4 0.0000 0.0000 0.0000 18.3370 0.0000 0.0000
# 5 0.0000 0.0000 0.0000 0.0000 18.3370 0.0000
# 6 0.0000 0.0000 0.0000 0.0000 0.0000 -17.1584
#
#
#
# Elastic Compliance Matrix: (Units=1/GPa)
#
#
# Indices 1 2 3 4 5 6 
#
# 1 -0.020020 0.027760 -0.001347 0.000000 0.000000 0.000000
# 2 0.027760 -0.020020 -0.001346 0.000000 0.000000 0.000000
# 3 -0.001347 -0.001346 0.022286 0.000000 0.000000 0.000000
# 4 0.000000 0.000000 0.000000 0.054534 0.000000 0.000000
# 5 0.000000 0.000000 0.000000 0.000000 0.054534 0.000000
# 6 0.000000 0.000000 0.000000 0.000000 0.000000 -0.058280
#
#
# Mechanical properties :
#
#
# Convention : Reuss Voigt Hill
#
# Bulk Modulus (GPa) = 30.88232 37.96216 34.42224
# Shear Modulus (GPa) = -792.76248 8.20176 -392.28036
#
# Velocity S-wave (km/s) = -21.07995 2.14413 -14.82847
# Velocity P-wave (km/s) = 23.98281 5.23532 16.54942
#
# Compressibility (1/GPa) = 0.03238099
#
# Stress axis : x y z
#
# Youngs Moduli (GPa) = -49.95094 -49.94939 44.87159
#
# Poissons Ratio (x) = 1.38661 0.06042
# Poissons Ratio (y) = 1.38665 0.06041
# Poissons Ratio (z) = -0.06726 -0.06724
#
# Static dielectric constant tensor:
#      x y z
#    x 1.641740 0.000000 0.000000 
#    y 0.000000 1.641740 0.000000 
#    z 0.000000 0.000000 1.647140 
# 
# From -- ./inp_files/6210.got.cif
#   From: 2010.05.17/outbox.cif.g08.bks.cpg/sg126_4_cif.got.tgz:6210.got - 2010.05.20 11:58:20.
