data_PCOD9563889
_publ_section_title
;
Structure prediction by ZEFSAII (Michael W. Deem and Ramdas Pophale) SiO2 
 PCOD9563889
Probable space group: P 4/M B M
;
_chemical_formula_sum "Si O2"
_cell_formula_units_Z 72
_cell_length_a 20.934834
_cell_length_b 20.934834
_cell_length_c 7.293532
_cell_angle_alpha 90.000000
_cell_angle_beta 90.000000
_cell_angle_gamma 90.000000
_cell_volume 3196.516392
_symmetry_space_group_name_H-M "P 4/M B M"
_symmetry_group_IT_number 127
_symmetry_cell_setting 'tetragonal'
loop_
_space_group_symop_operation_xyz
x,y,z
-y,x,z
-x,-y,z
y,-x,z
1/2+x,1/2-y,-z
1/2-x,1/2+y,-z
1/2+y,1/2+x,-z
1/2-y,1/2-x,-z
-x,-y,-z
y,-x,-z
x,y,-z
-y,x,-z
1/2-x,1/2+y,z
1/2+x,1/2-y,z
1/2-y,1/2-x,z
1/2+y,1/2+x,z
loop_
_atom_site_type_symbol
_atom_site_label
_atom_site_fract_x
_atom_site_fract_y
_atom_site_fract_z
Si Si1 0.760913 0.739088 0.276708
Si Si2 0.488018 0.186723 0.710837
Si Si3 0.915531 0.056778 0.722784
Si Si4 0.279242 0.401716 0.275715
Si Si5 0.155339 0.655339 0.724493
Si Si6 0.947871 0.552130 0.220085
O O1 0.759869 0.740132 0.500000
O O2 0.745865 0.667100 0.218044
O O3 0.708100 0.791901 0.221448
O O4 0.476916 0.205910 0.500000
O O5 0.536624 0.239318 0.788732
O O6 0.416769 0.173798 0.786122
O O7 0.527855 0.120771 0.715393
O O8 0.916086 0.057294 0.500000
O O9 0.852445 0.092193 0.781105
O O10 0.982887 0.085712 0.780603
O O11 0.276176 0.402600 0.500000
O O12 0.153530 0.653530 0.500000
O O13 0.000000 0.500000 0.278140
O O14 0.946107 0.553894 0.000000
#
# Coordination Sequence:
#
# PCOD9563889 Si02
#       6
#     8  16  16  16   8   8
#     4   9  17  27  36  58  94 127 157 197 243 290
#     4  10  19  32  50  74  97 128 165 202 240 287
#     4   8  14  23  35  55  87 127 163 194 234 285
#     4   9  17  26  42  63  93 129 161 196 240 290
#     4   9  18  28  43  66  96 128 162 200 245 289
#     4  11  22  35  51  71  97 128 161 200 243 285
#
# _framework density 22.524522999999999
#
# number of rings (size 3 to 8) (size 9 to 14) (size 15 to 20)
#    0.000    2.778    1.111    1.667    3.111    2.222 
#    0.000    0.000    0.000    0.000    0.000    6.222 
#    0.000    0.000    0.000    2.444    0.000    2.222 
#
# Total GULP energy -402102.948050 kJ/mol
# GULP energy per Si atom -5584.763167 kJ/mol
# Density = 2.247326 g / cm^3
# Si number density = 22.524523 Si / 1000 Ang^3
#
#
#
# Elastic Constant Matrix: (Units=GPa)
#
#
# Indices 1 2 3 4 5 6 
#
# 1 94.5275 134.2470 4.2704 0.0000 0.0000 0.0000
# 2 134.2470 94.5282 4.2705 0.0000 0.0000 0.0000
# 3 4.2704 4.2705 94.1571 0.0000 0.0000 0.0000
# 4 0.0000 0.0000 0.0000 -31.8118 0.0000 0.0000
# 5 0.0000 0.0000 0.0000 0.0000 -31.8111 0.0000
# 6 0.0000 0.0000 0.0000 0.0000 0.0000 38.0695
#
#
#
# Elastic Compliance Matrix: (Units=1/GPa)
#
#
# Indices 1 2 3 4 5 6 
#
# 1 -0.010399 0.014778 -0.000199 0.000000 0.000000 0.000000
# 2 0.014778 -0.010399 -0.000199 0.000000 0.000000 0.000000
# 3 -0.000199 -0.000199 0.010639 0.000000 0.000000 0.000000
# 4 0.000000 0.000000 0.000000 -0.031435 0.000000 0.000000
# 5 0.000000 0.000000 0.000000 0.000000 -0.031436 0.000000
# 6 0.000000 0.000000 0.000000 0.000000 0.000000 0.026268
#
#
# Mechanical properties :
#
#
# Convention : Reuss Voigt Hill
#
# Bulk Modulus (GPa) = 53.75977 63.19872 58.47924
# Shear Modulus (GPa) = -72.12615 4.25099 -33.93758
#
# Velocity S-wave (km/s) = -5.66486 1.37527 -3.88583
# Velocity P-wave (km/s) = 4.34379 5.53538 2.42610
#
# Compressibility (1/GPa) = 0.01860127
#
# Stress axis : x y z
#
# Youngs Moduli (GPa) = -96.16157 -96.16228 93.99763
#
# Poissons Ratio (x) = 1.42105 0.01867
# Poissons Ratio (y) = 1.42104 0.01867
# Poissons Ratio (z) = -0.01910 -0.01910
#
# Static dielectric constant tensor:
#      x y z
#    x 1.799600 0.000000 0.000000 
#    y 0.000000 1.799600 0.000000 
#    z 0.000000 0.000000 1.853330 
# 
# From -- ./inp_files/1607.got.cif
#   From: 2010.05.17/outbox.cif.g08.bks.cpg/sg127_1_cif.got.tgz:1607.got - 2010.05.20 12:03:00.
