data_PCOD9563987
_publ_section_title
;
Structure prediction by ZEFSAII (Michael W. Deem and Ramdas Pophale) SiO2 
 PCOD9563987
Probable space group: P 4/M B M
;
_chemical_formula_sum "Si O2"
_cell_formula_units_Z 96
_cell_length_a 24.716342
_cell_length_b 24.716342
_cell_length_c 7.435122
_cell_angle_alpha 90.000000
_cell_angle_beta 90.000000
_cell_angle_gamma 90.000000
_cell_volume 4542.097902
_symmetry_space_group_name_H-M "P 4/M B M"
_symmetry_group_IT_number 127
_symmetry_cell_setting 'tetragonal'
loop_
_space_group_symop_operation_xyz
x,y,z
-y,x,z
-x,-y,z
y,-x,z
1/2+x,1/2-y,-z
1/2-x,1/2+y,-z
1/2+y,1/2+x,-z
1/2-y,1/2-x,-z
-x,-y,-z
y,-x,-z
x,y,-z
-y,x,-z
1/2-x,1/2+y,z
1/2+x,1/2-y,z
1/2-y,1/2-x,z
1/2+y,1/2+x,z
loop_
_atom_site_type_symbol
_atom_site_label
_atom_site_fract_x
_atom_site_fract_y
_atom_site_fract_z
Si Si1 0.727736 0.686687 0.211820
Si Si2 0.982946 0.290614 0.717284
Si Si3 0.801770 0.069725 0.787565
Si Si4 0.000298 0.412688 0.719175
Si Si5 0.138809 0.725505 0.282906
Si Si6 0.417174 0.472242 0.219377
O O1 0.776574 0.723427 0.288107
O O2 0.717633 0.627311 0.288654
O O3 0.673549 0.722461 0.228581
O O4 0.739251 0.680290 0.000000
O O5 0.981416 0.292486 0.500000
O O6 0.998412 0.350925 0.779915
O O7 0.922622 0.275895 0.780690
O O8 0.025754 0.245142 0.768000
O O9 0.858985 0.047841 0.715758
O O10 0.811096 0.078495 0.000000
O O11 0.000439 0.412238 0.500000
O O12 0.947456 0.447456 0.772449
O O13 0.052621 0.447380 0.775593
O O14 0.137944 0.724523 0.500000
O O15 0.173069 0.673069 0.223295
O O16 0.466839 0.433415 0.273969
O O17 0.416486 0.472775 0.000000
#
# Coordination Sequence:
#
# PCOD9563987 Si02
#       6
#    16  16  16  16  16  16
#     4   9  19  35  52  72 100 133 169 209 251 295
#     4  10  20  32  48  75 106 131 160 205 253 296
#     4  10  21  33  50  74  99 133 168 202 245 299
#     4   8  14  27  49  74  98 128 168 209 244 282
#     4   9  18  33  53  75  99 131 168 207 253 299
#     4   8  15  29  49  71  91 115 157 210 250 281
#
# _framework density 21.135608000000001
#
# number of rings (size 3 to 8) (size 9 to 14) (size 15 to 20)
#    0.000    3.000    0.000    1.500    2.333    4.000 
#    0.000    0.000    0.000    1.500    0.000    2.333 
#    0.000    0.000    0.000    0.000    0.000    0.000 
#
# Total GULP energy -535876.837558 kJ/mol
# GULP energy per Si atom -5582.050391 kJ/mol
# Density = 2.108750 g / cm^3
# Si number density = 21.135608 Si / 1000 Ang^3
#
#
#
# Elastic Constant Matrix: (Units=GPa)
#
#
# Indices 1 2 3 4 5 6 
#
# 1 154.2900 181.5993 -2.1393 0.0000 0.0000 0.0000
# 2 181.5993 154.2900 -2.1393 0.0000 0.0000 0.0000
# 3 -2.1393 -2.1393 63.6428 0.0000 0.0000 0.0000
# 4 0.0000 0.0000 0.0000 20.2765 0.0000 0.0000
# 5 0.0000 0.0000 0.0000 0.0000 20.2765 0.0000
# 6 0.0000 0.0000 0.0000 0.0000 0.0000 11.1994
#
#
#
# Elastic Compliance Matrix: (Units=1/GPa)
#
#
# Indices 1 2 3 4 5 6 
#
# 1 -0.016820 0.019798 0.000100 0.000000 0.000000 0.000000
# 2 0.019798 -0.016820 0.000100 0.000000 0.000000 0.000000
# 3 0.000100 0.000100 0.015719 0.000000 0.000000 0.000000
# 4 0.000000 0.000000 0.000000 0.049318 0.000000 0.000000
# 5 0.000000 0.000000 0.000000 0.000000 0.049318 0.000000
# 6 0.000000 0.000000 0.000000 0.000000 0.000000 0.089291
#
#
# Mechanical properties :
#
#
# Convention : Reuss Voigt Hill
#
# Bulk Modulus (GPa) = 45.29643 80.76270 63.02957
# Shear Modulus (GPa) = 36.39803 23.34392 29.87098
#
# Velocity S-wave (km/s) = 4.15434 3.32698 3.76347
# Velocity P-wave (km/s) = 6.67003 7.28375 6.98364
#
# Compressibility (1/GPa) = 0.02207679
#
# Stress axis : x y z
#
# Youngs Moduli (GPa) = -59.45473 -59.45473 63.61552
#
# Poissons Ratio (x) = 1.17708 -0.00637
# Poissons Ratio (y) = 1.17708 -0.00637
# Poissons Ratio (z) = 0.00595 0.00595
#
# Static dielectric constant tensor:
#      x y z
#    x 1.730950 0.000000 0.000000 
#    y 0.000000 1.730950 0.000000 
#    z 0.000000 0.000000 1.828180 
# 
# From -- ./inp_files/1948.got.cif
#   From: 2010.05.17/outbox.cif.g08.bks.cpg/sg127_1_cif.got.tgz:1948.got - 2010.05.20 12:03:00.
