data_PCOD9563236
_publ_section_title
;
Structure prediction by ZEFSAII (Michael W. Deem and Ramdas Pophale) SiO2 
 PCOD9563236
Probable space group: P 4/N B M
;
_chemical_formula_sum "Si O2"
_cell_formula_units_Z 64
_cell_length_a 12.739866
_cell_length_b 12.739866
_cell_length_c 19.166451
_cell_angle_alpha 90.000000
_cell_angle_beta 90.000000
_cell_angle_gamma 90.000000
_cell_volume 3110.795222
_symmetry_space_group_name_H-M "P 4/N B M"
_symmetry_group_IT_number 125
_space_group.IT_coordinate_system_code '2'
_symmetry_cell_setting 'tetragonal'
loop_
_space_group_symop_operation_xyz
x,y,z
1/2-y,x,z
1/2-x,1/2-y,z
y,1/2-x,z
x,1/2-y,-z
1/2-x,y,-z
y,x,-z
1/2-y,1/2-x,-z
-x,-y,-z
1/2+y,-x,-z
1/2+x,1/2+y,-z
-y,1/2+x,-z
-x,1/2+y,z
1/2+x,-y,z
-y,-x,z
1/2+y,1/2+x,z
loop_
_atom_site_type_symbol
_atom_site_label
_atom_site_fract_x
_atom_site_fract_y
_atom_site_fract_z
Si Si1 0.475449 0.352258 0.842206
Si Si2 0.784367 0.582931 0.311366
Si Si3 0.254102 0.921065 0.425973
Si Si4 0.503081 0.827100 0.064420
O O1 0.551357 0.448644 0.825397
O O2 0.434611 0.302021 0.770883
O O3 0.387412 0.401839 0.895046
O O4 0.537201 0.258920 0.880683
O O5 0.869351 0.670901 0.328186
O O6 0.788880 0.482501 0.359693
O O7 0.250000 0.982349 0.500000
O O8 0.172750 0.827251 0.438509
O O9 0.367368 0.867368 0.412277
O O10 0.416010 0.916010 0.045566
O O11 0.531939 0.750000 0.000000
#
# Coordination Sequence:
#
# PCOD9563236 Si02
#       4
#    16  16  16  16
#     4  11  23  41  64  91 125 167 213 260 319 385
#     4  11  23  40  62  89 127 168 214 263 319 376
#     4   9  20  40  65  94 129 170 215 262 316 379
#     4  11  24  42  65  93 126 164 210 266 322 383
#
# _framework density 20.573519000000001
#
# number of rings (size 3 to 8) (size 9 to 14) (size 15 to 20)
#    0.000    1.500    2.500    3.000    0.000    8.250 
#    0.000    5.000    0.000    0.000    0.000    0.000 
#    0.000    0.000    0.000    0.000    0.000    0.000 
#
# Total GULP energy -356535.796242 kJ/mol
# GULP energy per Si atom -5570.871816 kJ/mol
# Density = 2.052669 g / cm^3
# Si number density = 20.573519 Si / 1000 Ang^3
#
#
#
# Elastic Constant Matrix: (Units=GPa)
#
#
# Indices 1 2 3 4 5 6 
#
# 1 75.0349 25.5575 47.6850 0.0000 0.0000 0.0000
# 2 25.5575 75.0349 47.6850 0.0000 0.0000 0.0000
# 3 47.6850 47.6850 105.6018 0.0000 0.0000 0.0000
# 4 0.0000 0.0000 0.0000 37.9168 0.0000 0.0000
# 5 0.0000 0.0000 0.0000 0.0000 37.9168 0.0000
# 6 0.0000 0.0000 0.0000 0.0000 0.0000 34.2607
#
#
#
# Elastic Compliance Matrix: (Units=1/GPa)
#
#
# Indices 1 2 3 4 5 6 
#
# 1 0.018797 -0.001414 -0.007849 0.000000 0.000000 0.000000
# 2 -0.001414 0.018797 -0.007849 0.000000 0.000000 0.000000
# 3 -0.007849 -0.007849 0.016558 0.000000 0.000000 0.000000
# 4 0.000000 0.000000 0.000000 0.026374 0.000000 0.000000
# 5 0.000000 0.000000 0.000000 0.000000 0.026374 0.000000
# 6 0.000000 0.000000 0.000000 0.000000 0.000000 0.029188
#
#
# Mechanical properties :
#
#
# Convention : Reuss Voigt Hill
#
# Bulk Modulus (GPa) = 50.18355 55.28073 52.73214
# Shear Modulus (GPa) = 28.25568 31.00181 29.62874
#
# Velocity S-wave (km/s) = 3.70996 3.88607 3.79903
# Velocity P-wave (km/s) = 6.54194 6.86029 6.70300
#
# Compressibility (1/GPa) = 0.01992685
#
# Stress axis : x y z
#
# Youngs Moduli (GPa) = 53.19972 53.19972 60.39238
#
# Poissons Ratio (x) = 0.07523 0.47404
# Poissons Ratio (y) = 0.07523 0.47404
# Poissons Ratio (z) = 0.41758 0.41758
#
# Static dielectric constant tensor:
#      x y z
#    x 1.743270 0.000000 0.000000 
#    y 0.000000 1.743270 0.000000 
#    z 0.000000 0.000000 1.776890 
# 
# From -- ./inp_files/4602.got.cif
#   From: 2010.05.17/outbox.cif.g08.bks.cpg/sg125_3_cif.got.tgz:4602.got - 2010.05.20 11:54:10.
