data_PCOD9563629
_publ_section_title
;
Structure prediction by ZEFSAII (Michael W. Deem and Ramdas Pophale) SiO2 
 PCOD9563629
Probable space group: P 4/N N C
;
_chemical_formula_sum "Si O2"
_cell_formula_units_Z 96
_cell_length_a 21.694820
_cell_length_b 21.694820
_cell_length_c 8.510771
_cell_angle_alpha 90.000000
_cell_angle_beta 90.000000
_cell_angle_gamma 90.000000
_cell_volume 4005.723861
_symmetry_space_group_name_H-M "P 4/N N C"
_symmetry_group_IT_number 126
_space_group.IT_coordinate_system_code '2'
_symmetry_cell_setting 'tetragonal'
loop_
_space_group_symop_operation_xyz
x,y,z
1/2-y,x,z
1/2-x,1/2-y,z
y,1/2-x,z
x,1/2-y,1/2-z
1/2-x,y,1/2-z
y,x,1/2-z
1/2-y,1/2-x,1/2-z
-x,-y,-z
1/2+y,-x,-z
1/2+x,1/2+y,-z
-y,1/2+x,-z
-x,1/2+y,1/2+z
1/2+x,-y,1/2+z
-y,-x,1/2+z
1/2+y,1/2+x,1/2+z
loop_
_atom_site_type_symbol
_atom_site_label
_atom_site_fract_x
_atom_site_fract_y
_atom_site_fract_z
Si Si1 0.894391 0.379168 0.743763
Si Si2 0.998738 0.941905 0.615417
Si Si3 0.146306 0.260863 0.420803
Si Si4 0.182696 0.984337 0.950280
Si Si5 0.931095 0.663232 0.343511
Si Si6 0.182350 0.544587 0.037197
O O1 0.836988 0.420061 0.803692
O O2 0.011635 0.375582 0.040329
O O3 0.940947 0.434868 0.701271
O O4 0.917927 0.341999 0.894450
O O5 0.949896 0.949896 0.750000
O O6 0.000000 0.000000 0.500000
O O7 0.185197 0.197869 0.426697
O O8 0.113934 0.250000 0.250000
O O9 0.106411 0.282167 0.569123
O O10 0.247154 0.976076 0.033714
O O11 0.167596 0.904971 0.600170
O O12 0.186568 0.023975 0.792604
O O13 0.886386 0.613615 0.250000
O O14 0.981355 0.645986 0.483009
#
# Coordination Sequence:
#
# PCOD9563629 Si02
#       6
#    16  16  16  16  16  16
#     4  11  22  47  74 105 145 214 248 323 399 476
#     4  12  24  43  76 113 162 213 260 318 412 502
#     4   9  21  45  71  96 142 210 275 329 392 469
#     4  11  26  45  74 115 156 200 263 341 401 491
#     4  11  26  41  70 108 158 202 257 335 405 489
#     4  11  26  48  72 112 152 199 266 329 403 483
#
# _framework density 23.965707999999999
#
# number of rings (size 3 to 8) (size 9 to 14) (size 15 to 20)
#    0.000    1.167    3.333    2.500   11.667    0.667 
#    3.000    0.833    0.000    0.500    4.333    0.000 
#    0.000    0.000    0.000    0.000    0.000    0.000 
#
# Total GULP energy -535121.269742 kJ/mol
# GULP energy per Si atom -5574.179893 kJ/mol
# Density = 2.391116 g / cm^3
# Si number density = 23.965708 Si / 1000 Ang^3
#
#
#
# Elastic Constant Matrix: (Units=GPa)
#
#
# Indices 1 2 3 4 5 6 
#
# 1 124.2195 35.6767 59.5834 0.0000 0.0000 0.0000
# 2 35.6767 124.2189 59.5838 0.0000 0.0000 0.0000
# 3 59.5834 59.5838 110.1881 0.0000 0.0000 0.0000
# 4 0.0000 0.0000 0.0000 56.5819 0.0000 0.0000
# 5 0.0000 0.0000 0.0000 0.0000 56.5817 0.0000
# 6 0.0000 0.0000 0.0000 0.0000 0.0000 -228.0210
#
#
#
# Elastic Compliance Matrix: (Units=1/GPa)
#
#
# Indices 1 2 3 4 5 6 
#
# 1 0.010885 -0.000409 -0.005665 0.000000 0.000000 0.000000
# 2 -0.000409 0.010885 -0.005665 0.000000 0.000000 0.000000
# 3 -0.005665 -0.005665 0.015202 0.000000 0.000000 0.000000
# 4 0.000000 0.000000 0.000000 0.017674 0.000000 0.000000
# 5 0.000000 0.000000 0.000000 0.000000 0.017674 0.000000
# 6 0.000000 0.000000 0.000000 0.000000 0.000000 -0.004386
#
#
# Mechanical properties :
#
#
# Convention : Reuss Voigt Hill
#
# Bulk Modulus (GPa) = 74.10444 74.25714 74.18079
# Shear Modulus (GPa) = 52.13291 -9.38598 21.37346
#
# Velocity S-wave (km/s) = 4.66908 -1.98114 2.98960
# Velocity P-wave (km/s) = 7.74954 5.08122 6.55264
#
# Compressibility (1/GPa) = 0.01349447
#
# Stress axis : x y z
#
# Youngs Moduli (GPa) = 91.87031 91.86928 65.78162
#
# Poissons Ratio (x) = 0.03758 0.37264
# Poissons Ratio (y) = 0.03758 0.37264
# Poissons Ratio (z) = 0.52042 0.52043
#
# Static dielectric constant tensor:
#      x y z
#    x 1.954000 0.000000 0.000000 
#    y 0.000000 1.954000 0.000000 
#    z 0.000000 0.000000 2.036110 
# 
# From -- ./inp_files/2972.got.cif
#   From: 2010.05.17/outbox.cif.g08.bks.cpg/sg126_2_cif.got.tgz:2972.got - 2010.05.20 11:58:20.
