data_PCOD9563989
_publ_section_title
;
Structure prediction by ZEFSAII (Michael W. Deem and Ramdas Pophale) SiO2 
 PCOD9563989
Probable space group: P 4/M B M
;
_chemical_formula_sum "Si O2"
_cell_formula_units_Z 116
_cell_length_a 18.160164
_cell_length_b 18.160164
_cell_length_c 19.135573
_cell_angle_alpha 90.000000
_cell_angle_beta 90.000000
_cell_angle_gamma 90.000000
_cell_volume 6310.750404
_symmetry_space_group_name_H-M "P 4/M B M"
_symmetry_group_IT_number 127
_symmetry_cell_setting 'tetragonal'
loop_
_space_group_symop_operation_xyz
x,y,z
-y,x,z
-x,-y,z
y,-x,z
1/2+x,1/2-y,-z
1/2-x,1/2+y,-z
1/2+y,1/2+x,-z
1/2-y,1/2-x,-z
-x,-y,-z
y,-x,-z
x,y,-z
-y,x,-z
1/2-x,1/2+y,z
1/2+x,1/2-y,z
1/2-y,1/2-x,z
1/2+y,1/2+x,z
loop_
_atom_site_type_symbol
_atom_site_label
_atom_site_fract_x
_atom_site_fract_y
_atom_site_fract_z
Si Si1 0.671968 0.704820 0.082155
Si Si2 0.000000 0.000000 0.815220
Si Si3 0.233887 0.503839 0.692743
Si Si4 0.844581 0.917199 0.795776
Si Si5 0.879198 0.495536 0.809813
Si Si6 0.159646 0.218588 0.308997
Si Si7 0.250964 0.627673 0.419224
Si Si8 0.081742 0.291935 0.078058
O O1 0.727502 0.772499 0.098167
O O2 0.603644 0.699354 0.133908
O O3 0.718487 0.628780 0.092249
O O4 0.653234 0.709390 0.000000
O O5 0.049699 0.923637 0.812793
O O6 0.299437 0.529261 0.744531
O O7 0.159921 0.518729 0.736281
O O8 0.242356 0.417752 0.678479
O O9 0.239059 0.553120 0.623787
O O10 0.849064 0.840927 0.752269
O O11 0.939404 0.560596 0.802701
O O12 0.818354 0.524805 0.864028
O O13 0.923509 0.423509 0.834223
O O14 0.221663 0.278338 0.289759
O O15 0.188049 0.174709 0.377119
O O16 0.270454 0.615926 0.500000
O O17 0.177355 0.677355 0.416282
O O18 0.144039 0.355962 0.076135
O O19 0.049371 0.286950 0.000000
#
# Coordination Sequence:
#
# PCOD9563989 Si02
#       8
#    16   4  16  16  16  16  16  16
#     4   9  18  35  60  85 108 144 199 254 294 339
#     4  12  24  40  57  84 125 160 184 234 304 368
#     4  11  21  35  58  83 112 148 187 230 286 346
#     4  11  22  38  58  83 116 153 190 234 295 354
#     4  10  20  32  49  79 117 151 189 238 288 346
#     4  10  20  36  62  89 111 145 195 246 283 330
#     4   9  20  38  58  83 115 148 183 227 283 347
#     4   8  15  29  50  75 104 142 190 243 294 337
#
# _framework density 18.381332
#
# number of rings (size 3 to 8) (size 9 to 14) (size 15 to 20)
#    0.000    2.207    1.379    2.897    0.000    3.586 
#    0.000    3.103    0.000    1.241    0.000    8.690 
#    0.000    0.000    0.000    0.000    0.000    0.000 
#
# Total GULP energy -646417.515455 kJ/mol
# GULP energy per Si atom -5572.564788 kJ/mol
# Density = 1.833950 g / cm^3
# Si number density = 18.381332 Si / 1000 Ang^3
#
#
#
# Elastic Constant Matrix: (Units=GPa)
#
#
# Indices 1 2 3 4 5 6 
#
# 1 72.2599 21.3975 32.7816 0.0000 0.0000 0.0000
# 2 21.3975 72.2599 32.7816 0.0000 0.0000 0.0000
# 3 32.7816 32.7816 95.5803 0.0000 0.0000 0.0000
# 4 0.0000 0.0000 0.0000 13.6660 0.0000 0.0000
# 5 0.0000 0.0000 0.0000 0.0000 13.6660 0.0000
# 6 0.0000 0.0000 0.0000 0.0000 0.0000 23.1351
#
#
#
# Elastic Compliance Matrix: (Units=1/GPa)
#
#
# Indices 1 2 3 4 5 6 
#
# 1 0.016856 -0.002805 -0.004819 0.000000 0.000000 0.000000
# 2 -0.002805 0.016856 -0.004819 0.000000 0.000000 0.000000
# 3 -0.004819 -0.004819 0.013768 0.000000 0.000000 0.000000
# 4 0.000000 0.000000 0.000000 0.073174 0.000000 0.000000
# 5 0.000000 0.000000 0.000000 0.000000 0.073174 0.000000
# 6 0.000000 0.000000 0.000000 0.000000 0.000000 0.043224
#
#
# Mechanical properties :
#
#
# Convention : Reuss Voigt Hill
#
# Bulk Modulus (GPa) = 44.26094 46.00239 45.13167
# Shear Modulus (GPa) = 18.55497 20.30274 19.42885
#
# Velocity S-wave (km/s) = 3.18063 3.32705 3.25466
# Velocity P-wave (km/s) = 6.13352 6.31190 6.22335
#
# Compressibility (1/GPa) = 0.02259328
#
# Stress axis : x y z
#
# Youngs Moduli (GPa) = 59.32686 59.32686 72.63215
#
# Poissons Ratio (x) = 0.16642 0.35002
# Poissons Ratio (y) = 0.16642 0.35002
# Poissons Ratio (z) = 0.28590 0.28590
#
# Static dielectric constant tensor:
#      x y z
#    x 1.633720 0.000000 0.000000 
#    y 0.000000 1.633720 0.000000 
#    z 0.000000 0.000000 1.627910 
# 
# From -- ./inp_files/5290.got.cif
#   From: 2010.05.17/outbox.cif.g08.bks.cpg/sg127_3_cif.got.tgz:5290.got - 2010.05.20 12:03:00.
