data_PCOD9563124
_publ_section_title
;
Structure prediction by ZEFSAII (Michael W. Deem and Ramdas Pophale) SiO2 
 PCOD9563124
Probable space group: P 4/N B M
;
_chemical_formula_sum "Si O2"
_cell_formula_units_Z 64
_cell_length_a 11.673488
_cell_length_b 11.673488
_cell_length_c 19.848733
_cell_angle_alpha 90.000000
_cell_angle_beta 90.000000
_cell_angle_gamma 90.000000
_cell_volume 2704.793239
_symmetry_space_group_name_H-M "P 4/N B M"
_symmetry_group_IT_number 125
_space_group.IT_coordinate_system_code '2'
_symmetry_cell_setting 'tetragonal'
loop_
_space_group_symop_operation_xyz
x,y,z
1/2-y,x,z
1/2-x,1/2-y,z
y,1/2-x,z
x,1/2-y,-z
1/2-x,y,-z
y,x,-z
1/2-y,1/2-x,-z
-x,-y,-z
1/2+y,-x,-z
1/2+x,1/2+y,-z
-y,1/2+x,-z
-x,1/2+y,z
1/2+x,-y,z
-y,-x,z
1/2+y,1/2+x,z
loop_
_atom_site_type_symbol
_atom_site_label
_atom_site_fract_x
_atom_site_fract_y
_atom_site_fract_z
Si Si1 0.009467 0.179842 0.066914
Si Si2 0.756500 0.437318 0.715539
Si Si3 0.032100 0.150205 0.835022
Si Si4 0.252159 0.056483 0.425580
O O1 0.952762 0.269154 0.118251
O O2 0.112592 0.132672 0.114056
O O3 0.040522 0.250000 0.000000
O O4 0.924595 0.075406 0.049641
O O5 0.659607 0.340394 0.724880
O O6 0.877172 0.377172 0.731771
O O7 0.720263 0.540603 0.765489
O O8 0.755470 0.475293 0.638330
O O9 0.967650 0.032351 0.820189
O O10 0.361447 0.141011 0.421797
O O11 0.250000 0.001427 0.500000
#
# Coordination Sequence:
#
# PCOD9563124 Si02
#       4
#    16  16  16  16
#     4  11  23  40  65  93 123 164 212 261 317 388
#     4  10  22  39  61  91 128 173 223 270 323 389
#     4  10  23  41  60  89 129 166 206 263 322 382
#     4   9  20  39  62  91 130 173 220 272 325 386
#
# _framework density 23.661698000000001
#
# number of rings (size 3 to 8) (size 9 to 14) (size 15 to 20)
#    0.000    2.000    0.000    3.000    3.500    7.250 
#    0.000    5.000    0.000    0.000    0.000    0.000 
#    0.000    0.000    0.000    0.000    0.000    0.000 
#
# Total GULP energy -357174.101832 kJ/mol
# GULP energy per Si atom -5580.845341 kJ/mol
# Density = 2.360784 g / cm^3
# Si number density = 23.661698 Si / 1000 Ang^3
#
#
#
# Elastic Constant Matrix: (Units=GPa)
#
#
# Indices 1 2 3 4 5 6 
#
# 1 86.6644 37.4958 63.1083 0.0000 0.0000 0.0000
# 2 37.4958 86.6644 63.1083 0.0000 0.0000 0.0000
# 3 63.1083 63.1083 206.7066 0.0000 0.0000 0.0000
# 4 0.0000 0.0000 0.0000 28.4328 0.0000 0.0000
# 5 0.0000 0.0000 0.0000 0.0000 28.4328 0.0000
# 6 0.0000 0.0000 0.0000 0.0000 0.0000 21.6194
#
#
#
# Elastic Compliance Matrix: (Units=1/GPa)
#
#
# Indices 1 2 3 4 5 6 
#
# 1 0.016008 -0.004330 -0.003566 0.000000 0.000000 0.000000
# 2 -0.004330 0.016008 -0.003566 0.000000 0.000000 0.000000
# 3 -0.003566 -0.003566 0.007015 0.000000 0.000000 0.000000
# 4 0.000000 0.000000 0.000000 0.035171 0.000000 0.000000
# 5 0.000000 0.000000 0.000000 0.000000 0.035171 0.000000
# 6 0.000000 0.000000 0.000000 0.000000 0.000000 0.046255
#
#
# Mechanical properties :
#
#
# Convention : Reuss Voigt Hill
#
# Bulk Modulus (GPa) = 62.07267 78.60666 70.33967
# Shear Modulus (GPa) = 27.18581 30.11855 28.65218
#
# Velocity S-wave (km/s) = 3.39327 3.57162 3.48359
# Velocity P-wave (km/s) = 6.45312 7.09238 6.78029
#
# Compressibility (1/GPa) = 0.01611015
#
# Stress axis : x y z
#
# Youngs Moduli (GPa) = 62.46702 62.46702 142.55309
#
# Poissons Ratio (x) = 0.27047 0.50828
# Poissons Ratio (y) = 0.27047 0.50828
# Poissons Ratio (z) = 0.22273 0.22273
#
# Static dielectric constant tensor:
#      x y z
#    x 1.978440 0.000000 0.000000 
#    y 0.000000 1.978440 0.000000 
#    z 0.000000 0.000000 1.891900 
# 
# From -- ./inp_files/5737.got.cif
#   From: 2010.05.17/outbox.cif.g08.bks.cpg/sg125_3_cif.got.tgz:5737.got - 2010.05.20 11:54:10.
