data_PCOD9563370
_publ_section_title
;
Structure prediction by ZEFSAII (Michael W. Deem and Ramdas Pophale) SiO2 
 PCOD9563370
Probable space group: P 4/N N C
;
_chemical_formula_sum "Si O2"
_cell_formula_units_Z 84
_cell_length_a 10.806445
_cell_length_b 10.806445
_cell_length_c 32.253868
_cell_angle_alpha 90.000000
_cell_angle_beta 90.000000
_cell_angle_gamma 90.000000
_cell_volume 3766.582629
_symmetry_space_group_name_H-M "P 4/N N C"
_symmetry_group_IT_number 126
_space_group.IT_coordinate_system_code '2'
_symmetry_cell_setting 'tetragonal'
loop_
_space_group_symop_operation_xyz
x,y,z
1/2-y,x,z
1/2-x,1/2-y,z
y,1/2-x,z
x,1/2-y,1/2-z
1/2-x,y,1/2-z
y,x,1/2-z
1/2-y,1/2-x,1/2-z
-x,-y,-z
1/2+y,-x,-z
1/2+x,1/2+y,-z
-y,1/2+x,-z
-x,1/2+y,1/2+z
1/2+x,-y,1/2+z
-y,-x,1/2+z
1/2+y,1/2+x,1/2+z
loop_
_atom_site_type_symbol
_atom_site_label
_atom_site_fract_x
_atom_site_fract_y
_atom_site_fract_z
Si Si1 0.902850 0.022348 0.212892
Si Si2 0.553818 0.696577 0.372979
Si Si3 0.562763 0.162967 0.502866
Si Si4 0.007041 0.525872 0.571778
Si Si5 0.589313 0.879478 0.844669
Si Si6 0.250000 0.750000 0.750000
O O1 0.843201 0.152896 0.227170
O O2 0.039311 0.029801 0.191833
O O3 0.816529 0.982392 0.174742
O O4 0.924519 0.924519 0.250000
O O5 0.668126 0.603514 0.380116
O O6 0.456766 0.640265 0.405231
O O7 0.592882 0.306694 0.505155
O O8 0.484754 0.133940 0.461623
O O9 0.504819 0.096202 0.542879
O O10 0.915902 0.533608 0.610762
O O11 0.582287 0.733027 0.841542
#
# Coordination Sequence:
#
# PCOD9563370 Si02
#       6
#    16  16  16  16  16   4
#     4  11  23  40  60  86 118 151 193 244 294 358
#     4  10  21  37  57  81 111 148 189 236 291 348
#     4  10  20  34  53  79 110 144 184 235 293 350
#     4  10  20  35  55  79 109 146 189 235 287 354
#     4  10  21  37  57  81 111 148 189 236 291 348
#     4  12  24  40  64  92 120 160 206 244 308 376
#
# _framework density 22.301383999999999
#
# number of rings (size 3 to 8) (size 9 to 14) (size 15 to 20)
#    0.000    1.714    0.000    4.571    0.000    1.524 
#    0.000    9.524    0.000    9.143    0.000    0.000 
#    0.000    0.000    0.000    0.000    0.000    0.000 
#
# Total GULP energy -468683.982591 kJ/mol
# GULP energy per Si atom -5579.571221 kJ/mol
# Density = 2.225063 g / cm^3
# Si number density = 22.301384 Si / 1000 Ang^3
#
#
#
# Elastic Constant Matrix: (Units=GPa)
#
#
# Indices 1 2 3 4 5 6 
#
# 1 27.7386 7.7481 23.6568 0.0000 0.0000 0.0000
# 2 7.7481 27.7386 23.6568 0.0000 0.0000 0.0000
# 3 23.6568 23.6568 143.3654 0.0000 0.0000 0.0000
# 4 0.0000 0.0000 0.0000 21.6209 0.0000 0.0000
# 5 0.0000 0.0000 0.0000 0.0000 21.6209 0.0000
# 6 0.0000 0.0000 0.0000 0.0000 0.0000 32.7310
#
#
#
# Elastic Compliance Matrix: (Units=1/GPa)
#
#
# Indices 1 2 3 4 5 6 
#
# 1 0.043076 -0.006948 -0.005961 0.000000 0.000000 0.000000
# 2 -0.006948 0.043076 -0.005961 0.000000 0.000000 0.000000
# 3 -0.005961 -0.005961 0.008943 0.000000 0.000000 0.000000
# 4 0.000000 0.000000 0.000000 0.046252 0.000000 0.000000
# 5 0.000000 0.000000 0.000000 0.000000 0.046252 0.000000
# 6 0.000000 0.000000 0.000000 0.000000 0.000000 0.030552
#
#
# Mechanical properties :
#
#
# Convention : Reuss Voigt Hill
#
# Bulk Modulus (GPa) = 17.43602 34.32954 25.88278
# Shear Modulus (GPa) = 18.18124 24.77997 21.48060
#
# Velocity S-wave (km/s) = 2.85836 3.33699 3.10691
# Velocity P-wave (km/s) = 4.32770 5.50220 4.94991
#
# Compressibility (1/GPa) = 0.05735255
#
# Stress axis : x y z
#
# Youngs Moduli (GPa) = 23.21484 23.21484 111.82434
#
# Poissons Ratio (x) = 0.16130 0.66664
# Poissons Ratio (y) = 0.16130 0.66664
# Poissons Ratio (z) = 0.13840 0.13840
#
# Static dielectric constant tensor:
#      x y z
#    x 1.822910 0.000000 0.000000 
#    y 0.000000 1.822910 0.000000 
#    z 0.000000 0.000000 1.816010 
# 
# From -- ./inp_files/6501.got.cif
#   From: 2010.05.17/outbox.cif.g08.bks.cpg/sg126_4_cif.got.tgz:6501.got - 2010.05.20 11:58:20.
