data_PCOD9563831
_publ_section_title
;
Structure prediction by ZEFSAII (Michael W. Deem and Ramdas Pophale) SiO2 
 PCOD9563831
Probable space group: P 4/M B M
;
_chemical_formula_sum "Si O2"
_cell_formula_units_Z 96
_cell_length_a 25.271200
_cell_length_b 25.271200
_cell_length_c 9.415726
_cell_angle_alpha 90.000000
_cell_angle_beta 90.000000
_cell_angle_gamma 90.000000
_cell_volume 6013.198516
_symmetry_space_group_name_H-M "P 4/M B M"
_symmetry_group_IT_number 127
_symmetry_cell_setting 'tetragonal'
loop_
_space_group_symop_operation_xyz
x,y,z
-y,x,z
-x,-y,z
y,-x,z
1/2+x,1/2-y,-z
1/2-x,1/2+y,-z
1/2+y,1/2+x,-z
1/2-y,1/2-x,-z
-x,-y,-z
y,-x,-z
x,y,-z
-y,x,-z
1/2-x,1/2+y,z
1/2+x,1/2-y,z
1/2-y,1/2-x,z
1/2+y,1/2+x,z
loop_
_atom_site_type_symbol
_atom_site_label
_atom_site_fract_x
_atom_site_fract_y
_atom_site_fract_z
Si Si1 0.261996 0.848428 0.173156
Si Si2 0.765795 0.824401 0.835120
Si Si3 0.256706 0.569455 0.338106
Si Si4 0.967127 0.748723 0.836500
Si Si5 0.124115 0.957471 0.837518
Si Si6 0.116426 0.058904 0.661808
O O1 0.311146 0.811146 0.214053
O O2 0.208217 0.817680 0.216753
O O3 0.267777 0.909106 0.219377
O O4 0.259864 0.849360 0.000000
O O5 0.718770 0.781231 0.832609
O O6 0.750440 0.875586 0.745346
O O7 0.774856 0.839961 0.000000
O O8 0.237423 0.572668 0.500000
O O9 0.234142 0.518195 0.256284
O O10 0.320211 0.561081 0.342810
O O11 0.963794 0.812701 0.840387
O O12 0.973565 0.730646 0.000000
O O13 0.107467 0.905832 0.751672
O O14 0.101056 0.006621 0.749268
O O15 0.105414 0.955809 0.000000
O O16 0.096697 0.058768 0.500000
#
# Coordination Sequence:
#
# PCOD9563831 Si02
#       6
#    16  16  16  16  16  16
#     4   8  14  26  46  71  94 116 146 185 227 268
#     4   9  17  30  49  71  94 120 151 188 228 270
#     4  10  20  31  44  63  89 119 148 180 217 261
#     4   9  17  29  46  65  86 114 146 180 216 258
#     4  10  19  30  44  60  76 101 141 183 219 258
#     4  10  20  32  43  57  79 107 138 176 223 265
#
# _framework density 15.964881
#
# number of rings (size 3 to 8) (size 9 to 14) (size 15 to 20)
#    0.000    2.667    0.000    3.500    0.000    4.667 
#    0.000    2.500    0.000    1.500    0.000    0.000 
#    0.000    0.667    0.000    7.667    0.000    2.167 
#
# Total GULP energy -534806.438997 kJ/mol
# GULP energy per Si atom -5570.900406 kJ/mol
# Density = 1.592854 g / cm^3
# Si number density = 15.964881 Si / 1000 Ang^3
#
#
#
# Elastic Constant Matrix: (Units=GPa)
#
#
# Indices 1 2 3 4 5 6 
#
# 1 55.3451 -5.8589 20.9033 0.0000 0.0000 0.0000
# 2 -5.8589 55.3451 20.9033 0.0000 0.0000 0.0000
# 3 20.9033 20.9033 84.2337 0.0000 0.0000 0.0000
# 4 0.0000 0.0000 0.0000 13.7211 0.0000 0.0000
# 5 0.0000 0.0000 0.0000 0.0000 13.7211 0.0000
# 6 0.0000 0.0000 0.0000 0.0000 0.0000 15.3637
#
#
#
# Elastic Compliance Matrix: (Units=1/GPa)
#
#
# Indices 1 2 3 4 5 6 
#
# 1 0.020953 0.004615 -0.006345 0.000000 0.000000 0.000000
# 2 0.004615 0.020953 -0.006345 0.000000 0.000000 0.000000
# 3 -0.006345 -0.006345 0.015021 0.000000 0.000000 0.000000
# 4 0.000000 0.000000 0.000000 0.072881 0.000000 0.000000
# 5 0.000000 0.000000 0.000000 0.000000 0.072881 0.000000
# 6 0.000000 0.000000 0.000000 0.000000 0.000000 0.065089
#
#
# Mechanical properties :
#
#
# Convention : Reuss Voigt Hill
#
# Bulk Modulus (GPa) = 24.52359 29.64660 27.08510
# Shear Modulus (GPa) = 16.80558 19.15958 17.98258
#
# Velocity S-wave (km/s) = 3.24799 3.46802 3.35980
# Velocity P-wave (km/s) = 5.42773 5.88612 5.66156
#
# Compressibility (1/GPa) = 0.04077706
#
# Stress axis : x y z
#
# Youngs Moduli (GPa) = 47.72504 47.72504 66.57423
#
# Poissons Ratio (x) = -0.22023 0.42241
# Poissons Ratio (y) = -0.22023 0.42241
# Poissons Ratio (z) = 0.30281 0.30281
#
# Static dielectric constant tensor:
#      x y z
#    x 1.545670 0.000000 0.000000 
#    y 0.000000 1.545670 0.000000 
#    z 0.000000 0.000000 1.549360 
# 
# From -- ./inp_files/1960.got.cif
#   From: 2010.05.17/outbox.cif.g08.bks.cpg/sg127_1_cif.got.tgz:1960.got - 2010.05.20 12:03:00.
