data_PCOD9563625
_publ_section_title
;
Structure prediction by ZEFSAII (Michael W. Deem and Ramdas Pophale) SiO2 
 PCOD9563625
Probable space group: P 4/N N C
;
_chemical_formula_sum "Si O2"
_cell_formula_units_Z 88
_cell_length_a 11.598338
_cell_length_b 11.598338
_cell_length_c 31.831604
_cell_angle_alpha 90.000000
_cell_angle_beta 90.000000
_cell_angle_gamma 90.000000
_cell_volume 4282.033346
_symmetry_space_group_name_H-M "P 4/N N C"
_symmetry_group_IT_number 126
_space_group.IT_coordinate_system_code '2'
_symmetry_cell_setting 'tetragonal'
loop_
_space_group_symop_operation_xyz
x,y,z
1/2-y,x,z
1/2-x,1/2-y,z
y,1/2-x,z
x,1/2-y,1/2-z
1/2-x,y,1/2-z
y,x,1/2-z
1/2-y,1/2-x,1/2-z
-x,-y,-z
1/2+y,-x,-z
1/2+x,1/2+y,-z
-y,1/2+x,-z
-x,1/2+y,1/2+z
1/2+x,-y,1/2+z
-y,-x,1/2+z
1/2+y,1/2+x,1/2+z
loop_
_atom_site_type_symbol
_atom_site_label
_atom_site_fract_x
_atom_site_fract_y
_atom_site_fract_z
Si Si1 0.250000 0.051691 0.250000
Si Si2 0.439670 0.260048 0.915733
Si Si3 0.333992 0.643168 0.642641
Si Si4 0.375011 0.953539 0.768493
Si Si5 0.718877 0.940500 0.593706
Si Si6 0.443074 0.740827 0.503349
O O1 0.350308 0.149693 0.250000
O O2 0.151373 0.952182 0.246270
O O3 0.355777 0.367944 0.905847
O O4 0.560881 0.274162 0.891955
O O5 0.469380 0.257820 0.965116
O O6 0.250000 0.750000 0.653597
O O7 0.364895 0.561007 0.681429
O O8 0.452617 0.695914 0.624387
O O9 0.250000 0.941526 0.750000
O O10 0.431577 0.068424 0.750000
O O11 0.622148 0.841895 0.600103
O O12 0.715998 0.990765 0.546535
O O13 0.355227 0.636177 0.493084
#
# Coordination Sequence:
#
# PCOD9563625 Si02
#       6
#     8  16  16  16  16  16
#     4   9  19  40  70 102 133 173 224 280 348 427
#     4  11  26  44  68 101 139 191 243 298 355 429
#     4  12  27  45  74 104 145 184 242 297 363 432
#     4  11  26  47  74 105 139 186 235 300 364 437
#     4  11  26  44  67 103 144 188 236 297 356 424
#     4  11  22  39  67 102 139 187 244 293 356 420
#
# _framework density 20.550986000000002
#
# number of rings (size 3 to 8) (size 9 to 14) (size 15 to 20)
#    0.000    1.000    1.818    3.545    7.636    6.000 
#    0.000    3.636    0.000    0.000    0.000    0.000 
#    0.000    0.000    0.000    0.000    0.000    0.000 
#
# Total GULP energy -490046.930098 kJ/mol
# GULP energy per Si atom -5568.715115 kJ/mol
# Density = 2.050421 g / cm^3
# Si number density = 20.550986 Si / 1000 Ang^3
#
#
#
# Elastic Constant Matrix: (Units=GPa)
#
#
# Indices 1 2 3 4 5 6 
#
# 1 154.8804 60.1021 22.8345 0.0000 0.0000 0.0000
# 2 60.1021 154.8796 22.8344 0.0000 0.0000 0.0000
# 3 22.8345 22.8344 99.8656 0.0000 0.0000 0.0000
# 4 0.0000 0.0000 0.0000 22.6245 0.0000 0.0000
# 5 0.0000 0.0000 0.0000 0.0000 22.6188 0.0000
# 6 0.0000 0.0000 0.0000 0.0000 0.0000 -27.8664
#
#
#
# Elastic Compliance Matrix: (Units=1/GPa)
#
#
# Indices 1 2 3 4 5 6 
#
# 1 0.007720 -0.002831 -0.001118 0.000000 0.000000 0.000000
# 2 -0.002831 0.007720 -0.001118 0.000000 0.000000 0.000000
# 3 -0.001118 -0.001118 0.010525 0.000000 0.000000 0.000000
# 4 0.000000 0.000000 0.000000 0.044200 0.000000 0.000000
# 5 0.000000 0.000000 0.000000 0.000000 0.044211 0.000000
# 6 0.000000 0.000000 0.000000 0.000000 0.000000 -0.035886
#
#
# Mechanical properties :
#
#
# Convention : Reuss Voigt Hill
#
# Bulk Modulus (GPa) = 63.16648 69.01863 66.09255
# Shear Modulus (GPa) = 53.24786 23.73237 38.49011
#
# Velocity S-wave (km/s) = 5.09572 3.40193 4.33241
# Velocity P-wave (km/s) = 8.08857 7.00627 7.56680
#
# Compressibility (1/GPa) = 0.01583118
#
# Stress axis : x y z
#
# Youngs Moduli (GPa) = 129.53393 129.53332 95.01485
#
# Poissons Ratio (x) = 0.36671 0.10622
# Poissons Ratio (y) = 0.36671 0.10622
# Poissons Ratio (z) = 0.14480 0.14480
#
# Static dielectric constant tensor:
#      x y z
#    x 1.682970 0.000000 0.000000 
#    y 0.000000 1.682980 0.000000 
#    z 0.000000 0.000000 1.728560 
# 
# From -- ./inp_files/6520.got.cif
#   From: 2010.05.17/outbox.cif.g08.bks.cpg/sg126_4_cif.got.tgz:6520.got - 2010.05.20 11:58:20.
