data_PCOD9563343
_publ_section_title
;
Structure prediction by ZEFSAII (Michael W. Deem and Ramdas Pophale) SiO2 
 PCOD9563343
Probable space group: P 4/N N C
;
_chemical_formula_sum "Si O2"
_cell_formula_units_Z 104
_cell_length_a 20.782395
_cell_length_b 20.782395
_cell_length_c 14.392482
_cell_angle_alpha 90.000000
_cell_angle_beta 90.000000
_cell_angle_gamma 90.000000
_cell_volume 6216.227280
_symmetry_space_group_name_H-M "P 4/N N C"
_symmetry_group_IT_number 126
_space_group.IT_coordinate_system_code '2'
_symmetry_cell_setting 'tetragonal'
loop_
_space_group_symop_operation_xyz
x,y,z
1/2-y,x,z
1/2-x,1/2-y,z
y,1/2-x,z
x,1/2-y,1/2-z
1/2-x,y,1/2-z
y,x,1/2-z
1/2-y,1/2-x,1/2-z
-x,-y,-z
1/2+y,-x,-z
1/2+x,1/2+y,-z
-y,1/2+x,-z
-x,1/2+y,1/2+z
1/2+x,-y,1/2+z
-y,-x,1/2+z
1/2+y,1/2+x,1/2+z
loop_
_atom_site_type_symbol
_atom_site_label
_atom_site_fract_x
_atom_site_fract_y
_atom_site_fract_z
Si Si1 0.033935 0.386932 0.175193
Si Si2 0.490661 0.750000 0.750000
Si Si3 0.674759 0.390270 0.268901
Si Si4 0.332830 0.691744 0.036093
Si Si5 0.345126 0.574116 0.384699
Si Si6 0.030636 0.069400 0.020855
Si Si7 0.580132 0.494161 0.318984
O O1 0.081135 0.418866 0.250000
O O2 0.061738 0.401446 0.072573
O O3 0.024125 0.313199 0.204848
O O4 0.968628 0.431335 0.175634
O O5 0.451901 0.781423 0.664736
O O6 0.750000 0.393479 0.250000
O O7 0.671181 0.341176 0.357078
O O8 0.630994 0.367263 0.183515
O O9 0.645855 0.460524 0.288497
O O10 0.268131 0.667697 0.985285
O O11 0.394605 0.664936 0.984244
O O12 0.394549 0.516185 0.405613
O O13 0.028365 0.095974 0.916909
O O14 0.000000 0.000000 0.000000
O O15 0.543628 0.543628 0.250000
#
# Coordination Sequence:
#
# PCOD9563343 Si02
#       7
#    16   8  16  16  16  16  16
#     4  10  19  36  56  83 110 145 194 235 293 355
#     4  12  22  34  61  83 120 148 190 248 292 374
#     4  12  22  38  58  80 114 154 203 245 286 354
#     4  11  24  38  50  73 116 164 201 235 281 342
#     4  12  22  38  55  83 112 153 198 241 295 349
#     4  10  20  35  60  81 108 145 194 244 291 349
#     4  10  20  39  58  80 113 151 194 251 298 340
#
# _framework density 16.730404
#
# number of rings (size 3 to 8) (size 9 to 14) (size 15 to 20)
#    0.000    1.077    6.154    2.769    0.000    0.000 
#    2.769    0.000    0.000    0.231    0.000    0.000 
#    0.000    0.308    0.000    0.000    0.000    0.000 
#
# Total GULP energy -579010.573325 kJ/mol
# GULP energy per Si atom -5567.409359 kJ/mol
# Density = 1.669232 g / cm^3
# Si number density = 16.730404 Si / 1000 Ang^3
#
#
#
# Elastic Constant Matrix: (Units=GPa)
#
#
# Indices 1 2 3 4 5 6 
#
# 1 56.8699 27.8826 41.9101 0.0000 0.0000 0.0000
# 2 27.8826 56.8715 41.9100 0.0000 0.0000 0.0000
# 3 41.9101 41.9100 94.7792 0.0000 0.0000 0.0000
# 4 0.0000 0.0000 0.0000 28.0381 0.0000 0.0000
# 5 0.0000 0.0000 0.0000 0.0000 28.0382 0.0000
# 6 0.0000 0.0000 0.0000 0.0000 0.0000 24.0708
#
#
#
# Elastic Compliance Matrix: (Units=1/GPa)
#
#
# Indices 1 2 3 4 5 6 
#
# 1 0.027734 -0.006764 -0.009273 0.000000 0.000000 0.000000
# 2 -0.006764 0.027732 -0.009272 0.000000 0.000000 0.000000
# 3 -0.009273 -0.009272 0.018751 0.000000 0.000000 0.000000
# 4 0.000000 0.000000 0.000000 0.035666 0.000000 0.000000
# 5 0.000000 0.000000 0.000000 0.000000 0.035666 0.000000
# 6 0.000000 0.000000 0.000000 0.000000 0.000000 0.041544
#
#
# Mechanical properties :
#
#
# Convention : Reuss Voigt Hill
#
# Bulk Modulus (GPa) = 42.37257 47.99178 45.18217
# Shear Modulus (GPa) = 20.36030 22.48395 21.42213
#
# Velocity S-wave (km/s) = 3.49229 3.66990 3.58219
# Velocity P-wave (km/s) = 6.45315 6.83412 6.64636
#
# Compressibility (1/GPa) = 0.02360017
#
# Stress axis : x y z
#
# Youngs Moduli (GPa) = 36.05730 36.05894 53.33060
#
# Poissons Ratio (x) = 0.24390 0.49451
# Poissons Ratio (y) = 0.24389 0.49448
# Poissons Ratio (z) = 0.33434 0.33434
#
# Static dielectric constant tensor:
#      x y z
#    x 1.583800 0.000000 0.000000 
#    y 0.000000 1.583800 0.000000 
#    z 0.000000 0.000000 1.547120 
# 
# From -- ./inp_files/3916.got.cif
#   From: 2010.05.17/outbox.cif.g08.bks.cpg/sg126_2_cif.got.tgz:3916.got - 2010.05.20 11:58:20.
