data_PCOD9563925
_publ_section_title
;
Structure prediction by ZEFSAII (Michael W. Deem and Ramdas Pophale) SiO2 
 PCOD9563925
Probable space group: P 4/M B M
;
_chemical_formula_sum "Si O2"
_cell_formula_units_Z 72
_cell_length_a 24.475272
_cell_length_b 24.475272
_cell_length_c 7.257433
_cell_angle_alpha 90.000000
_cell_angle_beta 90.000000
_cell_angle_gamma 90.000000
_cell_volume 4347.484968
_symmetry_space_group_name_H-M "P 4/M B M"
_symmetry_group_IT_number 127
_symmetry_cell_setting 'tetragonal'
loop_
_space_group_symop_operation_xyz
x,y,z
-y,x,z
-x,-y,z
y,-x,z
1/2+x,1/2-y,-z
1/2-x,1/2+y,-z
1/2+y,1/2+x,-z
1/2-y,1/2-x,-z
-x,-y,-z
y,-x,-z
x,y,-z
-y,x,-z
1/2-x,1/2+y,z
1/2+x,1/2-y,z
1/2-y,1/2-x,z
1/2+y,1/2+x,z
loop_
_atom_site_type_symbol
_atom_site_label
_atom_site_fract_x
_atom_site_fract_y
_atom_site_fract_z
Si Si1 0.111439 0.611439 0.778483
Si Si2 0.802960 0.610893 0.781322
Si Si3 0.707672 0.593063 0.500000
Si Si4 0.296482 0.203519 0.776414
Si Si5 0.492646 0.174313 0.219375
Si Si6 0.345367 0.291506 0.500000
Si Si7 0.526456 0.730146 0.500000
O O1 0.157207 0.657207 0.735749
O O2 0.052184 0.631035 0.716292
O O3 0.109133 0.609133 0.000000
O O4 0.835992 0.664009 0.721201
O O5 0.747062 0.602873 0.674808
O O6 0.838044 0.556019 0.744080
O O7 0.794268 0.614242 0.000000
O O8 0.667410 0.644125 0.500000
O O9 0.692254 0.528368 0.500000
O O10 0.318591 0.258396 0.674345
O O11 0.290854 0.209147 0.000000
O O12 0.479904 0.230368 0.323591
O O13 0.486712 0.181583 0.000000
O O14 0.411143 0.288674 0.500000
#
# Coordination Sequence:
#
# PCOD9563925 Si02
#       7
#     8  16   8   8  16   8   8
#     4   9  15  27  46  68  94 125 158 201 243 280
#     4   9  18  32  48  65  94 135 170 201 242 287
#     4  10  22  35  50  73  98 124 164 205 241 299
#     4  10  21  33  50  78 110 132 156 202 254 296
#     4   9  17  29  45  67  93 127 169 204 241 289
#     4  11  22  34  53  78 102 131 167 200 248 304
#     4  10  19  34  52  67  93 131 159 198 246 296
#
# _framework density 16.561299000000002
#
# number of rings (size 3 to 8) (size 9 to 14) (size 15 to 20)
#    0.000    2.444    2.222    0.333    3.111    1.333 
#    0.000    0.556    0.000    3.667    0.000    4.667 
#    0.000    0.000    0.000   13.111    0.000    0.000 
#
# Total GULP energy -400810.915775 kJ/mol
# GULP energy per Si atom -5566.818275 kJ/mol
# Density = 1.652361 g / cm^3
# Si number density = 16.561299 Si / 1000 Ang^3
#
#
#
# Elastic Constant Matrix: (Units=GPa)
#
#
# Indices 1 2 3 4 5 6 
#
# 1 68.2677 39.7396 16.9259 0.0000 0.0000 0.0000
# 2 39.7396 68.2679 16.9261 0.0000 0.0000 0.0000
# 3 16.9259 16.9261 78.7620 0.0000 0.0000 0.0000
# 4 0.0000 0.0000 0.0000 14.9529 0.0000 0.0000
# 5 0.0000 0.0000 0.0000 0.0000 14.9529 0.0000
# 6 0.0000 0.0000 0.0000 0.0000 0.0000 26.6170
#
#
#
# Elastic Compliance Matrix: (Units=1/GPa)
#
#
# Indices 1 2 3 4 5 6 
#
# 1 0.022490 -0.012563 -0.002133 0.000000 0.000000 0.000000
# 2 -0.012563 0.022490 -0.002133 0.000000 0.000000 0.000000
# 3 -0.002133 -0.002133 0.013613 0.000000 0.000000 0.000000
# 4 0.000000 0.000000 0.000000 0.066877 0.000000 0.000000
# 5 0.000000 0.000000 0.000000 0.000000 0.066876 0.000000
# 6 0.000000 0.000000 0.000000 0.000000 0.000000 0.037570
#
#
# Mechanical properties :
#
#
# Convention : Reuss Voigt Hill
#
# Bulk Modulus (GPa) = 40.10516 40.27564 40.19040
# Shear Modulus (GPa) = 18.38996 20.75163 19.57079
#
# Velocity S-wave (km/s) = 3.33591 3.54364 3.44134
# Velocity P-wave (km/s) = 6.25352 6.41211 6.33331
#
# Compressibility (1/GPa) = 0.02493445
#
# Stress axis : x y z
#
# Youngs Moduli (GPa) = 44.46388 44.46394 73.45698
#
# Poissons Ratio (x) = 0.55860 0.15671
# Poissons Ratio (y) = 0.55859 0.15671
# Poissons Ratio (z) = 0.09486 0.09486
#
# Static dielectric constant tensor:
#      x y z
#    x 1.565510 0.000000 0.000000 
#    y 0.000000 1.565510 0.000000 
#    z 0.000000 0.000000 1.807330 
# 
# From -- ./inp_files/1809.got.cif
#   From: 2010.05.17/outbox.cif.g08.bks.cpg/sg127_1_cif.got.tgz:1809.got - 2010.05.20 12:03:00.
