data_PCOD9563005
_publ_section_title
;
Structure prediction by ZEFSAII (Michael W. Deem and Ramdas Pophale) SiO2 
 PCOD9563005
Probable space group: P 4/N B M
;
_chemical_formula_sum "Si O2"
_cell_formula_units_Z 96
_cell_length_a 13.970823
_cell_length_b 13.970823
_cell_length_c 22.973022
_cell_angle_alpha 90.000000
_cell_angle_beta 90.000000
_cell_angle_gamma 90.000000
_cell_volume 4483.963921
_symmetry_space_group_name_H-M "P 4/N B M"
_symmetry_group_IT_number 125
_space_group.IT_coordinate_system_code '2'
_symmetry_cell_setting 'tetragonal'
loop_
_space_group_symop_operation_xyz
x,y,z
1/2-y,x,z
1/2-x,1/2-y,z
y,1/2-x,z
x,1/2-y,-z
1/2-x,y,-z
y,x,-z
1/2-y,1/2-x,-z
-x,-y,-z
1/2+y,-x,-z
1/2+x,1/2+y,-z
-y,1/2+x,-z
-x,1/2+y,z
1/2+x,-y,z
-y,-x,z
1/2+y,1/2+x,z
loop_
_atom_site_type_symbol
_atom_site_label
_atom_site_fract_x
_atom_site_fract_y
_atom_site_fract_z
Si Si1 0.865971 0.856471 0.180939
Si Si2 0.117539 0.453936 0.940765
Si Si3 0.257899 0.905191 0.111116
Si Si4 0.189732 0.961764 0.236594
Si Si5 0.909485 0.726929 0.657270
Si Si6 0.509524 0.846471 0.534186
O O1 0.757040 0.875823 0.194096
O O2 0.883983 0.883473 0.114404
O O3 0.958688 0.889290 0.215626
O O4 0.215358 0.513800 0.930808
O O5 0.031693 0.531693 0.936274
O O6 0.102890 0.397111 0.000000
O O7 0.179751 0.820250 0.106917
O O8 0.360218 0.860218 0.095533
O O9 0.252913 0.937457 0.178761
O O10 0.135626 0.864375 0.250553
O O11 0.230592 0.006971 0.294917
O O12 0.853505 0.826986 0.664630
O O13 0.952676 0.696339 0.595195
O O14 0.481121 0.750000 0.500000
O O15 0.422369 0.922369 0.540994
O O16 0.594394 0.905606 0.500000
#
# Coordination Sequence:
#
# PCOD9563005 Si02
#       6
#    16  16  16  16  16  16
#     4  10  20  35  55  77 105 142 188 240 299 368
#     4   9  18  34  56  81 110 144 187 242 303 367
#     4   8  15  31  55  81 113 156 199 242 303 381
#     4  10  20  36  57  85 121 156 198 255 319 389
#     4  11  22  38  63  92 125 167 220 279 335 397
#     4  11  23  42  68  98 134 179 232 286 349 420
#
# _framework density 21.409627
#
# number of rings (size 3 to 8) (size 9 to 14) (size 15 to 20)
#    0.000    2.167    1.667    3.000    0.000    2.333 
#    0.000   13.333    0.000    4.000    0.000    0.000 
#    0.000    0.000    0.000    0.000    0.000    0.000 
#
# Total GULP energy -535236.148277 kJ/mol
# GULP energy per Si atom -5575.376545 kJ/mol
# Density = 2.136090 g / cm^3
# Si number density = 21.409627 Si / 1000 Ang^3
#
#
#
# Elastic Constant Matrix: (Units=GPa)
#
#
# Indices 1 2 3 4 5 6 
#
# 1 70.1925 25.7509 12.8424 0.0000 0.0000 0.0000
# 2 25.7509 70.1922 12.8423 0.0000 0.0000 0.0000
# 3 12.8424 12.8423 97.9955 0.0000 0.0000 0.0000
# 4 0.0000 0.0000 0.0000 21.3403 0.0000 0.0000
# 5 0.0000 0.0000 0.0000 0.0000 21.3403 0.0000
# 6 0.0000 0.0000 0.0000 0.0000 0.0000 23.4744
#
#
#
# Elastic Compliance Matrix: (Units=1/GPa)
#
#
# Indices 1 2 3 4 5 6 
#
# 1 0.016652 -0.005850 -0.001416 0.000000 0.000000 0.000000
# 2 -0.005850 0.016652 -0.001416 0.000000 0.000000 0.000000
# 3 -0.001416 -0.001416 0.010576 0.000000 0.000000 0.000000
# 4 0.000000 0.000000 0.000000 0.046860 0.000000 0.000000
# 5 0.000000 0.000000 0.000000 0.000000 0.046860 0.000000
# 6 0.000000 0.000000 0.000000 0.000000 0.000000 0.042600
#
#
# Mechanical properties :
#
#
# Convention : Reuss Voigt Hill
#
# Bulk Modulus (GPa) = 37.71189 37.91682 37.81435
# Shear Modulus (GPa) = 24.22498 25.69401 24.95949
#
# Velocity S-wave (km/s) = 3.36743 3.46803 3.41810
# Velocity P-wave (km/s) = 5.72469 5.81248 5.76875
#
# Compressibility (1/GPa) = 0.02651684
#
# Stress axis : x y z
#
# Youngs Moduli (GPa) = 60.05426 60.05403 94.55757
#
# Poissons Ratio (x) = 0.35131 0.13385
# Poissons Ratio (y) = 0.35131 0.13385
# Poissons Ratio (z) = 0.08501 0.08501
#
# Static dielectric constant tensor:
#      x y z
#    x 1.814970 0.000000 0.000000 
#    y 0.000000 1.814970 0.000000 
#    z 0.000000 0.000000 1.785660 
# 
# From -- ./inp_files/5910.got.cif
#   From: 2010.05.17/outbox.cif.g08.bks.cpg/sg125_3_cif.got.tgz:5910.got - 2010.05.20 11:54:10.
