data_PCOD9563787
_publ_section_title
;
Structure prediction by ZEFSAII (Michael W. Deem and Ramdas Pophale) SiO2 
 PCOD9563787
Probable space group: P 4/M B M
;
_chemical_formula_sum "Si O2"
_cell_formula_units_Z 96
_cell_length_a 15.203614
_cell_length_b 15.203614
_cell_length_c 23.946357
_cell_angle_alpha 90.000000
_cell_angle_beta 90.000000
_cell_angle_gamma 90.000000
_cell_volume 5535.197515
_symmetry_space_group_name_H-M "P 4/M B M"
_symmetry_group_IT_number 127
_symmetry_cell_setting 'tetragonal'
loop_
_space_group_symop_operation_xyz
x,y,z
-y,x,z
-x,-y,z
y,-x,z
1/2+x,1/2-y,-z
1/2-x,1/2+y,-z
1/2+y,1/2+x,-z
1/2-y,1/2-x,-z
-x,-y,-z
y,-x,-z
x,y,-z
-y,x,-z
1/2-x,1/2+y,z
1/2+x,1/2-y,z
1/2-y,1/2-x,z
1/2+y,1/2+x,z
loop_
_atom_site_type_symbol
_atom_site_label
_atom_site_fract_x
_atom_site_fract_y
_atom_site_fract_z
Si Si1 0.433236 0.367493 0.937227
Si Si2 0.110195 0.902174 0.269488
Si Si3 0.738302 0.094506 0.655282
Si Si4 0.854377 0.494143 0.434818
Si Si5 0.142363 0.497177 0.239597
Si Si6 0.230004 0.123472 0.826956
O O1 0.537289 0.386867 0.932332
O O2 0.402286 0.307354 0.886903
O O3 0.416089 0.333481 0.000000
O O4 0.165280 0.877517 0.324367
O O5 0.144945 0.849446 0.215854
O O6 0.007121 0.882097 0.268230
O O7 0.681087 0.181087 0.643858
O O8 0.724408 0.027971 0.603899
O O9 0.692660 0.044876 0.707934
O O10 0.830692 0.486636 0.500000
O O11 0.930013 0.569988 0.430655
O O12 0.904247 0.404247 0.417326
O O13 0.074278 0.574278 0.257899
O O14 0.211349 0.543766 0.198557
O O15 0.080545 0.419456 0.215098
O O16 0.293361 0.206640 0.830390
#
# Coordination Sequence:
#
# PCOD9563787 Si02
#       6
#    16  16  16  16  16  16
#     4   9  19  37  58  77 101 138 180 218 260 310
#     4  11  22  36  50  70 102 140 180 220 267 315
#     4  10  18  31  51  76 105 136 174 219 266 321
#     4   8  14  26  48  79 110 139 172 213 266 324
#     4   9  18  32  50  75 108 141 169 207 269 333
#     4  11  21  34  54  81 109 136 174 223 271 323
#
# _framework density 17.343554999999999
#
# number of rings (size 3 to 8) (size 9 to 14) (size 15 to 20)
#    0.000    2.333    1.667    3.000    0.000    3.667 
#    0.000    0.000    0.000    2.500    0.000    5.833 
#    0.000    0.000    0.000    0.000    0.000    0.000 
#
# Total GULP energy -534922.591741 kJ/mol
# GULP energy per Si atom -5572.110331 kJ/mol
# Density = 1.730408 g / cm^3
# Si number density = 17.343555 Si / 1000 Ang^3
#
#
#
# Elastic Constant Matrix: (Units=GPa)
#
#
# Indices 1 2 3 4 5 6 
#
# 1 79.3705 20.9075 38.4129 0.0000 0.0000 0.0000
# 2 20.9075 79.3705 38.4129 0.0000 0.0000 0.0000
# 3 38.4129 38.4129 87.2559 0.0000 0.0000 0.0000
# 4 0.0000 0.0000 0.0000 24.2145 0.0000 0.0000
# 5 0.0000 0.0000 0.0000 0.0000 24.2145 0.0000
# 6 0.0000 0.0000 0.0000 0.0000 0.0000 8.8324
#
#
#
# Elastic Compliance Matrix: (Units=1/GPa)
#
#
# Indices 1 2 3 4 5 6 
#
# 1 0.016076 -0.001029 -0.006624 0.000000 0.000000 0.000000
# 2 -0.001029 0.016076 -0.006624 0.000000 0.000000 0.000000
# 3 -0.006624 -0.006624 0.017293 0.000000 0.000000 0.000000
# 4 0.000000 0.000000 0.000000 0.041298 0.000000 0.000000
# 5 0.000000 0.000000 0.000000 0.000000 0.041298 0.000000
# 6 0.000000 0.000000 0.000000 0.000000 0.000000 0.113220
#
#
# Mechanical properties :
#
#
# Convention : Reuss Voigt Hill
#
# Bulk Modulus (GPa) = 47.86888 49.05153 48.46021
# Shear Modulus (GPa) = 17.80762 21.33652 19.57207
#
# Velocity S-wave (km/s) = 3.20778 3.51127 3.36295
# Velocity P-wave (km/s) = 6.43274 6.69196 6.56363
#
# Compressibility (1/GPa) = 0.02089040
#
# Stress axis : x y z
#
# Youngs Moduli (GPa) = 62.20412 62.20412 57.82664
#
# Poissons Ratio (x) = 0.06399 0.38306
# Poissons Ratio (y) = 0.06399 0.38306
# Poissons Ratio (z) = 0.41206 0.41206
#
# Static dielectric constant tensor:
#      x y z
#    x 1.614400 0.000000 0.000000 
#    y 0.000000 1.614400 0.000000 
#    z 0.000000 0.000000 1.578950 
# 
# From -- ./inp_files/5778.got.cif
#   From: 2010.05.17/outbox.cif.g08.bks.cpg/sg127_3_cif.got.tgz:5778.got - 2010.05.20 12:03:00.
