data_PCOD9563876
_publ_section_title
;
Structure prediction by ZEFSAII (Michael W. Deem and Ramdas Pophale) SiO2 
 PCOD9563876
Probable space group: P 4/M B M
;
_chemical_formula_sum "Si O2"
_cell_formula_units_Z 96
_cell_length_a 24.906540
_cell_length_b 24.906540
_cell_length_c 8.250264
_cell_angle_alpha 90.000000
_cell_angle_beta 90.000000
_cell_angle_gamma 90.000000
_cell_volume 5117.933580
_symmetry_space_group_name_H-M "P 4/M B M"
_symmetry_group_IT_number 127
_symmetry_cell_setting 'tetragonal'
loop_
_space_group_symop_operation_xyz
x,y,z
-y,x,z
-x,-y,z
y,-x,z
1/2+x,1/2-y,-z
1/2-x,1/2+y,-z
1/2+y,1/2+x,-z
1/2-y,1/2-x,-z
-x,-y,-z
y,-x,-z
x,y,-z
-y,x,-z
1/2-x,1/2+y,z
1/2+x,1/2-y,z
1/2-y,1/2-x,z
1/2+y,1/2+x,z
loop_
_atom_site_type_symbol
_atom_site_label
_atom_site_fract_x
_atom_site_fract_y
_atom_site_fract_z
Si Si1 0.560195 0.562996 0.197908
Si Si2 0.146769 0.732454 0.309315
Si Si3 0.644800 0.230381 0.804016
Si Si4 0.562421 0.851956 0.808613
Si Si5 0.851633 0.148285 0.193664
Si Si6 0.355619 0.941349 0.305915
O O1 0.498337 0.573908 0.246674
O O2 0.603212 0.606983 0.256011
O O3 0.560429 0.563859 0.000000
O O4 0.154640 0.741275 0.500000
O O5 0.198586 0.698586 0.246282
O O6 0.096004 0.693856 0.281921
O O7 0.136919 0.789403 0.227243
O O8 0.698661 0.198661 0.749343
O O9 0.639477 0.291071 0.742983
O O10 0.594935 0.194168 0.750618
O O11 0.646345 0.231761 0.000000
O O12 0.591977 0.908024 0.769596
O O13 0.500599 0.852961 0.763572
O O14 0.568545 0.842182 0.000000
O O15 0.850013 0.140417 0.000000
O O16 0.355457 0.943938 0.500000
O O17 0.408805 0.908805 0.253217
#
# Coordination Sequence:
#
# PCOD9563876 Si02
#       6
#    16  16  16  16  16  16
#     4   8  15  29  48  72 104 137 168 207 254 301
#     4  10  21  36  53  75 106 140 171 210 264 321
#     4   9  18  32  49  72 105 140 174 219 270 315
#     4  10  21  37  57  79 104 137 177 221 267 315
#     4  10  19  31  53  82 105 133 178 223 262 309
#     4  10  21  36  54  77 107 143 180 219 265 316
#
# _framework density 18.757570000000001
#
# number of rings (size 3 to 8) (size 9 to 14) (size 15 to 20)
#    0.000    2.500    0.000    2.500    0.000    6.000 
#    0.000    6.667    0.000    1.000    0.000    1.167 
#    0.000    0.000    0.000    0.000    0.000    0.000 
#
# Total GULP energy -535539.125138 kJ/mol
# GULP energy per Si atom -5578.532554 kJ/mol
# Density = 1.871488 g / cm^3
# Si number density = 18.757570 Si / 1000 Ang^3
#
#
#
# Elastic Constant Matrix: (Units=GPa)
#
#
# Indices 1 2 3 4 5 6 
#
# 1 158.1437 57.0090 5.3275 0.0000 0.0000 0.0000
# 2 57.0090 158.1437 5.3275 0.0000 0.0000 0.0000
# 3 5.3275 5.3275 4.0772 0.0000 0.0000 0.0000
# 4 0.0000 0.0000 0.0000 5.4974 0.0000 0.0000
# 5 0.0000 0.0000 0.0000 0.0000 5.4974 0.0000
# 6 0.0000 0.0000 0.0000 0.0000 0.0000 21.4522
#
#
#
# Elastic Compliance Matrix: (Units=1/GPa)
#
#
# Indices 1 2 3 4 5 6 
#
# 1 0.007429 -0.002459 -0.006493 0.000000 0.000000 0.000000
# 2 -0.002459 0.007429 -0.006493 0.000000 0.000000 0.000000
# 3 -0.006493 -0.006493 0.262233 0.000000 0.000000 0.000000
# 4 0.000000 0.000000 0.000000 0.181904 0.000000 0.000000
# 5 0.000000 0.000000 0.000000 0.000000 0.181904 0.000000
# 6 0.000000 0.000000 0.000000 0.000000 0.000000 0.046615
#
#
# Mechanical properties :
#
#
# Convention : Reuss Voigt Hill
#
# Bulk Modulus (GPa) = 4.06177 50.63253 27.34715
# Shear Modulus (GPa) = 6.24632 23.33611 14.79122
#
# Velocity S-wave (km/s) = 1.82682 3.53099 2.81115
# Velocity P-wave (km/s) = 2.57289 6.60875 5.01475
#
# Compressibility (1/GPa) = 0.24619830
#
# Stress axis : x y z
#
# Youngs Moduli (GPa) = 134.61456 134.61456 3.81341
#
# Poissons Ratio (x) = 0.33104 0.02476
# Poissons Ratio (y) = 0.33104 0.02476
# Poissons Ratio (z) = 0.87409 0.87409
#
# Static dielectric constant tensor:
#      x y z
#    x 1.636450 0.000000 0.000000 
#    y 0.000000 1.636450 0.000000 
#    z 0.000000 0.000000 1.650870 
# 
# From -- ./inp_files/1931.got.cif
#   From: 2010.05.17/outbox.cif.g08.bks.cpg/sg127_1_cif.got.tgz:1931.got - 2010.05.20 12:03:00.
