data_PCOD9563452
_publ_section_title
;
Structure prediction by ZEFSAII (Michael W. Deem and Ramdas Pophale) SiO2 
 PCOD9563452
Probable space group: P 4/N N C
;
_chemical_formula_sum "Si O2"
_cell_formula_units_Z 80
_cell_length_a 26.588286
_cell_length_b 26.588286
_cell_length_c 5.694501
_cell_angle_alpha 90.000000
_cell_angle_beta 90.000000
_cell_angle_gamma 90.000000
_cell_volume 4025.653182
_symmetry_space_group_name_H-M "P 4/N N C"
_symmetry_group_IT_number 126
_space_group.IT_coordinate_system_code '2'
_symmetry_cell_setting 'tetragonal'
loop_
_space_group_symop_operation_xyz
x,y,z
1/2-y,x,z
1/2-x,1/2-y,z
y,1/2-x,z
x,1/2-y,1/2-z
1/2-x,y,1/2-z
y,x,1/2-z
1/2-y,1/2-x,1/2-z
-x,-y,-z
1/2+y,-x,-z
1/2+x,1/2+y,-z
-y,1/2+x,-z
-x,1/2+y,1/2+z
1/2+x,-y,1/2+z
-y,-x,1/2+z
1/2+y,1/2+x,1/2+z
loop_
_atom_site_type_symbol
_atom_site_label
_atom_site_fract_x
_atom_site_fract_y
_atom_site_fract_z
Si Si1 0.197304 0.990941 0.762997
Si Si2 0.040397 0.040397 0.750000
Si Si3 0.094229 0.557932 0.603204
Si Si4 0.294765 0.090143 0.434380
Si Si5 0.657199 0.657199 0.250000
Si Si6 0.941210 0.638540 0.550165
O O1 0.250000 0.961808 0.750000
O O2 0.150707 0.963744 0.886401
O O3 0.173513 0.011246 0.518632
O O4 0.211858 0.041070 0.908151
O O5 0.083664 0.046412 0.549183
O O6 0.988149 0.054054 0.624505
O O7 0.086500 0.584887 0.352056
O O8 0.250000 0.092845 0.250000
O O9 0.299296 0.143895 0.566191
O O10 0.348135 0.076299 0.310502
O O11 0.657466 0.605793 0.397121
#
# Coordination Sequence:
#
# PCOD9563452 Si02
#       6
#    16   8  16  16   8  16
#     4  10  21  37  58  85 113 160 211 260 312 367
#     4   9  20  38  58  76 124 168 220 240 294 367
#     4  11  25  41  58  87 128 174 215 253 302 382
#     4  11  20  33  58  79 119 156 201 266 328 372
#     4   9  20  30  44  80 112 148 184 246 318 386
#     4   9  18  35  51  81 111 154 195 258 301 357
#
# _framework density 19.872551999999999
#
# number of rings (size 3 to 8) (size 9 to 14) (size 15 to 20)
#    0.000    2.000    2.000    2.400    5.600    0.000 
#   10.800    0.000    0.000    0.000    0.000    0.000 
#    0.000   56.800    0.000    0.000    0.000    0.000 
#
# Total GULP energy -445913.563322 kJ/mol
# GULP energy per Si atom -5573.919542 kJ/mol
# Density = 1.982732 g / cm^3
# Si number density = 19.872552 Si / 1000 Ang^3
#
#
#
# Elastic Constant Matrix: (Units=GPa)
#
#
# Indices 1 2 3 4 5 6 
#
# 1 78.7180 36.3015 34.5449 0.0000 0.0000 0.0000
# 2 36.3015 78.7180 34.5449 0.0000 0.0000 0.0000
# 3 34.5449 34.5449 96.1280 0.0000 0.0000 0.0000
# 4 0.0000 0.0000 0.0000 29.3625 0.0000 0.0000
# 5 0.0000 0.0000 0.0000 0.0000 29.3625 0.0000
# 6 0.0000 0.0000 0.0000 0.0000 0.0000 17.5569
#
#
#
# Elastic Compliance Matrix: (Units=1/GPa)
#
#
# Indices 1 2 3 4 5 6 
#
# 1 0.017332 -0.006244 -0.003984 0.000000 0.000000 0.000000
# 2 -0.006244 0.017332 -0.003984 0.000000 0.000000 0.000000
# 3 -0.003984 -0.003984 0.013267 0.000000 0.000000 0.000000
# 4 0.000000 0.000000 0.000000 0.034057 0.000000 0.000000
# 5 0.000000 0.000000 0.000000 0.000000 0.034057 0.000000
# 6 0.000000 0.000000 0.000000 0.000000 0.000000 0.056958
#
#
# Mechanical properties :
#
#
# Convention : Reuss Voigt Hill
#
# Bulk Modulus (GPa) = 51.27206 51.59408 51.43307
# Shear Modulus (GPa) = 24.04671 25.13458 24.59064
#
# Velocity S-wave (km/s) = 3.48235 3.56025 3.52151
# Velocity P-wave (km/s) = 6.48270 6.55128 6.51708
#
# Compressibility (1/GPa) = 0.01950380
#
# Stress axis : x y z
#
# Youngs Moduli (GPa) = 57.69796 57.69796 75.37759
#
# Poissons Ratio (x) = 0.36027 0.30034
# Poissons Ratio (y) = 0.36027 0.30034
# Poissons Ratio (z) = 0.22990 0.22990
#
# Static dielectric constant tensor:
#      x y z
#    x 1.762390 0.000000 0.000000 
#    y 0.000000 1.762390 0.000000 
#    z 0.000000 0.000000 2.001190 
# 
# From -- ./inp_files/619.got.cif
#   From: 2010.05.17/outbox.cif.g08.bks.cpg/sg126_1_cif.got.tgz:619.got - 2010.05.20 11:58:20.
