data_PCOD9563037
_publ_section_title
;
Structure prediction by ZEFSAII (Michael W. Deem and Ramdas Pophale) SiO2 
 PCOD9563037
Probable space group: P 4/N B M
;
_chemical_formula_sum "Si O2"
_cell_formula_units_Z 128
_cell_length_a 22.936490
_cell_length_b 22.936490
_cell_length_c 12.040018
_cell_angle_alpha 90.000000
_cell_angle_beta 90.000000
_cell_angle_gamma 90.000000
_cell_volume 6334.043655
_symmetry_space_group_name_H-M "P 4/N B M"
_symmetry_group_IT_number 125
_space_group.IT_coordinate_system_code '2'
_symmetry_cell_setting 'tetragonal'
loop_
_space_group_symop_operation_xyz
x,y,z
1/2-y,x,z
1/2-x,1/2-y,z
y,1/2-x,z
x,1/2-y,-z
1/2-x,y,-z
y,x,-z
1/2-y,1/2-x,-z
-x,-y,-z
1/2+y,-x,-z
1/2+x,1/2+y,-z
-y,1/2+x,-z
-x,1/2+y,z
1/2+x,-y,z
-y,-x,z
1/2+y,1/2+x,z
loop_
_atom_site_type_symbol
_atom_site_label
_atom_site_fract_x
_atom_site_fract_y
_atom_site_fract_z
Si Si1 0.930090 0.336576 0.564506
Si Si2 0.824538 0.687173 0.370128
Si Si3 0.628493 0.274454 0.127673
Si Si4 0.473441 0.071438 0.607289
Si Si5 0.496610 0.678234 0.905825
Si Si6 0.289239 0.572644 0.321802
Si Si7 0.977968 0.691268 0.855368
Si Si8 0.900892 0.610247 0.208446
O O1 0.876221 0.376221 0.605010
O O2 0.921212 0.329255 0.431255
O O3 0.932516 0.274095 0.621353
O O4 0.989458 0.369458 0.598099
O O5 0.829119 0.756675 0.350128
O O6 0.830349 0.669652 0.500000
O O7 0.871263 0.656786 0.291212
O O8 0.685109 0.314892 0.144796
O O9 0.568930 0.313389 0.140044
O O10 0.619362 0.224000 0.221829
O O11 0.629247 0.250000 0.000000
O O12 0.434093 0.065908 0.500000
O O13 0.432552 0.064394 0.712056
O O14 0.521053 0.021053 0.606442
O O15 0.527884 0.740119 0.879514
O O16 0.544614 0.633581 0.862010
O O17 0.487554 0.669227 0.036725
O O18 0.310968 0.515541 0.256330
O O19 0.920084 0.652983 0.852254
#
# Coordination Sequence:
#
# PCOD9563037 Si02
#       8
#    16  16  16  16  16  16  16  16
#     4  10  21  37  60  87 117 158 199 241 308 379
#     4   9  19  35  52  79 118 155 198 258 325 379
#     4  11  22  42  69  95 125 162 207 259 316 377
#     4  10  21  36  51  76 114 150 191 243 296 358
#     4  10  21  40  58  84 123 161 207 260 319 381
#     4  10  20  38  61  87 119 157 198 248 304 381
#     4  10  20  38  57  83 118 160 209 252 314 372
#     4  12  21  32  60  87 113 157 211 264 309 368
#
# _framework density 20.208259999999999
#
# number of rings (size 3 to 8) (size 9 to 14) (size 15 to 20)
#    0.000    1.750    2.500    4.500    0.000    2.125 
#    0.000    4.375    0.000    7.500    0.000    5.250 
#    0.000    0.000    0.000    0.000    0.000    0.000 
#
# Total GULP energy -712937.939711 kJ/mol
# GULP energy per Si atom -5569.827654 kJ/mol
# Density = 2.016226 g / cm^3
# Si number density = 20.208260 Si / 1000 Ang^3
#
#
#
# Elastic Constant Matrix: (Units=GPa)
#
#
# Indices 1 2 3 4 5 6 
#
# 1 32.8618 25.8767 0.0590 0.0000 0.0000 0.0000
# 2 25.8767 32.8598 0.0583 0.0000 0.0000 0.0000
# 3 0.0590 0.0583 82.4970 0.0000 0.0000 0.0000
# 4 0.0000 0.0000 0.0000 23.6535 0.0000 0.0000
# 5 0.0000 0.0000 0.0000 0.0000 23.6536 0.0000
# 6 0.0000 0.0000 0.0000 0.0000 0.0000 7.6393
#
#
#
# Elastic Compliance Matrix: (Units=1/GPa)
#
#
# Indices 1 2 3 4 5 6 
#
# 1 0.080101 -0.063078 -0.000013 0.000000 0.000000 0.000000
# 2 -0.063078 0.080106 -0.000012 0.000000 0.000000 0.000000
# 3 -0.000013 -0.000012 0.012122 0.000000 0.000000 0.000000
# 4 0.000000 0.000000 0.000000 0.042277 0.000000 0.000000
# 5 0.000000 0.000000 0.000000 0.000000 0.042277 0.000000
# 6 0.000000 0.000000 0.000000 0.000000 0.000000 0.130901
#
#
# Mechanical properties :
#
#
# Convention : Reuss Voigt Hill
#
# Bulk Modulus (GPa) = 21.68112 22.24519 21.96315
# Shear Modulus (GPa) = 9.44532 19.13760 14.29146
#
# Velocity S-wave (km/s) = 2.16429 3.08071 2.66222
# Velocity P-wave (km/s) = 4.12282 4.86685 4.51020
#
# Compressibility (1/GPa) = 0.04612308
#
# Stress axis : x y z
#
# Youngs Moduli (GPa) = 12.48428 12.48350 82.49692
#
# Poissons Ratio (x) = 0.78744 0.00105
# Poissons Ratio (y) = 0.78749 0.00095
# Poissons Ratio (z) = 0.00016 0.00014
#
# Static dielectric constant tensor:
#      x y z
#    x 1.724990 0.000000 0.000000 
#    y 0.000000 1.724990 0.000000 
#    z 0.000000 0.000000 1.775340 
# 
# From -- ./inp_files/4382.got.cif
#   From: 2010.05.17/outbox.cif.g08.bks.cpg/sg125_3_cif.got.tgz:4382.got - 2010.05.20 11:54:10.
