data_PCOD9563906
_publ_section_title
;
Structure prediction by ZEFSAII (Michael W. Deem and Ramdas Pophale) SiO2 
 PCOD9563906
Probable space group: P 4/M B M
;
_chemical_formula_sum "Si O2"
_cell_formula_units_Z 104
_cell_length_a 18.567492
_cell_length_b 18.567492
_cell_length_c 17.013801
_cell_angle_alpha 90.000000
_cell_angle_beta 90.000000
_cell_angle_gamma 90.000000
_cell_volume 5865.537825
_symmetry_space_group_name_H-M "P 4/M B M"
_symmetry_group_IT_number 127
_symmetry_cell_setting 'tetragonal'
loop_
_space_group_symop_operation_xyz
x,y,z
-y,x,z
-x,-y,z
y,-x,z
1/2+x,1/2-y,-z
1/2-x,1/2+y,-z
1/2+y,1/2+x,-z
1/2-y,1/2-x,-z
-x,-y,-z
y,-x,-z
x,y,-z
-y,x,-z
1/2-x,1/2+y,z
1/2+x,1/2-y,z
1/2-y,1/2-x,z
1/2+y,1/2+x,z
loop_
_atom_site_type_symbol
_atom_site_label
_atom_site_fract_x
_atom_site_fract_y
_atom_site_fract_z
Si Si1 0.833172 0.142799 0.500000
Si Si2 0.061179 0.438822 0.593037
Si Si3 0.438455 0.599375 0.904686
Si Si4 0.164300 0.218546 0.669707
Si Si5 0.489257 0.787031 0.659742
Si Si6 0.812098 0.196413 0.093688
Si Si7 0.021864 0.785474 0.500000
Si Si8 0.380933 0.238116 0.233144
O O1 0.800609 0.176420 0.578573
O O2 0.918097 0.154003 0.500000
O O3 0.814271 0.059022 0.500000
O O4 0.076721 0.423280 0.500000
O O5 0.132997 0.464931 0.636465
O O6 0.000000 0.500000 0.595617
O O7 0.403104 0.522364 0.878897
O O8 0.386112 0.666532 0.884493
O O9 0.440911 0.598032 0.000000
O O10 0.212541 0.287460 0.690919
O O11 0.192972 0.152769 0.721630
O O12 0.081070 0.238999 0.676407
O O13 0.528904 0.759186 0.580522
O O14 0.541935 0.780472 0.733164
O O15 0.734535 0.234535 0.113246
O O16 0.869949 0.243815 0.141750
O O17 0.820462 0.202275 0.000000
O O18 0.328119 0.171882 0.252844
#
# Coordination Sequence:
#
# PCOD9563906 Si02
#       8
#     8   8  16  16  16  16   8  16
#     4  10  19  33  51  74 101 142 181 214 247 307
#     4  11  22  34  52  78 107 139 173 224 281 317
#     4   8  14  26  47  75 103 130 161 202 259 321
#     4  10  20  33  53  74 102 140 177 214 260 313
#     4  11  20  36  53  76 109 138 179 221 263 317
#     4   9  18  33  52  75 105 138 174 219 268 325
#     4  10  20  32  53  75 104 143 182 214 257 301
#     4  10  21  35  52  77 104 137 178 218 266 321
#
# _framework density 17.730685000000001
#
# number of rings (size 3 to 8) (size 9 to 14) (size 15 to 20)
#    0.000    2.231    3.077    1.154    0.000    1.385 
#    0.000    0.000    0.000    0.462    0.000    0.538 
#    0.000    3.077    0.000    0.462    0.000    0.000 
#
# Total GULP energy -579240.437928 kJ/mol
# GULP energy per Si atom -5569.619595 kJ/mol
# Density = 1.769033 g / cm^3
# Si number density = 17.730685 Si / 1000 Ang^3
#
#
#
# Elastic Constant Matrix: (Units=GPa)
#
#
# Indices 1 2 3 4 5 6 
#
# 1 -3.4967 85.0365 7.0843 0.0000 0.0000 0.0000
# 2 85.0365 -3.4980 7.0846 0.0000 0.0000 0.0000
# 3 7.0843 7.0846 44.0784 0.0000 0.0000 0.0000
# 4 0.0000 0.0000 0.0000 15.0772 0.0000 0.0000
# 5 0.0000 0.0000 0.0000 0.0000 15.0770 0.0000
# 6 0.0000 0.0000 0.0000 0.0000 0.0000 19.5496
#
#
#
# Elastic Compliance Matrix: (Units=1/GPa)
#
#
# Indices 1 2 3 4 5 6 
#
# 1 0.000661 0.011956 -0.002028 0.000000 0.000000 0.000000
# 2 0.011956 0.000661 -0.002028 0.000000 0.000000 0.000000
# 3 -0.002028 -0.002028 0.023339 0.000000 0.000000 0.000000
# 4 0.000000 0.000000 0.000000 0.066325 0.000000 0.000000
# 5 0.000000 0.000000 0.000000 0.000000 0.066326 0.000000
# 6 0.000000 0.000000 0.000000 0.000000 0.000000 0.051152
#
#
# Mechanical properties :
#
#
# Convention : Reuss Voigt Hill
#
# Bulk Modulus (GPa) = 24.71546 26.16603 25.44075
# Shear Modulus (GPa) = 24.25420 5.79932 15.02676
#
# Velocity S-wave (km/s) = 3.70256 1.81049 2.91434
# Velocity P-wave (km/s) = 5.67875 4.37722 5.06992
#
# Compressibility (1/GPa) = 0.04046050
#
# Stress axis : x y z
#
# Youngs Moduli (GPa) = 1513.45705 1513.91330 42.84732
#
# Poissons Ratio (x) = -18.09999 0.08689
# Poissons Ratio (y) = -18.09453 0.08688
# Poissons Ratio (z) = 3.06899 3.06975
#
# Static dielectric constant tensor:
#      x y z
#    x 1.610210 0.000000 0.000000 
#    y 0.000000 1.610210 0.000000 
#    z 0.000000 0.000000 1.622310 
# 
# From -- ./inp_files/5261.got.cif
#   From: 2010.05.17/outbox.cif.g08.bks.cpg/sg127_3_cif.got.tgz:5261.got - 2010.05.20 12:03:00.
