data_PCOD9563666
_publ_section_title
;
Structure prediction by ZEFSAII (Michael W. Deem and Ramdas Pophale) SiO2 
 PCOD9563666
Probable space group: P 4/N N C
;
_chemical_formula_sum "Si O2"
_cell_formula_units_Z 88
_cell_length_a 15.759957
_cell_length_b 15.759957
_cell_length_c 15.835533
_cell_angle_alpha 90.000000
_cell_angle_beta 90.000000
_cell_angle_gamma 90.000000
_cell_volume 3933.170218
_symmetry_space_group_name_H-M "P 4/N N C"
_symmetry_group_IT_number 126
_space_group.IT_coordinate_system_code '2'
_symmetry_cell_setting 'tetragonal'
loop_
_space_group_symop_operation_xyz
x,y,z
1/2-y,x,z
1/2-x,1/2-y,z
y,1/2-x,z
x,1/2-y,1/2-z
1/2-x,y,1/2-z
y,x,1/2-z
1/2-y,1/2-x,1/2-z
-x,-y,-z
1/2+y,-x,-z
1/2+x,1/2+y,-z
-y,1/2+x,-z
-x,1/2+y,1/2+z
1/2+x,-y,1/2+z
-y,-x,1/2+z
1/2+y,1/2+x,1/2+z
loop_
_atom_site_type_symbol
_atom_site_label
_atom_site_fract_x
_atom_site_fract_y
_atom_site_fract_z
Si Si1 0.609836 0.278649 0.001693
Si Si2 0.631836 0.676465 0.614914
Si Si3 0.035310 0.785675 0.339536
Si Si4 0.584031 0.171978 0.315531
Si Si5 0.058988 0.058988 0.250000
Si Si6 0.818988 0.872308 0.085393
O O1 0.562235 0.297931 0.089390
O O2 0.686086 0.346002 0.989768
O O3 0.550631 0.276604 0.919400
O O4 0.724434 0.637989 0.635201
O O5 0.569771 0.626550 0.674423
O O6 0.616937 0.669990 0.515237
O O7 0.007951 0.750000 0.250000
O O8 0.128990 0.824018 0.324107
O O9 0.958736 0.846621 0.370002
O O10 0.580656 0.250000 0.250000
O O11 0.528687 0.090566 0.288615
O O12 0.718371 0.860477 0.106070
#
# Coordination Sequence:
#
# PCOD9563666 Si02
#       6
#    16  16  16  16   8  16
#     4   9  20  41  66  91 123 171 227 273 325 391
#     4   9  18  35  59  90 124 170 212 252 309 392
#     4  11  24  42  67  93 126 175 224 277 332 395
#     4  11  25  42  65  99 135 168 217 277 345 407
#     4  12  24  35  62  98 136 167 202 272 348 408
#     4   9  21  40  65  93 128 170 222 271 321 389
#
# _framework density 22.373811
#
# number of rings (size 3 to 8) (size 9 to 14) (size 15 to 20)
#    0.000    2.000    0.000    3.818    7.636    4.727 
#    0.000    1.818    0.000    0.000    0.000    0.000 
#    0.000    0.000    0.000    0.000    0.000    0.000 
#
# Total GULP energy -491210.196657 kJ/mol
# GULP energy per Si atom -5581.934053 kJ/mol
# Density = 2.232289 g / cm^3
# Si number density = 22.373811 Si / 1000 Ang^3
#
#
#
# Elastic Constant Matrix: (Units=GPa)
#
#
# Indices 1 2 3 4 5 6 
#
# 1 51.5093 -5.3370 16.1862 0.0000 0.0000 0.0000
# 2 -5.3370 51.5093 16.1862 0.0000 0.0000 0.0000
# 3 16.1862 16.1862 100.8322 0.0000 0.0000 0.0000
# 4 0.0000 0.0000 0.0000 26.8532 0.0000 0.0000
# 5 0.0000 0.0000 0.0000 0.0000 26.8532 0.0000
# 6 0.0000 0.0000 0.0000 0.0000 0.0000 23.0326
#
#
#
# Elastic Compliance Matrix: (Units=1/GPa)
#
#
# Indices 1 2 3 4 5 6 
#
# 1 0.020998 0.003407 -0.003918 0.000000 0.000000 0.000000
# 2 0.003407 0.020998 -0.003918 0.000000 0.000000 0.000000
# 3 -0.003918 -0.003918 0.011175 0.000000 0.000000 0.000000
# 4 0.000000 0.000000 0.000000 0.037240 0.000000 0.000000
# 5 0.000000 0.000000 0.000000 0.000000 0.037240 0.000000
# 6 0.000000 0.000000 0.000000 0.000000 0.000000 0.043417
#
#
# Mechanical properties :
#
#
# Convention : Reuss Voigt Hill
#
# Bulk Modulus (GPa) = 22.56607 28.65794 25.61201
# Shear Modulus (GPa) = 25.68115 27.13550 26.40832
#
# Velocity S-wave (km/s) = 3.39163 3.48634 3.43931
# Velocity P-wave (km/s) = 5.04434 5.38912 5.21958
#
# Compressibility (1/GPa) = 0.04431432
#
# Stress axis : x y z
#
# Youngs Moduli (GPa) = 47.62355 47.62355 89.48369
#
# Poissons Ratio (x) = -0.16224 0.35056
# Poissons Ratio (y) = -0.16224 0.35056
# Poissons Ratio (z) = 0.18657 0.18657
#
# Static dielectric constant tensor:
#      x y z
#    x 1.875990 0.000000 0.000000 
#    y 0.000000 1.875990 0.000000 
#    z 0.000000 0.000000 1.854120 
# 
# From -- ./inp_files/3735.got.cif
#   From: 2010.05.17/outbox.cif.g08.bks.cpg/sg126_2_cif.got.tgz:3735.got - 2010.05.20 11:58:20.
