data_PCOD9563751
_publ_section_title
;
Structure prediction by ZEFSAII (Michael W. Deem and Ramdas Pophale) SiO2 
 PCOD9563751
Probable space group: P 4/M B M
;
_chemical_formula_sum "Si O2"
_cell_formula_units_Z 120
_cell_length_a 17.291001
_cell_length_b 17.291001
_cell_length_c 20.263100
_cell_angle_alpha 90.000000
_cell_angle_beta 90.000000
_cell_angle_gamma 90.000000
_cell_volume 6058.235612
_symmetry_space_group_name_H-M "P 4/M B M"
_symmetry_group_IT_number 127
_symmetry_cell_setting 'tetragonal'
loop_
_space_group_symop_operation_xyz
x,y,z
-y,x,z
-x,-y,z
y,-x,z
1/2+x,1/2-y,-z
1/2-x,1/2+y,-z
1/2+y,1/2+x,-z
1/2-y,1/2-x,-z
-x,-y,-z
y,-x,-z
x,y,-z
-y,x,-z
1/2-x,1/2+y,z
1/2+x,1/2-y,z
1/2-y,1/2-x,z
1/2+y,1/2+x,z
loop_
_atom_site_type_symbol
_atom_site_label
_atom_site_fract_x
_atom_site_fract_y
_atom_site_fract_z
Si Si1 0.038435 0.882954 0.868689
Si Si2 0.471591 0.840880 0.820342
Si Si3 0.565116 0.934885 0.075336
Si Si4 0.371934 0.995760 0.425475
Si Si5 0.075804 0.707131 0.304864
Si Si6 0.733956 0.108798 0.072167
Si Si7 0.361585 0.256893 0.075588
Si Si8 0.615300 0.450957 0.289612
O O1 0.068733 0.800329 0.890288
O O2 0.043402 0.886806 0.789924
O O3 0.953015 0.905910 0.892830
O O4 0.410682 0.910682 0.803258
O O5 0.525000 0.869176 0.881011
O O6 0.524285 0.818235 0.758517
O O7 0.426942 0.769751 0.854504
O O8 0.500000 0.000000 0.071559
O O9 0.583703 0.916298 0.000000
O O10 0.339748 0.991261 0.500000
O O11 0.440022 0.059979 0.427044
O O12 0.315513 0.025856 0.369308
O O13 0.415072 0.915072 0.409782
O O14 0.154520 0.654520 0.304286
O O15 0.083423 0.800284 0.305700
O O16 0.649537 0.149537 0.068273
O O17 0.795637 0.177267 0.074262
O O18 0.744158 0.068547 0.000000
O O19 0.318789 0.181212 0.104032
O O20 0.381319 0.241984 0.000000
O O21 0.599192 0.540271 0.311573
#
# Coordination Sequence:
#
# PCOD9563751 Si02
#       8
#    16  16   8  16  16  16  16  16
#     4   9  19  35  56  78  99 131 179 231 283 342
#     4  10  18  27  43  73 112 150 185 230 285 344
#     4   9  16  26  40  60  99 155 197 221 267 353
#     4   8  15  30  54  86 129 177 207 226 275 352
#     4  11  21  33  56  91 123 146 189 253 303 345
#     4   8  15  27  42  63  95 140 186 220 267 343
#     4   9  18  32  51  75 101 130 169 226 294 359
#     4   9  21  42  62  79 108 154 200 238 285 354
#
# _framework density 19.807746999999999
#
# number of rings (size 3 to 8) (size 9 to 14) (size 15 to 20)
#    0.000    2.867    0.667    2.800    3.733    3.200 
#    0.000    2.000    0.000    0.800    0.000    2.800 
#    0.000    0.000    0.000    0.133    0.000    0.000 
#
# Total GULP energy -669044.572290 kJ/mol
# GULP energy per Si atom -5575.371436 kJ/mol
# Density = 1.976266 g / cm^3
# Si number density = 19.807747 Si / 1000 Ang^3
#
#
#
# Elastic Constant Matrix: (Units=GPa)
#
#
# Indices 1 2 3 4 5 6 
#
# 1 111.3027 54.9112 27.4606 0.0000 0.0000 0.0000
# 2 54.9112 111.3026 27.4606 0.0000 0.0000 0.0000
# 3 27.4606 27.4606 69.3356 0.0000 0.0000 0.0000
# 4 0.0000 0.0000 0.0000 11.6061 0.0000 0.0000
# 5 0.0000 0.0000 0.0000 0.0000 11.6061 0.0000
# 6 0.0000 0.0000 0.0000 0.0000 0.0000 34.5758
#
#
#
# Elastic Compliance Matrix: (Units=1/GPa)
#
#
# Indices 1 2 3 4 5 6 
#
# 1 0.012328 -0.005405 -0.002742 0.000000 0.000000 0.000000
# 2 -0.005405 0.012328 -0.002742 0.000000 0.000000 0.000000
# 3 -0.002742 -0.002742 0.016594 0.000000 0.000000 0.000000
# 4 0.000000 0.000000 0.000000 0.086161 0.000000 0.000000
# 5 0.000000 0.000000 0.000000 0.000000 0.086161 0.000000
# 6 0.000000 0.000000 0.000000 0.000000 0.000000 0.028922
#
#
# Mechanical properties :
#
#
# Convention : Reuss Voigt Hill
#
# Bulk Modulus (GPa) = 51.35473 56.84506 54.09990
# Shear Modulus (GPa) = 18.46639 23.69818 21.08229
#
# Velocity S-wave (km/s) = 3.05664 3.46267 3.26597
# Velocity P-wave (km/s) = 6.20002 6.68935 6.44933
#
# Compressibility (1/GPa) = 0.01947240
#
# Stress axis : x y z
#
# Youngs Moduli (GPa) = 81.11808 81.11801 60.26189
#
# Poissons Ratio (x) = 0.43848 0.16521
# Poissons Ratio (y) = 0.43848 0.16521
# Poissons Ratio (z) = 0.22239 0.22239
#
# Static dielectric constant tensor:
#      x y z
#    x 1.780590 0.000000 0.000000 
#    y 0.000000 1.780590 0.000000 
#    z 0.000000 0.000000 1.673400 
# 
# From -- ./inp_files/5973.got.cif
#   From: 2010.05.17/outbox.cif.g08.bks.cpg/sg127_3_cif.got.tgz:5973.got - 2010.05.20 12:03:00.
