data_PCOD9563928
_publ_section_title
;
Structure prediction by ZEFSAII (Michael W. Deem and Ramdas Pophale) SiO2 
 PCOD9563928
Probable space group: P 4/M B M
;
_chemical_formula_sum "Si O2"
_cell_formula_units_Z 96
_cell_length_a 15.393625
_cell_length_b 15.393625
_cell_length_c 22.509879
_cell_angle_alpha 90.000000
_cell_angle_beta 90.000000
_cell_angle_gamma 90.000000
_cell_volume 5334.024004
_symmetry_space_group_name_H-M "P 4/M B M"
_symmetry_group_IT_number 127
_symmetry_cell_setting 'tetragonal'
loop_
_space_group_symop_operation_xyz
x,y,z
-y,x,z
-x,-y,z
y,-x,z
1/2+x,1/2-y,-z
1/2-x,1/2+y,-z
1/2+y,1/2+x,-z
1/2-y,1/2-x,-z
-x,-y,-z
y,-x,-z
x,y,-z
-y,x,-z
1/2-x,1/2+y,z
1/2+x,1/2-y,z
1/2-y,1/2-x,z
1/2+y,1/2+x,z
loop_
_atom_site_type_symbol
_atom_site_label
_atom_site_fract_x
_atom_site_fract_y
_atom_site_fract_z
Si Si1 0.120003 0.928496 0.246227
Si Si2 0.525562 0.357455 0.929890
Si Si3 0.994738 0.358477 0.274284
Si Si4 0.274250 0.918244 0.167997
Si Si5 0.704855 0.530369 0.633978
Si Si6 0.842580 0.200113 0.428997
O O1 0.199698 0.883758 0.213335
O O2 0.133463 0.938094 0.316902
O O3 0.029755 0.885456 0.228216
O O4 0.597190 0.432630 0.918130
O O5 0.545170 0.275661 0.888759
O O6 0.529004 0.336890 0.000000
O O7 0.901274 0.401274 0.281964
O O8 0.066748 0.433253 0.280236
O O9 0.008570 0.320139 0.208481
O O10 0.015366 0.287494 0.323720
O O11 0.344066 0.844066 0.154058
O O12 0.707863 0.612158 0.589964
O O13 0.694613 0.439257 0.599449
O O14 0.851394 0.203502 0.500000
O O15 0.783783 0.283783 0.410270
#
# Coordination Sequence:
#
# PCOD9563928 Si02
#       6
#    16  16  16  16  16  16
#     4  10  19  34  53  76 105 137 180 224 270 330
#     4   9  18  35  58  80 105 144 188 226 267 319
#     4   9  19  36  57  79 106 146 190 231 276 331
#     4  10  20  32  51  81 114 145 177 224 280 327
#     4  11  20  37  57  81 109 145 184 229 283 340
#     4  11  24  39  57  83 114 147 186 234 285 344
#
# _framework density 17.997668000000001
#
# number of rings (size 3 to 8) (size 9 to 14) (size 15 to 20)
#    0.000    2.000    1.667    3.000    0.000    2.667 
#    0.000    5.833    0.000    1.500    0.000    9.333 
#    0.000    0.000    0.000    0.000    0.000    0.000 
#
# Total GULP energy -534988.706483 kJ/mol
# GULP energy per Si atom -5572.799026 kJ/mol
# Density = 1.795670 g / cm^3
# Si number density = 17.997668 Si / 1000 Ang^3
#
#
#
# Elastic Constant Matrix: (Units=GPa)
#
#
# Indices 1 2 3 4 5 6 
#
# 1 70.7357 29.4492 38.0841 0.0000 0.0000 0.0000
# 2 29.4492 70.7357 38.0841 0.0000 0.0000 0.0000
# 3 38.0841 38.0841 96.0928 0.0000 0.0000 0.0000
# 4 0.0000 0.0000 0.0000 27.9468 0.0000 0.0000
# 5 0.0000 0.0000 0.0000 0.0000 27.9468 0.0000
# 6 0.0000 0.0000 0.0000 0.0000 0.0000 9.7355
#
#
#
# Elastic Compliance Matrix: (Units=1/GPa)
#
#
# Indices 1 2 3 4 5 6 
#
# 1 0.019254 -0.004967 -0.005662 0.000000 0.000000 0.000000
# 2 -0.004967 0.019254 -0.005662 0.000000 0.000000 0.000000
# 3 -0.005662 -0.005662 0.014895 0.000000 0.000000 0.000000
# 4 0.000000 0.000000 0.000000 0.035782 0.000000 0.000000
# 5 0.000000 0.000000 0.000000 0.000000 0.035782 0.000000
# 6 0.000000 0.000000 0.000000 0.000000 0.000000 0.102717
#
#
# Mechanical properties :
#
#
# Convention : Reuss Voigt Hill
#
# Bulk Modulus (GPa) = 48.03295 49.86656 48.94976
# Shear Modulus (GPa) = 18.71216 21.92226 20.31721
#
# Velocity S-wave (km/s) = 3.22793 3.49386 3.36353
# Velocity P-wave (km/s) = 6.37488 6.63652 6.50702
#
# Compressibility (1/GPa) = 0.02081904
#
# Stress axis : x y z
#
# Youngs Moduli (GPa) = 51.93829 51.93829 67.13827
#
# Poissons Ratio (x) = 0.25800 0.38014
# Poissons Ratio (y) = 0.25800 0.38014
# Poissons Ratio (z) = 0.29408 0.29408
#
# Static dielectric constant tensor:
#      x y z
#    x 1.625070 0.000000 0.000000 
#    y 0.000000 1.625070 0.000000 
#    z 0.000000 0.000000 1.635470 
# 
# From -- ./inp_files/5773.got.cif
#   From: 2010.05.17/outbox.cif.g08.bks.cpg/sg127_3_cif.got.tgz:5773.got - 2010.05.20 12:03:00.
