data_PCOD9563150
_publ_section_title
;
Structure prediction by ZEFSAII (Michael W. Deem and Ramdas Pophale) SiO2 
 PCOD9563150
Probable space group: P 4/N B M
;
_chemical_formula_sum "Si O2"
_cell_formula_units_Z 88
_cell_length_a 15.626930
_cell_length_b 15.626930
_cell_length_c 19.631962
_cell_angle_alpha 90.000000
_cell_angle_beta 90.000000
_cell_angle_gamma 90.000000
_cell_volume 4794.143598
_symmetry_space_group_name_H-M "P 4/N B M"
_symmetry_group_IT_number 125
_space_group.IT_coordinate_system_code '2'
_symmetry_cell_setting 'tetragonal'
loop_
_space_group_symop_operation_xyz
x,y,z
1/2-y,x,z
1/2-x,1/2-y,z
y,1/2-x,z
x,1/2-y,-z
1/2-x,y,-z
y,x,-z
1/2-y,1/2-x,-z
-x,-y,-z
1/2+y,-x,-z
1/2+x,1/2+y,-z
-y,1/2+x,-z
-x,1/2+y,z
1/2+x,-y,z
-y,-x,z
1/2+y,1/2+x,z
loop_
_atom_site_type_symbol
_atom_site_label
_atom_site_fract_x
_atom_site_fract_y
_atom_site_fract_z
Si Si1 0.077594 0.067274 0.222635
Si Si2 0.491617 0.258884 0.285061
Si Si3 0.394523 0.248383 0.422674
Si Si4 0.523872 0.250000 0.000000
Si Si5 0.100556 0.467972 0.928465
Si Si6 0.824049 0.324049 0.914196
Si Si7 0.678229 0.178229 0.753397
O O1 0.060482 0.159136 0.256259
O O2 0.170055 0.029977 0.245735
O O3 0.076812 0.078482 0.140630
O O4 0.001944 0.998057 0.239121
O O5 0.463469 0.246783 0.363229
O O6 0.590013 0.286413 0.277028
O O7 0.333027 0.331281 0.415446
O O8 0.428662 0.250000 0.500000
O O9 0.468137 0.199147 0.054038
O O10 0.588704 0.300355 0.048439
O O11 0.064750 0.564750 0.917933
O O12 0.062450 0.437551 0.000000
O O13 0.750000 0.250000 0.923087
O O14 0.836192 0.336192 0.834153
O O15 0.750000 0.250000 0.746047
#
# Coordination Sequence:
#
# PCOD9563150 Si02
#       7
#    16  16  16   8  16   8   8
#     4  11  25  41  61  95 126 168 217 267 321 387
#     4  12  22  41  69  92 132 167 210 265 316 388
#     4   9  18  36  66 101 128 154 199 258 309 361
#     4  12  19  34  58  79 110 144 204 268 322 367
#     4  10  23  37  54  78 114 156 203 256 317 377
#     4  11  20  34  56  88 105 145 208 278 308 362
#     4  11  26  40  63  90 130 175 216 257 331 380
#
# _framework density 18.355727999999999
#
# number of rings (size 3 to 8) (size 9 to 14) (size 15 to 20)
#    0.000    1.273    4.545    2.182    5.091    3.273 
#    0.000    0.000    4.000    2.455    0.000    0.000 
#    0.000    0.000    0.000    0.000    0.000    0.000 
#
# Total GULP energy -490773.536247 kJ/mol
# GULP energy per Si atom -5576.972003 kJ/mol
# Density = 1.831395 g / cm^3
# Si number density = 18.355728 Si / 1000 Ang^3
#
#
#
# Elastic Constant Matrix: (Units=GPa)
#
#
# Indices 1 2 3 4 5 6 
#
# 1 62.3188 42.0340 38.2618 0.0000 0.0000 0.0000
# 2 42.0340 62.3203 38.2603 0.0000 0.0000 0.0000
# 3 38.2618 38.2603 149.4981 0.0000 0.0000 0.0000
# 4 0.0000 0.0000 0.0000 24.2680 0.0000 0.0000
# 5 0.0000 0.0000 0.0000 0.0000 24.2674 0.0000
# 6 0.0000 0.0000 0.0000 0.0000 0.0000 23.7738
#
#
#
# Elastic Compliance Matrix: (Units=1/GPa)
#
#
# Indices 1 2 3 4 5 6 
#
# 1 0.030547 -0.018750 -0.003020 0.000000 0.000000 0.000000
# 2 -0.018750 0.030546 -0.003019 0.000000 0.000000 0.000000
# 3 -0.003020 -0.003019 0.008234 0.000000 0.000000 0.000000
# 4 0.000000 0.000000 0.000000 0.041207 0.000000 0.000000
# 5 0.000000 0.000000 0.000000 0.000000 0.041208 0.000000
# 6 0.000000 0.000000 0.000000 0.000000 0.000000 0.042063
#
#
# Mechanical properties :
#
#
# Convention : Reuss Voigt Hill
#
# Bulk Modulus (GPa) = 50.62951 56.80550 53.71750
# Shear Modulus (GPa) = 20.00285 24.83391 22.41838
#
# Velocity S-wave (km/s) = 3.30469 3.68220 3.49854
# Velocity P-wave (km/s) = 6.49643 7.00659 6.75633
#
# Compressibility (1/GPa) = 0.01975133
#
# Stress axis : x y z
#
# Youngs Moduli (GPa) = 32.73634 32.73771 121.44139
#
# Poissons Ratio (x) = 0.61382 0.36670
# Poissons Ratio (y) = 0.61380 0.36660
# Poissons Ratio (z) = 0.09885 0.09883
#
# Static dielectric constant tensor:
#      x y z
#    x 1.641410 0.000000 0.000000 
#    y 0.000000 1.641410 0.000000 
#    z 0.000000 0.000000 1.621470 
# 
# From -- ./inp_files/5888.got.cif
#   From: 2010.05.17/outbox.cif.g08.bks.cpg/sg125_3_cif.got.tgz:5888.got - 2010.05.20 11:54:10.
