data_PCOD9563390
_publ_section_title
;
Structure prediction by ZEFSAII (Michael W. Deem and Ramdas Pophale) SiO2 
 PCOD9563390
Probable space group: P 4/N N C
;
_chemical_formula_sum "Si O2"
_cell_formula_units_Z 120
_cell_length_a 27.383518
_cell_length_b 27.383518
_cell_length_c 8.597664
_cell_angle_alpha 90.000000
_cell_angle_beta 90.000000
_cell_angle_gamma 90.000000
_cell_volume 6447.019033
_symmetry_space_group_name_H-M "P 4/N N C"
_symmetry_group_IT_number 126
_space_group.IT_coordinate_system_code '2'
_symmetry_cell_setting 'tetragonal'
loop_
_space_group_symop_operation_xyz
x,y,z
1/2-y,x,z
1/2-x,1/2-y,z
y,1/2-x,z
x,1/2-y,1/2-z
1/2-x,y,1/2-z
y,x,1/2-z
1/2-y,1/2-x,1/2-z
-x,-y,-z
1/2+y,-x,-z
1/2+x,1/2+y,-z
-y,1/2+x,-z
-x,1/2+y,1/2+z
1/2+x,-y,1/2+z
-y,-x,1/2+z
1/2+y,1/2+x,1/2+z
loop_
_atom_site_type_symbol
_atom_site_label
_atom_site_fract_x
_atom_site_fract_y
_atom_site_fract_z
Si Si1 0.576013 0.576013 0.750000
Si Si2 0.022150 0.926760 0.537247
Si Si3 0.614232 0.296768 0.857291
Si Si4 0.742765 0.492112 0.424840
Si Si5 0.952756 0.326143 0.149459
Si Si6 0.029877 0.340281 0.427337
Si Si7 0.198788 0.647162 0.206022
Si Si8 0.009329 0.417167 0.690073
O O1 0.529835 0.574158 0.629869
O O2 0.626066 0.570111 0.655125
O O3 0.054960 0.881566 0.594690
O O4 0.046408 0.978138 0.580793
O O5 0.018501 0.916321 0.354065
O O6 0.621703 0.250000 0.750000
O O7 0.556762 0.291661 0.902798
O O8 0.644573 0.335088 0.753912
O O9 0.640757 0.298913 0.022121
O O10 0.750000 0.508866 0.250000
O O11 0.791852 0.476551 0.516199
O O12 0.715115 0.534597 0.517780
O O13 0.904087 0.299616 0.202793
O O14 0.987562 0.333897 0.298093
O O15 0.016118 0.370171 0.583771
O O16 0.250000 0.674166 0.250000
O O17 0.060134 0.439867 0.750000
#
# Coordination Sequence:
#
# PCOD9563390 Si02
#       8
#     8  16  16  16  16  16  16  16
#     4  10  20  36  54  86 112 156 196 235 290 356
#     4  11  22  35  55  81 117 159 194 249 301 354
#     4  11  25  41  61  84 104 138 182 248 322 382
#     4  11  23  43  61  88 119 151 204 257 302 368
#     4  11  23  40  62  85 117 151 199 250 304 368
#     4  11  22  38  61  85 116 161 194 249 304 346
#     4  12  23  42  61  80 109 137 181 253 317 388
#     4  12  22  37  54  83 124 154 201 254 296 371
#
# _framework density 18.613254000000001
#
# number of rings (size 3 to 8) (size 9 to 14) (size 15 to 20)
#    0.000    0.800    4.667    4.000    3.733    1.333 
#    0.000    1.333    0.000    0.000    0.000    0.000 
#    0.000    0.000    0.000    0.000    0.000   85.333 
#
# Total GULP energy -668416.418815 kJ/mol
# GULP energy per Si atom -5570.136823 kJ/mol
# Density = 1.857089 g / cm^3
# Si number density = 18.613254 Si / 1000 Ang^3
#
#
#
# Elastic Constant Matrix: (Units=GPa)
#
#
# Indices 1 2 3 4 5 6 
#
# 1 34.0445 -0.4948 -8.5101 0.0000 0.0000 0.0000
# 2 -0.4948 34.0850 -8.5008 0.0000 0.0000 0.0000
# 3 -8.5101 -8.5008 97.0615 0.0000 0.0000 0.0000
# 4 0.0000 0.0000 0.0000 28.1085 0.0000 0.0000
# 5 0.0000 0.0000 0.0000 0.0000 28.1080 0.0000
# 6 0.0000 0.0000 0.0000 0.0000 0.0000 31.3559
#
#
#
# Elastic Compliance Matrix: (Units=1/GPa)
#
#
# Indices 1 2 3 4 5 6 
#
# 1 0.030073 0.001119 0.002735 0.000000 0.000000 0.000000
# 2 0.001119 0.030035 0.002729 0.000000 0.000000 0.000000
# 3 0.002735 0.002729 0.010781 0.000000 0.000000 0.000000
# 4 0.000000 0.000000 0.000000 0.035576 0.000000 0.000000
# 5 0.000000 0.000000 0.000000 0.000000 0.035577 0.000000
# 6 0.000000 0.000000 0.000000 0.000000 0.000000 0.031892
#
#
# Mechanical properties :
#
#
# Convention : Reuss Voigt Hill
#
# Bulk Modulus (GPa) = 11.89717 14.46440 13.18078
# Shear Modulus (GPa) = 26.48456 29.69427 28.08942
#
# Velocity S-wave (km/s) = 3.77621 3.99849 3.88894
# Velocity P-wave (km/s) = 5.04169 5.39492 5.22129
#
# Compressibility (1/GPa) = 0.08405362
#
# Stress axis : x y z
#
# Youngs Moduli (GPa) = 33.25226 33.29432 92.75151
#
# Poissons Ratio (x) = -0.03724 -0.25365
# Poissons Ratio (y) = -0.03720 -0.25308
# Poissons Ratio (z) = -0.09093 -0.09085
#
# Static dielectric constant tensor:
#      x y z
#    x 1.701470 0.000000 0.000000 
#    y 0.000000 1.701470 0.000000 
#    z 0.000000 0.000000 1.580060 
# 
# From -- ./inp_files/1932.got.cif
#   From: 2010.05.17/outbox.cif.g08.bks.cpg/sg126_1_cif.got.tgz:1932.got - 2010.05.20 11:58:20.
