data_PCOD9563235
_publ_section_title
;
Structure prediction by ZEFSAII (Michael W. Deem and Ramdas Pophale) SiO2 
 PCOD9563235
Probable space group: P 4/N B M
;
_chemical_formula_sum "Si O2"
_cell_formula_units_Z 56
_cell_length_a 17.883236
_cell_length_b 17.883236
_cell_length_c 8.610068
_cell_angle_alpha 90.000000
_cell_angle_beta 90.000000
_cell_angle_gamma 90.000000
_cell_volume 2753.586965
_symmetry_space_group_name_H-M "P 4/N B M"
_symmetry_group_IT_number 125
_space_group.IT_coordinate_system_code '2'
_symmetry_cell_setting 'tetragonal'
loop_
_space_group_symop_operation_xyz
x,y,z
1/2-y,x,z
1/2-x,1/2-y,z
y,1/2-x,z
x,1/2-y,-z
1/2-x,y,-z
y,x,-z
1/2-y,1/2-x,-z
-x,-y,-z
1/2+y,-x,-z
1/2+x,1/2+y,-z
-y,1/2+x,-z
-x,1/2+y,z
1/2+x,-y,z
-y,-x,z
1/2+y,1/2+x,z
loop_
_atom_site_type_symbol
_atom_site_label
_atom_site_fract_x
_atom_site_fract_y
_atom_site_fract_z
Si Si1 0.750000 0.128491 0.500000
Si Si2 0.750000 0.548049 0.000000
Si Si3 0.864280 0.700335 0.726656
Si Si4 0.587873 0.587873 0.500000
Si Si5 0.532954 0.151498 0.737395
O O1 0.684315 0.184315 0.439000
O O2 0.789730 0.076730 0.372380
O O3 0.803388 0.599425 0.105497
O O4 0.698987 0.504291 0.124187
O O5 0.843544 0.786740 0.706577
O O6 0.917049 0.663950 0.600202
O O7 0.601283 0.523440 0.370545
O O8 0.593954 0.093954 0.802598
#
# Coordination Sequence:
#
# PCOD9563235 Si02
#       5
#     8   8  16   8  16
#     4   9  20  44  74  96 119 164 232 288 321 370
#     4  12  24  43  62  93 138 172 212 270 324 389
#     4  11  23  39  64  96 127 168 220 268 313 370
#     4  12  23  43  66  94 134 172 216 266 324 406
#     4  11  25  43  66  98 132 174 216 268 336 397
#
# _framework density 20.337111
#
# number of rings (size 3 to 8) (size 9 to 14) (size 15 to 20)
#    0.000    1.000    2.857    3.857    0.000    3.429 
#    0.000    4.286    0.000    0.000    0.000    0.000 
#    0.000    0.000    0.000    0.000    0.000    0.000 
#
# Total GULP energy -312362.826454 kJ/mol
# GULP energy per Si atom -5577.907615 kJ/mol
# Density = 2.029082 g / cm^3
# Si number density = 20.337111 Si / 1000 Ang^3
#
#
#
# Elastic Constant Matrix: (Units=GPa)
#
#
# Indices 1 2 3 4 5 6 
#
# 1 70.8880 20.7616 22.8655 0.0000 0.0000 0.0000
# 2 20.7616 70.8880 22.8655 0.0000 0.0000 0.0000
# 3 22.8655 22.8655 80.2378 0.0000 0.0000 0.0000
# 4 0.0000 0.0000 0.0000 33.5451 0.0000 0.0000
# 5 0.0000 0.0000 0.0000 0.0000 33.5451 0.0000
# 6 0.0000 0.0000 0.0000 0.0000 0.0000 35.3228
#
#
#
# Elastic Compliance Matrix: (Units=1/GPa)
#
#
# Indices 1 2 3 4 5 6 
#
# 1 0.016335 -0.003615 -0.003625 0.000000 0.000000 0.000000
# 2 -0.003615 0.016335 -0.003625 0.000000 0.000000 0.000000
# 3 -0.003625 -0.003625 0.014529 0.000000 0.000000 0.000000
# 4 0.000000 0.000000 0.000000 0.029811 0.000000 0.000000
# 5 0.000000 0.000000 0.000000 0.000000 0.029811 0.000000
# 6 0.000000 0.000000 0.000000 0.000000 0.000000 0.028310
#
#
# Mechanical properties :
#
#
# Convention : Reuss Voigt Hill
#
# Bulk Modulus (GPa) = 39.26288 39.44434 39.35361
# Shear Modulus (GPa) = 30.23915 30.85066 30.54491
#
# Velocity S-wave (km/s) = 3.86021 3.89905 3.87968
# Velocity P-wave (km/s) = 6.26229 6.30139 6.28187
#
# Compressibility (1/GPa) = 0.02546935
#
# Stress axis : x y z
#
# Youngs Moduli (GPa) = 61.21940 61.21940 68.82844
#
# Poissons Ratio (x) = 0.22130 0.24949
# Poissons Ratio (y) = 0.22130 0.24949
# Poissons Ratio (z) = 0.22191 0.22191
#
# Static dielectric constant tensor:
#      x y z
#    x 1.758090 0.000000 0.000000 
#    y 0.000000 1.758090 0.000000 
#    z 0.000000 0.000000 1.714570 
# 
# From -- ./inp_files/2128.got.cif
#   From: 2010.05.17/outbox.cif.g08.bks.cpg/sg125_2_cif.got.tgz:2128.got - 2010.05.20 11:54:10.
