data_PCOD9563615
_publ_section_title
;
Structure prediction by ZEFSAII (Michael W. Deem and Ramdas Pophale) SiO2 
 PCOD9563615
Probable space group: P 4/N N C
;
_chemical_formula_sum "Si O2"
_cell_formula_units_Z 80
_cell_length_a 11.375152
_cell_length_b 11.375152
_cell_length_c 33.093441
_cell_angle_alpha 90.000000
_cell_angle_beta 90.000000
_cell_angle_gamma 90.000000
_cell_volume 4282.095452
_symmetry_space_group_name_H-M "P 4/N N C"
_symmetry_group_IT_number 126
_space_group.IT_coordinate_system_code '2'
_symmetry_cell_setting 'tetragonal'
loop_
_space_group_symop_operation_xyz
x,y,z
1/2-y,x,z
1/2-x,1/2-y,z
y,1/2-x,z
x,1/2-y,1/2-z
1/2-x,y,1/2-z
y,x,1/2-z
1/2-y,1/2-x,1/2-z
-x,-y,-z
1/2+y,-x,-z
1/2+x,1/2+y,-z
-y,1/2+x,-z
-x,1/2+y,1/2+z
1/2+x,-y,1/2+z
-y,-x,1/2+z
1/2+y,1/2+x,1/2+z
loop_
_atom_site_type_symbol
_atom_site_label
_atom_site_fract_x
_atom_site_fract_y
_atom_site_fract_z
Si Si1 0.632421 0.322405 0.135232
Si Si2 0.766918 0.554535 0.796948
Si Si3 0.729634 0.057700 0.493114
Si Si4 0.196130 0.440800 0.593435
Si Si5 0.743738 0.939359 0.925266
O O1 0.750000 0.250000 0.139590
O O2 0.551754 0.295505 0.173709
O O3 0.661968 0.457977 0.125295
O O4 0.561825 0.270524 0.096913
O O5 0.871720 0.647957 0.804370
O O6 0.750000 0.519843 0.750000
O O7 0.631906 0.149457 0.509445
O O8 0.690754 0.001462 0.450879
O O9 0.750433 0.959876 0.526988
O O10 0.109666 0.328877 0.597143
O O11 0.632750 0.859331 0.913468
#
# Coordination Sequence:
#
# PCOD9563615 Si02
#       5
#    16  16  16  16  16
#     4  12  25  38  64  95 129 161 210 259 310 374
#     4   9  20  42  72 103 133 161 193 249 322 381
#     4  11  22  37  59  86 118 161 217 273 321 370
#     4  11  26  43  59  84 125 177 219 258 313 378
#     4  11  24  39  60  88 117 159 214 272 327 370
#
# _framework density 18.682442999999999
#
# number of rings (size 3 to 8) (size 9 to 14) (size 15 to 20)
#    0.000    1.200    2.000    4.200    8.400    5.200 
#    0.000    0.000    0.000    0.000    0.000    0.000 
#    0.000    0.000    0.000    0.000    0.000    0.000 
#
# Total GULP energy -447096.595336 kJ/mol
# GULP energy per Si atom -5588.707442 kJ/mol
# Density = 1.863992 g / cm^3
# Si number density = 18.682443 Si / 1000 Ang^3
#
#
#
# Elastic Constant Matrix: (Units=GPa)
#
#
# Indices 1 2 3 4 5 6 
#
# 1 91.7522 49.6874 82.8170 0.0000 0.0000 0.0000
# 2 49.6874 91.7522 82.8170 0.0000 0.0000 0.0000
# 3 82.8170 82.8170 84.3507 0.0000 0.0000 0.0000
# 4 0.0000 0.0000 0.0000 33.7994 0.0000 0.0000
# 5 0.0000 0.0000 0.0000 0.0000 33.7994 0.0000
# 6 0.0000 0.0000 0.0000 0.0000 0.0000 12.1195
#
#
#
# Elastic Compliance Matrix: (Units=1/GPa)
#
#
# Indices 1 2 3 4 5 6 
#
# 1 -0.011718 -0.035491 0.046350 0.000000 0.000000 0.000000
# 2 -0.035491 -0.011718 0.046350 0.000000 0.000000 0.000000
# 3 0.046350 0.046350 -0.079159 0.000000 0.000000 0.000000
# 4 0.000000 0.000000 0.000000 0.029586 0.000000 0.000000
# 5 0.000000 0.000000 0.000000 0.000000 0.029586 0.000000
# 6 0.000000 0.000000 0.000000 0.000000 0.000000 0.082512
#
#
# Mechanical properties :
#
#
# Convention : Reuss Voigt Hill
#
# Bulk Modulus (GPa) = 84.57340 77.61089 81.09215
# Shear Modulus (GPa) = -70.03997 19.44592 -25.29702
#
# Velocity S-wave (km/s) = -6.12953 3.22975 -3.68374
# Velocity P-wave (km/s) = 2.17431 7.45256 5.04049
#
# Compressibility (1/GPa) = 0.01182405
#
# Stress axis : x y z
#
# Youngs Moduli (GPa) = -85.34051 -85.34051 -12.63277
#
# Poissons Ratio (x) = -3.02879 0.58553
# Poissons Ratio (y) = -3.02879 0.58553
# Poissons Ratio (z) = 3.95553 3.95553
#
# Static dielectric constant tensor:
#      x y z
#    x 1.649290 0.000000 0.000000 
#    y 0.000000 1.649290 0.000000 
#    z 0.000000 0.000000 1.651040 
# 
# From -- ./inp_files/6407.got.cif
#   From: 2010.05.17/outbox.cif.g08.bks.cpg/sg126_4_cif.got.tgz:6407.got - 2010.05.20 11:58:20.
