data_PCOD9563510
_publ_section_title
;
Structure prediction by ZEFSAII (Michael W. Deem and Ramdas Pophale) SiO2 
 PCOD9563510
Probable space group: P 4/N N C
;
_chemical_formula_sum "Si O2"
_cell_formula_units_Z 96
_cell_length_a 26.341656
_cell_length_b 26.341656
_cell_length_c 7.369844
_cell_angle_alpha 90.000000
_cell_angle_beta 90.000000
_cell_angle_gamma 90.000000
_cell_volume 5113.808291
_symmetry_space_group_name_H-M "P 4/N N C"
_symmetry_group_IT_number 126
_space_group.IT_coordinate_system_code '2'
_symmetry_cell_setting 'tetragonal'
loop_
_space_group_symop_operation_xyz
x,y,z
1/2-y,x,z
1/2-x,1/2-y,z
y,1/2-x,z
x,1/2-y,1/2-z
1/2-x,y,1/2-z
y,x,1/2-z
1/2-y,1/2-x,1/2-z
-x,-y,-z
1/2+y,-x,-z
1/2+x,1/2+y,-z
-y,1/2+x,-z
-x,1/2+y,1/2+z
1/2+x,-y,1/2+z
-y,-x,1/2+z
1/2+y,1/2+x,1/2+z
loop_
_atom_site_type_symbol
_atom_site_label
_atom_site_fract_x
_atom_site_fract_y
_atom_site_fract_z
Si Si1 0.353832 0.549461 0.002642
Si Si2 0.254001 0.330972 0.468001
Si Si3 0.557170 0.717547 0.078330
Si Si4 0.548707 0.260115 0.050383
Si Si5 0.472839 0.110189 0.705847
Si Si6 0.629520 0.060714 0.931328
O O1 0.372818 0.500871 0.890334
O O2 0.389025 0.595911 0.939852
O O3 0.294195 0.556304 0.957630
O O4 0.362086 0.544475 0.220840
O O5 0.203425 0.301596 0.529413
O O6 0.250000 0.330035 0.250000
O O7 0.261351 0.388339 0.525282
O O8 0.539609 0.750000 0.250000
O O9 0.558832 0.658411 0.130643
O O10 0.511688 0.727454 0.938768
O O11 0.570014 0.250000 0.250000
O O12 0.569640 0.314222 0.984510
O O13 0.437492 0.062509 0.750000
O O14 0.516844 0.103094 0.553173
#
# Coordination Sequence:
#
# PCOD9563510 Si02
#       6
#    16  16  16  16  16  16
#     4  11  20  41  62  87 123 156 200 244 297 362
#     4   9  20  37  55  77 109 152 196 247 310 366
#     4  11  21  34  56  80 111 145 194 248 293 347
#     4   9  20  37  60  85 113 149 193 240 288 353
#     4  11  25  40  57  89 121 157 203 247 304 355
#     4  10  22  39  63  90 117 161 198 240 304 357
#
# _framework density 18.772701000000001
#
# number of rings (size 3 to 8) (size 9 to 14) (size 15 to 20)
#    0.000    1.833    3.333    1.000    2.333    1.333 
#    0.000    0.833    0.000    0.500    0.000    3.500 
#    0.000    0.000    0.000    0.000    0.000    0.000 
#
# Total GULP energy -535092.162076 kJ/mol
# GULP energy per Si atom -5573.876688 kJ/mol
# Density = 1.872997 g / cm^3
# Si number density = 18.772701 Si / 1000 Ang^3
#
#
#
# Elastic Constant Matrix: (Units=GPa)
#
#
# Indices 1 2 3 4 5 6 
#
# 1 83.2574 55.5315 14.9613 0.0000 0.0000 0.0000
# 2 55.5315 83.2585 14.9614 0.0000 0.0000 0.0000
# 3 14.9613 14.9614 83.1598 0.0000 0.0000 0.0000
# 4 0.0000 0.0000 0.0000 22.7363 0.0000 0.0000
# 5 0.0000 0.0000 0.0000 0.0000 22.7350 0.0000
# 6 0.0000 0.0000 0.0000 0.0000 0.0000 19.5289
#
#
#
# Elastic Compliance Matrix: (Units=1/GPa)
#
#
# Indices 1 2 3 4 5 6 
#
# 1 0.021781 -0.014285 -0.001349 0.000000 0.000000 0.000000
# 2 -0.014285 0.021781 -0.001349 0.000000 0.000000 0.000000
# 3 -0.001349 -0.001349 0.012510 0.000000 0.000000 0.000000
# 4 0.000000 0.000000 0.000000 0.043983 0.000000 0.000000
# 5 0.000000 0.000000 0.000000 0.000000 0.043985 0.000000
# 6 0.000000 0.000000 0.000000 0.000000 0.000000 0.051206
#
#
# Mechanical properties :
#
#
# Convention : Reuss Voigt Hill
#
# Bulk Modulus (GPa) = 45.23304 46.73158 45.98231
# Shear Modulus (GPa) = 21.13442 23.94814 22.54128
#
# Velocity S-wave (km/s) = 3.35894 3.57555 3.46894
# Velocity P-wave (km/s) = 6.26025 6.48024 6.37120
#
# Compressibility (1/GPa) = 0.02210773
#
# Stress axis : x y z
#
# Youngs Moduli (GPa) = 45.91071 45.91132 79.93412
#
# Poissons Ratio (x) = 0.65586 0.10780
# Poissons Ratio (y) = 0.65585 0.10780
# Poissons Ratio (z) = 0.06192 0.06192
#
# Static dielectric constant tensor:
#      x y z
#    x 1.645090 0.000000 0.000000 
#    y 0.000000 1.645090 0.000000 
#    z 0.000000 0.000000 1.732170 
# 
# From -- ./inp_files/1752.got.cif
#   From: 2010.05.17/outbox.cif.g08.bks.cpg/sg126_1_cif.got.tgz:1752.got - 2010.05.20 11:58:20.
