data_PCOD9563784
_publ_section_title
;
Structure prediction by ZEFSAII (Michael W. Deem and Ramdas Pophale) SiO2 
 PCOD9563784
Probable space group: P 4/M B M
;
_chemical_formula_sum "Si O2"
_cell_formula_units_Z 96
_cell_length_a 19.830882
_cell_length_b 19.830882
_cell_length_c 18.990774
_cell_angle_alpha 90.000000
_cell_angle_beta 90.000000
_cell_angle_gamma 90.000000
_cell_volume 7468.385484
_symmetry_space_group_name_H-M "P 4/M B M"
_symmetry_group_IT_number 127
_symmetry_cell_setting 'tetragonal'
loop_
_space_group_symop_operation_xyz
x,y,z
-y,x,z
-x,-y,z
y,-x,z
1/2+x,1/2-y,-z
1/2-x,1/2+y,-z
1/2+y,1/2+x,-z
1/2-y,1/2-x,-z
-x,-y,-z
y,-x,-z
x,y,-z
-y,x,-z
1/2-x,1/2+y,z
1/2+x,1/2-y,z
1/2-y,1/2-x,z
1/2+y,1/2+x,z
loop_
_atom_site_type_symbol
_atom_site_label
_atom_site_fract_x
_atom_site_fract_y
_atom_site_fract_z
Si Si1 0.959589 0.892993 0.924314
Si Si2 0.040480 0.107094 0.231104
Si Si3 0.706551 0.983293 0.414957
Si Si4 0.083455 0.191276 0.365142
Si Si5 0.445274 0.054727 0.414470
Si Si6 0.393888 0.461955 0.500000
Si Si7 0.340376 0.271843 0.416241
O O1 0.948028 0.862421 0.847201
O O2 0.037477 0.917038 0.924537
O O3 0.946478 0.858299 0.000000
O O4 0.060627 0.157149 0.292860
O O5 0.962408 0.083431 0.237290
O O6 0.707912 0.993232 0.500000
O O7 0.630357 0.965452 0.393752
O O8 0.752699 0.917594 0.399602
O O9 0.736552 0.048678 0.377033
O O10 0.053957 0.147580 0.430139
O O11 0.163734 0.187004 0.374685
O O12 0.445064 0.054937 0.500000
O O13 0.500000 0.000000 0.390983
O O14 0.460810 0.416747 0.500000
O O15 0.337359 0.287537 0.500000
O O16 0.293138 0.206863 0.404763
#
# Coordination Sequence:
#
# PCOD9563784 Si02
#       7
#    16  16  16  16   8   8  16
#     4   7  10  18  32  48  69 102 140 169 192 221
#     4   9  16  24  34  53  82 112 138 165 196 229
#     4  10  18  31  44  57  75 101 134 173 214 249
#     4  12  20  27  40  59  78 105 137 169 201 250
#     4   9  18  32  50  64  70  90 129 188 230 258
#     4  11  20  28  35  51  80 111 140 162 185 223
#     4  10  19  31  43  54  73 102 138 168 209 248
#
# _framework density 12.854184
#
# number of rings (size 3 to 8) (size 9 to 14) (size 15 to 20)
#    0.000    2.333    2.500    4.500    0.000    2.000 
#    0.000    1.667    0.000    0.000    0.000    0.000 
#    0.000    0.667    0.000    1.083    0.000    0.833 
#
# Total GULP energy -534597.453532 kJ/mol
# GULP energy per Si atom -5568.723474 kJ/mol
# Density = 1.282493 g / cm^3
# Si number density = 12.854184 Si / 1000 Ang^3
#
#
#
# Elastic Constant Matrix: (Units=GPa)
#
#
# Indices 1 2 3 4 5 6 
#
# 1 36.7239 21.3185 9.1318 0.0000 0.0000 0.0000
# 2 21.3185 36.7239 9.1317 0.0000 0.0000 0.0000
# 3 9.1318 9.1317 78.8386 0.0000 0.0000 0.0000
# 4 0.0000 0.0000 0.0000 4.4632 0.0000 0.0000
# 5 0.0000 0.0000 0.0000 0.0000 4.4632 0.0000
# 6 0.0000 0.0000 0.0000 0.0000 0.0000 11.7457
#
#
#
# Elastic Compliance Matrix: (Units=1/GPa)
#
#
# Indices 1 2 3 4 5 6 
#
# 1 0.041396 -0.023516 -0.002071 0.000000 0.000000 0.000000
# 2 -0.023516 0.041396 -0.002071 0.000000 0.000000 0.000000
# 3 -0.002071 -0.002071 0.013164 0.000000 0.000000 0.000000
# 4 0.000000 0.000000 0.000000 0.224055 0.000000 0.000000
# 5 0.000000 0.000000 0.000000 0.000000 0.224055 0.000000
# 6 0.000000 0.000000 0.000000 0.000000 0.000000 0.085138
#
#
# Mechanical properties :
#
#
# Convention : Reuss Voigt Hill
#
# Bulk Modulus (GPa) = 24.60595 25.71672 25.16133
# Shear Modulus (GPa) = 7.16263 11.64804 9.40533
#
# Velocity S-wave (km/s) = 2.36312 3.01353 2.70792
# Velocity P-wave (km/s) = 5.16039 5.67084 5.42163
#
# Compressibility (1/GPa) = 0.04064057
#
# Stress axis : x y z
#
# Youngs Moduli (GPa) = 24.15668 24.15665 75.96522
#
# Poissons Ratio (x) = 0.56807 0.15733
# Poissons Ratio (y) = 0.56807 0.15733
# Poissons Ratio (z) = 0.05003 0.05003
#
# Static dielectric constant tensor:
#      x y z
#    x 1.426080 0.000000 0.000000 
#    y 0.000000 1.426080 0.000000 
#    z 0.000000 0.000000 1.421090 
# 
# From -- ./inp_files/5316.got.cif
#   From: 2010.05.17/outbox.cif.g08.bks.cpg/sg127_3_cif.got.tgz:5316.got - 2010.05.20 12:03:00.
