data_PCOD9563382
_publ_section_title
;
Structure prediction by ZEFSAII (Michael W. Deem and Ramdas Pophale) SiO2 
 PCOD9563382
Probable space group: P 4/N N C
;
_chemical_formula_sum "Si O2"
_cell_formula_units_Z 96
_cell_length_a 24.745563
_cell_length_b 24.745563
_cell_length_c 8.742413
_cell_angle_alpha 90.000000
_cell_angle_beta 90.000000
_cell_angle_gamma 90.000000
_cell_volume 5353.354426
_symmetry_space_group_name_H-M "P 4/N N C"
_symmetry_group_IT_number 126
_space_group.IT_coordinate_system_code '2'
_symmetry_cell_setting 'tetragonal'
loop_
_space_group_symop_operation_xyz
x,y,z
1/2-y,x,z
1/2-x,1/2-y,z
y,1/2-x,z
x,1/2-y,1/2-z
1/2-x,y,1/2-z
y,x,1/2-z
1/2-y,1/2-x,1/2-z
-x,-y,-z
1/2+y,-x,-z
1/2+x,1/2+y,-z
-y,1/2+x,-z
-x,1/2+y,1/2+z
1/2+x,-y,1/2+z
-y,-x,1/2+z
1/2+y,1/2+x,1/2+z
loop_
_atom_site_type_symbol
_atom_site_label
_atom_site_fract_x
_atom_site_fract_y
_atom_site_fract_z
Si Si1 0.687717 0.687716 0.934587
Si Si2 0.312917 0.606877 0.067101
Si Si3 0.978175 0.103540 0.566413
Si Si4 0.103540 0.521824 0.933588
Si Si5 0.397442 0.102559 0.934327
Si Si6 0.312917 0.606877 0.432900
O O1 0.750000 0.675736 0.980952
O O2 0.686144 0.686144 0.750000
O O3 0.644930 0.644928 0.997890
O O4 0.320114 0.606096 0.250001
O O5 0.250000 0.601840 0.031442
O O6 0.347796 0.558771 0.994185
O O7 0.338530 0.661471 0.000001
O O8 0.975552 0.100631 0.750001
O O9 0.950806 0.049193 0.500002
O O10 0.040188 0.112658 0.520835
O O11 0.112659 0.459811 0.979164
O O12 0.152205 0.558770 0.994185
O O13 0.394197 0.105804 0.750000
#
# Coordination Sequence:
#
# PCOD9563382 Si02
#       6
#    16  16  16  16  16  16
#     4   9  20  39  59  79 105 137 174 217 262 307
#     4  10  21  36  54  77 105 138 177 219 263 311
#     4  10  20  35  54  77 108 141 174 215 261 309
#     4  10  20  35  54  77 108 141 174 215 261 309
#     4  10  22  36  54  83 110 137 175 214 257 312
#     4  10  21  36  54  77 105 138 177 219 263 311
#
# _framework density 17.932682
#
# number of rings (size 3 to 8) (size 9 to 14) (size 15 to 20)
#    0.000    2.167    0.000    5.000    0.000    7.667 
#    0.000    9.167    0.000    0.000    0.000    0.000 
#    0.000    0.000    0.000    0.000    0.000    0.000 
#
# Total GULP energy -535845.805667 kJ/mol
# GULP energy per Si atom -5581.727142 kJ/mol
# Density = 1.789187 g / cm^3
# Si number density = 17.932682 Si / 1000 Ang^3
#
#
#
# Elastic Constant Matrix: (Units=GPa)
#
#
# Indices 1 2 3 4 5 6 
#
# 1 153.5147 96.2956 49.8476 0.0000 0.0000 0.0000
# 2 96.2956 153.5148 49.8484 0.0000 0.0000 0.0000
# 3 49.8476 49.8484 50.5460 0.0000 0.0000 0.0000
# 4 0.0000 0.0000 0.0000 26.4977 0.0000 0.0000
# 5 0.0000 0.0000 0.0000 0.0000 26.4978 0.0000
# 6 0.0000 0.0000 0.0000 0.0000 0.0000 24.2105
#
#
#
# Elastic Compliance Matrix: (Units=1/GPa)
#
#
# Indices 1 2 3 4 5 6 
#
# 1 0.012039 -0.005438 -0.006510 0.000000 0.000000 0.000000
# 2 -0.005438 0.012039 -0.006510 0.000000 0.000000 0.000000
# 3 -0.006510 -0.006510 0.032624 0.000000 0.000000 0.000000
# 4 0.000000 0.000000 0.000000 0.037739 0.000000 0.000000
# 5 0.000000 0.000000 0.000000 0.000000 0.037739 0.000000
# 6 0.000000 0.000000 0.000000 0.000000 0.000000 0.041304
#
#
# Mechanical properties :
#
#
# Convention : Reuss Voigt Hill
#
# Bulk Modulus (GPa) = 50.53960 83.28430 66.91195
# Shear Modulus (GPa) = 23.04204 26.21347 24.62776
#
# Velocity S-wave (km/s) = 3.58847 3.82746 3.70989
# Velocity P-wave (km/s) = 6.73896 8.12872 7.46625
#
# Compressibility (1/GPa) = 0.01978647
#
# Stress axis : x y z
#
# Youngs Moduli (GPa) = 83.06489 83.06379 30.65237
#
# Poissons Ratio (x) = 0.45169 0.19954
# Poissons Ratio (y) = 0.45169 0.19955
# Poissons Ratio (z) = 0.54073 0.54075
#
# Static dielectric constant tensor:
#      x y z
#    x 1.600370 0.000000 0.000000 
#    y 0.000000 1.600370 0.000000 
#    z 0.000000 0.000000 1.605620 
# 
# From -- ./inp_files/1768.got.cif
#   From: 2010.05.17/outbox.cif.g08.bks.cpg/sg126_1_cif.got.tgz:1768.got - 2010.05.20 11:58:20.
