data_PCOD9563858
_publ_section_title
;
Structure prediction by ZEFSAII (Michael W. Deem and Ramdas Pophale) SiO2 
 PCOD9563858
Probable space group: P 4/M B M
;
_chemical_formula_sum "Si O2"
_cell_formula_units_Z 112
_cell_length_a 14.408296
_cell_length_b 14.408296
_cell_length_c 27.507197
_cell_angle_alpha 90.000000
_cell_angle_beta 90.000000
_cell_angle_gamma 90.000000
_cell_volume 5710.466415
_symmetry_space_group_name_H-M "P 4/M B M"
_symmetry_group_IT_number 127
_symmetry_cell_setting 'tetragonal'
loop_
_space_group_symop_operation_xyz
x,y,z
-y,x,z
-x,-y,z
y,-x,z
1/2+x,1/2-y,-z
1/2-x,1/2+y,-z
1/2+y,1/2+x,-z
1/2-y,1/2-x,-z
-x,-y,-z
y,-x,-z
x,y,-z
-y,x,-z
1/2-x,1/2+y,z
1/2+x,1/2-y,z
1/2-y,1/2-x,z
1/2+y,1/2+x,z
loop_
_atom_site_type_symbol
_atom_site_label
_atom_site_fract_x
_atom_site_fract_y
_atom_site_fract_z
Si Si1 0.884272 0.106017 0.946398
Si Si2 0.154530 0.496605 0.387614
Si Si3 0.508626 0.150245 0.174593
Si Si4 0.005406 0.848707 0.441392
Si Si5 0.414974 0.373320 0.250683
Si Si6 0.709855 0.363954 0.850904
Si Si7 0.190690 0.537576 0.281368
O O1 0.841589 0.156351 0.900063
O O2 0.994996 0.125084 0.943765
O O3 0.851268 0.136511 0.000000
O O4 0.087578 0.587578 0.390194
O O5 0.246976 0.507668 0.418910
O O6 0.186895 0.483508 0.331611
O O7 0.090159 0.409842 0.402250
O O8 0.432421 0.067580 0.175251
O O9 0.458592 0.229620 0.143852
O O10 0.517001 0.186461 0.230130
O O11 0.604912 0.104912 0.158224
O O12 0.005704 0.842937 0.500000
O O13 0.913289 0.906973 0.427010
O O14 0.525359 0.377995 0.261919
O O15 0.386996 0.356056 0.194565
O O16 0.392339 0.278478 0.278497
O O17 0.782046 0.282046 0.838190
O O18 0.097846 0.597846 0.280890
#
# Coordination Sequence:
#
# PCOD9563858 Si02
#       7
#    16  16  16  16  16  16  16
#     4   9  18  34  54  71  90 122 161 198 244 304
#     4  10  21  36  56  85 119 152 186 228 282 344
#     4   8  14  27  47  67  90 126 165 192 223 278
#     4   9  20  40  62  82 108 146 192 240 289 341
#     4  10  20  34  51  71  99 135 173 212 254 301
#     4  10  19  31  49  73 100 126 157 203 252 297
#     4   9  18  34  52  72 103 138 172 211 254 301
#
# _framework density 19.613106999999999
#
# number of rings (size 3 to 8) (size 9 to 14) (size 15 to 20)
#    0.000    2.714    0.000    3.429    0.000    5.429 
#    0.000   15.714    0.000    1.286    0.000    2.000 
#    0.000    0.000    0.000    0.000    0.000    0.000 
#
# Total GULP energy -624021.602427 kJ/mol
# GULP energy per Si atom -5571.621450 kJ/mol
# Density = 1.956847 g / cm^3
# Si number density = 19.613107 Si / 1000 Ang^3
#
#
#
# Elastic Constant Matrix: (Units=GPa)
#
#
# Indices 1 2 3 4 5 6 
#
# 1 65.3074 4.8073 17.1620 0.0000 0.0000 0.0000
# 2 4.8073 65.3074 17.1620 0.0000 0.0000 0.0000
# 3 17.1620 17.1620 30.0925 0.0000 0.0000 0.0000
# 4 0.0000 0.0000 0.0000 19.3734 0.0000 0.0000
# 5 0.0000 0.0000 0.0000 0.0000 19.3734 0.0000
# 6 0.0000 0.0000 0.0000 0.0000 0.0000 19.3607
#
#
#
# Elastic Compliance Matrix: (Units=1/GPa)
#
#
# Indices 1 2 3 4 5 6 
#
# 1 0.018158 0.001629 -0.011284 0.000000 0.000000 0.000000
# 2 0.001629 0.018158 -0.011284 0.000000 0.000000 0.000000
# 3 -0.011284 -0.011284 0.046102 0.000000 0.000000 0.000000
# 4 0.000000 0.000000 0.000000 0.051617 0.000000 0.000000
# 5 0.000000 0.000000 0.000000 0.000000 0.051617 0.000000
# 6 0.000000 0.000000 0.000000 0.000000 0.000000 0.051651
#
#
# Mechanical properties :
#
#
# Convention : Reuss Voigt Hill
#
# Bulk Modulus (GPa) = 24.66858 26.55222 25.61040
# Shear Modulus (GPa) = 17.08259 19.72654 18.40457
#
# Velocity S-wave (km/s) = 2.95444 3.17485 3.06662
# Velocity P-wave (km/s) = 4.92373 5.19682 5.06212
#
# Compressibility (1/GPa) = 0.04053740
#
# Stress axis : x y z
#
# Youngs Moduli (GPa) = 55.07296 55.07296 21.69102
#
# Poissons Ratio (x) = -0.08970 0.24477
# Poissons Ratio (y) = -0.08970 0.24477
# Poissons Ratio (z) = 0.62147 0.62147
#
# Static dielectric constant tensor:
#      x y z
#    x 1.726450 0.000000 0.000000 
#    y 0.000000 1.726450 0.000000 
#    z 0.000000 0.000000 1.691180 
# 
# From -- ./inp_files/6208.got.cif
#   From: 2010.05.17/outbox.cif.g08.bks.cpg/sg127_4_cif.got.tgz:6208.got - 2010.05.20 12:03:00.
