data_PCOD9563027
_publ_section_title
;
Structure prediction by ZEFSAII (Michael W. Deem and Ramdas Pophale) SiO2 
 PCOD9563027
Probable space group: P 4/N B M
;
_chemical_formula_sum "Si O2"
_cell_formula_units_Z 72
_cell_length_a 23.265168
_cell_length_b 23.265168
_cell_length_c 7.494848
_cell_angle_alpha 90.000000
_cell_angle_beta 90.000000
_cell_angle_gamma 90.000000
_cell_volume 4056.721703
_symmetry_space_group_name_H-M "P 4/N B M"
_symmetry_group_IT_number 125
_space_group.IT_coordinate_system_code '2'
_symmetry_cell_setting 'tetragonal'
loop_
_space_group_symop_operation_xyz
x,y,z
1/2-y,x,z
1/2-x,1/2-y,z
y,1/2-x,z
x,1/2-y,-z
1/2-x,y,-z
y,x,-z
1/2-y,1/2-x,-z
-x,-y,-z
1/2+y,-x,-z
1/2+x,1/2+y,-z
-y,1/2+x,-z
-x,1/2+y,z
1/2+x,-y,z
-y,-x,z
1/2+y,1/2+x,z
loop_
_atom_site_type_symbol
_atom_site_label
_atom_site_fract_x
_atom_site_fract_y
_atom_site_fract_z
Si Si1 0.179668 0.502334 0.318809
Si Si2 0.315492 0.684509 0.455807
Si Si3 0.088464 0.184218 0.021300
Si Si4 0.367949 0.867949 0.859449
Si Si5 0.689055 0.013938 0.262101
Si Si6 0.613487 0.113487 0.742090
O O1 0.175704 0.443226 0.211121
O O2 0.178274 0.497020 0.532263
O O3 0.242260 0.527753 0.259402
O O4 0.130094 0.546819 0.265402
O O5 0.328732 0.750000 0.500000
O O6 0.326363 0.673638 0.249195
O O7 0.355999 0.644002 0.574558
O O8 0.108828 0.250000 0.000000
O O9 0.138838 0.138838 0.000000
O O10 0.038472 0.177509 0.872039
O O11 0.431659 0.848832 0.796959
O O12 0.363197 0.863197 0.070543
#
# Coordination Sequence:
#
# PCOD9563027 Si02
#       6
#    16   8  16   8  16   8
#     4  10  20  36  58  83 114 156 200 239 281 336
#     4  11  24  36  48  76 117 158 202 252 295 330
#     4  10  22  40  63  91 118 144 182 232 289 356
#     4  12  21  33  57  83 113 153 203 244 288 333
#     4  10  20  36  58  83 114 156 200 239 281 336
#     4  12  21  33  57  83 113 153 203 244 288 333
#
# _framework density 17.748321000000001
#
# number of rings (size 3 to 8) (size 9 to 14) (size 15 to 20)
#    0.000    1.444    4.444    1.333    0.000    3.778 
#    0.000    3.333    0.000    2.667    0.000    6.222 
#    0.000    0.000    0.000    0.000    0.000    0.000 
#
# Total GULP energy -401917.603863 kJ/mol
# GULP energy per Si atom -5582.188943 kJ/mol
# Density = 1.770792 g / cm^3
# Si number density = 17.748321 Si / 1000 Ang^3
#
#
#
# Elastic Constant Matrix: (Units=GPa)
#
#
# Indices 1 2 3 4 5 6 
#
# 1 70.6057 52.9184 1.3170 0.0000 0.0000 0.0000
# 2 52.9184 70.6057 1.3170 0.0000 0.0000 0.0000
# 3 1.3170 1.3170 63.5642 0.0000 0.0000 0.0000
# 4 0.0000 0.0000 0.0000 16.6483 0.0000 0.0000
# 5 0.0000 0.0000 0.0000 0.0000 16.6483 0.0000
# 6 0.0000 0.0000 0.0000 0.0000 0.0000 37.2159
#
#
#
# Elastic Compliance Matrix: (Units=1/GPa)
#
#
# Indices 1 2 3 4 5 6 
#
# 1 0.032318 -0.024219 -0.000168 0.000000 0.000000 0.000000
# 2 -0.024219 0.032318 -0.000168 0.000000 0.000000 0.000000
# 3 -0.000168 -0.000168 0.015739 0.000000 0.000000 0.000000
# 4 0.000000 0.000000 0.000000 0.060066 0.000000 0.000000
# 5 0.000000 0.000000 0.000000 0.000000 0.060066 0.000000
# 6 0.000000 0.000000 0.000000 0.000000 0.000000 0.026870
#
#
# Mechanical properties :
#
#
# Convention : Reuss Voigt Hill
#
# Bulk Modulus (GPa) = 31.98346 35.09784 33.54065
# Shear Modulus (GPa) = 17.42705 24.05071 20.73888
#
# Velocity S-wave (km/s) = 3.13693 3.68516 3.42204
# Velocity P-wave (km/s) = 5.58391 6.15836 5.87816
#
# Compressibility (1/GPa) = 0.03126617
#
# Stress axis : x y z
#
# Youngs Moduli (GPa) = 30.94208 30.94208 63.53607
#
# Poissons Ratio (x) = 0.74940 0.01066
# Poissons Ratio (y) = 0.74940 0.01066
# Poissons Ratio (z) = 0.00519 0.00519
#
# Static dielectric constant tensor:
#      x y z
#    x 1.591790 0.000000 0.000000 
#    y 0.000000 1.591790 0.000000 
#    z 0.000000 0.000000 1.612380 
# 
# From -- ./inp_files/2632.got.cif
#   From: 2010.05.17/outbox.cif.g08.bks.cpg/sg125_2_cif.got.tgz:2632.got - 2010.05.20 11:54:10.
