data_PCOD9563127
_publ_section_title
;
Structure prediction by ZEFSAII (Michael W. Deem and Ramdas Pophale) SiO2 
 PCOD9563127
Probable space group: P 4/N B M
;
_chemical_formula_sum "Si O2"
_cell_formula_units_Z 64
_cell_length_a 13.431276
_cell_length_b 13.431276
_cell_length_c 18.444970
_cell_angle_alpha 90.000000
_cell_angle_beta 90.000000
_cell_angle_gamma 90.000000
_cell_volume 3327.457371
_symmetry_space_group_name_H-M "P 4/N B M"
_symmetry_group_IT_number 125
_space_group.IT_coordinate_system_code '2'
_symmetry_cell_setting 'tetragonal'
loop_
_space_group_symop_operation_xyz
x,y,z
1/2-y,x,z
1/2-x,1/2-y,z
y,1/2-x,z
x,1/2-y,-z
1/2-x,y,-z
y,x,-z
1/2-y,1/2-x,-z
-x,-y,-z
1/2+y,-x,-z
1/2+x,1/2+y,-z
-y,1/2+x,-z
-x,1/2+y,z
1/2+x,-y,z
-y,-x,z
1/2+y,1/2+x,z
loop_
_atom_site_type_symbol
_atom_site_label
_atom_site_fract_x
_atom_site_fract_y
_atom_site_fract_z
Si Si1 0.714734 0.913273 0.296590
Si Si2 0.034988 0.126722 0.067221
Si Si3 0.012964 0.345009 0.455104
Si Si4 0.674009 0.014580 0.150513
O O1 0.636164 0.823065 0.288335
O O2 0.693985 0.954917 0.376393
O O3 0.703302 0.994357 0.233375
O O4 0.004028 0.234046 0.096241
O O5 0.092065 0.069034 0.131049
O O6 0.111044 0.111044 0.000000
O O7 0.936318 0.063683 0.047393
O O8 0.976837 0.250000 0.500000
O O9 0.104166 0.395835 0.500000
O O10 0.928806 0.428806 0.447929
O O11 0.620183 0.120183 0.140232
#
# Coordination Sequence:
#
# PCOD9563127 Si02
#       4
#    16  16  16  16
#     4  11  21  37  63  92 126 167 217 268 321 375
#     4  10  22  40  62  91 124 162 211 262 315 376
#     4  11  23  40  63  90 124 166 213 269 329 387
#     4  11  22  39  62  90 130 169 208 261 320 381
#
# _framework density 19.233906000000001
#
# number of rings (size 3 to 8) (size 9 to 14) (size 15 to 20)
#    0.000    1.250    5.000    1.500    0.000    1.500 
#    0.000    2.500    0.000    7.500    0.000    0.000 
#    0.000    0.000    0.000    0.000    0.000    0.000 
#
# Total GULP energy -357222.185787 kJ/mol
# GULP energy per Si atom -5581.596653 kJ/mol
# Density = 1.919013 g / cm^3
# Si number density = 19.233906 Si / 1000 Ang^3
#
#
#
# Elastic Constant Matrix: (Units=GPa)
#
#
# Indices 1 2 3 4 5 6 
#
# 1 90.9342 48.8554 43.6742 0.0000 0.0000 0.0000
# 2 48.8554 90.9343 43.6743 0.0000 0.0000 0.0000
# 3 43.6742 43.6743 142.9329 0.0000 0.0000 0.0000
# 4 0.0000 0.0000 0.0000 24.8327 0.0000 0.0000
# 5 0.0000 0.0000 0.0000 0.0000 24.8330 0.0000
# 6 0.0000 0.0000 0.0000 0.0000 0.0000 12.3541
#
#
#
# Elastic Compliance Matrix: (Units=1/GPa)
#
#
# Indices 1 2 3 4 5 6 
#
# 1 0.016303 -0.007462 -0.002702 0.000000 0.000000 0.000000
# 2 -0.007462 0.016303 -0.002702 0.000000 0.000000 0.000000
# 3 -0.002702 -0.002702 0.008647 0.000000 0.000000 0.000000
# 4 0.000000 0.000000 0.000000 0.040270 0.000000 0.000000
# 5 0.000000 0.000000 0.000000 0.000000 0.040269 0.000000
# 6 0.000000 0.000000 0.000000 0.000000 0.000000 0.080945
#
#
# Mechanical properties :
#
#
# Convention : Reuss Voigt Hill
#
# Bulk Modulus (GPa) = 64.41569 66.35658 65.38614
# Shear Modulus (GPa) = 21.40026 24.97711 23.18868
#
# Velocity S-wave (km/s) = 3.33923 3.60752 3.47596
# Velocity P-wave (km/s) = 6.95922 7.20603 7.08370
#
# Compressibility (1/GPa) = 0.01552417
#
# Stress axis : x y z
#
# Youngs Moduli (GPa) = 61.33709 61.33716 115.64280
#
# Poissons Ratio (x) = 0.45767 0.31243
# Poissons Ratio (y) = 0.45767 0.31243
# Poissons Ratio (z) = 0.16571 0.16571
#
# Static dielectric constant tensor:
#      x y z
#    x 1.665960 0.000000 0.000000 
#    y 0.000000 1.665960 0.000000 
#    z 0.000000 0.000000 1.677660 
# 
# From -- ./inp_files/4625.got.cif
#   From: 2010.05.17/outbox.cif.g08.bks.cpg/sg125_3_cif.got.tgz:4625.got - 2010.05.20 11:54:10.
