data_PCOD9563929
_publ_section_title
;
Structure prediction by ZEFSAII (Michael W. Deem and Ramdas Pophale) SiO2 
 PCOD9563929
Probable space group: P 4/M B M
;
_chemical_formula_sum "Si O2"
_cell_formula_units_Z 72
_cell_length_a 14.009671
_cell_length_b 14.009671
_cell_length_c 19.740099
_cell_angle_alpha 90.000000
_cell_angle_beta 90.000000
_cell_angle_gamma 90.000000
_cell_volume 3874.406632
_symmetry_space_group_name_H-M "P 4/M B M"
_symmetry_group_IT_number 127
_symmetry_cell_setting 'tetragonal'
loop_
_space_group_symop_operation_xyz
x,y,z
-y,x,z
-x,-y,z
y,-x,z
1/2+x,1/2-y,-z
1/2-x,1/2+y,-z
1/2+y,1/2+x,-z
1/2-y,1/2-x,-z
-x,-y,-z
y,-x,-z
x,y,-z
-y,x,-z
1/2-x,1/2+y,z
1/2+x,1/2-y,z
1/2-y,1/2-x,z
1/2+y,1/2+x,z
loop_
_atom_site_type_symbol
_atom_site_label
_atom_site_fract_x
_atom_site_fract_y
_atom_site_fract_z
Si Si1 0.417690 0.917690 0.577210
Si Si2 0.796991 0.457599 0.672694
Si Si3 0.661732 0.000224 0.177674
Si Si4 0.356896 0.572828 0.573845
Si Si5 0.501855 0.341920 0.080941
O O1 0.392911 0.892911 0.500000
O O2 0.461700 0.831247 0.619863
O O3 0.500000 0.000000 0.574558
O O4 0.883438 0.383438 0.676109
O O5 0.788061 0.496363 0.748476
O O6 0.707623 0.406124 0.638274
O O7 0.591480 0.091480 0.174887
O O8 0.592290 0.907711 0.170456
O O9 0.743670 0.002487 0.121520
O O10 0.378217 0.459661 0.576040
O O11 0.311852 0.594867 0.500000
O O12 0.593466 0.408671 0.096831
O O13 0.502094 0.325557 0.000000
#
# Coordination Sequence:
#
# PCOD9563929 Si02
#       5
#     8  16  16  16  16
#     4   9  16  28  50  74  97 133 175 218 267 308
#     4  10  19  34  53  76 106 138 177 224 269 321
#     4  10  21  37  56  82 119 154 184 227 283 339
#     4   9  19  36  53  70 100 140 178 222 278 333
#     4   9  20  40  63  86 113 147 190 236 278 330
#
# _framework density 18.583490999999999
#
# number of rings (size 3 to 8) (size 9 to 14) (size 15 to 20)
#    0.000    2.556    1.111    2.000    0.000    4.889 
#    2.000    7.778    0.000    0.000    0.000    0.000 
#    0.000    0.000    0.000    0.000    0.000    0.000 
#
# Total GULP energy -401457.677918 kJ/mol
# GULP energy per Si atom -5575.801082 kJ/mol
# Density = 1.854119 g / cm^3
# Si number density = 18.583491 Si / 1000 Ang^3
#
#
#
# Elastic Constant Matrix: (Units=GPa)
#
#
# Indices 1 2 3 4 5 6 
#
# 1 67.8503 -1.1691 45.3434 0.0000 0.0000 0.0000
# 2 -1.1691 67.8503 45.3434 0.0000 0.0000 0.0000
# 3 45.3434 45.3434 102.6086 0.0000 0.0000 0.0000
# 4 0.0000 0.0000 0.0000 19.1978 0.0000 0.0000
# 5 0.0000 0.0000 0.0000 0.0000 19.1978 0.0000
# 6 0.0000 0.0000 0.0000 0.0000 0.0000 3.6395
#
#
#
# Elastic Compliance Matrix: (Units=1/GPa)
#
#
# Indices 1 2 3 4 5 6 
#
# 1 0.026037 0.011548 -0.016609 0.000000 0.000000 0.000000
# 2 0.011548 0.026037 -0.016609 0.000000 0.000000 0.000000
# 3 -0.016609 -0.016609 0.024425 0.000000 0.000000 0.000000
# 4 0.000000 0.000000 0.000000 0.052089 0.000000 0.000000
# 5 0.000000 0.000000 0.000000 0.000000 0.052089 0.000000
# 6 0.000000 0.000000 0.000000 0.000000 0.000000 0.274762
#
#
# Mechanical properties :
#
#
# Convention : Reuss Voigt Hill
#
# Bulk Modulus (GPa) = 30.15765 46.37164 38.26465
# Shear Modulus (GPa) = 9.80713 18.32643 14.06678
#
# Velocity S-wave (km/s) = 2.29974 3.14374 2.75426
# Velocity P-wave (km/s) = 4.82858 6.17938 5.54526
#
# Compressibility (1/GPa) = 0.03315908
#
# Stress axis : x y z
#
# Youngs Moduli (GPa) = 38.40680 38.40680 40.94119
#
# Poissons Ratio (x) = -0.44354 0.68000
# Poissons Ratio (y) = -0.44354 0.68000
# Poissons Ratio (z) = 0.63791 0.63791
#
# Static dielectric constant tensor:
#      x y z
#    x 1.661540 0.000000 0.000000 
#    y 0.000000 1.661540 0.000000 
#    z 0.000000 0.000000 1.646860 
# 
# From -- ./inp_files/4932.got.cif
#   From: 2010.05.17/outbox.cif.g08.bks.cpg/sg127_3_cif.got.tgz:4932.got - 2010.05.20 12:03:00.
