data_PCOD9563239
_publ_section_title
;
Structure prediction by ZEFSAII (Michael W. Deem and Ramdas Pophale) SiO2 
 PCOD9563239
Probable space group: P 4/N B M
;
_chemical_formula_sum "Si O2"
_cell_formula_units_Z 64
_cell_length_a 13.184027
_cell_length_b 13.184027
_cell_length_c 19.630694
_cell_angle_alpha 90.000000
_cell_angle_beta 90.000000
_cell_angle_gamma 90.000000
_cell_volume 3412.179119
_symmetry_space_group_name_H-M "P 4/N B M"
_symmetry_group_IT_number 125
_space_group.IT_coordinate_system_code '2'
_symmetry_cell_setting 'tetragonal'
loop_
_space_group_symop_operation_xyz
x,y,z
1/2-y,x,z
1/2-x,1/2-y,z
y,1/2-x,z
x,1/2-y,-z
1/2-x,y,-z
y,x,-z
1/2-y,1/2-x,-z
-x,-y,-z
1/2+y,-x,-z
1/2+x,1/2+y,-z
-y,1/2+x,-z
-x,1/2+y,z
1/2+x,-y,z
-y,-x,z
1/2+y,1/2+x,z
loop_
_atom_site_type_symbol
_atom_site_label
_atom_site_fract_x
_atom_site_fract_y
_atom_site_fract_z
Si Si1 0.083161 0.747701 0.696396
Si Si2 0.919612 0.744546 0.579382
Si Si3 0.220670 0.084387 0.806987
Si Si4 0.513372 0.656675 0.955794
O O1 0.166966 0.833035 0.683700
O O2 0.143646 0.643646 0.711406
O O3 0.011916 0.737527 0.630744
O O4 0.012447 0.782860 0.758636
O O5 0.850508 0.844328 0.590887
O O6 0.950153 0.750000 0.500000
O O7 0.329284 0.136915 0.793481
O O8 0.202403 0.053894 0.885240
O O9 0.428139 0.571861 0.942794
O O10 0.472182 0.750000 0.000000
O O11 0.602028 0.602028 0.000000
#
# Coordination Sequence:
#
# PCOD9563239 Si02
#       4
#    16  16  16  16
#     4  11  25  41  57  85 127 167 203 249 307 370
#     4   9  19  38  64  92 121 156 205 260 308 361
#     4  11  23  40  66  91 116 154 202 254 302 358
#     4  11  23  40  64  92 123 159 199 247 304 364
#
# _framework density 18.756340999999999
#
# number of rings (size 3 to 8) (size 9 to 14) (size 15 to 20)
#    0.000    1.500    2.500    3.000    0.000    9.500 
#    0.000    3.750    0.000    0.000    0.000    0.000 
#    0.000    0.000    0.000    0.000    0.000    0.000 
#
# Total GULP energy -357514.513390 kJ/mol
# GULP energy per Si atom -5586.164272 kJ/mol
# Density = 1.871365 g / cm^3
# Si number density = 18.756341 Si / 1000 Ang^3
#
#
#
# Elastic Constant Matrix: (Units=GPa)
#
#
# Indices 1 2 3 4 5 6 
#
# 1 94.0822 37.3092 54.4977 0.0000 0.0000 0.0000
# 2 37.3092 94.0822 54.4977 0.0000 0.0000 0.0000
# 3 54.4977 54.4977 90.6310 0.0000 0.0000 0.0000
# 4 0.0000 0.0000 0.0000 4.4675 0.0000 0.0000
# 5 0.0000 0.0000 0.0000 0.0000 4.4675 0.0000
# 6 0.0000 0.0000 0.0000 0.0000 0.0000 9.5781
#
#
#
# Elastic Compliance Matrix: (Units=1/GPa)
#
#
# Indices 1 2 3 4 5 6 
#
# 1 0.016400 -0.001214 -0.009131 0.000000 0.000000 0.000000
# 2 -0.001214 0.016400 -0.009131 0.000000 0.000000 0.000000
# 3 -0.009131 -0.009131 0.022015 0.000000 0.000000 0.000000
# 4 0.000000 0.000000 0.000000 0.223837 0.000000 0.000000
# 5 0.000000 0.000000 0.000000 0.000000 0.223837 0.000000
# 6 0.000000 0.000000 0.000000 0.000000 0.000000 0.104405
#
#
# Mechanical properties :
#
#
# Convention : Reuss Voigt Hill
#
# Bulk Modulus (GPa) = 63.04637 63.48938 63.26787
# Shear Modulus (GPa) = 7.67889 12.53535 10.10712
#
# Velocity S-wave (km/s) = 2.02556 2.58800 2.32386
# Velocity P-wave (km/s) = 6.25755 6.54625 6.40353
#
# Compressibility (1/GPa) = 0.01586134
#
# Stress axis : x y z
#
# Youngs Moduli (GPa) = 60.97595 60.97595 45.42263
#
# Poissons Ratio (x) = 0.07403 0.41477
# Poissons Ratio (y) = 0.07403 0.41477
# Poissons Ratio (z) = 0.55680 0.55680
#
# Static dielectric constant tensor:
#      x y z
#    x 1.635020 0.000000 0.000000 
#    y 0.000000 1.635020 0.000000 
#    z 0.000000 0.000000 1.638360 
# 
# From -- ./inp_files/5717.got.cif
#   From: 2010.05.17/outbox.cif.g08.bks.cpg/sg125_3_cif.got.tgz:5717.got - 2010.05.20 11:54:10.
