data_PCOD9563460
_publ_section_title
;
Structure prediction by ZEFSAII (Michael W. Deem and Ramdas Pophale) SiO2 
 PCOD9563460
Probable space group: P 4/N N C
;
_chemical_formula_sum "Si O2"
_cell_formula_units_Z 96
_cell_length_a 20.107576
_cell_length_b 20.107576
_cell_length_c 12.659749
_cell_angle_alpha 90.000000
_cell_angle_beta 90.000000
_cell_angle_gamma 90.000000
_cell_volume 5118.521512
_symmetry_space_group_name_H-M "P 4/N N C"
_symmetry_group_IT_number 126
_space_group.IT_coordinate_system_code '2'
_symmetry_cell_setting 'tetragonal'
loop_
_space_group_symop_operation_xyz
x,y,z
1/2-y,x,z
1/2-x,1/2-y,z
y,1/2-x,z
x,1/2-y,1/2-z
1/2-x,y,1/2-z
y,x,1/2-z
1/2-y,1/2-x,1/2-z
-x,-y,-z
1/2+y,-x,-z
1/2+x,1/2+y,-z
-y,1/2+x,-z
-x,1/2+y,1/2+z
1/2+x,-y,1/2+z
-y,-x,1/2+z
1/2+y,1/2+x,1/2+z
loop_
_atom_site_type_symbol
_atom_site_label
_atom_site_fract_x
_atom_site_fract_y
_atom_site_fract_z
Si Si1 0.861056 0.750000 0.750000
Si Si2 0.883569 0.347545 0.957055
Si Si3 0.460606 0.197659 0.082317
Si Si4 0.549505 0.950495 0.250000
Si Si5 0.012972 0.193665 0.659252
Si Si6 0.607448 0.249443 0.368982
Si Si7 0.482362 0.558427 0.580981
O O1 0.813760 0.813760 0.750000
O O2 0.906711 0.737908 0.851997
O O3 0.935087 0.315975 0.872798
O O4 0.826028 0.387433 0.902441
O O5 0.857243 0.293506 0.041051
O O6 0.924991 0.399475 0.026034
O O7 0.531931 0.224022 0.124110
O O8 0.462718 0.116814 0.100194
O O9 0.456164 0.210434 0.956273
O O10 0.542278 0.878489 0.193711
O O11 0.482696 0.956390 0.319887
O O12 0.021323 0.250000 0.750000
O O13 0.633336 0.250000 0.250000
O O14 0.500000 0.500000 0.500000
#
# Coordination Sequence:
#
# PCOD9563460 Si02
#       7
#     8  16  16   8  16  16  16
#     4  11  26  44  66  94 128 171 220 272 337 412
#     4  10  24  39  58  90 127 164 215 259 317 382
#     4  10  23  42  62  94 127 171 217 268 339 383
#     4  12  22  36  68  97 127 168 216 266 338 392
#     4  10  24  41  62  97 128 167 210 268 332 385
#     4  10  22  40  61  87 120 170 210 255 320 384
#     4  10  21  38  59  98 128 157 214 271 325 392
#
# _framework density 18.755417000000001
#
# number of rings (size 3 to 8) (size 9 to 14) (size 15 to 20)
#    0.000    2.083    4.167    0.000   10.500    3.000 
#    0.000    0.833    0.000    0.250    0.000    0.000 
#    0.000    0.000    0.000    0.000    0.000    0.000 
#
# Total GULP energy -534538.517485 kJ/mol
# GULP energy per Si atom -5568.109557 kJ/mol
# Density = 1.871273 g / cm^3
# Si number density = 18.755417 Si / 1000 Ang^3
#
#
#
# Elastic Constant Matrix: (Units=GPa)
#
#
# Indices 1 2 3 4 5 6 
#
# 1 88.2192 29.0605 39.5491 0.0000 0.0000 0.0000
# 2 29.0605 88.2196 39.5491 0.0000 0.0000 0.0000
# 3 39.5491 39.5491 91.1740 0.0000 0.0000 0.0000
# 4 0.0000 0.0000 0.0000 15.2852 0.0000 0.0000
# 5 0.0000 0.0000 0.0000 0.0000 15.2853 0.0000
# 6 0.0000 0.0000 0.0000 0.0000 0.0000 -510.9704
#
#
#
# Elastic Compliance Matrix: (Units=1/GPa)
#
#
# Indices 1 2 3 4 5 6 
#
# 1 0.014478 -0.002425 -0.005228 0.000000 0.000000 0.000000
# 2 -0.002425 0.014478 -0.005228 0.000000 0.000000 0.000000
# 3 -0.005228 -0.005228 0.015504 0.000000 0.000000 0.000000
# 4 0.000000 0.000000 0.000000 0.065423 0.000000 0.000000
# 5 0.000000 0.000000 0.000000 0.000000 0.065422 0.000000
# 6 0.000000 0.000000 0.000000 0.000000 0.000000 -0.001957
#
#
# Mechanical properties :
#
#
# Convention : Reuss Voigt Hill
#
# Bulk Modulus (GPa) = 53.48607 53.77003 53.62805
# Shear Modulus (GPa) = 24.34941 -85.44971 -30.55015
#
# Velocity S-wave (km/s) = 3.60705 -6.75714 -4.04031
# Velocity P-wave (km/s) = 6.77697 5.66986 2.62488
#
# Compressibility (1/GPa) = 0.01869646
#
# Stress axis : x y z
#
# Youngs Moduli (GPa) = 69.06940 69.06969 64.50054
#
# Poissons Ratio (x) = 0.16753 0.33722
# Poissons Ratio (y) = 0.16752 0.33722
# Poissons Ratio (z) = 0.36111 0.36111
#
# Static dielectric constant tensor:
#      x y z
#    x 1.675930 0.000000 0.000000 
#    y 0.000000 1.675930 0.000000 
#    z 0.000000 0.000000 1.706440 
# 
# From -- ./inp_files/2950.got.cif
#   From: 2010.05.17/outbox.cif.g08.bks.cpg/sg126_2_cif.got.tgz:2950.got - 2010.05.20 11:58:20.
