data_PCOD9563923
_publ_section_title
;
Structure prediction by ZEFSAII (Michael W. Deem and Ramdas Pophale) SiO2 
 PCOD9563923
Probable space group: P 4/M B M
;
_chemical_formula_sum "Si O2"
_cell_formula_units_Z 72
_cell_length_a 19.005938
_cell_length_b 19.005938
_cell_length_c 12.686172
_cell_angle_alpha 90.000000
_cell_angle_beta 90.000000
_cell_angle_gamma 90.000000
_cell_volume 4582.571098
_symmetry_space_group_name_H-M "P 4/M B M"
_symmetry_group_IT_number 127
_symmetry_cell_setting 'tetragonal'
loop_
_space_group_symop_operation_xyz
x,y,z
-y,x,z
-x,-y,z
y,-x,z
1/2+x,1/2-y,-z
1/2-x,1/2+y,-z
1/2+y,1/2+x,-z
1/2-y,1/2-x,-z
-x,-y,-z
y,-x,-z
x,y,-z
-y,x,-z
1/2-x,1/2+y,z
1/2+x,1/2-y,z
1/2-y,1/2-x,z
1/2+y,1/2+x,z
loop_
_atom_site_type_symbol
_atom_site_label
_atom_site_fract_x
_atom_site_fract_y
_atom_site_fract_z
Si Si1 0.890654 0.197881 0.693721
Si Si2 0.560141 0.600219 0.124975
Si Si3 0.603949 0.443709 0.500000
Si Si4 0.841465 0.459458 0.626677
Si Si5 0.616485 0.116485 0.372363
Si Si6 0.767421 0.732580 0.372268
O O1 0.905351 0.159442 0.803515
O O2 0.920156 0.146907 0.602400
O O3 0.930515 0.272055 0.682639
O O4 0.808680 0.211138 0.671044
O O5 0.476712 0.592993 0.148289
O O6 0.567686 0.612692 0.000000
O O7 0.592069 0.527353 0.500000
O O8 0.827426 0.460074 0.500000
O O9 0.906111 0.406111 0.643674
O O10 0.861775 0.538096 0.660966
O O11 0.614436 0.114436 0.500000
O O12 0.674399 0.174399 0.343438
O O13 0.763029 0.736972 0.500000
#
# Coordination Sequence:
#
# PCOD9563923 Si02
#       6
#    16  16   8  16   8   8
#     4  12  21  33  56  78 113 148 178 223 280 339
#     4   9  20  39  60  81 107 143 187 231 277 332
#     4  11  24  33  48  80 113 144 179 218 264 342
#     4  10  19  34  51  75 105 149 188 228 266 312
#     4   9  21  32  51  71 106 147 196 220 257 322
#     4  11  22  35  47  81 119 153 176 218 286 340
#
# _framework density 15.711702000000001
#
# number of rings (size 3 to 8) (size 9 to 14) (size 15 to 20)
#    0.000    1.667    3.333    2.333    6.222    3.111 
#    0.000    0.556    0.000    0.000    0.000    0.778 
#    0.000    1.778    0.000    0.000    0.000    0.000 
#
# Total GULP energy -401991.771589 kJ/mol
# GULP energy per Si atom -5583.219050 kJ/mol
# Density = 1.567594 g / cm^3
# Si number density = 15.711702 Si / 1000 Ang^3
#
#
#
# Elastic Constant Matrix: (Units=GPa)
#
#
# Indices 1 2 3 4 5 6 
#
# 1 114.6005 120.4741 49.5314 0.0000 0.0000 0.0000
# 2 120.4741 114.6004 49.5307 0.0000 0.0000 0.0000
# 3 49.5314 49.5307 49.0041 0.0000 0.0000 0.0000
# 4 0.0000 0.0000 0.0000 18.4295 0.0000 0.0000
# 5 0.0000 0.0000 0.0000 0.0000 18.4296 0.0000
# 6 0.0000 0.0000 0.0000 0.0000 0.0000 25.5900
#
#
#
# Elastic Compliance Matrix: (Units=1/GPa)
#
#
# Indices 1 2 3 4 5 6 
#
# 1 -0.081421 0.088831 -0.007488 0.000000 0.000000 0.000000
# 2 0.088831 -0.081420 -0.007492 0.000000 0.000000 0.000000
# 3 -0.007488 -0.007492 0.035547 0.000000 0.000000 0.000000
# 4 0.000000 0.000000 0.000000 0.054261 0.000000 0.000000
# 5 0.000000 0.000000 0.000000 0.000000 0.054261 0.000000
# 6 0.000000 0.000000 0.000000 0.000000 0.000000 0.039078
#
#
# Mechanical properties :
#
#
# Convention : Reuss Voigt Hill
#
# Bulk Modulus (GPa) = 49.00002 79.69749 64.34875
# Shear Modulus (GPa) = -41.46153 16.40109 -12.53022
#
# Velocity S-wave (km/s) = -5.14259 3.23441 -2.82708
# Velocity P-wave (km/s) = 2.00175 8.04883 5.51256
#
# Compressibility (1/GPa) = 0.02040816
#
# Stress axis : x y z
#
# Youngs Moduli (GPa) = -12.28178 -12.28204 28.13139
#
# Poissons Ratio (x) = 1.09102 0.21064
# Poissons Ratio (y) = 1.09100 0.21077
# Poissons Ratio (z) = -0.09196 -0.09202
#
# Static dielectric constant tensor:
#      x y z
#    x 1.515980 0.000000 0.000000 
#    y 0.000000 1.515980 0.000000 
#    z 0.000000 0.000000 1.497090 
# 
# From -- ./inp_files/3244.got.cif
#   From: 2010.05.17/outbox.cif.g08.bks.cpg/sg127_2_cif.got.tgz:3244.got - 2010.05.20 12:03:00.
