data_PCOD9563444
_publ_section_title
;
Structure prediction by ZEFSAII (Michael W. Deem and Ramdas Pophale) SiO2 
 PCOD9563444
Probable space group: P 4/N N C
;
_chemical_formula_sum "Si O2"
_cell_formula_units_Z 112
_cell_length_a 14.780480
_cell_length_b 14.780480
_cell_length_c 26.658091
_cell_angle_alpha 90.000000
_cell_angle_beta 90.000000
_cell_angle_gamma 90.000000
_cell_volume 5823.795578
_symmetry_space_group_name_H-M "P 4/N N C"
_symmetry_group_IT_number 126
_space_group.IT_coordinate_system_code '2'
_symmetry_cell_setting 'tetragonal'
loop_
_space_group_symop_operation_xyz
x,y,z
1/2-y,x,z
1/2-x,1/2-y,z
y,1/2-x,z
x,1/2-y,1/2-z
1/2-x,y,1/2-z
y,x,1/2-z
1/2-y,1/2-x,1/2-z
-x,-y,-z
1/2+y,-x,-z
1/2+x,1/2+y,-z
-y,1/2+x,-z
-x,1/2+y,1/2+z
1/2+x,-y,1/2+z
-y,-x,1/2+z
1/2+y,1/2+x,1/2+z
loop_
_atom_site_type_symbol
_atom_site_label
_atom_site_fract_x
_atom_site_fract_y
_atom_site_fract_z
Si Si1 0.003132 0.148105 0.273347
Si Si2 0.145776 0.528566 0.391498
Si Si3 0.797589 0.114361 0.986420
Si Si4 0.155992 0.361388 0.448347
Si Si5 0.449542 0.334543 0.552295
Si Si6 0.649479 0.506881 0.271395
Si Si7 0.475101 0.150182 0.612633
O O1 0.999804 0.250000 0.250000
O O2 0.001597 0.163075 0.334218
O O3 0.914456 0.083070 0.264937
O O4 0.087925 0.087925 0.250000
O O5 0.218124 0.569679 0.431628
O O6 0.105527 0.440596 0.419605
O O7 0.074468 0.609459 0.392195
O O8 0.704040 0.142317 0.012370
O O9 0.846351 0.041121 0.021148
O O10 0.127508 0.261469 0.433841
O O11 0.155465 0.375159 0.508075
O O12 0.455302 0.238634 0.579964
O O13 0.427274 0.407960 0.593597
O O14 0.750000 0.493176 0.250000
O O15 0.589346 0.589346 0.250000
O O16 0.666544 0.533604 0.328883
#
# Coordination Sequence:
#
# PCOD9563444 Si02
#       7
#    16  16  16  16  16  16  16
#     4  10  24  46  69  97 130 168 224 280 332 391
#     4  10  23  40  63  92 122 163 214 247 321 382
#     4  10  21  40  60  92 134 166 208 259 308 388
#     4  10  21  36  56  87 126 155 201 245 298 364
#     4  11  21  36  59  86 123 164 201 252 304 367
#     4  10  22  44  65  94 129 164 215 277 329 391
#     4  11  22  38  60  89 117 163 209 250 312 377
#
# _framework density 19.231445999999998
#
# number of rings (size 3 to 8) (size 9 to 14) (size 15 to 20)
#    0.000    1.714    2.857    0.857    2.000    5.429 
#    7.714    1.429    0.000    0.000    0.000    0.000 
#    0.000    0.000    0.000    0.000    0.000    0.000 
#
# Total GULP energy -623475.642140 kJ/mol
# GULP energy per Si atom -5566.746805 kJ/mol
# Density = 1.918767 g / cm^3
# Si number density = 19.231446 Si / 1000 Ang^3
#
#
#
# Elastic Constant Matrix: (Units=GPa)
#
#
# Indices 1 2 3 4 5 6 
#
# 1 100.3214 -20.0436 46.6983 0.0000 0.0000 0.0000
# 2 -20.0436 100.3214 46.6983 0.0000 0.0000 0.0000
# 3 46.6983 46.6983 146.9086 0.0000 0.0000 0.0000
# 4 0.0000 0.0000 0.0000 18.0003 0.0000 0.0000
# 5 0.0000 0.0000 0.0000 0.0000 18.0003 0.0000
# 6 0.0000 0.0000 0.0000 0.0000 0.0000 2.8919
#
#
#
# Elastic Compliance Matrix: (Units=1/GPa)
#
#
# Indices 1 2 3 4 5 6 
#
# 1 0.014037 0.005729 -0.006283 0.000000 0.000000 0.000000
# 2 0.005729 0.014037 -0.006283 0.000000 0.000000 0.000000
# 3 -0.006283 -0.006283 0.010802 0.000000 0.000000 0.000000
# 4 0.000000 0.000000 0.000000 0.055555 0.000000 0.000000
# 5 0.000000 0.000000 0.000000 0.000000 0.055555 0.000000
# 6 0.000000 0.000000 0.000000 0.000000 0.000000 0.345794
#
#
# Mechanical properties :
#
#
# Convention : Reuss Voigt Hill
#
# Bulk Modulus (GPa) = 39.67945 54.91746 47.29846
# Shear Modulus (GPa) = 9.65521 26.05839 17.85680
#
# Velocity S-wave (km/s) = 2.24309 3.68501 3.05047
# Velocity P-wave (km/s) = 5.23316 6.83548 6.08727
#
# Compressibility (1/GPa) = 0.02520196
#
# Stress axis : x y z
#
# Youngs Moduli (GPa) = 71.23778 71.23778 92.57907
#
# Poissons Ratio (x) = -0.40815 0.58171
# Poissons Ratio (y) = -0.40815 0.58171
# Poissons Ratio (z) = 0.44761 0.44761
#
# Static dielectric constant tensor:
#      x y z
#    x 1.697300 0.000000 0.000000 
#    y 0.000000 1.697300 0.000000 
#    z 0.000000 0.000000 1.700430 
# 
# From -- ./inp_files/6237.got.cif
#   From: 2010.05.17/outbox.cif.g08.bks.cpg/sg126_4_cif.got.tgz:6237.got - 2010.05.20 11:58:20.
