data_PCOD9563475
_publ_section_title
;
Structure prediction by ZEFSAII (Michael W. Deem and Ramdas Pophale) SiO2 
 PCOD9563475
Probable space group: P 4/N N C
;
_chemical_formula_sum "Si O2"
_cell_formula_units_Z 96
_cell_length_a 19.647719
_cell_length_b 19.647719
_cell_length_c 11.789640
_cell_angle_alpha 90.000000
_cell_angle_beta 90.000000
_cell_angle_gamma 90.000000
_cell_volume 4551.188470
_symmetry_space_group_name_H-M "P 4/N N C"
_symmetry_group_IT_number 126
_space_group.IT_coordinate_system_code '2'
_symmetry_cell_setting 'tetragonal'
loop_
_space_group_symop_operation_xyz
x,y,z
1/2-y,x,z
1/2-x,1/2-y,z
y,1/2-x,z
x,1/2-y,1/2-z
1/2-x,y,1/2-z
y,x,1/2-z
1/2-y,1/2-x,1/2-z
-x,-y,-z
1/2+y,-x,-z
1/2+x,1/2+y,-z
-y,1/2+x,-z
-x,1/2+y,1/2+z
1/2+x,-y,1/2+z
-y,-x,1/2+z
1/2+y,1/2+x,1/2+z
loop_
_atom_site_type_symbol
_atom_site_label
_atom_site_fract_x
_atom_site_fract_y
_atom_site_fract_z
Si Si1 0.097487 0.931470 0.186122
Si Si2 0.445152 0.315520 0.573950
Si Si3 0.926353 0.675644 0.807364
Si Si4 0.750000 0.637411 0.250000
Si Si5 0.846719 0.305304 0.339359
Si Si6 0.405960 0.702177 0.498946
Si Si7 0.059093 0.440908 0.750000
O O1 0.131118 0.881111 0.276921
O O2 0.016425 0.934007 0.195641
O O3 0.130596 0.005432 0.209412
O O4 0.130112 0.907219 0.066567
O O5 0.419605 0.321098 0.444472
O O6 0.407656 0.254905 0.638767
O O7 0.524441 0.297028 0.568598
O O8 0.435798 0.383316 0.651463
O O9 0.934235 0.750000 0.750000
O O10 0.863732 0.636269 0.750000
O O11 0.814413 0.685587 0.250000
O O12 0.821909 0.250000 0.250000
O O13 0.792651 0.339436 0.421964
O O14 0.902248 0.262660 0.410600
#
# Coordination Sequence:
#
# PCOD9563475 Si02
#       7
#    16  16  16   8  16  16   8
#     4  10  21  41  66  99 141 172 223 295 363 406
#     4  11  25  44  70 107 134 182 237 285 360 416
#     4  11  25  43  68 101 139 187 234 291 350 432
#     4  11  26  48  70  96 143 186 218 284 355 424
#     4  10  21  42  65  91 136 181 227 279 352 415
#     4  10  22  41  65  98 133 185 229 283 347 419
#     4  12  22  40  73 112 135 172 242 294 360 414
#
# _framework density 21.093392999999999
#
# number of rings (size 3 to 8) (size 9 to 14) (size 15 to 20)
#    0.000    1.417    3.333    2.500    2.333    5.833 
#    0.000    2.500    0.000    0.000    0.000    0.000 
#    0.000    0.000    0.000    0.000    0.000    0.000 
#
# Total GULP energy -536342.463232 kJ/mol
# GULP energy per Si atom -5586.900659 kJ/mol
# Density = 2.104538 g / cm^3
# Si number density = 21.093393 Si / 1000 Ang^3
#
#
#
# Elastic Constant Matrix: (Units=GPa)
#
#
# Indices 1 2 3 4 5 6 
#
# 1 78.9921 65.8325 56.7483 0.0000 0.0000 0.0000
# 2 65.8325 78.9902 56.7453 0.0000 0.0000 0.0000
# 3 56.7483 56.7453 110.9311 0.0000 0.0000 0.0000
# 4 0.0000 0.0000 0.0000 26.9690 0.0000 0.0000
# 5 0.0000 0.0000 0.0000 0.0000 26.9668 0.0000
# 6 0.0000 0.0000 0.0000 0.0000 0.0000 22.1263
#
#
#
# Elastic Compliance Matrix: (Units=1/GPa)
#
#
# Indices 1 2 3 4 5 6 
#
# 1 0.043761 -0.032235 -0.005897 0.000000 0.000000 0.000000
# 2 -0.032235 0.043760 -0.005894 0.000000 0.000000 0.000000
# 3 -0.005897 -0.005894 0.015047 0.000000 0.000000 0.000000
# 4 0.000000 0.000000 0.000000 0.037080 0.000000 0.000000
# 5 0.000000 0.000000 0.000000 0.000000 0.037083 0.000000
# 6 0.000000 0.000000 0.000000 0.000000 0.000000 0.045195
#
#
# Mechanical properties :
#
#
# Convention : Reuss Voigt Hill
#
# Bulk Modulus (GPa) = 68.89865 69.72951 69.31408
# Shear Modulus (GPa) = 15.88229 21.18491 18.53360
#
# Velocity S-wave (km/s) = 2.74697 3.17257 2.96741
# Velocity P-wave (km/s) = 6.54184 6.82272 6.68376
#
# Compressibility (1/GPa) = 0.01451407
#
# Stress axis : x y z
#
# Youngs Moduli (GPa) = 22.85140 22.85199 66.46049
#
# Poissons Ratio (x) = 0.73664 0.39192
# Poissons Ratio (y) = 0.73662 0.39174
# Poissons Ratio (z) = 0.13476 0.13470
#
# Static dielectric constant tensor:
#      x y z
#    x 1.749320 0.000000 0.000000 
#    y 0.000000 1.749320 0.000000 
#    z 0.000000 0.000000 1.779990 
# 
# From -- ./inp_files/2924.got.cif
#   From: 2010.05.17/outbox.cif.g08.bks.cpg/sg126_2_cif.got.tgz:2924.got - 2010.05.20 11:58:20.
