data_PCOD9563141
_publ_section_title
;
Structure prediction by ZEFSAII (Michael W. Deem and Ramdas Pophale) SiO2 
 PCOD9563141
Probable space group: P 4/N B M
;
_chemical_formula_sum "Si O2"
_cell_formula_units_Z 72
_cell_length_a 13.697337
_cell_length_b 13.697337
_cell_length_c 18.788651
_cell_angle_alpha 90.000000
_cell_angle_beta 90.000000
_cell_angle_gamma 90.000000
_cell_volume 3525.071103
_symmetry_space_group_name_H-M "P 4/N B M"
_symmetry_group_IT_number 125
_space_group.IT_coordinate_system_code '2'
_symmetry_cell_setting 'tetragonal'
loop_
_space_group_symop_operation_xyz
x,y,z
1/2-y,x,z
1/2-x,1/2-y,z
y,1/2-x,z
x,1/2-y,-z
1/2-x,y,-z
y,x,-z
1/2-y,1/2-x,-z
-x,-y,-z
1/2+y,-x,-z
1/2+x,1/2+y,-z
-y,1/2+x,-z
-x,1/2+y,z
1/2+x,-y,z
-y,-x,z
1/2+y,1/2+x,z
loop_
_atom_site_type_symbol
_atom_site_label
_atom_site_fract_x
_atom_site_fract_y
_atom_site_fract_z
Si Si1 0.499398 0.500603 0.891004
Si Si2 0.139516 0.134971 0.798054
Si Si3 0.629823 0.370178 0.998978
Si Si4 0.134569 0.365432 0.500000
Si Si5 0.591845 0.257134 0.415050
Si Si6 0.547727 0.613473 0.351020
O O1 0.430164 0.434497 0.842397
O O2 0.573199 0.426802 0.934021
O O3 0.427735 0.572266 0.937267
O O4 0.252345 0.116730 0.814967
O O5 0.120878 0.122056 0.713887
O O6 0.615118 0.250000 0.000000
O O7 0.121834 0.250000 0.500000
O O8 0.089220 0.407654 0.571791
O O9 0.573171 0.250000 0.500000
O O10 0.638180 0.361821 0.397932
O O11 0.677542 0.177542 0.404322
O O12 0.505977 0.216799 0.366418
O O13 0.466322 0.533679 0.333000
#
# Coordination Sequence:
#
# PCOD9563141 Si02
#       6
#     8  16   8   8  16  16
#     4  11  22  44  72 105 140 180 222 251 304 394
#     4  11  24  43  64  91 135 183 222 268 323 383
#     4  10  22  42  76 114 146 172 206 264 318 362
#     4  11  23  38  54  76 107 155 222 286 338 386
#     4   8  15  29  50  76 109 148 199 276 349 396
#     4  11  21  37  58  84 117 163 222 279 336 395
#
# _framework density 20.425118999999999
#
# number of rings (size 3 to 8) (size 9 to 14) (size 15 to 20)
#    0.000    1.778    1.111    4.333    0.000    1.778 
#    2.000    3.333    0.000    5.333    0.000    0.000 
#    0.000    0.000    0.000    0.000    0.000    0.000 
#
# Total GULP energy -401982.605897 kJ/mol
# GULP energy per Si atom -5583.091749 kJ/mol
# Density = 2.037863 g / cm^3
# Si number density = 20.425119 Si / 1000 Ang^3
#
#
#
# Elastic Constant Matrix: (Units=GPa)
#
#
# Indices 1 2 3 4 5 6 
#
# 1 128.2635 85.3752 57.4489 0.0000 0.0000 0.0000
# 2 85.3752 128.2628 57.4489 0.0000 0.0000 0.0000
# 3 57.4489 57.4489 108.3312 0.0000 0.0000 0.0000
# 4 0.0000 0.0000 0.0000 27.5814 0.0000 0.0000
# 5 0.0000 0.0000 0.0000 0.0000 27.5813 0.0000
# 6 0.0000 0.0000 0.0000 0.0000 0.0000 31.4615
#
#
#
# Elastic Compliance Matrix: (Units=1/GPa)
#
#
# Indices 1 2 3 4 5 6 
#
# 1 0.014932 -0.008384 -0.003473 0.000000 0.000000 0.000000
# 2 -0.008384 0.014933 -0.003473 0.000000 0.000000 0.000000
# 3 -0.003473 -0.003473 0.012914 0.000000 0.000000 0.000000
# 4 0.000000 0.000000 0.000000 0.036256 0.000000 0.000000
# 5 0.000000 0.000000 0.000000 0.000000 0.036256 0.000000
# 6 0.000000 0.000000 0.000000 0.000000 0.000000 0.031785
#
#
# Mechanical properties :
#
#
# Convention : Reuss Voigt Hill
#
# Bulk Modulus (GPa) = 82.50636 85.04484 83.77560
# Shear Modulus (GPa) = 27.50641 28.29715 27.90178
#
# Velocity S-wave (km/s) = 3.67372 3.72615 3.70002
# Velocity P-wave (km/s) = 7.64704 7.76144 7.70445
#
# Compressibility (1/GPa) = 0.01212028
#
# Stress axis : x y z
#
# Youngs Moduli (GPa) = 66.96821 66.96769 77.43435
#
# Poissons Ratio (x) = 0.56146 0.26890
# Poissons Ratio (y) = 0.56146 0.26891
# Poissons Ratio (z) = 0.23256 0.23256
#
# Static dielectric constant tensor:
#      x y z
#    x 1.762800 0.000000 0.000000 
#    y 0.000000 1.762810 0.000000 
#    z 0.000000 0.000000 1.697150 
# 
# From -- ./inp_files/5362.got.cif
#   From: 2010.05.17/outbox.cif.g08.bks.cpg/sg125_3_cif.got.tgz:5362.got - 2010.05.20 11:54:10.
