data_PCOD9563261
_publ_section_title
;
Structure prediction by ZEFSAII (Michael W. Deem and Ramdas Pophale) SiO2 
 PCOD9563261
Probable space group: P 4/N B M
;
_chemical_formula_sum "Si O2"
_cell_formula_units_Z 72
_cell_length_a 11.051110
_cell_length_b 11.051110
_cell_length_c 28.814403
_cell_angle_alpha 90.000000
_cell_angle_beta 90.000000
_cell_angle_gamma 90.000000
_cell_volume 3519.017524
_symmetry_space_group_name_H-M "P 4/N B M"
_symmetry_group_IT_number 125
_space_group.IT_coordinate_system_code '2'
_symmetry_cell_setting 'tetragonal'
loop_
_space_group_symop_operation_xyz
x,y,z
1/2-y,x,z
1/2-x,1/2-y,z
y,1/2-x,z
x,1/2-y,-z
1/2-x,y,-z
y,x,-z
1/2-y,1/2-x,-z
-x,-y,-z
1/2+y,-x,-z
1/2+x,1/2+y,-z
-y,1/2+x,-z
-x,1/2+y,z
1/2+x,-y,z
-y,-x,z
1/2+y,1/2+x,z
loop_
_atom_site_type_symbol
_atom_site_label
_atom_site_fract_x
_atom_site_fract_y
_atom_site_fract_z
Si Si1 0.648812 0.148812 0.223129
Si Si2 0.744097 0.956051 0.049728
Si Si3 0.750000 0.544267 0.500000
Si Si4 0.546675 0.769569 0.849279
Si Si5 0.350975 0.649026 0.327022
Si Si6 0.453717 0.232919 0.399243
O O1 0.750000 0.250000 0.227299
O O2 0.541882 0.206793 0.192868
O O3 0.610598 0.110598 0.275106
O O4 0.630708 0.862585 0.049649
O O5 0.734366 0.017188 0.099931
O O6 0.750000 0.022105 0.000000
O O7 0.865840 0.634161 0.500000
O O8 0.739866 0.482090 0.550036
O O9 0.622924 0.645730 0.847250
O O10 0.250000 0.750000 0.322245
O O11 0.291782 0.542717 0.357304
O O12 0.375724 0.355745 0.397180
#
# Coordination Sequence:
#
# PCOD9563261 Si02
#       6
#     8  16   8  16   8  16
#     4  11  26  42  58  77 117 159 191 246 304 334
#     4   7  10  21  48  83 112 137 173 226 282 341
#     4   7  12  30  59  88 116 148 183 221 282 348
#     4   9  19  37  63  89 110 146 200 242 285 354
#     4  11  26  42  55  84 119 153 198 247 293 339
#     4   9  19  39  65  89 118 155 192 235 289 348
#
# _framework density 20.460255
#
# number of rings (size 3 to 8) (size 9 to 14) (size 15 to 20)
#    0.000    3.222    0.000    3.333    3.111    1.778 
#    2.000    3.889    2.444    2.667    0.000    0.000 
#    0.000    0.000    0.000    0.000    0.000    0.000 
#
# Total GULP energy -401005.007273 kJ/mol
# GULP energy per Si atom -5569.513990 kJ/mol
# Density = 2.041369 g / cm^3
# Si number density = 20.460255 Si / 1000 Ang^3
#
#
#
# Elastic Constant Matrix: (Units=GPa)
#
#
# Indices 1 2 3 4 5 6 
#
# 1 105.4926 -41.9291 54.4128 0.0000 0.0000 0.0000
# 2 -41.9291 105.4934 54.4131 0.0000 0.0000 0.0000
# 3 54.4128 54.4131 254.4168 0.0000 0.0000 0.0000
# 4 0.0000 0.0000 0.0000 -73.8283 0.0000 0.0000
# 5 0.0000 0.0000 0.0000 0.0000 -73.8301 0.0000
# 6 0.0000 0.0000 0.0000 0.0000 0.0000 -3.6531
#
#
#
# Elastic Compliance Matrix: (Units=1/GPa)
#
#
# Indices 1 2 3 4 5 6 
#
# 1 0.015802 0.009019 -0.005308 0.000000 0.000000 0.000000
# 2 0.009019 0.015802 -0.005308 0.000000 0.000000 0.000000
# 3 -0.005308 -0.005308 0.006201 0.000000 0.000000 0.000000
# 4 0.000000 0.000000 0.000000 -0.013545 0.000000 0.000000
# 5 0.000000 0.000000 0.000000 0.000000 -0.013545 0.000000
# 6 0.000000 0.000000 0.000000 0.000000 0.000000 -0.273740
#
#
# Mechanical properties :
#
#
# Convention : Reuss Voigt Hill
#
# Bulk Modulus (GPa) = 28.89449 66.57739 47.73594
# Shear Modulus (GPa) = -20.13763 -3.69523 -11.91643
#
# Velocity S-wave (km/s) = -3.14065 -1.34535 -2.41595
# Velocity P-wave (km/s) = 1.00067 5.49520 3.94959
#
# Compressibility (1/GPa) = 0.03460868
#
# Stress axis : x y z
#
# Youngs Moduli (GPa) = 63.28304 63.28351 161.25796
#
# Poissons Ratio (x) = -0.57074 0.85604
# Poissons Ratio (y) = -0.57073 0.85603
# Poissons Ratio (z) = 0.33594 0.33594
#
# Static dielectric constant tensor:
#      x y z
#    x 1.729630 0.000000 0.000000 
#    y 0.000000 1.729630 0.000000 
#    z 0.000000 0.000000 1.794940 
# 
# From -- ./inp_files/6373.got.cif
#   From: 2010.05.17/outbox.cif.g08.bks.cpg/sg125_4_cif.got.tgz:6373.got - 2010.05.20 11:54:10.
