data_PCOD9563953
_publ_section_title
;
Structure prediction by ZEFSAII (Michael W. Deem and Ramdas Pophale) SiO2 
 PCOD9563953
Probable space group: P 4/M B M
;
_chemical_formula_sum "Si O2"
_cell_formula_units_Z 96
_cell_length_a 25.540782
_cell_length_b 25.540782
_cell_length_c 8.467536
_cell_angle_alpha 90.000000
_cell_angle_beta 90.000000
_cell_angle_gamma 90.000000
_cell_volume 5523.640843
_symmetry_space_group_name_H-M "P 4/M B M"
_symmetry_group_IT_number 127
_symmetry_cell_setting 'tetragonal'
loop_
_space_group_symop_operation_xyz
x,y,z
-y,x,z
-x,-y,z
y,-x,z
1/2+x,1/2-y,-z
1/2-x,1/2+y,-z
1/2+y,1/2+x,-z
1/2-y,1/2-x,-z
-x,-y,-z
y,-x,-z
x,y,-z
-y,x,-z
1/2-x,1/2+y,z
1/2+x,1/2-y,z
1/2-y,1/2-x,z
1/2+y,1/2+x,z
loop_
_atom_site_type_symbol
_atom_site_label
_atom_site_fract_x
_atom_site_fract_y
_atom_site_fract_z
Si Si1 0.839262 0.339262 0.692972
Si Si2 0.874972 0.916281 0.688646
Si Si3 0.740150 0.398647 0.691836
Si Si4 0.348719 0.469549 0.186273
Si Si5 0.518089 0.235871 0.310551
Si Si6 0.379359 0.964394 0.189418
Si Si7 0.925830 0.425830 0.310119
O O1 0.838698 0.338698 0.500000
O O2 0.782497 0.357255 0.748342
O O3 0.882532 0.382532 0.737279
O O4 0.880518 0.910374 0.500000
O O5 0.819499 0.891599 0.741988
O O6 0.922832 0.887889 0.771814
O O7 0.868543 0.977606 0.728334
O O8 0.739754 0.397867 0.500000
O O9 0.759751 0.456677 0.736157
O O10 0.289504 0.457390 0.244077
O O11 0.347710 0.479161 0.000000
O O12 0.521128 0.237205 0.500000
O O13 0.538688 0.180139 0.251184
O O14 0.415415 0.915415 0.239387
O O15 0.406896 0.017785 0.249251
O O16 0.378170 0.966006 0.000000
O O17 0.927399 0.427399 0.500000
#
# Coordination Sequence:
#
# PCOD9563953 Si02
#       7
#     8  16  16  16  16  16   8
#     4   9  14  26  50  81 106 132 172 230 280 317
#     4  10  20  36  57  84 113 148 186 226 269 328
#     4   8  15  28  51  79 106 132 171 224 273 314
#     4  11  22  37  58  85 115 147 179 222 279 336
#     4  10  19  35  57  80 104 140 187 228 268 329
#     4  11  23  36  50  74 111 149 185 232 290 340
#     4  11  20  32  53  78 108 144 188 234 280 332
#
# _framework density 17.379842
#
# number of rings (size 3 to 8) (size 9 to 14) (size 15 to 20)
#    0.000    2.000    1.667    4.500    0.000    2.667 
#    0.000    1.667    1.833    0.000    0.000    0.000 
#    0.000    0.000    0.000    0.000    0.000    0.000 
#
# Total GULP energy -535637.205756 kJ/mol
# GULP energy per Si atom -5579.554227 kJ/mol
# Density = 1.734028 g / cm^3
# Si number density = 17.379842 Si / 1000 Ang^3
#
#
#
# Elastic Constant Matrix: (Units=GPa)
#
#
# Indices 1 2 3 4 5 6 
#
# 1 85.0555 51.5927 0.7490 0.0000 0.0000 0.0000
# 2 51.5927 85.0555 0.7490 0.0000 0.0000 0.0000
# 3 0.7490 0.7490 35.4113 0.0000 0.0000 0.0000
# 4 0.0000 0.0000 0.0000 22.5684 0.0000 0.0000
# 5 0.0000 0.0000 0.0000 0.0000 22.5684 0.0000
# 6 0.0000 0.0000 0.0000 0.0000 0.0000 27.7325
#
#
#
# Elastic Compliance Matrix: (Units=1/GPa)
#
#
# Indices 1 2 3 4 5 6 
#
# 1 0.018602 -0.011282 -0.000155 0.000000 0.000000 0.000000
# 2 -0.011282 0.018602 -0.000155 0.000000 0.000000 0.000000
# 3 -0.000155 -0.000155 0.028246 0.000000 0.000000 0.000000
# 4 0.000000 0.000000 0.000000 0.044310 0.000000 0.000000
# 5 0.000000 0.000000 0.000000 0.000000 0.044310 0.000000
# 6 0.000000 0.000000 0.000000 0.000000 0.000000 0.036059
#
#
# Mechanical properties :
#
#
# Convention : Reuss Voigt Hill
#
# Bulk Modulus (GPa) = 23.65949 34.63376 29.14662
# Shear Modulus (GPa) = 21.98767 24.73598 23.36183
#
# Velocity S-wave (km/s) = 3.56072 3.77670 3.67030
# Velocity P-wave (km/s) = 5.52700 6.24410 5.89646
#
# Compressibility (1/GPa) = 0.04226633
#
# Stress axis : x y z
#
# Youngs Moduli (GPa) = 53.75821 53.75821 35.40309
#
# Poissons Ratio (x) = 0.60650 0.00548
# Poissons Ratio (y) = 0.60650 0.00548
# Poissons Ratio (z) = 0.00832 0.00832
#
# Static dielectric constant tensor:
#      x y z
#    x 1.581350 0.000000 0.000000 
#    y 0.000000 1.581350 0.000000 
#    z 0.000000 0.000000 1.587160 
# 
# From -- ./inp_files/2113.got.cif
#   From: 2010.05.17/outbox.cif.g08.bks.cpg/sg127_2_cif.got.tgz:2113.got - 2010.05.20 12:03:00.
