data_PCOD9563081
_publ_section_title
;
Structure prediction by ZEFSAII (Michael W. Deem and Ramdas Pophale) SiO2 
 PCOD9563081
Probable space group: P 4/N B M
;
_chemical_formula_sum "Si O2"
_cell_formula_units_Z 72
_cell_length_a 21.078171
_cell_length_b 21.078171
_cell_length_c 9.118519
_cell_angle_alpha 90.000000
_cell_angle_beta 90.000000
_cell_angle_gamma 90.000000
_cell_volume 4051.260357
_symmetry_space_group_name_H-M "P 4/N B M"
_symmetry_group_IT_number 125
_space_group.IT_coordinate_system_code '2'
_symmetry_cell_setting 'tetragonal'
loop_
_space_group_symop_operation_xyz
x,y,z
1/2-y,x,z
1/2-x,1/2-y,z
y,1/2-x,z
x,1/2-y,-z
1/2-x,y,-z
y,x,-z
1/2-y,1/2-x,-z
-x,-y,-z
1/2+y,-x,-z
1/2+x,1/2+y,-z
-y,1/2+x,-z
-x,1/2+y,z
1/2+x,-y,z
-y,-x,z
1/2+y,1/2+x,z
loop_
_atom_site_type_symbol
_atom_site_label
_atom_site_fract_x
_atom_site_fract_y
_atom_site_fract_z
Si Si1 0.857761 0.750000 0.500000
Si Si2 0.851332 0.555143 0.591929
Si Si3 0.510120 0.596552 0.900511
Si Si4 0.682994 0.075047 0.427507
Si Si5 0.078498 0.814636 0.082284
O O1 0.808090 0.808090 0.500000
O O2 0.908598 0.783459 0.609572
O O3 0.900650 0.599351 0.500000
O O4 0.879360 0.539221 0.749709
O O5 0.839997 0.489840 0.504173
O O6 0.454794 0.545207 0.868333
O O7 0.561622 0.561622 0.000000
O O8 0.478837 0.652296 0.995381
O O9 0.750000 0.093865 0.500000
O O10 0.629686 0.129686 0.445462
O O11 0.693532 0.063921 0.254133
O O12 0.137401 0.862600 0.073243
O O13 0.093855 0.750000 0.000000
#
# Coordination Sequence:
#
# PCOD9563081 Si02
#       5
#     8  16  16  16  16
#     4   9  20  38  60  86 119 156 198 244 297 356
#     4  11  21  36  63  91 118 156 203 250 304 359
#     4  10  21  38  58  86 124 159 193 244 308 365
#     4  11  23  39  59  87 119 154 201 249 300 362
#     4  10  22  38  57  80 113 155 193 238 293 354
#
# _framework density 17.772248999999999
#
# number of rings (size 3 to 8) (size 9 to 14) (size 15 to 20)
#    0.000    1.667    1.111    3.333    0.000    6.667 
#    0.000    2.222    0.000    0.000    0.000   12.444 
#    0.000    0.000    0.000    0.000    0.000    0.000 
#
# Total GULP energy -400979.780435 kJ/mol
# GULP energy per Si atom -5569.163617 kJ/mol
# Density = 1.773180 g / cm^3
# Si number density = 17.772249 Si / 1000 Ang^3
#
#
#
# Elastic Constant Matrix: (Units=GPa)
#
#
# Indices 1 2 3 4 5 6 
#
# 1 65.6488 55.1137 60.7117 0.0000 0.0000 0.0000
# 2 55.1137 65.6474 60.7109 0.0000 0.0000 0.0000
# 3 60.7117 60.7109 143.9947 0.0000 0.0000 0.0000
# 4 0.0000 0.0000 0.0000 17.0905 0.0000 0.0000
# 5 0.0000 0.0000 0.0000 0.0000 17.0906 0.0000
# 6 0.0000 0.0000 0.0000 0.0000 0.0000 16.3796
#
#
#
# Elastic Compliance Matrix: (Units=1/GPa)
#
#
# Indices 1 2 3 4 5 6 
#
# 1 0.054650 -0.040276 -0.006061 0.000000 0.000000 0.000000
# 2 -0.040276 0.054651 -0.006061 0.000000 0.000000 0.000000
# 3 -0.006061 -0.006061 0.012055 0.000000 0.000000 0.000000
# 4 0.000000 0.000000 0.000000 0.058512 0.000000 0.000000
# 5 0.000000 0.000000 0.000000 0.000000 0.058512 0.000000
# 6 0.000000 0.000000 0.000000 0.000000 0.000000 0.061052
#
#
# Mechanical properties :
#
#
# Convention : Reuss Voigt Hill
#
# Bulk Modulus (GPa) = 60.37957 69.81816 65.09887
# Shear Modulus (GPa) = 12.20264 16.69578 14.44921
#
# Velocity S-wave (km/s) = 2.62317 3.06834 2.85445
# Velocity P-wave (km/s) = 6.57438 7.20577 6.89731
#
# Compressibility (1/GPa) = 0.01656189
#
# Stress axis : x y z
#
# Youngs Moduli (GPa) = 18.29822 18.29788 82.95116
#
# Poissons Ratio (x) = 0.73697 0.50274
# Poissons Ratio (y) = 0.73698 0.50273
# Poissons Ratio (z) = 0.11090 0.11090
#
# Static dielectric constant tensor:
#      x y z
#    x 1.607110 0.000000 0.000000 
#    y 0.000000 1.607110 0.000000 
#    z 0.000000 0.000000 1.573260 
# 
# From -- ./inp_files/2561.got.cif
#   From: 2010.05.17/outbox.cif.g08.bks.cpg/sg125_2_cif.got.tgz:2561.got - 2010.05.20 11:54:10.
