data_PCOD9563971
_publ_section_title
;
Structure prediction by ZEFSAII (Michael W. Deem and Ramdas Pophale) SiO2 
 PCOD9563971
Probable space group: P 4/M B M
;
_chemical_formula_sum "Si O2"
_cell_formula_units_Z 104
_cell_length_a 27.565486
_cell_length_b 27.565486
_cell_length_c 7.512504
_cell_angle_alpha 90.000000
_cell_angle_beta 90.000000
_cell_angle_gamma 90.000000
_cell_volume 5708.421378
_symmetry_space_group_name_H-M "P 4/M B M"
_symmetry_group_IT_number 127
_symmetry_cell_setting 'tetragonal'
loop_
_space_group_symop_operation_xyz
x,y,z
-y,x,z
-x,-y,z
y,-x,z
1/2+x,1/2-y,-z
1/2-x,1/2+y,-z
1/2+y,1/2+x,-z
1/2-y,1/2-x,-z
-x,-y,-z
y,-x,-z
x,y,-z
-y,x,-z
1/2-x,1/2+y,z
1/2+x,1/2-y,z
1/2-y,1/2-x,z
1/2+y,1/2+x,z
loop_
_atom_site_type_symbol
_atom_site_label
_atom_site_fract_x
_atom_site_fract_y
_atom_site_fract_z
Si Si1 0.365308 0.414613 0.714164
Si Si2 0.623316 0.799141 0.208549
Si Si3 0.500050 0.292092 0.717444
Si Si4 0.814955 0.486308 0.296353
Si Si5 0.561481 0.551696 0.000000
Si Si6 0.578303 0.999456 0.282392
Si Si7 0.190132 0.109878 0.713599
O O1 0.371394 0.417890 0.500000
O O2 0.324169 0.453510 0.767354
O O3 0.359809 0.357732 0.762210
O O4 0.412656 0.429472 0.822932
O O5 0.667201 0.832800 0.273366
O O6 0.572201 0.811890 0.298080
O O7 0.631301 0.741671 0.228938
O O8 0.616288 0.808807 0.000000
O O9 0.498918 0.291365 0.500000
O O10 0.503299 0.236417 0.781682
O O11 0.446848 0.311849 0.774687
O O12 0.815379 0.504032 0.500000
O O13 0.866668 0.500551 0.216383
O O14 0.505931 0.565837 0.000000
O O15 0.579581 0.998378 0.500000
O O16 0.548733 0.951268 0.227532
O O17 0.545314 0.045314 0.231339
O O18 0.191286 0.107949 0.500000
#
# Coordination Sequence:
#
# PCOD9563971 Si02
#       7
#    16  16  16  16   8  16  16
#     4  10  20  36  55  74 103 137 169 212 257 302
#     4  10  20  31  45  69 100 128 157 204 259 302
#     4   8  15  29  47  69  93 120 160 201 246 297
#     4   9  16  28  47  69  95 127 164 204 244 297
#     4  11  24  36  50  78 105 132 174 207 245 310
#     4   8  13  21  37  65  97 127 160 199 245 293
#     4   9  18  32  52  73  94 128 165 199 246 298
#
# _framework density 18.218698
#
# number of rings (size 3 to 8) (size 9 to 14) (size 15 to 20)
#    0.000    2.846    0.000    3.231    1.077    3.692 
#    5.538    0.769    0.000    1.385    0.000    6.462 
#    0.000    0.000    0.000    0.000    0.000    0.000 
#
# Total GULP energy -579550.556712 kJ/mol
# GULP energy per Si atom -5572.601507 kJ/mol
# Density = 1.817723 g / cm^3
# Si number density = 18.218698 Si / 1000 Ang^3
#
#
#
# Elastic Constant Matrix: (Units=GPa)
#
#
# Indices 1 2 3 4 5 6 
#
# 1 91.9927 3.0481 2.3305 0.0000 0.0000 0.0000
# 2 3.0481 91.9927 2.3305 0.0000 0.0000 0.0000
# 3 2.3305 2.3305 46.2668 0.0000 0.0000 0.0000
# 4 0.0000 0.0000 0.0000 0.4304 0.0000 0.0000
# 5 0.0000 0.0000 0.0000 0.0000 0.4304 0.0000
# 6 0.0000 0.0000 0.0000 0.0000 0.0000 36.4983
#
#
#
# Elastic Compliance Matrix: (Units=1/GPa)
#
#
# Indices 1 2 3 4 5 6 
#
# 1 0.010895 -0.000348 -0.000531 0.000000 0.000000 0.000000
# 2 -0.000348 0.010895 -0.000531 0.000000 0.000000 0.000000
# 3 -0.000531 -0.000531 0.021667 0.000000 0.000000 0.000000
# 4 0.000000 0.000000 0.000000 2.323444 0.000000 0.000000
# 5 0.000000 0.000000 0.000000 0.000000 2.323444 0.000000
# 6 0.000000 0.000000 0.000000 0.000000 0.000000 0.027399
#
#
# Mechanical properties :
#
#
# Convention : Reuss Voigt Hill
#
# Bulk Modulus (GPa) = 24.60763 27.29670 25.95216
# Shear Modulus (GPa) = 1.05616 22.30803 11.68210
#
# Velocity S-wave (km/s) = 0.76222 3.50302 2.53497
# Velocity P-wave (km/s) = 3.78296 5.60151 4.77952
#
# Compressibility (1/GPa) = 0.04063781
#
# Stress axis : x y z
#
# Youngs Moduli (GPa) = 91.78184 91.78184 46.15253
#
# Poissons Ratio (x) = 0.03190 0.02452
# Poissons Ratio (y) = 0.03190 0.02452
# Poissons Ratio (z) = 0.04876 0.04876
#
# Static dielectric constant tensor:
#      x y z
#    x 1.625430 0.000000 0.000000 
#    y 0.000000 1.625430 0.000000 
#    z 0.000000 0.000000 1.672590 
# 
# From -- ./inp_files/2327.got.cif
#   From: 2010.05.17/outbox.cif.g08.bks.cpg/sg127_2_cif.got.tgz:2327.got - 2010.05.20 12:03:00.
