data_PCOD9563972
_publ_section_title
;
Structure prediction by ZEFSAII (Michael W. Deem and Ramdas Pophale) SiO2 
 PCOD9563972
Probable space group: P 4/M B M
;
_chemical_formula_sum "Si O2"
_cell_formula_units_Z 96
_cell_length_a 24.720980
_cell_length_b 24.720980
_cell_length_c 7.511481
_cell_angle_alpha 90.000000
_cell_angle_beta 90.000000
_cell_angle_gamma 90.000000
_cell_volume 4590.467739
_symmetry_space_group_name_H-M "P 4/M B M"
_symmetry_group_IT_number 127
_symmetry_cell_setting 'tetragonal'
loop_
_space_group_symop_operation_xyz
x,y,z
-y,x,z
-x,-y,z
y,-x,z
1/2+x,1/2-y,-z
1/2-x,1/2+y,-z
1/2+y,1/2+x,-z
1/2-y,1/2-x,-z
-x,-y,-z
y,-x,-z
x,y,-z
-y,x,-z
1/2-x,1/2+y,z
1/2+x,1/2-y,z
1/2-y,1/2-x,z
1/2+y,1/2+x,z
loop_
_atom_site_type_symbol
_atom_site_label
_atom_site_fract_x
_atom_site_fract_y
_atom_site_fract_z
Si Si1 0.304987 0.719215 0.782661
Si Si2 0.081483 0.969527 0.285628
Si Si3 0.288285 0.010718 0.210516
Si Si4 0.000990 0.586813 0.714645
Si Si5 0.631526 0.783195 0.782693
Si Si6 0.701147 0.573949 0.788076
O O1 0.274178 0.774178 0.728291
O O2 0.266637 0.669391 0.729018
O O3 0.365611 0.710578 0.717609
O O4 0.305432 0.719235 0.000000
O O5 0.079724 0.970176 0.500000
O O6 0.140270 0.947678 0.236038
O O7 0.030908 0.932177 0.225178
O O8 0.279943 0.070839 0.284453
O O9 0.351306 0.996352 0.229642
O O10 0.245949 0.967478 0.284568
O O11 0.277005 0.014289 0.000000
O O12 0.001520 0.586141 0.500000
O O13 0.950836 0.549165 0.772747
O O14 0.055728 0.555728 0.774906
O O15 0.662105 0.837896 0.727487
O O16 0.630574 0.783478 0.000000
O O17 0.709841 0.577843 0.000000
#
# Coordination Sequence:
#
# PCOD9563972 Si02
#       6
#    16  16  16  16  16  16
#     4   8  15  29  47  67  98 139 171 197 243 306
#     4   9  20  39  58  75 101 141 183 219 263 320
#     4  10  20  31  47  78 109 132 167 215 264 314
#     4   9  19  36  55  74 100 138 181 221 264 314
#     4   8  14  26  45  66  92 129 166 201 244 296
#     4  10  21  32  51  83 111 136 170 218 265 310
#
# _framework density 20.912901000000002
#
# number of rings (size 3 to 8) (size 9 to 14) (size 15 to 20)
#    0.000    3.000    0.000    2.500    2.333    3.333 
#    0.000    3.333    0.000    0.500    0.000    0.000 
#    0.000    0.000    0.000    0.000    0.000    0.000 
#
# Total GULP energy -535722.274523 kJ/mol
# GULP energy per Si atom -5580.440360 kJ/mol
# Density = 2.086530 g / cm^3
# Si number density = 20.912901 Si / 1000 Ang^3
#
#
#
# Elastic Constant Matrix: (Units=GPa)
#
#
# Indices 1 2 3 4 5 6 
#
# 1 93.9033 213.4602 -3.8049 0.0000 0.0000 0.0000
# 2 213.4602 93.9033 -3.8049 0.0000 0.0000 0.0000
# 3 -3.8049 -3.8049 51.6470 0.0000 0.0000 0.0000
# 4 0.0000 0.0000 0.0000 12.7498 0.0000 0.0000
# 5 0.0000 0.0000 0.0000 0.0000 12.7498 0.0000
# 6 0.0000 0.0000 0.0000 0.0000 0.0000 18.3869
#
#
#
# Elastic Compliance Matrix: (Units=1/GPa)
#
#
# Indices 1 2 3 4 5 6 
#
# 1 -0.002552 0.005812 0.000240 0.000000 0.000000 0.000000
# 2 0.005812 -0.002552 0.000240 0.000000 0.000000 0.000000
# 3 0.000240 0.000240 0.019398 0.000000 0.000000 0.000000
# 4 0.000000 0.000000 0.000000 0.078432 0.000000 0.000000
# 5 0.000000 0.000000 0.000000 0.000000 0.078432 0.000000
# 6 0.000000 0.000000 0.000000 0.000000 0.000000 0.054386
#
#
# Mechanical properties :
#
#
# Convention : Reuss Voigt Hill
#
# Bulk Modulus (GPa) = 37.20661 72.35049 54.77855
# Shear Modulus (GPa) = 22.53076 11.01753 16.77414
#
# Velocity S-wave (km/s) = 3.28588 2.29777 2.83520
# Velocity P-wave (km/s) = 5.67678 6.45839 6.08016
#
# Compressibility (1/GPa) = 0.02687695
#
# Stress axis : x y z
#
# Youngs Moduli (GPa) = -391.78831 -391.78831 51.55276
#
# Poissons Ratio (x) = 2.27700 -0.01238
# Poissons Ratio (y) = 2.27700 -0.01238
# Poissons Ratio (z) = 0.09408 0.09408
#
# Static dielectric constant tensor:
#      x y z
#    x 1.731510 0.000000 0.000000 
#    y 0.000000 1.731510 0.000000 
#    z 0.000000 0.000000 1.785460 
# 
# From -- ./inp_files/1944.got.cif
#   From: 2010.05.17/outbox.cif.g08.bks.cpg/sg127_1_cif.got.tgz:1944.got - 2010.05.20 12:03:00.
