data_PCOD9563999
_publ_section_title
;
Structure prediction by ZEFSAII (Michael W. Deem and Ramdas Pophale) SiO2 
 PCOD9563999
Probable space group: P 4/M B M
;
_chemical_formula_sum "Si O2"
_cell_formula_units_Z 72
_cell_length_a 15.598637
_cell_length_b 15.598637
_cell_length_c 18.517519
_cell_angle_alpha 90.000000
_cell_angle_beta 90.000000
_cell_angle_gamma 90.000000
_cell_volume 4505.635990
_symmetry_space_group_name_H-M "P 4/M B M"
_symmetry_group_IT_number 127
_symmetry_cell_setting 'tetragonal'
loop_
_space_group_symop_operation_xyz
x,y,z
-y,x,z
-x,-y,z
y,-x,z
1/2+x,1/2-y,-z
1/2-x,1/2+y,-z
1/2+y,1/2+x,-z
1/2-y,1/2-x,-z
-x,-y,-z
y,-x,-z
x,y,-z
-y,x,-z
1/2-x,1/2+y,z
1/2+x,1/2-y,z
1/2-y,1/2-x,z
1/2+y,1/2+x,z
loop_
_atom_site_type_symbol
_atom_site_label
_atom_site_fract_x
_atom_site_fract_y
_atom_site_fract_z
Si Si1 0.900487 0.599514 0.583792
Si Si2 0.604579 0.895422 0.415968
Si Si3 0.185114 0.685114 0.721618
Si Si4 0.571534 0.928467 0.081118
Si Si5 0.713674 0.990886 0.193043
Si Si6 0.505817 0.356487 0.078275
Si Si7 0.668887 0.168887 0.273376
O O1 0.881603 0.618398 0.500000
O O2 0.883555 0.497861 0.595571
O O3 0.847838 0.652163 0.642078
O O4 0.623094 0.876907 0.500000
O O5 0.660196 0.839805 0.360617
O O6 0.213713 0.594879 0.758212
O O7 0.257829 0.757829 0.733451
O O8 0.645419 0.969948 0.130010
O O9 0.500000 0.000000 0.073276
O O10 0.598886 0.901115 0.000000
O O11 0.799745 0.005928 0.148726
O O12 0.693204 0.077317 0.237201
O O13 0.585482 0.421048 0.079069
O O14 0.508019 0.309909 0.000000
#
# Coordination Sequence:
#
# PCOD9563999 Si02
#       7
#     8   8   8   8  16  16   8
#     4   9  18  34  60  83 107 138 171 211 265 313
#     4   9  17  34  58  83 108 138 171 214 263 310
#     4  11  23  33  54  82 106 144 173 210 268 320
#     4  10  20  33  50  72  96 136 172 206 272 328
#     4  11  21  35  51  75 113 133 170 226 267 310
#     4   9  18  34  54  72  97 140 186 223 257 297
#     4  12  22  34  55  81 107 142 177 204 270 322
#
# _framework density 15.979986999999999
#
# number of rings (size 3 to 8) (size 9 to 14) (size 15 to 20)
#    0.000    1.889    3.333    3.333    0.000    0.444 
#    0.000    0.000    0.000    5.333    0.000    0.000 
#    0.000    3.556    0.000    0.000    0.000    0.000 
#
# Total GULP energy -401048.785650 kJ/mol
# GULP energy per Si atom -5570.122023 kJ/mol
# Density = 1.594362 g / cm^3
# Si number density = 15.979987 Si / 1000 Ang^3
#
#
#
# Elastic Constant Matrix: (Units=GPa)
#
#
# Indices 1 2 3 4 5 6 
#
# 1 80.4968 42.6811 55.0350 0.0000 0.0000 0.0000
# 2 42.6811 80.4969 55.0351 0.0000 0.0000 0.0000
# 3 55.0350 55.0351 122.2267 0.0000 0.0000 0.0000
# 4 0.0000 0.0000 0.0000 28.0396 0.0000 0.0000
# 5 0.0000 0.0000 0.0000 0.0000 28.0396 0.0000
# 6 0.0000 0.0000 0.0000 0.0000 0.0000 67.2006
#
#
#
# Elastic Compliance Matrix: (Units=1/GPa)
#
#
# Indices 1 2 3 4 5 6 
#
# 1 0.020014 -0.006430 -0.006116 0.000000 0.000000 0.000000
# 2 -0.006430 0.020014 -0.006116 0.000000 0.000000 0.000000
# 3 -0.006116 -0.006116 0.013690 0.000000 0.000000 0.000000
# 4 0.000000 0.000000 0.000000 0.035664 0.000000 0.000000
# 5 0.000000 0.000000 0.000000 0.000000 0.035664 0.000000
# 6 0.000000 0.000000 0.000000 0.000000 0.000000 0.014881
#
#
# Mechanical properties :
#
#
# Convention : Reuss Voigt Hill
#
# Bulk Modulus (GPa) = 61.00651 65.41366 63.21008
# Shear Modulus (GPa) = 27.36490 33.35389 30.35939
#
# Velocity S-wave (km/s) = 4.14266 4.57358 4.36344
# Velocity P-wave (km/s) = 7.81933 8.30143 8.06398
#
# Compressibility (1/GPa) = 0.01639169
#
# Stress axis : x y z
#
# Youngs Moduli (GPa) = 49.96515 49.96509 73.04811
#
# Poissons Ratio (x) = 0.32128 0.44679
# Poissons Ratio (y) = 0.32128 0.44679
# Poissons Ratio (z) = 0.30561 0.30561
#
# Static dielectric constant tensor:
#      x y z
#    x 1.562160 0.000000 0.000000 
#    y 0.000000 1.562160 0.000000 
#    z 0.000000 0.000000 1.545820 
# 
# From -- ./inp_files/5016.got.cif
#   From: 2010.05.17/outbox.cif.g08.bks.cpg/sg127_3_cif.got.tgz:5016.got - 2010.05.20 12:03:00.
