data_PCOD9563520
_publ_section_title
;
Structure prediction by ZEFSAII (Michael W. Deem and Ramdas Pophale) SiO2 
 PCOD9563520
Probable space group: P 4/N N C
;
_chemical_formula_sum "Si O2"
_cell_formula_units_Z 112
_cell_length_a 13.502294
_cell_length_b 13.502294
_cell_length_c 28.792652
_cell_angle_alpha 90.000000
_cell_angle_beta 90.000000
_cell_angle_gamma 90.000000
_cell_volume 5249.244338
_symmetry_space_group_name_H-M "P 4/N N C"
_symmetry_group_IT_number 126
_space_group.IT_coordinate_system_code '2'
_symmetry_cell_setting 'tetragonal'
loop_
_space_group_symop_operation_xyz
x,y,z
1/2-y,x,z
1/2-x,1/2-y,z
y,1/2-x,z
x,1/2-y,1/2-z
1/2-x,y,1/2-z
y,x,1/2-z
1/2-y,1/2-x,1/2-z
-x,-y,-z
1/2+y,-x,-z
1/2+x,1/2+y,-z
-y,1/2+x,-z
-x,1/2+y,1/2+z
1/2+x,-y,1/2+z
-y,-x,1/2+z
1/2+y,1/2+x,1/2+z
loop_
_atom_site_type_symbol
_atom_site_label
_atom_site_fract_x
_atom_site_fract_y
_atom_site_fract_z
Si Si1 0.659350 0.319350 0.627132
Si Si2 0.145993 0.495248 0.776783
Si Si3 0.008706 0.827448 0.937099
Si Si4 0.057450 0.710326 0.799772
Si Si5 0.128025 0.475659 0.388364
Si Si6 0.512933 0.662830 0.124954
Si Si7 0.401122 0.308974 0.974557
O O1 0.750000 0.250000 0.611670
O O2 0.630070 0.392832 0.585768
O O3 0.706228 0.378705 0.671520
O O4 0.565651 0.250427 0.634949
O O5 0.250000 0.489398 0.750000
O O6 0.054830 0.445171 0.750000
O O7 0.120746 0.610820 0.788158
O O8 0.150516 0.436017 0.825552
O O9 0.010527 0.712656 0.923499
O O10 0.919603 0.876656 0.907900
O O11 0.988850 0.842113 0.991226
O O12 0.023648 0.750000 0.750000
O O13 0.974956 0.675711 0.836890
O O14 0.045853 0.561351 0.385569
O O15 0.575069 0.684725 0.079542
O O16 0.304245 0.373220 0.985451
#
# Coordination Sequence:
#
# PCOD9563520 Si02
#       7
#    16  16  16  16  16  16  16
#     4  11  21  43  67 100 140 174 221 289 346 411
#     4  11  25  41  65  94 132 182 226 274 337 404
#     4  11  22  43  72  95 131 179 224 281 346 413
#     4  10  22  40  68  99 136 174 232 279 342 407
#     4  10  23  40  64 100 133 175 222 276 341 405
#     4  11  25  43  63 103 137 172 234 286 350 404
#     4  11  26  45  69  98 135 183 234 279 341 434
#
# _framework density 21.336404999999999
#
# number of rings (size 3 to 8) (size 9 to 14) (size 15 to 20)
#    0.000    1.286    5.714    0.857    4.000    7.857 
#    0.000    0.000    0.000    0.000    0.000    4.000 
#    0.000    0.000    0.000    0.000    0.000    0.000 
#
# Total GULP energy -625285.794864 kJ/mol
# GULP energy per Si atom -5582.908883 kJ/mol
# Density = 2.128784 g / cm^3
# Si number density = 21.336405 Si / 1000 Ang^3
#
#
#
# Elastic Constant Matrix: (Units=GPa)
#
#
# Indices 1 2 3 4 5 6 
#
# 1 18.5427 0.3035 14.5756 0.0000 0.0000 0.0000
# 2 0.3035 18.5414 14.5751 0.0000 0.0000 0.0000
# 3 14.5756 14.5751 145.4188 0.0000 0.0000 0.0000
# 4 0.0000 0.0000 0.0000 26.5118 0.0000 0.0000
# 5 0.0000 0.0000 0.0000 0.0000 26.5123 0.0000
# 6 0.0000 0.0000 0.0000 0.0000 0.0000 9.7835
#
#
#
# Elastic Compliance Matrix: (Units=1/GPa)
#
#
# Indices 1 2 3 4 5 6 
#
# 1 0.058812 0.003985 -0.006294 0.000000 0.000000 0.000000
# 2 0.003985 0.058816 -0.006294 0.000000 0.000000 0.000000
# 3 -0.006294 -0.006294 0.008138 0.000000 0.000000 0.000000
# 4 0.000000 0.000000 0.000000 0.037719 0.000000 0.000000
# 5 0.000000 0.000000 0.000000 0.000000 0.037718 0.000000
# 6 0.000000 0.000000 0.000000 0.000000 0.000000 0.102212
#
#
# Mechanical properties :
#
#
# Convention : Reuss Voigt Hill
#
# Bulk Modulus (GPa) = 9.21155 26.82347 18.01751
# Shear Modulus (GPa) = 14.01306 22.76478 18.38892
#
# Velocity S-wave (km/s) = 2.56553 3.26996 2.93892
# Velocity P-wave (km/s) = 3.61975 5.18226 4.46981
#
# Compressibility (1/GPa) = 0.10855940
#
# Stress axis : x y z
#
# Youngs Moduli (GPa) = 17.00332 17.00214 122.87338
#
# Poissons Ratio (x) = -0.06776 0.77340
# Poissons Ratio (y) = -0.06776 0.77342
# Poissons Ratio (z) = 0.10702 0.10702
#
# Static dielectric constant tensor:
#      x y z
#    x 1.782110 0.000000 0.000000 
#    y 0.000000 1.782110 0.000000 
#    z 0.000000 0.000000 1.800020 
# 
# From -- ./inp_files/5826.got.cif
#   From: 2010.05.17/outbox.cif.g08.bks.cpg/sg126_3_cif.got.tgz:5826.got - 2010.05.20 11:58:20.
