data_PCOD9563414
_publ_section_title
;
Structure prediction by ZEFSAII (Michael W. Deem and Ramdas Pophale) SiO2 
 PCOD9563414
Probable space group: P 4/N N C
;
_chemical_formula_sum "Si O2"
_cell_formula_units_Z 64
_cell_length_a 15.986432
_cell_length_b 15.986432
_cell_length_c 12.061544
_cell_angle_alpha 90.000000
_cell_angle_beta 90.000000
_cell_angle_gamma 90.000000
_cell_volume 3082.520651
_symmetry_space_group_name_H-M "P 4/N N C"
_symmetry_group_IT_number 126
_space_group.IT_coordinate_system_code '2'
_symmetry_cell_setting 'tetragonal'
loop_
_space_group_symop_operation_xyz
x,y,z
1/2-y,x,z
1/2-x,1/2-y,z
y,1/2-x,z
x,1/2-y,1/2-z
1/2-x,y,1/2-z
y,x,1/2-z
1/2-y,1/2-x,1/2-z
-x,-y,-z
1/2+y,-x,-z
1/2+x,1/2+y,-z
-y,1/2+x,-z
-x,1/2+y,1/2+z
1/2+x,-y,1/2+z
-y,-x,1/2+z
1/2+y,1/2+x,1/2+z
loop_
_atom_site_type_symbol
_atom_site_label
_atom_site_fract_x
_atom_site_fract_y
_atom_site_fract_z
Si Si1 0.287820 0.555255 0.633709
Si Si2 0.550323 0.905126 0.624753
Si Si3 0.119982 0.299157 0.556238
Si Si4 0.434423 0.617081 0.494260
O O1 0.250000 0.580927 0.750000
O O2 0.319662 0.458745 0.634435
O O3 0.362658 0.609789 0.586529
O O4 0.209783 0.557595 0.550589
O O5 0.577911 0.922090 0.750000
O O6 0.586738 0.821134 0.567739
O O7 0.450593 0.910386 0.601563
O O8 0.587755 0.979437 0.549284
O O9 0.146943 0.203451 0.573934
#
# Coordination Sequence:
#
# PCOD9563414 Si02
#       4
#    16  16  16  16
#     4  11  23  42  67  91 124 168 209 267 322 367
#     4  10  20  38  63  87 125 174 207 251 317 377
#     4  10  21  39  60  94 133 157 206 260 306 387
#     4  10  22  41  60  92 126 158 223 266 300 388
#
# _framework density 20.762229999999999
#
# number of rings (size 3 to 8) (size 9 to 14) (size 15 to 20)
#    0.000    1.750    2.500    1.500    0.000    2.500 
#    0.000    7.500    0.000    0.000    0.000    0.000 
#    0.000    0.000    0.000    0.000    0.000    0.000 
#
# Total GULP energy -357505.061331 kJ/mol
# GULP energy per Si atom -5586.016583 kJ/mol
# Density = 2.071497 g / cm^3
# Si number density = 20.762230 Si / 1000 Ang^3
#
#
#
# Elastic Constant Matrix: (Units=GPa)
#
#
# Indices 1 2 3 4 5 6 
#
# 1 62.7703 32.2458 4.8771 0.0000 0.0000 0.0000
# 2 32.2458 62.7707 4.8773 0.0000 0.0000 0.0000
# 3 4.8771 4.8773 59.6511 0.0000 0.0000 0.0000
# 4 0.0000 0.0000 0.0000 15.7432 0.0000 0.0000
# 5 0.0000 0.0000 0.0000 0.0000 15.7437 0.0000
# 6 0.0000 0.0000 0.0000 0.0000 0.0000 35.2451
#
#
#
# Elastic Compliance Matrix: (Units=1/GPa)
#
#
# Indices 1 2 3 4 5 6 
#
# 1 0.021687 -0.011073 -0.000868 0.000000 0.000000 0.000000
# 2 -0.011073 0.021687 -0.000868 0.000000 0.000000 0.000000
# 3 -0.000868 -0.000868 0.016906 0.000000 0.000000 0.000000
# 4 0.000000 0.000000 0.000000 0.063520 0.000000 0.000000
# 5 0.000000 0.000000 0.000000 0.000000 0.063517 0.000000
# 6 0.000000 0.000000 0.000000 0.000000 0.000000 0.028373
#
#
# Mechanical properties :
#
#
# Convention : Reuss Voigt Hill
#
# Bulk Modulus (GPa) = 28.84996 29.91027 29.38011
# Shear Modulus (GPa) = 19.77365 22.89251 21.33308
#
# Velocity S-wave (km/s) = 3.08942 3.32415 3.20893
# Velocity P-wave (km/s) = 5.16252 5.40099 5.28310
#
# Compressibility (1/GPa) = 0.03466210
#
# Stress axis : x y z
#
# Youngs Moduli (GPa) = 46.11048 46.11074 59.15038
#
# Poissons Ratio (x) = 0.51060 0.05133
# Poissons Ratio (y) = 0.51060 0.05133
# Poissons Ratio (z) = 0.04001 0.04002
#
# Static dielectric constant tensor:
#      x y z
#    x 1.745620 0.000000 0.000000 
#    y 0.000000 1.745620 0.000000 
#    z 0.000000 0.000000 1.737650 
# 
# From -- ./inp_files/2552.got.cif
#   From: 2010.05.17/outbox.cif.g08.bks.cpg/sg126_2_cif.got.tgz:2552.got - 2010.05.20 11:58:20.
