data_PCOD9563122
_publ_section_title
;
Structure prediction by ZEFSAII (Michael W. Deem and Ramdas Pophale) SiO2 
 PCOD9563122
Probable space group: P 4/N B M
;
_chemical_formula_sum "Si O2"
_cell_formula_units_Z 48
_cell_length_a 13.280365
_cell_length_b 13.280365
_cell_length_c 13.954418
_cell_angle_alpha 90.000000
_cell_angle_beta 90.000000
_cell_angle_gamma 90.000000
_cell_volume 2461.114113
_symmetry_space_group_name_H-M "P 4/N B M"
_symmetry_group_IT_number 125
_space_group.IT_coordinate_system_code '2'
_symmetry_cell_setting 'tetragonal'
loop_
_space_group_symop_operation_xyz
x,y,z
1/2-y,x,z
1/2-x,1/2-y,z
y,1/2-x,z
x,1/2-y,-z
1/2-x,y,-z
y,x,-z
1/2-y,1/2-x,-z
-x,-y,-z
1/2+y,-x,-z
1/2+x,1/2+y,-z
-y,1/2+x,-z
-x,1/2+y,z
1/2+x,-y,z
-y,-x,z
1/2+y,1/2+x,z
loop_
_atom_site_type_symbol
_atom_site_label
_atom_site_fract_x
_atom_site_fract_y
_atom_site_fract_z
Si Si1 0.079451 0.244243 0.893138
Si Si2 0.539210 0.874272 0.409359
Si Si3 0.514999 0.320030 0.702159
O O1 0.157236 0.150266 0.886175
O O2 0.003205 0.228796 0.806060
O O3 0.034066 0.250000 0.000000
O O4 0.613652 0.886349 0.500000
O O5 0.500672 0.766632 0.376372
O O6 0.442514 0.942514 0.432665
O O7 0.599259 0.927237 0.322274
O O8 0.618864 0.381137 0.695274
#
# Coordination Sequence:
#
# PCOD9563122 Si02
#       3
#    16  16  16
#     4   9  17  33  57  84 118 155 208 266 309 361
#     4  10  22  39  58  86 121 157 204 255 308 378
#     4  11  21  36  60  89 122 161 203 256 319 374
#
# _framework density 19.503360000000001
#
# number of rings (size 3 to 8) (size 9 to 14) (size 15 to 20)
#    0.000    2.000    3.333    2.000    0.000    1.333 
#    0.000    6.667    0.000    6.000    0.000    0.000 
#    0.000    0.000    0.000    0.000    0.000    0.000 
#
# Total GULP energy -267616.794721 kJ/mol
# GULP energy per Si atom -5575.349890 kJ/mol
# Density = 1.945897 g / cm^3
# Si number density = 19.503360 Si / 1000 Ang^3
#
#
#
# Elastic Constant Matrix: (Units=GPa)
#
#
# Indices 1 2 3 4 5 6 
#
# 1 83.6581 56.6612 50.9251 0.0000 0.0000 0.0000
# 2 56.6612 83.6572 50.9247 0.0000 0.0000 0.0000
# 3 50.9251 50.9247 158.2757 0.0000 0.0000 0.0000
# 4 0.0000 0.0000 0.0000 24.1885 0.0000 0.0000
# 5 0.0000 0.0000 0.0000 0.0000 24.1883 0.0000
# 6 0.0000 0.0000 0.0000 0.0000 0.0000 22.7896
#
#
#
# Elastic Compliance Matrix: (Units=1/GPa)
#
#
# Indices 1 2 3 4 5 6 
#
# 1 0.023170 -0.013872 -0.002992 0.000000 0.000000 0.000000
# 2 -0.013872 0.023170 -0.002992 0.000000 0.000000 0.000000
# 3 -0.002992 -0.002992 0.008243 0.000000 0.000000 0.000000
# 4 0.000000 0.000000 0.000000 0.041342 0.000000 0.000000
# 5 0.000000 0.000000 0.000000 0.000000 0.041342 0.000000
# 6 0.000000 0.000000 0.000000 0.000000 0.000000 0.043880
#
#
# Mechanical properties :
#
#
# Convention : Reuss Voigt Hill
#
# Bulk Modulus (GPa) = 67.23677 71.40145 69.31911
# Shear Modulus (GPa) = 22.14202 25.37195 23.75699
#
# Velocity S-wave (km/s) = 3.37307 3.61071 3.49391
# Velocity P-wave (km/s) = 7.05120 7.35339 7.20388
#
# Compressibility (1/GPa) = 0.01487281
#
# Stress axis : x y z
#
# Youngs Moduli (GPa) = 43.15950 43.15908 121.31205
#
# Poissons Ratio (x) = 0.59870 0.36292
# Poissons Ratio (y) = 0.59870 0.36292
# Poissons Ratio (z) = 0.12912 0.12912
#
# Static dielectric constant tensor:
#      x y z
#    x 1.677410 0.000000 0.000000 
#    y 0.000000 1.677410 0.000000 
#    z 0.000000 0.000000 1.738650 
# 
# From -- ./inp_files/3347.got.cif
#   From: 2010.05.17/outbox.cif.g08.bks.cpg/sg125_2_cif.got.tgz:3347.got - 2010.05.20 11:54:10.
