data_PCOD9563713
_publ_section_title
;
Structure prediction by ZEFSAII (Michael W. Deem and Ramdas Pophale) SiO2 
 PCOD9563713
Probable space group: P 4/N N C
;
_chemical_formula_sum "Si O2"
_cell_formula_units_Z 116
_cell_length_a 17.661136
_cell_length_b 17.661136
_cell_length_c 17.661467
_cell_angle_alpha 90.000000
_cell_angle_beta 90.000000
_cell_angle_gamma 90.000000
_cell_volume 5508.889281
_symmetry_space_group_name_H-M "P 4/N N C"
_symmetry_group_IT_number 126
_space_group.IT_coordinate_system_code '2'
_symmetry_cell_setting 'tetragonal'
loop_
_space_group_symop_operation_xyz
x,y,z
1/2-y,x,z
1/2-x,1/2-y,z
y,1/2-x,z
x,1/2-y,1/2-z
1/2-x,y,1/2-z
y,x,1/2-z
1/2-y,1/2-x,1/2-z
-x,-y,-z
1/2+y,-x,-z
1/2+x,1/2+y,-z
-y,1/2+x,-z
-x,1/2+y,1/2+z
1/2+x,-y,1/2+z
-y,-x,1/2+z
1/2+y,1/2+x,1/2+z
loop_
_atom_site_type_symbol
_atom_site_label
_atom_site_fract_x
_atom_site_fract_y
_atom_site_fract_z
Si Si1 0.169145 0.512589 0.067797
Si Si2 0.578036 0.952995 0.509021
Si Si3 0.248802 0.129832 0.659204
Si Si4 0.750000 0.250000 0.000000
Si Si5 0.956454 0.425432 0.284986
Si Si6 0.182504 0.977314 0.874961
Si Si7 0.877815 0.184084 0.928623
Si Si8 0.836262 0.031888 0.859668
O O1 0.136584 0.441938 0.017727
O O2 0.106812 0.521259 0.133033
O O3 0.250538 0.519555 0.109697
O O4 0.166437 0.578599 0.005745
O O5 0.500000 0.000000 0.500000
O O6 0.631331 0.985776 0.441870
O O7 0.618087 0.974832 0.587239
O O8 0.323243 0.176031 0.632515
O O9 0.250000 0.134523 0.750000
O O10 0.256208 0.042712 0.640428
O O11 0.789781 0.189852 0.948008
O O12 0.871395 0.455911 0.304036
O O13 0.973851 0.354852 0.228823
O O14 0.006132 0.493869 0.250000
O O15 0.234836 0.906810 0.899300
O O16 0.878669 0.112381 0.875014
#
# Coordination Sequence:
#
# PCOD9563713 Si02
#       8
#    16  16  16   4  16  16  16  16
#     4  12  24  46  69 102 135 186 235 287 360 412
#     4  12  22  43  69 100 137 173 243 295 344 416
#     4   9  22  42  61  87 132 179 218 272 349 423
#     4  12  20  44  64  90 136 180 224 270 352 412
#     4  12  26  44  68 103 142 183 234 294 357 424
#     4  12  26  40  69 104 135 185 238 292 353 422
#     4  12  25  41  73  99 141 187 236 291 353 424
#     4  12  25  44  69 102 138 185 232 293 353 436
#
# _framework density 21.056875999999999
#
# number of rings (size 3 to 8) (size 9 to 14) (size 15 to 20)
#    0.000    0.414    6.897    1.655    5.793    0.000 
#    0.000    0.000    0.000    0.414    0.000    0.966 
#    0.000    0.000    0.000    0.000    0.000    0.000 
#
# Total GULP energy -646331.040844 kJ/mol
# GULP energy per Si atom -5571.819318 kJ/mol
# Density = 2.100895 g / cm^3
# Si number density = 21.056876 Si / 1000 Ang^3
#
#
#
# Elastic Constant Matrix: (Units=GPa)
#
#
# Indices 1 2 3 4 5 6 
#
# 1 40.8028 66.1627 16.9249 0.0000 0.0000 0.0000
# 2 66.1627 40.8026 16.9249 0.0000 0.0000 0.0000
# 3 16.9249 16.9249 73.5422 0.0000 0.0000 0.0000
# 4 0.0000 0.0000 0.0000 25.5982 0.0000 0.0000
# 5 0.0000 0.0000 0.0000 0.0000 25.5988 0.0000
# 6 0.0000 0.0000 0.0000 0.0000 0.0000 31.1821
#
#
#
# Elastic Compliance Matrix: (Units=1/GPa)
#
#
# Indices 1 2 3 4 5 6 
#
# 1 -0.014674 0.024758 -0.002321 0.000000 0.000000 0.000000
# 2 0.024758 -0.014674 -0.002321 0.000000 0.000000 0.000000
# 3 -0.002321 -0.002321 0.014666 0.000000 0.000000 0.000000
# 4 0.000000 0.000000 0.000000 0.039065 0.000000 0.000000
# 5 0.000000 0.000000 0.000000 0.000000 0.039064 0.000000
# 6 0.000000 0.000000 0.000000 0.000000 0.000000 0.032070
#
#
# Mechanical properties :
#
#
# Convention : Reuss Voigt Hill
#
# Bulk Modulus (GPa) = 39.13903 39.46362 39.30132
# Shear Modulus (GPa) = 78.37047 20.15149 49.26098
#
# Velocity S-wave (km/s) = 6.10731 3.09690 4.84201
# Velocity P-wave (km/s) = 8.26801 5.61871 7.06859
#
# Compressibility (1/GPa) = 0.02554995
#
# Stress axis : x y z
#
# Youngs Moduli (GPa) = -68.14574 -68.14544 68.18620
#
# Poissons Ratio (x) = 1.68712 0.15823
# Poissons Ratio (y) = 1.68713 0.15823
# Poissons Ratio (z) = -0.15813 -0.15813
#
# Static dielectric constant tensor:
#      x y z
#    x 1.799300 0.000000 0.000000 
#    y 0.000000 1.799300 0.000000 
#    z 0.000000 0.000000 1.786210 
# 
# From -- ./inp_files/4618.got.cif
#   From: 2010.05.17/outbox.cif.g08.bks.cpg/sg126_3_cif.got.tgz:4618.got - 2010.05.20 11:58:20.
