data_PCOD9563461
_publ_section_title
;
Structure prediction by ZEFSAII (Michael W. Deem and Ramdas Pophale) SiO2 
 PCOD9563461
Probable space group: P 4/N N C
;
_chemical_formula_sum "Si O2"
_cell_formula_units_Z 96
_cell_length_a 14.195877
_cell_length_b 14.195877
_cell_length_c 18.715348
_cell_angle_alpha 90.000000
_cell_angle_beta 90.000000
_cell_angle_gamma 90.000000
_cell_volume 3771.571649
_symmetry_space_group_name_H-M "P 4/N N C"
_symmetry_group_IT_number 126
_space_group.IT_coordinate_system_code '2'
_symmetry_cell_setting 'tetragonal'
loop_
_space_group_symop_operation_xyz
x,y,z
1/2-y,x,z
1/2-x,1/2-y,z
y,1/2-x,z
x,1/2-y,1/2-z
1/2-x,y,1/2-z
y,x,1/2-z
1/2-y,1/2-x,1/2-z
-x,-y,-z
1/2+y,-x,-z
1/2+x,1/2+y,-z
-y,1/2+x,-z
-x,1/2+y,1/2+z
1/2+x,-y,1/2+z
-y,-x,1/2+z
1/2+y,1/2+x,1/2+z
loop_
_atom_site_type_symbol
_atom_site_label
_atom_site_fract_x
_atom_site_fract_y
_atom_site_fract_z
Si Si1 0.124001 0.947665 0.429100
Si Si2 0.673101 0.005147 0.355297
Si Si3 0.814043 0.609538 0.487937
Si Si4 0.159228 0.579400 0.786025
Si Si5 0.091031 0.267042 0.332466
Si Si6 0.550322 0.416373 0.424044
O O1 0.101361 0.843327 0.400803
O O2 0.128350 0.942326 0.515402
O O3 0.205743 0.131669 0.496609
O O4 0.021223 0.996264 0.413764
O O5 0.615193 0.028481 0.282909
O O6 0.780512 0.002009 0.328710
O O7 0.665653 0.916669 0.406380
O O8 0.695918 0.503029 0.621222
O O9 0.847494 0.520927 0.534002
O O10 0.250000 0.635160 0.750000
O O11 0.090896 0.616620 0.847812
O O12 0.150802 0.170380 0.344008
O O13 0.061531 0.250000 0.250000
#
# Coordination Sequence:
#
# PCOD9563461 Si02
#       6
#    16  16  16  16  16  16
#     4  10  21  38  63  98 139 185 248 291 359 455
#     4   8  20  38  66  98 138 187 246 302 358 430
#     4  10  22  41  68 109 163 198 233 303 388 468
#     4   8  20  40  65  99 140 181 244 318 348 418
#     4   9  20  40  63  96 143 186 229 297 385 467
#     4  10  22  39  64 103 140 190 251 290 360 444
#
# _framework density 25.453579999999999
#
# number of rings (size 3 to 8) (size 9 to 14) (size 15 to 20)
#    1.000    1.667    0.000    0.500    7.000    4.667 
#    9.000    1.667    0.000    4.000    0.000   25.667 
#    0.000    0.000    0.000    0.000    0.000    0.000 
#
# Total GULP energy -534503.629119 kJ/mol
# GULP energy per Si atom -5567.746137 kJ/mol
# Density = 2.539565 g / cm^3
# Si number density = 25.453580 Si / 1000 Ang^3
#
#
#
# Elastic Constant Matrix: (Units=GPa)
#
#
# Indices 1 2 3 4 5 6 
#
# 1 81.8025 38.9425 72.1253 0.0000 0.0000 0.0000
# 2 38.9425 81.8025 72.1253 0.0000 0.0000 0.0000
# 3 72.1253 72.1253 230.0939 0.0000 0.0000 0.0000
# 4 0.0000 0.0000 0.0000 45.6553 0.0000 0.0000
# 5 0.0000 0.0000 0.0000 0.0000 45.6553 0.0000
# 6 0.0000 0.0000 0.0000 0.0000 0.0000 26.4708
#
#
#
# Elastic Compliance Matrix: (Units=1/GPa)
#
#
# Indices 1 2 3 4 5 6 
#
# 1 0.018286 -0.005046 -0.004150 0.000000 0.000000 0.000000
# 2 -0.005046 0.018286 -0.004150 0.000000 0.000000 0.000000
# 3 -0.004150 -0.004150 0.006948 0.000000 0.000000 0.000000
# 4 0.000000 0.000000 0.000000 0.021903 0.000000 0.000000
# 5 0.000000 0.000000 0.000000 0.000000 0.021903 0.000000
# 6 0.000000 0.000000 0.000000 0.000000 0.000000 0.037777
#
#
# Mechanical properties :
#
#
# Convention : Reuss Voigt Hill
#
# Bulk Modulus (GPa) = 59.42783 84.45392 71.94087
# Shear Modulus (GPa) = 31.76511 37.59002 34.67757
#
# Velocity S-wave (km/s) = 3.53648 3.84709 3.69505
# Velocity P-wave (km/s) = 6.33039 7.27909 6.82125
#
# Compressibility (1/GPa) = 0.01682713
#
# Stress axis : x y z
#
# Youngs Moduli (GPa) = 54.68685 54.68685 143.92778
#
# Poissons Ratio (x) = 0.27594 0.59734
# Poissons Ratio (y) = 0.27594 0.59734
# Poissons Ratio (z) = 0.22696 0.22696
#
# Static dielectric constant tensor:
#      x y z
#    x 2.141370 0.000000 0.000000 
#    y 0.000000 2.141370 0.000000 
#    z 0.000000 0.000000 2.200360 
# 
# From -- ./inp_files/4495.got.cif
#   From: 2010.05.17/outbox.cif.g08.bks.cpg/sg126_3_cif.got.tgz:4495.got - 2010.05.20 11:58:20.
