data_PCOD9563268
_publ_section_title
;
Structure prediction by ZEFSAII (Michael W. Deem and Ramdas Pophale) SiO2 
 PCOD9563268
Probable space group: P 4/N B M
;
_chemical_formula_sum "Si O2"
_cell_formula_units_Z 58
_cell_length_a 12.420535
_cell_length_b 12.420535
_cell_length_c 18.777519
_cell_angle_alpha 90.000000
_cell_angle_beta 90.000000
_cell_angle_gamma 90.000000
_cell_volume 2896.802029
_symmetry_space_group_name_H-M "P 4/N B M"
_symmetry_group_IT_number 125
_space_group.IT_coordinate_system_code '2'
_symmetry_cell_setting 'tetragonal'
loop_
_space_group_symop_operation_xyz
x,y,z
1/2-y,x,z
1/2-x,1/2-y,z
y,1/2-x,z
x,1/2-y,-z
1/2-x,y,-z
y,x,-z
1/2-y,1/2-x,-z
-x,-y,-z
1/2+y,-x,-z
1/2+x,1/2+y,-z
-y,1/2+x,-z
-x,1/2+y,z
1/2+x,-y,z
-y,-x,z
1/2+y,1/2+x,z
loop_
_atom_site_type_symbol
_atom_site_label
_atom_site_fract_x
_atom_site_fract_y
_atom_site_fract_z
Si Si1 0.745654 0.073303 0.923869
Si Si2 0.086965 0.913036 0.473598
Si Si3 0.718430 0.927786 0.209703
Si Si4 0.750000 0.250000 0.500000
Si Si5 0.793959 0.573150 0.371008
O O1 0.830721 0.169280 0.934266
O O2 0.629556 0.129556 0.911516
O O3 0.783966 0.008507 0.855510
O O4 0.750000 0.012373 0.000000
O O5 0.160504 0.839497 0.525872
O O6 0.017183 0.831890 0.424936
O O7 0.000000 0.000000 0.500000
O O8 0.630332 0.833980 0.204248
O O9 0.703847 0.970646 0.289922
O O10 0.875455 0.675046 0.380097
#
# Coordination Sequence:
#
# PCOD9563268 Si02
#       5
#    16   8  16   2  16
#     4   9  19  35  52  76 113 152 193 240 296 356
#     4  12  24  42  66  92 128 162 196 255 310 361
#     4   9  19  36  55  79 112 147 193 246 288 346
#     4  12  28  44  60 104 132 144 214 260 280 376
#     4   9  20  40  61  85 120 161 201 241 304 373
#
# _framework density 20.022081
#
# number of rings (size 3 to 8) (size 9 to 14) (size 15 to 20)
#    0.000    2.483    0.000    4.138    1.931    2.207 
#    9.931    5.517    0.000    0.000    0.000    0.000 
#    0.000    0.000    0.000    0.000    0.000    0.000 
#
# Total GULP energy -322908.116189 kJ/mol
# GULP energy per Si atom -5567.381314 kJ/mol
# Density = 1.997651 g / cm^3
# Si number density = 20.022081 Si / 1000 Ang^3
#
#
#
# Elastic Constant Matrix: (Units=GPa)
#
#
# Indices 1 2 3 4 5 6 
#
# 1 65.4078 21.6745 48.9107 0.0000 0.0000 0.0000
# 2 21.6745 65.4078 48.9107 0.0000 0.0000 0.0000
# 3 48.9107 48.9107 99.4614 0.0000 0.0000 0.0000
# 4 0.0000 0.0000 0.0000 31.2868 0.0000 0.0000
# 5 0.0000 0.0000 0.0000 0.0000 31.2868 0.0000
# 6 0.0000 0.0000 0.0000 0.0000 0.0000 -104.3914
#
#
#
# Elastic Compliance Matrix: (Units=1/GPa)
#
#
# Indices 1 2 3 4 5 6 
#
# 1 0.024261 0.001395 -0.012616 0.000000 0.000000 0.000000
# 2 0.001395 0.024261 -0.012616 0.000000 0.000000 0.000000
# 3 -0.012616 -0.012616 0.022462 0.000000 0.000000 0.000000
# 4 0.000000 0.000000 0.000000 0.031962 0.000000 0.000000
# 5 0.000000 0.000000 0.000000 0.000000 0.031962 0.000000
# 6 0.000000 0.000000 0.000000 0.000000 0.000000 -0.009579
#
#
# Mechanical properties :
#
#
# Convention : Reuss Voigt Hill
#
# Bulk Modulus (GPa) = 42.90301 52.14100 47.52201
# Shear Modulus (GPa) = 27.65885 -0.97817 13.34034
#
# Velocity S-wave (km/s) = 3.72077 -0.69972 2.58404
# Velocity P-wave (km/s) = 6.31928 5.04435 5.71746
#
# Compressibility (1/GPa) = 0.02330839
#
# Stress axis : x y z
#
# Youngs Moduli (GPa) = 41.21895 41.21895 44.51889
#
# Poissons Ratio (x) = -0.05749 0.56166
# Poissons Ratio (y) = -0.05749 0.56166
# Poissons Ratio (z) = 0.52003 0.52003
#
# Static dielectric constant tensor:
#      x y z
#    x 1.715470 0.000000 0.000000 
#    y 0.000000 1.715470 0.000000 
#    z 0.000000 0.000000 1.741590 
# 
# From -- ./inp_files/5747.got.cif
#   From: 2010.05.17/outbox.cif.g08.bks.cpg/sg125_3_cif.got.tgz:5747.got - 2010.05.20 11:54:10.
