data_PCOD9563320
_publ_section_title
;
Structure prediction by ZEFSAII (Michael W. Deem and Ramdas Pophale) SiO2 
 PCOD9563320
Probable space group: P 4/N N C
;
_chemical_formula_sum "Si O2"
_cell_formula_units_Z 52
_cell_length_a 16.680719
_cell_length_b 16.680719
_cell_length_c 9.330562
_cell_angle_alpha 90.000000
_cell_angle_beta 90.000000
_cell_angle_gamma 90.000000
_cell_volume 2596.195159
_symmetry_space_group_name_H-M "P 4/N N C"
_symmetry_group_IT_number 126
_space_group.IT_coordinate_system_code '2'
_symmetry_cell_setting 'tetragonal'
loop_
_space_group_symop_operation_xyz
x,y,z
1/2-y,x,z
1/2-x,1/2-y,z
y,1/2-x,z
x,1/2-y,1/2-z
1/2-x,y,1/2-z
y,x,1/2-z
1/2-y,1/2-x,1/2-z
-x,-y,-z
1/2+y,-x,-z
1/2+x,1/2+y,-z
-y,1/2+x,-z
-x,1/2+y,1/2+z
1/2+x,-y,1/2+z
-y,-x,1/2+z
1/2+y,1/2+x,1/2+z
loop_
_atom_site_type_symbol
_atom_site_label
_atom_site_fract_x
_atom_site_fract_y
_atom_site_fract_z
Si Si1 0.750000 0.250000 0.000000
Si Si2 0.277338 0.984467 0.094780
Si Si3 0.832504 0.954151 0.314025
Si Si4 0.331950 0.605577 0.879847
O O1 0.825673 0.264997 0.899505
O O2 0.250000 0.013673 0.250000
O O3 0.341975 0.912549 0.114166
O O4 0.197438 0.951684 0.011414
O O5 0.320872 0.043966 0.984193
O O6 0.750000 0.919914 0.250000
O O7 0.906370 0.906370 0.250000
O O8 0.836293 0.045935 0.255083
#
# Coordination Sequence:
#
# PCOD9563320 Si02
#       4
#     4  16  16  16
#     4   8  16  32  58  86 118 152 188 230 290 372
#     4  10  19  33  54  83 116 150 189 234 290 359
#     4  10  22  39  56  78 109 149 200 249 300 361
#     4   9  18  33  54  83 118 152 185 230 294 368
#
# _framework density 20.029309999999999
#
# number of rings (size 3 to 8) (size 9 to 14) (size 15 to 20)
#    0.000    2.462    0.000    1.846    0.000    8.923 
#    0.000   16.154    0.000    0.000    0.000    8.615 
#    0.000    0.000    0.000    0.000    0.000    0.000 
#
# Total GULP energy -289533.623892 kJ/mol
# GULP energy per Si atom -5567.954306 kJ/mol
# Density = 1.998372 g / cm^3
# Si number density = 20.029310 Si / 1000 Ang^3
#
#
#
# Elastic Constant Matrix: (Units=GPa)
#
#
# Indices 1 2 3 4 5 6 
#
# 1 68.3095 37.6983 39.1335 0.0000 0.0000 0.0000
# 2 37.6983 68.3095 39.1335 0.0000 0.0000 0.0000
# 3 39.1335 39.1335 177.0868 0.0000 0.0000 0.0000
# 4 0.0000 0.0000 0.0000 5.1663 0.0000 0.0000
# 5 0.0000 0.0000 0.0000 0.0000 5.1663 0.0000
# 6 0.0000 0.0000 0.0000 0.0000 0.0000 9.2898
#
#
#
# Elastic Compliance Matrix: (Units=1/GPa)
#
#
# Indices 1 2 3 4 5 6 
#
# 1 0.021970 -0.010698 -0.002491 0.000000 0.000000 0.000000
# 2 -0.010698 0.021970 -0.002491 0.000000 0.000000 0.000000
# 3 -0.002491 -0.002491 0.006748 0.000000 0.000000 0.000000
# 4 0.000000 0.000000 0.000000 0.193563 0.000000 0.000000
# 5 0.000000 0.000000 0.000000 0.000000 0.193563 0.000000
# 6 0.000000 0.000000 0.000000 0.000000 0.000000 0.107645
#
#
# Mechanical properties :
#
#
# Convention : Reuss Voigt Hill
#
# Bulk Modulus (GPa) = 51.73673 60.62628 56.18150
# Shear Modulus (GPa) = 8.57249 17.10716 12.83982
#
# Velocity S-wave (km/s) = 2.07105 2.92568 2.53465
# Velocity P-wave (km/s) = 5.62189 6.46121 6.05611
#
# Compressibility (1/GPa) = 0.01932863
#
# Stress axis : x y z
#
# Youngs Moduli (GPa) = 45.51636 45.51636 148.19391
#
# Poissons Ratio (x) = 0.48692 0.36916
# Poissons Ratio (y) = 0.48692 0.36916
# Poissons Ratio (z) = 0.11338 0.11338
#
# Static dielectric constant tensor:
#      x y z
#    x 1.738900 0.000000 0.000000 
#    y 0.000000 1.738900 0.000000 
#    z 0.000000 0.000000 1.811890 
# 
# From -- ./inp_files/1191.got.cif
#   From: 2010.05.17/outbox.cif.g08.bks.cpg/sg126_1_cif.got.tgz:1191.got - 2010.05.20 11:58:20.
