data_PCOD9563869
_publ_section_title
;
Structure prediction by ZEFSAII (Michael W. Deem and Ramdas Pophale) SiO2 
 PCOD9563869
Probable space group: P 4/M B M
;
_chemical_formula_sum "Si O2"
_cell_formula_units_Z 64
_cell_length_a 19.817894
_cell_length_b 19.817894
_cell_length_c 7.366647
_cell_angle_alpha 90.000000
_cell_angle_beta 90.000000
_cell_angle_gamma 90.000000
_cell_volume 2893.242672
_symmetry_space_group_name_H-M "P 4/M B M"
_symmetry_group_IT_number 127
_symmetry_cell_setting 'tetragonal'
loop_
_space_group_symop_operation_xyz
x,y,z
-y,x,z
-x,-y,z
y,-x,z
1/2+x,1/2-y,-z
1/2-x,1/2+y,-z
1/2+y,1/2+x,-z
1/2-y,1/2-x,-z
-x,-y,-z
y,-x,-z
x,y,-z
-y,x,-z
1/2-x,1/2+y,z
1/2+x,1/2-y,z
1/2-y,1/2-x,z
1/2+y,1/2+x,z
loop_
_atom_site_type_symbol
_atom_site_label
_atom_site_fract_x
_atom_site_fract_y
_atom_site_fract_z
Si Si1 0.028747 0.364573 0.778413
Si Si2 0.625156 0.874845 0.221799
Si Si3 0.037420 0.101398 0.718919
Si Si4 0.386408 0.737378 0.789364
Si Si5 0.765353 0.265353 0.778224
O O1 0.066204 0.433797 0.727090
O O2 0.074830 0.302283 0.713499
O O3 0.951380 0.358823 0.720559
O O4 0.027599 0.362934 0.000000
O O5 0.679966 0.820035 0.283597
O O6 0.625699 0.874302 0.000000
O O7 0.037184 0.101222 0.500000
O O8 0.066415 0.172325 0.778398
O O9 0.961406 0.084063 0.778343
O O10 0.311733 0.721052 0.718108
O O11 0.375135 0.754119 0.000000
O O12 0.768374 0.268374 0.000000
#
# Coordination Sequence:
#
# PCOD9563869 Si02
#       5
#    16   8  16  16   8
#     4   9  16  28  44  68 100 136 171 207 249 297
#     4   9  17  26  43  67  98 137 174 203 245 304
#     4   9  20  38  55  72  99 135 172 211 256 305
#     4  10  19  31  51  77 106 135 166 207 258 306
#     4   9  18  31  43  69 111 139 157 204 266 303
#
# _framework density 22.120508999999998
#
# number of rings (size 3 to 8) (size 9 to 14) (size 15 to 20)
#    0.000    2.750    1.250    1.125    3.500    2.500 
#    0.000    1.875    0.000    0.000    0.000    0.875 
#    0.000    2.000    0.000    0.000    0.000    0.000 
#
# Total GULP energy -357418.060657 kJ/mol
# GULP energy per Si atom -5584.657198 kJ/mol
# Density = 2.207016 g / cm^3
# Si number density = 22.120509 Si / 1000 Ang^3
#
#
#
# Elastic Constant Matrix: (Units=GPa)
#
#
# Indices 1 2 3 4 5 6 
#
# 1 144.5117 112.3370 4.4721 0.0000 0.0000 0.0000
# 2 112.3370 144.5120 4.4721 0.0000 0.0000 0.0000
# 3 4.4721 4.4721 77.8519 0.0000 0.0000 0.0000
# 4 0.0000 0.0000 0.0000 9.5664 0.0000 0.0000
# 5 0.0000 0.0000 0.0000 0.0000 9.5664 0.0000
# 6 0.0000 0.0000 0.0000 0.0000 0.0000 42.6183
#
#
#
# Elastic Compliance Matrix: (Units=1/GPa)
#
#
# Indices 1 2 3 4 5 6 
#
# 1 0.017491 -0.013589 -0.000224 0.000000 0.000000 0.000000
# 2 -0.013589 0.017491 -0.000224 0.000000 0.000000 0.000000
# 3 -0.000224 -0.000224 0.012871 0.000000 0.000000 0.000000
# 4 0.000000 0.000000 0.000000 0.104533 0.000000 0.000000
# 5 0.000000 0.000000 0.000000 0.000000 0.104533 0.000000
# 6 0.000000 0.000000 0.000000 0.000000 0.000000 0.023464
#
#
# Mechanical properties :
#
#
# Convention : Reuss Voigt Hill
#
# Bulk Modulus (GPa) = 50.56492 67.71532 59.14012
# Shear Modulus (GPa) = 15.87055 28.72317 22.29686
#
# Velocity S-wave (km/s) = 2.68145 3.60736 3.17830
# Velocity P-wave (km/s) = 5.70047 6.93031 6.34526
#
# Compressibility (1/GPa) = 0.01977656
#
# Stress axis : x y z
#
# Youngs Moduli (GPa) = 57.17342 57.17352 77.69614
#
# Poissons Ratio (x) = 0.77696 0.01741
# Poissons Ratio (y) = 0.77696 0.01741
# Poissons Ratio (z) = 0.01281 0.01281
#
# Static dielectric constant tensor:
#      x y z
#    x 1.770460 0.000000 0.000000 
#    y 0.000000 1.770460 0.000000 
#    z 0.000000 0.000000 1.842000 
# 
# From -- ./inp_files/3063.got.cif
#   From: 2010.05.17/outbox.cif.g08.bks.cpg/sg127_2_cif.got.tgz:3063.got - 2010.05.20 12:03:00.
