data_PCOD9563897
_publ_section_title
;
Structure prediction by ZEFSAII (Michael W. Deem and Ramdas Pophale) SiO2 
 PCOD9563897
Probable space group: P 4/M B M
;
_chemical_formula_sum "Si O2"
_cell_formula_units_Z 104
_cell_length_a 21.243541
_cell_length_b 21.243541
_cell_length_c 13.244648
_cell_angle_alpha 90.000000
_cell_angle_beta 90.000000
_cell_angle_gamma 90.000000
_cell_volume 5977.151160
_symmetry_space_group_name_H-M "P 4/M B M"
_symmetry_group_IT_number 127
_symmetry_cell_setting 'tetragonal'
loop_
_space_group_symop_operation_xyz
x,y,z
-y,x,z
-x,-y,z
y,-x,z
1/2+x,1/2-y,-z
1/2-x,1/2+y,-z
1/2+y,1/2+x,-z
1/2-y,1/2-x,-z
-x,-y,-z
y,-x,-z
x,y,-z
-y,x,-z
1/2-x,1/2+y,z
1/2+x,1/2-y,z
1/2-y,1/2-x,z
1/2+y,1/2+x,z
loop_
_atom_site_type_symbol
_atom_site_label
_atom_site_fract_x
_atom_site_fract_y
_atom_site_fract_z
Si Si1 0.285250 0.576750 0.293342
Si Si2 0.208651 0.808337 0.620050
Si Si3 0.869316 0.528045 0.241559
Si Si4 0.185870 0.579449 0.881746
Si Si5 0.050266 0.907197 0.386459
Si Si6 0.259467 0.942597 0.379858
Si Si7 0.946011 0.446011 0.387282
O O1 0.276035 0.644053 0.345985
O O2 0.247299 0.581119 0.189265
O O3 0.360687 0.569970 0.298001
O O4 0.264258 0.512955 0.352132
O O5 0.210988 0.805204 0.500000
O O6 0.268430 0.768430 0.659887
O O7 0.213792 0.883281 0.642086
O O8 0.928048 0.571953 0.215971
O O9 0.845388 0.487596 0.147652
O O10 0.817529 0.566933 0.303325
O O11 0.890373 0.476082 0.323961
O O12 0.135539 0.635539 0.859020
O O13 0.200455 0.582800 0.000000
O O14 0.064888 0.881122 0.500000
O O15 0.975466 0.918323 0.381850
O O16 0.275227 0.940466 0.500000
O O17 0.927969 0.427969 0.500000
O O18 0.000000 0.500000 0.393253
#
# Coordination Sequence:
#
# PCOD9563897 Si02
#       7
#    16  16  16  16  16  16   8
#     4  11  20  32  53  76 100 134 179 226 268 310
#     4  10  20  33  50  75 109 146 179 211 255 321
#     4  10  19  32  52  77 103 135 175 214 264 325
#     4  10  22  39  55  71  94 128 178 235 282 320
#     4   9  17  30  52  84 118 146 169 197 243 312
#     4  10  20  32  49  76 111 148 178 209 256 319
#     4   9  16  26  43  71 107 139 164 196 241 309
#
# _framework density 17.399592999999999
#
# number of rings (size 3 to 8) (size 9 to 14) (size 15 to 20)
#    0.000    2.077    0.769    4.154    0.000    4.308 
#    0.000    0.769    0.000    8.308    0.000    1.077 
#    0.000    0.000    0.000    0.000    0.000    0.000 
#
# Total GULP energy -579233.811074 kJ/mol
# GULP energy per Si atom -5569.555876 kJ/mol
# Density = 1.735999 g / cm^3
# Si number density = 17.399593 Si / 1000 Ang^3
#
#
#
# Elastic Constant Matrix: (Units=GPa)
#
#
# Indices 1 2 3 4 5 6 
#
# 1 83.7475 34.9474 40.7756 0.0000 0.0000 0.0000
# 2 34.9474 83.7475 40.7756 0.0000 0.0000 0.0000
# 3 40.7756 40.7756 78.7822 0.0000 0.0000 0.0000
# 4 0.0000 0.0000 0.0000 21.1233 0.0000 0.0000
# 5 0.0000 0.0000 0.0000 0.0000 21.1233 0.0000
# 6 0.0000 0.0000 0.0000 0.0000 0.0000 32.8142
#
#
#
# Elastic Compliance Matrix: (Units=1/GPa)
#
#
# Indices 1 2 3 4 5 6 
#
# 1 0.016783 -0.003709 -0.006767 0.000000 0.000000 0.000000
# 2 -0.003709 0.016783 -0.006767 0.000000 0.000000 0.000000
# 3 -0.006767 -0.006767 0.019698 0.000000 0.000000 0.000000
# 4 0.000000 0.000000 0.000000 0.047341 0.000000 0.000000
# 5 0.000000 0.000000 0.000000 0.000000 0.047341 0.000000
# 6 0.000000 0.000000 0.000000 0.000000 0.000000 0.030475
#
#
# Mechanical properties :
#
#
# Convention : Reuss Voigt Hill
#
# Bulk Modulus (GPa) = 53.25126 53.25273 53.25199
# Shear Modulus (GPa) = 22.81382 23.66407 23.23895
#
# Velocity S-wave (km/s) = 3.62494 3.69187 3.65855
# Velocity P-wave (km/s) = 6.94201 6.98895 6.96552
#
# Compressibility (1/GPa) = 0.01877890
#
# Stress axis : x y z
#
# Youngs Moduli (GPa) = 59.58408 59.58408 50.76665
#
# Poissons Ratio (x) = 0.22098 0.34353
# Poissons Ratio (y) = 0.22098 0.34353
# Poissons Ratio (z) = 0.40320 0.40320
#
# Static dielectric constant tensor:
#      x y z
#    x 1.661800 0.000000 0.000000 
#    y 0.000000 1.661800 0.000000 
#    z 0.000000 0.000000 1.559310 
# 
# From -- ./inp_files/4592.got.cif
#   From: 2010.05.17/outbox.cif.g08.bks.cpg/sg127_3_cif.got.tgz:4592.got - 2010.05.20 12:03:00.
