data_PCOD9563346
_publ_section_title
;
Structure prediction by ZEFSAII (Michael W. Deem and Ramdas Pophale) SiO2 
 PCOD9563346
Probable space group: P 4/N N C
;
_chemical_formula_sum "Si O2"
_cell_formula_units_Z 80
_cell_length_a 10.747878
_cell_length_b 10.747878
_cell_length_c 28.323785
_cell_angle_alpha 90.000000
_cell_angle_beta 90.000000
_cell_angle_gamma 90.000000
_cell_volume 3271.875316
_symmetry_space_group_name_H-M "P 4/N N C"
_symmetry_group_IT_number 126
_space_group.IT_coordinate_system_code '2'
_symmetry_cell_setting 'tetragonal'
loop_
_space_group_symop_operation_xyz
x,y,z
1/2-y,x,z
1/2-x,1/2-y,z
y,1/2-x,z
x,1/2-y,1/2-z
1/2-x,y,1/2-z
y,x,1/2-z
1/2-y,1/2-x,1/2-z
-x,-y,-z
1/2+y,-x,-z
1/2+x,1/2+y,-z
-y,1/2+x,-z
-x,1/2+y,1/2+z
1/2+x,-y,1/2+z
-y,-x,1/2+z
1/2+y,1/2+x,1/2+z
loop_
_atom_site_type_symbol
_atom_site_label
_atom_site_fract_x
_atom_site_fract_y
_atom_site_fract_z
Si Si1 0.931246 0.846336 0.173796
Si Si2 0.351011 0.073172 0.013777
Si Si3 0.330814 0.942933 0.921062
Si Si4 0.396880 0.715206 0.698030
Si Si5 0.173631 0.932328 0.395957
O O1 0.800810 0.913244 0.186833
O O2 0.949502 0.856723 0.117017
O O3 0.064336 0.898272 0.191932
O O4 0.410395 0.204515 0.004246
O O5 0.366039 0.038507 0.068285
O O6 0.379150 0.974373 0.973194
O O7 0.186544 0.907453 0.911727
O O8 0.395795 0.814954 0.907521
O O9 0.250000 0.750000 0.693078
O O10 0.439705 0.750000 0.750000
O O11 0.459362 0.807741 0.659329
#
# Coordination Sequence:
#
# PCOD9563346 Si02
#       5
#    16  16  16  16  16
#     4  10  20  36  65 103 136 160 194 256 326 377
#     4  11  24  37  53  82 123 163 203 252 305 367
#     4  10  19  36  59  90 123 160 200 242 304 379
#     4  10  20  42  67  86 121 164 209 252 299 378
#     4  10  20  37  59  88 113 158 206 258 294 367
#
# _framework density 24.450807999999999
#
# number of rings (size 3 to 8) (size 9 to 14) (size 15 to 20)
#    0.000    1.800    4.000    2.400    0.000    9.600 
#    0.000    4.000    0.000    4.800    0.000    1.400 
#    0.000    1.600    0.000    0.000    0.000    0.000 
#
# Total GULP energy -447161.941998 kJ/mol
# GULP energy per Si atom -5589.524275 kJ/mol
# Density = 2.439516 g / cm^3
# Si number density = 24.450808 Si / 1000 Ang^3
#
#
#
# Elastic Constant Matrix: (Units=GPa)
#
#
# Indices 1 2 3 4 5 6 
#
# 1 71.1098 23.1275 16.8134 0.0000 0.0000 0.0000
# 2 23.1275 71.1098 16.8134 0.0000 0.0000 0.0000
# 3 16.8134 16.8134 156.4315 0.0000 0.0000 0.0000
# 4 0.0000 0.0000 0.0000 22.7962 0.0000 0.0000
# 5 0.0000 0.0000 0.0000 0.0000 22.7962 0.0000
# 6 0.0000 0.0000 0.0000 0.0000 0.0000 10.9941
#
#
#
# Elastic Compliance Matrix: (Units=1/GPa)
#
#
# Indices 1 2 3 4 5 6 
#
# 1 0.015938 -0.004903 -0.001186 0.000000 0.000000 0.000000
# 2 -0.004903 0.015938 -0.001186 0.000000 0.000000 0.000000
# 3 -0.001186 -0.001186 0.006648 0.000000 0.000000 0.000000
# 4 0.000000 0.000000 0.000000 0.043867 0.000000 0.000000
# 5 0.000000 0.000000 0.000000 0.000000 0.043867 0.000000
# 6 0.000000 0.000000 0.000000 0.000000 0.000000 0.090958
#
#
# Mechanical properties :
#
#
# Convention : Reuss Voigt Hill
#
# Bulk Modulus (GPa) = 41.71382 45.79554 43.75468
# Shear Modulus (GPa) = 20.85448 27.44376 24.14912
#
# Velocity S-wave (km/s) = 2.92364 3.35387 3.14612
# Velocity P-wave (km/s) = 5.33800 5.81104 5.57954
#
# Compressibility (1/GPa) = 0.02397287
#
# Stress axis : x y z
#
# Youngs Moduli (GPa) = 62.74359 62.74359 150.43198
#
# Poissons Ratio (x) = 0.30764 0.17842
# Poissons Ratio (y) = 0.30764 0.17842
# Poissons Ratio (z) = 0.07442 0.07442
#
# Static dielectric constant tensor:
#      x y z
#    x 1.960180 0.000000 0.000000 
#    y 0.000000 1.960180 0.000000 
#    z 0.000000 0.000000 1.997740 
# 
# From -- ./inp_files/6433.got.cif
#   From: 2010.05.17/outbox.cif.g08.bks.cpg/sg126_4_cif.got.tgz:6433.got - 2010.05.20 11:58:20.
