data_PCOD9563880
_publ_section_title
;
Structure prediction by ZEFSAII (Michael W. Deem and Ramdas Pophale) SiO2 
 PCOD9563880
Probable space group: P 4/M B M
;
_chemical_formula_sum "Si O2"
_cell_formula_units_Z 96
_cell_length_a 16.995837
_cell_length_b 16.995837
_cell_length_c 18.534635
_cell_angle_alpha 90.000000
_cell_angle_beta 90.000000
_cell_angle_gamma 90.000000
_cell_volume 5353.886407
_symmetry_space_group_name_H-M "P 4/M B M"
_symmetry_group_IT_number 127
_symmetry_cell_setting 'tetragonal'
loop_
_space_group_symop_operation_xyz
x,y,z
-y,x,z
-x,-y,z
y,-x,z
1/2+x,1/2-y,-z
1/2-x,1/2+y,-z
1/2+y,1/2+x,-z
1/2-y,1/2-x,-z
-x,-y,-z
y,-x,-z
x,y,-z
-y,x,-z
1/2-x,1/2+y,z
1/2+x,1/2-y,z
1/2-y,1/2-x,z
1/2+y,1/2+x,z
loop_
_atom_site_type_symbol
_atom_site_label
_atom_site_fract_x
_atom_site_fract_y
_atom_site_fract_z
Si Si1 0.300407 0.669234 0.298499
Si Si2 0.386035 0.643826 0.080294
Si Si3 0.315380 0.943651 0.918177
Si Si4 0.887687 0.930219 0.414423
Si Si5 0.901812 0.273376 0.844244
Si Si6 0.885985 0.056093 0.230607
O O1 0.247087 0.747087 0.311270
O O2 0.322995 0.618314 0.369068
O O3 0.253761 0.619470 0.237007
O O4 0.387305 0.681682 0.261788
O O5 0.388246 0.738537 0.081551
O O6 0.301297 0.613361 0.104478
O O7 0.444190 0.619405 0.144169
O O8 0.406899 0.617428 0.000000
O O9 0.391926 0.891926 0.905448
O O10 0.302091 0.010700 0.859487
O O11 0.319685 0.977834 0.000000
O O12 0.873525 0.922260 0.500000
O O13 0.975626 0.894881 0.399917
O O14 0.841720 0.341720 0.864006
O O15 0.966550 0.101073 0.252163
#
# Coordination Sequence:
#
# PCOD9563880 Si02
#       6
#    16  16  16  16  16  16
#     4  10  20  33  50  75 107 138 168 203 245 297
#     4  10  19  32  48  67  95 128 165 210 262 319
#     4  10  21  35  51  72  97 128 171 223 273 318
#     4   9  18  34  58  86 113 140 168 201 244 294
#     4  10  21  35  50  70  98 133 171 210 256 307
#     4  10  20  33  50  71  97 132 171 212 258 306
#
# _framework density 17.930900999999999
#
# number of rings (size 3 to 8) (size 9 to 14) (size 15 to 20)
#    0.000    2.167    0.000    4.500    0.000    8.000 
#    0.000    1.667    0.000    0.000    0.000    0.000 
#    0.000    0.000    0.000   18.333    0.000    0.000 
#
# Total GULP energy -535262.649893 kJ/mol
# GULP energy per Si atom -5575.652603 kJ/mol
# Density = 1.789009 g / cm^3
# Si number density = 17.930901 Si / 1000 Ang^3
#
#
#
# Elastic Constant Matrix: (Units=GPa)
#
#
# Indices 1 2 3 4 5 6 
#
# 1 59.1053 44.5846 8.7074 0.0000 0.0000 0.0000
# 2 44.5846 59.1053 8.7074 0.0000 0.0000 0.0000
# 3 8.7074 8.7074 68.3377 0.0000 0.0000 0.0000
# 4 0.0000 0.0000 0.0000 22.5192 0.0000 0.0000
# 5 0.0000 0.0000 0.0000 0.0000 22.5192 0.0000
# 6 0.0000 0.0000 0.0000 0.0000 0.0000 23.1693
#
#
#
# Elastic Compliance Matrix: (Units=1/GPa)
#
#
# Indices 1 2 3 4 5 6 
#
# 1 0.039361 -0.029506 -0.001256 0.000000 0.000000 0.000000
# 2 -0.029506 0.039361 -0.001256 0.000000 0.000000 0.000000
# 3 -0.001256 -0.001256 0.014953 0.000000 0.000000 0.000000
# 4 0.000000 0.000000 0.000000 0.044406 0.000000 0.000000
# 5 0.000000 0.000000 0.000000 0.000000 0.044406 0.000000
# 6 0.000000 0.000000 0.000000 0.000000 0.000000 0.043161
#
#
# Mechanical properties :
#
#
# Convention : Reuss Voigt Hill
#
# Bulk Modulus (GPa) = 33.73766 34.50524 34.12145
# Shear Modulus (GPa) = 16.69095 21.94482 19.31788
#
# Velocity S-wave (km/s) = 3.05429 3.50216 3.28586
# Velocity P-wave (km/s) = 5.59415 5.96982 5.78503
#
# Compressibility (1/GPa) = 0.02964047
#
# Stress axis : x y z
#
# Youngs Moduli (GPa) = 25.40587 25.40587 66.87528
#
# Poissons Ratio (x) = 0.74962 0.08398
# Poissons Ratio (y) = 0.74962 0.08398
# Poissons Ratio (z) = 0.03190 0.03190
#
# Static dielectric constant tensor:
#      x y z
#    x 1.630230 0.000000 0.000000 
#    y 0.000000 1.630230 0.000000 
#    z 0.000000 0.000000 1.682040 
# 
# From -- ./inp_files/5094.got.cif
#   From: 2010.05.17/outbox.cif.g08.bks.cpg/sg127_3_cif.got.tgz:5094.got - 2010.05.20 12:03:00.
