data_PCOD9563067
_publ_section_title
;
Structure prediction by ZEFSAII (Michael W. Deem and Ramdas Pophale) SiO2 
 PCOD9563067
Probable space group: P 4/N B M
;
_chemical_formula_sum "Si O2"
_cell_formula_units_Z 48
_cell_length_a 13.201830
_cell_length_b 13.201830
_cell_length_c 13.343369
_cell_angle_alpha 90.000000
_cell_angle_beta 90.000000
_cell_angle_gamma 90.000000
_cell_volume 2325.593304
_symmetry_space_group_name_H-M "P 4/N B M"
_symmetry_group_IT_number 125
_space_group.IT_coordinate_system_code '2'
_symmetry_cell_setting 'tetragonal'
loop_
_space_group_symop_operation_xyz
x,y,z
1/2-y,x,z
1/2-x,1/2-y,z
y,1/2-x,z
x,1/2-y,-z
1/2-x,y,-z
y,x,-z
1/2-y,1/2-x,-z
-x,-y,-z
1/2+y,-x,-z
1/2+x,1/2+y,-z
-y,1/2+x,-z
-x,1/2+y,z
1/2+x,-y,z
-y,-x,z
1/2+y,1/2+x,z
loop_
_atom_site_type_symbol
_atom_site_label
_atom_site_fract_x
_atom_site_fract_y
_atom_site_fract_z
Si Si1 0.332229 0.504265 0.288028
Si Si2 0.970266 0.633078 0.412169
Si Si3 0.515258 0.843830 0.938088
O O1 0.385383 0.614618 0.288433
O O2 0.418424 0.425530 0.320644
O O3 0.242598 0.497438 0.369511
O O4 0.304558 0.471729 0.175457
O O5 0.887813 0.612188 0.500000
O O6 0.071044 0.571044 0.443642
O O7 0.435366 0.935366 0.931302
O O8 0.472951 0.750000 0.000000
O O9 0.611271 0.888730 0.000000
#
# Coordination Sequence:
#
# PCOD9563067 Si02
#       3
#    16  16  16
#     4  10  21  37  59  86 116 154 198 243 294 352
#     4  10  21  38  59  85 118 152 191 241 294 350
#     4  10  21  37  57  83 117 155 196 244 295 349
#
# _framework density 20.639894000000002
#
# number of rings (size 3 to 8) (size 9 to 14) (size 15 to 20)
#    0.000    2.000    0.000    3.000    0.000    6.000 
#    0.000    8.333    0.000    6.000    0.000    0.000 
#    0.000    0.000    0.000    0.000    0.000    0.000 
#
# Total GULP energy -267414.779448 kJ/mol
# GULP energy per Si atom -5571.141239 kJ/mol
# Density = 2.059292 g / cm^3
# Si number density = 20.639894 Si / 1000 Ang^3
#
#
#
# Elastic Constant Matrix: (Units=GPa)
#
#
# Indices 1 2 3 4 5 6 
#
# 1 78.8420 18.6378 31.4477 0.0000 0.0000 0.0000
# 2 18.6378 78.8423 31.4483 0.0000 0.0000 0.0000
# 3 31.4477 31.4483 139.0624 0.0000 0.0000 0.0000
# 4 0.0000 0.0000 0.0000 29.0013 0.0000 0.0000
# 5 0.0000 0.0000 0.0000 0.0000 29.0007 0.0000
# 6 0.0000 0.0000 0.0000 0.0000 0.0000 6.0752
#
#
#
# Elastic Compliance Matrix: (Units=1/GPa)
#
#
# Indices 1 2 3 4 5 6 
#
# 1 0.014311 -0.002300 -0.002716 0.000000 0.000000 0.000000
# 2 -0.002300 0.014311 -0.002716 0.000000 0.000000 0.000000
# 3 -0.002716 -0.002716 0.008420 0.000000 0.000000 0.000000
# 4 0.000000 0.000000 0.000000 0.034481 0.000000 0.000000
# 5 0.000000 0.000000 0.000000 0.000000 0.034482 0.000000
# 6 0.000000 0.000000 0.000000 0.000000 0.000000 0.164605
#
#
# Mechanical properties :
#
#
# Convention : Reuss Voigt Hill
#
# Bulk Modulus (GPa) = 46.34608 51.09048 48.71828
# Shear Modulus (GPa) = 17.04943 27.16295 22.10619
#
# Velocity S-wave (km/s) = 2.87721 3.63166 3.27623
# Velocity P-wave (km/s) = 5.79147 6.51094 6.16172
#
# Compressibility (1/GPa) = 0.02157680
#
# Stress axis : x y z
#
# Youngs Moduli (GPa) = 69.87829 69.87831 118.77151
#
# Poissons Ratio (x) = 0.16069 0.32261
# Poissons Ratio (y) = 0.16069 0.32261
# Poissons Ratio (z) = 0.18980 0.18981
#
# Static dielectric constant tensor:
#      x y z
#    x 1.754330 0.000000 0.000000 
#    y 0.000000 1.754330 0.000000 
#    z 0.000000 0.000000 1.769930 
# 
# From -- ./inp_files/3346.got.cif
#   From: 2010.05.17/outbox.cif.g08.bks.cpg/sg125_2_cif.got.tgz:3346.got - 2010.05.20 11:54:10.
