data_PCOD9563121
_publ_section_title
;
Structure prediction by ZEFSAII (Michael W. Deem and Ramdas Pophale) SiO2 
 PCOD9563121
Probable space group: P 4/N B M
;
_chemical_formula_sum "Si O2"
_cell_formula_units_Z 80
_cell_length_a 11.995721
_cell_length_b 11.995721
_cell_length_c 25.313912
_cell_angle_alpha 90.000000
_cell_angle_beta 90.000000
_cell_angle_gamma 90.000000
_cell_volume 3642.604154
_symmetry_space_group_name_H-M "P 4/N B M"
_symmetry_group_IT_number 125
_space_group.IT_coordinate_system_code '2'
_symmetry_cell_setting 'tetragonal'
loop_
_space_group_symop_operation_xyz
x,y,z
1/2-y,x,z
1/2-x,1/2-y,z
y,1/2-x,z
x,1/2-y,-z
1/2-x,y,-z
y,x,-z
1/2-y,1/2-x,-z
-x,-y,-z
1/2+y,-x,-z
1/2+x,1/2+y,-z
-y,1/2+x,-z
-x,1/2+y,z
1/2+x,-y,z
-y,-x,z
1/2+y,1/2+x,z
loop_
_atom_site_type_symbol
_atom_site_label
_atom_site_fract_x
_atom_site_fract_y
_atom_site_fract_z
Si Si1 0.745711 0.561817 0.059438
Si Si2 0.745077 0.433976 0.166336
Si Si3 0.503623 0.311453 0.327936
Si Si4 0.746558 0.937767 0.556483
Si Si5 0.039325 0.137092 0.745436
O O1 0.854903 0.640273 0.064263
O O2 0.739673 0.474121 0.106249
O O3 0.750000 0.514317 0.000000
O O4 0.630387 0.369614 0.180938
O O5 0.841927 0.341927 0.172076
O O6 0.785784 0.539841 0.202019
O O7 0.587515 0.412486 0.331374
O O8 0.492612 0.263485 0.386742
O O9 0.540914 0.212237 0.290759
O O10 0.395810 0.360419 0.295036
O O11 0.640549 0.855035 0.556071
O O12 0.750000 0.000899 0.500000
O O13 0.977899 0.022102 0.759173
#
# Coordination Sequence:
#
# PCOD9563121 Si02
#       5
#    16  16  16  16  16
#     4   9  20  39  60  85 118 154 196 246 299 353
#     4  10  22  39  58  83 117 155 196 244 299 356
#     4  11  21  36  60  86 115 156 198 237 287 353
#     4   9  17  33  56  80 110 141 182 237 289 330
#     4  10  23  39  56  85 119 152 193 241 293 350
#
# _framework density 21.962309999999999
#
# number of rings (size 3 to 8) (size 9 to 14) (size 15 to 20)
#    0.000    2.200    2.000    1.800    2.800    3.200 
#    0.000    6.000    0.000    0.000    0.000    0.000 
#    0.000    0.000    0.000    0.000    0.000    0.000 
#
# Total GULP energy -445465.817234 kJ/mol
# GULP energy per Si atom -5568.322715 kJ/mol
# Density = 2.191232 g / cm^3
# Si number density = 21.962310 Si / 1000 Ang^3
#
#
#
# Elastic Constant Matrix: (Units=GPa)
#
#
# Indices 1 2 3 4 5 6 
#
# 1 42.6893 13.6990 44.8701 0.0000 0.0000 0.0000
# 2 13.6990 42.6893 44.8701 0.0000 0.0000 0.0000
# 3 44.8701 44.8701 170.2412 0.0000 0.0000 0.0000
# 4 0.0000 0.0000 0.0000 13.4343 0.0000 0.0000
# 5 0.0000 0.0000 0.0000 0.0000 13.4343 0.0000
# 6 0.0000 0.0000 0.0000 0.0000 0.0000 11.8587
#
#
#
# Elastic Compliance Matrix: (Units=1/GPa)
#
#
# Indices 1 2 3 4 5 6 
#
# 1 0.032521 -0.001973 -0.008051 0.000000 0.000000 0.000000
# 2 -0.001973 0.032521 -0.008051 0.000000 0.000000 0.000000
# 3 -0.008051 -0.008051 0.010118 0.000000 0.000000 0.000000
# 4 0.000000 0.000000 0.000000 0.074436 0.000000 0.000000
# 5 0.000000 0.000000 0.000000 0.000000 0.074436 0.000000
# 6 0.000000 0.000000 0.000000 0.000000 0.000000 0.084327
#
#
# Mechanical properties :
#
#
# Convention : Reuss Voigt Hill
#
# Bulk Modulus (GPa) = 25.63577 51.38868 38.51223
# Shear Modulus (GPa) = 13.98546 17.89083 15.93814
#
# Velocity S-wave (km/s) = 2.52621 2.85724 2.69681
# Velocity P-wave (km/s) = 4.49522 5.85956 5.22214
#
# Compressibility (1/GPa) = 0.03900799
#
# Stress axis : x y z
#
# Youngs Moduli (GPa) = 30.74936 30.74936 98.83194
#
# Poissons Ratio (x) = 0.06068 0.79573
# Poissons Ratio (y) = 0.06068 0.79573
# Poissons Ratio (z) = 0.24757 0.24757
#
# Static dielectric constant tensor:
#      x y z
#    x 1.852960 0.000000 0.000000 
#    y 0.000000 1.852960 0.000000 
#    z 0.000000 0.000000 1.878070 
# 
# From -- ./inp_files/5802.got.cif
#   From: 2010.05.17/outbox.cif.g08.bks.cpg/sg125_3_cif.got.tgz:5802.got - 2010.05.20 11:54:10.
