data_PCOD9563383
_publ_section_title
;
Structure prediction by ZEFSAII (Michael W. Deem and Ramdas Pophale) SiO2 
 PCOD9563383
Probable space group: P 4/N N C
;
_chemical_formula_sum "Si O2"
_cell_formula_units_Z 80
_cell_length_a 17.423701
_cell_length_b 17.423701
_cell_length_c 11.047946
_cell_angle_alpha 90.000000
_cell_angle_beta 90.000000
_cell_angle_gamma 90.000000
_cell_volume 3353.994625
_symmetry_space_group_name_H-M "P 4/N N C"
_symmetry_group_IT_number 126
_space_group.IT_coordinate_system_code '2'
_symmetry_cell_setting 'tetragonal'
loop_
_space_group_symop_operation_xyz
x,y,z
1/2-y,x,z
1/2-x,1/2-y,z
y,1/2-x,z
x,1/2-y,1/2-z
1/2-x,y,1/2-z
y,x,1/2-z
1/2-y,1/2-x,1/2-z
-x,-y,-z
1/2+y,-x,-z
1/2+x,1/2+y,-z
-y,1/2+x,-z
-x,1/2+y,1/2+z
1/2+x,-y,1/2+z
-y,-x,1/2+z
1/2+y,1/2+x,1/2+z
loop_
_atom_site_type_symbol
_atom_site_label
_atom_site_fract_x
_atom_site_fract_y
_atom_site_fract_z
Si Si1 0.796350 0.631607 0.395047
Si Si2 0.616238 0.484494 0.107060
Si Si3 0.930461 0.548333 0.878469
Si Si4 0.628462 0.223469 0.994095
Si Si5 0.739976 0.534055 0.608194
O O1 0.844333 0.708479 0.369695
O O2 0.838872 0.557391 0.340116
O O3 0.786228 0.599270 0.533637
O O4 0.536460 0.457858 0.160383
O O5 0.586896 0.509402 0.970347
O O6 0.674135 0.413293 0.109289
O O7 0.913538 0.586463 0.750000
O O8 0.847524 0.540347 0.939261
O O9 0.554660 0.238231 0.079201
O O10 0.669046 0.303031 0.957369
O O11 0.750000 0.545301 0.750000
#
# Coordination Sequence:
#
# PCOD9563383 Si02
#       5
#    16  16  16  16  16
#     4  10  20  35  56  86 117 153 194 234 295 357
#     4  10  21  37  61  82 119 163 197 244 293 354
#     4  11  21  37  58  91 121 155 201 240 295 362
#     4  10  20  38  59  78 110 156 201 245 291 351
#     4  11  22  36  57  86 126 153 189 245 307 367
#
# _framework density 23.852155
#
# number of rings (size 3 to 8) (size 9 to 14) (size 15 to 20)
#    0.000    1.600    4.000    2.400    0.000    0.000 
#    0.000    3.000    0.000    3.600    0.000    1.400 
#    0.000    0.000    0.000    0.000    0.000    0.000 
#
# Total GULP energy -445913.634021 kJ/mol
# GULP energy per Si atom -5573.920425 kJ/mol
# Density = 2.379787 g / cm^3
# Si number density = 23.852155 Si / 1000 Ang^3
#
#
#
# Elastic Constant Matrix: (Units=GPa)
#
#
# Indices 1 2 3 4 5 6 
#
# 1 166.5018 63.9834 0.4326 0.0000 0.0000 0.0000
# 2 63.9834 166.5019 0.4324 0.0000 0.0000 0.0000
# 3 0.4326 0.4324 47.2512 0.0000 0.0000 0.0000
# 4 0.0000 0.0000 0.0000 22.0065 0.0000 0.0000
# 5 0.0000 0.0000 0.0000 0.0000 22.0066 0.0000
# 6 0.0000 0.0000 0.0000 0.0000 0.0000 61.5469
#
#
#
# Elastic Compliance Matrix: (Units=1/GPa)
#
#
# Indices 1 2 3 4 5 6 
#
# 1 0.007047 -0.002708 -0.000040 0.000000 0.000000 0.000000
# 2 -0.002708 0.007047 -0.000040 0.000000 0.000000 0.000000
# 3 -0.000040 -0.000040 0.021164 0.000000 0.000000 0.000000
# 4 0.000000 0.000000 0.000000 0.045441 0.000000 0.000000
# 5 0.000000 0.000000 0.000000 0.000000 0.045441 0.000000
# 6 0.000000 0.000000 0.000000 0.000000 0.000000 0.016248
#
#
# Mechanical properties :
#
#
# Convention : Reuss Voigt Hill
#
# Bulk Modulus (GPa) = 33.68932 56.66132 45.17532
# Shear Modulus (GPa) = 31.67445 42.13908 36.90677
#
# Velocity S-wave (km/s) = 3.64806 4.20775 3.93786
# Velocity P-wave (km/s) = 5.64795 6.88576 6.29734
#
# Compressibility (1/GPa) = 0.02968300
#
# Stress axis : x y z
#
# Youngs Moduli (GPa) = 141.91269 141.91282 47.24954
#
# Poissons Ratio (x) = 0.38427 0.00188
# Poissons Ratio (y) = 0.38427 0.00188
# Poissons Ratio (z) = 0.00564 0.00563
#
# Static dielectric constant tensor:
#      x y z
#    x 1.957760 0.000000 0.000000 
#    y 0.000000 1.957760 0.000000 
#    z 0.000000 0.000000 2.008890 
# 
# From -- ./inp_files/3620.got.cif
#   From: 2010.05.17/outbox.cif.g08.bks.cpg/sg126_2_cif.got.tgz:3620.got - 2010.05.20 11:58:20.
