data_PCOD9563726
_publ_section_title
;
Structure prediction by ZEFSAII (Michael W. Deem and Ramdas Pophale) SiO2 
 PCOD9563726
Probable space group: P 4/N N C
;
_chemical_formula_sum "Si O2"
_cell_formula_units_Z 60
_cell_length_a 11.867495
_cell_length_b 11.867495
_cell_length_c 16.432490
_cell_angle_alpha 90.000000
_cell_angle_beta 90.000000
_cell_angle_gamma 90.000000
_cell_volume 2314.309785
_symmetry_space_group_name_H-M "P 4/N N C"
_symmetry_group_IT_number 126
_space_group.IT_coordinate_system_code '2'
_symmetry_cell_setting 'tetragonal'
loop_
_space_group_symop_operation_xyz
x,y,z
1/2-y,x,z
1/2-x,1/2-y,z
y,1/2-x,z
x,1/2-y,1/2-z
1/2-x,y,1/2-z
y,x,1/2-z
1/2-y,1/2-x,1/2-z
-x,-y,-z
1/2+y,-x,-z
1/2+x,1/2+y,-z
-y,1/2+x,-z
-x,1/2+y,1/2+z
1/2+x,-y,1/2+z
-y,-x,1/2+z
1/2+y,1/2+x,1/2+z
loop_
_atom_site_type_symbol
_atom_site_label
_atom_site_fract_x
_atom_site_fract_y
_atom_site_fract_z
Si Si1 0.667814 0.127176 0.673188
Si Si2 0.685743 0.019665 0.397317
Si Si3 0.820632 0.989309 0.555101
Si Si4 0.933086 0.933086 0.250000
Si Si5 0.750000 0.750000 0.901899
O O1 0.750000 0.122808 0.750000
O O2 0.625737 0.248144 0.641368
O O3 0.552457 0.073606 0.705354
O O4 0.724958 0.061531 0.600181
O O5 0.569920 0.069532 0.435614
O O6 0.772522 0.972230 0.463891
O O7 0.657804 0.936887 0.322543
O O8 0.633619 0.827062 0.594744
#
# Coordination Sequence:
#
# PCOD9563726 Si02
#       5
#    16  16  16   8   4
#     4  12  27  49  80 120 160 215 284 343 413 511
#     4  12  27  50  83 119 160 223 295 348 418 515
#     4  12  27  50  81 114 156 225 279 353 406 522
#     4  12  28  42  74 122 162 200 264 368 430 488
#     4  12  32  52  69 117 172 200 270 340 456 493
#
# _framework density 25.925654999999999
#
# number of rings (size 3 to 8) (size 9 to 14) (size 15 to 20)
#    0.000    0.000    5.333    3.200    7.467    2.133 
#    0.000    0.667    0.000    1.600    0.000    0.000 
#    0.000    0.000    0.000    0.000    0.000    0.000 
#
# Total GULP energy -335315.886672 kJ/mol
# GULP energy per Si atom -5588.598111 kJ/mol
# Density = 2.586665 g / cm^3
# Si number density = 25.925655 Si / 1000 Ang^3
#
#
#
# Elastic Constant Matrix: (Units=GPa)
#
#
# Indices 1 2 3 4 5 6 
#
# 1 115.8618 -6.1018 16.5477 0.0000 0.0000 0.0000
# 2 -6.1018 115.8618 16.5477 0.0000 0.0000 0.0000
# 3 16.5477 16.5477 126.6651 0.0000 0.0000 0.0000
# 4 0.0000 0.0000 0.0000 46.4199 0.0000 0.0000
# 5 0.0000 0.0000 0.0000 0.0000 46.4199 0.0000
# 6 0.0000 0.0000 0.0000 0.0000 0.0000 53.4905
#
#
#
# Elastic Compliance Matrix: (Units=1/GPa)
#
#
# Indices 1 2 3 4 5 6 
#
# 1 0.008842 0.000643 -0.001239 0.000000 0.000000 0.000000
# 2 0.000643 0.008842 -0.001239 0.000000 0.000000 0.000000
# 3 -0.001239 -0.001239 0.008219 0.000000 0.000000 0.000000
# 4 0.000000 0.000000 0.000000 0.021543 0.000000 0.000000
# 5 0.000000 0.000000 0.000000 0.000000 0.021543 0.000000
# 6 0.000000 0.000000 0.000000 0.000000 0.000000 0.018695
#
#
# Mechanical properties :
#
#
# Convention : Reuss Voigt Hill
#
# Bulk Modulus (GPa) = 44.98195 45.81956 45.40076
# Shear Modulus (GPa) = 50.62603 51.35905 50.99254
#
# Velocity S-wave (km/s) = 4.42377 4.45569 4.43976
# Velocity P-wave (km/s) = 6.59402 6.64700 6.62056
#
# Compressibility (1/GPa) = 0.02223114
#
# Stress axis : x y z
#
# Youngs Moduli (GPa) = 113.09937 113.09937 121.67554
#
# Poissons Ratio (x) = -0.07268 0.15076
# Poissons Ratio (y) = -0.07268 0.15076
# Poissons Ratio (z) = 0.14014 0.14014
#
# Static dielectric constant tensor:
#      x y z
#    x 2.066110 0.000000 0.000000 
#    y 0.000000 2.066110 0.000000 
#    z 0.000000 0.000000 2.064230 
# 
# From -- ./inp_files/3513.got.cif
#   From: 2010.05.17/outbox.cif.g08.bks.cpg/sg126_2_cif.got.tgz:3513.got - 2010.05.20 11:58:20.
