data_PCOD9563408
_publ_section_title
;
Structure prediction by ZEFSAII (Michael W. Deem and Ramdas Pophale) SiO2 
 PCOD9563408
Probable space group: P 4/N N C
;
_chemical_formula_sum "Si O2"
_cell_formula_units_Z 56
_cell_length_a 16.931302
_cell_length_b 16.931302
_cell_length_c 8.980436
_cell_angle_alpha 90.000000
_cell_angle_beta 90.000000
_cell_angle_gamma 90.000000
_cell_volume 2574.412495
_symmetry_space_group_name_H-M "P 4/N N C"
_symmetry_group_IT_number 126
_space_group.IT_coordinate_system_code '2'
_symmetry_cell_setting 'tetragonal'
loop_
_space_group_symop_operation_xyz
x,y,z
1/2-y,x,z
1/2-x,1/2-y,z
y,1/2-x,z
x,1/2-y,1/2-z
1/2-x,y,1/2-z
y,x,1/2-z
1/2-y,1/2-x,1/2-z
-x,-y,-z
1/2+y,-x,-z
1/2+x,1/2+y,-z
-y,1/2+x,-z
-x,1/2+y,1/2+z
1/2+x,-y,1/2+z
-y,-x,1/2+z
1/2+y,1/2+x,1/2+z
loop_
_atom_site_type_symbol
_atom_site_label
_atom_site_fract_x
_atom_site_fract_y
_atom_site_fract_z
Si Si1 0.331562 0.532163 0.342297
Si Si2 0.057616 0.662257 0.303603
Si Si3 0.878884 0.878884 0.250000
Si Si4 0.140147 0.183884 0.072787
O O1 0.250000 0.535123 0.250000
O O2 0.387914 0.591275 0.253405
O O3 0.331143 0.557400 0.516617
O O4 0.352908 0.439675 0.362611
O O5 0.080603 0.750000 0.250000
O O6 0.971843 0.640202 0.233341
O O7 0.828274 0.860501 0.395102
O O8 0.223530 0.144712 0.110520
#
# Coordination Sequence:
#
# PCOD9563408 Si02
#       4
#    16  16   8  16
#     4  11  25  44  69  97 135 177 228 292 349 418
#     4  11  24  43  68 100 134 179 231 283 349 417
#     4  10  20  37  66  98 138 181 228 282 336 412
#     4  10  21  38  65 101 141 184 228 278 340 410
#
# _framework density 21.752537
#
# number of rings (size 3 to 8) (size 9 to 14) (size 15 to 20)
#    0.000    1.429    0.000    6.000    0.000    9.714 
#    0.000    4.286    0.000    0.000    0.000    0.000 
#    0.000    0.000    0.000    0.000    0.000    0.000 
#
# Total GULP energy -312714.121418 kJ/mol
# GULP energy per Si atom -5584.180740 kJ/mol
# Density = 2.170303 g / cm^3
# Si number density = 21.752537 Si / 1000 Ang^3
#
#
#
# Elastic Constant Matrix: (Units=GPa)
#
#
# Indices 1 2 3 4 5 6 
#
# 1 113.7163 97.4466 82.2530 0.0000 0.0000 0.0000
# 2 97.4466 113.7163 82.2530 0.0000 0.0000 0.0000
# 3 82.2530 82.2530 185.1433 0.0000 0.0000 0.0000
# 4 0.0000 0.0000 0.0000 -3.1654 0.0000 0.0000
# 5 0.0000 0.0000 0.0000 0.0000 -3.1654 0.0000
# 6 0.0000 0.0000 0.0000 0.0000 0.0000 34.5135
#
#
#
# Elastic Compliance Matrix: (Units=1/GPa)
#
#
# Indices 1 2 3 4 5 6 
#
# 1 0.034353 -0.027111 -0.003217 0.000000 0.000000 0.000000
# 2 -0.027111 0.034353 -0.003217 0.000000 0.000000 0.000000
# 3 -0.003217 -0.003217 0.008260 0.000000 0.000000 0.000000
# 4 0.000000 0.000000 0.000000 -0.315917 0.000000 0.000000
# 5 0.000000 0.000000 0.000000 0.000000 -0.315917 0.000000
# 6 0.000000 0.000000 0.000000 0.000000 0.000000 0.028974
#
#
# Mechanical properties :
#
#
# Convention : Reuss Voigt Hill
#
# Bulk Modulus (GPa) = 101.26977 104.05347 102.66162
# Shear Modulus (GPa) = -10.97672 15.67810 2.35069
#
# Velocity S-wave (km/s) = -2.24881 2.68759 1.04067
# Velocity P-wave (km/s) = 6.31772 7.58748 6.98153
#
# Compressibility (1/GPa) = 0.00987462
#
# Stress axis : x y z
#
# Youngs Moduli (GPa) = 29.10939 29.10939 121.06427
#
# Poissons Ratio (x) = 0.78918 0.38952
# Poissons Ratio (y) = 0.78918 0.38952
# Poissons Ratio (z) = 0.09366 0.09366
#
# Static dielectric constant tensor:
#      x y z
#    x 1.782190 0.000000 0.000000 
#    y 0.000000 1.782190 0.000000 
#    z 0.000000 0.000000 1.768250 
# 
# From -- ./inp_files/1288.got.cif
#   From: 2010.05.17/outbox.cif.g08.bks.cpg/sg126_1_cif.got.tgz:1288.got - 2010.05.20 11:58:20.
