data_PCOD9563654
_publ_section_title
;
Structure prediction by ZEFSAII (Michael W. Deem and Ramdas Pophale) SiO2 
 PCOD9563654
Probable space group: P 4/N N C
;
_chemical_formula_sum "Si O2"
_cell_formula_units_Z 40
_cell_length_a 13.274217
_cell_length_b 13.274217
_cell_length_c 9.952686
_cell_angle_alpha 90.000000
_cell_angle_beta 90.000000
_cell_angle_gamma 90.000000
_cell_volume 1753.711414
_symmetry_space_group_name_H-M "P 4/N N C"
_symmetry_group_IT_number 126
_space_group.IT_coordinate_system_code '2'
_symmetry_cell_setting 'tetragonal'
loop_
_space_group_symop_operation_xyz
x,y,z
1/2-y,x,z
1/2-x,1/2-y,z
y,1/2-x,z
x,1/2-y,1/2-z
1/2-x,y,1/2-z
y,x,1/2-z
1/2-y,1/2-x,1/2-z
-x,-y,-z
1/2+y,-x,-z
1/2+x,1/2+y,-z
-y,1/2+x,-z
-x,1/2+y,1/2+z
1/2+x,-y,1/2+z
-y,-x,1/2+z
1/2+y,1/2+x,1/2+z
loop_
_atom_site_type_symbol
_atom_site_label
_atom_site_fract_x
_atom_site_fract_y
_atom_site_fract_z
Si Si1 0.061206 0.954610 0.871952
Si Si2 0.708966 0.592180 0.031782
Si Si3 0.750000 0.985583 0.750000
O O1 0.045544 0.838724 0.828479
O O2 0.175031 0.988233 0.902550
O O3 0.017786 0.017786 0.750000
O O4 0.000000 0.000000 0.000000
O O5 0.818724 0.631891 0.069445
O O6 0.702617 0.579621 0.870340
#
# Coordination Sequence:
#
# PCOD9563654 Si02
#       3
#    16  16   8
#     4  12  24  44  72 111 153 198 250 327 400 485
#     4  11  23  42  74 111 145 192 260 333 402 473
#     4  12  22  45  78 107 152 210 256 324 414 488
#
# _framework density 22.808767
#
# number of rings (size 3 to 8) (size 9 to 14) (size 15 to 20)
#    0.000    0.400    8.000    1.200    0.000    3.200 
#    0.000    2.000    0.000   22.800    0.000    0.000 
#    0.000    0.000    0.000    0.000    0.000    0.000 
#
# Total GULP energy -223524.662940 kJ/mol
# GULP energy per Si atom -5588.116573 kJ/mol
# Density = 2.275685 g / cm^3
# Si number density = 22.808767 Si / 1000 Ang^3
#
#
#
# Elastic Constant Matrix: (Units=GPa)
#
#
# Indices 1 2 3 4 5 6 
#
# 1 115.2756 70.9511 34.2625 0.0000 0.0000 0.0000
# 2 70.9511 115.2756 34.2625 0.0000 0.0000 0.0000
# 3 34.2625 34.2625 122.5396 0.0000 0.0000 0.0000
# 4 0.0000 0.0000 0.0000 41.8527 0.0000 0.0000
# 5 0.0000 0.0000 0.0000 0.0000 41.8527 0.0000
# 6 0.0000 0.0000 0.0000 0.0000 0.0000 47.5947
#
#
#
# Elastic Compliance Matrix: (Units=1/GPa)
#
#
# Indices 1 2 3 4 5 6 
#
# 1 0.014273 -0.008288 -0.001674 0.000000 0.000000 0.000000
# 2 -0.008288 0.014273 -0.001674 0.000000 0.000000 0.000000
# 3 -0.001674 -0.001674 0.009097 0.000000 0.000000 0.000000
# 4 0.000000 0.000000 0.000000 0.023893 0.000000 0.000000
# 5 0.000000 0.000000 0.000000 0.000000 0.023893 0.000000
# 6 0.000000 0.000000 0.000000 0.000000 0.000000 0.021011
#
#
# Mechanical properties :
#
#
# Convention : Reuss Voigt Hill
#
# Bulk Modulus (GPa) = 69.57314 70.22700 69.90007
# Shear Modulus (GPa) = 37.17441 40.50102 38.83771
#
# Velocity S-wave (km/s) = 4.04149 4.21845 4.13092
# Velocity P-wave (km/s) = 7.23514 7.38806 7.31200
#
# Compressibility (1/GPa) = 0.01437336
#
# Stress axis : x y z
#
# Youngs Moduli (GPa) = 70.06113 70.06113 109.93221
#
# Poissons Ratio (x) = 0.58064 0.18398
# Poissons Ratio (y) = 0.58064 0.18398
# Poissons Ratio (z) = 0.11725 0.11725
#
# Static dielectric constant tensor:
#      x y z
#    x 1.928590 0.000000 0.000000 
#    y 0.000000 1.928590 0.000000 
#    z 0.000000 0.000000 1.864580 
# 
# From -- ./inp_files/919.got.cif
#   From: 2010.05.17/outbox.cif.g08.bks.cpg/sg126_1_cif.got.tgz:919.got - 2010.05.20 11:58:20.
