data_PCOD9563019
_publ_section_title
;
Structure prediction by ZEFSAII (Michael W. Deem and Ramdas Pophale) SiO2 
 PCOD9563019
Probable space group: P 4/N B M
;
_chemical_formula_sum "Si O2"
_cell_formula_units_Z 88
_cell_length_a 18.146240
_cell_length_b 18.146240
_cell_length_c 13.385222
_cell_angle_alpha 90.000000
_cell_angle_beta 90.000000
_cell_angle_gamma 90.000000
_cell_volume 4407.566561
_symmetry_space_group_name_H-M "P 4/N B M"
_symmetry_group_IT_number 125
_space_group.IT_coordinate_system_code '2'
_symmetry_cell_setting 'tetragonal'
loop_
_space_group_symop_operation_xyz
x,y,z
1/2-y,x,z
1/2-x,1/2-y,z
y,1/2-x,z
x,1/2-y,-z
1/2-x,y,-z
y,x,-z
1/2-y,1/2-x,-z
-x,-y,-z
1/2+y,-x,-z
1/2+x,1/2+y,-z
-y,1/2+x,-z
-x,1/2+y,z
1/2+x,-y,z
-y,-x,z
1/2+y,1/2+x,z
loop_
_atom_site_type_symbol
_atom_site_label
_atom_site_fract_x
_atom_site_fract_y
_atom_site_fract_z
Si Si1 0.152137 0.177835 0.790922
Si Si2 0.075774 0.700033 0.596572
Si Si3 0.979511 0.601496 0.909712
Si Si4 0.868823 0.250689 0.197333
Si Si5 0.452017 0.750000 0.000000
Si Si6 0.404360 0.319798 0.569430
O O1 0.234555 0.149450 0.819529
O O2 0.086034 0.127643 0.834945
O O3 0.141061 0.177267 0.671492
O O4 0.094883 0.750000 0.500000
O O5 0.130670 0.630670 0.597138
O O6 0.083281 0.739083 0.704225
O O7 0.990403 0.681822 0.590207
O O8 0.047222 0.547222 0.873009
O O9 0.007535 0.678689 0.955653
O O10 0.941939 0.558062 0.000000
O O11 0.806803 0.193198 0.226561
O O12 0.827604 0.327604 0.174026
O O13 0.906267 0.224189 0.096324
O O14 0.383978 0.250000 0.500000
O O15 0.388851 0.388851 0.500000
#
# Coordination Sequence:
#
# PCOD9563019 Si02
#       6
#    16  16  16  16   8  16
#     4  11  23  41  71 101 129 173 225 277 332 402
#     4  10  22  39  60  90 130 173 216 264 327 397
#     4  11  25  44  64  93 136 179 217 274 345 406
#     4  10  20  35  60  90 119 159 213 270 321 377
#     4  12  22  39  64  89 124 170 224 270 322 394
#     4  11  22  39  64  93 127 164 211 272 333 389
#
# _framework density 19.965665000000001
#
# number of rings (size 3 to 8) (size 9 to 14) (size 15 to 20)
#    0.000    1.273    1.818    4.364    0.000    4.364 
#    0.000    0.909    0.000    0.000    0.000    0.000 
#    0.000    0.000    0.000    0.000    0.000    0.000 
#
# Total GULP energy -490869.330207 kJ/mol
# GULP energy per Si atom -5578.060571 kJ/mol
# Density = 1.992022 g / cm^3
# Si number density = 19.965665 Si / 1000 Ang^3
#
#
#
# Elastic Constant Matrix: (Units=GPa)
#
#
# Indices 1 2 3 4 5 6 
#
# 1 84.6745 44.0154 33.7798 0.0000 0.0000 0.0000
# 2 44.0154 84.6750 33.7802 0.0000 0.0000 0.0000
# 3 33.7798 33.7802 104.6249 0.0000 0.0000 0.0000
# 4 0.0000 0.0000 0.0000 28.2217 0.0000 0.0000
# 5 0.0000 0.0000 0.0000 0.0000 28.2057 0.0000
# 6 0.0000 0.0000 0.0000 0.0000 0.0000 29.8852
#
#
#
# Elastic Compliance Matrix: (Units=1/GPa)
#
#
# Indices 1 2 3 4 5 6 
#
# 1 0.016976 -0.007619 -0.003021 0.000000 0.000000 0.000000
# 2 -0.007619 0.016976 -0.003021 0.000000 0.000000 0.000000
# 3 -0.003021 -0.003021 0.011509 0.000000 0.000000 0.000000
# 4 0.000000 0.000000 0.000000 0.035434 0.000000 0.000000
# 5 0.000000 0.000000 0.000000 0.000000 0.035454 0.000000
# 6 0.000000 0.000000 0.000000 0.000000 0.000000 0.033461
#
#
# Mechanical properties :
#
#
# Convention : Reuss Voigt Hill
#
# Bulk Modulus (GPa) = 55.13272 55.23613 55.18443
# Shear Modulus (GPa) = 27.29608 28.08911 27.69259
#
# Velocity S-wave (km/s) = 3.70151 3.75490 3.72830
# Velocity P-wave (km/s) = 6.77805 6.82090 6.79951
#
# Compressibility (1/GPa) = 0.01813805
#
# Stress axis : x y z
#
# Youngs Moduli (GPa) = 58.90811 58.90838 86.89097
#
# Poissons Ratio (x) = 0.44882 0.26249
# Poissons Ratio (y) = 0.44882 0.26249
# Poissons Ratio (z) = 0.17796 0.17796
#
# Static dielectric constant tensor:
#      x y z
#    x 1.459550 0.000000 0.000000 
#    y 0.000000 1.459670 0.000000 
#    z 0.000000 0.000000 1.639400 
# 
# From -- ./inp_files/4869.got.cif
#   From: 2010.05.17/outbox.cif.g08.bks.cpg/sg125_3_cif.got.tgz:4869.got - 2010.05.20 11:54:10.
