data_PCOD9563593
_publ_section_title
;
Structure prediction by ZEFSAII (Michael W. Deem and Ramdas Pophale) SiO2 
 PCOD9563593
Probable space group: P 4/N N C
;
_chemical_formula_sum "Si O2"
_cell_formula_units_Z 64
_cell_length_a 13.133258
_cell_length_b 13.133258
_cell_length_c 18.886167
_cell_angle_alpha 90.000000
_cell_angle_beta 90.000000
_cell_angle_gamma 90.000000
_cell_volume 3257.532652
_symmetry_space_group_name_H-M "P 4/N N C"
_symmetry_group_IT_number 126
_space_group.IT_coordinate_system_code '2'
_symmetry_cell_setting 'tetragonal'
loop_
_space_group_symop_operation_xyz
x,y,z
1/2-y,x,z
1/2-x,1/2-y,z
y,1/2-x,z
x,1/2-y,1/2-z
1/2-x,y,1/2-z
y,x,1/2-z
1/2-y,1/2-x,1/2-z
-x,-y,-z
1/2+y,-x,-z
1/2+x,1/2+y,-z
-y,1/2+x,-z
-x,1/2+y,1/2+z
1/2+x,-y,1/2+z
-y,-x,1/2+z
1/2+y,1/2+x,1/2+z
loop_
_atom_site_type_symbol
_atom_site_label
_atom_site_fract_x
_atom_site_fract_y
_atom_site_fract_z
Si Si1 0.600955 0.822705 0.048569
Si Si2 0.718589 0.369416 0.673427
Si Si3 0.806848 0.400463 0.525250
Si Si4 0.514073 0.649414 0.298897
O O1 0.618722 0.704020 0.030216
O O2 0.583820 0.831472 0.132803
O O3 0.499668 0.856984 0.008243
O O4 0.750000 0.250000 0.671360
O O5 0.750000 0.410627 0.750000
O O6 0.774945 0.416918 0.606403
O O7 0.597211 0.375701 0.670907
O O8 0.873725 0.298311 0.516578
O O9 0.505885 0.750000 0.250000
O O10 0.561913 0.561913 0.250000
#
# Coordination Sequence:
#
# PCOD9563593 Si02
#       4
#    16  16  16  16
#     4  11  24  40  58  85 122 162 198 242 302 361
#     4  11  21  39  62  84 120 158 198 248 296 354
#     4  11  21  38  62  89 117 155 201 247 297 350
#     4  12  22  35  60  93 124 156 194 241 306 366
#
# _framework density 19.646771000000001
#
# number of rings (size 3 to 8) (size 9 to 14) (size 15 to 20)
#    0.000    0.750   10.000    0.000    0.000    1.250 
#    4.500    0.000    0.000    0.000    0.000    1.750 
#    0.000    0.000    0.000    0.000    0.000    0.000 
#
# Total GULP energy -357648.793235 kJ/mol
# GULP energy per Si atom -5588.262394 kJ/mol
# Density = 1.960205 g / cm^3
# Si number density = 19.646771 Si / 1000 Ang^3
#
#
#
# Elastic Constant Matrix: (Units=GPa)
#
#
# Indices 1 2 3 4 5 6 
#
# 1 60.0819 -2.2264 -0.5392 0.0000 0.0000 0.0000
# 2 -2.2264 60.0819 -0.5392 0.0000 0.0000 0.0000
# 3 -0.5392 -0.5392 114.1909 0.0000 0.0000 0.0000
# 4 0.0000 0.0000 0.0000 18.8422 0.0000 0.0000
# 5 0.0000 0.0000 0.0000 0.0000 18.8422 0.0000
# 6 0.0000 0.0000 0.0000 0.0000 0.0000 4.2429
#
#
#
# Elastic Compliance Matrix: (Units=1/GPa)
#
#
# Indices 1 2 3 4 5 6 
#
# 1 0.016668 0.000618 0.000082 0.000000 0.000000 0.000000
# 2 0.000618 0.016668 0.000082 0.000000 0.000000 0.000000
# 3 0.000082 0.000082 0.008758 0.000000 0.000000 0.000000
# 4 0.000000 0.000000 0.000000 0.053072 0.000000 0.000000
# 5 0.000000 0.000000 0.000000 0.000000 0.053072 0.000000
# 6 0.000000 0.000000 0.000000 0.000000 0.000000 0.235689
#
#
# Mechanical properties :
#
#
# Convention : Reuss Voigt Hill
#
# Bulk Modulus (GPa) = 22.90614 25.30503 24.10559
# Shear Modulus (GPa) = 12.59715 24.22944 18.41329
#
# Velocity S-wave (km/s) = 2.53490 3.51558 3.06472
# Velocity P-wave (km/s) = 4.50022 5.42098 4.98192
#
# Compressibility (1/GPa) = 0.04365641
#
# Stress axis : x y z
#
# Youngs Moduli (GPa) = 59.99669 59.99669 114.18088
#
# Poissons Ratio (x) = -0.03710 -0.00932
# Poissons Ratio (y) = -0.03710 -0.00932
# Poissons Ratio (z) = -0.00490 -0.00490
#
# Static dielectric constant tensor:
#      x y z
#    x 1.682330 0.000000 0.000000 
#    y 0.000000 1.682330 0.000000 
#    z 0.000000 0.000000 1.706140 
# 
# From -- ./inp_files/4292.got.cif
#   From: 2010.05.17/outbox.cif.g08.bks.cpg/sg126_3_cif.got.tgz:4292.got - 2010.05.20 11:58:20.
