data_PCOD9563529
_publ_section_title
;
Structure prediction by ZEFSAII (Michael W. Deem and Ramdas Pophale) SiO2 
 PCOD9563529
Probable space group: P 4/N N C
;
_chemical_formula_sum "Si O2"
_cell_formula_units_Z 108
_cell_length_a 15.102628
_cell_length_b 15.102628
_cell_length_c 21.117542
_cell_angle_alpha 90.000000
_cell_angle_beta 90.000000
_cell_angle_gamma 90.000000
_cell_volume 4816.686904
_symmetry_space_group_name_H-M "P 4/N N C"
_symmetry_group_IT_number 126
_space_group.IT_coordinate_system_code '2'
_symmetry_cell_setting 'tetragonal'
loop_
_space_group_symop_operation_xyz
x,y,z
1/2-y,x,z
1/2-x,1/2-y,z
y,1/2-x,z
x,1/2-y,1/2-z
1/2-x,y,1/2-z
y,x,1/2-z
1/2-y,1/2-x,1/2-z
-x,-y,-z
1/2+y,-x,-z
1/2+x,1/2+y,-z
-y,1/2+x,-z
-x,1/2+y,1/2+z
1/2+x,-y,1/2+z
-y,-x,1/2+z
1/2+y,1/2+x,1/2+z
loop_
_atom_site_type_symbol
_atom_site_label
_atom_site_fract_x
_atom_site_fract_y
_atom_site_fract_z
Si Si1 0.068813 0.750000 0.750000
Si Si2 0.581449 0.838927 0.884407
Si Si3 0.356254 0.901271 0.575468
Si Si4 0.160693 0.542405 0.955318
Si Si5 0.750000 0.750000 0.664935
Si Si6 0.435725 0.517799 0.308527
Si Si7 0.885988 0.212950 0.382141
Si Si8 0.654748 0.642022 0.474856
O O1 0.019039 0.662746 0.723538
O O2 0.126415 0.783235 0.692163
O O3 0.646808 0.782760 0.840635
O O4 0.492208 0.782487 0.895684
O O5 0.632888 0.859371 0.950035
O O6 0.556615 0.930027 0.850945
O O7 0.269152 0.949284 0.546730
O O8 0.427485 0.888819 0.519519
O O9 0.399797 0.937785 0.641049
O O10 0.337354 0.797191 0.588647
O O11 0.138776 0.617749 0.906173
O O12 0.119640 0.445921 0.942082
O O13 0.504993 0.504993 0.250000
O O14 0.758376 0.632715 0.459219
#
# Coordination Sequence:
#
# PCOD9563529 Si02
#       8
#     8  16  16  16   4  16  16  16
#     4  10  22  42  59  91 134 178 220 276 334 401
#     4  12  21  37  59  88 131 178 217 273 324 416
#     4  11  23  40  63  95 136 173 225 296 349 416
#     4  12  24  41  67  98 127 177 230 286 364 419
#     4  12  20  32  57  84 124 176 228 248 337 408
#     4  11  23  41  63  89 136 185 235 280 334 416
#     4  11  24  40  63  94 135 178 224 279 341 416
#     4  11  23  41  61  93 137 175 217 277 353 423
#
# _framework density 22.422052000000001
#
# number of rings (size 3 to 8) (size 9 to 14) (size 15 to 20)
#    0.000    0.741    5.926    3.111    0.000    1.778 
#    0.000    6.296    0.000    0.000    0.000    0.000 
#    0.000    0.000    0.000    0.000    0.000    0.000 
#
# Total GULP energy -601535.137477 kJ/mol
# GULP energy per Si atom -5569.769791 kJ/mol
# Density = 2.237102 g / cm^3
# Si number density = 22.422052 Si / 1000 Ang^3
#
#
#
# Elastic Constant Matrix: (Units=GPa)
#
#
# Indices 1 2 3 4 5 6 
#
# 1 76.1233 -4.7459 21.1658 0.0000 0.0000 0.0000
# 2 -4.7459 76.1233 21.1658 0.0000 0.0000 0.0000
# 3 21.1658 21.1658 70.8768 0.0000 0.0000 0.0000
# 4 0.0000 0.0000 0.0000 24.4483 0.0000 0.0000
# 5 0.0000 0.0000 0.0000 0.0000 24.4483 0.0000
# 6 0.0000 0.0000 0.0000 0.0000 0.0000 20.5480
#
#
#
# Elastic Compliance Matrix: (Units=1/GPa)
#
#
# Indices 1 2 3 4 5 6 
#
# 1 0.014695 0.002330 -0.005084 0.000000 0.000000 0.000000
# 2 0.002330 0.014695 -0.005084 0.000000 0.000000 0.000000
# 3 -0.005084 -0.005084 0.017146 0.000000 0.000000 0.000000
# 4 0.000000 0.000000 0.000000 0.040903 0.000000 0.000000
# 5 0.000000 0.000000 0.000000 0.000000 0.040903 0.000000
# 6 0.000000 0.000000 0.000000 0.000000 0.000000 0.048666
#
#
# Mechanical properties :
#
#
# Convention : Reuss Voigt Hill
#
# Bulk Modulus (GPa) = 32.40517 33.14388 32.77452
# Shear Modulus (GPa) = 24.63393 26.25809 25.44601
#
# Velocity S-wave (km/s) = 3.31818 3.42582 3.37243
# Velocity P-wave (km/s) = 5.40039 5.51926 5.46015
#
# Compressibility (1/GPa) = 0.03085927
#
# Stress axis : x y z
#
# Youngs Moduli (GPa) = 68.04809 68.04809 58.32408
#
# Poissons Ratio (x) = -0.15854 0.29653
# Poissons Ratio (y) = -0.15854 0.29653
# Poissons Ratio (z) = 0.34597 0.34597
#
# Static dielectric constant tensor:
#      x y z
#    x 1.931860 0.000000 0.000000 
#    y 0.000000 1.931860 0.000000 
#    z 0.000000 0.000000 1.872390 
# 
# From -- ./inp_files/5868.got.cif
#   From: 2010.05.17/outbox.cif.g08.bks.cpg/sg126_3_cif.got.tgz:5868.got - 2010.05.20 11:58:20.
