data_PCOD9563556
_publ_section_title
;
Structure prediction by ZEFSAII (Michael W. Deem and Ramdas Pophale) SiO2 
 PCOD9563556
Probable space group: P 4/N N C
;
_chemical_formula_sum "Si O2"
_cell_formula_units_Z 56
_cell_length_a 18.397287
_cell_length_b 18.397287
_cell_length_c 8.548781
_cell_angle_alpha 90.000000
_cell_angle_beta 90.000000
_cell_angle_gamma 90.000000
_cell_volume 2893.421862
_symmetry_space_group_name_H-M "P 4/N N C"
_symmetry_group_IT_number 126
_space_group.IT_coordinate_system_code '2'
_symmetry_cell_setting 'tetragonal'
loop_
_space_group_symop_operation_xyz
x,y,z
1/2-y,x,z
1/2-x,1/2-y,z
y,1/2-x,z
x,1/2-y,1/2-z
1/2-x,y,1/2-z
y,x,1/2-z
1/2-y,1/2-x,1/2-z
-x,-y,-z
1/2+y,-x,-z
1/2+x,1/2+y,-z
-y,1/2+x,-z
-x,1/2+y,1/2+z
1/2+x,-y,1/2+z
-y,-x,1/2+z
1/2+y,1/2+x,1/2+z
loop_
_atom_site_type_symbol
_atom_site_label
_atom_site_fract_x
_atom_site_fract_y
_atom_site_fract_z
Si Si1 0.502258 0.375737 0.992114
Si Si2 0.811852 0.845039 0.435015
Si Si3 0.356178 0.779241 0.428959
Si Si4 0.508565 0.991435 0.750000
O O1 0.423353 0.342236 0.967522
O O2 0.568016 0.318860 0.969345
O O3 0.507695 0.440442 0.866179
O O4 0.500562 0.416463 0.157303
O O5 0.729265 0.846060 0.497985
O O6 0.826858 0.826858 0.250000
O O7 0.356527 0.750000 0.250000
O O8 0.335887 0.709782 0.537804
#
# Coordination Sequence:
#
# PCOD9563556 Si02
#       4
#    16  16  16   8
#     4  11  22  41  62  88 127 166 201 264 321 373
#     4   9  19  36  62  90 115 152 205 250 297 376
#     4  11  24  41  64  92 125 167 217 266 318 392
#     4  10  24  38  58  96 124 158 216 252 310 404
#
# _framework density 19.354247000000001
#
# number of rings (size 3 to 8) (size 9 to 14) (size 15 to 20)
#    0.000    1.714    1.429    4.286    4.000    4.571 
#    0.000    4.286    0.000    1.714    0.000    0.000 
#    0.000    0.000    0.000    0.000    0.000    0.000 
#
# Total GULP energy -312008.479977 kJ/mol
# GULP energy per Si atom -5571.580000 kJ/mol
# Density = 1.931020 g / cm^3
# Si number density = 19.354247 Si / 1000 Ang^3
#
#
#
# Elastic Constant Matrix: (Units=GPa)
#
#
# Indices 1 2 3 4 5 6 
#
# 1 74.8631 210.8354 57.5592 0.0000 0.0000 0.0000
# 2 210.8354 74.8631 57.5592 0.0000 0.0000 0.0000
# 3 57.5592 57.5592 79.7157 0.0000 0.0000 0.0000
# 4 0.0000 0.0000 0.0000 14.4592 0.0000 0.0000
# 5 0.0000 0.0000 0.0000 0.0000 14.4592 0.0000
# 6 0.0000 0.0000 0.0000 0.0000 0.0000 -56.5495
#
#
#
# Elastic Compliance Matrix: (Units=1/GPa)
#
#
# Indices 1 2 3 4 5 6 
#
# 1 -0.001209 0.006145 -0.003564 0.000000 0.000000 0.000000
# 2 0.006145 -0.001209 -0.003564 0.000000 0.000000 0.000000
# 3 -0.003564 -0.003564 0.017692 0.000000 0.000000 0.000000
# 4 0.000000 0.000000 0.000000 0.069160 0.000000 0.000000
# 5 0.000000 0.000000 0.000000 0.000000 0.069160 0.000000
# 6 0.000000 0.000000 0.000000 0.000000 0.000000 -0.017684
#
#
# Mechanical properties :
#
#
# Convention : Reuss Voigt Hill
#
# Bulk Modulus (GPa) = 75.14683 97.92770 86.53726
# Shear Modulus (GPa) = 35.13380 -11.96035 11.58672
#
# Velocity S-wave (km/s) = 4.26526 -2.48860 2.44942
# Velocity P-wave (km/s) = 7.94782 6.51536 7.26697
#
# Compressibility (1/GPa) = 0.01330728
#
# Stress axis : x y z
#
# Youngs Moduli (GPa) = -827.11717 -827.11717 56.52306
#
# Poissons Ratio (x) = 5.08298 0.20147
# Poissons Ratio (y) = 5.08298 0.20147
# Poissons Ratio (z) = -2.94814 -2.94814
#
# Static dielectric constant tensor:
#      x y z
#    x 1.649650 0.000000 0.000000 
#    y 0.000000 1.649650 0.000000 
#    z 0.000000 0.000000 1.661890 
# 
# From -- ./inp_files/1247.got.cif
#   From: 2010.05.17/outbox.cif.g08.bks.cpg/sg126_1_cif.got.tgz:1247.got - 2010.05.20 11:58:20.
