data_PCOD9563519
_publ_section_title
;
Structure prediction by ZEFSAII (Michael W. Deem and Ramdas Pophale) SiO2 
 PCOD9563519
Probable space group: P 4/N N C
;
_chemical_formula_sum "Si O2"
_cell_formula_units_Z 52
_cell_length_a 16.880294
_cell_length_b 16.880294
_cell_length_c 8.270538
_cell_angle_alpha 90.000000
_cell_angle_beta 90.000000
_cell_angle_gamma 90.000000
_cell_volume 2356.642872
_symmetry_space_group_name_H-M "P 4/N N C"
_symmetry_group_IT_number 126
_space_group.IT_coordinate_system_code '2'
_symmetry_cell_setting 'tetragonal'
loop_
_space_group_symop_operation_xyz
x,y,z
1/2-y,x,z
1/2-x,1/2-y,z
y,1/2-x,z
x,1/2-y,1/2-z
1/2-x,y,1/2-z
y,x,1/2-z
1/2-y,1/2-x,1/2-z
-x,-y,-z
1/2+y,-x,-z
1/2+x,1/2+y,-z
-y,1/2+x,-z
-x,1/2+y,1/2+z
1/2+x,-y,1/2+z
-y,-x,1/2+z
1/2+y,1/2+x,1/2+z
loop_
_atom_site_type_symbol
_atom_site_label
_atom_site_fract_x
_atom_site_fract_y
_atom_site_fract_z
Si Si1 0.599366 0.538483 0.417926
Si Si2 0.884755 0.250000 0.250000
Si Si3 0.463951 0.631727 0.523413
Si Si4 0.503097 0.750000 0.250000
Si Si5 0.750000 0.250000 0.000000
O O1 0.549951 0.549951 0.250000
O O2 0.555071 0.601876 0.529129
O O3 0.585776 0.449741 0.481372
O O4 0.690225 0.550154 0.367616
O O5 0.937434 0.180563 0.321730
O O6 0.824533 0.274004 0.392097
O O7 0.456486 0.690157 0.368344
#
# Coordination Sequence:
#
# PCOD9563519 Si02
#       5
#    16   8  16   8   4
#     4   9  21  41  67  99 133 178 240 288 334 410
#     4  11  26  40  62  94 142 195 230 284 355 412
#     4  10  23  39  67  98 133 183 234 287 336 419
#     4  10  22  40  66  98 138 174 222 292 358 394
#     4  10  28  42  56  94 152 194 228 278 352 438
#
# _framework density 22.065283999999998
#
# number of rings (size 3 to 8) (size 9 to 14) (size 15 to 20)
#    0.000    2.154    0.000    0.000   12.923    2.462 
#    0.000    0.000    0.000   37.385    0.000   12.923 
#    0.000    0.000    0.000    0.000    0.000    0.000 
#
# Total GULP energy -290445.971780 kJ/mol
# GULP energy per Si atom -5585.499457 kJ/mol
# Density = 2.201506 g / cm^3
# Si number density = 22.065284 Si / 1000 Ang^3
#
#
#
# Elastic Constant Matrix: (Units=GPa)
#
#
# Indices 1 2 3 4 5 6 
#
# 1 151.2345 79.3620 62.4839 0.0000 0.0000 0.0000
# 2 79.3620 151.2345 62.4839 0.0000 0.0000 0.0000
# 3 62.4839 62.4839 95.7872 0.0000 0.0000 0.0000
# 4 0.0000 0.0000 0.0000 38.0883 0.0000 0.0000
# 5 0.0000 0.0000 0.0000 0.0000 38.0883 0.0000
# 6 0.0000 0.0000 0.0000 0.0000 0.0000 11.3929
#
#
#
# Elastic Compliance Matrix: (Units=1/GPa)
#
#
# Indices 1 2 3 4 5 6 
#
# 1 0.010311 -0.003603 -0.004376 0.000000 0.000000 0.000000
# 2 -0.003603 0.010311 -0.004376 0.000000 0.000000 0.000000
# 3 -0.004376 -0.004376 0.016149 0.000000 0.000000 0.000000
# 4 0.000000 0.000000 0.000000 0.026255 0.000000 0.000000
# 5 0.000000 0.000000 0.000000 0.000000 0.026255 0.000000
# 6 0.000000 0.000000 0.000000 0.000000 0.000000 0.087774
#
#
# Mechanical properties :
#
#
# Convention : Reuss Voigt Hill
#
# Bulk Modulus (GPa) = 82.90820 89.65732 86.28276
# Shear Modulus (GPa) = 24.29748 30.44234 27.36991
#
# Velocity S-wave (km/s) = 3.32198 3.71839 3.52576
# Velocity P-wave (km/s) = 7.23669 7.69131 7.46746
#
# Compressibility (1/GPa) = 0.01206153
#
# Stress axis : x y z
#
# Youngs Moduli (GPa) = 96.98644 96.98644 61.92513
#
# Poissons Ratio (x) = 0.34942 0.27097
# Poissons Ratio (y) = 0.34942 0.27097
# Poissons Ratio (z) = 0.42438 0.42438
#
# Static dielectric constant tensor:
#      x y z
#    x 1.836670 0.000000 0.000000 
#    y 0.000000 1.836670 0.000000 
#    z 0.000000 0.000000 1.918280 
# 
# From -- ./inp_files/1218.got.cif
#   From: 2010.05.17/outbox.cif.g08.bks.cpg/sg126_1_cif.got.tgz:1218.got - 2010.05.20 11:58:20.
