data_PCOD9563707
_publ_section_title
;
Structure prediction by ZEFSAII (Michael W. Deem and Ramdas Pophale) SiO2 
 PCOD9563707
Probable space group: P 4/N N C
;
_chemical_formula_sum "Si O2"
_cell_formula_units_Z 56
_cell_length_a 9.967879
_cell_length_b 9.967879
_cell_length_c 23.015843
_cell_angle_alpha 90.000000
_cell_angle_beta 90.000000
_cell_angle_gamma 90.000000
_cell_volume 2286.822209
_symmetry_space_group_name_H-M "P 4/N N C"
_symmetry_group_IT_number 126
_space_group.IT_coordinate_system_code '2'
_symmetry_cell_setting 'tetragonal'
loop_
_space_group_symop_operation_xyz
x,y,z
1/2-y,x,z
1/2-x,1/2-y,z
y,1/2-x,z
x,1/2-y,1/2-z
1/2-x,y,1/2-z
y,x,1/2-z
1/2-y,1/2-x,1/2-z
-x,-y,-z
1/2+y,-x,-z
1/2+x,1/2+y,-z
-y,1/2+x,-z
-x,1/2+y,1/2+z
1/2+x,-y,1/2+z
-y,-x,1/2+z
1/2+y,1/2+x,1/2+z
loop_
_atom_site_type_symbol
_atom_site_label
_atom_site_fract_x
_atom_site_fract_y
_atom_site_fract_z
Si Si1 0.628051 0.166664 0.837196
Si Si2 0.086698 0.086698 0.750000
Si Si3 0.971061 0.790501 0.068524
Si Si4 0.707165 0.973027 0.941043
O O1 0.750000 0.250000 0.809376
O O2 0.531858 0.072574 0.798110
O O3 0.547359 0.284648 0.871179
O O4 0.684058 0.076607 0.889968
O O5 0.250000 0.074001 0.750000
O O6 0.853867 0.898709 0.069093
O O7 0.036597 0.806944 0.005484
O O8 0.598768 0.852162 0.937198
#
# Coordination Sequence:
#
# PCOD9563707 Si02
#       4
#    16   8  16  16
#     4  12  27  41  76 114 149 202 274 339 401 473
#     4  11  28  56  78 101 146 209 278 342 394 481
#     4   9  20  40  68 104 154 207 252 308 397 489
#     4   9  22  42  65 105 160 204 245 316 414 497
#
# _framework density 24.488130000000002
#
# number of rings (size 3 to 8) (size 9 to 14) (size 15 to 20)
#    0.000    1.857    0.000    3.429   12.000    5.143 
#    0.000    0.000    0.000    1.714    0.000    0.000 
#    0.000    0.000    0.000    0.000    0.000    0.000 
#
# Total GULP energy -312442.665833 kJ/mol
# GULP energy per Si atom -5579.333318 kJ/mol
# Density = 2.443239 g / cm^3
# Si number density = 24.488130 Si / 1000 Ang^3
#
#
#
# Elastic Constant Matrix: (Units=GPa)
#
#
# Indices 1 2 3 4 5 6 
#
# 1 88.0799 38.9295 64.6382 0.0000 0.0000 0.0000
# 2 38.9295 88.0799 64.6382 0.0000 0.0000 0.0000
# 3 64.6382 64.6382 185.6732 0.0000 0.0000 0.0000
# 4 0.0000 0.0000 0.0000 23.1323 0.0000 0.0000
# 5 0.0000 0.0000 0.0000 0.0000 23.1323 0.0000
# 6 0.0000 0.0000 0.0000 0.0000 0.0000 29.4593
#
#
#
# Elastic Compliance Matrix: (Units=1/GPa)
#
#
# Indices 1 2 3 4 5 6 
#
# 1 0.016270 -0.004076 -0.004245 0.000000 0.000000 0.000000
# 2 -0.004076 0.016270 -0.004245 0.000000 0.000000 0.000000
# 3 -0.004245 -0.004245 0.008342 0.000000 0.000000 0.000000
# 4 0.000000 0.000000 0.000000 0.043230 0.000000 0.000000
# 5 0.000000 0.000000 0.000000 0.000000 0.043230 0.000000
# 6 0.000000 0.000000 0.000000 0.000000 0.000000 0.033945
#
#
# Mechanical properties :
#
#
# Convention : Reuss Voigt Hill
#
# Bulk Modulus (GPa) = 63.49400 77.58274 70.53837
# Shear Modulus (GPa) = 26.08675 28.05325 27.07000
#
# Velocity S-wave (km/s) = 3.26741 3.38832 3.32841
# Velocity P-wave (km/s) = 6.34187 6.85990 6.60597
#
# Compressibility (1/GPa) = 0.01574952
#
# Stress axis : x y z
#
# Youngs Moduli (GPa) = 61.46253 61.46253 119.88134
#
# Poissons Ratio (x) = 0.25050 0.50892
# Poissons Ratio (y) = 0.25050 0.50892
# Poissons Ratio (z) = 0.26092 0.26092
#
# Static dielectric constant tensor:
#      x y z
#    x 2.005390 0.000000 0.000000 
#    y 0.000000 2.005390 0.000000 
#    z 0.000000 0.000000 1.990360 
# 
# From -- ./inp_files/4911.got.cif
#   From: 2010.05.17/outbox.cif.g08.bks.cpg/sg126_3_cif.got.tgz:4911.got - 2010.05.20 11:58:20.
