data_PCOD9563610
_publ_section_title
;
Structure prediction by ZEFSAII (Michael W. Deem and Ramdas Pophale) SiO2 
 PCOD9563610
Probable space group: P 4/N N C
;
_chemical_formula_sum "Si O2"
_cell_formula_units_Z 104
_cell_length_a 16.503142
_cell_length_b 16.503142
_cell_length_c 18.573405
_cell_angle_alpha 90.000000
_cell_angle_beta 90.000000
_cell_angle_gamma 90.000000
_cell_volume 5058.535497
_symmetry_space_group_name_H-M "P 4/N N C"
_symmetry_group_IT_number 126
_space_group.IT_coordinate_system_code '2'
_symmetry_cell_setting 'tetragonal'
loop_
_space_group_symop_operation_xyz
x,y,z
1/2-y,x,z
1/2-x,1/2-y,z
y,1/2-x,z
x,1/2-y,1/2-z
1/2-x,y,1/2-z
y,x,1/2-z
1/2-y,1/2-x,1/2-z
-x,-y,-z
1/2+y,-x,-z
1/2+x,1/2+y,-z
-y,1/2+x,-z
-x,1/2+y,1/2+z
1/2+x,-y,1/2+z
-y,-x,1/2+z
1/2+y,1/2+x,1/2+z
loop_
_atom_site_type_symbol
_atom_site_label
_atom_site_fract_x
_atom_site_fract_y
_atom_site_fract_z
Si Si1 0.250000 0.750000 0.250000
Si Si2 0.203224 0.917139 0.992363
Si Si3 0.025874 0.568047 0.556591
Si Si4 0.538910 0.476878 0.319035
Si Si5 0.250000 0.250000 0.001613
Si Si6 0.319155 0.072935 0.298113
Si Si7 0.355417 0.669531 0.125044
Si Si8 0.229859 0.076458 0.449745
O O1 0.307914 0.699153 0.195823
O O2 0.112021 0.900115 0.968044
O O3 0.259321 0.879466 0.930699
O O4 0.204676 0.883821 0.074547
O O5 0.221505 0.011866 0.002236
O O6 0.000000 0.500000 0.500000
O O7 0.028827 0.515147 0.627254
O O8 0.965788 0.643336 0.566473
O O9 0.534883 0.534883 0.250000
O O10 0.486451 0.394865 0.306238
O O11 0.620506 0.437189 0.351730
O O12 0.212432 0.341439 0.008764
O O13 0.250000 0.031892 0.250000
O O14 0.351278 0.148723 0.250000
O O15 0.279066 0.093037 0.375244
#
# Coordination Sequence:
#
# PCOD9563610 Si02
#       8
#     4  16  16  16   4  16  16  16
#     4  12  32  42  72 108 152 186 244 312 380 434
#     4  12  24  46  74 101 147 190 252 302 371 447
#     4  12  23  44  69 101 136 194 247 297 368 444
#     4  11  24  41  65  95 135 184 243 291 357 440
#     4  12  24  36  61 100 140 177 248 308 370 420
#     4  11  22  36  57  88 130 181 232 287 360 434
#     4  12  26  47  69 107 142 196 240 310 372 443
#     4  12  23  40  64  97 141 189 239 310 366 443
#
# _framework density 20.559308999999999
#
# number of rings (size 3 to 8) (size 9 to 14) (size 15 to 20)
#    0.000    0.308    4.615    5.538    3.231    0.154 
#    0.000    0.000    0.000    0.000    0.000    0.000 
#    0.000    0.000    0.000    0.000    0.000    0.000 
#
# Total GULP energy -579777.784626 kJ/mol
# GULP energy per Si atom -5574.786391 kJ/mol
# Density = 2.051252 g / cm^3
# Si number density = 20.559309 Si / 1000 Ang^3
#
#
#
# Elastic Constant Matrix: (Units=GPa)
#
#
# Indices 1 2 3 4 5 6 
#
# 1 87.7603 7.7769 30.4611 0.0000 0.0000 0.0000
# 2 7.7769 87.7601 30.4610 0.0000 0.0000 0.0000
# 3 30.4611 30.4610 92.4956 0.0000 0.0000 0.0000
# 4 0.0000 0.0000 0.0000 34.8430 0.0000 0.0000
# 5 0.0000 0.0000 0.0000 0.0000 34.8427 0.0000
# 6 0.0000 0.0000 0.0000 0.0000 0.0000 28.0406
#
#
#
# Elastic Compliance Matrix: (Units=1/GPa)
#
#
# Indices 1 2 3 4 5 6 
#
# 1 0.012876 0.000373 -0.004363 0.000000 0.000000 0.000000
# 2 0.000373 0.012876 -0.004363 0.000000 0.000000 0.000000
# 3 -0.004363 -0.004363 0.013685 0.000000 0.000000 0.000000
# 4 0.000000 0.000000 0.000000 0.028700 0.000000 0.000000
# 5 0.000000 0.000000 0.000000 0.000000 0.028700 0.000000
# 6 0.000000 0.000000 0.000000 0.000000 0.000000 0.035663
#
#
# Mechanical properties :
#
#
# Convention : Reuss Voigt Hill
#
# Bulk Modulus (GPa) = 43.99311 45.04598 44.51954
# Shear Modulus (GPa) = 31.89095 32.83306 32.36200
#
# Velocity S-wave (km/s) = 3.94276 4.00057 3.97177
# Velocity P-wave (km/s) = 6.49398 6.58007 6.53716
#
# Compressibility (1/GPa) = 0.02273083
#
# Stress axis : x y z
#
# Youngs Moduli (GPa) = 77.66332 77.66316 73.07122
#
# Poissons Ratio (x) = -0.02901 0.31884
# Poissons Ratio (y) = -0.02901 0.31884
# Poissons Ratio (z) = 0.33888 0.33888
#
# Static dielectric constant tensor:
#      x y z
#    x 1.771090 0.000000 0.000000 
#    y 0.000000 1.771090 0.000000 
#    z 0.000000 0.000000 1.660560 
# 
# From -- ./inp_files/4598.got.cif
#   From: 2010.05.17/outbox.cif.g08.bks.cpg/sg126_3_cif.got.tgz:4598.got - 2010.05.20 11:58:20.
