data_PCOD9563094
_publ_section_title
;
Structure prediction by ZEFSAII (Michael W. Deem and Ramdas Pophale) SiO2 
 PCOD9563094
Probable space group: P 4/N B M
;
_chemical_formula_sum "Si O2"
_cell_formula_units_Z 96
_cell_length_a 14.087372
_cell_length_b 14.087372
_cell_length_c 23.008874
_cell_angle_alpha 90.000000
_cell_angle_beta 90.000000
_cell_angle_gamma 90.000000
_cell_volume 4566.204228
_symmetry_space_group_name_H-M "P 4/N B M"
_symmetry_group_IT_number 125
_space_group.IT_coordinate_system_code '2'
_symmetry_cell_setting 'tetragonal'
loop_
_space_group_symop_operation_xyz
x,y,z
1/2-y,x,z
1/2-x,1/2-y,z
y,1/2-x,z
x,1/2-y,-z
1/2-x,y,-z
y,x,-z
1/2-y,1/2-x,-z
-x,-y,-z
1/2+y,-x,-z
1/2+x,1/2+y,-z
-y,1/2+x,-z
-x,1/2+y,z
1/2+x,-y,z
-y,-x,z
1/2+y,1/2+x,z
loop_
_atom_site_type_symbol
_atom_site_label
_atom_site_fract_x
_atom_site_fract_y
_atom_site_fract_z
Si Si1 0.868462 0.852586 0.178341
Si Si2 0.116382 0.454342 0.059083
Si Si3 0.243535 0.904557 0.110954
Si Si4 0.181837 0.966234 0.239049
Si Si5 0.908349 0.726185 0.655584
Si Si6 0.509031 0.847044 0.533429
O O1 0.759925 0.875498 0.189322
O O2 0.890388 0.883351 0.113209
O O3 0.950846 0.891823 0.218587
O O4 0.213209 0.513650 0.070307
O O5 0.031598 0.531598 0.062249
O O6 0.103086 0.396915 0.000000
O O7 0.143402 0.856599 0.092646
O O8 0.321664 0.821664 0.109250
O O9 0.233116 0.936828 0.178208
O O10 0.126422 0.873579 0.258125
O O11 0.230515 0.012489 0.294307
O O12 0.852835 0.825524 0.661185
O O13 0.955496 0.694099 0.595141
O O14 0.483045 0.750000 0.500000
O O15 0.421853 0.921853 0.538610
O O16 0.594075 0.905926 0.500000
#
# Coordination Sequence:
#
# PCOD9563094 Si02
#       6
#    16  16  16  16  16  16
#     4  11  22  38  58  82 117 157 199 252 320 386
#     4  10  21  39  63  90 118 152 204 267 325 390
#     4   9  19  39  65  90 122 167 211 258 330 411
#     4  11  22  39  62  91 126 165 216 272 331 396
#     4  11  23  40  65  98 136 176 225 283 339 400
#     4  11  23  43  71 103 141 187 237 287 341 404
#
# _framework density 21.024028000000001
#
# number of rings (size 3 to 8) (size 9 to 14) (size 15 to 20)
#    0.000    1.500    3.333    2.000    0.000    2.333 
#    0.000    2.500    0.000    4.000    0.000    4.667 
#    0.000    0.000    0.000    0.000    0.000    0.000 
#
# Total GULP energy -535359.986211 kJ/mol
# GULP energy per Si atom -5576.666523 kJ/mol
# Density = 2.097618 g / cm^3
# Si number density = 21.024028 Si / 1000 Ang^3
#
#
#
# Elastic Constant Matrix: (Units=GPa)
#
#
# Indices 1 2 3 4 5 6 
#
# 1 68.6531 18.4564 15.5531 0.0000 0.0000 0.0000
# 2 18.4564 68.6527 15.5531 0.0000 0.0000 0.0000
# 3 15.5531 15.5531 97.5489 0.0000 0.0000 0.0000
# 4 0.0000 0.0000 0.0000 31.4436 0.0000 0.0000
# 5 0.0000 0.0000 0.0000 0.0000 31.4437 0.0000
# 6 0.0000 0.0000 0.0000 0.0000 0.0000 22.4023
#
#
#
# Elastic Compliance Matrix: (Units=1/GPa)
#
#
# Indices 1 2 3 4 5 6 
#
# 1 0.016047 -0.003874 -0.001941 0.000000 0.000000 0.000000
# 2 -0.003874 0.016047 -0.001941 0.000000 0.000000 0.000000
# 3 -0.001941 -0.001941 0.010870 0.000000 0.000000 0.000000
# 4 0.000000 0.000000 0.000000 0.031803 0.000000 0.000000
# 5 0.000000 0.000000 0.000000 0.000000 0.031803 0.000000
# 6 0.000000 0.000000 0.000000 0.000000 0.000000 0.044638
#
#
# Mechanical properties :
#
#
# Convention : Reuss Voigt Hill
#
# Bulk Modulus (GPa) = 36.42643 37.10889 36.76766
# Shear Modulus (GPa) = 28.42978 29.41073 28.92025
#
# Velocity S-wave (km/s) = 3.68129 3.74426 3.71291
# Velocity P-wave (km/s) = 5.95255 6.03172 5.99227
#
# Compressibility (1/GPa) = 0.02745260
#
# Stress axis : x y z
#
# Youngs Moduli (GPa) = 62.31598 62.31556 91.99501
#
# Poissons Ratio (x) = 0.24144 0.17855
# Poissons Ratio (y) = 0.24144 0.17855
# Poissons Ratio (z) = 0.12094 0.12094
#
# Static dielectric constant tensor:
#      x y z
#    x 1.807930 0.000000 0.000000 
#    y 0.000000 1.807930 0.000000 
#    z 0.000000 0.000000 1.758760 
# 
# From -- ./inp_files/5909.got.cif
#   From: 2010.05.17/outbox.cif.g08.bks.cpg/sg125_3_cif.got.tgz:5909.got - 2010.05.20 11:54:10.
