data_PCOD9563842
_publ_section_title
;
Structure prediction by ZEFSAII (Michael W. Deem and Ramdas Pophale) SiO2 
 PCOD9563842
Probable space group: P 4/M B M
;
_chemical_formula_sum "Si O2"
_cell_formula_units_Z 104
_cell_length_a 27.677740
_cell_length_b 27.677740
_cell_length_c 7.932273
_cell_angle_alpha 90.000000
_cell_angle_beta 90.000000
_cell_angle_gamma 90.000000
_cell_volume 6076.575570
_symmetry_space_group_name_H-M "P 4/M B M"
_symmetry_group_IT_number 127
_symmetry_cell_setting 'tetragonal'
loop_
_space_group_symop_operation_xyz
x,y,z
-y,x,z
-x,-y,z
y,-x,z
1/2+x,1/2-y,-z
1/2-x,1/2+y,-z
1/2+y,1/2+x,-z
1/2-y,1/2-x,-z
-x,-y,-z
y,-x,-z
x,y,-z
-y,x,-z
1/2-x,1/2+y,z
1/2+x,1/2-y,z
1/2-y,1/2-x,z
1/2+y,1/2+x,z
loop_
_atom_site_type_symbol
_atom_site_label
_atom_site_fract_x
_atom_site_fract_y
_atom_site_fract_z
Si Si1 0.366947 0.418898 0.704150
Si Si2 0.630267 0.793178 0.202347
Si Si3 0.501718 0.289471 0.700777
Si Si4 0.815570 0.476944 0.200423
Si Si5 0.566275 0.545108 0.000000
Si Si6 0.577382 0.999837 0.297056
Si Si7 0.187956 0.106221 0.701980
O O1 0.375690 0.424017 0.500000
O O2 0.320495 0.451562 0.751224
O O3 0.366506 0.361677 0.743080
O O4 0.408254 0.438379 0.827584
O O5 0.673712 0.826289 0.267794
O O6 0.578148 0.811517 0.268079
O O7 0.632704 0.736537 0.241030
O O8 0.629465 0.798037 0.000000
O O9 0.499276 0.294342 0.500000
O O10 0.504087 0.232740 0.741118
O O11 0.449635 0.309167 0.767955
O O12 0.867039 0.499007 0.246704
O O13 0.812922 0.474420 0.000000
O O14 0.512408 0.564908 0.000000
O O15 0.575686 0.999660 0.500000
O O16 0.547929 0.952072 0.238338
O O17 0.545966 0.045966 0.239006
O O18 0.189757 0.103111 0.500000
#
# Coordination Sequence:
#
# PCOD9563842 Si02
#       7
#    16  16  16  16   8  16  16
#     4  10  21  37  56  77 106 141 178 222 265 314
#     4   9  18  31  47  71 103 134 162 202 260 313
#     4   9  18  33  52  73  99 132 170 211 257 308
#     4  10  19  30  48  74 103 132 167 212 255 306
#     4  11  24  36  52  80 107 138 178 213 261 324
#     4   9  18  32  49  70  99 136 173 207 250 306
#     4   9  18  32  51  75  98 129 171 210 255 306
#
# _framework density 17.114902000000001
#
# number of rings (size 3 to 8) (size 9 to 14) (size 15 to 20)
#    0.000    2.538    0.000    2.308    2.154    4.000 
#    0.000    1.538    0.000    0.923    0.000    2.154 
#    0.000    0.000    0.000    0.000    0.000    0.000 
#
# Total GULP energy -579399.655163 kJ/mol
# GULP energy per Si atom -5571.150530 kJ/mol
# Density = 1.707595 g / cm^3
# Si number density = 17.114902 Si / 1000 Ang^3
#
#
#
# Elastic Constant Matrix: (Units=GPa)
#
#
# Indices 1 2 3 4 5 6 
#
# 1 96.7372 38.9451 6.6021 0.0000 0.0000 0.0000
# 2 38.9451 96.7372 6.6021 0.0000 0.0000 0.0000
# 3 6.6021 6.6021 15.1710 0.0000 0.0000 0.0000
# 4 0.0000 0.0000 0.0000 17.8114 0.0000 0.0000
# 5 0.0000 0.0000 0.0000 0.0000 17.8114 0.0000
# 6 0.0000 0.0000 0.0000 0.0000 0.0000 29.9997
#
#
#
# Elastic Compliance Matrix: (Units=1/GPa)
#
#
# Indices 1 2 3 4 5 6 
#
# 1 0.012500 -0.004804 -0.003349 0.000000 0.000000 0.000000
# 2 -0.004804 0.012500 -0.003349 0.000000 0.000000 0.000000
# 3 -0.003349 -0.003349 0.068830 0.000000 0.000000 0.000000
# 4 0.000000 0.000000 0.000000 0.056144 0.000000 0.000000
# 5 0.000000 0.000000 0.000000 0.000000 0.056144 0.000000
# 6 0.000000 0.000000 0.000000 0.000000 0.000000 0.033334
#
#
# Mechanical properties :
#
#
# Convention : Reuss Voigt Hill
#
# Bulk Modulus (GPa) = 14.11920 34.77155 24.44538
# Shear Modulus (GPa) = 17.47867 23.55760 20.51814
#
# Velocity S-wave (km/s) = 3.19917 3.71406 3.46619
# Velocity P-wave (km/s) = 4.68122 6.22519 5.50758
#
# Compressibility (1/GPa) = 0.07082553
#
# Stress axis : x y z
#
# Youngs Moduli (GPa) = 80.00167 80.00167 14.52855
#
# Poissons Ratio (x) = 0.38430 0.04866
# Poissons Ratio (y) = 0.38430 0.04866
# Poissons Ratio (z) = 0.26794 0.26794
#
# Static dielectric constant tensor:
#      x y z
#    x 1.584260 0.000000 0.000000 
#    y 0.000000 1.584260 0.000000 
#    z 0.000000 0.000000 1.610600 
# 
# From -- ./inp_files/2326.got.cif
#   From: 2010.05.17/outbox.cif.g08.bks.cpg/sg127_2_cif.got.tgz:2326.got - 2010.05.20 12:03:00.
