data_PCOD9563286
_publ_section_title
;
Structure prediction by ZEFSAII (Michael W. Deem and Ramdas Pophale) SiO2 
 PCOD9563286
Probable space group: P 4/N N C
;
_chemical_formula_sum "Si O2"
_cell_formula_units_Z 84
_cell_length_a 14.529609
_cell_length_b 14.529609
_cell_length_c 19.714175
_cell_angle_alpha 90.000000
_cell_angle_beta 90.000000
_cell_angle_gamma 90.000000
_cell_volume 4161.850370
_symmetry_space_group_name_H-M "P 4/N N C"
_symmetry_group_IT_number 126
_space_group.IT_coordinate_system_code '2'
_symmetry_cell_setting 'tetragonal'
loop_
_space_group_symop_operation_xyz
x,y,z
1/2-y,x,z
1/2-x,1/2-y,z
y,1/2-x,z
x,1/2-y,1/2-z
1/2-x,y,1/2-z
y,x,1/2-z
1/2-y,1/2-x,1/2-z
-x,-y,-z
1/2+y,-x,-z
1/2+x,1/2+y,-z
-y,1/2+x,-z
-x,1/2+y,1/2+z
1/2+x,-y,1/2+z
-y,-x,1/2+z
1/2+y,1/2+x,1/2+z
loop_
_atom_site_type_symbol
_atom_site_label
_atom_site_fract_x
_atom_site_fract_y
_atom_site_fract_z
Si Si1 0.750000 0.539463 0.831215
Si Si2 0.416320 0.928173 0.825094
Si Si3 0.006818 0.646111 0.036227
Si Si4 0.646111 0.493182 0.463772
Si Si5 0.428173 0.916321 0.174906
Si Si6 0.750000 0.750000 0.624706
O O1 0.750000 0.563188 0.750000
O O2 0.661438 0.476064 0.843768
O O3 0.838562 0.476065 0.843768
O O4 0.749999 0.635865 0.869428
O O5 0.351662 0.959535 0.885719
O O6 0.375167 0.913889 0.750000
O O7 0.490397 0.009602 0.820306
O O8 0.998678 0.750000 0.010086
O O9 0.040465 0.648338 0.114281
O O10 0.911916 0.588084 0.030938
O O11 0.084240 0.584240 1.000000
#
# Coordination Sequence:
#
# PCOD9563286 Si02
#       6
#    16  16  16  16  16   4
#     4  10  17  26  45  78 119 159 199 243 290 348
#     4   9  18  33  54  82 119 156 193 244 300 350
#     4  10  23  43  66  89 119 156 198 245 298 360
#     4  10  23  43  66  89 119 156 198 245 298 360
#     4   9  18  33  54  82 119 156 193 244 300 350
#     4  12  17  24  48  84 124 168 212 248 301 366
#
# _framework density 20.183329000000001
#
# number of rings (size 3 to 8) (size 9 to 14) (size 15 to 20)
#    0.000    2.286    1.905    0.857    2.667    1.524 
#    0.000    0.000    0.000    3.429    0.000    5.333 
#    0.000    0.000    0.000    0.000    0.000    0.000 
#
# Total GULP energy -467750.573202 kJ/mol
# GULP energy per Si atom -5568.459205 kJ/mol
# Density = 2.013739 g / cm^3
# Si number density = 20.183329 Si / 1000 Ang^3
#
#
#
# Elastic Constant Matrix: (Units=GPa)
#
#
# Indices 1 2 3 4 5 6 
#
# 1 118.8377 58.8976 34.4134 0.0000 0.0000 0.0000
# 2 58.8976 118.8377 34.4134 0.0000 0.0000 0.0000
# 3 34.4134 34.4134 57.9498 0.0000 0.0000 0.0000
# 4 0.0000 0.0000 0.0000 15.9833 0.0000 0.0000
# 5 0.0000 0.0000 0.0000 0.0000 15.9833 0.0000
# 6 0.0000 0.0000 0.0000 0.0000 0.0000 -39.3574
#
#
#
# Elastic Compliance Matrix: (Units=1/GPa)
#
#
# Indices 1 2 3 4 5 6 
#
# 1 0.011995 -0.004688 -0.004339 0.000000 0.000000 0.000000
# 2 -0.004688 0.011995 -0.004339 0.000000 0.000000 0.000000
# 3 -0.004339 -0.004339 0.022410 0.000000 0.000000 0.000000
# 4 0.000000 0.000000 0.000000 0.062565 0.000000 0.000000
# 5 0.000000 0.000000 0.000000 0.000000 0.062565 0.000000
# 6 0.000000 0.000000 0.000000 0.000000 0.000000 -0.025408
#
#
# Mechanical properties :
#
#
# Convention : Reuss Voigt Hill
#
# Bulk Modulus (GPa) = 50.84688 61.23045 56.03866
# Shear Modulus (GPa) = 27.86900 9.71520 18.79210
#
# Velocity S-wave (km/s) = 3.71993 2.19634 3.05465
# Velocity P-wave (km/s) = 6.61043 6.06918 6.34557
#
# Compressibility (1/GPa) = 0.01966689
#
# Stress axis : x y z
#
# Youngs Moduli (GPa) = 83.36832 83.36832 44.62338
#
# Poissons Ratio (x) = 0.39086 0.19362
# Poissons Ratio (y) = 0.39086 0.19362
# Poissons Ratio (z) = 0.36174 0.36174
#
# Static dielectric constant tensor:
#      x y z
#    x 1.671940 0.000000 0.000000 
#    y 0.000000 1.671940 0.000000 
#    z 0.000000 0.000000 1.853900 
# 
# From -- ./inp_files/5173.got.cif
#   From: 2010.05.17/outbox.cif.g08.bks.cpg/sg126_3_cif.got.tgz:5173.got - 2010.05.20 11:58:20.
