data_PCOD9563077
_publ_section_title
;
Structure prediction by ZEFSAII (Michael W. Deem and Ramdas Pophale) SiO2 
 PCOD9563077
Probable space group: P 4/N B M
;
_chemical_formula_sum "Si O2"
_cell_formula_units_Z 64
_cell_length_a 13.759886
_cell_length_b 13.759886
_cell_length_c 19.069185
_cell_angle_alpha 90.000000
_cell_angle_beta 90.000000
_cell_angle_gamma 90.000000
_cell_volume 3610.453897
_symmetry_space_group_name_H-M "P 4/N B M"
_symmetry_group_IT_number 125
_space_group.IT_coordinate_system_code '2'
_symmetry_cell_setting 'tetragonal'
loop_
_space_group_symop_operation_xyz
x,y,z
1/2-y,x,z
1/2-x,1/2-y,z
y,1/2-x,z
x,1/2-y,-z
1/2-x,y,-z
y,x,-z
1/2-y,1/2-x,-z
-x,-y,-z
1/2+y,-x,-z
1/2+x,1/2+y,-z
-y,1/2+x,-z
-x,1/2+y,z
1/2+x,-y,z
-y,-x,z
1/2+y,1/2+x,z
loop_
_atom_site_type_symbol
_atom_site_label
_atom_site_fract_x
_atom_site_fract_y
_atom_site_fract_z
Si Si1 0.991394 0.849721 0.042044
Si Si2 0.414080 0.236669 0.577000
Si Si3 0.163551 0.001337 0.718046
Si Si4 0.142729 0.021936 0.203035
O O1 0.094413 0.905588 0.045271
O O2 0.952307 0.842088 0.121532
O O3 0.999922 0.750000 0.000000
O O4 0.918516 0.918516 0.000000
O O5 0.350136 0.334709 0.581389
O O6 0.461087 0.250000 0.500000
O O7 0.482685 0.210940 0.641505
O O8 0.107996 0.097083 0.748982
O O9 0.254946 0.985271 0.768165
O O10 0.085517 0.914484 0.717793
O O11 0.062994 0.937007 0.206109
#
# Coordination Sequence:
#
# PCOD9563077 Si02
#       4
#    16  16  16  16
#     4  10  21  38  57  80 111 146 188 237 286 343
#     4   9  17  33  57  83 112 141 183 233 279 327
#     4  11  21  36  58  84 115 153 190 233 283 336
#     4  10  22  37  56  83 112 147 190 233 288 345
#
# _framework density 17.726303999999999
#
# number of rings (size 3 to 8) (size 9 to 14) (size 15 to 20)
#    0.000    2.000    2.500    2.250    0.000    4.500 
#    0.000    8.750    0.000    0.000    0.000    0.000 
#    0.000    0.000    0.000    0.000    0.000    0.000 
#
# Total GULP energy -356539.557375 kJ/mol
# GULP energy per Si atom -5570.930584 kJ/mol
# Density = 1.768596 g / cm^3
# Si number density = 17.726304 Si / 1000 Ang^3
#
#
#
# Elastic Constant Matrix: (Units=GPa)
#
#
# Indices 1 2 3 4 5 6 
#
# 1 58.6727 -7.1183 43.7153 0.0000 0.0000 0.0000
# 2 -7.1183 58.6727 43.7153 0.0000 0.0000 0.0000
# 3 43.7153 43.7153 172.5844 0.0000 0.0000 0.0000
# 4 0.0000 0.0000 0.0000 23.7838 0.0000 0.0000
# 5 0.0000 0.0000 0.0000 0.0000 23.7838 0.0000
# 6 0.0000 0.0000 0.0000 0.0000 0.0000 5.4356
#
#
#
# Elastic Compliance Matrix: (Units=1/GPa)
#
#
# Indices 1 2 3 4 5 6 
#
# 1 0.024602 0.009402 -0.008613 0.000000 0.000000 0.000000
# 2 0.009402 0.024602 -0.008613 0.000000 0.000000 0.000000
# 3 -0.008613 -0.008613 0.010158 0.000000 0.000000 0.000000
# 4 0.000000 0.000000 0.000000 0.042045 0.000000 0.000000
# 5 0.000000 0.000000 0.000000 0.000000 0.042045 0.000000
# 6 0.000000 0.000000 0.000000 0.000000 0.000000 0.183972
#
#
# Mechanical properties :
#
#
# Convention : Reuss Voigt Hill
#
# Bulk Modulus (GPa) = 22.87648 50.06161 36.46904
# Shear Modulus (GPa) = 13.98041 24.57513 19.27777
#
# Velocity S-wave (km/s) = 2.81139 3.72743 3.30134
# Velocity P-wave (km/s) = 4.84479 6.84308 5.92873
#
# Compressibility (1/GPa) = 0.04371302
#
# Stress axis : x y z
#
# Youngs Moduli (GPa) = 40.64740 40.64740 98.44789
#
# Poissons Ratio (x) = -0.38217 0.84795
# Poissons Ratio (y) = -0.38217 0.84795
# Poissons Ratio (z) = 0.35010 0.35010
#
# Static dielectric constant tensor:
#      x y z
#    x 1.586690 0.000000 0.000000 
#    y 0.000000 1.586690 0.000000 
#    z 0.000000 0.000000 1.657600 
# 
# From -- ./inp_files/5259.got.cif
#   From: 2010.05.17/outbox.cif.g08.bks.cpg/sg125_3_cif.got.tgz:5259.got - 2010.05.20 11:54:10.
