data_PCOD9563909
_publ_section_title
;
Structure prediction by ZEFSAII (Michael W. Deem and Ramdas Pophale) SiO2 
 PCOD9563909
Probable space group: P 4/M B M
;
_chemical_formula_sum "Si O2"
_cell_formula_units_Z 88
_cell_length_a 17.457848
_cell_length_b 17.457848
_cell_length_c 14.383557
_cell_angle_alpha 90.000000
_cell_angle_beta 90.000000
_cell_angle_gamma 90.000000
_cell_volume 4383.769539
_symmetry_space_group_name_H-M "P 4/M B M"
_symmetry_group_IT_number 127
_symmetry_cell_setting 'tetragonal'
loop_
_space_group_symop_operation_xyz
x,y,z
-y,x,z
-x,-y,z
y,-x,z
1/2+x,1/2-y,-z
1/2-x,1/2+y,-z
1/2+y,1/2+x,-z
1/2-y,1/2-x,-z
-x,-y,-z
y,-x,-z
x,y,-z
-y,x,-z
1/2-x,1/2+y,z
1/2+x,1/2-y,z
1/2-y,1/2-x,z
1/2+y,1/2+x,z
loop_
_atom_site_type_symbol
_atom_site_label
_atom_site_fract_x
_atom_site_fract_y
_atom_site_fract_z
Si Si1 0.889340 0.949317 0.387160
Si Si2 0.874251 0.504116 0.000000
Si Si3 0.682248 0.313433 0.106763
Si Si4 0.591191 0.217843 0.251875
Si Si5 0.197954 0.567902 0.818480
Si Si6 0.692759 0.309088 0.388698
O O1 0.890035 0.953488 0.500000
O O2 0.819073 0.896482 0.360511
O O3 0.964645 0.902093 0.355761
O O4 0.826957 0.481638 0.090641
O O5 0.910965 0.589036 0.000000
O O6 0.944764 0.444764 0.000000
O O7 0.747546 0.247546 0.103963
O O8 0.615922 0.277541 0.170466
O O9 0.725683 0.385294 0.153533
O O10 0.659565 0.329465 0.000000
O O11 0.638771 0.138771 0.236367
O O12 0.500574 0.206287 0.255248
O O13 0.627809 0.256104 0.343633
O O14 0.130183 0.630183 0.800774
O O15 0.687479 0.305014 0.500000
O O16 0.772562 0.272562 0.357384
#
# Coordination Sequence:
#
# PCOD9563909 Si02
#       6
#    16   8  16  16  16  16
#     4   8  14  26  47  73  96 120 156 208 266 311
#     4   9  16  26  44  72 100 125 159 205 252 291
#     4   9  18  33  50  71 104 139 168 202 255 319
#     4  10  21  33  51  78 102 134 178 219 262 312
#     4  10  19  33  52  75 105 138 171 214 265 310
#     4   9  18  33  50  70 101 137 173 216 266 321
#
# _framework density 20.074048000000001
#
# number of rings (size 3 to 8) (size 9 to 14) (size 15 to 20)
#    0.000    2.818    0.909    1.091    1.273    2.545 
#    0.000    0.000    0.000    1.091    0.000    3.818 
#    0.000    0.000    0.000    0.000    0.000    0.000 
#
# Total GULP energy -490595.596935 kJ/mol
# GULP energy per Si atom -5574.949965 kJ/mol
# Density = 2.002836 g / cm^3
# Si number density = 20.074048 Si / 1000 Ang^3
#
#
#
# Elastic Constant Matrix: (Units=GPa)
#
#
# Indices 1 2 3 4 5 6 
#
# 1 86.1582 61.6749 18.1375 0.0000 0.0000 0.0000
# 2 61.6749 86.1579 18.1375 0.0000 0.0000 0.0000
# 3 18.1375 18.1375 57.2474 0.0000 0.0000 0.0000
# 4 0.0000 0.0000 0.0000 14.7993 0.0000 0.0000
# 5 0.0000 0.0000 0.0000 0.0000 14.7994 0.0000
# 6 0.0000 0.0000 0.0000 0.0000 0.0000 38.9649
#
#
#
# Elastic Compliance Matrix: (Units=1/GPa)
#
#
# Indices 1 2 3 4 5 6 
#
# 1 0.024089 -0.016755 -0.002324 0.000000 0.000000 0.000000
# 2 -0.016755 0.024090 -0.002324 0.000000 0.000000 0.000000
# 3 -0.002324 -0.002324 0.018941 0.000000 0.000000 0.000000
# 4 0.000000 0.000000 0.000000 0.067571 0.000000 0.000000
# 5 0.000000 0.000000 0.000000 0.000000 0.067570 0.000000
# 6 0.000000 0.000000 0.000000 0.000000 0.000000 0.025664
#
#
# Mechanical properties :
#
#
# Convention : Reuss Voigt Hill
#
# Bulk Modulus (GPa) = 41.12768 47.27373 44.20070
# Shear Modulus (GPa) = 17.93174 22.48693 20.20934
#
# Velocity S-wave (km/s) = 2.99202 3.35057 3.17636
# Velocity P-wave (km/s) = 5.69813 6.21041 5.95978
#
# Compressibility (1/GPa) = 0.02431452
#
# Stress axis : x y z
#
# Youngs Moduli (GPa) = 41.51187 41.51173 52.79684
#
# Poissons Ratio (x) = 0.69553 0.12269
# Poissons Ratio (y) = 0.69553 0.12269
# Poissons Ratio (z) = 0.09647 0.09647
#
# Static dielectric constant tensor:
#      x y z
#    x 1.727050 0.000000 0.000000 
#    y 0.000000 1.727050 0.000000 
#    z 0.000000 0.000000 1.753810 
# 
# From -- ./inp_files/4415.got.cif
#   From: 2010.05.17/outbox.cif.g08.bks.cpg/sg127_3_cif.got.tgz:4415.got - 2010.05.20 12:03:00.
