data_PCOD9563237
_publ_section_title
;
Structure prediction by ZEFSAII (Michael W. Deem and Ramdas Pophale) SiO2 
 PCOD9563237
Probable space group: P 4/N B M
;
_chemical_formula_sum "Si O2"
_cell_formula_units_Z 80
_cell_length_a 12.977075
_cell_length_b 12.977075
_cell_length_c 25.691808
_cell_angle_alpha 90.000000
_cell_angle_beta 90.000000
_cell_angle_gamma 90.000000
_cell_volume 4326.615452
_symmetry_space_group_name_H-M "P 4/N B M"
_symmetry_group_IT_number 125
_space_group.IT_coordinate_system_code '2'
_symmetry_cell_setting 'tetragonal'
loop_
_space_group_symop_operation_xyz
x,y,z
1/2-y,x,z
1/2-x,1/2-y,z
y,1/2-x,z
x,1/2-y,-z
1/2-x,y,-z
y,x,-z
1/2-y,1/2-x,-z
-x,-y,-z
1/2+y,-x,-z
1/2+x,1/2+y,-z
-y,1/2+x,-z
-x,1/2+y,z
1/2+x,-y,z
-y,-x,z
1/2+y,1/2+x,z
loop_
_atom_site_type_symbol
_atom_site_label
_atom_site_fract_x
_atom_site_fract_y
_atom_site_fract_z
Si Si1 0.739577 0.575643 0.670101
Si Si2 0.074937 0.246592 0.555865
Si Si3 0.157594 0.014713 0.965708
Si Si4 0.751143 0.418852 0.235501
Si Si5 0.917773 0.780274 0.851176
O O1 0.842875 0.645478 0.673867
O O2 0.741371 0.523942 0.612549
O O3 0.732924 0.495360 0.716396
O O4 0.153474 0.149611 0.555744
O O5 0.018237 0.250000 0.500000
O O6 0.203921 0.052952 0.911329
O O7 0.250000 0.969495 0.000000
O O8 0.106384 0.106384 0.000000
O O9 0.068409 0.931592 0.955910
O O10 0.663724 0.336277 0.249088
O O11 0.854746 0.354746 0.223552
O O12 0.713803 0.484732 0.186158
O O13 0.830258 0.865262 0.840616
#
# Coordination Sequence:
#
# PCOD9563237 Si02
#       5
#    16  16  16  16  16
#     4   9  17  31  54  83 111 141 185 234 282 340
#     4   7  10  19  40  73 109 139 170 220 283 337
#     4  11  23  40  64  92 123 157 189 226 275 327
#     4  11  25  41  55  76 111 152 191 233 282 336
#     4  11  23  40  66  91 113 143 184 232 278 330
#
# _framework density 18.490203999999999
#
# number of rings (size 3 to 8) (size 9 to 14) (size 15 to 20)
#    0.000    2.200    2.000    3.600    0.000    6.800 
#    0.000    0.000    0.000    1.200    0.000    7.000 
#    0.000    0.000    0.000    0.000    0.000    0.000 
#
# Total GULP energy -445964.196472 kJ/mol
# GULP energy per Si atom -5574.552456 kJ/mol
# Density = 1.844812 g / cm^3
# Si number density = 18.490204 Si / 1000 Ang^3
#
#
#
# Elastic Constant Matrix: (Units=GPa)
#
#
# Indices 1 2 3 4 5 6 
#
# 1 60.8430 20.0965 34.2866 0.0000 0.0000 0.0000
# 2 20.0965 60.8430 34.2866 0.0000 0.0000 0.0000
# 3 34.2866 34.2866 117.9419 0.0000 0.0000 0.0000
# 4 0.0000 0.0000 0.0000 0.6955 0.0000 0.0000
# 5 0.0000 0.0000 0.0000 0.0000 0.6955 0.0000
# 6 0.0000 0.0000 0.0000 0.0000 0.0000 2.8789
#
#
#
# Elastic Compliance Matrix: (Units=1/GPa)
#
#
# Indices 1 2 3 4 5 6 
#
# 1 0.020467 -0.004075 -0.004765 0.000000 0.000000 0.000000
# 2 -0.004075 0.020467 -0.004765 0.000000 0.000000 0.000000
# 3 -0.004765 -0.004765 0.011249 0.000000 0.000000 0.000000
# 4 0.000000 0.000000 0.000000 1.437760 0.000000 0.000000
# 5 0.000000 0.000000 0.000000 0.000000 1.437760 0.000000
# 6 0.000000 0.000000 0.000000 0.000000 0.000000 0.347357
#
#
# Mechanical properties :
#
#
# Convention : Reuss Voigt Hill
#
# Bulk Modulus (GPa) = 40.04417 46.32970 43.18693
# Shear Modulus (GPa) = 1.51030 10.91786 6.21408
#
# Velocity S-wave (km/s) = 0.90476 2.43259 1.83522
# Velocity P-wave (km/s) = 4.77446 5.74463 5.28186
#
# Compressibility (1/GPa) = 0.02497243
#
# Stress axis : x y z
#
# Youngs Moduli (GPa) = 48.85892 48.85892 88.89364
#
# Poissons Ratio (x) = 0.19909 0.42361
# Poissons Ratio (y) = 0.19909 0.42361
# Poissons Ratio (z) = 0.23283 0.23283
#
# Static dielectric constant tensor:
#      x y z
#    x 1.629690 0.000000 0.000000 
#    y 0.000000 1.629690 0.000000 
#    z 0.000000 0.000000 1.666580 
# 
# From -- ./inp_files/6488.got.cif
#   From: 2010.05.17/outbox.cif.g08.bks.cpg/sg125_4_cif.got.tgz:6488.got - 2010.05.20 11:54:10.
