data_PCOD9563464
_publ_section_title
;
Structure prediction by ZEFSAII (Michael W. Deem and Ramdas Pophale) SiO2 
 PCOD9563464
Probable space group: P 4/N N C
;
_chemical_formula_sum "Si O2"
_cell_formula_units_Z 48
_cell_length_a 16.672541
_cell_length_b 16.672541
_cell_length_c 8.551556
_cell_angle_alpha 90.000000
_cell_angle_beta 90.000000
_cell_angle_gamma 90.000000
_cell_volume 2377.107007
_symmetry_space_group_name_H-M "P 4/N N C"
_symmetry_group_IT_number 126
_space_group.IT_coordinate_system_code '2'
_symmetry_cell_setting 'tetragonal'
loop_
_space_group_symop_operation_xyz
x,y,z
1/2-y,x,z
1/2-x,1/2-y,z
y,1/2-x,z
x,1/2-y,1/2-z
1/2-x,y,1/2-z
y,x,1/2-z
1/2-y,1/2-x,1/2-z
-x,-y,-z
1/2+y,-x,-z
1/2+x,1/2+y,-z
-y,1/2+x,-z
-x,1/2+y,1/2+z
1/2+x,-y,1/2+z
-y,-x,1/2+z
1/2+y,1/2+x,1/2+z
loop_
_atom_site_type_symbol
_atom_site_label
_atom_site_fract_x
_atom_site_fract_y
_atom_site_fract_z
Si Si1 0.130366 0.014928 0.465659
Si Si2 0.376205 0.736344 0.061552
Si Si3 0.016670 0.016670 0.750000
Si Si4 0.343722 0.156279 0.250000
O O1 0.209918 0.961097 0.485001
O O2 0.066078 0.976340 0.346476
O O3 0.089825 0.017094 0.632976
O O4 0.131852 0.105080 0.400209
O O5 0.380758 0.750000 0.250000
O O6 0.314065 0.663693 0.021003
O O7 0.358582 0.250000 0.250000
#
# Coordination Sequence:
#
# PCOD9563464 Si02
#       4
#    16  16   8   8
#     4  10  21  39  62  85 122 159 198 256 309 361
#     4  11  23  37  58  92 131 168 207 250 310 390
#     4   9  20  37  60  94 116 153 214 249 298 382
#     4  10  24  43  62  84 110 151 204 254 306 362
#
# _framework density 20.192613000000001
#
# number of rings (size 3 to 8) (size 9 to 14) (size 15 to 20)
#    0.000    1.833    0.000    4.000    0.000   13.333 
#    0.000    0.000    0.000    2.000    0.000    0.000 
#    0.000    0.000    0.000    0.000    0.000    0.000 
#
# Total GULP energy -267675.583714 kJ/mol
# GULP energy per Si atom -5576.574661 kJ/mol
# Density = 2.014665 g / cm^3
# Si number density = 20.192613 Si / 1000 Ang^3
#
#
#
# Elastic Constant Matrix: (Units=GPa)
#
#
# Indices 1 2 3 4 5 6 
#
# 1 81.6733 14.1901 31.5868 0.0000 0.0000 0.0000
# 2 14.1901 81.6744 31.5871 0.0000 0.0000 0.0000
# 3 31.5868 31.5871 94.3611 0.0000 0.0000 0.0000
# 4 0.0000 0.0000 0.0000 -4.7054 0.0000 0.0000
# 5 0.0000 0.0000 0.0000 0.0000 -4.7102 0.0000
# 6 0.0000 0.0000 0.0000 0.0000 0.0000 7.7842
#
#
#
# Elastic Compliance Matrix: (Units=1/GPa)
#
#
# Indices 1 2 3 4 5 6 
#
# 1 0.014101 -0.000717 -0.004480 0.000000 0.000000 0.000000
# 2 -0.000717 0.014101 -0.004480 0.000000 0.000000 0.000000
# 3 -0.004480 -0.004480 0.013597 0.000000 0.000000 0.000000
# 4 0.000000 0.000000 0.000000 -0.212520 0.000000 0.000000
# 5 0.000000 0.000000 0.000000 0.000000 -0.212303 0.000000
# 6 0.000000 0.000000 0.000000 0.000000 0.000000 0.128465
#
#
# Mechanical properties :
#
#
# Convention : Reuss Voigt Hill
#
# Bulk Modulus (GPa) = 44.55531 45.82632 45.19081
# Shear Modulus (GPa) = -21.95649 11.69670 -5.12989
#
# Velocity S-wave (km/s) = -3.30108 2.40939 -1.59562
# Velocity P-wave (km/s) = 2.75382 5.52124 4.36277
#
# Compressibility (1/GPa) = 0.02244401
#
# Stress axis : x y z
#
# Youngs Moduli (GPa) = 70.91587 70.91677 73.54546
#
# Poissons Ratio (x) = 0.05087 0.32950
# Poissons Ratio (y) = 0.05086 0.32950
# Poissons Ratio (z) = 0.31772 0.31772
#
# Static dielectric constant tensor:
#      x y z
#    x 1.769200 0.000000 0.000000 
#    y 0.000000 1.769200 0.000000 
#    z 0.000000 0.000000 1.614950 
# 
# From -- ./inp_files/1132.got.cif
#   From: 2010.05.17/outbox.cif.g08.bks.cpg/sg126_1_cif.got.tgz:1132.got - 2010.05.20 11:58:20.
