data_PCOD9563381
_publ_section_title
;
Structure prediction by ZEFSAII (Michael W. Deem and Ramdas Pophale) SiO2 
 PCOD9563381
Probable space group: P 4/N N C
;
_chemical_formula_sum "Si O2"
_cell_formula_units_Z 96
_cell_length_a 25.624166
_cell_length_b 25.624166
_cell_length_c 8.969315
_cell_angle_alpha 90.000000
_cell_angle_beta 90.000000
_cell_angle_gamma 90.000000
_cell_volume 5889.233243
_symmetry_space_group_name_H-M "P 4/N N C"
_symmetry_group_IT_number 126
_space_group.IT_coordinate_system_code '2'
_symmetry_cell_setting 'tetragonal'
loop_
_space_group_symop_operation_xyz
x,y,z
1/2-y,x,z
1/2-x,1/2-y,z
y,1/2-x,z
x,1/2-y,1/2-z
1/2-x,y,1/2-z
y,x,1/2-z
1/2-y,1/2-x,1/2-z
-x,-y,-z
1/2+y,-x,-z
1/2+x,1/2+y,-z
-y,1/2+x,-z
-x,1/2+y,1/2+z
1/2+x,-y,1/2+z
-y,-x,1/2+z
1/2+y,1/2+x,1/2+z
loop_
_atom_site_type_symbol
_atom_site_label
_atom_site_fract_x
_atom_site_fract_y
_atom_site_fract_z
Si Si1 0.871358 0.380289 0.558233
Si Si2 0.493263 0.855557 0.067219
Si Si3 0.541710 0.960420 0.572110
Si Si4 0.755611 0.488081 0.919449
Si Si5 0.296330 0.626200 0.336266
Si Si6 0.004227 0.639465 0.413843
O O1 0.865627 0.431651 0.458104
O O2 0.849588 0.329725 0.470123
O O3 0.839922 0.388621 0.711660
O O4 0.933161 0.371008 0.578765
O O5 0.508539 0.860354 0.239359
O O6 0.522771 0.900352 0.975741
O O7 0.500404 0.797404 0.005219
O O8 0.537475 0.962526 0.750000
O O9 0.525645 0.904883 0.504834
O O10 0.500000 0.000000 0.500000
O O11 0.750000 0.507578 0.750000
O O12 0.767709 0.425698 0.901059
O O13 0.805436 0.507779 0.009356
O O14 0.250000 0.655892 0.250000
#
# Coordination Sequence:
#
# PCOD9563381 Si02
#       6
#    16  16  16  16  16  16
#     4  11  20  32  53  76 101 131 179 224 275 332
#     4  12  21  36  54  81 109 142 186 226 275 336
#     4  12  25  35  52  79 118 150 180 225 287 346
#     4  10  20  35  57  77 107 139 187 229 270 334
#     4  10  20  35  52  77  96 134 177 232 281 332
#     4  11  23  36  54  81 109 146 184 228 279 336
#
# _framework density 16.300934000000002
#
# number of rings (size 3 to 8) (size 9 to 14) (size 15 to 20)
#    0.000    1.000    6.667    3.000    2.333    0.000 
#    0.000    0.833    0.000    1.500    0.000    0.000 
#    0.000    0.667    0.000    6.667    0.000    4.000 
#
# Total GULP energy -535594.981974 kJ/mol
# GULP energy per Si atom -5579.114396 kJ/mol
# Density = 1.626383 g / cm^3
# Si number density = 16.300934 Si / 1000 Ang^3
#
#
#
# Elastic Constant Matrix: (Units=GPa)
#
#
# Indices 1 2 3 4 5 6 
#
# 1 90.8286 50.9789 48.7222 0.0000 0.0000 0.0000
# 2 50.9789 90.8276 48.7215 0.0000 0.0000 0.0000
# 3 48.7222 48.7215 146.4940 0.0000 0.0000 0.0000
# 4 0.0000 0.0000 0.0000 27.2091 0.0000 0.0000
# 5 0.0000 0.0000 0.0000 0.0000 27.2094 0.0000
# 6 0.0000 0.0000 0.0000 0.0000 0.0000 11.4808
#
#
#
# Elastic Compliance Matrix: (Units=1/GPa)
#
#
# Indices 1 2 3 4 5 6 
#
# 1 0.017118 -0.007977 -0.003040 0.000000 0.000000 0.000000
# 2 -0.007977 0.017118 -0.003040 0.000000 0.000000 0.000000
# 3 -0.003040 -0.003040 0.008848 0.000000 0.000000 0.000000
# 4 0.000000 0.000000 0.000000 0.036752 0.000000 0.000000
# 5 0.000000 0.000000 0.000000 0.000000 0.036752 0.000000
# 6 0.000000 0.000000 0.000000 0.000000 0.000000 0.087102
#
#
# Mechanical properties :
#
#
# Convention : Reuss Voigt Hill
#
# Bulk Modulus (GPa) = 66.80170 69.44392 68.12281
# Shear Modulus (GPa) = 21.11536 25.16170 23.13853
#
# Velocity S-wave (km/s) = 3.60300 3.93310 3.77166
# Velocity P-wave (km/s) = 7.64055 7.95735 7.80056
#
# Compressibility (1/GPa) = 0.01496968
#
# Stress axis : x y z
#
# Youngs Moduli (GPa) = 58.41915 58.41873 113.01447
#
# Poissons Ratio (x) = 0.46600 0.34358
# Poissons Ratio (y) = 0.46600 0.34357
# Poissons Ratio (z) = 0.17760 0.17760
#
# Static dielectric constant tensor:
#      x y z
#    x 1.545930 0.000000 0.000000 
#    y 0.000000 1.545930 0.000000 
#    z 0.000000 0.000000 1.583750 
# 
# From -- ./inp_files/1723.got.cif
#   From: 2010.05.17/outbox.cif.g08.bks.cpg/sg126_1_cif.got.tgz:1723.got - 2010.05.20 11:58:20.
