data_PCOD9563260
_publ_section_title
;
Structure prediction by ZEFSAII (Michael W. Deem and Ramdas Pophale) SiO2 
 PCOD9563260
Probable space group: P 4/N B M
;
_chemical_formula_sum "Si O2"
_cell_formula_units_Z 72
_cell_length_a 18.950065
_cell_length_b 18.950065
_cell_length_c 11.746229
_cell_angle_alpha 90.000000
_cell_angle_beta 90.000000
_cell_angle_gamma 90.000000
_cell_volume 4218.129136
_symmetry_space_group_name_H-M "P 4/N B M"
_symmetry_group_IT_number 125
_space_group.IT_coordinate_system_code '2'
_symmetry_cell_setting 'tetragonal'
loop_
_space_group_symop_operation_xyz
x,y,z
1/2-y,x,z
1/2-x,1/2-y,z
y,1/2-x,z
x,1/2-y,-z
1/2-x,y,-z
y,x,-z
1/2-y,1/2-x,-z
-x,-y,-z
1/2+y,-x,-z
1/2+x,1/2+y,-z
-y,1/2+x,-z
-x,1/2+y,z
1/2+x,-y,z
-y,-x,z
1/2+y,1/2+x,z
loop_
_atom_site_type_symbol
_atom_site_label
_atom_site_fract_x
_atom_site_fract_y
_atom_site_fract_z
Si Si1 0.250000 0.521304 0.287841
Si Si2 0.883470 0.503400 0.868652
Si Si3 0.883470 0.503400 0.131348
Si Si4 0.861216 0.750000 0.635941
Si Si5 0.250000 0.629891 0.500000
O O1 0.180231 0.522067 0.209797
O O2 0.319769 0.522067 0.209797
O O3 0.250000 0.442668 0.337976
O O4 0.250000 0.579824 0.387669
O O5 0.942845 0.442845 0.867818
O O6 0.924864 0.575136 0.832937
O O7 0.860153 0.513034 0.000000
O O8 0.942845 0.442845 0.132182
O O9 0.818268 0.818268 0.678771
O O10 0.855170 0.750000 0.500000
O O11 0.181551 0.681551 0.500000
#
# Coordination Sequence:
#
# PCOD9563260 Si02
#       5
#    16  16  16  16   8
#     4  12  19  34  57  80  98 141 185 212 253 317
#     4   9  19  35  54  79 109 136 168 217 269 313
#     4   9  19  35  54  79 109 136 168 217 269 313
#     4   9  18  32  49  74 108 138 164 199 245 297
#     4  11  26  42  52  71 106 140 178 235 282 304
#
# _framework density 17.069178999999998
#
# number of rings (size 3 to 8) (size 9 to 14) (size 15 to 20)
#    0.000    2.111    1.111    5.333    0.000    0.000 
#    0.000    0.000    0.000    5.333    0.000   18.667 
#    0.000    0.000    0.000    0.000    0.000    0.000 
#
# Total GULP energy -401075.121604 kJ/mol
# GULP energy per Si atom -5570.487800 kJ/mol
# Density = 1.703033 g / cm^3
# Si number density = 17.069179 Si / 1000 Ang^3
#
#
#
# Elastic Constant Matrix: (Units=GPa)
#
#
# Indices 1 2 3 4 5 6 
#
# 1 127.0575 51.0097 63.8631 0.0000 0.0000 0.0000
# 2 51.0097 127.0575 63.8631 0.0000 0.0000 0.0000
# 3 63.8631 63.8631 99.1021 0.0000 0.0000 0.0000
# 4 0.0000 0.0000 0.0000 -36.3786 0.0000 0.0000
# 5 0.0000 0.0000 0.0000 0.0000 -36.3786 0.0000
# 6 0.0000 0.0000 0.0000 0.0000 0.0000 22.7570
#
#
#
# Elastic Compliance Matrix: (Units=1/GPa)
#
#
# Indices 1 2 3 4 5 6 
#
# 1 0.011796 -0.001353 -0.006730 0.000000 0.000000 0.000000
# 2 -0.001353 0.011796 -0.006730 0.000000 0.000000 0.000000
# 3 -0.006730 -0.006730 0.018764 0.000000 0.000000 0.000000
# 4 0.000000 0.000000 0.000000 -0.027489 0.000000 0.000000
# 5 0.000000 0.000000 0.000000 0.000000 -0.027489 0.000000
# 6 0.000000 0.000000 0.000000 0.000000 0.000000 0.043943
#
#
# Mechanical properties :
#
#
# Convention : Reuss Voigt Hill
#
# Bulk Modulus (GPa) = 78.54593 78.96542 78.75568
# Shear Modulus (GPa) = 76.69808 1.63203 39.16506
#
# Velocity S-wave (km/s) = 6.71053 0.97888 4.79528
# Velocity P-wave (km/s) = 10.30329 6.90218 8.76920
#
# Compressibility (1/GPa) = 0.01273140
#
# Stress axis : x y z
#
# Youngs Moduli (GPa) = 84.77245 84.77245 53.29365
#
# Poissons Ratio (x) = 0.11473 0.35865
# Poissons Ratio (y) = 0.11473 0.35865
# Poissons Ratio (z) = 0.57049 0.57049
#
# Static dielectric constant tensor:
#      x y z
#    x 1.577520 0.000000 0.000000 
#    y 0.000000 1.577520 0.000000 
#    z 0.000000 0.000000 1.585490 
# 
# From -- ./inp_files/3785.got.cif
#   From: 2010.05.17/outbox.cif.g08.bks.cpg/sg125_2_cif.got.tgz:3785.got - 2010.05.20 11:54:10.
