data_PCOD9563234
_publ_section_title
;
Structure prediction by ZEFSAII (Michael W. Deem and Ramdas Pophale) SiO2 
 PCOD9563234
Probable space group: P 4/N B M
;
_chemical_formula_sum "Si O2"
_cell_formula_units_Z 96
_cell_length_a 24.181998
_cell_length_b 24.181998
_cell_length_c 8.606489
_cell_angle_alpha 90.000000
_cell_angle_beta 90.000000
_cell_angle_gamma 90.000000
_cell_volume 5032.808201
_symmetry_space_group_name_H-M "P 4/N B M"
_symmetry_group_IT_number 125
_space_group.IT_coordinate_system_code '2'
_symmetry_cell_setting 'tetragonal'
loop_
_space_group_symop_operation_xyz
x,y,z
1/2-y,x,z
1/2-x,1/2-y,z
y,1/2-x,z
x,1/2-y,-z
1/2-x,y,-z
y,x,-z
1/2-y,1/2-x,-z
-x,-y,-z
1/2+y,-x,-z
1/2+x,1/2+y,-z
-y,1/2+x,-z
-x,1/2+y,z
1/2+x,-y,z
-y,-x,z
1/2+y,1/2+x,z
loop_
_atom_site_type_symbol
_atom_site_label
_atom_site_fract_x
_atom_site_fract_y
_atom_site_fract_z
Si Si1 0.749015 0.607187 0.321483
Si Si2 0.549473 0.363387 0.176780
Si Si3 0.122811 0.966742 0.187687
Si Si4 0.247526 0.523196 0.676683
Si Si5 0.566784 0.950487 0.677768
Si Si6 0.137583 0.359531 0.819840
O O1 0.750000 0.627508 0.500000
O O2 0.737820 0.541936 0.325796
O O3 0.806862 0.613357 0.237673
O O4 0.705078 0.638579 0.215398
O O5 0.609801 0.390200 0.194345
O O6 0.547972 0.299525 0.229118
O O7 0.507516 0.405412 0.266214
O O8 0.531971 0.367793 0.996935
O O9 0.089810 0.910191 0.227891
O O10 0.184086 0.970757 0.263360
O O11 0.080056 0.016330 0.232007
O O12 0.250000 0.544009 0.500000
O O13 0.548137 0.951864 0.500000
O O14 0.617088 0.908805 0.705900
O O15 0.127280 0.372721 0.000000
#
# Coordination Sequence:
#
# PCOD9563234 Si02
#       6
#    16  16  16  16  16  16
#     4  11  23  40  60  85 117 157 203 252 302 354
#     4  11  24  41  63  92 125 161 202 248 300 358
#     4  11  24  41  63  92 125 161 202 248 300 358
#     4  11  23  39  64  91 121 160 200 244 299 361
#     4  12  23  37  59  90 125 162 201 247 302 357
#     4  12  24  38  60  86 115 157 206 254 298 352
#
# _framework density 19.074836999999999
#
# number of rings (size 3 to 8) (size 9 to 14) (size 15 to 20)
#    0.000    0.667    3.333    5.500    0.000    6.333 
#    0.000    1.667    0.000    0.500    0.000    3.500 
#    0.000    0.000    0.000    0.000    0.000    0.000 
#
# Total GULP energy -535822.898697 kJ/mol
# GULP energy per Si atom -5581.488528 kJ/mol
# Density = 1.903142 g / cm^3
# Si number density = 19.074837 Si / 1000 Ang^3
#
#
#
# Elastic Constant Matrix: (Units=GPa)
#
#
# Indices 1 2 3 4 5 6 
#
# 1 73.1572 18.3439 17.9868 0.0000 0.0000 0.0000
# 2 18.3439 73.1579 17.9872 0.0000 0.0000 0.0000
# 3 17.9868 17.9872 79.3436 0.0000 0.0000 0.0000
# 4 0.0000 0.0000 0.0000 62.9163 0.0000 0.0000
# 5 0.0000 0.0000 0.0000 0.0000 62.9141 0.0000
# 6 0.0000 0.0000 0.0000 0.0000 0.0000 -131.4576
#
#
#
# Elastic Compliance Matrix: (Units=1/GPa)
#
#
# Indices 1 2 3 4 5 6 
#
# 1 0.015121 -0.003123 -0.002720 0.000000 0.000000 0.000000
# 2 -0.003123 0.015121 -0.002720 0.000000 0.000000 0.000000
# 3 -0.002720 -0.002720 0.013837 0.000000 0.000000 0.000000
# 4 0.000000 0.000000 0.000000 0.015894 0.000000 0.000000
# 5 0.000000 0.000000 0.000000 0.000000 0.015895 0.000000
# 6 0.000000 0.000000 0.000000 0.000000 0.000000 -0.007607
#
#
# Mechanical properties :
#
#
# Convention : Reuss Voigt Hill
#
# Bulk Modulus (GPa) = 37.10145 37.14381 37.12263
# Shear Modulus (GPa) = 52.98301 10.29728 31.64015
#
# Velocity S-wave (km/s) = 5.27605 2.32596 4.07718
# Velocity P-wave (km/s) = 7.52385 5.16995 6.45510
#
# Compressibility (1/GPa) = 0.02695312
#
# Stress axis : x y z
#
# Youngs Moduli (GPa) = 66.13340 66.13395 72.27195
#
# Poissons Ratio (x) = 0.20652 0.19657
# Poissons Ratio (y) = 0.20652 0.19658
# Poissons Ratio (z) = 0.17988 0.17988
#
# Static dielectric constant tensor:
#      x y z
#    x 1.629730 0.000000 0.000000 
#    y 0.000000 1.629730 0.000000 
#    z 0.000000 0.000000 1.669640 
# 
# From -- ./inp_files/2878.got.cif
#   From: 2010.05.17/outbox.cif.g08.bks.cpg/sg125_2_cif.got.tgz:2878.got - 2010.05.20 11:54:10.
