data_PCOD9563780
_publ_section_title
;
Structure prediction by ZEFSAII (Michael W. Deem and Ramdas Pophale) SiO2 
 PCOD9563780
Probable space group: P 4/M B M
;
_chemical_formula_sum "Si O2"
_cell_formula_units_Z 104
_cell_length_a 26.702858
_cell_length_b 26.702858
_cell_length_c 8.085477
_cell_angle_alpha 90.000000
_cell_angle_beta 90.000000
_cell_angle_gamma 90.000000
_cell_volume 5765.289747
_symmetry_space_group_name_H-M "P 4/M B M"
_symmetry_group_IT_number 127
_symmetry_cell_setting 'tetragonal'
loop_
_space_group_symop_operation_xyz
x,y,z
-y,x,z
-x,-y,z
y,-x,z
1/2+x,1/2-y,-z
1/2-x,1/2+y,-z
1/2+y,1/2+x,-z
1/2-y,1/2-x,-z
-x,-y,-z
y,-x,-z
x,y,-z
-y,x,-z
1/2-x,1/2+y,z
1/2+x,1/2-y,z
1/2-y,1/2-x,z
1/2+y,1/2+x,z
loop_
_atom_site_type_symbol
_atom_site_label
_atom_site_fract_x
_atom_site_fract_y
_atom_site_fract_z
Si Si1 0.172414 0.672414 0.200306
Si Si2 0.471098 0.577810 0.000000
Si Si3 0.496350 0.631753 0.317399
Si Si4 0.028711 0.238966 0.802789
Si Si5 0.281839 0.364815 0.700185
Si Si6 0.773098 0.424261 0.195135
Si Si7 0.745263 0.245263 0.300377
Si Si8 0.662563 0.392828 0.695855
O O1 0.190833 0.618558 0.266550
O O2 0.214304 0.714304 0.239512
O O3 0.169748 0.669748 0.000000
O O4 0.438955 0.528659 0.000000
O O5 0.466435 0.607148 0.830579
O O6 0.484884 0.611649 0.500000
O O7 0.482270 0.689767 0.304950
O O8 0.556218 0.630858 0.287579
O O9 0.087424 0.247665 0.771944
O O10 0.982680 0.275329 0.751977
O O11 0.022009 0.228570 0.000000
O O12 0.280280 0.368612 0.500000
O O13 0.259620 0.311024 0.750245
O O14 0.340746 0.362283 0.751812
O O15 0.716221 0.404368 0.221954
O O16 0.782565 0.425245 0.000000
O O17 0.746892 0.246892 0.500000
O O18 0.672431 0.386782 0.500000
#
# Coordination Sequence:
#
# PCOD9563780 Si02
#       8
#     8   8  16  16  16  16   8  16
#     4  10  18  30  50  74 102 135 166 207 261 318
#     4  11  26  42  52  68  92 122 170 224 276 329
#     4  10  21  37  56  75  97 126 168 220 269 319
#     4  10  20  34  51  74 101 134 172 213 255 308
#     4  10  20  33  50  74 102 135 171 209 255 312
#     4   9  18  31  47  70 100 130 166 207 253 305
#     4  10  20  34  50  74 108 137 170 207 255 318
#     4   9  18  30  48  72  95 125 165 205 252 307
#
# _framework density 18.038989999999998
#
# number of rings (size 3 to 8) (size 9 to 14) (size 15 to 20)
#    0.000    2.231    2.308    0.462    3.231    2.462 
#    0.000    0.769    0.000    0.000    0.000    0.000 
#    0.000    0.615    0.000    7.692    0.000    0.615 
#
# Total GULP energy -579747.536475 kJ/mol
# GULP energy per Si atom -5574.495543 kJ/mol
# Density = 1.799793 g / cm^3
# Si number density = 18.038990 Si / 1000 Ang^3
#
#
#
# Elastic Constant Matrix: (Units=GPa)
#
#
# Indices 1 2 3 4 5 6 
#
# 1 70.7412 18.5413 14.8578 0.0000 0.0000 0.0000
# 2 18.5413 70.7412 14.8578 0.0000 0.0000 0.0000
# 3 14.8578 14.8578 39.6345 0.0000 0.0000 0.0000
# 4 0.0000 0.0000 0.0000 -7.9610 0.0000 0.0000
# 5 0.0000 0.0000 0.0000 0.0000 -7.9610 0.0000
# 6 0.0000 0.0000 0.0000 0.0000 0.0000 50.5681
#
#
#
# Elastic Compliance Matrix: (Units=1/GPa)
#
#
# Indices 1 2 3 4 5 6 
#
# 1 0.015977 -0.003180 -0.004797 0.000000 0.000000 0.000000
# 2 -0.003180 0.015977 -0.004797 0.000000 0.000000 0.000000
# 3 -0.004797 -0.004797 0.028827 0.000000 0.000000 0.000000
# 4 0.000000 0.000000 0.000000 -0.125613 0.000000 0.000000
# 5 0.000000 0.000000 0.000000 0.000000 -0.125613 0.000000
# 6 0.000000 0.000000 0.000000 0.000000 0.000000 0.019775
#
#
# Mechanical properties :
#
#
# Convention : Reuss Voigt Hill
#
# Bulk Modulus (GPa) = 28.38296 30.84784 29.61540
# Shear Modulus (GPa) = -37.48800 15.78658 -10.85071
#
# Velocity S-wave (km/s) = -4.56364 2.96148 -2.45524
# Velocity P-wave (km/s) = 3.46419 5.36951 2.90094
#
# Compressibility (1/GPa) = 0.03523240
#
# Stress axis : x y z
#
# Youngs Moduli (GPa) = 62.58965 62.58965 34.68949
#
# Poissons Ratio (x) = 0.19904 0.16641
# Poissons Ratio (y) = 0.19904 0.16641
# Poissons Ratio (z) = 0.30026 0.30026
#
# Static dielectric constant tensor:
#      x y z
#    x 1.651040 0.000000 0.000000 
#    y 0.000000 1.651040 0.000000 
#    z 0.000000 0.000000 1.736860 
# 
# From -- ./inp_files/2348.got.cif
#   From: 2010.05.17/outbox.cif.g08.bks.cpg/sg127_2_cif.got.tgz:2348.got - 2010.05.20 12:03:00.
