data_PCOD9563830
_publ_section_title
;
Structure prediction by ZEFSAII (Michael W. Deem and Ramdas Pophale) SiO2 
 PCOD9563830
Probable space group: P 4/M B M
;
_chemical_formula_sum "Si O2"
_cell_formula_units_Z 112
_cell_length_a 14.806622
_cell_length_b 14.806622
_cell_length_c 30.312790
_cell_angle_alpha 90.000000
_cell_angle_beta 90.000000
_cell_angle_gamma 90.000000
_cell_volume 6645.656497
_symmetry_space_group_name_H-M "P 4/M B M"
_symmetry_group_IT_number 127
_symmetry_cell_setting 'tetragonal'
loop_
_space_group_symop_operation_xyz
x,y,z
-y,x,z
-x,-y,z
y,-x,z
1/2+x,1/2-y,-z
1/2-x,1/2+y,-z
1/2+y,1/2+x,-z
1/2-y,1/2-x,-z
-x,-y,-z
y,-x,-z
x,y,-z
-y,x,-z
1/2-x,1/2+y,z
1/2+x,1/2-y,z
1/2-y,1/2-x,z
1/2+y,1/2+x,z
loop_
_atom_site_type_symbol
_atom_site_label
_atom_site_fract_x
_atom_site_fract_y
_atom_site_fract_z
Si Si1 0.647325 0.993819 0.213198
Si Si2 0.576144 0.366972 0.644209
Si Si3 0.229053 0.881638 0.733823
Si Si4 0.774995 0.576520 0.874148
Si Si5 0.115818 0.903301 0.817193
Si Si6 0.867047 0.076516 0.452570
Si Si7 0.988395 0.849212 0.948453
O O1 0.566113 0.066113 0.216879
O O2 0.718574 0.028395 0.249257
O O3 0.686929 0.011366 0.164440
O O4 0.604595 0.895406 0.219002
O O5 0.618137 0.467795 0.647294
O O6 0.608687 0.306945 0.684630
O O7 0.598834 0.327904 0.595497
O O8 0.298353 0.798353 0.738578
O O9 0.147108 0.874550 0.768540
O O10 0.853777 0.646224 0.886198
O O11 0.691956 0.630605 0.850817
O O12 0.733291 0.524707 0.915503
O O13 0.011998 0.879601 0.823551
O O14 0.824166 0.101259 0.500000
O O15 0.968257 0.117778 0.452643
O O16 0.079355 0.906819 0.940752
O O17 0.986492 0.823531 0.000000
#
# Coordination Sequence:
#
# PCOD9563830 Si02
#       7
#    16  16  16  16  16  16  16
#     4   8  16  32  49  62  82 117 153 178 206 249
#     4   9  16  27  43  62  86 114 143 176 220 271
#     4  10  19  30  43  62  90 117 146 186 223 256
#     4  10  19  31  49  73  98 119 144 182 221 255
#     4  10  19  32  49  65  85 115 150 184 221 267
#     4   7  10  18  35  59  82 104 135 175 214 256
#     4   9  18  34  54  72  92 120 151 180 215 262
#
# _framework density 16.853114000000001
#
# number of rings (size 3 to 8) (size 9 to 14) (size 15 to 20)
#    0.000    3.000    0.000    4.714    0.000    2.571 
#    0.000   12.857    0.000    1.714    0.000    2.000 
#    0.000    1.714    0.000    3.571    0.000    0.000 
#
# Total GULP energy -623537.861265 kJ/mol
# GULP energy per Si atom -5567.302333 kJ/mol
# Density = 1.681476 g / cm^3
# Si number density = 16.853114 Si / 1000 Ang^3
#
#
#
# Elastic Constant Matrix: (Units=GPa)
#
#
# Indices 1 2 3 4 5 6 
#
# 1 24.2995 0.1268 -12.2595 0.0000 0.0000 0.0000
# 2 0.1268 24.2995 -12.2595 0.0000 0.0000 0.0000
# 3 -12.2595 -12.2595 50.3982 0.0000 0.0000 0.0000
# 4 0.0000 0.0000 0.0000 16.8381 0.0000 0.0000
# 5 0.0000 0.0000 0.0000 0.0000 16.8381 0.0000
# 6 0.0000 0.0000 0.0000 0.0000 0.0000 10.4016
#
#
#
# Elastic Compliance Matrix: (Units=1/GPa)
#
#
# Indices 1 2 3 4 5 6 
#
# 1 0.047767 0.006398 0.013176 0.000000 0.000000 0.000000
# 2 0.006398 0.047767 0.013176 0.000000 0.000000 0.000000
# 3 0.013176 0.013176 0.026252 0.000000 0.000000 0.000000
# 4 0.000000 0.000000 0.000000 0.059389 0.000000 0.000000
# 5 0.000000 0.000000 0.000000 0.000000 0.059389 0.000000
# 6 0.000000 0.000000 0.000000 0.000000 0.000000 0.096139
#
#
# Mechanical properties :
#
#
# Convention : Reuss Voigt Hill
#
# Bulk Modulus (GPa) = 5.33942 5.57921 5.45932
# Shear Modulus (GPa) = 14.98655 17.04153 16.01404
#
# Velocity S-wave (km/s) = 2.98526 3.18336 3.08590
# Velocity P-wave (km/s) = 3.88039 4.10236 3.99292
#
# Compressibility (1/GPa) = 0.18728610
#
# Stress axis : x y z
#
# Youngs Moduli (GPa) = 20.93488 20.93488 38.09222
#
# Poissons Ratio (x) = -0.13395 -0.50190
# Poissons Ratio (y) = -0.13395 -0.50190
# Poissons Ratio (z) = -0.27583 -0.27583
#
# Static dielectric constant tensor:
#      x y z
#    x 1.585040 0.000000 0.000000 
#    y 0.000000 1.585040 0.000000 
#    z 0.000000 0.000000 1.602460 
# 
# From -- ./inp_files/6650.got.cif
#   From: 2010.05.17/outbox.cif.g08.bks.cpg/sg127_4_cif.got.tgz:6650.got - 2010.05.20 12:03:00.
