data_PCOD9563771
_publ_section_title
;
Structure prediction by ZEFSAII (Michael W. Deem and Ramdas Pophale) SiO2 
 PCOD9563771
Probable space group: P 4/M B M
;
_chemical_formula_sum "Si O2"
_cell_formula_units_Z 96
_cell_length_a 19.096355
_cell_length_b 19.096355
_cell_length_c 18.921232
_cell_angle_alpha 90.000000
_cell_angle_beta 90.000000
_cell_angle_gamma 90.000000
_cell_volume 6900.020324
_symmetry_space_group_name_H-M "P 4/M B M"
_symmetry_group_IT_number 127
_symmetry_cell_setting 'tetragonal'
loop_
_space_group_symop_operation_xyz
x,y,z
-y,x,z
-x,-y,z
y,-x,z
1/2+x,1/2-y,-z
1/2-x,1/2+y,-z
1/2+y,1/2+x,-z
1/2-y,1/2-x,-z
-x,-y,-z
y,-x,-z
x,y,-z
-y,x,-z
1/2-x,1/2+y,z
1/2+x,1/2-y,z
1/2-y,1/2-x,z
1/2+y,1/2+x,z
loop_
_atom_site_type_symbol
_atom_site_label
_atom_site_fract_x
_atom_site_fract_y
_atom_site_fract_z
Si Si1 0.902758 0.068627 0.231825
Si Si2 0.403015 0.431406 0.924031
Si Si3 0.588929 0.577525 0.500000
Si Si4 0.221915 0.278086 0.418131
Si Si5 0.902384 0.815424 0.632044
Si Si6 0.705939 0.991342 0.585829
Si Si7 0.942782 0.557219 0.414766
Si Si8 0.159929 0.659929 0.581199
O O1 0.875154 0.088237 0.153305
O O2 0.855408 0.098255 0.294183
O O3 0.983709 0.093457 0.238001
O O4 0.484020 0.406820 0.924235
O O5 0.371580 0.409176 0.000000
O O6 0.506967 0.594765 0.500000
O O7 0.628247 0.605804 0.431021
O O8 0.203521 0.296480 0.500000
O O9 0.256601 0.343690 0.379846
O O10 0.281395 0.218606 0.419734
O O11 0.975035 0.774216 0.620102
O O12 0.715421 0.993607 0.500000
O O13 0.690340 0.912312 0.610360
O O14 0.635807 0.035036 0.604131
O O15 0.945411 0.554590 0.500000
O O16 0.000000 0.500000 0.389369
O O17 0.141068 0.641068 0.500000
#
# Coordination Sequence:
#
# PCOD9563771 Si02
#       8
#    16  16   8   8  16  16   8   8
#     4   9  18  30  44  66  92 117 145 174 210 258
#     4   7  10  20  40  64  89 113 136 167 206 248
#     4  11  24  35  46  62  79 111 154 181 213 262
#     4  11  23  36  42  59  78 111 155 196 223 263
#     4  12  22  32  48  58  86 116 145 187 228 258
#     4  10  18  30  44  62  73 103 138 183 228 269
#     4   9  15  27  45  61  78  86 128 190 242 265
#     4   9  20  30  46  58  75  96 145 187 221 262
#
# _framework density 13.913003
#
# number of rings (size 3 to 8) (size 9 to 14) (size 15 to 20)
#    0.000    2.333    2.500    3.000    4.667    2.000 
#    0.000    0.000    0.000    0.000    0.000    0.583 
#    0.000    0.000    0.000    0.750    0.000    0.833 
#
# Total GULP energy -534796.148304 kJ/mol
# GULP energy per Si atom -5570.793211 kJ/mol
# Density = 1.388134 g / cm^3
# Si number density = 13.913003 Si / 1000 Ang^3
#
#
#
# Elastic Constant Matrix: (Units=GPa)
#
#
# Indices 1 2 3 4 5 6 
#
# 1 58.1131 -10.8558 23.9704 0.0000 0.0000 0.0000
# 2 -10.8558 58.1143 23.9704 0.0000 0.0000 0.0000
# 3 23.9704 23.9704 114.9683 0.0000 0.0000 0.0000
# 4 0.0000 0.0000 0.0000 2.9255 0.0000 0.0000
# 5 0.0000 0.0000 0.0000 0.0000 2.9254 0.0000
# 6 0.0000 0.0000 0.0000 0.0000 0.0000 19.8178
#
#
#
# Elastic Compliance Matrix: (Units=1/GPa)
#
#
# Indices 1 2 3 4 5 6 
#
# 1 0.020668 0.006169 -0.005595 0.000000 0.000000 0.000000
# 2 0.006169 0.020668 -0.005595 0.000000 0.000000 0.000000
# 3 -0.005595 -0.005595 0.011031 0.000000 0.000000 0.000000
# 4 0.000000 0.000000 0.000000 0.341818 0.000000 0.000000
# 5 0.000000 0.000000 0.000000 0.000000 0.341835 0.000000
# 6 0.000000 0.000000 0.000000 0.000000 0.000000 0.050460
#
#
# Mechanical properties :
#
#
# Convention : Reuss Voigt Hill
#
# Bulk Modulus (GPa) = 23.62767 33.92953 28.77860
# Shear Modulus (GPa) = 6.16803 18.07444 12.12123
#
# Velocity S-wave (km/s) = 2.10782 3.60822 2.95484
# Velocity P-wave (km/s) = 4.78990 6.46520 5.68955
#
# Compressibility (1/GPa) = 0.04232326
#
# Stress axis : x y z
#
# Youngs Moduli (GPa) = 48.38359 48.38468 90.65141
#
# Poissons Ratio (x) = -0.29847 0.50723
# Poissons Ratio (y) = -0.29847 0.50722
# Poissons Ratio (z) = 0.27073 0.27073
#
# Static dielectric constant tensor:
#      x y z
#    x 1.477640 0.000000 0.000000 
#    y 0.000000 1.477640 0.000000 
#    z 0.000000 0.000000 1.463690 
# 
# From -- ./inp_files/5318.got.cif
#   From: 2010.05.17/outbox.cif.g08.bks.cpg/sg127_3_cif.got.tgz:5318.got - 2010.05.20 12:03:00.
