data_PCOD9563197
_publ_section_title
;
Structure prediction by ZEFSAII (Michael W. Deem and Ramdas Pophale) SiO2 
 PCOD9563197
Probable space group: P 4/N B M
;
_chemical_formula_sum "Si O2"
_cell_formula_units_Z 56
_cell_length_a 13.675995
_cell_length_b 13.675995
_cell_length_c 16.505730
_cell_angle_alpha 90.000000
_cell_angle_beta 90.000000
_cell_angle_gamma 90.000000
_cell_volume 3087.113546
_symmetry_space_group_name_H-M "P 4/N B M"
_symmetry_group_IT_number 125
_space_group.IT_coordinate_system_code '2'
_symmetry_cell_setting 'tetragonal'
loop_
_space_group_symop_operation_xyz
x,y,z
1/2-y,x,z
1/2-x,1/2-y,z
y,1/2-x,z
x,1/2-y,-z
1/2-x,y,-z
y,x,-z
1/2-y,1/2-x,-z
-x,-y,-z
1/2+y,-x,-z
1/2+x,1/2+y,-z
-y,1/2+x,-z
-x,1/2+y,z
1/2+x,-y,z
-y,-x,z
1/2+y,1/2+x,z
loop_
_atom_site_type_symbol
_atom_site_label
_atom_site_fract_x
_atom_site_fract_y
_atom_site_fract_z
Si Si1 0.631144 0.974939 0.833949
Si Si2 0.493104 0.670045 0.250763
Si Si3 0.366492 0.133509 0.000000
Si Si4 0.241646 0.084325 0.409535
O O1 0.581503 0.905633 0.766566
O O2 0.578084 0.078084 0.831533
O O3 0.744428 0.991822 0.815164
O O4 0.604284 0.922775 0.918711
O O5 0.394056 0.605944 0.244897
O O6 0.508503 0.721824 0.337633
O O7 0.381867 0.250000 0.000000
O O8 0.338314 0.151846 0.403214
O O9 0.250000 0.040931 0.500000
#
# Coordination Sequence:
#
# PCOD9563197 Si02
#       4
#    16  16   8  16
#     4  11  23  39  60  86 120 159 199 248 303 367
#     4  11  22  37  60  89 120 160 203 249 307 368
#     4  11  21  36  62  92 117 149 194 254 306 346
#     4   9  17  32  57  86 116 149 199 258 309 353
#
# _framework density 18.139921000000001
#
# number of rings (size 3 to 8) (size 9 to 14) (size 15 to 20)
#    0.000    1.571    5.714    1.286    0.000    1.143 
#    0.000    4.286    0.000    0.000    0.000    0.000 
#    0.000    0.000    0.000    0.000    0.000    0.000 
#
# Total GULP energy -311880.819345 kJ/mol
# GULP energy per Si atom -5569.300345 kJ/mol
# Density = 1.809863 g / cm^3
# Si number density = 18.139921 Si / 1000 Ang^3
#
#
#
# Elastic Constant Matrix: (Units=GPa)
#
#
# Indices 1 2 3 4 5 6 
#
# 1 71.7203 44.6176 26.6256 0.0000 0.0000 0.0000
# 2 44.6176 71.7211 26.6255 0.0000 0.0000 0.0000
# 3 26.6256 26.6255 124.7667 0.0000 0.0000 0.0000
# 4 0.0000 0.0000 0.0000 16.2004 0.0000 0.0000
# 5 0.0000 0.0000 0.0000 0.0000 16.2002 0.0000
# 6 0.0000 0.0000 0.0000 0.0000 0.0000 15.8575
#
#
#
# Elastic Compliance Matrix: (Units=1/GPa)
#
#
# Indices 1 2 3 4 5 6 
#
# 1 0.023211 -0.013685 -0.002033 0.000000 0.000000 0.000000
# 2 -0.013685 0.023211 -0.002033 0.000000 0.000000 0.000000
# 3 -0.002033 -0.002033 0.008883 0.000000 0.000000 0.000000
# 4 0.000000 0.000000 0.000000 0.061727 0.000000 0.000000
# 5 0.000000 0.000000 0.000000 0.000000 0.061728 0.000000
# 6 0.000000 0.000000 0.000000 0.000000 0.000000 0.063062
#
#
# Mechanical properties :
#
#
# Convention : Reuss Voigt Hill
#
# Bulk Modulus (GPa) = 50.49671 51.54950 51.02310
# Shear Modulus (GPa) = 17.61036 21.00758 19.30897
#
# Velocity S-wave (km/s) = 3.11916 3.40676 3.26612
# Velocity P-wave (km/s) = 6.39296 6.62979 6.51245
#
# Compressibility (1/GPa) = 0.01980327
#
# Stress axis : x y z
#
# Youngs Moduli (GPa) = 43.08255 43.08311 112.57944
#
# Poissons Ratio (x) = 0.58959 0.22887
# Poissons Ratio (y) = 0.58958 0.22886
# Poissons Ratio (z) = 0.08759 0.08758
#
# Static dielectric constant tensor:
#      x y z
#    x 1.598610 0.000000 0.000000 
#    y 0.000000 1.598610 0.000000 
#    z 0.000000 0.000000 1.690890 
# 
# From -- ./inp_files/4537.got.cif
#   From: 2010.05.17/outbox.cif.g08.bks.cpg/sg125_3_cif.got.tgz:4537.got - 2010.05.20 11:54:10.
