data_PCOD9563587
_publ_section_title
;
Structure prediction by ZEFSAII (Michael W. Deem and Ramdas Pophale) SiO2 
 PCOD9563587
Probable space group: P 4/N N C
;
_chemical_formula_sum "Si O2"
_cell_formula_units_Z 96
_cell_length_a 23.977432
_cell_length_b 23.977432
_cell_length_c 8.939409
_cell_angle_alpha 90.000000
_cell_angle_beta 90.000000
_cell_angle_gamma 90.000000
_cell_volume 5139.420397
_symmetry_space_group_name_H-M "P 4/N N C"
_symmetry_group_IT_number 126
_space_group.IT_coordinate_system_code '2'
_symmetry_cell_setting 'tetragonal'
loop_
_space_group_symop_operation_xyz
x,y,z
1/2-y,x,z
1/2-x,1/2-y,z
y,1/2-x,z
x,1/2-y,1/2-z
1/2-x,y,1/2-z
y,x,1/2-z
1/2-y,1/2-x,1/2-z
-x,-y,-z
1/2+y,-x,-z
1/2+x,1/2+y,-z
-y,1/2+x,-z
-x,1/2+y,1/2+z
1/2+x,-y,1/2+z
-y,-x,1/2+z
1/2+y,1/2+x,1/2+z
loop_
_atom_site_type_symbol
_atom_site_label
_atom_site_fract_x
_atom_site_fract_y
_atom_site_fract_z
Si Si1 0.090647 0.581143 0.308442
Si Si2 0.005489 0.560222 0.067978
Si Si3 0.187955 0.400066 0.313738
Si Si4 0.580801 0.851214 0.140289
Si Si5 0.691000 0.019609 0.823854
Si Si6 0.973884 0.306898 0.674388
O O1 0.036433 0.556279 0.225362
O O2 0.095354 0.548458 0.464734
O O3 0.144757 0.565660 0.213153
O O4 0.073437 0.645419 0.320204
O O5 0.946776 0.591396 0.078642
O O6 0.000000 0.500000 0.000000
O O7 0.250000 0.389494 0.250000
O O8 0.145341 0.354660 0.250000
O O9 0.184167 0.402316 0.494536
O O10 0.171953 0.461311 0.250907
O O11 0.630898 0.869103 0.250000
O O12 0.529675 0.824581 0.234099
O O13 0.750000 0.034211 0.750000
O O14 0.699249 0.011335 0.000143
O O15 0.954080 0.250000 0.750000
#
# Coordination Sequence:
#
# PCOD9563587 Si02
#       6
#    16  16  16  16  16  16
#     4  11  22  36  57  85 123 159 200 246 306 375
#     4  11  21  34  52  89 124 163 192 241 308 382
#     4  11  24  41  64  90 120 163 212 263 317 374
#     4  11  23  38  59  91 127 162 207 252 317 376
#     4  11  23  39  62  89 118 158 205 256 311 371
#     4  11  23  39  60  86 126 166 206 252 304 370
#
# _framework density 18.679148999999999
#
# number of rings (size 3 to 8) (size 9 to 14) (size 15 to 20)
#    0.000    1.000    3.333    5.500    4.667    0.167 
#    0.000    0.000    0.000    0.500    0.000    8.167 
#    0.000    0.000    0.000    0.000    0.000    0.000 
#
# Total GULP energy -536317.474369 kJ/mol
# GULP energy per Si atom -5586.640358 kJ/mol
# Density = 1.863663 g / cm^3
# Si number density = 18.679149 Si / 1000 Ang^3
#
#
#
# Elastic Constant Matrix: (Units=GPa)
#
#
# Indices 1 2 3 4 5 6 
#
# 1 84.9194 34.0618 38.8475 0.0000 0.0000 0.0000
# 2 34.0618 84.9188 38.8459 0.0000 0.0000 0.0000
# 3 38.8475 38.8459 149.8211 0.0000 0.0000 0.0000
# 4 0.0000 0.0000 0.0000 30.2737 0.0000 0.0000
# 5 0.0000 0.0000 0.0000 0.0000 30.2731 0.0000
# 6 0.0000 0.0000 0.0000 0.0000 0.0000 23.7511
#
#
#
# Elastic Compliance Matrix: (Units=1/GPa)
#
#
# Indices 1 2 3 4 5 6 
#
# 1 0.014890 -0.004773 -0.002624 0.000000 0.000000 0.000000
# 2 -0.004773 0.014890 -0.002623 0.000000 0.000000 0.000000
# 3 -0.002624 -0.002623 0.008035 0.000000 0.000000 0.000000
# 4 0.000000 0.000000 0.000000 0.033032 0.000000 0.000000
# 5 0.000000 0.000000 0.000000 0.000000 0.033033 0.000000
# 6 0.000000 0.000000 0.000000 0.000000 0.000000 0.042103
#
#
# Mechanical properties :
#
#
# Convention : Reuss Voigt Hill
#
# Bulk Modulus (GPa) = 56.25253 60.35216 58.30235
# Shear Modulus (GPa) = 29.07855 30.71984 29.89919
#
# Velocity S-wave (km/s) = 3.94983 4.05977 4.00518
# Velocity P-wave (km/s) = 7.14017 7.37263 7.25734
#
# Compressibility (1/GPa) = 0.01777698
#
# Stress axis : x y z
#
# Youngs Moduli (GPa) = 67.15764 67.15787 124.45458
#
# Poissons Ratio (x) = 0.32051 0.32651
# Poissons Ratio (y) = 0.32051 0.32648
# Poissons Ratio (z) = 0.17619 0.17618
#
# Static dielectric constant tensor:
#      x y z
#    x 1.646540 0.000000 0.000000 
#    y 0.000000 1.646540 0.000000 
#    z 0.000000 0.000000 1.700450 
# 
# From -- ./inp_files/1776.got.cif
#   From: 2010.05.17/outbox.cif.g08.bks.cpg/sg126_1_cif.got.tgz:1776.got - 2010.05.20 11:58:20.
