data_PCOD9563737
_publ_section_title
;
Structure prediction by ZEFSAII (Michael W. Deem and Ramdas Pophale) SiO2 
 PCOD9563737
Probable space group: P 4/M B M
;
_chemical_formula_sum "Si O2"
_cell_formula_units_Z 96
_cell_length_a 24.754473
_cell_length_b 24.754473
_cell_length_c 7.254099
_cell_angle_alpha 90.000000
_cell_angle_beta 90.000000
_cell_angle_gamma 90.000000
_cell_volume 4445.195319
_symmetry_space_group_name_H-M "P 4/M B M"
_symmetry_group_IT_number 127
_symmetry_cell_setting 'tetragonal'
loop_
_space_group_symop_operation_xyz
x,y,z
-y,x,z
-x,-y,z
y,-x,z
1/2+x,1/2-y,-z
1/2-x,1/2+y,-z
1/2+y,1/2+x,-z
1/2-y,1/2-x,-z
-x,-y,-z
y,-x,-z
x,y,-z
-y,x,-z
1/2-x,1/2+y,z
1/2+x,1/2-y,z
1/2-y,1/2-x,z
1/2+y,1/2+x,z
loop_
_atom_site_type_symbol
_atom_site_label
_atom_site_fract_x
_atom_site_fract_y
_atom_site_fract_z
Si Si1 0.153371 0.567119 0.223900
Si Si2 0.445379 0.277808 0.224242
Si Si3 0.932863 0.764517 0.774970
Si Si4 0.950255 0.928639 0.722207
Si Si5 0.856810 0.851991 0.204858
Si Si6 0.859625 0.553364 0.775832
O O1 0.116303 0.616303 0.287037
O O2 0.216283 0.568747 0.276205
O O3 0.130645 0.508615 0.279982
O O4 0.153217 0.568007 0.000000
O O5 0.507825 0.287512 0.282866
O O6 0.397193 0.317110 0.288809
O O7 0.446191 0.281774 0.000000
O O8 0.879690 0.796735 0.710038
O O9 0.932131 0.701654 0.722114
O O10 0.932111 0.766673 0.000000
O O11 0.947712 0.924747 0.500000
O O12 0.913345 0.883731 0.806833
O O13 0.012657 0.927533 0.774862
O O14 0.835152 0.839664 0.000000
O O15 0.904115 0.595886 0.712837
O O16 0.860223 0.553929 0.000000
#
# Coordination Sequence:
#
# PCOD9563737 Si02
#       6
#    16  16  16  16  16  16
#     4   8  13  21  32  46  68  98 127 156 194 237
#     4   8  14  23  33  48  71  95 122 163 205 227
#     4   8  14  23  33  48  71  95 122 163 205 227
#     4   9  18  30  40  53  77 104 128 164 213 246
#     4  10  17  25  40  58  74 101 140 166 184 227
#     4   8  13  21  32  46  68  98 127 156 194 237
#
# _framework density 21.596353000000001
#
# number of rings (size 3 to 8) (size 9 to 14) (size 15 to 20)
#    0.000    3.500    0.000    3.500    0.000    2.333 
#    0.000    3.333    0.000    5.000    0.000    0.000 
#    0.000    2.667    0.000    1.000    0.000    1.667 
#
# Total GULP energy -535302.452661 kJ/mol
# GULP energy per Si atom -5576.067215 kJ/mol
# Density = 2.154720 g / cm^3
# Si number density = 21.596353 Si / 1000 Ang^3
#
#
#
# Elastic Constant Matrix: (Units=GPa)
#
#
# Indices 1 2 3 4 5 6 
#
# 1 88.8993 77.0725 1.2017 0.0000 0.0000 0.0000
# 2 77.0725 88.8993 1.2017 0.0000 0.0000 0.0000
# 3 1.2017 1.2017 95.6821 0.0000 0.0000 0.0000
# 4 0.0000 0.0000 0.0000 37.5642 0.0000 0.0000
# 5 0.0000 0.0000 0.0000 0.0000 37.5642 0.0000
# 6 0.0000 0.0000 0.0000 0.0000 0.0000 48.9699
#
#
#
# Elastic Compliance Matrix: (Units=1/GPa)
#
#
# Indices 1 2 3 4 5 6 
#
# 1 0.045290 -0.039264 -0.000076 0.000000 0.000000 0.000000
# 2 -0.039264 0.045290 -0.000076 0.000000 0.000000 0.000000
# 3 -0.000076 -0.000076 0.010453 0.000000 0.000000 0.000000
# 4 0.000000 0.000000 0.000000 0.026621 0.000000 0.000000
# 5 0.000000 0.000000 0.000000 0.000000 0.026621 0.000000
# 6 0.000000 0.000000 0.000000 0.000000 0.000000 0.020421
#
#
# Mechanical properties :
#
#
# Convention : Reuss Voigt Hill
#
# Bulk Modulus (GPa) = 45.03922 48.04805 46.54363
# Shear Modulus (GPa) = 19.16241 37.75331 28.45786
#
# Velocity S-wave (km/s) = 2.98199 4.18560 3.63397
# Velocity P-wave (km/s) = 5.72334 6.75689 6.26148
#
# Compressibility (1/GPa) = 0.02220287
#
# Stress axis : x y z
#
# Youngs Moduli (GPa) = 22.07990 22.07990 95.66466
#
# Poissons Ratio (x) = 0.86694 0.00724
# Poissons Ratio (y) = 0.86694 0.00724
# Poissons Ratio (z) = 0.00167 0.00167
#
# Static dielectric constant tensor:
#      x y z
#    x 1.768570 0.000000 0.000000 
#    y 0.000000 1.768570 0.000000 
#    z 0.000000 0.000000 1.820740 
# 
# From -- ./inp_files/3664.got.cif
#   From: 2010.05.17/outbox.cif.g08.bks.cpg/sg127_2_cif.got.tgz:3664.got - 2010.05.20 12:03:00.
