data_PCOD9563306
_publ_section_title
;
Structure prediction by ZEFSAII (Michael W. Deem and Ramdas Pophale) SiO2 
 PCOD9563306
Probable space group: P 4/N N C
;
_chemical_formula_sum "Si O2"
_cell_formula_units_Z 112
_cell_length_a 23.512437
_cell_length_b 23.512437
_cell_length_c 12.250184
_cell_angle_alpha 90.000000
_cell_angle_beta 90.000000
_cell_angle_gamma 90.000000
_cell_volume 6772.326719
_symmetry_space_group_name_H-M "P 4/N N C"
_symmetry_group_IT_number 126
_space_group.IT_coordinate_system_code '2'
_symmetry_cell_setting 'tetragonal'
loop_
_space_group_symop_operation_xyz
x,y,z
1/2-y,x,z
1/2-x,1/2-y,z
y,1/2-x,z
x,1/2-y,1/2-z
1/2-x,y,1/2-z
y,x,1/2-z
1/2-y,1/2-x,1/2-z
-x,-y,-z
1/2+y,-x,-z
1/2+x,1/2+y,-z
-y,1/2+x,-z
-x,1/2+y,1/2+z
1/2+x,-y,1/2+z
-y,-x,1/2+z
1/2+y,1/2+x,1/2+z
loop_
_atom_site_type_symbol
_atom_site_label
_atom_site_fract_x
_atom_site_fract_y
_atom_site_fract_z
Si Si1 0.383572 0.546602 0.015414
Si Si2 0.912635 0.998126 0.203860
Si Si3 0.202401 0.975132 0.669990
Si Si4 0.778092 0.378836 0.428396
Si Si5 0.535312 0.348373 0.045329
Si Si6 0.596044 0.505061 0.751708
Si Si7 0.144397 0.716255 0.638518
O O1 0.401499 0.499831 0.925549
O O2 0.325296 0.576537 0.974522
O O3 0.432055 0.596651 0.008706
O O4 0.379057 0.517541 0.133649
O O5 0.940008 0.940008 0.250000
O O6 0.855420 0.019826 0.262075
O O7 0.958967 0.046759 0.226231
O O8 0.250000 0.001011 0.750000
O O9 0.228858 0.913558 0.634403
O O10 0.185669 0.996827 0.549764
O O11 0.756288 0.344908 0.534370
O O12 0.809966 0.333897 0.352719
O O13 0.496720 0.364516 0.146459
O O14 0.585431 0.312450 0.101800
O O15 0.565402 0.565402 0.750000
O O16 0.139982 0.750000 0.750000
#
# Coordination Sequence:
#
# PCOD9563306 Si02
#       7
#    16  16  16  16  16  16  16
#     4  10  18  34  51  76 105 133 175 219 276 334
#     4  10  21  32  53  78 103 135 173 226 275 336
#     4  11  20  36  53  74  99 138 179 214 273 324
#     4  10  22  35  54  71  96 140 184 230 274 308
#     4   9  20  32  51  72  98 133 172 222 267 321
#     4  10  20  31  53  80 104 134 169 219 280 331
#     4  10  21  37  52  66  93 133 186 235 273 299
#
# _framework density 16.537890999999998
#
# number of rings (size 3 to 8) (size 9 to 14) (size 15 to 20)
#    0.000    2.000    2.857    0.857    2.000    5.429 
#    0.000    0.714    0.000    0.000    0.000    0.000 
#    0.000    0.286    0.000    0.000    0.000    1.429 
#
# Total GULP energy -623854.931073 kJ/mol
# GULP energy per Si atom -5570.133313 kJ/mol
# Density = 1.650025 g / cm^3
# Si number density = 16.537891 Si / 1000 Ang^3
#
#
#
# Elastic Constant Matrix: (Units=GPa)
#
#
# Indices 1 2 3 4 5 6 
#
# 1 37.1865 24.7947 38.2233 0.0000 0.0000 0.0000
# 2 24.7947 37.1865 38.2233 0.0000 0.0000 0.0000
# 3 38.2233 38.2233 143.7371 0.0000 0.0000 0.0000
# 4 0.0000 0.0000 0.0000 20.1971 0.0000 0.0000
# 5 0.0000 0.0000 0.0000 0.0000 20.1971 0.0000
# 6 0.0000 0.0000 0.0000 0.0000 0.0000 14.5698
#
#
#
# Elastic Compliance Matrix: (Units=1/GPa)
#
#
# Indices 1 2 3 4 5 6 
#
# 1 0.052353 -0.028345 -0.006384 0.000000 0.000000 0.000000
# 2 -0.028345 0.052353 -0.006384 0.000000 0.000000 0.000000
# 3 -0.006384 -0.006384 0.010353 0.000000 0.000000 0.000000
# 4 0.000000 0.000000 0.000000 0.049512 0.000000 0.000000
# 5 0.000000 0.000000 0.000000 0.000000 0.049512 0.000000
# 6 0.000000 0.000000 0.000000 0.000000 0.000000 0.068635
#
#
# Mechanical properties :
#
#
# Convention : Reuss Voigt Hill
#
# Bulk Modulus (GPa) = 30.45833 46.73252 38.59543
# Shear Modulus (GPa) = 13.30178 18.78408 16.04293
#
# Velocity S-wave (km/s) = 2.83913 3.37385 3.11798
# Velocity P-wave (km/s) = 5.40415 6.59518 6.02915
#
# Compressibility (1/GPa) = 0.03283174
#
# Stress axis : x y z
#
# Youngs Moduli (GPa) = 19.10102 19.10102 96.59306
#
# Poissons Ratio (x) = 0.54142 0.61669
# Poissons Ratio (y) = 0.54142 0.61669
# Poissons Ratio (z) = 0.12195 0.12195
#
# Static dielectric constant tensor:
#      x y z
#    x 1.581640 0.000000 0.000000 
#    y 0.000000 1.581640 0.000000 
#    z 0.000000 0.000000 1.636020 
# 
# From -- ./inp_files/3038.got.cif
#   From: 2010.05.17/outbox.cif.g08.bks.cpg/sg126_2_cif.got.tgz:3038.got - 2010.05.20 11:58:20.
