data_PCOD9563201
_publ_section_title
;
Structure prediction by ZEFSAII (Michael W. Deem and Ramdas Pophale) SiO2 
 PCOD9563201
Probable space group: P 4/N B M
;
_chemical_formula_sum "Si O2"
_cell_formula_units_Z 80
_cell_length_a 13.959464
_cell_length_b 13.959464
_cell_length_c 24.109766
_cell_angle_alpha 90.000000
_cell_angle_beta 90.000000
_cell_angle_gamma 90.000000
_cell_volume 4698.188975
_symmetry_space_group_name_H-M "P 4/N B M"
_symmetry_group_IT_number 125
_space_group.IT_coordinate_system_code '2'
_symmetry_cell_setting 'tetragonal'
loop_
_space_group_symop_operation_xyz
x,y,z
1/2-y,x,z
1/2-x,1/2-y,z
y,1/2-x,z
x,1/2-y,-z
1/2-x,y,-z
y,x,-z
1/2-y,1/2-x,-z
-x,-y,-z
1/2+y,-x,-z
1/2+x,1/2+y,-z
-y,1/2+x,-z
-x,1/2+y,z
1/2+x,-y,z
-y,-x,z
1/2+y,1/2+x,z
loop_
_atom_site_type_symbol
_atom_site_label
_atom_site_fract_x
_atom_site_fract_y
_atom_site_fract_z
Si Si1 0.604185 0.680669 0.647534
Si Si2 0.838201 0.999454 0.828874
Si Si3 0.505669 0.649187 0.531078
Si Si4 0.358113 0.018644 0.232032
Si Si5 0.263915 0.411761 0.061279
O O1 0.706286 0.627227 0.645064
O O2 0.539654 0.657476 0.594513
O O3 0.556886 0.651483 0.705515
O O4 0.747291 0.008210 0.788792
O O5 0.899614 0.907579 0.806849
O O6 0.790809 0.982336 0.889220
O O7 0.910999 0.089002 0.828371
O O8 0.502954 0.750000 0.500000
O O9 0.583317 0.583317 0.500000
O O10 0.405039 0.594962 0.527963
O O11 0.428642 0.928642 0.229838
O O12 0.167072 0.348966 0.065521
O O13 0.250000 0.456243 0.000000
#
# Coordination Sequence:
#
# PCOD9563201 Si02
#       5
#    16  16  16  16  16
#     4  11  21  36  63  92 118 151 196 254 307 347
#     4  11  22  37  60  87 118 159 201 243 298 359
#     4  11  23  40  62  87 121 160 199 245 297 360
#     4  11  23  39  59  86 121 158 197 246 298 355
#     4   9  17  32  57  86 115 145 192 248 296 340
#
# _framework density 17.027837000000002
#
# number of rings (size 3 to 8) (size 9 to 14) (size 15 to 20)
#    0.000    1.400    6.000    1.200    0.000    1.200 
#    0.000    4.000    0.000    2.400    0.000    0.000 
#    0.000    0.000    0.000    0.000    0.000    0.000 
#
# Total GULP energy -446135.432557 kJ/mol
# GULP energy per Si atom -5576.692907 kJ/mol
# Density = 1.698908 g / cm^3
# Si number density = 17.027837 Si / 1000 Ang^3
#
#
#
# Elastic Constant Matrix: (Units=GPa)
#
#
# Indices 1 2 3 4 5 6 
#
# 1 78.6922 35.4483 39.7369 0.0000 0.0000 0.0000
# 2 35.4483 78.6922 39.7369 0.0000 0.0000 0.0000
# 3 39.7369 39.7369 144.2579 0.0000 0.0000 0.0000
# 4 0.0000 0.0000 0.0000 21.4441 0.0000 0.0000
# 5 0.0000 0.0000 0.0000 0.0000 21.4441 0.0000
# 6 0.0000 0.0000 0.0000 0.0000 0.0000 10.0952
#
#
#
# Elastic Compliance Matrix: (Units=1/GPa)
#
#
# Indices 1 2 3 4 5 6 
#
# 1 0.016982 -0.006142 -0.002986 0.000000 0.000000 0.000000
# 2 -0.006142 0.016982 -0.002986 0.000000 0.000000 0.000000
# 3 -0.002986 -0.002986 0.008577 0.000000 0.000000 0.000000
# 4 0.000000 0.000000 0.000000 0.046633 0.000000 0.000000
# 5 0.000000 0.000000 0.000000 0.000000 0.046633 0.000000
# 6 0.000000 0.000000 0.000000 0.000000 0.000000 0.099057
#
#
# Mechanical properties :
#
#
# Convention : Reuss Voigt Hill
#
# Bulk Modulus (GPa) = 54.60463 59.05404 56.82934
# Shear Modulus (GPa) = 18.85384 23.04469 20.94927
#
# Velocity S-wave (km/s) = 3.33113 3.68279 3.51136
# Velocity P-wave (km/s) = 6.85074 7.26912 7.06303
#
# Compressibility (1/GPa) = 0.01831347
#
# Stress axis : x y z
#
# Youngs Moduli (GPa) = 58.88438 58.88438 116.58993
#
# Poissons Ratio (x) = 0.36168 0.34814
# Poissons Ratio (y) = 0.36168 0.34814
# Poissons Ratio (z) = 0.17583 0.17583
#
# Static dielectric constant tensor:
#      x y z
#    x 1.553120 0.000000 0.000000 
#    y 0.000000 1.553120 0.000000 
#    z 0.000000 0.000000 1.585150 
# 
# From -- ./inp_files/5807.got.cif
#   From: 2010.05.17/outbox.cif.g08.bks.cpg/sg125_3_cif.got.tgz:5807.got - 2010.05.20 11:54:10.
