data_PCOD9563951
_publ_section_title
;
Structure prediction by ZEFSAII (Michael W. Deem and Ramdas Pophale) SiO2 
 PCOD9563951
Probable space group: P 4/M B M
;
_chemical_formula_sum "Si O2"
_cell_formula_units_Z 116
_cell_length_a 28.234934
_cell_length_b 28.234934
_cell_length_c 7.770023
_cell_angle_alpha 90.000000
_cell_angle_beta 90.000000
_cell_angle_gamma 90.000000
_cell_volume 6194.351675
_symmetry_space_group_name_H-M "P 4/M B M"
_symmetry_group_IT_number 127
_symmetry_cell_setting 'tetragonal'
loop_
_space_group_symop_operation_xyz
x,y,z
-y,x,z
-x,-y,z
y,-x,z
1/2+x,1/2-y,-z
1/2-x,1/2+y,-z
1/2+y,1/2+x,-z
1/2-y,1/2-x,-z
-x,-y,-z
y,-x,-z
x,y,-z
-y,x,-z
1/2-x,1/2+y,z
1/2+x,1/2-y,z
1/2-y,1/2-x,z
1/2+y,1/2+x,z
loop_
_atom_site_type_symbol
_atom_site_label
_atom_site_fract_x
_atom_site_fract_y
_atom_site_fract_z
Si Si1 0.167816 0.560460 0.300222
Si Si2 0.285760 0.862193 0.705181
Si Si3 0.029931 0.279134 0.797431
Si Si4 0.397692 0.269999 0.299445
Si Si5 0.900289 0.400289 0.000000
Si Si6 0.076307 0.000348 0.210617
Si Si7 0.181530 0.010055 0.198853
Si Si8 0.210152 0.786702 0.205508
O O1 0.154956 0.571249 0.500000
O O2 0.184068 0.505680 0.289940
O O3 0.215424 0.590636 0.254259
O O4 0.129997 0.572168 0.154154
O O5 0.289676 0.865176 0.500000
O O6 0.327528 0.827528 0.770277
O O7 0.288719 0.914818 0.776835
O O8 0.236864 0.835196 0.747595
O O9 0.017477 0.226724 0.726126
O O10 0.017682 0.279471 0.000000
O O11 0.409004 0.274845 0.500000
O O12 0.434703 0.304026 0.204659
O O13 0.343115 0.281992 0.270232
O O14 0.129891 0.001556 0.275481
O O15 0.046205 0.954330 0.262442
O O16 0.077170 0.001085 0.000000
O O17 0.178289 0.994761 0.000000
O O18 0.243931 0.743931 0.271162
O O19 0.208577 0.783305 0.000000
#
# Coordination Sequence:
#
# PCOD9563951 Si02
#       8
#    16  16  16  16   4  16  16  16
#     4  10  22  37  56  85 117 154 193 233 281 336
#     4  10  21  37  56  80 110 145 188 234 282 335
#     4  10  19  35  56  80 113 147 185 234 279 329
#     4  10  21  34  49  72 107 146 184 226 278 337
#     4  12  22  36  60  86 117 150 190 236 272 340
#     4   8  14  26  45  70  98 128 170 226 282 332
#     4   9  18  31  50  74 102 137 179 225 273 327
#     4  10  21  34  52  75 104 140 180 226 276 334
#
# _framework density 18.726737
#
# number of rings (size 3 to 8) (size 9 to 14) (size 15 to 20)
#    0.000    2.345    0.690    2.276    2.897    3.310 
#    0.000    2.759    0.000    0.828    0.000    1.931 
#    0.000    2.207    0.000    0.000    0.000    0.000 
#
# Total GULP energy -645989.380069 kJ/mol
# GULP energy per Si atom -5568.873966 kJ/mol
# Density = 1.868411 g / cm^3
# Si number density = 18.726737 Si / 1000 Ang^3
#
#
#
# Elastic Constant Matrix: (Units=GPa)
#
#
# Indices 1 2 3 4 5 6 
#
# 1 78.7253 47.1760 4.5605 0.0000 0.0000 0.0000
# 2 47.1760 78.7253 4.5605 0.0000 0.0000 0.0000
# 3 4.5605 4.5605 57.2448 0.0000 0.0000 0.0000
# 4 0.0000 0.0000 0.0000 11.3449 0.0000 0.0000
# 5 0.0000 0.0000 0.0000 0.0000 11.3449 0.0000
# 6 0.0000 0.0000 0.0000 0.0000 0.0000 13.2037
#
#
#
# Elastic Compliance Matrix: (Units=1/GPa)
#
#
# Indices 1 2 3 4 5 6 
#
# 1 0.019843 -0.011854 -0.000636 0.000000 0.000000 0.000000
# 2 -0.011854 0.019843 -0.000636 0.000000 0.000000 0.000000
# 3 -0.000636 -0.000636 0.017570 0.000000 0.000000 0.000000
# 4 0.000000 0.000000 0.000000 0.088146 0.000000 0.000000
# 5 0.000000 0.000000 0.000000 0.000000 0.088146 0.000000
# 6 0.000000 0.000000 0.000000 0.000000 0.000000 0.075736
#
#
# Mechanical properties :
#
#
# Convention : Reuss Voigt Hill
#
# Bulk Modulus (GPa) = 32.25584 36.36550 34.31067
# Shear Modulus (GPa) = 14.45628 17.73857 16.09742
#
# Velocity S-wave (km/s) = 2.78143 3.08105 2.93507
# Velocity P-wave (km/s) = 5.25138 5.66731 5.46330
#
# Compressibility (1/GPa) = 0.03100213
#
# Stress axis : x y z
#
# Youngs Moduli (GPa) = 50.39654 50.39654 56.91437
#
# Poissons Ratio (x) = 0.59739 0.03622
# Poissons Ratio (y) = 0.59739 0.03622
# Poissons Ratio (z) = 0.03207 0.03207
#
# Static dielectric constant tensor:
#      x y z
#    x 1.639420 0.000000 0.000000 
#    y 0.000000 1.639420 0.000000 
#    z 0.000000 0.000000 1.692490 
# 
# From -- ./inp_files/2407.got.cif
#   From: 2010.05.17/outbox.cif.g08.bks.cpg/sg127_2_cif.got.tgz:2407.got - 2010.05.20 12:03:00.
