data_PCOD9563312
_publ_section_title
;
Structure prediction by ZEFSAII (Michael W. Deem and Ramdas Pophale) SiO2 
 PCOD9563312
Probable space group: P 4/N N C
;
_chemical_formula_sum "Si O2"
_cell_formula_units_Z 64
_cell_length_a 20.224399
_cell_length_b 20.224399
_cell_length_c 7.453750
_cell_angle_alpha 90.000000
_cell_angle_beta 90.000000
_cell_angle_gamma 90.000000
_cell_volume 3048.779895
_symmetry_space_group_name_H-M "P 4/N N C"
_symmetry_group_IT_number 126
_space_group.IT_coordinate_system_code '2'
_symmetry_cell_setting 'tetragonal'
loop_
_space_group_symop_operation_xyz
x,y,z
1/2-y,x,z
1/2-x,1/2-y,z
y,1/2-x,z
x,1/2-y,1/2-z
1/2-x,y,1/2-z
y,x,1/2-z
1/2-y,1/2-x,1/2-z
-x,-y,-z
1/2+y,-x,-z
1/2+x,1/2+y,-z
-y,1/2+x,-z
-x,1/2+y,1/2+z
1/2+x,-y,1/2+z
-y,-x,1/2+z
1/2+y,1/2+x,1/2+z
loop_
_atom_site_type_symbol
_atom_site_label
_atom_site_fract_x
_atom_site_fract_y
_atom_site_fract_z
Si Si1 0.998033 0.244370 0.948885
Si Si2 0.105597 0.491978 0.986745
Si Si3 0.394189 0.991688 0.557685
Si Si4 0.736700 0.144072 0.956457
O O1 0.028415 0.250000 0.750000
O O2 0.026332 0.179867 0.049107
O O3 0.993101 0.319646 0.017911
O O4 0.921479 0.222080 0.934859
O O5 0.109703 0.494443 0.770062
O O6 0.049412 0.438178 0.031605
O O7 0.075478 0.563063 0.042394
O O8 0.750000 0.126636 0.750000
O O9 0.679539 0.198306 0.966456
#
# Coordination Sequence:
#
# PCOD9563312 Si02
#       4
#    16  16  16  16
#     4  10  19  31  48  69  93 122 157 196 237 280
#     4   9  18  32  49  69  94 124 157 194 236 282
#     4   9  18  32  49  69  94 124 157 194 236 282
#     4  11  21  32  45  64  93 125 156 188 227 277
#
# _framework density 20.992003
#
# number of rings (size 3 to 8) (size 9 to 14) (size 15 to 20)
#    0.000    2.250    0.000    4.500    0.000    6.000 
#    0.000    0.000    0.000    0.750    0.000    5.250 
#    0.000    0.000    0.000   14.750    0.000   15.500 
#
# Total GULP energy -356945.217793 kJ/mol
# GULP energy per Si atom -5577.269028 kJ/mol
# Density = 2.094422 g / cm^3
# Si number density = 20.992003 Si / 1000 Ang^3
#
#
#
# Elastic Constant Matrix: (Units=GPa)
#
#
# Indices 1 2 3 4 5 6 
#
# 1 115.6117 37.8013 -14.8810 0.0000 0.0000 0.0000
# 2 37.8013 115.6117 -14.8810 0.0000 0.0000 0.0000
# 3 -14.8810 -14.8810 54.2825 0.0000 0.0000 0.0000
# 4 0.0000 0.0000 0.0000 13.4594 0.0000 0.0000
# 5 0.0000 0.0000 0.0000 0.0000 13.4594 0.0000
# 6 0.0000 0.0000 0.0000 0.0000 0.0000 16.4760
#
#
#
# Elastic Compliance Matrix: (Units=1/GPa)
#
#
# Indices 1 2 3 4 5 6 
#
# 1 0.009868 -0.002984 0.001887 0.000000 0.000000 0.000000
# 2 -0.002984 0.009868 0.001887 0.000000 0.000000 0.000000
# 3 0.001887 0.001887 0.019457 0.000000 0.000000 0.000000
# 4 0.000000 0.000000 0.000000 0.074298 0.000000 0.000000
# 5 0.000000 0.000000 0.000000 0.000000 0.074298 0.000000
# 6 0.000000 0.000000 0.000000 0.000000 0.000000 0.060694
#
#
# Mechanical properties :
#
#
# Convention : Reuss Voigt Hill
#
# Bulk Modulus (GPa) = 24.52473 33.50938 29.01706
# Shear Modulus (GPa) = 19.19443 27.17674 23.18558
#
# Velocity S-wave (km/s) = 3.02713 3.60199 3.32700
# Velocity P-wave (km/s) = 4.89145 5.77033 5.34897
#
# Compressibility (1/GPa) = 0.04077517
#
# Stress axis : x y z
#
# Youngs Moduli (GPa) = 101.33637 101.33637 51.39560
#
# Poissons Ratio (x) = 0.30235 -0.09700
# Poissons Ratio (y) = 0.30235 -0.09700
# Poissons Ratio (z) = -0.19125 -0.19125
#
# Static dielectric constant tensor:
#      x y z
#    x 1.799190 0.000000 0.000000 
#    y 0.000000 1.799190 0.000000 
#    z 0.000000 0.000000 1.839160 
# 
# From -- ./inp_files/1476.got.cif
#   From: 2010.05.17/outbox.cif.g08.bks.cpg/sg126_1_cif.got.tgz:1476.got - 2010.05.20 11:58:20.
