data_PCOD9563752
_publ_section_title
;
Structure prediction by ZEFSAII (Michael W. Deem and Ramdas Pophale) SiO2 
 PCOD9563752
Probable space group: P 4/M B M
;
_chemical_formula_sum "Si O2"
_cell_formula_units_Z 72
_cell_length_a 23.614578
_cell_length_b 23.614578
_cell_length_c 9.269249
_cell_angle_alpha 90.000000
_cell_angle_beta 90.000000
_cell_angle_gamma 90.000000
_cell_volume 5168.980893
_symmetry_space_group_name_H-M "P 4/M B M"
_symmetry_group_IT_number 127
_symmetry_cell_setting 'tetragonal'
loop_
_space_group_symop_operation_xyz
x,y,z
-y,x,z
-x,-y,z
y,-x,z
1/2+x,1/2-y,-z
1/2-x,1/2+y,-z
1/2+y,1/2+x,-z
1/2-y,1/2-x,-z
-x,-y,-z
y,-x,-z
x,y,-z
-y,x,-z
1/2-x,1/2+y,z
1/2+x,1/2-y,z
1/2-y,1/2-x,z
1/2+y,1/2+x,z
loop_
_atom_site_type_symbol
_atom_site_label
_atom_site_fract_x
_atom_site_fract_y
_atom_site_fract_z
Si Si1 0.698775 0.104380 0.825668
Si Si2 0.173604 0.513392 0.325400
Si Si3 0.954219 0.454219 0.324786
Si Si4 0.368111 0.225849 0.327092
Si Si5 0.807300 0.789918 0.165984
O O1 0.646173 0.146173 0.789097
O O2 0.756777 0.136793 0.783166
O O3 0.691778 0.044505 0.749440
O O4 0.699267 0.098948 0.000000
O O5 0.174912 0.507419 0.500000
O O6 0.109121 0.528710 0.282318
O O7 0.211774 0.567641 0.285540
O O8 0.954650 0.454650 0.500000
O O9 0.000000 0.500000 0.273976
O O10 0.365953 0.230335 0.500000
O O11 0.327604 0.172397 0.287447
O O12 0.340823 0.281504 0.257516
O O13 0.759026 0.740975 0.167276
O O14 0.815159 0.807397 0.000000
#
# Coordination Sequence:
#
# PCOD9563752 Si02
#       5
#    16  16   8  16  16
#     4   9  18  31  43  58  83 112 142 179 215 246
#     4  10  18  28  42  61  84 111 145 178 209 247
#     4   9  16  26  39  55  79 115 151 177 201 234
#     4   9  16  27  42  61  84 106 134 176 216 248
#     4   8  15  28  44  59  77 104 137 172 214 258
#
# _framework density 13.929245
#
# number of rings (size 3 to 8) (size 9 to 14) (size 15 to 20)
#    0.000    3.000    1.111    2.000    0.000    3.111 
#    0.000    2.778    0.000    2.000    0.000    0.000 
#    0.000    0.889    0.000    9.778    0.000    7.111 
#
# Total GULP energy -400843.252771 kJ/mol
# GULP energy per Si atom -5567.267400 kJ/mol
# Density = 1.389754 g / cm^3
# Si number density = 13.929245 Si / 1000 Ang^3
#
#
#
# Elastic Constant Matrix: (Units=GPa)
#
#
# Indices 1 2 3 4 5 6 
#
# 1 97.4640 87.1173 36.7782 0.0000 0.0000 0.0000
# 2 87.1173 97.4640 36.7782 0.0000 0.0000 0.0000
# 3 36.7782 36.7782 18.4571 0.0000 0.0000 0.0000
# 4 0.0000 0.0000 0.0000 21.9719 0.0000 0.0000
# 5 0.0000 0.0000 0.0000 0.0000 21.9719 0.0000
# 6 0.0000 0.0000 0.0000 0.0000 0.0000 26.1913
#
#
#
# Elastic Compliance Matrix: (Units=1/GPa)
#
#
# Indices 1 2 3 4 5 6 
#
# 1 0.061479 -0.035170 -0.052423 0.000000 0.000000 0.000000
# 2 -0.035170 0.061479 -0.052423 0.000000 0.000000 0.000000
# 3 -0.052423 -0.052423 0.263100 0.000000 0.000000 0.000000
# 4 0.000000 0.000000 0.000000 0.045513 0.000000 0.000000
# 5 0.000000 0.000000 0.000000 0.000000 0.045513 0.000000
# 6 0.000000 0.000000 0.000000 0.000000 0.000000 0.038181
#
#
# Mechanical properties :
#
#
# Convention : Reuss Voigt Hill
#
# Bulk Modulus (GPa) = 9.43181 59.41471 34.42326
# Shear Modulus (GPa) = 6.01947 17.54110 11.78028
#
# Velocity S-wave (km/s) = 2.08107 3.55251 2.91129
# Velocity P-wave (km/s) = 3.54406 7.71844 6.00561
#
# Compressibility (1/GPa) = 0.10602417
#
# Stress axis : x y z
#
# Youngs Moduli (GPa) = 16.26575 16.26575 3.80084
#
# Poissons Ratio (x) = 0.57207 0.19925
# Poissons Ratio (y) = 0.57207 0.19925
# Poissons Ratio (z) = 0.85270 0.85270
#
# Static dielectric constant tensor:
#      x y z
#    x 1.449760 0.000000 0.000000 
#    y 0.000000 1.449760 0.000000 
#    z 0.000000 0.000000 1.465070 
# 
# From -- ./inp_files/1723.got.cif
#   From: 2010.05.17/outbox.cif.g08.bks.cpg/sg127_1_cif.got.tgz:1723.got - 2010.05.20 12:03:00.
