data_PCOD9563240
_publ_section_title
;
Structure prediction by ZEFSAII (Michael W. Deem and Ramdas Pophale) SiO2 
 PCOD9563240
Probable space group: P 4/N B M
;
_chemical_formula_sum "Si O2"
_cell_formula_units_Z 88
_cell_length_a 12.881625
_cell_length_b 12.881625
_cell_length_c 27.982045
_cell_angle_alpha 90.000000
_cell_angle_beta 90.000000
_cell_angle_gamma 90.000000
_cell_volume 4643.235968
_symmetry_space_group_name_H-M "P 4/N B M"
_symmetry_group_IT_number 125
_space_group.IT_coordinate_system_code '2'
_symmetry_cell_setting 'tetragonal'
loop_
_space_group_symop_operation_xyz
x,y,z
1/2-y,x,z
1/2-x,1/2-y,z
y,1/2-x,z
x,1/2-y,-z
1/2-x,y,-z
y,x,-z
1/2-y,1/2-x,-z
-x,-y,-z
1/2+y,-x,-z
1/2+x,1/2+y,-z
-y,1/2+x,-z
-x,1/2+y,z
1/2+x,-y,z
-y,-x,z
1/2+y,1/2+x,z
loop_
_atom_site_type_symbol
_atom_site_label
_atom_site_fract_x
_atom_site_fract_y
_atom_site_fract_z
Si Si1 0.418828 0.280619 0.862815
Si Si2 0.841972 0.515284 0.031731
Si Si3 0.425716 0.750000 0.500000
Si Si4 0.923999 0.737842 0.305409
Si Si5 0.079875 0.749677 0.782401
Si Si6 0.751862 0.425765 0.395193
O O1 0.330832 0.366318 0.852862
O O2 0.446945 0.295273 0.918265
O O3 0.517757 0.287689 0.828956
O O4 0.932932 0.432932 0.040841
O O5 0.750000 0.468291 0.000000
O O6 0.892008 0.607993 0.000000
O O7 0.349251 0.650750 0.499489
O O8 0.477902 0.749250 0.448047
O O9 0.856685 0.843019 0.304062
O O10 0.998961 0.731599 0.259897
O O11 0.993075 0.738452 0.353039
O O12 0.147617 0.852384 0.792510
O O13 0.160830 0.660830 0.767310
O O14 0.658188 0.341813 0.393645
O O15 0.856855 0.356855 0.389816
#
# Coordination Sequence:
#
# PCOD9563240 Si02
#       6
#    16  16   8  16  16  16
#     4  11  23  40  66  93 121 157 197 239 286 344
#     4  11  23  40  64  92 124 163 203 244 292 344
#     4   7  12  26  50  81 114 146 186 239 296 355
#     4  11  24  40  57  81 115 155 200 244 294 354
#     4  11  25  43  63  89 120 152 191 243 299 354
#     4   9  17  32  57  86 114 148 193 245 300 356
#
# _framework density 18.952300000000001
#
# number of rings (size 3 to 8) (size 9 to 14) (size 15 to 20)
#    0.000    1.727    1.818    3.818    0.000    9.818 
#    0.000    0.909    0.000    4.364    0.000    0.000 
#    0.000    0.000    0.000    0.000    0.000    0.000 
#
# Total GULP energy -491328.408025 kJ/mol
# GULP energy per Si atom -5583.277364 kJ/mol
# Density = 1.890916 g / cm^3
# Si number density = 18.952300 Si / 1000 Ang^3
#
#
#
# Elastic Constant Matrix: (Units=GPa)
#
#
# Indices 1 2 3 4 5 6 
#
# 1 75.1800 26.8781 34.7397 0.0000 0.0000 0.0000
# 2 26.8781 75.1793 34.7401 0.0000 0.0000 0.0000
# 3 34.7397 34.7401 114.4896 0.0000 0.0000 0.0000
# 4 0.0000 0.0000 0.0000 9.7129 0.0000 0.0000
# 5 0.0000 0.0000 0.0000 0.0000 9.7130 0.0000
# 6 0.0000 0.0000 0.0000 0.0000 0.0000 6.1429
#
#
#
# Elastic Compliance Matrix: (Units=1/GPa)
#
#
# Indices 1 2 3 4 5 6 
#
# 1 0.016526 -0.004177 -0.003747 0.000000 0.000000 0.000000
# 2 -0.004177 0.016526 -0.003747 0.000000 0.000000 0.000000
# 3 -0.003747 -0.003747 0.011008 0.000000 0.000000 0.000000
# 4 0.000000 0.000000 0.000000 0.102956 0.000000 0.000000
# 5 0.000000 0.000000 0.000000 0.000000 0.102955 0.000000
# 6 0.000000 0.000000 0.000000 0.000000 0.000000 0.162789
#
#
# Mechanical properties :
#
#
# Convention : Reuss Voigt Hill
#
# Bulk Modulus (GPa) = 48.26614 50.84054 49.55334
# Shear Modulus (GPa) = 11.28643 16.34650 13.81646
#
# Velocity S-wave (km/s) = 2.44297 2.94003 2.70295
# Velocity P-wave (km/s) = 5.78618 6.19749 5.99536
#
# Compressibility (1/GPa) = 0.02071846
#
# Stress axis : x y z
#
# Youngs Moduli (GPa) = 60.50981 60.50898 90.83907
#
# Poissons Ratio (x) = 0.25274 0.34039
# Poissons Ratio (y) = 0.25274 0.34040
# Poissons Ratio (z) = 0.22674 0.22674
#
# Static dielectric constant tensor:
#      x y z
#    x 1.645310 0.000000 0.000000 
#    y 0.000000 1.645310 0.000000 
#    z 0.000000 0.000000 1.658920 
# 
# From -- ./inp_files/6563.got.cif
#   From: 2010.05.17/outbox.cif.g08.bks.cpg/sg125_4_cif.got.tgz:6563.got - 2010.05.20 11:54:10.
