data_PCOD9563443
_publ_section_title
;
Structure prediction by ZEFSAII (Michael W. Deem and Ramdas Pophale) SiO2 
 PCOD9563443
Probable space group: P 4/N N C
;
_chemical_formula_sum "Si O2"
_cell_formula_units_Z 64
_cell_length_a 18.069314
_cell_length_b 18.069314
_cell_length_c 10.782478
_cell_angle_alpha 90.000000
_cell_angle_beta 90.000000
_cell_angle_gamma 90.000000
_cell_volume 3520.480236
_symmetry_space_group_name_H-M "P 4/N N C"
_symmetry_group_IT_number 126
_space_group.IT_coordinate_system_code '2'
_symmetry_cell_setting 'tetragonal'
loop_
_space_group_symop_operation_xyz
x,y,z
1/2-y,x,z
1/2-x,1/2-y,z
y,1/2-x,z
x,1/2-y,1/2-z
1/2-x,y,1/2-z
y,x,1/2-z
1/2-y,1/2-x,1/2-z
-x,-y,-z
1/2+y,-x,-z
1/2+x,1/2+y,-z
-y,1/2+x,-z
-x,1/2+y,1/2+z
1/2+x,-y,1/2+z
-y,-x,1/2+z
1/2+y,1/2+x,1/2+z
loop_
_atom_site_type_symbol
_atom_site_label
_atom_site_fract_x
_atom_site_fract_y
_atom_site_fract_z
Si Si1 0.661015 0.071173 0.250001
Si Si2 0.661241 0.661241 0.750000
Si Si3 0.338531 0.338530 0.518068
Si Si4 0.163108 0.663110 0.999998
Si Si5 0.914753 0.585248 0.250000
O O1 0.750000 0.052521 0.250000
O O2 0.646285 0.117153 0.375877
O O3 0.609135 0.999759 0.249997
O O4 0.646284 0.117157 0.124129
O O5 0.750000 0.650324 0.750000
O O6 0.634021 0.634022 0.617085
O O7 0.250001 0.350288 0.525778
O O8 0.378306 0.378303 0.629106
O O9 0.152060 0.750001 0.971881
#
# Coordination Sequence:
#
# PCOD9563443 Si02
#       5
#    16   8  16  16   8
#     4  10  21  36  56  83 111 142 181 221 267 323
#     4   7  12  24  42  61  80 115 180 245 272 279
#     4   9  16  28  46  66  94 141 195 234 259 289
#     4   9  18  37  64  86 102 127 174 237 290 324
#     4  12  22  31  46  75 120 153 172 202 254 325
#
# _framework density 18.179337
#
# number of rings (size 3 to 8) (size 9 to 14) (size 15 to 20)
#    0.000    2.625    0.000    4.500    0.000    5.000 
#    0.000    2.500    0.000    6.000    0.000    0.000 
#    0.000    0.000    0.000    0.000    0.000    4.500 
#
# Total GULP energy -356747.121289 kJ/mol
# GULP energy per Si atom -5574.173770 kJ/mol
# Density = 1.813796 g / cm^3
# Si number density = 18.179337 Si / 1000 Ang^3
#
#
#
# Elastic Constant Matrix: (Units=GPa)
#
#
# Indices 1 2 3 4 5 6 
#
# 1 83.6011 72.6337 90.6162 0.0000 0.0000 0.0000
# 2 72.6337 83.6001 90.6162 0.0000 0.0000 0.0000
# 3 90.6162 90.6162 214.5737 0.0000 0.0000 0.0000
# 4 0.0000 0.0000 0.0000 17.5367 0.0000 0.0000
# 5 0.0000 0.0000 0.0000 0.0000 17.5371 0.0000
# 6 0.0000 0.0000 0.0000 0.0000 0.0000 21.1629
#
#
#
# Elastic Compliance Matrix: (Units=1/GPa)
#
#
# Indices 1 2 3 4 5 6 
#
# 1 0.051865 -0.039318 -0.005299 0.000000 0.000000 0.000000
# 2 -0.039318 0.051866 -0.005299 0.000000 0.000000 0.000000
# 3 -0.005299 -0.005299 0.009136 0.000000 0.000000 0.000000
# 4 0.000000 0.000000 0.000000 0.057023 0.000000 0.000000
# 5 0.000000 0.000000 0.000000 0.000000 0.057022 0.000000
# 6 0.000000 0.000000 0.000000 0.000000 0.000000 0.047253
#
#
# Mechanical properties :
#
#
# Convention : Reuss Voigt Hill
#
# Bulk Modulus (GPa) = 76.71553 98.83413 87.77483
# Shear Modulus (GPa) = 13.21557 19.77458 16.49508
#
# Velocity S-wave (km/s) = 2.69914 3.30168 3.01550
# Velocity P-wave (km/s) = 7.21143 8.30777 7.77894
#
# Compressibility (1/GPa) = 0.01303517
#
# Stress axis : x y z
#
# Youngs Moduli (GPa) = 19.28084 19.28045 109.45858
#
# Poissons Ratio (x) = 0.75807 0.57998
# Poissons Ratio (y) = 0.75809 0.58003
# Poissons Ratio (z) = 0.10216 0.10217
#
# Static dielectric constant tensor:
#      x y z
#    x 1.613330 0.000000 0.000000 
#    y 0.000000 1.613330 0.000000 
#    z 0.000000 0.000000 1.634500 
# 
# From -- ./inp_files/2613.got.cif
#   From: 2010.05.17/outbox.cif.g08.bks.cpg/sg126_2_cif.got.tgz:2613.got - 2010.05.20 11:58:20.
