data_PCOD9563066
_publ_section_title
;
Structure prediction by ZEFSAII (Michael W. Deem and Ramdas Pophale) SiO2 
 PCOD9563066
Probable space group: P 4/N B M
;
_chemical_formula_sum "Si O2"
_cell_formula_units_Z 64
_cell_length_a 14.897463
_cell_length_b 14.897463
_cell_length_c 13.305510
_cell_angle_alpha 90.000000
_cell_angle_beta 90.000000
_cell_angle_gamma 90.000000
_cell_volume 2952.950430
_symmetry_space_group_name_H-M "P 4/N B M"
_symmetry_group_IT_number 125
_space_group.IT_coordinate_system_code '2'
_symmetry_cell_setting 'tetragonal'
loop_
_space_group_symop_operation_xyz
x,y,z
1/2-y,x,z
1/2-x,1/2-y,z
y,1/2-x,z
x,1/2-y,-z
1/2-x,y,-z
y,x,-z
1/2-y,1/2-x,-z
-x,-y,-z
1/2+y,-x,-z
1/2+x,1/2+y,-z
-y,1/2+x,-z
-x,1/2+y,z
1/2+x,-y,z
-y,-x,z
1/2+y,1/2+x,z
loop_
_atom_site_type_symbol
_atom_site_label
_atom_site_fract_x
_atom_site_fract_y
_atom_site_fract_z
Si Si1 0.437164 0.075802 0.379509
Si Si2 0.022350 0.743480 0.380847
Si Si3 0.248714 0.605726 0.818687
Si Si4 0.249307 0.396089 0.878867
O O1 0.434384 0.065617 0.500000
O O2 0.448214 0.180009 0.361285
O O3 0.524884 0.024884 0.339839
O O4 0.349773 0.022471 0.349931
O O5 0.045446 0.750000 0.500000
O O6 0.101747 0.756500 0.302956
O O7 0.337922 0.662079 0.847117
O O8 0.163406 0.663406 0.856201
O O9 0.248458 0.501299 0.850558
O O10 0.161682 0.337453 0.846094
O O11 0.250000 0.393681 0.000000
#
# Coordination Sequence:
#
# PCOD9563066 Si02
#       4
#    16  16  16  16
#     4   9  18  33  53  77 106 148 204 258 304 354
#     4  10  21  37  57  82 120 168 213 259 309 361
#     4  11  25  40  59  94 132 169 215 260 306 367
#     4   9  21  45  74 100 125 157 202 255 314 384
#
# _framework density 21.673238999999999
#
# number of rings (size 3 to 8) (size 9 to 14) (size 15 to 20)
#    0.000    2.250    0.000    2.250    3.500    5.500 
#    0.000    7.500    0.000    0.000    0.000    0.000 
#    0.000    0.000    0.000    0.000    0.000    0.000 
#
# Total GULP energy -356899.772444 kJ/mol
# GULP energy per Si atom -5576.558944 kJ/mol
# Density = 2.162391 g / cm^3
# Si number density = 21.673239 Si / 1000 Ang^3
#
#
#
# Elastic Constant Matrix: (Units=GPa)
#
#
# Indices 1 2 3 4 5 6 
#
# 1 151.7612 71.6971 18.9009 0.0000 0.0000 0.0000
# 2 71.6971 151.7617 18.9009 0.0000 0.0000 0.0000
# 3 18.9009 18.9009 54.8631 0.0000 0.0000 0.0000
# 4 0.0000 0.0000 0.0000 12.6962 0.0000 0.0000
# 5 0.0000 0.0000 0.0000 0.0000 12.6962 0.0000
# 6 0.0000 0.0000 0.0000 0.0000 0.0000 28.5900
#
#
#
# Elastic Compliance Matrix: (Units=1/GPa)
#
#
# Indices 1 2 3 4 5 6 
#
# 1 0.008621 -0.003869 -0.001637 0.000000 0.000000 0.000000
# 2 -0.003869 0.008621 -0.001637 0.000000 0.000000 0.000000
# 3 -0.001637 -0.001637 0.019355 0.000000 0.000000 0.000000
# 4 0.000000 0.000000 0.000000 0.078764 0.000000 0.000000
# 5 0.000000 0.000000 0.000000 0.000000 0.078763 0.000000
# 6 0.000000 0.000000 0.000000 0.000000 0.000000 0.034977
#
#
# Mechanical properties :
#
#
# Convention : Reuss Voigt Hill
#
# Bulk Modulus (GPa) = 44.82137 64.15374 54.48756
# Shear Modulus (GPa) = 19.93422 27.38897 23.66160
#
# Velocity S-wave (km/s) = 3.03605 3.55874 3.30774
# Velocity P-wave (km/s) = 5.74591 6.82282 6.30739
#
# Compressibility (1/GPa) = 0.02231079
#
# Stress axis : x y z
#
# Youngs Moduli (GPa) = 115.99568 115.99603 51.66571
#
# Poissons Ratio (x) = 0.44878 0.08458
# Poissons Ratio (y) = 0.44878 0.08458
# Poissons Ratio (z) = 0.18990 0.18990
#
# Static dielectric constant tensor:
#      x y z
#    x 1.800180 0.000000 0.000000 
#    y 0.000000 1.800180 0.000000 
#    z 0.000000 0.000000 1.858080 
# 
# From -- ./inp_files/4614.got.cif
#   From: 2010.05.17/outbox.cif.g08.bks.cpg/sg125_3_cif.got.tgz:4614.got - 2010.05.20 11:54:10.
