data_PCOD9563832
_publ_section_title
;
Structure prediction by ZEFSAII (Michael W. Deem and Ramdas Pophale) SiO2 
 PCOD9563832
Probable space group: P 4/M B M
;
_chemical_formula_sum "Si O2"
_cell_formula_units_Z 88
_cell_length_a 27.078539
_cell_length_b 27.078539
_cell_length_c 9.035440
_cell_angle_alpha 90.000000
_cell_angle_beta 90.000000
_cell_angle_gamma 90.000000
_cell_volume 6625.211753
_symmetry_space_group_name_H-M "P 4/M B M"
_symmetry_group_IT_number 127
_symmetry_cell_setting 'tetragonal'
loop_
_space_group_symop_operation_xyz
x,y,z
-y,x,z
-x,-y,z
y,-x,z
1/2+x,1/2-y,-z
1/2-x,1/2+y,-z
1/2+y,1/2+x,-z
1/2-y,1/2-x,-z
-x,-y,-z
y,-x,-z
x,y,-z
-y,x,-z
1/2-x,1/2+y,z
1/2+x,1/2-y,z
1/2-y,1/2-x,z
1/2+y,1/2+x,z
loop_
_atom_site_type_symbol
_atom_site_label
_atom_site_fract_x
_atom_site_fract_y
_atom_site_fract_z
Si Si1 0.855430 0.512519 0.676642
Si Si2 0.589641 0.826636 0.174891
Si Si3 0.822829 0.761870 0.327584
Si Si4 0.839472 0.254777 0.327735
Si Si5 0.393790 0.809769 0.174552
Si Si6 0.541842 0.041842 0.172812
O O1 0.858563 0.512909 0.500000
O O2 0.836366 0.460140 0.735780
O O3 0.821265 0.557063 0.734603
O O4 0.909023 0.522741 0.747859
O O5 0.628031 0.871970 0.200558
O O6 0.616971 0.777065 0.229933
O O7 0.579567 0.824699 0.000000
O O8 0.837489 0.766518 0.500000
O O9 0.779941 0.720060 0.322769
O O10 0.795847 0.812500 0.280206
O O11 0.866542 0.739669 0.230190
O O12 0.854384 0.250035 0.500000
O O13 0.796494 0.296494 0.323637
O O14 0.355194 0.855194 0.199269
O O15 0.404047 0.807650 0.000000
O O16 0.500000 0.000000 0.178726
O O17 0.552709 0.052709 0.000000
#
# Coordination Sequence:
#
# PCOD9563832 Si02
#       6
#    16  16  16  16  16   8
#     4  12  23  33  46  60  77 104 138 175 213 255
#     4  10  20  32  45  60  80 105 134 172 213 251
#     4   8  14  25  42  62  83 103 126 157 196 242
#     4   8  14  26  43  62  82 103 127 160 198 241
#     4  10  19  30  44  60  81 105 131 167 208 249
#     4  11  23  37  49  59  75  99 133 179 225 261
#
# _framework density 13.282594
#
# number of rings (size 3 to 8) (size 9 to 14) (size 15 to 20)
#    0.000    2.273    0.909    4.636    0.000    5.455 
#    0.000    3.636    0.000    0.000    0.000    0.000 
#    0.000    0.000    0.000    0.000    0.000    0.909 
#
# Total GULP energy -490572.846887 kJ/mol
# GULP energy per Si atom -5574.691442 kJ/mol
# Density = 1.325236 g / cm^3
# Si number density = 13.282594 Si / 1000 Ang^3
#
#
#
# Elastic Constant Matrix: (Units=GPa)
#
#
# Indices 1 2 3 4 5 6 
#
# 1 52.9276 55.1275 53.7995 0.0000 0.0000 0.0000
# 2 55.1275 52.9276 53.7995 0.0000 0.0000 0.0000
# 3 53.7995 53.7995 102.3874 0.0000 0.0000 0.0000
# 4 0.0000 0.0000 0.0000 18.7391 0.0000 0.0000
# 5 0.0000 0.0000 0.0000 0.0000 18.7391 0.0000
# 6 0.0000 0.0000 0.0000 0.0000 0.0000 19.4528
#
#
#
# Elastic Compliance Matrix: (Units=1/GPa)
#
#
# Indices 1 2 3 4 5 6 
#
# 1 -0.217586 0.236997 -0.010199 0.000000 0.000000 0.000000
# 2 0.236997 -0.217586 -0.010199 0.000000 0.000000 0.000000
# 3 -0.010199 -0.010199 0.020485 0.000000 0.000000 0.000000
# 4 0.000000 0.000000 0.000000 0.053364 0.000000 0.000000
# 5 0.000000 0.000000 0.000000 0.000000 0.053364 0.000000
# 6 0.000000 0.000000 0.000000 0.000000 0.000000 0.051406
#
#
# Mechanical properties :
#
#
# Convention : Reuss Voigt Hill
#
# Bulk Modulus (GPa) = 54.02648 59.29950 56.66299
# Shear Modulus (GPa) = -7.31445 14.42064 3.55309
#
# Velocity S-wave (km/s) = -2.34920 3.29854 1.63732
# Velocity P-wave (km/s) = 5.77967 7.69731 6.80636
#
# Compressibility (1/GPa) = 0.01850944
#
# Stress axis : x y z
#
# Youngs Moduli (GPa) = -4.59588 -4.59588 48.81507
#
# Poissons Ratio (x) = 1.08921 0.49789
# Poissons Ratio (y) = 1.08921 0.49789
# Poissons Ratio (z) = -0.04688 -0.04688
#
# Static dielectric constant tensor:
#      x y z
#    x 1.427610 0.000000 0.000000 
#    y 0.000000 1.427610 0.000000 
#    z 0.000000 0.000000 1.440310 
# 
# From -- ./inp_files/2190.got.cif
#   From: 2010.05.17/outbox.cif.g08.bks.cpg/sg127_2_cif.got.tgz:2190.got - 2010.05.20 12:03:00.
