data_PCOD9563436
_publ_section_title
;
Structure prediction by ZEFSAII (Michael W. Deem and Ramdas Pophale) SiO2 
 PCOD9563436
Probable space group: P 4/N N C
;
_chemical_formula_sum "Si O2"
_cell_formula_units_Z 128
_cell_length_a 16.445878
_cell_length_b 16.445878
_cell_length_c 24.897793
_cell_angle_alpha 90.000000
_cell_angle_beta 90.000000
_cell_angle_gamma 90.000000
_cell_volume 6734.028969
_symmetry_space_group_name_H-M "P 4/N N C"
_symmetry_group_IT_number 126
_space_group.IT_coordinate_system_code '2'
_symmetry_cell_setting 'tetragonal'
loop_
_space_group_symop_operation_xyz
x,y,z
1/2-y,x,z
1/2-x,1/2-y,z
y,1/2-x,z
x,1/2-y,1/2-z
1/2-x,y,1/2-z
y,x,1/2-z
1/2-y,1/2-x,1/2-z
-x,-y,-z
1/2+y,-x,-z
1/2+x,1/2+y,-z
-y,1/2+x,-z
-x,1/2+y,1/2+z
1/2+x,-y,1/2+z
-y,-x,1/2+z
1/2+y,1/2+x,1/2+z
loop_
_atom_site_type_symbol
_atom_site_label
_atom_site_fract_x
_atom_site_fract_y
_atom_site_fract_z
Si Si1 0.365521 0.175703 0.972796
Si Si2 0.845473 0.086853 0.760994
Si Si3 0.324695 0.855054 0.481915
Si Si4 0.807392 0.872831 0.905741
Si Si5 0.109588 0.081673 0.195591
Si Si6 0.561254 0.372678 0.147518
Si Si7 0.288377 0.660244 0.133832
Si Si8 0.925854 0.486727 0.457032
O O1 0.357799 0.273420 0.965124
O O2 0.398485 0.169790 0.034407
O O3 0.429250 0.119517 0.941934
O O4 0.750000 0.062128 0.750000
O O5 0.883178 0.112845 0.703583
O O6 0.834837 0.149270 0.809941
O O7 0.896253 0.010349 0.783047
O O8 0.355178 0.772062 0.509164
O O9 0.342841 0.852044 0.418741
O O10 0.363409 0.930473 0.510826
O O11 0.713046 0.853241 0.902124
O O12 0.830123 0.923778 0.854196
O O13 0.131151 0.131151 0.250000
O O14 0.029247 0.121919 0.171219
O O15 0.594279 0.284838 0.129296
O O16 0.559133 0.435951 0.098109
O O17 0.250000 0.750000 0.130639
O O18 0.000000 0.500000 0.500000
#
# Coordination Sequence:
#
# PCOD9563436 Si02
#       8
#    16  16  16  16  16  16  16  16
#     4   9  21  41  59  82 119 162 205 255 311 367
#     4   9  22  37  59  81 110 162 204 244 303 365
#     4  11  22  41  60  90 133 165 195 257 329 372
#     4   9  19  31  48  74 108 148 194 238 273 324
#     4  10  21  34  52  74 114 152 188 238 291 344
#     4  10  22  40  51  85 121 146 199 259 297 360
#     4  11  21  39  65  88 115 161 208 252 310 385
#     4  12  25  36  61  92 121 166 215 257 315 389
#
# _framework density 19.007936000000001
#
# number of rings (size 3 to 8) (size 9 to 14) (size 15 to 20)
#    0.000    1.875    2.500    1.500   10.500    3.250 
#    0.000    0.625    0.000    1.500    0.000    0.000 
#    0.000    0.000    0.000   14.625    0.000    0.000 
#
# Total GULP energy -712720.620446 kJ/mol
# GULP energy per Si atom -5568.129847 kJ/mol
# Density = 1.896467 g / cm^3
# Si number density = 19.007936 Si / 1000 Ang^3
#
#
#
# Elastic Constant Matrix: (Units=GPa)
#
#
# Indices 1 2 3 4 5 6 
#
# 1 42.2826 40.5225 15.0958 0.0000 0.0000 0.0000
# 2 40.5225 42.2826 15.0958 0.0000 0.0000 0.0000
# 3 15.0958 15.0958 119.3841 0.0000 0.0000 0.0000
# 4 0.0000 0.0000 0.0000 28.6059 0.0000 0.0000
# 5 0.0000 0.0000 0.0000 0.0000 28.6059 0.0000
# 6 0.0000 0.0000 0.0000 0.0000 0.0000 16.5309
#
#
#
# Elastic Compliance Matrix: (Units=1/GPa)
#
#
# Indices 1 2 3 4 5 6 
#
# 1 0.290404 -0.277743 -0.001601 0.000000 0.000000 0.000000
# 2 -0.277743 0.290404 -0.001601 0.000000 0.000000 0.000000
# 3 -0.001601 -0.001601 0.008781 0.000000 0.000000 0.000000
# 4 0.000000 0.000000 0.000000 0.034958 0.000000 0.000000
# 5 0.000000 0.000000 0.000000 0.000000 0.034958 0.000000
# 6 0.000000 0.000000 0.000000 0.000000 0.000000 0.060493
#
#
# Mechanical properties :
#
#
# Convention : Reuss Voigt Hill
#
# Bulk Modulus (GPa) = 36.10338 38.37527 37.23932
# Shear Modulus (GPa) = 3.87261 23.63090 13.75175
#
# Velocity S-wave (km/s) = 1.42891 3.52975 2.69267
# Velocity P-wave (km/s) = 4.66449 6.07001 5.41306
#
# Compressibility (1/GPa) = 0.02769824
#
# Stress axis : x y z
#
# Youngs Moduli (GPa) = 3.44348 3.44348 113.87998
#
# Poissons Ratio (x) = 0.95640 0.18231
# Poissons Ratio (y) = 0.95640 0.18231
# Poissons Ratio (z) = 0.00551 0.00551
#
# Static dielectric constant tensor:
#      x y z
#    x 1.689850 0.000000 0.000000 
#    y 0.000000 1.689850 0.000000 
#    z 0.000000 0.000000 1.783170 
# 
# From -- ./inp_files/5965.got.cif
#   From: 2010.05.17/outbox.cif.g08.bks.cpg/sg126_3_cif.got.tgz:5965.got - 2010.05.20 11:58:20.
