data_PCOD9563765
_publ_section_title
;
Structure prediction by ZEFSAII (Michael W. Deem and Ramdas Pophale) SiO2 
 PCOD9563765
Probable space group: P 4/M B M
;
_chemical_formula_sum "Si O2"
_cell_formula_units_Z 104
_cell_length_a 18.589615
_cell_length_b 18.589615
_cell_length_c 18.587541
_cell_angle_alpha 90.000000
_cell_angle_beta 90.000000
_cell_angle_gamma 90.000000
_cell_volume 6423.366913
_symmetry_space_group_name_H-M "P 4/M B M"
_symmetry_group_IT_number 127
_symmetry_cell_setting 'tetragonal'
loop_
_space_group_symop_operation_xyz
x,y,z
-y,x,z
-x,-y,z
y,-x,z
1/2+x,1/2-y,-z
1/2-x,1/2+y,-z
1/2+y,1/2+x,-z
1/2-y,1/2-x,-z
-x,-y,-z
y,-x,-z
x,y,-z
-y,x,-z
1/2-x,1/2+y,z
1/2+x,1/2-y,z
1/2-y,1/2-x,z
1/2+y,1/2+x,z
loop_
_atom_site_type_symbol
_atom_site_label
_atom_site_fract_x
_atom_site_fract_y
_atom_site_fract_z
Si Si1 0.196909 0.180070 0.346066
Si Si2 0.442807 0.057194 0.086964
Si Si3 0.289284 0.909746 0.586854
Si Si4 0.159170 0.778304 0.184575
Si Si5 0.075228 0.692088 0.586299
Si Si6 0.462173 0.222755 0.084139
Si Si7 0.370315 0.757046 0.919269
O O1 0.254952 0.245049 0.344907
O O2 0.125830 0.218210 0.377559
O O3 0.191633 0.151365 0.264806
O O4 0.235499 0.117985 0.392244
O O5 0.459401 0.139098 0.105736
O O6 0.500000 0.000000 0.116005
O O7 0.446450 0.053551 0.000000
O O8 0.280018 0.908952 0.500000
O O9 0.357218 0.857218 0.602897
O O10 0.304652 0.991976 0.610364
O O11 0.202625 0.702625 0.188860
O O12 0.087846 0.765844 0.138566
O O13 0.209623 0.831379 0.139548
O O14 0.073726 0.686946 0.500000
O O15 0.124085 0.624085 0.612676
O O16 0.544786 0.245341 0.087598
O O17 0.438073 0.228787 0.000000
O O18 0.337681 0.837681 0.913402
O O19 0.350769 0.731853 0.000000
#
# Coordination Sequence:
#
# PCOD9563765 Si02
#       7
#    16   8  16  16  16  16  16
#     4   9  18  31  47  68  95 131 169 203 236 284
#     4   9  16  26  44  70  98 124 153 190 242 301
#     4   9  17  30  50  75 101 130 164 200 240 288
#     4  10  19  31  47  68  92 127 168 204 240 283
#     4   9  17  30  50  76 103 130 159 197 243 290
#     4  10  18  29  47  70  95 125 159 202 248 293
#     4   9  18  31  47  68  95 123 157 201 248 296
#
# _framework density 16.190885000000002
#
# number of rings (size 3 to 8) (size 9 to 14) (size 15 to 20)
#    0.000    2.692    0.769    1.385    0.000    5.846 
#    0.000    1.538    0.000    1.846    0.000    6.462 
#    0.000    0.000    0.000    0.000    0.000    0.000 
#
# Total GULP energy -579054.477235 kJ/mol
# GULP energy per Si atom -5567.831512 kJ/mol
# Density = 1.615403 g / cm^3
# Si number density = 16.190885 Si / 1000 Ang^3
#
#
#
# Elastic Constant Matrix: (Units=GPa)
#
#
# Indices 1 2 3 4 5 6 
#
# 1 99.2028 31.5511 31.5894 0.0000 0.0000 0.0000
# 2 31.5511 99.2036 31.5883 0.0000 0.0000 0.0000
# 3 31.5894 31.5883 43.2369 0.0000 0.0000 0.0000
# 4 0.0000 0.0000 0.0000 8.0706 0.0000 0.0000
# 5 0.0000 0.0000 0.0000 0.0000 8.0705 0.0000
# 6 0.0000 0.0000 0.0000 0.0000 0.0000 16.7101
#
#
#
# Elastic Compliance Matrix: (Units=1/GPa)
#
#
# Indices 1 2 3 4 5 6 
#
# 1 0.013301 -0.001480 -0.008637 0.000000 0.000000 0.000000
# 2 -0.001480 0.013301 -0.008636 0.000000 0.000000 0.000000
# 3 -0.008637 -0.008636 0.035748 0.000000 0.000000 0.000000
# 4 0.000000 0.000000 0.000000 0.123906 0.000000 0.000000
# 5 0.000000 0.000000 0.000000 0.000000 0.123908 0.000000
# 6 0.000000 0.000000 0.000000 0.000000 0.000000 0.059844
#
#
# Mechanical properties :
#
#
# Convention : Reuss Voigt Hill
#
# Bulk Modulus (GPa) = 40.25078 47.90009 44.07544
# Shear Modulus (GPa) = 12.02514 16.36454 14.19484
#
# Velocity S-wave (km/s) = 2.72823 3.18264 2.96415
# Velocity P-wave (km/s) = 5.90241 6.56920 6.24471
#
# Compressibility (1/GPa) = 0.02484424
#
# Stress axis : x y z
#
# Youngs Moduli (GPa) = 75.18033 75.18267 27.97385
#
# Poissons Ratio (x) = 0.11130 0.24160
# Poissons Ratio (y) = 0.11129 0.24158
# Poissons Ratio (z) = 0.64930 0.64927
#
# Static dielectric constant tensor:
#      x y z
#    x 1.536170 0.000000 0.000000 
#    y 0.000000 1.536170 0.000000 
#    z 0.000000 0.000000 1.552610 
# 
# From -- ./inp_files/5204.got.cif
#   From: 2010.05.17/outbox.cif.g08.bks.cpg/sg127_3_cif.got.tgz:5204.got - 2010.05.20 12:03:00.
