data_PCOD9563249
_publ_section_title
;
Structure prediction by ZEFSAII (Michael W. Deem and Ramdas Pophale) SiO2 
 PCOD9563249
Probable space group: P 4/N B M
;
_chemical_formula_sum "Si O2"
_cell_formula_units_Z 88
_cell_length_a 13.583498
_cell_length_b 13.583498
_cell_length_c 28.489851
_cell_angle_alpha 90.000000
_cell_angle_beta 90.000000
_cell_angle_gamma 90.000000
_cell_volume 5256.702804
_symmetry_space_group_name_H-M "P 4/N B M"
_symmetry_group_IT_number 125
_space_group.IT_coordinate_system_code '2'
_symmetry_cell_setting 'tetragonal'
loop_
_space_group_symop_operation_xyz
x,y,z
1/2-y,x,z
1/2-x,1/2-y,z
y,1/2-x,z
x,1/2-y,-z
1/2-x,y,-z
y,x,-z
1/2-y,1/2-x,-z
-x,-y,-z
1/2+y,-x,-z
1/2+x,1/2+y,-z
-y,1/2+x,-z
-x,1/2+y,z
1/2+x,-y,z
-y,-x,z
1/2+y,1/2+x,z
loop_
_atom_site_type_symbol
_atom_site_label
_atom_site_fract_x
_atom_site_fract_y
_atom_site_fract_z
Si Si1 0.250002 0.584216 0.630723
Si Si2 0.750006 0.084578 0.737365
Si Si3 0.915506 0.749999 0.553742
Si Si4 0.414064 0.250011 0.186973
Si Si5 0.250008 0.415259 0.922952
Si Si6 0.083603 0.750000 0.000000
O O1 0.344638 0.655363 0.625919
O O2 0.155373 0.655373 0.625921
O O3 0.250001 0.544021 0.684093
O O4 0.249997 0.500632 0.591852
O O5 0.844587 0.155414 0.741867
O O6 0.655451 0.155451 0.741862
O O7 0.749985 0.002952 0.777074
O O8 0.844691 0.844690 0.559148
O O9 0.953211 0.750000 0.500000
O O10 0.344829 0.344841 0.194390
O O11 0.442987 0.250011 0.132070
O O12 0.155154 0.344856 0.931682
O O13 0.250010 0.510289 0.955563
O O14 0.154924 0.845077 0.000004
#
# Coordination Sequence:
#
# PCOD9563249 Si02
#       6
#    16  16  16  16  16   8
#     4   9  19  35  52  72 100 133 169 207 247 294
#     4   9  19  35  52  72 102 137 169 204 248 296
#     4   9  19  35  52  72 100 131 163 203 252 302
#     4   9  19  35  54  78 105 131 165 209 252 296
#     4   9  19  37  58  77 100 133 171 209 250 297
#     4  11  24  37  50  76 110 137 166 207 252 298
#
# _framework density 16.740531000000001
#
# number of rings (size 3 to 8) (size 9 to 14) (size 15 to 20)
#    0.000    2.818    0.000    3.273    0.000    7.273 
#    0.000   13.636    0.000    0.000    0.000    0.000 
#    0.000    0.000    0.000    0.000    0.000    0.000 
#
# Total GULP energy -490756.297459 kJ/mol
# GULP energy per Si atom -5576.776107 kJ/mol
# Density = 1.670243 g / cm^3
# Si number density = 16.740531 Si / 1000 Ang^3
#
#
#
# Elastic Constant Matrix: (Units=GPa)
#
#
# Indices 1 2 3 4 5 6 
#
# 1 115.3209 39.0911 103.4346 0.0000 0.0000 0.0000
# 2 39.0911 115.3209 103.4346 0.0000 0.0000 0.0000
# 3 103.4346 103.4346 170.0143 0.0000 0.0000 0.0000
# 4 0.0000 0.0000 0.0000 44.1163 0.0000 0.0000
# 5 0.0000 0.0000 0.0000 0.0000 44.1163 0.0000
# 6 0.0000 0.0000 0.0000 0.0000 0.0000 1.2558
#
#
#
# Elastic Compliance Matrix: (Units=1/GPa)
#
#
# Indices 1 2 3 4 5 6 
#
# 1 0.024069 0.010951 -0.021306 0.000000 0.000000 0.000000
# 2 0.010951 0.024069 -0.021306 0.000000 0.000000 0.000000
# 3 -0.021306 -0.021306 0.031806 0.000000 0.000000 0.000000
# 4 0.000000 0.000000 0.000000 0.022667 0.000000 0.000000
# 5 0.000000 0.000000 0.000000 0.000000 0.022667 0.000000
# 6 0.000000 0.000000 0.000000 0.000000 0.000000 0.796335
#
#
# Mechanical properties :
#
#
# Convention : Reuss Voigt Hill
#
# Bulk Modulus (GPa) = 60.15704 99.17519 79.66612
# Shear Modulus (GPa) = 5.04808 28.21071 16.62939
#
# Velocity S-wave (km/s) = 1.73840 4.10954 3.15518
# Velocity P-wave (km/s) = 6.32790 9.04925 7.80805
#
# Compressibility (1/GPa) = 0.01662316
#
# Stress axis : x y z
#
# Youngs Moduli (GPa) = 41.54715 41.54715 31.44057
#
# Poissons Ratio (x) = -0.45497 0.66986
# Poissons Ratio (y) = -0.45497 0.66986
# Poissons Ratio (z) = 0.88519 0.88519
#
# Static dielectric constant tensor:
#      x y z
#    x 1.544150 0.000000 0.000000 
#    y 0.000000 1.544150 0.000000 
#    z 0.000000 0.000000 1.555540 
# 
# From -- ./inp_files/6552.got.cif
#   From: 2010.05.17/outbox.cif.g08.bks.cpg/sg125_4_cif.got.tgz:6552.got - 2010.05.20 11:54:10.
