data_PCOD9563549
_publ_section_title
;
Structure prediction by ZEFSAII (Michael W. Deem and Ramdas Pophale) SiO2 
 PCOD9563549
Probable space group: P 4/N N C
;
_chemical_formula_sum "Si O2"
_cell_formula_units_Z 120
_cell_length_a 17.353036
_cell_length_b 17.353036
_cell_length_c 21.193224
_cell_angle_alpha 90.000000
_cell_angle_beta 90.000000
_cell_angle_gamma 90.000000
_cell_volume 6381.870156
_symmetry_space_group_name_H-M "P 4/N N C"
_symmetry_group_IT_number 126
_space_group.IT_coordinate_system_code '2'
_symmetry_cell_setting 'tetragonal'
loop_
_space_group_symop_operation_xyz
x,y,z
1/2-y,x,z
1/2-x,1/2-y,z
y,1/2-x,z
x,1/2-y,1/2-z
1/2-x,y,1/2-z
y,x,1/2-z
1/2-y,1/2-x,1/2-z
-x,-y,-z
1/2+y,-x,-z
1/2+x,1/2+y,-z
-y,1/2+x,-z
-x,1/2+y,1/2+z
1/2+x,-y,1/2+z
-y,-x,1/2+z
1/2+y,1/2+x,1/2+z
loop_
_atom_site_type_symbol
_atom_site_label
_atom_site_fract_x
_atom_site_fract_y
_atom_site_fract_z
Si Si1 0.243191 0.657182 0.824417
Si Si2 0.837000 0.075863 0.064323
Si Si3 0.533063 0.544683 0.061939
Si Si4 0.800878 0.081696 0.812778
Si Si5 0.377018 0.250000 0.250000
Si Si6 0.309936 0.028798 0.136799
Si Si7 0.049144 0.485116 0.316112
Si Si8 0.183787 0.973643 0.493426
O O1 0.250000 0.750000 0.830586
O O2 0.250000 0.636484 0.750000
O O3 0.299984 0.612493 0.871642
O O4 0.152606 0.649878 0.838937
O O5 0.900189 0.133890 0.032946
O O6 0.884557 0.996184 0.074128
O O7 0.764897 0.057336 0.018918
O O8 0.483853 0.528182 0.123940
O O9 0.500000 0.500000 0.000000
O O10 0.518728 0.633507 0.045535
O O11 0.750000 0.100028 0.750000
O O12 0.732618 0.053727 0.857652
O O13 0.864860 0.015793 0.802102
O O14 0.324168 0.324168 0.250000
O O15 0.421646 0.258920 0.184487
O O16 0.395798 0.039238 0.163159
O O17 0.309004 0.037287 0.062331
O O18 0.005202 0.494799 0.250000
#
# Coordination Sequence:
#
# PCOD9563549 Si02
#       8
#    16  16  16  16   8  16  16  16
#     4  11  24  38  59  89 132 164 201 262 331 398
#     4  11  25  43  65  93 134 173 220 274 329 398
#     4  10  23  45  62  92 132 169 232 277 321 397
#     4  12  23  36  57  92 128 164 216 259 326 395
#     4  11  24  40  58  94 133 168 230 284 319 384
#     4  12  22  39  60  87 125 171 220 264 329 391
#     4  12  23  37  64  87 123 172 223 266 330 396
#     4  11  26  42  67  95 126 180 220 274 336 396
#
# _framework density 18.803266000000001
#
# number of rings (size 3 to 8) (size 9 to 14) (size 15 to 20)
#    0.000    0.733    6.000    2.800    9.333    1.067 
#    0.000    0.000    0.000    0.400    0.000    0.000 
#    0.000    0.000    0.000    0.000    0.000    0.000 
#
# Total GULP energy -668369.963162 kJ/mol
# GULP energy per Si atom -5569.749693 kJ/mol
# Density = 1.876047 g / cm^3
# Si number density = 18.803266 Si / 1000 Ang^3
#
#
#
# Elastic Constant Matrix: (Units=GPa)
#
#
# Indices 1 2 3 4 5 6 
#
# 1 88.8628 55.5046 47.7488 0.0000 0.0000 0.0000
# 2 55.5046 88.8620 47.7489 0.0000 0.0000 0.0000
# 3 47.7488 47.7489 128.7539 0.0000 0.0000 0.0000
# 4 0.0000 0.0000 0.0000 42.2956 0.0000 0.0000
# 5 0.0000 0.0000 0.0000 0.0000 42.2962 0.0000
# 6 0.0000 0.0000 0.0000 0.0000 0.0000 24.5225
#
#
#
# Elastic Compliance Matrix: (Units=1/GPa)
#
#
# Indices 1 2 3 4 5 6 
#
# 1 0.019578 -0.010400 -0.003404 0.000000 0.000000 0.000000
# 2 -0.010400 0.019578 -0.003404 0.000000 0.000000 0.000000
# 3 -0.003404 -0.003404 0.010291 0.000000 0.000000 0.000000
# 4 0.000000 0.000000 0.000000 0.023643 0.000000 0.000000
# 5 0.000000 0.000000 0.000000 0.000000 0.023643 0.000000
# 6 0.000000 0.000000 0.000000 0.000000 0.000000 0.040779
#
#
# Mechanical properties :
#
#
# Convention : Reuss Voigt Hill
#
# Bulk Modulus (GPa) = 66.52101 67.60926 67.06514
# Shear Modulus (GPa) = 28.25838 32.18795 30.22317
#
# Velocity S-wave (km/s) = 3.88086 4.14191 4.01351
# Velocity P-wave (km/s) = 7.45222 7.67516 7.56451
#
# Compressibility (1/GPa) = 0.01503284
#
# Stress axis : x y z
#
# Youngs Moduli (GPa) = 51.07745 51.07687 97.16843
#
# Poissons Ratio (x) = 0.53119 0.33074
# Poissons Ratio (y) = 0.53120 0.33075
# Poissons Ratio (z) = 0.17386 0.17386
#
# Static dielectric constant tensor:
#      x y z
#    x 1.724910 0.000000 0.000000 
#    y 0.000000 1.724910 0.000000 
#    z 0.000000 0.000000 1.751270 
# 
# From -- ./inp_files/5464.got.cif
#   From: 2010.05.17/outbox.cif.g08.bks.cpg/sg126_3_cif.got.tgz:5464.got - 2010.05.20 11:58:20.
