data_PCOD9563060
_publ_section_title
;
Structure prediction by ZEFSAII (Michael W. Deem and Ramdas Pophale) SiO2 
 PCOD9563060
Probable space group: P 4/N B M
;
_chemical_formula_sum "Si O2"
_cell_formula_units_Z 80
_cell_length_a 27.508288
_cell_length_b 27.508288
_cell_length_c 4.884409
_cell_angle_alpha 90.000000
_cell_angle_beta 90.000000
_cell_angle_gamma 90.000000
_cell_volume 3696.061151
_symmetry_space_group_name_H-M "P 4/N B M"
_symmetry_group_IT_number 125
_space_group.IT_coordinate_system_code '2'
_symmetry_cell_setting 'tetragonal'
loop_
_space_group_symop_operation_xyz
x,y,z
1/2-y,x,z
1/2-x,1/2-y,z
y,1/2-x,z
x,1/2-y,-z
1/2-x,y,-z
y,x,-z
1/2-y,1/2-x,-z
-x,-y,-z
1/2+y,-x,-z
1/2+x,1/2+y,-z
-y,1/2+x,-z
-x,1/2+y,z
1/2+x,-y,z
-y,-x,z
1/2+y,1/2+x,z
loop_
_atom_site_type_symbol
_atom_site_label
_atom_site_fract_x
_atom_site_fract_y
_atom_site_fract_z
Si Si1 0.114766 0.191793 0.462692
Si Si2 0.993319 0.572053 0.304286
Si Si3 0.067867 0.643170 0.596637
Si Si4 0.047093 0.800688 0.900488
Si Si5 0.841730 0.554311 0.030835
O O1 0.113456 0.250000 0.500000
O O2 0.167357 0.167357 0.500000
O O3 0.097177 0.176124 0.164179
O O4 0.076014 0.165002 0.666913
O O5 0.955894 0.544107 0.500000
O O6 0.966769 0.606590 0.081375
O O7 0.031964 0.531964 0.189501
O O8 0.025206 0.606829 0.502309
O O9 0.117810 0.617810 0.519533
O O10 0.056809 0.690098 0.415538
O O11 0.068189 0.655660 0.914931
O O12 0.990430 0.805379 0.976182
O O13 0.067174 0.750000 0.000000
#
# Coordination Sequence:
#
# PCOD9563060 Si02
#       5
#    16  16  16  16  16
#     4  12  26  44  66  89 115 151 200 259 322 379
#     4   9  19  37  61  89 123 165 207 241 283 345
#     4  10  21  36  55  82 117 152 188 237 282 325
#     4  11  21  36  58  83 115 153 193 233 281 344
#     4  11  23  40  63  89 122 156 194 245 299 357
#
# _framework density 21.644662
#
# number of rings (size 3 to 8) (size 9 to 14) (size 15 to 20)
#    0.000    1.400    0.000    6.600    0.000    2.600 
#    0.000    4.000    0.000   33.000    0.000    0.000 
#    0.000   28.000    0.000    0.000    0.000    0.000 
#
# Total GULP energy -447415.426184 kJ/mol
# GULP energy per Si atom -5592.692827 kJ/mol
# Density = 2.159540 g / cm^3
# Si number density = 21.644662 Si / 1000 Ang^3
#
#
#
# Elastic Constant Matrix: (Units=GPa)
#
#
# Indices 1 2 3 4 5 6 
#
# 1 85.4599 48.1565 2.7642 0.0000 0.0000 0.0000
# 2 48.1565 85.4599 2.7645 0.0000 0.0000 0.0000
# 3 2.7642 2.7645 59.2272 0.0000 0.0000 0.0000
# 4 0.0000 0.0000 0.0000 13.9769 0.0000 0.0000
# 5 0.0000 0.0000 0.0000 0.0000 13.9773 0.0000
# 6 0.0000 0.0000 0.0000 0.0000 0.0000 18.9245
#
#
#
# Elastic Compliance Matrix: (Units=1/GPa)
#
#
# Indices 1 2 3 4 5 6 
#
# 1 0.017153 -0.009654 -0.000350 0.000000 0.000000 0.000000
# 2 -0.009654 0.017153 -0.000350 0.000000 0.000000 0.000000
# 3 -0.000350 -0.000350 0.016917 0.000000 0.000000 0.000000
# 4 0.000000 0.000000 0.000000 0.071546 0.000000 0.000000
# 5 0.000000 0.000000 0.000000 0.000000 0.071545 0.000000
# 6 0.000000 0.000000 0.000000 0.000000 0.000000 0.052842
#
#
# Mechanical properties :
#
#
# Convention : Reuss Voigt Hill
#
# Bulk Modulus (GPa) = 32.77180 37.50193 35.13687
# Shear Modulus (GPa) = 17.98333 21.13985 19.56159
#
# Velocity S-wave (km/s) = 2.88556 3.12857 3.00952
# Velocity P-wave (km/s) = 5.12598 5.51493 5.32401
#
# Compressibility (1/GPa) = 0.03051404
#
# Stress axis : x y z
#
# Youngs Moduli (GPa) = 58.29914 58.29912 59.11283
#
# Poissons Ratio (x) = 0.56284 0.02068
# Poissons Ratio (y) = 0.56284 0.02069
# Poissons Ratio (z) = 0.02040 0.02041
#
# Static dielectric constant tensor:
#      x y z
#    x 1.815070 0.000000 0.000000 
#    y 0.000000 1.815070 0.000000 
#    z 0.000000 0.000000 1.782890 
# 
# From -- ./inp_files/1158.got.cif
#   From: 2010.05.17/outbox.cif.g08.bks.cpg/sg125_1_cif.got.tgz:1158.got - 2010.05.20 11:54:10.
