data_PCOD9563482
_publ_section_title
;
Structure prediction by ZEFSAII (Michael W. Deem and Ramdas Pophale) SiO2 
 PCOD9563482
Probable space group: P 4/N N C
;
_chemical_formula_sum "Si O2"
_cell_formula_units_Z 64
_cell_length_a 14.031447
_cell_length_b 14.031447
_cell_length_c 14.035433
_cell_angle_alpha 90.000000
_cell_angle_beta 90.000000
_cell_angle_gamma 90.000000
_cell_volume 2763.317171
_symmetry_space_group_name_H-M "P 4/N N C"
_symmetry_group_IT_number 126
_space_group.IT_coordinate_system_code '2'
_symmetry_cell_setting 'tetragonal'
loop_
_space_group_symop_operation_xyz
x,y,z
1/2-y,x,z
1/2-x,1/2-y,z
y,1/2-x,z
x,1/2-y,1/2-z
1/2-x,y,1/2-z
y,x,1/2-z
1/2-y,1/2-x,1/2-z
-x,-y,-z
1/2+y,-x,-z
1/2+x,1/2+y,-z
-y,1/2+x,-z
-x,1/2+y,1/2+z
1/2+x,-y,1/2+z
-y,-x,1/2+z
1/2+y,1/2+x,1/2+z
loop_
_atom_site_type_symbol
_atom_site_label
_atom_site_fract_x
_atom_site_fract_y
_atom_site_fract_z
Si Si1 0.162294 0.695163 0.650744
Si Si2 0.016777 0.237537 0.645037
Si Si3 0.837753 0.554133 0.821240
Si Si4 0.591952 0.567661 0.481303
O O1 0.250000 0.750000 0.599284
O O2 0.156201 0.750000 0.750000
O O3 0.196789 0.588307 0.660211
O O4 0.049464 0.685875 0.631105
O O5 0.060382 0.250000 0.750000
O O6 0.010912 0.333635 0.584306
O O7 0.068004 0.159469 0.581248
O O8 0.750000 0.580014 0.750000
O O9 0.928858 0.571143 0.750000
O O10 0.865745 0.606446 0.918684
O O11 0.500000 0.500000 0.500000
#
# Coordination Sequence:
#
# PCOD9563482 Si02
#       4
#    16  16  16  16
#     4  10  21  42  72 112 150 206 267 316 415 484
#     4  12  26  49  76 111 165 214 265 339 416 493
#     4  11  25  47  79 112 162 210 266 345 407 484
#     4  12  28  47  76 121 154 211 280 334 410 501
#
# _framework density 23.16057
#
# number of rings (size 3 to 8) (size 9 to 14) (size 15 to 20)
#    0.000    0.750    5.000    2.250    3.500    2.750 
#    0.000    3.750    0.000    0.000    0.000    0.000 
#    0.000    0.000    0.000    0.000    0.000    0.000 
#
# Total GULP energy -356611.315330 kJ/mol
# GULP energy per Si atom -5572.051802 kJ/mol
# Density = 2.310786 g / cm^3
# Si number density = 23.160570 Si / 1000 Ang^3
#
#
#
# Elastic Constant Matrix: (Units=GPa)
#
#
# Indices 1 2 3 4 5 6 
#
# 1 92.4309 15.0347 59.4213 0.0000 0.0000 0.0000
# 2 15.0347 92.4339 59.4213 0.0000 0.0000 0.0000
# 3 59.4213 59.4213 218.9663 0.0000 0.0000 0.0000
# 4 0.0000 0.0000 0.0000 61.0168 0.0000 0.0000
# 5 0.0000 0.0000 0.0000 0.0000 61.0180 0.0000
# 6 0.0000 0.0000 0.0000 0.0000 0.0000 36.7255
#
#
#
# Elastic Compliance Matrix: (Units=1/GPa)
#
#
# Indices 1 2 3 4 5 6 
#
# 1 0.013108 0.000187 -0.003608 0.000000 0.000000 0.000000
# 2 0.000187 0.013107 -0.003608 0.000000 0.000000 0.000000
# 3 -0.003608 -0.003608 0.006525 0.000000 0.000000 0.000000
# 4 0.000000 0.000000 0.000000 0.016389 0.000000 0.000000
# 5 0.000000 0.000000 0.000000 0.000000 0.016389 0.000000
# 6 0.000000 0.000000 0.000000 0.000000 0.000000 0.027229
#
#
# Mechanical properties :
#
#
# Convention : Reuss Voigt Hill
#
# Bulk Modulus (GPa) = 53.52331 74.62064 64.07198
# Shear Modulus (GPa) = 44.23546 49.74898 46.99222
#
# Velocity S-wave (km/s) = 4.37504 4.63968 4.50930
# Velocity P-wave (km/s) = 6.97718 7.80967 7.40514
#
# Compressibility (1/GPa) = 0.01868345
#
# Stress axis : x y z
#
# Youngs Moduli (GPa) = 76.29007 76.29302 153.25517
#
# Poissons Ratio (x) = -0.01429 0.55294
# Poissons Ratio (y) = -0.01429 0.55291
# Poissons Ratio (z) = 0.27525 0.27525
#
# Static dielectric constant tensor:
#      x y z
#    x 2.004040 0.000000 0.000000 
#    y 0.000000 2.004030 0.000000 
#    z 0.000000 0.000000 1.863140 
# 
# From -- ./inp_files/3474.got.cif
#   From: 2010.05.17/outbox.cif.g08.bks.cpg/sg126_2_cif.got.tgz:3474.got - 2010.05.20 11:58:20.
