data_PCOD9563358
_publ_section_title
;
Structure prediction by ZEFSAII (Michael W. Deem and Ramdas Pophale) SiO2 
 PCOD9563358
Probable space group: P 4/N N C
;
_chemical_formula_sum "Si O2"
_cell_formula_units_Z 64
_cell_length_a 10.654147
_cell_length_b 10.654147
_cell_length_c 27.410494
_cell_angle_alpha 90.000000
_cell_angle_beta 90.000000
_cell_angle_gamma 90.000000
_cell_volume 3111.388426
_symmetry_space_group_name_H-M "P 4/N N C"
_symmetry_group_IT_number 126
_space_group.IT_coordinate_system_code '2'
_symmetry_cell_setting 'tetragonal'
loop_
_space_group_symop_operation_xyz
x,y,z
1/2-y,x,z
1/2-x,1/2-y,z
y,1/2-x,z
x,1/2-y,1/2-z
1/2-x,y,1/2-z
y,x,1/2-z
1/2-y,1/2-x,1/2-z
-x,-y,-z
1/2+y,-x,-z
1/2+x,1/2+y,-z
-y,1/2+x,-z
-x,1/2+y,1/2+z
1/2+x,-y,1/2+z
-y,-x,1/2+z
1/2+y,1/2+x,1/2+z
loop_
_atom_site_type_symbol
_atom_site_label
_atom_site_fract_x
_atom_site_fract_y
_atom_site_fract_z
Si Si1 0.878020 0.537513 0.969494
Si Si2 0.245706 0.037771 0.196093
Si Si3 0.808568 0.063165 0.906128
Si Si4 0.553699 0.786878 0.426753
O O1 0.812774 0.424177 0.940335
O O2 0.930456 0.633677 0.928268
O O3 0.783064 0.564844 0.014050
O O4 0.000000 0.500000 0.000000
O O5 0.367679 0.126966 0.193224
O O6 0.250000 0.978022 0.250000
O O7 0.233320 0.950401 0.149355
O O8 0.917172 0.164895 0.912331
O O9 0.607053 0.653783 0.409438
#
# Coordination Sequence:
#
# PCOD9563358 Si02
#       4
#    16  16  16  16
#     4  10  20  31  50  80 115 161 205 238 291 358
#     4   9  17  29  50  85 116 143 190 246 300 364
#     4  11  19  33  56  80 118 161 198 249 308 359
#     4  10  21  36  54  80 118 161 210 249 289 362
#
# _framework density 20.569593999999999
#
# number of rings (size 3 to 8) (size 9 to 14) (size 15 to 20)
#    0.000    2.000    5.000    0.750    0.000    0.500 
#    0.000    5.000    0.000    0.000    0.000   17.500 
#    0.000    8.000    0.000    0.000    0.000    0.000 
#
# Total GULP energy -356849.513332 kJ/mol
# GULP energy per Si atom -5575.773646 kJ/mol
# Density = 2.052278 g / cm^3
# Si number density = 20.569594 Si / 1000 Ang^3
#
#
#
# Elastic Constant Matrix: (Units=GPa)
#
#
# Indices 1 2 3 4 5 6 
#
# 1 80.6895 30.2344 34.2580 0.0000 0.0000 0.0000
# 2 30.2344 80.6895 34.2580 0.0000 0.0000 0.0000
# 3 34.2580 34.2580 148.3241 0.0000 0.0000 0.0000
# 4 0.0000 0.0000 0.0000 20.0909 0.0000 0.0000
# 5 0.0000 0.0000 0.0000 0.0000 20.0909 0.0000
# 6 0.0000 0.0000 0.0000 0.0000 0.0000 25.6580
#
#
#
# Elastic Compliance Matrix: (Units=1/GPa)
#
#
# Indices 1 2 3 4 5 6 
#
# 1 0.015167 -0.004652 -0.002429 0.000000 0.000000 0.000000
# 2 -0.004652 0.015167 -0.002429 0.000000 0.000000 0.000000
# 3 -0.002429 -0.002429 0.007864 0.000000 0.000000 0.000000
# 4 0.000000 0.000000 0.000000 0.049774 0.000000 0.000000
# 5 0.000000 0.000000 0.000000 0.000000 0.049774 0.000000
# 6 0.000000 0.000000 0.000000 0.000000 0.000000 0.038974
#
#
# Mechanical properties :
#
#
# Convention : Reuss Voigt Hill
#
# Bulk Modulus (GPa) = 52.13818 56.35600 54.24709
# Shear Modulus (GPa) = 24.73621 27.23149 25.98385
#
# Velocity S-wave (km/s) = 3.47156 3.64245 3.55803
# Velocity P-wave (km/s) = 6.43981 6.71916 6.58097
#
# Compressibility (1/GPa) = 0.01917980
#
# Stress axis : x y z
#
# Youngs Moduli (GPa) = 65.93056 65.93056 127.16346
#
# Poissons Ratio (x) = 0.30672 0.30884
# Poissons Ratio (y) = 0.30672 0.30884
# Poissons Ratio (z) = 0.16013 0.16013
#
# Static dielectric constant tensor:
#      x y z
#    x 1.846180 0.000000 0.000000 
#    y 0.000000 1.846180 0.000000 
#    z 0.000000 0.000000 1.723870 
# 
# From -- ./inp_files/6068.got.cif
#   From: 2010.05.17/outbox.cif.g08.bks.cpg/sg126_4_cif.got.tgz:6068.got - 2010.05.20 11:58:20.
