data_PCOD9563895
_publ_section_title
;
Structure prediction by ZEFSAII (Michael W. Deem and Ramdas Pophale) SiO2 
 PCOD9563895
Probable space group: P 4/M B M
;
_chemical_formula_sum "Si O2"
_cell_formula_units_Z 96
_cell_length_a 25.575321
_cell_length_b 25.575321
_cell_length_c 8.822730
_cell_angle_alpha 90.000000
_cell_angle_beta 90.000000
_cell_angle_gamma 90.000000
_cell_volume 5770.921615
_symmetry_space_group_name_H-M "P 4/M B M"
_symmetry_group_IT_number 127
_symmetry_cell_setting 'tetragonal'
loop_
_space_group_symop_operation_xyz
x,y,z
-y,x,z
-x,-y,z
y,-x,z
1/2+x,1/2-y,-z
1/2-x,1/2+y,-z
1/2+y,1/2+x,-z
1/2-y,1/2-x,-z
-x,-y,-z
y,-x,-z
x,y,-z
-y,x,-z
1/2-x,1/2+y,z
1/2+x,1/2-y,z
1/2-y,1/2-x,z
1/2+y,1/2+x,z
loop_
_atom_site_type_symbol
_atom_site_label
_atom_site_fract_x
_atom_site_fract_y
_atom_site_fract_z
Si Si1 0.965023 0.153922 0.817358
Si Si2 0.763981 0.482985 0.681410
Si Si3 0.661392 0.161392 0.818852
Si Si4 0.881707 0.466883 0.683184
Si Si5 0.574463 0.074463 0.818088
Si Si6 0.083727 0.132327 0.816727
Si Si7 0.395639 0.742038 0.319356
O O1 0.958148 0.212722 0.756271
O O2 0.919289 0.114790 0.768177
O O3 0.022658 0.133855 0.770114
O O4 0.964666 0.155739 0.000000
O O5 0.759897 0.476957 0.500000
O O6 0.820976 0.462975 0.730586
O O7 0.760908 0.545040 0.715897
O O8 0.617875 0.117875 0.775146
O O9 0.716488 0.143259 0.752901
O O10 0.663350 0.163350 0.000000
O O11 0.882274 0.472426 0.500000
O O12 0.916855 0.416855 0.723280
O O13 0.907518 0.518787 0.752803
O O14 0.571748 0.071748 0.000000
O O15 0.109373 0.184380 0.749060
O O16 0.085133 0.134946 0.000000
O O17 0.389935 0.740811 0.500000
#
# Coordination Sequence:
#
# PCOD9563895 Si02
#       7
#    16  16   8  16   8  16  16
#     4   9  18  32  53  77 104 135 167 204 250 304
#     4   9  18  32  50  72  97 129 170 212 250 297
#     4  11  21  32  50  75 102 134 168 212 262 307
#     4  10  20  34  51  70  97 135 174 213 258 305
#     4  11  22  32  47  74 106 134 164 210 262 306
#     4   9  18  33  52  78 107 136 168 205 251 306
#     4  10  19  32  52  75  99 130 169 211 254 300
#
# _framework density 16.635124999999999
#
# number of rings (size 3 to 8) (size 9 to 14) (size 15 to 20)
#    0.000    2.333    1.667    1.250    0.000    4.333 
#    0.000    1.667    1.833    0.000    0.000    4.667 
#    0.000    0.000    0.000    0.000    0.000    0.000 
#
# Total GULP energy -535484.665285 kJ/mol
# GULP energy per Si atom -5577.965263 kJ/mol
# Density = 1.659726 g / cm^3
# Si number density = 16.635125 Si / 1000 Ang^3
#
#
#
# Elastic Constant Matrix: (Units=GPa)
#
#
# Indices 1 2 3 4 5 6 
#
# 1 132.8748 101.1939 32.7874 0.0000 0.0000 0.0000
# 2 101.1939 132.8748 32.7874 0.0000 0.0000 0.0000
# 3 32.7874 32.7874 13.4065 0.0000 0.0000 0.0000
# 4 0.0000 0.0000 0.0000 23.8178 0.0000 0.0000
# 5 0.0000 0.0000 0.0000 0.0000 23.8178 0.0000
# 6 0.0000 0.0000 0.0000 0.0000 0.0000 29.1426
#
#
#
# Elastic Compliance Matrix: (Units=1/GPa)
#
#
# Indices 1 2 3 4 5 6 
#
# 1 0.022567 -0.008998 -0.033185 0.000000 0.000000 0.000000
# 2 -0.008998 0.022567 -0.033185 0.000000 0.000000 0.000000
# 3 -0.033185 -0.033185 0.236908 0.000000 0.000000 0.000000
# 4 0.000000 0.000000 0.000000 0.041985 0.000000 0.000000
# 5 0.000000 0.000000 0.000000 0.000000 0.041985 0.000000
# 6 0.000000 0.000000 0.000000 0.000000 0.000000 0.034314
#
#
# Mechanical properties :
#
#
# Convention : Reuss Voigt Hill
#
# Bulk Modulus (GPa) = 7.61580 68.07704 37.84642
# Shear Modulus (GPa) = 8.40573 22.84814 15.62694
#
# Velocity S-wave (km/s) = 2.25033 3.71008 3.06828
# Velocity P-wave (km/s) = 3.36750 7.70490 5.94582
#
# Compressibility (1/GPa) = 0.13130601
#
# Stress axis : x y z
#
# Youngs Moduli (GPa) = 44.31257 44.31257 4.22104
#
# Poissons Ratio (x) = 0.39872 0.14008
# Poissons Ratio (y) = 0.39872 0.14008
# Poissons Ratio (z) = 1.47052 1.47052
#
# Static dielectric constant tensor:
#      x y z
#    x 1.546360 0.000000 0.000000 
#    y 0.000000 1.546360 0.000000 
#    z 0.000000 0.000000 1.558270 
# 
# From -- ./inp_files/2092.got.cif
#   From: 2010.05.17/outbox.cif.g08.bks.cpg/sg127_2_cif.got.tgz:2092.got - 2010.05.20 12:03:00.
