data_PCOD9563808
_publ_section_title
;
Structure prediction by ZEFSAII (Michael W. Deem and Ramdas Pophale) SiO2 
 PCOD9563808
Probable space group: P 4/M B M
;
_chemical_formula_sum "Si O2"
_cell_formula_units_Z 52
_cell_length_a 14.654321
_cell_length_b 14.654321
_cell_length_c 12.303160
_cell_angle_alpha 90.000000
_cell_angle_beta 90.000000
_cell_angle_gamma 90.000000
_cell_volume 2642.092832
_symmetry_space_group_name_H-M "P 4/M B M"
_symmetry_group_IT_number 127
_symmetry_cell_setting 'tetragonal'
loop_
_space_group_symop_operation_xyz
x,y,z
-y,x,z
-x,-y,z
y,-x,z
1/2+x,1/2-y,-z
1/2-x,1/2+y,-z
1/2+y,1/2+x,-z
1/2-y,1/2-x,-z
-x,-y,-z
y,-x,-z
x,y,-z
-y,x,-z
1/2-x,1/2+y,z
1/2+x,1/2-y,z
1/2-y,1/2-x,z
1/2+y,1/2+x,z
loop_
_atom_site_type_symbol
_atom_site_label
_atom_site_fract_x
_atom_site_fract_y
_atom_site_fract_z
Si Si1 0.099194 0.599194 0.500000
Si Si2 0.422047 0.776973 0.500000
Si Si3 0.645024 0.547653 0.703145
Si Si4 0.077046 0.577046 0.733193
Si Si5 0.294683 0.946882 0.127070
O O1 0.142651 0.497548 0.500000
O O2 0.122414 0.622414 0.626435
O O3 0.324488 0.824488 0.500000
O O4 0.433875 0.715059 0.605797
O O5 0.556250 0.610674 0.694639
O O6 0.697940 0.563750 0.815368
O O7 0.150005 0.523776 0.806119
O O8 0.000000 0.500000 0.698972
O O9 0.355242 0.855242 0.137452
O O10 0.288899 0.969808 0.000000
#
# Coordination Sequence:
#
# PCOD9563808 Si02
#       5
#     4   8  16   8  16
#     4  12  21  34  68 102 128 160 194 255 326 385
#     4  12  23  43  68  97 130 160 204 265 327 383
#     4  11  25  45  64  87 129 176 214 255 314 386
#     4  10  18  34  61  95 132 162 196 256 331 379
#     4  10  21  40  65  94 128 164 211 270 323 373
#
# _framework density 19.681369
#
# number of rings (size 3 to 8) (size 9 to 14) (size 15 to 20)
#    0.000    1.231    3.077    3.692    0.000    4.308 
#   13.846    1.538    0.000    0.000    0.000    0.000 
#    0.000    0.000    0.000    0.000    0.000    0.000 
#
# Total GULP energy -290249.684519 kJ/mol
# GULP energy per Si atom -5581.724702 kJ/mol
# Density = 1.963657 g / cm^3
# Si number density = 19.681369 Si / 1000 Ang^3
#
#
#
# Elastic Constant Matrix: (Units=GPa)
#
#
# Indices 1 2 3 4 5 6 
#
# 1 83.3668 67.5406 65.3273 0.0000 0.0000 0.0000
# 2 67.5406 83.3668 65.3273 0.0000 0.0000 0.0000
# 3 65.3273 65.3273 166.3730 0.0000 0.0000 0.0000
# 4 0.0000 0.0000 0.0000 3.7646 0.0000 0.0000
# 5 0.0000 0.0000 0.0000 0.0000 3.7646 0.0000
# 6 0.0000 0.0000 0.0000 0.0000 0.0000 11.0907
#
#
#
# Elastic Compliance Matrix: (Units=1/GPa)
#
#
# Indices 1 2 3 4 5 6 
#
# 1 0.036613 -0.026573 -0.003942 0.000000 0.000000 0.000000
# 2 -0.026573 0.036613 -0.003942 0.000000 0.000000 0.000000
# 3 -0.003942 -0.003942 0.009106 0.000000 0.000000 0.000000
# 4 0.000000 0.000000 0.000000 0.265634 0.000000 0.000000
# 5 0.000000 0.000000 0.000000 0.000000 0.265634 0.000000
# 6 0.000000 0.000000 0.000000 0.000000 0.000000 0.090166
#
#
# Mechanical properties :
#
#
# Convention : Reuss Voigt Hill
#
# Bulk Modulus (GPa) = 74.53131 81.05522 77.79327
# Shear Modulus (GPa) = 6.43373 12.71806 9.57590
#
# Velocity S-wave (km/s) = 1.80998 2.54480 2.20817
# Velocity P-wave (km/s) = 6.50532 7.06455 6.79069
#
# Compressibility (1/GPa) = 0.01341718
#
# Stress axis : x y z
#
# Youngs Moduli (GPa) = 27.31270 27.31270 109.81313
#
# Poissons Ratio (x) = 0.72579 0.43290
# Poissons Ratio (y) = 0.72579 0.43290
# Poissons Ratio (z) = 0.10767 0.10767
#
# Static dielectric constant tensor:
#      x y z
#    x 1.682930 0.000000 0.000000 
#    y 0.000000 1.682930 0.000000 
#    z 0.000000 0.000000 1.690150 
# 
# From -- ./inp_files/2908.got.cif
#   From: 2010.05.17/outbox.cif.g08.bks.cpg/sg127_2_cif.got.tgz:2908.got - 2010.05.20 12:03:00.
