data_PCOD9563023
_publ_section_title
;
Structure prediction by ZEFSAII (Michael W. Deem and Ramdas Pophale) SiO2 
 PCOD9563023
Probable space group: P 4/N B M
;
_chemical_formula_sum "Si O2"
_cell_formula_units_Z 96
_cell_length_a 23.199834
_cell_length_b 23.199834
_cell_length_c 9.705289
_cell_angle_alpha 90.000000
_cell_angle_beta 90.000000
_cell_angle_gamma 90.000000
_cell_volume 5223.699998
_symmetry_space_group_name_H-M "P 4/N B M"
_symmetry_group_IT_number 125
_space_group.IT_coordinate_system_code '2'
_symmetry_cell_setting 'tetragonal'
loop_
_space_group_symop_operation_xyz
x,y,z
1/2-y,x,z
1/2-x,1/2-y,z
y,1/2-x,z
x,1/2-y,-z
1/2-x,y,-z
y,x,-z
1/2-y,1/2-x,-z
-x,-y,-z
1/2+y,-x,-z
1/2+x,1/2+y,-z
-y,1/2+x,-z
-x,1/2+y,z
1/2+x,-y,z
-y,-x,z
1/2+y,1/2+x,z
loop_
_atom_site_type_symbol
_atom_site_label
_atom_site_fract_x
_atom_site_fract_y
_atom_site_fract_z
Si Si1 0.595036 0.498765 0.483479
Si Si2 0.683561 0.992819 0.265603
Si Si3 0.706247 0.114476 0.124423
Si Si4 0.620507 0.215223 0.638680
Si Si5 0.414892 0.182302 0.007986
Si Si6 0.186105 0.496029 0.258433
O O1 0.544700 0.544700 0.500000
O O2 0.563359 0.436642 0.468724
O O3 0.638628 0.499902 0.612034
O O4 0.632974 0.518908 0.354733
O O5 0.749589 0.979246 0.310170
O O6 0.686817 0.053322 0.184552
O O7 0.668560 0.945024 0.153317
O O8 0.652947 0.152947 0.078906
O O9 0.739657 0.144825 0.250685
O O10 0.750000 0.105582 0.000000
O O11 0.603001 0.250000 0.500000
O O12 0.666396 0.166396 0.602975
O O13 0.565553 0.188983 0.720717
O O14 0.464366 0.177415 0.888108
O O15 0.397529 0.250000 0.000000
O O16 0.361209 0.138792 0.000000
#
# Coordination Sequence:
#
# PCOD9563023 Si02
#       6
#    16  16  16  16  16  16
#     4  11  22  35  54  81 112 143 177 223 271 311
#     4  10  20  38  58  78 106 143 184 219 263 323
#     4  11  22  35  52  74 103 142 184 228 275 319
#     4  11  22  35  53  77 107 146 191 238 281 319
#     4  10  21  38  61  86 111 138 172 218 271 333
#     4  10  20  36  57  79 105 143 184 220 264 324
#
# _framework density 18.377779
#
# number of rings (size 3 to 8) (size 9 to 14) (size 15 to 20)
#    0.000    1.500    0.000    8.000    0.000    2.167 
#    0.000    2.500    0.000    6.000    0.000    0.000 
#    0.000   14.667    0.000    0.000    0.000    0.000 
#
# Total GULP energy -535293.286353 kJ/mol
# GULP energy per Si atom -5575.971733 kJ/mol
# Density = 1.833595 g / cm^3
# Si number density = 18.377779 Si / 1000 Ang^3
#
#
#
# Elastic Constant Matrix: (Units=GPa)
#
#
# Indices 1 2 3 4 5 6 
#
# 1 84.5073 28.9322 19.1611 0.0000 0.0000 0.0000
# 2 28.9322 84.5057 19.1654 0.0000 0.0000 0.0000
# 3 19.1611 19.1654 69.8189 0.0000 0.0000 0.0000
# 4 0.0000 0.0000 0.0000 -13.3357 0.0000 0.0000
# 5 0.0000 0.0000 0.0000 0.0000 -13.3616 0.0000
# 6 0.0000 0.0000 0.0000 0.0000 0.0000 34.4226
#
#
#
# Elastic Compliance Matrix: (Units=1/GPa)
#
#
# Indices 1 2 3 4 5 6 
#
# 1 0.013855 -0.004139 -0.002666 0.000000 0.000000 0.000000
# 2 -0.004139 0.013855 -0.002668 0.000000 0.000000 0.000000
# 3 -0.002666 -0.002668 0.015787 0.000000 0.000000 0.000000
# 4 0.000000 0.000000 0.000000 -0.074987 0.000000 0.000000
# 5 0.000000 0.000000 0.000000 0.000000 -0.074842 0.000000
# 6 0.000000 0.000000 0.000000 0.000000 0.000000 0.029051
#
#
# Mechanical properties :
#
#
# Convention : Reuss Voigt Hill
#
# Bulk Modulus (GPa) = 40.72988 41.48328 41.10658
# Shear Modulus (GPa) = -99.69792 12.98328 -43.35732
#
# Velocity S-wave (km/s) = -7.37339 2.66083 -4.86245
# Velocity P-wave (km/s) = 7.09074 5.66229 3.01803
#
# Compressibility (1/GPa) = 0.02455200
#
# Stress axis : x y z
#
# Youngs Moduli (GPa) = 72.17721 72.17357 63.34443
#
# Poissons Ratio (x) = 0.29871 0.16889
# Poissons Ratio (y) = 0.29873 0.16897
# Poissons Ratio (z) = 0.19244 0.19252
#
# Static dielectric constant tensor:
#      x y z
#    x 1.732520 0.000000 0.000000 
#    y 0.000000 1.732540 0.000000 
#    z 0.000000 0.000000 1.657660 
# 
# From -- ./inp_files/2871.got.cif
#   From: 2010.05.17/outbox.cif.g08.bks.cpg/sg125_2_cif.got.tgz:2871.got - 2010.05.20 11:54:10.
