data_PCOD9563164
_publ_section_title
;
Structure prediction by ZEFSAII (Michael W. Deem and Ramdas Pophale) SiO2 
 PCOD9563164
Probable space group: P 4/N B M
;
_chemical_formula_sum "Si O2"
_cell_formula_units_Z 42
_cell_length_a 12.245608
_cell_length_b 12.245608
_cell_length_c 15.367901
_cell_angle_alpha 90.000000
_cell_angle_beta 90.000000
_cell_angle_gamma 90.000000
_cell_volume 2304.492293
_symmetry_space_group_name_H-M "P 4/N B M"
_symmetry_group_IT_number 125
_space_group.IT_coordinate_system_code '2'
_symmetry_cell_setting 'tetragonal'
loop_
_space_group_symop_operation_xyz
x,y,z
1/2-y,x,z
1/2-x,1/2-y,z
y,1/2-x,z
x,1/2-y,-z
1/2-x,y,-z
y,x,-z
1/2-y,1/2-x,-z
-x,-y,-z
1/2+y,-x,-z
1/2+x,1/2+y,-z
-y,1/2+x,-z
-x,1/2+y,z
1/2+x,-y,z
-y,-x,z
1/2+y,1/2+x,z
loop_
_atom_site_type_symbol
_atom_site_label
_atom_site_fract_x
_atom_site_fract_y
_atom_site_fract_z
Si Si1 0.837912 0.337912 0.830440
Si Si2 0.216900 0.074523 0.756038
Si Si3 0.250000 0.750000 0.000000
Si Si4 0.661383 0.518657 0.438737
O O1 0.750000 0.250000 0.792738
O O2 0.806980 0.458936 0.800159
O O3 0.822106 0.322106 0.934109
O O4 0.334412 0.125938 0.778429
O O5 0.211289 0.057569 0.651785
O O6 0.750000 0.460786 0.500000
O O7 0.615054 0.615054 0.500000
O O8 0.561199 0.438802 0.418122
#
# Coordination Sequence:
#
# PCOD9563164 Si02
#       4
#     8  16   2  16
#     4  10  24  45  73  94 127 165 213 269 345 421
#     4  11  23  39  65  99 135 176 223 274 325 387
#     4   8  24  52  72 100 118 176 196 260 384 412
#     4  11  22  35  54  83 129 181 225 260 307 361
#
# _framework density 18.225273000000001
#
# number of rings (size 3 to 8) (size 9 to 14) (size 15 to 20)
#    0.571    0.762    5.714    0.000    2.667    2.286 
#    0.000    3.810    0.000    2.286    0.000    0.000 
#    0.000    0.000    0.000    0.000    0.000    0.000 
#
# Total GULP energy -234253.735716 kJ/mol
# GULP energy per Si atom -5577.469898 kJ/mol
# Density = 1.818379 g / cm^3
# Si number density = 18.225273 Si / 1000 Ang^3
#
#
#
# Elastic Constant Matrix: (Units=GPa)
#
#
# Indices 1 2 3 4 5 6 
#
# 1 134.1716 74.1563 51.6924 0.0000 0.0000 0.0000
# 2 74.1563 134.1716 51.6924 0.0000 0.0000 0.0000
# 3 51.6924 51.6924 98.9877 0.0000 0.0000 0.0000
# 4 0.0000 0.0000 0.0000 19.7603 0.0000 0.0000
# 5 0.0000 0.0000 0.0000 0.0000 19.7603 0.0000
# 6 0.0000 0.0000 0.0000 0.0000 0.0000 15.2067
#
#
#
# Elastic Compliance Matrix: (Units=1/GPa)
#
#
# Indices 1 2 3 4 5 6 
#
# 1 0.011571 -0.005092 -0.003384 0.000000 0.000000 0.000000
# 2 -0.005092 0.011571 -0.003384 0.000000 0.000000 0.000000
# 3 -0.003384 -0.003384 0.013636 0.000000 0.000000 0.000000
# 4 0.000000 0.000000 0.000000 0.050606 0.000000 0.000000
# 5 0.000000 0.000000 0.000000 0.000000 0.050606 0.000000
# 6 0.000000 0.000000 0.000000 0.000000 0.000000 0.065760
#
#
# Mechanical properties :
#
#
# Convention : Reuss Voigt Hill
#
# Bulk Modulus (GPa) = 76.56697 80.26813 78.41755
# Shear Modulus (GPa) = 21.56829 23.59812 22.58320
#
# Velocity S-wave (km/s) = 3.44383 3.60224 3.52392
# Velocity P-wave (km/s) = 7.61025 7.83832 7.72513
#
# Compressibility (1/GPa) = 0.01306046
#
# Stress axis : x y z
#
# Youngs Moduli (GPa) = 86.42418 86.42418 73.33475
#
# Poissons Ratio (x) = 0.44004 0.24813
# Poissons Ratio (y) = 0.44004 0.24813
# Poissons Ratio (z) = 0.29242 0.29242
#
# Static dielectric constant tensor:
#      x y z
#    x 1.649470 0.000000 0.000000 
#    y 0.000000 1.649470 0.000000 
#    z 0.000000 0.000000 1.597620 
# 
# From -- ./inp_files/5178.got.cif
#   From: 2010.05.17/outbox.cif.g08.bks.cpg/sg125_3_cif.got.tgz:5178.got - 2010.05.20 11:54:10.
