data_PCOD9563884
_publ_section_title
;
Structure prediction by ZEFSAII (Michael W. Deem and Ramdas Pophale) SiO2 
 PCOD9563884
Probable space group: P 4/M B M
;
_chemical_formula_sum "Si O2"
_cell_formula_units_Z 80
_cell_length_a 23.874561
_cell_length_b 23.874561
_cell_length_c 8.636456
_cell_angle_alpha 90.000000
_cell_angle_beta 90.000000
_cell_angle_gamma 90.000000
_cell_volume 4922.733827
_symmetry_space_group_name_H-M "P 4/M B M"
_symmetry_group_IT_number 127
_symmetry_cell_setting 'tetragonal'
loop_
_space_group_symop_operation_xyz
x,y,z
-y,x,z
-x,-y,z
y,-x,z
1/2+x,1/2-y,-z
1/2-x,1/2+y,-z
1/2+y,1/2+x,-z
1/2-y,1/2-x,-z
-x,-y,-z
y,-x,-z
x,y,-z
-y,x,-z
1/2-x,1/2+y,z
1/2+x,1/2-y,z
1/2-y,1/2-x,z
1/2+y,1/2+x,z
loop_
_atom_site_type_symbol
_atom_site_label
_atom_site_fract_x
_atom_site_fract_y
_atom_site_fract_z
Si Si1 0.763672 0.908825 0.814377
Si Si2 0.093189 0.007204 0.828463
Si Si3 0.672135 0.827866 0.175701
Si Si4 0.767722 0.732279 0.176600
Si Si5 0.198841 0.979583 0.323003
Si Si6 0.318686 0.351633 0.314332
O O1 0.706574 0.879332 0.752773
O O2 0.765693 0.973689 0.766585
O O3 0.816825 0.871579 0.754849
O O4 0.764025 0.903405 0.000000
O O5 0.057211 0.950679 0.820869
O O6 0.137192 0.006415 0.692869
O O7 0.120747 0.009636 0.000000
O O8 0.719935 0.780066 0.166752
O O9 0.655936 0.844065 0.000000
O O10 0.737099 0.681902 0.264226
O O11 0.782895 0.717106 0.000000
O O12 0.217469 0.976019 0.500000
O O13 0.189833 0.916200 0.261925
O O14 0.325059 0.351771 0.500000
#
# Coordination Sequence:
#
# PCOD9563884 Si02
#       6
#    16  16   8   8  16  16
#     4  10  19  32  50  68  89 118 154 194 231 272
#     4   9  18  31  44  57  76 109 153 193 226 260
#     4   7  14  29  47  67  85 106 141 184 227 267
#     4   9  17  31  51  71  89 114 153 192 227 273
#     4  11  22  31  41  63  92 119 149 184 226 274
#     4  10  20  33  48  67  94 124 153 189 232 276
#
# _framework density 16.251131999999998
#
# number of rings (size 3 to 8) (size 9 to 14) (size 15 to 20)
#    0.000    2.400    0.000    5.100    0.000    7.200 
#    0.000    2.500    0.000    0.000    0.000    0.000 
#    0.000    0.800    0.000    9.000    0.000    4.000 
#
# Total GULP energy -445352.015957 kJ/mol
# GULP energy per Si atom -5566.900199 kJ/mol
# Density = 1.621414 g / cm^3
# Si number density = 16.251132 Si / 1000 Ang^3
#
#
#
# Elastic Constant Matrix: (Units=GPa)
#
#
# Indices 1 2 3 4 5 6 
#
# 1 43.9841 15.5060 9.2880 0.0000 0.0000 0.0000
# 2 15.5060 43.9841 9.2881 0.0000 0.0000 0.0000
# 3 9.2880 9.2881 37.4568 0.0000 0.0000 0.0000
# 4 0.0000 0.0000 0.0000 20.0497 0.0000 0.0000
# 5 0.0000 0.0000 0.0000 0.0000 20.0498 0.0000
# 6 0.0000 0.0000 0.0000 0.0000 0.0000 10.0363
#
#
#
# Elastic Compliance Matrix: (Units=1/GPa)
#
#
# Indices 1 2 3 4 5 6 
#
# 1 0.026667 -0.008447 -0.004518 0.000000 0.000000 0.000000
# 2 -0.008447 0.026667 -0.004518 0.000000 0.000000 0.000000
# 3 -0.004518 -0.004518 0.028938 0.000000 0.000000 0.000000
# 4 0.000000 0.000000 0.000000 0.049876 0.000000 0.000000
# 5 0.000000 0.000000 0.000000 0.000000 0.049876 0.000000
# 6 0.000000 0.000000 0.000000 0.000000 0.000000 0.099638
#
#
# Mechanical properties :
#
#
# Convention : Reuss Voigt Hill
#
# Bulk Modulus (GPa) = 21.13874 21.50992 21.32433
# Shear Modulus (GPa) = 15.04219 16.11670 15.57945
#
# Velocity S-wave (km/s) = 3.04568 3.15259 3.09960
# Velocity P-wave (km/s) = 5.04024 5.14941 5.09512
#
# Compressibility (1/GPa) = 0.04730652
#
# Stress axis : x y z
#
# Youngs Moduli (GPa) = 37.49885 37.49883 34.55655
#
# Poissons Ratio (x) = 0.31676 0.15613
# Poissons Ratio (y) = 0.31676 0.15613
# Poissons Ratio (z) = 0.16942 0.16942
#
# Static dielectric constant tensor:
#      x y z
#    x 1.571240 0.000000 0.000000 
#    y 0.000000 1.571240 0.000000 
#    z 0.000000 0.000000 1.592610 
# 
# From -- ./inp_files/1863.got.cif
#   From: 2010.05.17/outbox.cif.g08.bks.cpg/sg127_1_cif.got.tgz:1863.got - 2010.05.20 12:03:00.
