data_PCOD9563133
_publ_section_title
;
Structure prediction by ZEFSAII (Michael W. Deem and Ramdas Pophale) SiO2 
 PCOD9563133
Probable space group: P 4/N B M
;
_chemical_formula_sum "Si O2"
_cell_formula_units_Z 112
_cell_length_a 14.592260
_cell_length_b 14.592260
_cell_length_c 29.155554
_cell_angle_alpha 90.000000
_cell_angle_beta 90.000000
_cell_angle_gamma 90.000000
_cell_volume 6208.210249
_symmetry_space_group_name_H-M "P 4/N B M"
_symmetry_group_IT_number 125
_space_group.IT_coordinate_system_code '2'
_symmetry_cell_setting 'tetragonal'
loop_
_space_group_symop_operation_xyz
x,y,z
1/2-y,x,z
1/2-x,1/2-y,z
y,1/2-x,z
x,1/2-y,-z
1/2-x,y,-z
y,x,-z
1/2-y,1/2-x,-z
-x,-y,-z
1/2+y,-x,-z
1/2+x,1/2+y,-z
-y,1/2+x,-z
-x,1/2+y,z
1/2+x,-y,z
-y,-x,z
1/2+y,1/2+x,z
loop_
_atom_site_type_symbol
_atom_site_label
_atom_site_fract_x
_atom_site_fract_y
_atom_site_fract_z
Si Si1 0.861192 0.858003 0.948607
Si Si2 0.467494 0.687135 0.376753
Si Si3 0.171294 0.828707 0.651005
Si Si4 0.648732 0.993748 0.478741
Si Si5 0.172130 0.827871 0.758750
Si Si6 0.514504 0.750785 0.198555
Si Si7 0.071018 0.421370 0.146991
Si Si8 0.603674 0.708149 0.294056
O O1 0.751754 0.874118 0.944733
O O2 0.911699 0.904992 0.906488
O O3 0.887969 0.887969 0.000000
O O4 0.389958 0.610043 0.371843
O O5 0.415041 0.784726 0.374802
O O6 0.517681 0.666363 0.424347
O O7 0.531404 0.684748 0.332822
O O8 0.250000 0.750000 0.651316
O O9 0.150999 0.849002 0.704776
O O10 0.750000 0.003804 0.500000
O O11 0.590241 0.909760 0.500000
O O12 0.584794 0.084794 0.484891
O O13 0.250000 0.750000 0.758806
O O14 0.082757 0.789387 0.784371
O O15 0.514682 0.668112 0.162507
O O16 0.570528 0.834629 0.175835
O O17 0.561397 0.707649 0.243572
O O18 0.010455 0.510455 0.156127
O O19 0.689049 0.640986 0.299389
#
# Coordination Sequence:
#
# PCOD9563133 Si02
#       8
#    16  16   8  16   8  16  16  16
#     4   9  18  35  61  88 114 151 198 254 319 371
#     4  10  22  41  63  92 120 153 202 245 296 362
#     4   9  18  34  62  88 115 152 195 243 290 346
#     4  10  24  44  65  93 126 159 199 253 314 368
#     4  11  22  40  58  84 127 165 197 247 304 359
#     4  12  23  39  59  88 123 161 203 250 299 360
#     4  12  24  37  60  89 119 163 211 250 305 368
#     4  11  24  40  59  86 121 160 199 242 297 357
#
# _framework density 18.040624999999999
#
# number of rings (size 3 to 8) (size 9 to 14) (size 15 to 20)
#    0.000    1.429    5.000    0.857    3.000    1.429 
#    2.571    0.000    0.000    0.000    0.000    0.000 
#    0.000    2.286    0.000    0.000    0.000    0.000 
#
# Total GULP energy -625071.796413 kJ/mol
# GULP energy per Si atom -5580.998182 kJ/mol
# Density = 1.799956 g / cm^3
# Si number density = 18.040625 Si / 1000 Ang^3
#
#
#
# Elastic Constant Matrix: (Units=GPa)
#
#
# Indices 1 2 3 4 5 6 
#
# 1 56.2729 9.1023 41.6826 0.0000 0.0000 0.0000
# 2 9.1023 56.2727 41.6829 0.0000 0.0000 0.0000
# 3 41.6826 41.6829 131.7331 0.0000 0.0000 0.0000
# 4 0.0000 0.0000 0.0000 20.9355 0.0000 0.0000
# 5 0.0000 0.0000 0.0000 0.0000 20.9355 0.0000
# 6 0.0000 0.0000 0.0000 0.0000 0.0000 684.0393
#
#
#
# Elastic Compliance Matrix: (Units=1/GPa)
#
#
# Indices 1 2 3 4 5 6 
#
# 1 0.023421 0.002222 -0.008114 0.000000 0.000000 0.000000
# 2 0.002222 0.023422 -0.008114 0.000000 0.000000 0.000000
# 3 -0.008114 -0.008114 0.012726 0.000000 0.000000 0.000000
# 4 0.000000 0.000000 0.000000 0.047766 0.000000 0.000000
# 5 0.000000 0.000000 0.000000 0.000000 0.047766 0.000000
# 6 0.000000 0.000000 0.000000 0.000000 0.000000 0.001462
#
#
# Mechanical properties :
#
#
# Convention : Reuss Voigt Hill
#
# Bulk Modulus (GPa) = 31.68928 47.69047 39.68987
# Shear Modulus (GPa) = 25.62875 155.30278 90.46576
#
# Velocity S-wave (km/s) = 3.77319 9.28827 7.08904
# Velocity P-wave (km/s) = 6.04866 11.89629 9.43684
#
# Compressibility (1/GPa) = 0.03155642
#
# Stress axis : x y z
#
# Youngs Moduli (GPa) = 42.69610 42.69573 78.57973
#
# Poissons Ratio (x) = -0.09486 0.63759
# Poissons Ratio (y) = -0.09486 0.63760
# Poissons Ratio (z) = 0.34643 0.34643
#
# Static dielectric constant tensor:
#      x y z
#    x 1.599930 0.000000 0.000000 
#    y 0.000000 1.599930 0.000000 
#    z 0.000000 0.000000 1.619790 
# 
# From -- ./inp_files/6467.got.cif
#   From: 2010.05.17/outbox.cif.g08.bks.cpg/sg125_4_cif.got.tgz:6467.got - 2010.05.20 11:54:10.
