data_PCOD9563000
_publ_section_title
;
Structure prediction by ZEFSAII (Michael W. Deem and Ramdas Pophale) SiO2 
 PCOD9563000
Probable space group: P 4/N B M
;
_chemical_formula_sum "Si O2"
_cell_formula_units_Z 104
_cell_length_a 17.148914
_cell_length_b 17.148914
_cell_length_c 18.203328
_cell_angle_alpha 90.000000
_cell_angle_beta 90.000000
_cell_angle_gamma 90.000000
_cell_volume 5353.330291
_symmetry_space_group_name_H-M "P 4/N B M"
_symmetry_group_IT_number 125
_space_group.IT_coordinate_system_code '2'
_symmetry_cell_setting 'tetragonal'
loop_
_space_group_symop_operation_xyz
x,y,z
1/2-y,x,z
1/2-x,1/2-y,z
y,1/2-x,z
x,1/2-y,-z
1/2-x,y,-z
y,x,-z
1/2-y,1/2-x,-z
-x,-y,-z
1/2+y,-x,-z
1/2+x,1/2+y,-z
-y,1/2+x,-z
-x,1/2+y,z
1/2+x,-y,z
-y,-x,z
1/2+y,1/2+x,z
loop_
_atom_site_type_symbol
_atom_site_label
_atom_site_fract_x
_atom_site_fract_y
_atom_site_fract_z
Si Si1 0.375113 0.498136 0.980356
Si Si2 0.785955 0.627910 0.214232
Si Si3 0.878983 0.251799 0.740895
Si Si4 0.972836 0.808713 0.347246
Si Si5 0.982819 0.250000 0.500000
Si Si6 0.411431 0.911431 0.464234
Si Si7 0.272659 0.519663 0.118875
Si Si8 0.978425 0.478425 0.381761
O O1 0.443548 0.556453 0.956417
O O2 0.308328 0.494649 0.919310
O O3 0.416117 0.416117 0.000000
O O4 0.333216 0.532518 0.053068
O O5 0.843010 0.698896 0.198322
O O6 0.789847 0.601917 0.298832
O O7 0.804294 0.552146 0.166792
O O8 0.816309 0.183692 0.726190
O O9 0.833369 0.333369 0.730642
O O10 0.953182 0.236251 0.688772
O O11 0.910280 0.242580 0.824411
O O12 0.968095 0.783685 0.431994
O O13 0.988615 0.901512 0.342667
O O14 0.930715 0.179565 0.468441
O O15 0.446830 0.946830 0.539810
O O16 0.456601 0.956601 0.399285
#
# Coordination Sequence:
#
# PCOD9563000 Si02
#       8
#    16  16  16  16   8   8  16   8
#     4  10  20  34  56  85 114 144 185 237 286 339
#     4  10  22  39  58  81 113 151 195 244 290 343
#     4  10  20  35  54  79 114 153 190 233 285 348
#     4  10  21  37  58  83 113 150 194 241 297 351
#     4  10  22  37  56  89 114 148 194 240 300 351
#     4   9  20  35  58  81 114 148 183 237 289 355
#     4  10  20  36  57  80 113 151 189 231 287 351
#     4   9  18  38  57  78 111 152 186 229 294 351
#
# _framework density 19.427157999999999
#
# number of rings (size 3 to 8) (size 9 to 14) (size 15 to 20)
#    0.000    2.154    0.769    1.846    3.231    0.154 
#    0.000    0.000    1.692    8.308    0.000    0.000 
#    0.000    0.000    0.000    0.000    0.000    0.000 
#
# Total GULP energy -580353.147200 kJ/mol
# GULP energy per Si atom -5580.318723 kJ/mol
# Density = 1.938294 g / cm^3
# Si number density = 19.427158 Si / 1000 Ang^3
#
#
#
# Elastic Constant Matrix: (Units=GPa)
#
#
# Indices 1 2 3 4 5 6 
#
# 1 58.1098 5.2248 -5.1265 0.0000 0.0000 0.0000
# 2 5.2248 58.1098 -5.1265 0.0000 0.0000 0.0000
# 3 -5.1265 -5.1265 61.5745 0.0000 0.0000 0.0000
# 4 0.0000 0.0000 0.0000 23.3548 0.0000 0.0000
# 5 0.0000 0.0000 0.0000 0.0000 23.3548 0.0000
# 6 0.0000 0.0000 0.0000 0.0000 0.0000 0.4620
#
#
#
# Elastic Compliance Matrix: (Units=1/GPa)
#
#
# Indices 1 2 3 4 5 6 
#
# 1 0.017457 -0.001452 0.001333 0.000000 0.000000 0.000000
# 2 -0.001452 0.017457 0.001333 0.000000 0.000000 0.000000
# 3 0.001333 0.001333 0.016462 0.000000 0.000000 0.000000
# 4 0.000000 0.000000 0.000000 0.042818 0.000000 0.000000
# 5 0.000000 0.000000 0.000000 0.000000 0.042818 0.000000
# 6 0.000000 0.000000 0.000000 0.000000 0.000000 2.164555
#
#
# Mechanical properties :
#
#
# Convention : Reuss Voigt Hill
#
# Bulk Modulus (GPa) = 18.58662 18.63753 18.61208
# Shear Modulus (GPa) = 2.15789 21.62246 11.89018
#
# Velocity S-wave (km/s) = 1.05507 3.33979 2.47663
# Velocity P-wave (km/s) = 3.32751 4.94840 4.21657
#
# Compressibility (1/GPa) = 0.05380215
#
# Stress axis : x y z
#
# Youngs Moduli (GPa) = 57.28387 57.28387 60.74457
#
# Poissons Ratio (x) = 0.08318 -0.08094
# Poissons Ratio (y) = 0.08318 -0.08094
# Poissons Ratio (z) = -0.07633 -0.07633
#
# Static dielectric constant tensor:
#      x y z
#    x 1.663930 0.000000 0.000000 
#    y 0.000000 1.663930 0.000000 
#    z 0.000000 0.000000 1.697150 
# 
# From -- ./inp_files/5528.got.cif
#   From: 2010.05.17/outbox.cif.g08.bks.cpg/sg125_3_cif.got.tgz:5528.got - 2010.05.20 11:54:10.
