data_PCOD9563526
_publ_section_title
;
Structure prediction by ZEFSAII (Michael W. Deem and Ramdas Pophale) SiO2 
 PCOD9563526
Probable space group: P 4/N N C
;
_chemical_formula_sum "Si O2"
_cell_formula_units_Z 88
_cell_length_a 11.771677
_cell_length_b 11.771677
_cell_length_c 32.672242
_cell_angle_alpha 90.000000
_cell_angle_beta 90.000000
_cell_angle_gamma 90.000000
_cell_volume 4527.470314
_symmetry_space_group_name_H-M "P 4/N N C"
_symmetry_group_IT_number 126
_space_group.IT_coordinate_system_code '2'
_symmetry_cell_setting 'tetragonal'
loop_
_space_group_symop_operation_xyz
x,y,z
1/2-y,x,z
1/2-x,1/2-y,z
y,1/2-x,z
x,1/2-y,1/2-z
1/2-x,y,1/2-z
y,x,1/2-z
1/2-y,1/2-x,1/2-z
-x,-y,-z
1/2+y,-x,-z
1/2+x,1/2+y,-z
-y,1/2+x,-z
-x,1/2+y,1/2+z
1/2+x,-y,1/2+z
-y,-x,1/2+z
1/2+y,1/2+x,1/2+z
loop_
_atom_site_type_symbol
_atom_site_label
_atom_site_fract_x
_atom_site_fract_y
_atom_site_fract_z
Si Si1 0.750000 0.942171 0.750000
Si Si2 0.840152 0.092992 0.012662
Si Si3 0.849490 0.427392 0.392846
Si Si4 0.620189 0.257768 0.321668
Si Si5 0.083218 0.157319 0.445190
Si Si6 0.047059 0.585520 0.379281
O O1 0.641415 0.858585 0.750000
O O2 0.769519 0.025423 0.711460
O O3 0.877483 0.094599 0.059646
O O4 0.703729 0.109314 0.009654
O O5 0.868622 0.978603 0.988253
O O6 0.877473 0.323629 0.362055
O O7 0.715588 0.450648 0.393064
O O8 0.922170 0.533621 0.377293
O O9 0.750000 0.250000 0.305760
O O10 0.589532 0.383484 0.337280
O O11 0.207579 0.103126 0.441845
O O12 0.998063 0.113667 0.410270
#
# Coordination Sequence:
#
# PCOD9563526 Si02
#       6
#     8  16  16  16  16  16
#     4  11  23  40  68 102 129 155 188 244 310 371
#     4  11  22  36  59  82 114 158 215 262 314 371
#     4  11  24  38  62  88 120 165 210 261 313 372
#     4  10  22  41  65  92 125 162 203 243 300 376
#     4  11  24  39  57  85 120 162 215 276 329 374
#     4  11  22  41  60  87 122 165 211 259 318 373
#
# _framework density 19.436903000000001
#
# number of rings (size 3 to 8) (size 9 to 14) (size 15 to 20)
#    0.000    1.182    1.818    4.636    7.636    1.818 
#    0.000    1.818    0.000    0.000    0.000    0.000 
#    0.000   13.091    0.000    0.000    0.000    0.000 
#
# Total GULP energy -491765.168417 kJ/mol
# GULP energy per Si atom -5588.240550 kJ/mol
# Density = 1.939266 g / cm^3
# Si number density = 19.436903 Si / 1000 Ang^3
#
#
#
# Elastic Constant Matrix: (Units=GPa)
#
#
# Indices 1 2 3 4 5 6 
#
# 1 130.1642 53.7044 44.2273 0.0000 0.0000 0.0000
# 2 53.7044 130.1638 44.2273 0.0000 0.0000 0.0000
# 3 44.2273 44.2273 71.9333 0.0000 0.0000 0.0000
# 4 0.0000 0.0000 0.0000 6.1333 0.0000 0.0000
# 5 0.0000 0.0000 0.0000 0.0000 6.1373 0.0000
# 6 0.0000 0.0000 0.0000 0.0000 0.0000 19.8884
#
#
#
# Elastic Compliance Matrix: (Units=1/GPa)
#
#
# Indices 1 2 3 4 5 6 
#
# 1 0.010401 -0.002678 -0.004748 0.000000 0.000000 0.000000
# 2 -0.002678 0.010401 -0.004748 0.000000 0.000000 0.000000
# 3 -0.004748 -0.004748 0.019741 0.000000 0.000000 0.000000
# 4 0.000000 0.000000 0.000000 0.163045 0.000000 0.000000
# 5 0.000000 0.000000 0.000000 0.000000 0.162939 0.000000
# 6 0.000000 0.000000 0.000000 0.000000 0.000000 0.050281
#
#
# Mechanical properties :
#
#
# Convention : Reuss Voigt Hill
#
# Bulk Modulus (GPa) = 61.75438 68.50882 65.13160
# Shear Modulus (GPa) = 11.19685 19.10527 15.15106
#
# Velocity S-wave (km/s) = 2.40273 3.13859 2.79498
# Velocity P-wave (km/s) = 6.28794 6.96115 6.63309
#
# Compressibility (1/GPa) = 0.01619318
#
# Stress axis : x y z
#
# Youngs Moduli (GPa) = 96.14560 96.14532 50.65667
#
# Poissons Ratio (x) = 0.25747 0.24054
# Poissons Ratio (y) = 0.25747 0.24054
# Poissons Ratio (z) = 0.45654 0.45654
#
# Static dielectric constant tensor:
#      x y z
#    x 1.702570 0.000000 0.000000 
#    y 0.000000 1.702570 0.000000 
#    z 0.000000 0.000000 1.676890 
# 
# From -- ./inp_files/6549.got.cif
#   From: 2010.05.17/outbox.cif.g08.bks.cpg/sg126_4_cif.got.tgz:6549.got - 2010.05.20 11:58:20.
