data_PCOD9563892
_publ_section_title
;
Structure prediction by ZEFSAII (Michael W. Deem and Ramdas Pophale) SiO2 
 PCOD9563892
Probable space group: P 4/M B M
;
_chemical_formula_sum "Si O2"
_cell_formula_units_Z 96
_cell_length_a 25.590895
_cell_length_b 25.590895
_cell_length_c 8.696960
_cell_angle_alpha 90.000000
_cell_angle_beta 90.000000
_cell_angle_gamma 90.000000
_cell_volume 5695.586113
_symmetry_space_group_name_H-M "P 4/M B M"
_symmetry_group_IT_number 127
_symmetry_cell_setting 'tetragonal'
loop_
_space_group_symop_operation_xyz
x,y,z
-y,x,z
-x,-y,z
y,-x,z
1/2+x,1/2-y,-z
1/2-x,1/2+y,-z
1/2+y,1/2+x,-z
1/2-y,1/2-x,-z
-x,-y,-z
y,-x,-z
x,y,-z
-y,x,-z
1/2-x,1/2+y,z
1/2+x,1/2-y,z
1/2-y,1/2-x,z
1/2+y,1/2+x,z
loop_
_atom_site_type_symbol
_atom_site_label
_atom_site_fract_x
_atom_site_fract_y
_atom_site_fract_z
Si Si1 0.965016 0.154473 0.814206
Si Si2 0.766060 0.483404 0.683893
Si Si3 0.661718 0.161718 0.816068
Si Si4 0.878647 0.463696 0.813980
Si Si5 0.575899 0.075899 0.813006
Si Si6 0.083389 0.131701 0.814353
Si Si7 0.396691 0.742348 0.316382
O O1 0.958418 0.212818 0.748691
O O2 0.919480 0.115022 0.765190
O O3 0.022387 0.133503 0.767311
O O4 0.964479 0.157588 0.000000
O O5 0.766212 0.479746 0.500000
O O6 0.820052 0.461524 0.750014
O O7 0.761995 0.544923 0.727642
O O8 0.618683 0.118683 0.764040
O O9 0.717387 0.144009 0.753625
O O10 0.661891 0.161891 0.000000
O O11 0.915366 0.415366 0.768039
O O12 0.906006 0.518221 0.763681
O O13 0.876152 0.464662 0.000000
O O14 0.575233 0.075233 0.000000
O O15 0.108721 0.184174 0.748100
O O16 0.084614 0.133774 0.000000
O O17 0.393428 0.742001 0.500000
#
# Coordination Sequence:
#
# PCOD9563892 Si02
#       7
#    16  16   8  16   8  16  16
#     4   9  18  33  55  80 107 135 168 207 253 306
#     4  10  20  33  50  72 101 137 174 209 250 303
#     4  11  19  30  53  77 100 134 174 219 265 308
#     4  10  19  32  51  74 101 134 173 215 259 308
#     4   9  17  29  48  75 103 131 165 211 261 305
#     4   9  18  33  54  81 108 137 169 207 253 307
#     4  10  20  33  50  74 104 136 171 211 256 306
#
# _framework density 16.855157999999999
#
# number of rings (size 3 to 8) (size 9 to 14) (size 15 to 20)
#    0.000    2.333    1.667    1.500    0.000    3.667 
#    0.000    2.083    1.833    1.000    0.000    4.667 
#    0.000    0.000    0.000    0.000    0.000    0.000 
#
# Total GULP energy -535536.227290 kJ/mol
# GULP energy per Si atom -5578.502368 kJ/mol
# Density = 1.681680 g / cm^3
# Si number density = 16.855158 Si / 1000 Ang^3
#
#
#
# Elastic Constant Matrix: (Units=GPa)
#
#
# Indices 1 2 3 4 5 6 
#
# 1 136.2982 103.7883 31.3745 0.0000 0.0000 0.0000
# 2 103.7883 136.2982 31.3745 0.0000 0.0000 0.0000
# 3 31.3745 31.3745 15.1527 0.0000 0.0000 0.0000
# 4 0.0000 0.0000 0.0000 14.4173 0.0000 0.0000
# 5 0.0000 0.0000 0.0000 0.0000 14.4173 0.0000
# 6 0.0000 0.0000 0.0000 0.0000 0.0000 30.0383
#
#
#
# Elastic Compliance Matrix: (Units=1/GPa)
#
#
# Indices 1 2 3 4 5 6 
#
# 1 0.019919 -0.010841 -0.018796 0.000000 0.000000 0.000000
# 2 -0.010841 0.019919 -0.018796 0.000000 0.000000 0.000000
# 3 -0.018796 -0.018796 0.143831 0.000000 0.000000 0.000000
# 4 0.000000 0.000000 0.000000 0.069361 0.000000 0.000000
# 5 0.000000 0.000000 0.000000 0.000000 0.069361 0.000000
# 6 0.000000 0.000000 0.000000 0.000000 0.000000 0.033291
#
#
# Mechanical properties :
#
#
# Convention : Reuss Voigt Hill
#
# Bulk Modulus (GPa) = 11.52035 68.98041 40.25038
# Shear Modulus (GPa) = 10.38462 19.85537 15.11999
#
# Velocity S-wave (km/s) = 2.48485 3.43592 2.99834
# Velocity P-wave (km/s) = 3.88360 7.53359 5.99322
#
# Compressibility (1/GPa) = 0.08680289
#
# Stress axis : x y z
#
# Youngs Moduli (GPa) = 50.20396 50.20396 6.95260
#
# Poissons Ratio (x) = 0.54427 0.13068
# Poissons Ratio (y) = 0.54427 0.13068
# Poissons Ratio (z) = 0.94363 0.94363
#
# Static dielectric constant tensor:
#      x y z
#    x 1.554790 0.000000 0.000000 
#    y 0.000000 1.554790 0.000000 
#    z 0.000000 0.000000 1.561410 
# 
# From -- ./inp_files/2091.got.cif
#   From: 2010.05.17/outbox.cif.g08.bks.cpg/sg127_2_cif.got.tgz:2091.got - 2010.05.20 12:03:00.
