data_PCOD9563664
_publ_section_title
;
Structure prediction by ZEFSAII (Michael W. Deem and Ramdas Pophale) SiO2 
 PCOD9563664
Probable space group: P 4/N N C
;
_chemical_formula_sum "Si O2"
_cell_formula_units_Z 48
_cell_length_a 9.295188
_cell_length_b 9.295188
_cell_length_c 21.573943
_cell_angle_alpha 90.000000
_cell_angle_beta 90.000000
_cell_angle_gamma 90.000000
_cell_volume 1863.999893
_symmetry_space_group_name_H-M "P 4/N N C"
_symmetry_group_IT_number 126
_space_group.IT_coordinate_system_code '2'
_symmetry_cell_setting 'tetragonal'
loop_
_space_group_symop_operation_xyz
x,y,z
1/2-y,x,z
1/2-x,1/2-y,z
y,1/2-x,z
x,1/2-y,1/2-z
1/2-x,y,1/2-z
y,x,1/2-z
1/2-y,1/2-x,1/2-z
-x,-y,-z
1/2+y,-x,-z
1/2+x,1/2+y,-z
-y,1/2+x,-z
-x,1/2+y,1/2+z
1/2+x,-y,1/2+z
-y,-x,1/2+z
1/2+y,1/2+x,1/2+z
loop_
_atom_site_type_symbol
_atom_site_label
_atom_site_fract_x
_atom_site_fract_y
_atom_site_fract_z
Si Si1 0.192534 0.024014 0.655038
Si Si2 0.576203 0.359317 0.978352
Si Si3 0.973324 0.790688 0.677535
O O1 0.349212 0.081101 0.674779
O O2 0.201841 0.005523 0.580615
O O3 0.126440 0.870415 0.673404
O O4 0.500000 0.500000 0.000000
O O5 0.741233 0.407740 0.967487
O O6 0.860485 0.911212 0.651534
O O7 0.960229 0.750000 0.750000
#
# Coordination Sequence:
#
# PCOD9563664 Si02
#       3
#    16  16  16
#     4  11  24  43  69 104 143 185 234 289 351 421
#     4  11  24  41  64 101 146 191 233 282 346 412
#     4   9  21  44  69  99 133 172 226 290 354 415
#
# _framework density 25.751076999999999
#
# number of rings (size 3 to 8) (size 9 to 14) (size 15 to 20)
#    0.000    1.667    3.333    1.000    4.667    2.000 
#    0.000   16.667    0.000    8.000    0.000    0.000 
#    0.000    0.000    0.000    0.000    0.000    0.000 
#
# Total GULP energy -267703.011235 kJ/mol
# GULP energy per Si atom -5577.146067 kJ/mol
# Density = 2.569247 g / cm^3
# Si number density = 25.751077 Si / 1000 Ang^3
#
#
#
# Elastic Constant Matrix: (Units=GPa)
#
#
# Indices 1 2 3 4 5 6 
#
# 1 110.6949 95.9953 9.7937 0.0000 0.0000 0.0000
# 2 95.9953 110.6949 9.7937 0.0000 0.0000 0.0000
# 3 9.7937 9.7937 38.9137 0.0000 0.0000 0.0000
# 4 0.0000 0.0000 0.0000 28.1191 0.0000 0.0000
# 5 0.0000 0.0000 0.0000 0.0000 28.1191 0.0000
# 6 0.0000 0.0000 0.0000 0.0000 0.0000 71.5567
#
#
#
# Elastic Compliance Matrix: (Units=1/GPa)
#
#
# Indices 1 2 3 4 5 6 
#
# 1 0.036493 -0.031536 -0.001247 0.000000 0.000000 0.000000
# 2 -0.031536 0.036493 -0.001247 0.000000 0.000000 0.000000
# 3 -0.001247 -0.001247 0.026326 0.000000 0.000000 0.000000
# 4 0.000000 0.000000 0.000000 0.035563 0.000000 0.000000
# 5 0.000000 0.000000 0.000000 0.000000 0.035563 0.000000
# 6 0.000000 0.000000 0.000000 0.000000 0.000000 0.013975
#
#
# Mechanical properties :
#
#
# Convention : Reuss Voigt Hill
#
# Bulk Modulus (GPa) = 32.00114 54.60768 43.30441
# Shear Modulus (GPa) = 19.01927 35.20702 27.11314
#
# Velocity S-wave (km/s) = 2.72063 3.70159 3.24835
# Velocity P-wave (km/s) = 4.72474 6.28657 5.56076
#
# Compressibility (1/GPa) = 0.03124889
#
# Stress axis : x y z
#
# Youngs Moduli (GPa) = 27.40265 27.40265 37.98557
#
# Poissons Ratio (x) = 0.86418 0.04738
# Poissons Ratio (y) = 0.86418 0.04738
# Poissons Ratio (z) = 0.03418 0.03418
#
# Static dielectric constant tensor:
#      x y z
#    x 2.095690 0.000000 0.000000 
#    y 0.000000 2.095690 0.000000 
#    z 0.000000 0.000000 2.035230 
# 
# From -- ./inp_files/6313.got.cif
#   From: 2010.05.17/outbox.cif.g08.bks.cpg/sg126_4_cif.got.tgz:6313.got - 2010.05.20 11:58:20.
