data_PCOD9563672
_publ_section_title
;
Structure prediction by ZEFSAII (Michael W. Deem and Ramdas Pophale) SiO2 
 PCOD9563672
Probable space group: P 4/N N C
;
_chemical_formula_sum "Si O2"
_cell_formula_units_Z 60
_cell_length_a 10.905685
_cell_length_b 10.905685
_cell_length_c 22.873419
_cell_angle_alpha 90.000000
_cell_angle_beta 90.000000
_cell_angle_gamma 90.000000
_cell_volume 2720.426422
_symmetry_space_group_name_H-M "P 4/N N C"
_symmetry_group_IT_number 126
_space_group.IT_coordinate_system_code '2'
_symmetry_cell_setting 'tetragonal'
loop_
_space_group_symop_operation_xyz
x,y,z
1/2-y,x,z
1/2-x,1/2-y,z
y,1/2-x,z
x,1/2-y,1/2-z
1/2-x,y,1/2-z
y,x,1/2-z
1/2-y,1/2-x,1/2-z
-x,-y,-z
1/2+y,-x,-z
1/2+x,1/2+y,-z
-y,1/2+x,-z
-x,1/2+y,1/2+z
1/2+x,-y,1/2+z
-y,-x,1/2+z
1/2+y,1/2+x,1/2+z
loop_
_atom_site_type_symbol
_atom_site_label
_atom_site_fract_x
_atom_site_fract_y
_atom_site_fract_z
Si Si1 0.082965 0.871012 0.843731
Si Si2 0.103238 0.396763 0.250000
Si Si3 0.221885 0.455947 0.431800
Si Si4 0.250000 0.750000 0.250000
Si Si5 0.049257 0.196900 0.561312
O O1 0.169697 0.834813 0.791088
O O2 0.967908 0.933020 0.809203
O O3 0.048721 0.746865 0.879607
O O4 0.151757 0.957379 0.889567
O O5 0.085032 0.250000 0.250000
O O6 0.118922 0.351001 0.427778
O O7 0.196487 0.508984 0.496128
O O8 0.166701 0.106030 0.565427
#
# Coordination Sequence:
#
# PCOD9563672 Si02
#       5
#    16   8  16   4  16
#     4  12  25  42  66  94 141 183 219 294 352 404
#     4  11  24  44  70  99 128 180 246 289 340 404
#     4   9  20  41  69 101 127 165 227 288 339 408
#     4  12  32  44  52 102 148 164 228 300 334 404
#     4   9  22  43  67  97 133 177 231 277 340 437
#
# _framework density 22.055364000000001
#
# number of rings (size 3 to 8) (size 9 to 14) (size 15 to 20)
#    0.000    1.733    1.333    3.200    3.733    8.533 
#    0.000    0.000    0.000    0.000    0.000    0.000 
#    0.000    0.000    0.000    0.000    0.000    0.000 
#
# Total GULP energy -334945.112498 kJ/mol
# GULP energy per Si atom -5582.418542 kJ/mol
# Density = 2.200517 g / cm^3
# Si number density = 22.055364 Si / 1000 Ang^3
#
#
#
# Elastic Constant Matrix: (Units=GPa)
#
#
# Indices 1 2 3 4 5 6 
#
# 1 67.6497 27.1426 68.2816 0.0000 0.0000 0.0000
# 2 27.1426 67.6487 68.2816 0.0000 0.0000 0.0000
# 3 68.2816 68.2816 214.1756 0.0000 0.0000 0.0000
# 4 0.0000 0.0000 0.0000 27.8460 0.0000 0.0000
# 5 0.0000 0.0000 0.0000 0.0000 27.8448 0.0000
# 6 0.0000 0.0000 0.0000 0.0000 0.0000 18.8465
#
#
#
# Elastic Compliance Matrix: (Units=1/GPa)
#
#
# Indices 1 2 3 4 5 6 
#
# 1 0.022099 -0.002588 -0.006220 0.000000 0.000000 0.000000
# 2 -0.002588 0.022099 -0.006220 0.000000 0.000000 0.000000
# 3 -0.006220 -0.006220 0.008635 0.000000 0.000000 0.000000
# 4 0.000000 0.000000 0.000000 0.035912 0.000000 0.000000
# 5 0.000000 0.000000 0.000000 0.000000 0.035913 0.000000
# 6 0.000000 0.000000 0.000000 0.000000 0.000000 0.053060
#
#
# Mechanical properties :
#
#
# Convention : Reuss Voigt Hill
#
# Bulk Modulus (GPa) = 43.90646 75.20952 59.55799
# Shear Modulus (GPa) = 23.21604 27.29199 25.25401
#
# Velocity S-wave (km/s) = 3.24794 3.52153 3.38750
# Velocity P-wave (km/s) = 5.83233 7.12104 6.50866
#
# Compressibility (1/GPa) = 0.02277569
#
# Stress axis : x y z
#
# Youngs Moduli (GPa) = 45.25132 45.25039 115.80474
#
# Poissons Ratio (x) = 0.11712 0.72032
# Poissons Ratio (y) = 0.11713 0.72034
# Poissons Ratio (z) = 0.28147 0.28147
#
# Static dielectric constant tensor:
#      x y z
#    x 1.874230 0.000000 0.000000 
#    y 0.000000 1.874230 0.000000 
#    z 0.000000 0.000000 1.833700 
# 
# From -- ./inp_files/4964.got.cif
#   From: 2010.05.17/outbox.cif.g08.bks.cpg/sg126_3_cif.got.tgz:4964.got - 2010.05.20 11:58:20.
