data_PCOD9563432
_publ_section_title
;
Structure prediction by ZEFSAII (Michael W. Deem and Ramdas Pophale) SiO2 
 PCOD9563432
Probable space group: P 4/N N C
;
_chemical_formula_sum "Si O2"
_cell_formula_units_Z 88
_cell_length_a 17.505378
_cell_length_b 17.505378
_cell_length_c 14.829644
_cell_angle_alpha 90.000000
_cell_angle_beta 90.000000
_cell_angle_gamma 90.000000
_cell_volume 4544.370288
_symmetry_space_group_name_H-M "P 4/N N C"
_symmetry_group_IT_number 126
_space_group.IT_coordinate_system_code '2'
_symmetry_cell_setting 'tetragonal'
loop_
_space_group_symop_operation_xyz
x,y,z
1/2-y,x,z
1/2-x,1/2-y,z
y,1/2-x,z
x,1/2-y,1/2-z
1/2-x,y,1/2-z
y,x,1/2-z
1/2-y,1/2-x,1/2-z
-x,-y,-z
1/2+y,-x,-z
1/2+x,1/2+y,-z
-y,1/2+x,-z
-x,1/2+y,1/2+z
1/2+x,-y,1/2+z
-y,-x,1/2+z
1/2+y,1/2+x,1/2+z
loop_
_atom_site_type_symbol
_atom_site_label
_atom_site_fract_x
_atom_site_fract_y
_atom_site_fract_z
Si Si1 0.501055 0.904564 0.405818
Si Si2 0.657662 0.657662 0.250000
Si Si3 0.635786 0.695403 0.007869
Si Si4 0.938235 0.420963 0.409032
Si Si5 0.673912 0.933190 0.810314
Si Si6 0.835536 0.487368 0.281436
O O1 0.568001 0.843648 0.434614
O O2 0.441058 0.896248 0.487471
O O3 0.470801 0.885827 0.307172
O O4 0.525901 0.993303 0.406336
O O5 0.750000 0.652612 0.250000
O O6 0.576292 0.648291 0.303505
O O7 0.715621 0.652214 0.027571
O O8 0.614810 0.690194 0.902095
O O9 0.857052 0.433510 0.363566
O O10 0.990155 0.365228 0.348536
O O11 0.750000 0.944324 0.750000
O O12 0.613935 0.886065 0.750000
O O13 0.750000 0.478776 0.250000
#
# Coordination Sequence:
#
# PCOD9563432 Si02
#       6
#    16   8  16  16  16  16
#     4  10  21  37  56  80 119 168 202 247 296 355
#     4   9  18  30  50  84 124 164 201 234 280 348
#     4  10  21  33  49  84 127 163 196 241 297 373
#     4  10  22  40  56  84 120 158 209 252 299 361
#     4  11  20  34  60  84 115 158 200 251 310 372
#     4  11  21  37  61  87 116 157 204 250 301 356
#
# _framework density 19.364619000000001
#
# number of rings (size 3 to 8) (size 9 to 14) (size 15 to 20)
#    0.000    1.727    3.636    1.091    2.545    0.182 
#    0.000    1.818    0.000    0.545    0.000    0.000 
#    0.000    0.000    0.000    0.000    0.000    0.000 
#
# Total GULP energy -489888.160562 kJ/mol
# GULP energy per Si atom -5566.910915 kJ/mol
# Density = 1.932054 g / cm^3
# Si number density = 19.364619 Si / 1000 Ang^3
#
#
#
# Elastic Constant Matrix: (Units=GPa)
#
#
# Indices 1 2 3 4 5 6 
#
# 1 52.3014 24.2404 21.3130 0.0000 0.0000 0.0000
# 2 24.2404 52.3014 21.3130 0.0000 0.0000 0.0000
# 3 21.3130 21.3130 94.9168 0.0000 0.0000 0.0000
# 4 0.0000 0.0000 0.0000 26.5279 0.0000 0.0000
# 5 0.0000 0.0000 0.0000 0.0000 26.5279 0.0000
# 6 0.0000 0.0000 0.0000 0.0000 0.0000 51.7492
#
#
#
# Elastic Compliance Matrix: (Units=1/GPa)
#
#
# Indices 1 2 3 4 5 6 
#
# 1 0.025284 -0.010352 -0.003353 0.000000 0.000000 0.000000
# 2 -0.010352 0.025284 -0.003353 0.000000 0.000000 0.000000
# 3 -0.003353 -0.003353 0.012041 0.000000 0.000000 0.000000
# 4 0.000000 0.000000 0.000000 0.037696 0.000000 0.000000
# 5 0.000000 0.000000 0.000000 0.000000 0.037696 0.000000
# 6 0.000000 0.000000 0.000000 0.000000 0.000000 0.019324
#
#
# Mechanical properties :
#
#
# Convention : Reuss Voigt Hill
#
# Bulk Modulus (GPa) = 35.09551 37.02807 36.06179
# Shear Modulus (GPa) = 24.88301 29.80454 27.34377
#
# Velocity S-wave (km/s) = 3.58854 3.92742 3.76180
# Velocity P-wave (km/s) = 5.94416 6.30311 6.12626
#
# Compressibility (1/GPa) = 0.02849367
#
# Stress axis : x y z
#
# Youngs Moduli (GPa) = 39.55025 39.55025 83.04760
#
# Poissons Ratio (x) = 0.40944 0.27845
# Poissons Ratio (y) = 0.40944 0.27845
# Poissons Ratio (z) = 0.13261 0.13261
#
# Static dielectric constant tensor:
#      x y z
#    x 1.678450 0.000000 0.000000 
#    y 0.000000 1.678450 0.000000 
#    z 0.000000 0.000000 1.857070 
# 
# From -- ./inp_files/3763.got.cif
#   From: 2010.05.17/outbox.cif.g08.bks.cpg/sg126_2_cif.got.tgz:3763.got - 2010.05.20 11:58:20.
