data_PCOD9563643
_publ_section_title
;
Structure prediction by ZEFSAII (Michael W. Deem and Ramdas Pophale) SiO2 
 PCOD9563643
Probable space group: P 4/N N C
;
_chemical_formula_sum "Si O2"
_cell_formula_units_Z 68
_cell_length_a 12.439552
_cell_length_b 12.439552
_cell_length_c 20.120332
_cell_angle_alpha 90.000000
_cell_angle_beta 90.000000
_cell_angle_gamma 90.000000
_cell_volume 3113.469548
_symmetry_space_group_name_H-M "P 4/N N C"
_symmetry_group_IT_number 126
_space_group.IT_coordinate_system_code '2'
_symmetry_cell_setting 'tetragonal'
loop_
_space_group_symop_operation_xyz
x,y,z
1/2-y,x,z
1/2-x,1/2-y,z
y,1/2-x,z
x,1/2-y,1/2-z
1/2-x,y,1/2-z
y,x,1/2-z
1/2-y,1/2-x,1/2-z
-x,-y,-z
1/2+y,-x,-z
1/2+x,1/2+y,-z
-y,1/2+x,-z
-x,1/2+y,1/2+z
1/2+x,-y,1/2+z
-y,-x,1/2+z
1/2+y,1/2+x,1/2+z
loop_
_atom_site_type_symbol
_atom_site_label
_atom_site_fract_x
_atom_site_fract_y
_atom_site_fract_z
Si Si1 0.627785 0.372367 0.500036
Si Si2 0.456615 0.875144 0.143935
Si Si3 0.249959 0.483165 0.176114
Si Si4 0.875458 0.456800 0.143812
Si Si5 0.750000 0.750000 0.878822
O O1 0.750101 0.383122 0.525840
O O2 0.552957 0.382984 0.563520
O O3 0.617004 0.447343 0.436623
O O4 0.354877 0.942506 0.169665
O O5 0.450624 0.749820 0.161936
O O6 0.564544 0.935266 0.165481
O O7 0.250000 0.433379 0.250000
O O8 0.355110 0.556976 0.169420
O O9 0.249539 0.383490 0.125869
#
# Coordination Sequence:
#
# PCOD9563643 Si02
#       5
#    16  16  16  16   4
#     4   9  17  34  60  88 120 162 214 259 317 372
#     4  11  23  39  62  89 126 172 212 261 311 378
#     4  12  24  42  67  97 126 158 206 267 332 381
#     4  11  23  39  62  89 126 172 212 261 311 378
#     4  12  25  44  72 100 128 160 204 272 333 374
#
# _framework density 21.840586999999999
#
# number of rings (size 3 to 8) (size 9 to 14) (size 15 to 20)
#    0.000    1.176    4.706    2.471    0.000    2.353 
#    0.000    0.000    0.000    0.000    0.000    3.294 
#    0.000    0.000    0.000    0.000    0.000    0.000 
#
# Total GULP energy -379052.958176 kJ/mol
# GULP energy per Si atom -5574.308208 kJ/mol
# Density = 2.179088 g / cm^3
# Si number density = 21.840587 Si / 1000 Ang^3
#
#
#
# Elastic Constant Matrix: (Units=GPa)
#
#
# Indices 1 2 3 4 5 6 
#
# 1 159.2562 101.1045 -6.0665 0.0000 0.0000 0.0000
# 2 101.1045 159.2562 -6.0665 0.0000 0.0000 0.0000
# 3 -6.0665 -6.0665 46.9090 0.0000 0.0000 0.0000
# 4 0.0000 0.0000 0.0000 -30.0007 0.0000 0.0000
# 5 0.0000 0.0000 0.0000 0.0000 -30.0007 0.0000
# 6 0.0000 0.0000 0.0000 0.0000 0.0000 42.2454
#
#
#
# Elastic Compliance Matrix: (Units=1/GPa)
#
#
# Indices 1 2 3 4 5 6 
#
# 1 0.010530 -0.006666 0.000500 0.000000 0.000000 0.000000
# 2 -0.006666 0.010530 0.000500 0.000000 0.000000 0.000000
# 3 0.000500 0.000500 0.021447 0.000000 0.000000 0.000000
# 4 0.000000 0.000000 0.000000 -0.033333 0.000000 0.000000
# 5 0.000000 0.000000 0.000000 0.000000 -0.033333 0.000000
# 6 0.000000 0.000000 0.000000 0.000000 0.000000 0.023671
#
#
# Mechanical properties :
#
#
# Convention : Reuss Voigt Hill
#
# Bulk Modulus (GPa) = 32.07779 60.37386 46.22582
# Shear Modulus (GPa) = 235.42048 14.87879 125.14963
#
# Velocity S-wave (km/s) = 10.39348 2.61290 7.57798
# Velocity P-wave (km/s) = 12.59967 6.06679 9.88832
#
# Compressibility (1/GPa) = 0.03117422
#
# Stress axis : x y z
#
# Youngs Moduli (GPa) = 94.96444 94.96444 46.62635
#
# Poissons Ratio (x) = 0.63305 -0.02330
# Poissons Ratio (y) = 0.63305 -0.02330
# Poissons Ratio (z) = -0.04746 -0.04746
#
# Static dielectric constant tensor:
#      x y z
#    x 1.774420 0.000000 0.000000 
#    y 0.000000 1.774420 0.000000 
#    z 0.000000 0.000000 1.871480 
# 
# From -- ./inp_files/6112.got.cif
#   From: 2010.05.17/outbox.cif.g08.bks.cpg/sg126_4_cif.got.tgz:6112.got - 2010.05.20 11:58:20.
