data_PCOD9563034
_publ_section_title
;
Structure prediction by ZEFSAII (Michael W. Deem and Ramdas Pophale) SiO2 
 PCOD9563034
Probable space group: P 4/N B M
;
_chemical_formula_sum "Si O2"
_cell_formula_units_Z 96
_cell_length_a 20.208540
_cell_length_b 20.208540
_cell_length_c 12.143407
_cell_angle_alpha 90.000000
_cell_angle_beta 90.000000
_cell_angle_gamma 90.000000
_cell_volume 4959.186348
_symmetry_space_group_name_H-M "P 4/N B M"
_symmetry_group_IT_number 125
_space_group.IT_coordinate_system_code '2'
_symmetry_cell_setting 'tetragonal'
loop_
_space_group_symop_operation_xyz
x,y,z
1/2-y,x,z
1/2-x,1/2-y,z
y,1/2-x,z
x,1/2-y,-z
1/2-x,y,-z
y,x,-z
1/2-y,1/2-x,-z
-x,-y,-z
1/2+y,-x,-z
1/2+x,1/2+y,-z
-y,1/2+x,-z
-x,1/2+y,z
1/2+x,-y,z
-y,-x,z
1/2+y,1/2+x,z
loop_
_atom_site_type_symbol
_atom_site_label
_atom_site_fract_x
_atom_site_fract_y
_atom_site_fract_z
Si Si1 0.276585 0.507006 0.340275
Si Si2 0.673202 0.567443 0.036293
Si Si3 0.247834 0.356662 0.633532
Si Si4 0.870213 0.022745 0.843573
Si Si5 0.974131 0.916023 0.763189
Si Si6 0.966109 0.356139 0.555114
O O1 0.257361 0.430452 0.324863
O O2 0.305997 0.534223 0.228933
O O3 0.331728 0.508217 0.437092
O O4 0.212697 0.546545 0.381395
O O5 0.646076 0.509369 0.958901
O O6 0.750000 0.575083 0.000000
O O7 0.633578 0.633578 0.000000
O O8 0.645649 0.544726 0.156756
O O9 0.184643 0.312600 0.667425
O O10 0.250000 0.359486 0.500000
O O11 0.915707 0.968803 0.779978
O O12 0.911963 0.088038 0.855849
O O13 0.042119 0.957882 0.791521
O O14 0.982972 0.893601 0.636554
O O15 0.903232 0.403232 0.541690
#
# Coordination Sequence:
#
# PCOD9563034 Si02
#       6
#    16  16  16  16  16  16
#     4  11  21  34  56  79 110 149 181 228 265 331
#     4  10  20  37  58  79 109 145 184 221 267 326
#     4   9  18  32  49  72 107 148 189 222 251 307
#     4  10  21  35  56  84 108 137 182 231 278 322
#     4   9  19  35  56  79 107 140 178 227 276 320
#     4  10  21  36  52  78 110 143 182 224 278 324
#
# _framework density 19.358014000000001
#
# number of rings (size 3 to 8) (size 9 to 14) (size 15 to 20)
#    0.000    2.167    1.667    2.500    2.333    2.833 
#    0.000    2.500    0.000    8.500    0.000    0.000 
#    0.000    4.333    0.000    0.000    0.000    0.000 
#
# Total GULP energy -535690.131662 kJ/mol
# GULP energy per Si atom -5580.105538 kJ/mol
# Density = 1.931395 g / cm^3
# Si number density = 19.358014 Si / 1000 Ang^3
#
#
#
# Elastic Constant Matrix: (Units=GPa)
#
#
# Indices 1 2 3 4 5 6 
#
# 1 64.3608 46.9312 2.2552 0.0000 0.0000 0.0000
# 2 46.9312 64.3608 2.2552 0.0000 0.0000 0.0000
# 3 2.2552 2.2552 30.9586 0.0000 0.0000 0.0000
# 4 0.0000 0.0000 0.0000 23.4128 0.0000 0.0000
# 5 0.0000 0.0000 0.0000 0.0000 23.4128 0.0000
# 6 0.0000 0.0000 0.0000 0.0000 0.0000 13.6513
#
#
#
# Elastic Compliance Matrix: (Units=1/GPa)
#
#
# Indices 1 2 3 4 5 6 
#
# 1 0.033193 -0.024181 -0.000656 0.000000 0.000000 0.000000
# 2 -0.024181 0.033193 -0.000656 0.000000 0.000000 0.000000
# 3 -0.000656 -0.000656 0.032397 0.000000 0.000000 0.000000
# 4 0.000000 0.000000 0.000000 0.042712 0.000000 0.000000
# 5 0.000000 0.000000 0.000000 0.000000 0.042712 0.000000
# 6 0.000000 0.000000 0.000000 0.000000 0.000000 0.073253
#
#
# Mechanical properties :
#
#
# Convention : Reuss Voigt Hill
#
# Bulk Modulus (GPa) = 20.92278 29.17373 25.04825
# Shear Modulus (GPa) = 15.41410 19.31129 17.36269
#
# Velocity S-wave (km/s) = 2.82488 3.16189 2.99812
# Velocity P-wave (km/s) = 4.63376 5.33229 4.99525
#
# Compressibility (1/GPa) = 0.04779480
#
# Stress axis : x y z
#
# Youngs Moduli (GPa) = 30.12693 30.12693 30.86724
#
# Poissons Ratio (x) = 0.72850 0.02026
# Poissons Ratio (y) = 0.72850 0.02026
# Poissons Ratio (z) = 0.01978 0.01978
#
# Static dielectric constant tensor:
#      x y z
#    x 1.680060 0.000000 0.000000 
#    y 0.000000 1.680060 0.000000 
#    z 0.000000 0.000000 1.696660 
# 
# From -- ./inp_files/4107.got.cif
#   From: 2010.05.17/outbox.cif.g08.bks.cpg/sg125_3_cif.got.tgz:4107.got - 2010.05.20 11:54:10.
