data_PCOD9563693
_publ_section_title
;
Structure prediction by ZEFSAII (Michael W. Deem and Ramdas Pophale) SiO2 
 PCOD9563693
Probable space group: P 4/N N C
;
_chemical_formula_sum "Si O2"
_cell_formula_units_Z 64
_cell_length_a 13.046296
_cell_length_b 13.046296
_cell_length_c 13.806000
_cell_angle_alpha 90.000000
_cell_angle_beta 90.000000
_cell_angle_gamma 90.000000
_cell_volume 2349.861818
_symmetry_space_group_name_H-M "P 4/N N C"
_symmetry_group_IT_number 126
_space_group.IT_coordinate_system_code '2'
_symmetry_cell_setting 'tetragonal'
loop_
_space_group_symop_operation_xyz
x,y,z
1/2-y,x,z
1/2-x,1/2-y,z
y,1/2-x,z
x,1/2-y,1/2-z
1/2-x,y,1/2-z
y,x,1/2-z
1/2-y,1/2-x,1/2-z
-x,-y,-z
1/2+y,-x,-z
1/2+x,1/2+y,-z
-y,1/2+x,-z
-x,1/2+y,1/2+z
1/2+x,-y,1/2+z
-y,-x,1/2+z
1/2+y,1/2+x,1/2+z
loop_
_atom_site_type_symbol
_atom_site_label
_atom_site_fract_x
_atom_site_fract_y
_atom_site_fract_z
Si Si1 0.577287 0.754746 0.354768
Si Si2 0.373822 0.125282 0.135551
Si Si3 0.241476 0.629225 0.356443
Si Si4 0.452253 0.881263 0.489092
O O1 0.648728 0.655636 0.359334
O O2 0.525124 0.750000 0.250000
O O3 0.501066 0.780175 0.438266
O O4 0.388835 0.248866 0.123896
O O5 0.399189 0.100812 0.250000
O O6 0.425798 0.054154 0.048581
O O7 0.250000 0.750000 0.350433
O O8 0.250000 0.584466 0.250000
O O9 0.136587 0.597126 0.408978
O O10 0.342049 0.604013 0.416405
#
# Coordination Sequence:
#
# PCOD9563693 Si02
#       4
#    16  16  16  16
#     4   9  20  39  66 101 139 175 214 275 352 429
#     4   9  20  39  67 105 147 186 219 276 363 447
#     4  11  26  46  66  91 128 185 241 298 358 415
#     4  12  21  41  73  95 127 190 238 285 352 437
#
# _framework density 27.235641999999999
#
# number of rings (size 3 to 8) (size 9 to 14) (size 15 to 20)
#    0.000    1.750    2.500    3.000    7.000    2.000 
#    0.000    5.000    5.500    0.000    0.000    0.000 
#    0.000    0.000    0.000    0.000    0.000    0.000 
#
# Total GULP energy -357029.371526 kJ/mol
# GULP energy per Si atom -5578.583930 kJ/mol
# Density = 2.717365 g / cm^3
# Si number density = 27.235642 Si / 1000 Ang^3
#
#
#
# Elastic Constant Matrix: (Units=GPa)
#
#
# Indices 1 2 3 4 5 6 
#
# 1 303.9985 124.8389 299.9975 0.0000 0.0000 0.0000
# 2 124.8389 303.9981 299.9974 0.0000 0.0000 0.0000
# 3 299.9975 299.9974 625.3279 0.0000 0.0000 0.0000
# 4 0.0000 0.0000 0.0000 33.6370 0.0000 0.0000
# 5 0.0000 0.0000 0.0000 0.0000 33.6366 0.0000
# 6 0.0000 0.0000 0.0000 0.0000 0.0000 26.4286
#
#
#
# Elastic Compliance Matrix: (Units=1/GPa)
#
#
# Indices 1 2 3 4 5 6 
#
# 1 0.006337 0.000755 -0.003403 0.000000 0.000000 0.000000
# 2 0.000755 0.006337 -0.003403 0.000000 0.000000 0.000000
# 3 -0.003403 -0.003403 0.004864 0.000000 0.000000 0.000000
# 4 0.000000 0.000000 0.000000 0.029729 0.000000 0.000000
# 5 0.000000 0.000000 0.000000 0.000000 0.029729 0.000000
# 6 0.000000 0.000000 0.000000 0.000000 0.000000 0.037838
#
#
# Mechanical properties :
#
#
# Convention : Reuss Voigt Hill
#
# Bulk Modulus (GPa) = 183.87138 298.11025 240.99082
# Shear Modulus (GPa) = 38.83590 52.63983 45.73787
#
# Velocity S-wave (km/s) = 3.78023 4.40108 4.10242
# Velocity P-wave (km/s) = 9.31190 11.64129 10.54113
#
# Compressibility (1/GPa) = 0.00543858
#
# Stress axis : x y z
#
# Youngs Moduli (GPa) = 157.80138 157.80111 205.59524
#
# Poissons Ratio (x) = -0.11921 0.69956
# Poissons Ratio (y) = -0.11921 0.69956
# Poissons Ratio (z) = 0.53694 0.53694
#
# Static dielectric constant tensor:
#      x y z
#    x 1.662920 0.000000 0.000000 
#    y 0.000000 1.663200 0.000000 
#    z 0.000000 0.000000 2.146300 
# 
# From -- ./inp_files/3484.got.cif
#   From: 2010.05.17/outbox.cif.g08.bks.cpg/sg126_2_cif.got.tgz:3484.got - 2010.05.20 11:58:20.
