data_PCOD9563335
_publ_section_title
;
Structure prediction by ZEFSAII (Michael W. Deem and Ramdas Pophale) SiO2 
 PCOD9563335
Probable space group: P 4/N N C
;
_chemical_formula_sum "Si O2"
_cell_formula_units_Z 36
_cell_length_a 11.562342
_cell_length_b 11.562342
_cell_length_c 9.876527
_cell_angle_alpha 90.000000
_cell_angle_beta 90.000000
_cell_angle_gamma 90.000000
_cell_volume 1320.370697
_symmetry_space_group_name_H-M "P 4/N N C"
_symmetry_group_IT_number 126
_space_group.IT_coordinate_system_code '2'
_symmetry_cell_setting 'tetragonal'
loop_
_space_group_symop_operation_xyz
x,y,z
1/2-y,x,z
1/2-x,1/2-y,z
y,1/2-x,z
x,1/2-y,1/2-z
1/2-x,y,1/2-z
y,x,1/2-z
1/2-y,1/2-x,1/2-z
-x,-y,-z
1/2+y,-x,-z
1/2+x,1/2+y,-z
-y,1/2+x,-z
-x,1/2+y,1/2+z
1/2+x,-y,1/2+z
-y,-x,1/2+z
1/2+y,1/2+x,1/2+z
loop_
_atom_site_type_symbol
_atom_site_label
_atom_site_fract_x
_atom_site_fract_y
_atom_site_fract_z
Si Si1 0.750000 0.250000 0.500000
Si Si2 0.491984 0.155296 0.652353
Si Si3 0.509571 0.212310 0.107668
O O1 0.636615 0.230921 0.412136
O O2 0.552900 0.250000 0.750000
O O3 0.395255 0.104746 0.750000
O O4 0.450132 0.227010 0.520907
O O5 0.577734 0.048527 0.613002
O O6 0.457842 0.250000 0.250000
#
# Coordination Sequence:
#
# PCOD9563335 Si02
#       3
#     4  16  16
#     4   8  14  28  52  86 130 172 224 302 370 428
#     4  11  24  41  65 101 149 201 257 325 399 465
#     4  10  19  34  61  94 132 181 245 310 376 456
#
# _framework density 27.265069
#
# number of rings (size 3 to 8) (size 9 to 14) (size 15 to 20)
#    0.000    1.778    0.000    8.667    0.000    7.556 
#    0.000    0.000    0.000    0.000    0.000    3.111 
#    0.000    0.000    0.000    0.000    0.000    0.000 
#
# Total GULP energy -201046.886409 kJ/mol
# GULP energy per Si atom -5584.635734 kJ/mol
# Density = 2.720301 g / cm^3
# Si number density = 27.265069 Si / 1000 Ang^3
#
#
#
# Elastic Constant Matrix: (Units=GPa)
#
#
# Indices 1 2 3 4 5 6 
#
# 1 72.4279 46.6345 65.0063 0.0000 0.0000 0.0000
# 2 46.6345 72.4248 65.0057 0.0000 0.0000 0.0000
# 3 65.0063 65.0057 266.9161 0.0000 0.0000 0.0000
# 4 0.0000 0.0000 0.0000 52.7257 0.0000 0.0000
# 5 0.0000 0.0000 0.0000 0.0000 52.7268 0.0000
# 6 0.0000 0.0000 0.0000 0.0000 0.0000 29.0678
#
#
#
# Elastic Compliance Matrix: (Units=1/GPa)
#
#
# Indices 1 2 3 4 5 6 
#
# 1 0.025106 -0.013665 -0.002787 0.000000 0.000000 0.000000
# 2 -0.013665 0.025108 -0.002787 0.000000 0.000000 0.000000
# 3 -0.002787 -0.002787 0.005104 0.000000 0.000000 0.000000
# 4 0.000000 0.000000 0.000000 0.018966 0.000000 0.000000
# 5 0.000000 0.000000 0.000000 0.000000 0.018966 0.000000
# 6 0.000000 0.000000 0.000000 0.000000 0.000000 0.034402
#
#
# Mechanical properties :
#
#
# Convention : Reuss Voigt Hill
#
# Bulk Modulus (GPa) = 59.37779 85.00687 72.19233
# Shear Modulus (GPa) = 29.11343 42.57888 35.84615
#
# Velocity S-wave (km/s) = 3.27125 3.95608 3.62985
# Velocity P-wave (km/s) = 6.00778 7.21893 6.64102
#
# Compressibility (1/GPa) = 0.01684132
#
# Stress axis : x y z
#
# Youngs Moduli (GPa) = 39.83061 39.82860 195.93087
#
# Poissons Ratio (x) = 0.54425 0.54597
# Poissons Ratio (y) = 0.54428 0.54601
# Poissons Ratio (z) = 0.11099 0.11099
#
# Static dielectric constant tensor:
#      x y z
#    x 2.173650 0.000000 0.000000 
#    y 0.000000 2.173650 0.000000 
#    z 0.000000 0.000000 2.259590 
# 
# From -- ./inp_files/836.got.cif
#   From: 2010.05.17/outbox.cif.g08.bks.cpg/sg126_1_cif.got.tgz:836.got - 2010.05.20 11:58:20.
