data_PCOD9563624
_publ_section_title
;
Structure prediction by ZEFSAII (Michael W. Deem and Ramdas Pophale) SiO2 
 PCOD9563624
Probable space group: P 4/N N C
;
_chemical_formula_sum "Si O2"
_cell_formula_units_Z 72
_cell_length_a 20.831318
_cell_length_b 20.831318
_cell_length_c 8.122770
_cell_angle_alpha 90.000000
_cell_angle_beta 90.000000
_cell_angle_gamma 90.000000
_cell_volume 3524.825758
_symmetry_space_group_name_H-M "P 4/N N C"
_symmetry_group_IT_number 126
_space_group.IT_coordinate_system_code '2'
_symmetry_cell_setting 'tetragonal'
loop_
_space_group_symop_operation_xyz
x,y,z
1/2-y,x,z
1/2-x,1/2-y,z
y,1/2-x,z
x,1/2-y,1/2-z
1/2-x,y,1/2-z
y,x,1/2-z
1/2-y,1/2-x,1/2-z
-x,-y,-z
1/2+y,-x,-z
1/2+x,1/2+y,-z
-y,1/2+x,-z
-x,1/2+y,1/2+z
1/2+x,-y,1/2+z
-y,-x,1/2+z
1/2+y,1/2+x,1/2+z
loop_
_atom_site_type_symbol
_atom_site_label
_atom_site_fract_x
_atom_site_fract_y
_atom_site_fract_z
Si Si1 0.364118 0.543181 0.830994
Si Si2 0.141279 0.251228 0.060841
Si Si3 0.672838 0.206728 0.910838
Si Si4 0.560389 0.494617 0.878227
Si Si5 0.250000 0.454015 0.750000
O O1 0.337604 0.611889 0.887886
O O2 0.427572 0.554143 0.720801
O O3 0.311258 0.501217 0.738814
O O4 0.380471 0.506037 0.999745
O O5 0.187425 0.188751 0.043992
O O6 0.115781 0.250000 0.250000
O O7 0.089925 0.252358 0.913598
O O8 0.677175 0.250000 0.750000
O O9 0.668324 0.261970 0.050808
O O10 0.552402 0.552402 0.750000
O O11 0.500000 0.500000 0.000000
#
# Coordination Sequence:
#
# PCOD9563624 Si02
#       5
#    16  16  16  16   8
#     4  11  23  42  64  93 130 166 226 273 328 400
#     4   9  20  42  67  96 134 172 211 268 347 412
#     4  11  22  39  63  92 124 166 211 264 333 392
#     4   9  21  43  66  86 121 177 213 263 334 403
#     4  12  24  39  64 105 130 170 224 284 326 388
#
# _framework density 20.426541
#
# number of rings (size 3 to 8) (size 9 to 14) (size 15 to 20)
#    0.000    1.778    1.111    4.000    0.000    6.222 
#   12.000    2.222    0.000    0.000    0.000    0.000 
#    0.000    0.000    0.000    0.000    0.000    0.000 
#
# Total GULP energy -401740.041642 kJ/mol
# GULP energy per Si atom -5579.722801 kJ/mol
# Density = 2.038005 g / cm^3
# Si number density = 20.426541 Si / 1000 Ang^3
#
#
#
# Elastic Constant Matrix: (Units=GPa)
#
#
# Indices 1 2 3 4 5 6 
#
# 1 69.7672 43.2777 30.5676 0.0000 0.0000 0.0000
# 2 43.2777 69.7672 30.5676 0.0000 0.0000 0.0000
# 3 30.5676 30.5676 98.3156 0.0000 0.0000 0.0000
# 4 0.0000 0.0000 0.0000 27.7927 0.0000 0.0000
# 5 0.0000 0.0000 0.0000 0.0000 27.7927 0.0000
# 6 0.0000 0.0000 0.0000 0.0000 0.0000 33.2365
#
#
#
# Elastic Compliance Matrix: (Units=1/GPa)
#
#
# Indices 1 2 3 4 5 6 
#
# 1 0.024192 -0.013558 -0.003306 0.000000 0.000000 0.000000
# 2 -0.013558 0.024192 -0.003306 0.000000 0.000000 0.000000
# 3 -0.003306 -0.003306 0.012227 0.000000 0.000000 0.000000
# 4 0.000000 0.000000 0.000000 0.035981 0.000000 0.000000
# 5 0.000000 0.000000 0.000000 0.000000 0.035981 0.000000
# 6 0.000000 0.000000 0.000000 0.000000 0.000000 0.030087
#
#
# Mechanical properties :
#
#
# Convention : Reuss Voigt Hill
#
# Bulk Modulus (GPa) = 49.33318 49.63064 49.48191
# Shear Modulus (GPa) = 23.83685 26.66021 25.24853
#
# Velocity S-wave (km/s) = 3.41978 3.61664 3.51959
# Velocity P-wave (km/s) = 6.30850 6.46452 6.38698
#
# Compressibility (1/GPa) = 0.02027033
#
# Stress axis : x y z
#
# Youngs Moduli (GPa) = 41.33527 41.33527 81.78459
#
# Poissons Ratio (x) = 0.56044 0.27040
# Poissons Ratio (y) = 0.56044 0.27040
# Poissons Ratio (z) = 0.13667 0.13667
#
# Static dielectric constant tensor:
#      x y z
#    x 1.705940 0.000000 0.000000 
#    y 0.000000 1.705940 0.000000 
#    z 0.000000 0.000000 1.823970 
# 
# From -- ./inp_files/1584.got.cif
#   From: 2010.05.17/outbox.cif.g08.bks.cpg/sg126_1_cif.got.tgz:1584.got - 2010.05.20 11:58:20.
