data_PCOD9563823
_publ_section_title
;
Structure prediction by ZEFSAII (Michael W. Deem and Ramdas Pophale) SiO2 
 PCOD9563823
Probable space group: P 4/M B M
;
_chemical_formula_sum "Si O2"
_cell_formula_units_Z 80
_cell_length_a 18.467141
_cell_length_b 18.467141
_cell_length_c 8.435611
_cell_angle_alpha 90.000000
_cell_angle_beta 90.000000
_cell_angle_gamma 90.000000
_cell_volume 2876.841100
_symmetry_space_group_name_H-M "P 4/M B M"
_symmetry_group_IT_number 127
_symmetry_cell_setting 'tetragonal'
loop_
_space_group_symop_operation_xyz
x,y,z
-y,x,z
-x,-y,z
y,-x,z
1/2+x,1/2-y,-z
1/2-x,1/2+y,-z
1/2+y,1/2+x,-z
1/2-y,1/2-x,-z
-x,-y,-z
y,-x,-z
x,y,-z
-y,x,-z
1/2-x,1/2+y,z
1/2+x,1/2-y,z
1/2-y,1/2-x,z
1/2+y,1/2+x,z
loop_
_atom_site_type_symbol
_atom_site_label
_atom_site_fract_x
_atom_site_fract_y
_atom_site_fract_z
Si Si1 0.134062 0.045342 0.500000
Si Si2 0.089989 0.101584 0.173695
Si Si3 0.261178 0.908648 0.824321
Si Si4 0.293860 0.382911 0.500000
Si Si5 0.259114 0.129053 0.824719
Si Si6 0.363263 0.020196 0.316791
O O1 0.089711 0.052453 0.332364
O O2 0.181410 0.970869 0.500000
O O3 0.160865 0.130210 0.500000
O O4 0.174166 0.124874 0.172110
O O5 0.051539 0.181145 0.174123
O O6 0.077486 0.069012 0.000000
O O7 0.251047 0.868655 0.657322
O O8 0.331639 0.957711 0.793955
O O9 0.265594 0.876300 0.000000
O O10 0.290933 0.209068 0.808206
O O11 0.298865 0.079273 0.697894
O O12 0.283714 0.102108 0.000000
O O13 0.369803 0.996808 0.500000
O O14 0.436306 0.063695 0.272418
#
# Coordination Sequence:
#
# PCOD9563823 Si02
#       6
#     8  16  16   8  16  16
#     4  10  20  31  47  61  83 113 144 188 226 264
#     4   9  19  32  46  66  88 115 149 183 220 262
#     4  10  19  32  48  64  88 118 149 184 219 263
#     4  10  20  33  45  65  83 109 150 184 228 266
#     4   9  17  29  45  66  92 120 148 179 222 273
#     4  10  19  29  43  67  95 118 146 183 222 267
#
# _framework density 27.808278000000001
#
# number of rings (size 3 to 8) (size 9 to 14) (size 15 to 20)
#    0.000    2.400    1.000    1.800    1.400    3.800 
#    0.000    0.000    0.000    0.000    0.000    5.600 
#    0.000    0.800    0.000   10.000    0.000    1.600 
#
# Total GULP energy -445928.192881 kJ/mol
# GULP energy per Si atom -5574.102411 kJ/mol
# Density = 2.774499 g / cm^3
# Si number density = 27.808278 Si / 1000 Ang^3
#
#
#
# Elastic Constant Matrix: (Units=GPa)
#
#
# Indices 1 2 3 4 5 6 
#
# 1 57.7790 113.8778 29.2645 0.0000 0.0000 0.0000
# 2 113.8778 57.7790 29.2645 0.0000 0.0000 0.0000
# 3 29.2645 29.2645 274.7843 0.0000 0.0000 0.0000
# 4 0.0000 0.0000 0.0000 3.0464 0.0000 0.0000
# 5 0.0000 0.0000 0.0000 0.0000 3.0464 0.0000
# 6 0.0000 0.0000 0.0000 0.0000 0.0000 51.0702
#
#
#
# Elastic Compliance Matrix: (Units=1/GPa)
#
#
# Indices 1 2 3 4 5 6 
#
# 1 -0.005890 0.011935 -0.000644 0.000000 0.000000 0.000000
# 2 0.011935 -0.005890 -0.000644 0.000000 0.000000 0.000000
# 3 -0.000644 -0.000644 0.003776 0.000000 0.000000 0.000000
# 4 0.000000 0.000000 0.000000 0.328256 0.000000 0.000000
# 5 0.000000 0.000000 0.000000 0.000000 0.328256 0.000000
# 6 0.000000 0.000000 0.000000 0.000000 0.000000 0.019581
#
#
# Mechanical properties :
#
#
# Convention : Reuss Voigt Hill
#
# Bulk Modulus (GPa) = 75.23705 81.68398 78.46052
# Shear Modulus (GPa) = 7.67786 25.96165 16.81975
#
# Velocity S-wave (km/s) = 1.66343 3.05879 2.46203
# Velocity P-wave (km/s) = 5.55011 6.47400 6.02978
#
# Compressibility (1/GPa) = 0.01329132
#
# Stress axis : x y z
#
# Youngs Moduli (GPa) = -169.77053 -169.77053 264.80612
#
# Poissons Ratio (x) = 2.02628 0.17048
# Poissons Ratio (y) = 2.02628 0.17048
# Poissons Ratio (z) = -0.10930 -0.10930
#
# Static dielectric constant tensor:
#      x y z
#    x 2.200520 0.000000 0.000000 
#    y 0.000000 2.200520 0.000000 
#    z 0.000000 0.000000 2.224310 
# 
# From -- ./inp_files/1849.got.cif
#   From: 2010.05.17/outbox.cif.g08.bks.cpg/sg127_1_cif.got.tgz:1849.got - 2010.05.20 12:03:00.
