data_PCOD9563385
_publ_section_title
;
Structure prediction by ZEFSAII (Michael W. Deem and Ramdas Pophale) SiO2 
 PCOD9563385
Probable space group: P 4/N N C
;
_chemical_formula_sum "Si O2"
_cell_formula_units_Z 96
_cell_length_a 20.815603
_cell_length_b 20.815603
_cell_length_c 11.795468
_cell_angle_alpha 90.000000
_cell_angle_beta 90.000000
_cell_angle_gamma 90.000000
_cell_volume 5110.850406
_symmetry_space_group_name_H-M "P 4/N N C"
_symmetry_group_IT_number 126
_space_group.IT_coordinate_system_code '2'
_symmetry_cell_setting 'tetragonal'
loop_
_space_group_symop_operation_xyz
x,y,z
1/2-y,x,z
1/2-x,1/2-y,z
y,1/2-x,z
x,1/2-y,1/2-z
1/2-x,y,1/2-z
y,x,1/2-z
1/2-y,1/2-x,1/2-z
-x,-y,-z
1/2+y,-x,-z
1/2+x,1/2+y,-z
-y,1/2+x,-z
-x,1/2+y,1/2+z
1/2+x,-y,1/2+z
-y,-x,1/2+z
1/2+y,1/2+x,1/2+z
loop_
_atom_site_type_symbol
_atom_site_label
_atom_site_fract_x
_atom_site_fract_y
_atom_site_fract_z
Si Si1 0.115561 0.115561 0.750000
Si Si2 0.987275 0.057812 0.347364
Si Si3 0.701235 0.329804 0.459583
Si Si4 0.459913 0.095017 0.518561
Si Si5 0.724459 0.022791 0.016577
Si Si6 0.750000 0.952011 0.250000
Si Si7 0.928194 0.309950 0.167158
O O1 0.094829 0.082481 0.632135
O O2 0.188905 0.094038 0.762074
O O3 0.955576 0.121499 0.295412
O O4 0.051540 0.069536 0.420219
O O5 0.937753 0.025874 0.436182
O O6 0.007996 0.007996 0.250000
O O7 0.777496 0.316370 0.441926
O O8 0.697134 0.404548 0.487482
O O9 0.646882 0.316374 0.366546
O O10 0.475992 0.167015 0.478031
O O11 0.741155 0.998171 0.141728
O O12 0.788233 0.029744 0.941827
O O13 0.935205 0.250000 0.250000
#
# Coordination Sequence:
#
# PCOD9563385 Si02
#       7
#     8  16  16  16  16   8  16
#     4  10  20  39  56  90 112 148 192 234 305 352
#     4  11  21  35  55  87 111 153 191 243 299 346
#     4   9  19  38  50  74 111 147 199 233 274 334
#     4  10  20  35  57  80 117 144 191 246 287 355
#     4  10  20  40  55  84 111 154 195 238 293 343
#     4  10  22  37  64  83 118 150 186 246 292 364
#     4  11  22  38  58  82 115 157 198 241 288 349
#
# _framework density 18.783567000000001
#
# number of rings (size 3 to 8) (size 9 to 14) (size 15 to 20)
#    0.000    1.833    2.500    2.000    0.000    0.167 
#   15.000    0.833    0.000    0.000    0.000    0.000 
#    0.000   13.667    0.000    0.000    0.000    0.000 
#
# Total GULP energy -534817.486265 kJ/mol
# GULP energy per Si atom -5571.015482 kJ/mol
# Density = 1.874082 g / cm^3
# Si number density = 18.783567 Si / 1000 Ang^3
#
#
#
# Elastic Constant Matrix: (Units=GPa)
#
#
# Indices 1 2 3 4 5 6 
#
# 1 148.7454 -34.0072 13.8679 0.0000 0.0000 0.0000
# 2 -34.0072 148.7454 13.8679 0.0000 0.0000 0.0000
# 3 13.8679 13.8679 26.6514 0.0000 0.0000 0.0000
# 4 0.0000 0.0000 0.0000 26.8601 0.0000 0.0000
# 5 0.0000 0.0000 0.0000 0.0000 26.8601 0.0000
# 6 0.0000 0.0000 0.0000 0.0000 0.0000 25.2554
#
#
#
# Elastic Compliance Matrix: (Units=1/GPa)
#
#
# Indices 1 2 3 4 5 6 
#
# 1 0.007721 0.002249 -0.005188 0.000000 0.000000 0.000000
# 2 0.002249 0.007721 -0.005188 0.000000 0.000000 0.000000
# 3 -0.005188 -0.005188 0.042920 0.000000 0.000000 0.000000
# 4 0.000000 0.000000 0.000000 0.037230 0.000000 0.000000
# 5 0.000000 0.000000 0.000000 0.000000 0.037230 0.000000
# 6 0.000000 0.000000 0.000000 0.000000 0.000000 0.039595
#
#
# Mechanical properties :
#
#
# Convention : Reuss Voigt Hill
#
# Bulk Modulus (GPa) = 23.74800 34.62216 29.18508
# Shear Modulus (GPa) = 24.66631 37.82270 31.24450
#
# Velocity S-wave (km/s) = 3.62772 4.49219 4.08290
# Velocity P-wave (km/s) = 5.49705 6.73636 6.14801
#
# Compressibility (1/GPa) = 0.04210882
#
# Stress axis : x y z
#
# Youngs Moduli (GPa) = 129.52221 129.52221 23.29912
#
# Poissons Ratio (x) = -0.29127 0.12087
# Poissons Ratio (y) = -0.29127 0.12087
# Poissons Ratio (z) = 0.67190 0.67190
#
# Static dielectric constant tensor:
#      x y z
#    x 1.655700 0.000000 0.000000 
#    y 0.000000 1.655700 0.000000 
#    z 0.000000 0.000000 1.673820 
# 
# From -- ./inp_files/2945.got.cif
#   From: 2010.05.17/outbox.cif.g08.bks.cpg/sg126_2_cif.got.tgz:2945.got - 2010.05.20 11:58:20.
