data_PCOD9563152
_publ_section_title
;
Structure prediction by ZEFSAII (Michael W. Deem and Ramdas Pophale) SiO2 
 PCOD9563152
Probable space group: P 4/N B M
;
_chemical_formula_sum "Si O2"
_cell_formula_units_Z 88
_cell_length_a 14.849794
_cell_length_b 14.849794
_cell_length_c 21.415161
_cell_angle_alpha 90.000000
_cell_angle_beta 90.000000
_cell_angle_gamma 90.000000
_cell_volume 4722.393820
_symmetry_space_group_name_H-M "P 4/N B M"
_symmetry_group_IT_number 125
_space_group.IT_coordinate_system_code '2'
_symmetry_cell_setting 'tetragonal'
loop_
_space_group_symop_operation_xyz
x,y,z
1/2-y,x,z
1/2-x,1/2-y,z
y,1/2-x,z
x,1/2-y,-z
1/2-x,y,-z
y,x,-z
1/2-y,1/2-x,-z
-x,-y,-z
1/2+y,-x,-z
1/2+x,1/2+y,-z
-y,1/2+x,-z
-x,1/2+y,z
1/2+x,-y,z
-y,-x,z
1/2+y,1/2+x,z
loop_
_atom_site_type_symbol
_atom_site_label
_atom_site_fract_x
_atom_site_fract_y
_atom_site_fract_z
Si Si1 0.618146 0.534236 0.741368
Si Si2 0.065197 0.415224 0.397052
Si Si3 0.358221 0.141780 0.000000
Si Si4 0.243496 0.894865 0.702716
Si Si5 0.144478 0.359487 0.864655
Si Si6 0.025274 0.736683 0.433101
O O1 0.544300 0.455701 0.743668
O O2 0.600041 0.586192 0.676422
O O3 0.715334 0.484140 0.734391
O O4 0.609412 0.592598 0.803091
O O5 0.045329 0.318612 0.426241
O O6 0.143011 0.472272 0.428913
O O7 0.973437 0.473437 0.400436
O O8 0.371589 0.250000 0.000000
O O9 0.393094 0.109618 0.067452
O O10 0.146794 0.853207 0.721656
O O11 0.317388 0.817388 0.714247
O O12 0.241318 0.913643 0.628488
O O13 0.128087 0.252631 0.862902
O O14 0.071401 0.750000 0.500000
#
# Coordination Sequence:
#
# PCOD9563152 Si02
#       6
#    16  16   8  16  16  16
#     4   9  19  34  49  72 105 137 169 214 265 314
#     4  10  23  39  53  74 106 136 171 221 270 320
#     4   7  12  26  45  70 102 134 165 201 242 292
#     4   9  19  35  52  71  97 131 176 225 268 313
#     4   9  17  29  50  76 102 133 170 206 248 301
#     4  11  22  36  55  74  98 136 173 212 271 330
#
# _framework density 18.634618
#
# number of rings (size 3 to 8) (size 9 to 14) (size 15 to 20)
#    0.000    2.636    0.000    3.818    5.091    4.000 
#    0.000    2.273    0.000    0.000    0.000    1.273 
#    0.000    0.000    0.000    0.000    0.000    0.000 
#
# Total GULP energy -490479.295341 kJ/mol
# GULP energy per Si atom -5573.628356 kJ/mol
# Density = 1.859220 g / cm^3
# Si number density = 18.634618 Si / 1000 Ang^3
#
#
#
# Elastic Constant Matrix: (Units=GPa)
#
#
# Indices 1 2 3 4 5 6 
#
# 1 24.7683 7.0774 7.8195 0.0000 0.0000 0.0000
# 2 7.0774 24.7685 7.8191 0.0000 0.0000 0.0000
# 3 7.8195 7.8191 120.0951 0.0000 0.0000 0.0000
# 4 0.0000 0.0000 0.0000 -6.3225 0.0000 0.0000
# 5 0.0000 0.0000 0.0000 0.0000 -6.3227 0.0000
# 6 0.0000 0.0000 0.0000 0.0000 0.0000 7.0993
#
#
#
# Elastic Compliance Matrix: (Units=1/GPa)
#
#
# Indices 1 2 3 4 5 6 
#
# 1 0.044482 -0.012044 -0.002112 0.000000 0.000000 0.000000
# 2 -0.012044 0.044482 -0.002112 0.000000 0.000000 0.000000
# 3 -0.002112 -0.002112 0.008602 0.000000 0.000000 0.000000
# 4 0.000000 0.000000 0.000000 -0.158165 0.000000 0.000000
# 5 0.000000 0.000000 0.000000 0.000000 -0.158160 0.000000
# 6 0.000000 0.000000 0.000000 0.000000 0.000000 0.140858
#
#
# Mechanical properties :
#
#
# Convention : Reuss Voigt Hill
#
# Bulk Modulus (GPa) = 15.37738 23.89598 19.63668
# Shear Modulus (GPa) = -211.07636 8.68521 -101.19557
#
# Velocity S-wave (km/s) = -10.65444 2.16123 -7.37720
# Velocity P-wave (km/s) = 11.96186 4.36797 7.87423
#
# Compressibility (1/GPa) = 0.06503057
#
# Stress axis : x y z
#
# Youngs Moduli (GPa) = 22.48076 22.48100 116.25523
#
# Poissons Ratio (x) = 0.27076 0.24555
# Poissons Ratio (y) = 0.27075 0.24553
# Poissons Ratio (z) = 0.04748 0.04748
#
# Static dielectric constant tensor:
#      x y z
#    x 1.657950 0.000000 0.000000 
#    y 0.000000 1.657950 0.000000 
#    z 0.000000 0.000000 1.686990 
# 
# From -- ./inp_files/5869.got.cif
#   From: 2010.05.17/outbox.cif.g08.bks.cpg/sg125_3_cif.got.tgz:5869.got - 2010.05.20 11:54:10.
