data_PCOD9563621
_publ_section_title
;
Structure prediction by ZEFSAII (Michael W. Deem and Ramdas Pophale) SiO2 
 PCOD9563621
Probable space group: P 4/N N C
;
_chemical_formula_sum "Si O2"
_cell_formula_units_Z 48
_cell_length_a 13.510162
_cell_length_b 13.510162
_cell_length_c 13.488957
_cell_angle_alpha 90.000000
_cell_angle_beta 90.000000
_cell_angle_gamma 90.000000
_cell_volume 2462.064825
_symmetry_space_group_name_H-M "P 4/N N C"
_symmetry_group_IT_number 126
_space_group.IT_coordinate_system_code '2'
_symmetry_cell_setting 'tetragonal'
loop_
_space_group_symop_operation_xyz
x,y,z
1/2-y,x,z
1/2-x,1/2-y,z
y,1/2-x,z
x,1/2-y,1/2-z
1/2-x,y,1/2-z
y,x,1/2-z
1/2-y,1/2-x,1/2-z
-x,-y,-z
1/2+y,-x,-z
1/2+x,1/2+y,-z
-y,1/2+x,-z
-x,1/2+y,1/2+z
1/2+x,-y,1/2+z
-y,-x,1/2+z
1/2+y,1/2+x,1/2+z
loop_
_atom_site_type_symbol
_atom_site_label
_atom_site_fract_x
_atom_site_fract_y
_atom_site_fract_z
Si Si1 0.364026 0.014604 0.552845
Si Si2 0.995921 0.834052 0.948944
Si Si3 0.750000 0.918170 0.750000
Si Si4 0.631230 0.868771 0.250000
O O1 0.407308 0.087964 0.468612
O O2 0.398153 0.067363 0.654348
O O3 0.409726 0.905497 0.547754
O O4 0.247376 0.008170 0.535413
O O5 0.983601 0.773660 0.846883
O O6 0.655742 0.844259 0.750000
O O7 0.617266 0.750000 0.250000
#
# Coordination Sequence:
#
# PCOD9563621 Si02
#       4
#    16  16   8   8
#     4  11  24  42  65  97 134 178 222 275 334 403
#     4  11  24  41  67  95 136 172 227 276 336 398
#     4  11  22  38  66  99 126 164 221 288 338 391
#     4  11  22  38  68  96 127 166 224 280 335 390
#
# _framework density 19.495830999999999
#
# number of rings (size 3 to 8) (size 9 to 14) (size 15 to 20)
#    0.000    1.000    6.667    0.000    2.333    1.333 
#    0.000    0.000    0.000    0.000    0.000    0.000 
#    0.000    0.000    0.000    0.000    0.000    0.000 
#
# Total GULP energy -267488.606035 kJ/mol
# GULP energy per Si atom -5572.679292 kJ/mol
# Density = 1.945146 g / cm^3
# Si number density = 19.495831 Si / 1000 Ang^3
#
#
#
# Elastic Constant Matrix: (Units=GPa)
#
#
# Indices 1 2 3 4 5 6 
#
# 1 91.1377 51.2372 33.2688 0.0000 0.0000 0.0000
# 2 51.2372 91.1367 33.2693 0.0000 0.0000 0.0000
# 3 33.2688 33.2693 121.6305 0.0000 0.0000 0.0000
# 4 0.0000 0.0000 0.0000 11.5295 0.0000 0.0000
# 5 0.0000 0.0000 0.0000 0.0000 11.5296 0.0000
# 6 0.0000 0.0000 0.0000 0.0000 0.0000 17.4950
#
#
#
# Elastic Compliance Matrix: (Units=1/GPa)
#
#
# Indices 1 2 3 4 5 6 
#
# 1 0.016558 -0.008505 -0.002203 0.000000 0.000000 0.000000
# 2 -0.008505 0.016558 -0.002203 0.000000 0.000000 0.000000
# 3 -0.002203 -0.002203 0.009427 0.000000 0.000000 0.000000
# 4 0.000000 0.000000 0.000000 0.086734 0.000000 0.000000
# 5 0.000000 0.000000 0.000000 0.000000 0.086734 0.000000
# 6 0.000000 0.000000 0.000000 0.000000 0.000000 0.057159
#
#
# Mechanical properties :
#
#
# Convention : Reuss Voigt Hill
#
# Bulk Modulus (GPa) = 59.80147 59.93950 59.87049
# Shear Modulus (GPa) = 16.41692 20.51945 18.46819
#
# Velocity S-wave (km/s) = 2.90500 3.24775 3.08115
# Velocity P-wave (km/s) = 6.48017 6.69891 6.59045
#
# Compressibility (1/GPa) = 0.01672200
#
# Stress axis : x y z
#
# Youngs Moduli (GPa) = 60.39448 60.39359 106.08233
#
# Poissons Ratio (x) = 0.51363 0.23366
# Poissons Ratio (y) = 0.51364 0.23368
# Poissons Ratio (z) = 0.13303 0.13304
#
# Static dielectric constant tensor:
#      x y z
#    x 1.657040 0.000000 0.000000 
#    y 0.000000 1.657050 0.000000 
#    z 0.000000 0.000000 1.755040 
# 
# From -- ./inp_files/2325.got.cif
#   From: 2010.05.17/outbox.cif.g08.bks.cpg/sg126_2_cif.got.tgz:2325.got - 2010.05.20 11:58:20.
