data_PCOD9563852
_publ_section_title
;
Structure prediction by ZEFSAII (Michael W. Deem and Ramdas Pophale) SiO2 
 PCOD9563852
Probable space group: P 4/M B M
;
_chemical_formula_sum "Si O2"
_cell_formula_units_Z 72
_cell_length_a 23.451992
_cell_length_b 23.451992
_cell_length_c 8.859550
_cell_angle_alpha 90.000000
_cell_angle_beta 90.000000
_cell_angle_gamma 90.000000
_cell_volume 4872.716431
_symmetry_space_group_name_H-M "P 4/M B M"
_symmetry_group_IT_number 127
_symmetry_cell_setting 'tetragonal'
loop_
_space_group_symop_operation_xyz
x,y,z
-y,x,z
-x,-y,z
y,-x,z
1/2+x,1/2-y,-z
1/2-x,1/2+y,-z
1/2+y,1/2+x,-z
1/2-y,1/2-x,-z
-x,-y,-z
y,-x,-z
x,y,-z
-y,x,-z
1/2-x,1/2+y,z
1/2+x,1/2-y,z
1/2-y,1/2-x,z
1/2+y,1/2+x,z
loop_
_atom_site_type_symbol
_atom_site_label
_atom_site_fract_x
_atom_site_fract_y
_atom_site_fract_z
Si Si1 0.628839 0.775563 0.819543
Si Si2 0.516283 0.824960 0.318399
Si Si3 0.701372 0.106241 0.180626
Si Si4 0.453946 0.046054 0.683441
Si Si5 0.189817 0.212384 0.673727
O O1 0.671326 0.828675 0.781884
O O2 0.568034 0.787407 0.745127
O O3 0.659147 0.718884 0.756557
O O4 0.624282 0.772845 0.000000
O O5 0.515730 0.822671 0.500000
O O6 0.455194 0.807146 0.254295
O O7 0.529394 0.890232 0.270321
O O8 0.647948 0.147948 0.219620
O O9 0.758089 0.137195 0.242041
O O10 0.703712 0.101885 0.000000
O O11 0.454690 0.045311 0.500000
O O12 0.500000 0.000000 0.737049
O O13 0.176073 0.199267 0.500000
O O14 0.238988 0.261013 0.674126
#
# Coordination Sequence:
#
# PCOD9563852 Si02
#       5
#    16  16  16   8  16
#     4  10  19  31  47  67  93 121 152 193 242 287
#     4  11  20  31  47  66  92 124 163 202 236 277
#     4  10  20  33  47  66  93 124 157 195 241 286
#     4   9  18  30  43  61  87 123 165 205 237 266
#     4   9  17  30  49  69  88 114 152 193 236 285
#
# _framework density 14.776153000000001
#
# number of rings (size 3 to 8) (size 9 to 14) (size 15 to 20)
#    0.000    2.111    1.111    3.333    0.000    5.778 
#    0.000    0.000    0.000    2.667    0.000    0.000 
#    0.000    0.889    0.000    8.889    0.000    5.333 
#
# Total GULP energy -401682.363728 kJ/mol
# GULP energy per Si atom -5578.921718 kJ/mol
# Density = 1.474252 g / cm^3
# Si number density = 14.776153 Si / 1000 Ang^3
#
#
#
# Elastic Constant Matrix: (Units=GPa)
#
#
# Indices 1 2 3 4 5 6 
#
# 1 98.3877 89.3889 51.4667 0.0000 0.0000 0.0000
# 2 89.3889 98.3878 51.4666 0.0000 0.0000 0.0000
# 3 51.4667 51.4666 73.8043 0.0000 0.0000 0.0000
# 4 0.0000 0.0000 0.0000 23.9702 0.0000 0.0000
# 5 0.0000 0.0000 0.0000 0.0000 23.9702 0.0000
# 6 0.0000 0.0000 0.0000 0.0000 0.0000 26.7943
#
#
#
# Elastic Compliance Matrix: (Units=1/GPa)
#
#
# Indices 1 2 3 4 5 6 
#
# 1 0.059873 -0.051252 -0.006012 0.000000 0.000000 0.000000
# 2 -0.051252 0.059873 -0.006012 0.000000 0.000000 0.000000
# 3 -0.006012 -0.006012 0.021934 0.000000 0.000000 0.000000
# 4 0.000000 0.000000 0.000000 0.041718 0.000000 0.000000
# 5 0.000000 0.000000 0.000000 0.000000 0.041718 0.000000
# 6 0.000000 0.000000 0.000000 0.000000 0.000000 0.037321
#
#
# Mechanical properties :
#
#
# Convention : Reuss Voigt Hill
#
# Bulk Modulus (GPa) = 66.09931 72.80270 69.45101
# Shear Modulus (GPa) = 12.68929 20.16411 16.42670
#
# Velocity S-wave (km/s) = 2.93365 3.69811 3.33784
# Velocity P-wave (km/s) = 7.50373 8.22265 7.87141
#
# Compressibility (1/GPa) = 0.01512875
#
# Stress axis : x y z
#
# Youngs Moduli (GPa) = 16.70192 16.70195 45.59191
#
# Poissons Ratio (x) = 0.85602 0.27409
# Poissons Ratio (y) = 0.85601 0.27408
# Poissons Ratio (z) = 0.10041 0.10041
#
# Static dielectric constant tensor:
#      x y z
#    x 1.470130 0.000000 0.000000 
#    y 0.000000 1.470130 0.000000 
#    z 0.000000 0.000000 1.491140 
# 
# From -- ./inp_files/1541.got.cif
#   From: 2010.05.17/outbox.cif.g08.bks.cpg/sg127_1_cif.got.tgz:1541.got - 2010.05.20 12:03:00.
