data_PCOD9563890
_publ_section_title
;
Structure prediction by ZEFSAII (Michael W. Deem and Ramdas Pophale) SiO2 
 PCOD9563890
Probable space group: P 4/M B M
;
_chemical_formula_sum "Si O2"
_cell_formula_units_Z 104
_cell_length_a 15.480222
_cell_length_b 15.480222
_cell_length_c 24.519869
_cell_angle_alpha 90.000000
_cell_angle_beta 90.000000
_cell_angle_gamma 90.000000
_cell_volume 5875.874546
_symmetry_space_group_name_H-M "P 4/M B M"
_symmetry_group_IT_number 127
_symmetry_cell_setting 'tetragonal'
loop_
_space_group_symop_operation_xyz
x,y,z
-y,x,z
-x,-y,z
y,-x,z
1/2+x,1/2-y,-z
1/2-x,1/2+y,-z
1/2+y,1/2+x,-z
1/2-y,1/2-x,-z
-x,-y,-z
y,-x,-z
x,y,-z
-y,x,-z
1/2-x,1/2+y,z
1/2+x,1/2-y,z
1/2-y,1/2-x,z
1/2+y,1/2+x,z
loop_
_atom_site_type_symbol
_atom_site_label
_atom_site_fract_x
_atom_site_fract_y
_atom_site_fract_z
Si Si1 0.272723 0.910070 0.648178
Si Si2 0.425505 0.074496 0.936933
Si Si3 0.467288 0.175337 0.253432
Si Si4 0.560801 0.369306 0.163148
Si Si5 0.856664 0.018077 0.563966
Si Si6 0.180660 0.820023 0.259152
Si Si7 0.045125 0.312135 0.132103
O O1 0.345910 0.845910 0.625704
O O2 0.223810 0.965813 0.603176
O O3 0.202252 0.851638 0.680303
O O4 0.313697 0.967532 0.696494
O O5 0.466371 0.156110 0.905737
O O6 0.500000 0.000000 0.934344
O O7 0.407576 0.092425 0.000000
O O8 0.411707 0.088294 0.258256
O O9 0.399260 0.254687 0.255894
O O10 0.513050 0.176230 0.194574
O O11 0.609774 0.459723 0.156369
O O12 0.596728 0.338910 0.222168
O O13 0.575157 0.286474 0.125251
O O14 0.833076 0.021019 0.500000
O O15 0.928197 0.093074 0.573615
O O16 0.265121 0.765121 0.239944
O O17 0.124330 0.375671 0.122147
#
# Coordination Sequence:
#
# PCOD9563890 Si02
#       7
#    16   8  16  16  16  16  16
#     4  11  21  32  50  77 113 147 180 223 282 345
#     4   9  20  38  62  90 114 144 193 248 290 326
#     4  11  21  33  51  80 115 149 185 224 283 342
#     4  11  21  33  50  79 116 154 191 227 282 350
#     4   9  19  37  59  78  98 134 187 242 290 336
#     4  10  19  32  50  76 115 153 189 233 277 337
#     4  11  20  34  57  83 112 150 189 238 289 336
#
# _framework density 17.699491999999999
#
# number of rings (size 3 to 8) (size 9 to 14) (size 15 to 20)
#    0.000    1.615    3.846    2.308    0.000    1.231 
#    1.385    1.538    0.000    2.308    0.000    2.154 
#    0.000    0.000    0.000    0.000    0.000    0.000 
#
# Total GULP energy -579958.082462 kJ/mol
# GULP energy per Si atom -5576.520024 kJ/mol
# Density = 1.765921 g / cm^3
# Si number density = 17.699492 Si / 1000 Ang^3
#
#
#
# Elastic Constant Matrix: (Units=GPa)
#
#
# Indices 1 2 3 4 5 6 
#
# 1 76.3673 17.9711 24.3939 0.0000 0.0000 0.0000
# 2 17.9711 76.3673 24.3939 0.0000 0.0000 0.0000
# 3 24.3939 24.3939 65.5273 0.0000 0.0000 0.0000
# 4 0.0000 0.0000 0.0000 15.8500 0.0000 0.0000
# 5 0.0000 0.0000 0.0000 0.0000 15.8499 0.0000
# 6 0.0000 0.0000 0.0000 0.0000 0.0000 25.7564
#
#
#
# Elastic Compliance Matrix: (Units=1/GPa)
#
#
# Indices 1 2 3 4 5 6 
#
# 1 0.015126 -0.001998 -0.004887 0.000000 0.000000 0.000000
# 2 -0.001998 0.015126 -0.004887 0.000000 0.000000 0.000000
# 3 -0.004887 -0.004887 0.018899 0.000000 0.000000 0.000000
# 4 0.000000 0.000000 0.000000 0.063091 0.000000 0.000000
# 5 0.000000 0.000000 0.000000 0.000000 0.063092 0.000000
# 6 0.000000 0.000000 0.000000 0.000000 0.000000 0.038825
#
#
# Mechanical properties :
#
#
# Convention : Reuss Voigt Hill
#
# Bulk Modulus (GPa) = 39.05269 39.08661 39.06965
# Shear Modulus (GPa) = 20.30537 21.59146 20.94841
#
# Velocity S-wave (km/s) = 3.39075 3.49648 3.44402
# Velocity P-wave (km/s) = 6.11897 6.19935 6.15929
#
# Compressibility (1/GPa) = 0.02560643
#
# Stress axis : x y z
#
# Youngs Moduli (GPa) = 66.11161 66.11163 52.91185
#
# Poissons Ratio (x) = 0.13212 0.25858
# Poissons Ratio (y) = 0.13212 0.25858
# Poissons Ratio (z) = 0.32309 0.32309
#
# Static dielectric constant tensor:
#      x y z
#    x 1.631690 0.000000 0.000000 
#    y 0.000000 1.631690 0.000000 
#    z 0.000000 0.000000 1.571460 
# 
# From -- ./inp_files/6203.got.cif
#   From: 2010.05.17/outbox.cif.g08.bks.cpg/sg127_4_cif.got.tgz:6203.got - 2010.05.20 12:03:00.
