data_PCOD9563485
_publ_section_title
;
Structure prediction by ZEFSAII (Michael W. Deem and Ramdas Pophale) SiO2 
 PCOD9563485
Probable space group: P 4/N N C
;
_chemical_formula_sum "Si O2"
_cell_formula_units_Z 108
_cell_length_a 16.152514
_cell_length_b 16.152514
_cell_length_c 20.127411
_cell_angle_alpha 90.000000
_cell_angle_beta 90.000000
_cell_angle_gamma 90.000000
_cell_volume 5251.316173
_symmetry_space_group_name_H-M "P 4/N N C"
_symmetry_group_IT_number 126
_space_group.IT_coordinate_system_code '2'
_symmetry_cell_setting 'tetragonal'
loop_
_space_group_symop_operation_xyz
x,y,z
1/2-y,x,z
1/2-x,1/2-y,z
y,1/2-x,z
x,1/2-y,1/2-z
1/2-x,y,1/2-z
y,x,1/2-z
1/2-y,1/2-x,1/2-z
-x,-y,-z
1/2+y,-x,-z
1/2+x,1/2+y,-z
-y,1/2+x,-z
-x,1/2+y,1/2+z
1/2+x,-y,1/2+z
-y,-x,1/2+z
1/2+y,1/2+x,1/2+z
loop_
_atom_site_type_symbol
_atom_site_label
_atom_site_fract_x
_atom_site_fract_y
_atom_site_fract_z
Si Si1 0.454102 0.701453 0.319554
Si Si2 0.652344 0.430514 0.745033
Si Si3 0.000545 0.595852 0.979466
Si Si4 0.173082 0.142030 0.104243
Si Si5 0.250000 0.250000 0.909742
Si Si6 0.878649 0.621352 0.750000
Si Si7 0.596433 0.872271 0.106528
Si Si8 0.131910 0.931473 0.619100
O O1 0.454551 0.750000 0.250000
O O2 0.390942 0.626039 0.310388
O O3 0.545529 0.666715 0.332840
O O4 0.425548 0.769666 0.372796
O O5 0.750000 0.414448 0.750000
O O6 0.636673 0.526411 0.730431
O O7 0.609517 0.408699 0.815435
O O8 0.931891 0.618859 0.924371
O O9 0.089052 0.609761 0.945056
O O10 0.967050 0.640533 0.044997
O O11 0.000000 0.500000 0.000000
O O12 0.268703 0.138704 0.081744
O O13 0.173649 0.138382 0.184097
O O14 0.317752 0.173086 0.907220
O O15 0.611317 0.970150 0.117550
#
# Coordination Sequence:
#
# PCOD9563485 Si02
#       8
#    16  16  16  16   4   8  16  16
#     4  10  23  40  67  94 134 172 227 281 338 399
#     4  11  23  40  69  97 132 179 223 278 341 409
#     4  10  24  41  63  89 129 177 223 269 332 404
#     4  11  24  39  64  98 136 174 214 274 341 415
#     4  12  24  40  73 104 140 173 228 292 350 424
#     4  12  22  41  64 102 138 163 218 272 346 416
#     4  11  23  43  64 101 135 180 221 284 348 411
#     4  10  21  44  62  92 133 176 224 274 334 404
#
# _framework density 20.566272999999999
#
# number of rings (size 3 to 8) (size 9 to 14) (size 15 to 20)
#    0.000    1.333    2.963    2.222    4.148    5.037 
#    0.000    1.852    0.000    0.000    0.000    0.000 
#    0.000    0.000    0.000    0.000    0.000    0.000 
#
# Total GULP energy -602146.733848 kJ/mol
# GULP energy per Si atom -5575.432721 kJ/mol
# Density = 2.051946 g / cm^3
# Si number density = 20.566273 Si / 1000 Ang^3
#
#
#
# Elastic Constant Matrix: (Units=GPa)
#
#
# Indices 1 2 3 4 5 6 
#
# 1 100.1745 42.8468 25.9567 0.0000 0.0000 0.0000
# 2 42.8468 100.1739 25.9564 0.0000 0.0000 0.0000
# 3 25.9567 25.9564 40.4346 0.0000 0.0000 0.0000
# 4 0.0000 0.0000 0.0000 20.7648 0.0000 0.0000
# 5 0.0000 0.0000 0.0000 0.0000 20.7651 0.0000
# 6 0.0000 0.0000 0.0000 0.0000 0.0000 33.9189
#
#
#
# Elastic Compliance Matrix: (Units=1/GPa)
#
#
# Indices 1 2 3 4 5 6 
#
# 1 0.013280 -0.004164 -0.005852 0.000000 0.000000 0.000000
# 2 -0.004164 0.013280 -0.005852 0.000000 0.000000 0.000000
# 3 -0.005852 -0.005852 0.032245 0.000000 0.000000 0.000000
# 4 0.000000 0.000000 0.000000 0.048158 0.000000 0.000000
# 5 0.000000 0.000000 0.000000 0.000000 0.048158 0.000000
# 6 0.000000 0.000000 0.000000 0.000000 0.000000 0.029482
#
#
# Mechanical properties :
#
#
# Convention : Reuss Voigt Hill
#
# Bulk Modulus (GPa) = 36.94293 47.81144 42.37719
# Shear Modulus (GPa) = 22.18663 24.82463 23.50563
#
# Velocity S-wave (km/s) = 3.28805 3.47804 3.38438
# Velocity P-wave (km/s) = 5.69359 6.27909 5.99349
#
# Compressibility (1/GPa) = 0.02706878
#
# Stress axis : x y z
#
# Youngs Moduli (GPa) = 75.30188 75.30168 31.01304
#
# Poissons Ratio (x) = 0.31354 0.18149
# Poissons Ratio (y) = 0.31354 0.18149
# Poissons Ratio (z) = 0.44067 0.44066
#
# Static dielectric constant tensor:
#      x y z
#    x 1.721830 0.000000 0.000000 
#    y 0.000000 1.721830 0.000000 
#    z 0.000000 0.000000 1.824490 
# 
# From -- ./inp_files/5862.got.cif
#   From: 2010.05.17/outbox.cif.g08.bks.cpg/sg126_3_cif.got.tgz:5862.got - 2010.05.20 11:58:20.
