data_PCOD9563915
_publ_section_title
;
Structure prediction by ZEFSAII (Michael W. Deem and Ramdas Pophale) SiO2 
 PCOD9563915
Probable space group: P 4/M B M
;
_chemical_formula_sum "Si O2"
_cell_formula_units_Z 72
_cell_length_a 19.058716
_cell_length_b 19.058716
_cell_length_c 12.042513
_cell_angle_alpha 90.000000
_cell_angle_beta 90.000000
_cell_angle_gamma 90.000000
_cell_volume 4374.258062
_symmetry_space_group_name_H-M "P 4/M B M"
_symmetry_group_IT_number 127
_symmetry_cell_setting 'tetragonal'
loop_
_space_group_symop_operation_xyz
x,y,z
-y,x,z
-x,-y,z
y,-x,z
1/2+x,1/2-y,-z
1/2-x,1/2+y,-z
1/2+y,1/2+x,-z
1/2-y,1/2-x,-z
-x,-y,-z
y,-x,-z
x,y,-z
-y,x,-z
1/2-x,1/2+y,z
1/2+x,1/2-y,z
1/2-y,1/2-x,z
1/2+y,1/2+x,z
loop_
_atom_site_type_symbol
_atom_site_label
_atom_site_fract_x
_atom_site_fract_y
_atom_site_fract_z
Si Si1 0.376278 0.756941 0.630162
Si Si2 0.010408 0.708768 0.774616
Si Si3 0.711045 0.518976 0.000000
Si Si4 0.136829 0.833421 0.000000
Si Si5 0.341137 0.275284 0.758498
Si Si6 0.440282 0.059719 0.132167
O O1 0.386255 0.742942 0.500000
O O2 0.319415 0.819415 0.642120
O O3 0.447792 0.781923 0.687735
O O4 0.341153 0.689760 0.690697
O O5 0.983800 0.741859 0.890205
O O6 0.079366 0.751522 0.735687
O O7 0.033088 0.629804 0.806230
O O8 0.665785 0.588552 0.000000
O O9 0.666884 0.447389 0.000000
O O10 0.161565 0.794070 0.889052
O O11 0.290067 0.209934 0.735550
O O12 0.500000 0.000000 0.136431
O O13 0.425725 0.074276 0.000000
#
# Coordination Sequence:
#
# PCOD9563915 Si02
#       6
#    16  16   8   8  16   8
#     4  10  22  39  57  80 110 147 195 242 279 327
#     4  11  20  37  57  84 117 148 187 232 286 343
#     4  10  20  32  55  83 116 145 184 222 287 343
#     4  10  19  33  53  84 113 144 177 228 283 341
#     4  10  20  34  58  83 110 144 186 235 282 334
#     4  11  22  34  53  85 125 159 184 226 285 354
#
# _framework density 16.459935000000002
#
# number of rings (size 3 to 8) (size 9 to 14) (size 15 to 20)
#    0.000    1.667    4.444    1.000    0.000    1.111 
#    0.000    0.556    0.000    2.667    0.000    1.556 
#    0.000    0.000    0.000    0.000    0.000    0.000 
#
# Total GULP energy -401692.931204 kJ/mol
# GULP energy per Si atom -5579.068489 kJ/mol
# Density = 1.642247 g / cm^3
# Si number density = 16.459935 Si / 1000 Ang^3
#
#
#
# Elastic Constant Matrix: (Units=GPa)
#
#
# Indices 1 2 3 4 5 6 
#
# 1 80.0514 46.6683 52.9349 0.0000 0.0000 0.0000
# 2 46.6683 80.0515 52.9349 0.0000 0.0000 0.0000
# 3 52.9349 52.9349 98.8030 0.0000 0.0000 0.0000
# 4 0.0000 0.0000 0.0000 19.2899 0.0000 0.0000
# 5 0.0000 0.0000 0.0000 0.0000 19.2899 0.0000
# 6 0.0000 0.0000 0.0000 0.0000 0.0000 18.2148
#
#
#
# Elastic Compliance Matrix: (Units=1/GPa)
#
#
# Indices 1 2 3 4 5 6 
#
# 1 0.022121 -0.007835 -0.007654 0.000000 0.000000 0.000000
# 2 -0.007835 0.022121 -0.007654 0.000000 0.000000 0.000000
# 3 -0.007654 -0.007654 0.018322 0.000000 0.000000 0.000000
# 4 0.000000 0.000000 0.000000 0.051841 0.000000 0.000000
# 5 0.000000 0.000000 0.000000 0.000000 0.051841 0.000000
# 6 0.000000 0.000000 0.000000 0.000000 0.000000 0.054900
#
#
# Mechanical properties :
#
#
# Convention : Reuss Voigt Hill
#
# Bulk Modulus (GPa) = 61.42924 62.66466 62.04695
# Shear Modulus (GPa) = 18.32465 18.45009 18.38737
#
# Velocity S-wave (km/s) = 3.34022 3.35163 3.34593
# Velocity P-wave (km/s) = 7.23032 7.28914 7.25979
#
# Compressibility (1/GPa) = 0.01627889
#
# Stress axis : x y z
#
# Youngs Moduli (GPa) = 45.20670 45.20674 54.57784
#
# Poissons Ratio (x) = 0.35418 0.41773
# Poissons Ratio (y) = 0.35418 0.41773
# Poissons Ratio (z) = 0.34601 0.34601
#
# Static dielectric constant tensor:
#      x y z
#    x 1.537100 0.000000 0.000000 
#    y 0.000000 1.537100 0.000000 
#    z 0.000000 0.000000 1.539870 
# 
# From -- ./inp_files/3250.got.cif
#   From: 2010.05.17/outbox.cif.g08.bks.cpg/sg127_2_cif.got.tgz:3250.got - 2010.05.20 12:03:00.
