data_PCOD9563347
_publ_section_title
;
Structure prediction by ZEFSAII (Michael W. Deem and Ramdas Pophale) SiO2 
 PCOD9563347
Probable space group: P 4/N N C
;
_chemical_formula_sum "Si O2"
_cell_formula_units_Z 80
_cell_length_a 15.692497
_cell_length_b 15.692497
_cell_length_c 15.619760
_cell_angle_alpha 90.000000
_cell_angle_beta 90.000000
_cell_angle_gamma 90.000000
_cell_volume 3846.435597
_symmetry_space_group_name_H-M "P 4/N N C"
_symmetry_group_IT_number 126
_space_group.IT_coordinate_system_code '2'
_symmetry_cell_setting 'tetragonal'
loop_
_space_group_symop_operation_xyz
x,y,z
1/2-y,x,z
1/2-x,1/2-y,z
y,1/2-x,z
x,1/2-y,1/2-z
1/2-x,y,1/2-z
y,x,1/2-z
1/2-y,1/2-x,1/2-z
-x,-y,-z
1/2+y,-x,-z
1/2+x,1/2+y,-z
-y,1/2+x,-z
-x,1/2+y,1/2+z
1/2+x,-y,1/2+z
-y,-x,1/2+z
1/2+y,1/2+x,1/2+z
loop_
_atom_site_type_symbol
_atom_site_label
_atom_site_fract_x
_atom_site_fract_y
_atom_site_fract_z
Si Si1 0.726610 0.384770 0.523382
Si Si2 0.980237 0.758804 0.386868
Si Si3 0.616365 0.476678 0.258323
Si Si4 0.194209 0.530523 0.327159
Si Si5 0.802919 0.619696 0.543158
O O1 0.815656 0.344237 0.493167
O O2 0.715979 0.464931 0.462601
O O3 0.740213 0.409863 0.620771
O O4 0.971228 0.681173 0.320412
O O5 0.027285 0.831796 0.331038
O O6 0.905422 0.802955 0.442099
O O7 0.531636 0.531636 0.250000
O O8 0.587301 0.385319 0.295548
O O9 0.250000 0.492707 0.250000
O O10 0.168316 0.457662 0.395554
O O11 0.857033 0.704161 0.560756
#
# Coordination Sequence:
#
# PCOD9563347 Si02
#       5
#    16  16  16  16  16
#     4  10  19  37  58  84 119 159 203 244 301 370
#     4  10  21  41  62  92 122 162 207 260 316 375
#     4  11  23  39  62  93 128 160 206 266 321 380
#     4  11  24  39  60  91 126 167 207 259 314 382
#     4  10  23  43  66  90 123 169 217 261 308 374
#
# _framework density 20.798476000000001
#
# number of rings (size 3 to 8) (size 9 to 14) (size 15 to 20)
#    0.000    1.600    2.000    2.400    2.800    0.000 
#    0.000    4.000    0.000    4.800    0.000    0.000 
#    0.000    0.000    0.000    0.000    0.000    0.000 
#
# Total GULP energy -446065.529304 kJ/mol
# GULP energy per Si atom -5575.819116 kJ/mol
# Density = 2.075114 g / cm^3
# Si number density = 20.798476 Si / 1000 Ang^3
#
#
#
# Elastic Constant Matrix: (Units=GPa)
#
#
# Indices 1 2 3 4 5 6 
#
# 1 41.9888 -7.3825 20.7843 0.0000 0.0000 0.0000
# 2 -7.3825 41.9888 20.7843 0.0000 0.0000 0.0000
# 3 20.7843 20.7843 99.9182 0.0000 0.0000 0.0000
# 4 0.0000 0.0000 0.0000 28.2947 0.0000 0.0000
# 5 0.0000 0.0000 0.0000 0.0000 28.2947 0.0000
# 6 0.0000 0.0000 0.0000 0.0000 0.0000 35.6875
#
#
#
# Elastic Compliance Matrix: (Units=1/GPa)
#
#
# Indices 1 2 3 4 5 6 
#
# 1 0.029388 0.009133 -0.008013 0.000000 0.000000 0.000000
# 2 0.009133 0.029388 -0.008013 0.000000 0.000000 0.000000
# 3 -0.008013 -0.008013 0.013342 0.000000 0.000000 0.000000
# 4 0.000000 0.000000 0.000000 0.035342 0.000000 0.000000
# 5 0.000000 0.000000 0.000000 0.000000 0.035342 0.000000
# 6 0.000000 0.000000 0.000000 0.000000 0.000000 0.028021
#
#
# Mechanical properties :
#
#
# Convention : Reuss Voigt Hill
#
# Bulk Modulus (GPa) = 17.14300 28.02977 22.58639
# Shear Modulus (GPa) = 24.50345 28.43603 26.46974
#
# Velocity S-wave (km/s) = 3.43612 3.70160 3.57133
# Velocity P-wave (km/s) = 4.89928 5.63695 5.28101
#
# Compressibility (1/GPa) = 0.05833285
#
# Stress axis : x y z
#
# Youngs Moduli (GPa) = 34.02742 34.02742 74.95255
#
# Poissons Ratio (x) = -0.31078 0.60059
# Poissons Ratio (y) = -0.31078 0.60059
# Poissons Ratio (z) = 0.27266 0.27266
#
# Static dielectric constant tensor:
#      x y z
#    x 1.750260 0.000000 0.000000 
#    y 0.000000 1.750260 0.000000 
#    z 0.000000 0.000000 1.747630 
# 
# From -- ./inp_files/3609.got.cif
#   From: 2010.05.17/outbox.cif.g08.bks.cpg/sg126_2_cif.got.tgz:3609.got - 2010.05.20 11:58:20.
