data_PCOD9563450
_publ_section_title
;
Structure prediction by ZEFSAII (Michael W. Deem and Ramdas Pophale) SiO2 
 PCOD9563450
Probable space group: P 4/N N C
;
_chemical_formula_sum "Si O2"
_cell_formula_units_Z 88
_cell_length_a 12.202586
_cell_length_b 12.202586
_cell_length_c 31.727643
_cell_angle_alpha 90.000000
_cell_angle_beta 90.000000
_cell_angle_gamma 90.000000
_cell_volume 4724.344560
_symmetry_space_group_name_H-M "P 4/N N C"
_symmetry_group_IT_number 126
_space_group.IT_coordinate_system_code '2'
_symmetry_cell_setting 'tetragonal'
loop_
_space_group_symop_operation_xyz
x,y,z
1/2-y,x,z
1/2-x,1/2-y,z
y,1/2-x,z
x,1/2-y,1/2-z
1/2-x,y,1/2-z
y,x,1/2-z
1/2-y,1/2-x,1/2-z
-x,-y,-z
1/2+y,-x,-z
1/2+x,1/2+y,-z
-y,1/2+x,-z
-x,1/2+y,1/2+z
1/2+x,-y,1/2+z
-y,-x,1/2+z
1/2+y,1/2+x,1/2+z
loop_
_atom_site_type_symbol
_atom_site_label
_atom_site_fract_x
_atom_site_fract_y
_atom_site_fract_z
Si Si1 0.516626 0.385772 0.375596
Si Si2 0.407446 0.680562 0.481158
Si Si3 0.532295 0.343037 0.166101
Si Si4 0.263931 0.619656 0.884977
Si Si5 0.596443 0.647850 0.538262
Si Si6 0.062282 0.250000 0.250000
O O1 0.511995 0.256013 0.366582
O O2 0.438578 0.445176 0.342183
O O3 0.642600 0.423664 0.374764
O O4 0.466870 0.400476 0.421722
O O5 0.300646 0.613919 0.497437
O O6 0.415646 0.693315 0.430859
O O7 0.519042 0.628631 0.498325
O O8 0.649469 0.393187 0.152848
O O9 0.514792 0.282106 0.210503
O O10 0.250000 0.750000 0.889964
O O11 0.720001 0.606281 0.539716
O O12 0.146124 0.146124 0.250000
#
# Coordination Sequence:
#
# PCOD9563450 Si02
#       6
#    16  16  16  16  16   8
#     4  11  20  36  57  86 120 160 196 240 299 356
#     4  11  19  34  53  75 109 154 203 241 277 332
#     4  11  22  37  62  87 117 157 191 236 301 367
#     4  10  21  37  55  84 119 158 205 242 286 350
#     4  11  23  34  50  82 118 153 200 253 300 348
#     4  11  22  38  63  92 124 147 176 233 310 380
#
# _framework density 18.626922
#
# number of rings (size 3 to 8) (size 9 to 14) (size 15 to 20)
#    0.000    1.182    7.273    1.091    0.000    2.545 
#    0.000    4.091    0.000    0.545    0.000    0.000 
#    0.000    0.000    3.273    0.000    0.000    0.000 
#
# Total GULP energy -490656.823563 kJ/mol
# GULP energy per Si atom -5575.645722 kJ/mol
# Density = 1.858453 g / cm^3
# Si number density = 18.626922 Si / 1000 Ang^3
#
#
#
# Elastic Constant Matrix: (Units=GPa)
#
#
# Indices 1 2 3 4 5 6 
#
# 1 81.8736 33.9421 34.6219 0.0000 0.0000 0.0000
# 2 33.9421 81.8736 34.6219 0.0000 0.0000 0.0000
# 3 34.6219 34.6219 100.8231 0.0000 0.0000 0.0000
# 4 0.0000 0.0000 0.0000 20.5664 0.0000 0.0000
# 5 0.0000 0.0000 0.0000 0.0000 20.5664 0.0000
# 6 0.0000 0.0000 0.0000 0.0000 0.0000 -0.2858
#
#
#
# Elastic Compliance Matrix: (Units=1/GPa)
#
#
# Indices 1 2 3 4 5 6 
#
# 1 0.015864 -0.004999 -0.003731 0.000000 0.000000 0.000000
# 2 -0.004999 0.015864 -0.003731 0.000000 0.000000 0.000000
# 3 -0.003731 -0.003731 0.012481 0.000000 0.000000 0.000000
# 4 0.000000 0.000000 0.000000 0.048623 0.000000 0.000000
# 5 0.000000 0.000000 0.000000 0.000000 0.048623 0.000000
# 6 0.000000 0.000000 0.000000 0.000000 0.000000 -3.498783
#
#
# Mechanical properties :
#
#
# Convention : Reuss Voigt Hill
#
# Bulk Modulus (GPa) = 51.84849 52.32691 52.08770
# Shear Modulus (GPa) = -1.50332 18.92836 8.71252
#
# Velocity S-wave (km/s) = -0.89934 3.19122 2.16507
# Velocity P-wave (km/s) = 5.17854 6.46000 5.85444
#
# Compressibility (1/GPa) = 0.01928696
#
# Stress axis : x y z
#
# Youngs Moduli (GPa) = 63.03541 63.03541 80.12332
#
# Poissons Ratio (x) = 0.31511 0.29894
# Poissons Ratio (y) = 0.31511 0.29894
# Poissons Ratio (z) = 0.23518 0.23518
#
# Static dielectric constant tensor:
#      x y z
#    x 1.680420 0.000000 0.000000 
#    y 0.000000 1.680420 0.000000 
#    z 0.000000 0.000000 1.681830 
# 
# From -- ./inp_files/6510.got.cif
#   From: 2010.05.17/outbox.cif.g08.bks.cpg/sg126_4_cif.got.tgz:6510.got - 2010.05.20 11:58:20.
