data_PCOD9563675
_publ_section_title
;
Structure prediction by ZEFSAII (Michael W. Deem and Ramdas Pophale) SiO2 
 PCOD9563675
Probable space group: P 4/N N C
;
_chemical_formula_sum "Si O2"
_cell_formula_units_Z 60
_cell_length_a 11.978944
_cell_length_b 11.978944
_cell_length_c 21.576958
_cell_angle_alpha 90.000000
_cell_angle_beta 90.000000
_cell_angle_gamma 90.000000
_cell_volume 3096.187732
_symmetry_space_group_name_H-M "P 4/N N C"
_symmetry_group_IT_number 126
_space_group.IT_coordinate_system_code '2'
_symmetry_cell_setting 'tetragonal'
loop_
_space_group_symop_operation_xyz
x,y,z
1/2-y,x,z
1/2-x,1/2-y,z
y,1/2-x,z
x,1/2-y,1/2-z
1/2-x,y,1/2-z
y,x,1/2-z
1/2-y,1/2-x,1/2-z
-x,-y,-z
1/2+y,-x,-z
1/2+x,1/2+y,-z
-y,1/2+x,-z
-x,1/2+y,1/2+z
1/2+x,-y,1/2+z
-y,-x,1/2+z
1/2+y,1/2+x,1/2+z
loop_
_atom_site_type_symbol
_atom_site_label
_atom_site_fract_x
_atom_site_fract_y
_atom_site_fract_z
Si Si1 0.750000 0.750000 0.573733
Si Si2 0.616124 0.616124 0.250000
Si Si3 0.954113 0.341872 0.567517
Si Si4 0.895860 0.487362 0.375188
Si Si5 0.482683 0.764139 0.572431
O O1 0.612621 0.734465 0.573388
O O2 0.750000 0.599261 0.250000
O O3 0.548843 0.578412 0.310684
O O4 0.973760 0.234975 0.610869
O O5 0.843400 0.407626 0.587031
O O6 0.948184 0.301560 0.496923
O O7 0.055744 0.428377 0.573293
O O8 0.953011 0.367533 0.383079
#
# Coordination Sequence:
#
# PCOD9563675 Si02
#       5
#     4   8  16  16  16
#     4  12  24  40  68  89 140 189 224 272 344 430
#     4  11  24  46  68  97 136 182 234 289 338 412
#     4  12  24  41  68 103 142 181 222 288 359 421
#     4  12  24  42  71 100 136 184 233 284 352 422
#     4  12  24  44  65 103 146 180 226 288 360 428
#
# _framework density 19.37867
#
# number of rings (size 3 to 8) (size 9 to 14) (size 15 to 20)
#    0.000    0.133    8.000    3.200    0.000    0.533 
#    0.000    1.333    0.000    0.800    0.000    0.000 
#    0.000    0.000    0.000    0.000    0.000    0.000 
#
# Total GULP energy -334438.340039 kJ/mol
# GULP energy per Si atom -5573.972334 kJ/mol
# Density = 1.933456 g / cm^3
# Si number density = 19.378670 Si / 1000 Ang^3
#
#
#
# Elastic Constant Matrix: (Units=GPa)
#
#
# Indices 1 2 3 4 5 6 
#
# 1 134.3133 55.7419 33.2261 0.0000 0.0000 0.0000
# 2 55.7419 134.3133 33.2261 0.0000 0.0000 0.0000
# 3 33.2261 33.2261 76.3507 0.0000 0.0000 0.0000
# 4 0.0000 0.0000 0.0000 23.5456 0.0000 0.0000
# 5 0.0000 0.0000 0.0000 0.0000 23.5456 0.0000
# 6 0.0000 0.0000 0.0000 0.0000 0.0000 47.7952
#
#
#
# Elastic Compliance Matrix: (Units=1/GPa)
#
#
# Indices 1 2 3 4 5 6 
#
# 1 0.009467 -0.003261 -0.002701 0.000000 0.000000 0.000000
# 2 -0.003261 0.009467 -0.002701 0.000000 0.000000 0.000000
# 3 -0.002701 -0.002701 0.015448 0.000000 0.000000 0.000000
# 4 0.000000 0.000000 0.000000 0.042471 0.000000 0.000000
# 5 0.000000 0.000000 0.000000 0.000000 0.042471 0.000000
# 6 0.000000 0.000000 0.000000 0.000000 0.000000 0.020923
#
#
# Mechanical properties :
#
#
# Convention : Reuss Voigt Hill
#
# Bulk Modulus (GPa) = 58.62653 65.48509 62.05581
# Shear Modulus (GPa) = 30.62691 33.82950 32.22821
#
# Velocity S-wave (km/s) = 3.97979 4.18270 4.08251
# Velocity P-wave (km/s) = 7.17197 7.56256 7.36985
#
# Compressibility (1/GPa) = 0.01705712
#
# Stress axis : x y z
#
# Youngs Moduli (GPa) = 105.63460 105.63460 64.73327
#
# Poissons Ratio (x) = 0.34444 0.17482
# Poissons Ratio (y) = 0.34444 0.17482
# Poissons Ratio (z) = 0.28528 0.28528
#
# Static dielectric constant tensor:
#      x y z
#    x 1.678620 0.000000 0.000000 
#    y 0.000000 1.678620 0.000000 
#    z 0.000000 0.000000 1.701870 
# 
# From -- ./inp_files/4956.got.cif
#   From: 2010.05.17/outbox.cif.g08.bks.cpg/sg126_3_cif.got.tgz:4956.got - 2010.05.20 11:58:20.
