data_PCOD9563539
_publ_section_title
;
Structure prediction by ZEFSAII (Michael W. Deem and Ramdas Pophale) SiO2 
 PCOD9563539
Probable space group: P 4/N N C
;
_chemical_formula_sum "Si O2"
_cell_formula_units_Z 112
_cell_length_a 15.133022
_cell_length_b 15.133022
_cell_length_c 25.088509
_cell_angle_alpha 90.000000
_cell_angle_beta 90.000000
_cell_angle_gamma 90.000000
_cell_volume 5745.478172
_symmetry_space_group_name_H-M "P 4/N N C"
_symmetry_group_IT_number 126
_space_group.IT_coordinate_system_code '2'
_symmetry_cell_setting 'tetragonal'
loop_
_space_group_symop_operation_xyz
x,y,z
1/2-y,x,z
1/2-x,1/2-y,z
y,1/2-x,z
x,1/2-y,1/2-z
1/2-x,y,1/2-z
y,x,1/2-z
1/2-y,1/2-x,1/2-z
-x,-y,-z
1/2+y,-x,-z
1/2+x,1/2+y,-z
-y,1/2+x,-z
-x,1/2+y,1/2+z
1/2+x,-y,1/2+z
-y,-x,1/2+z
1/2+y,1/2+x,1/2+z
loop_
_atom_site_type_symbol
_atom_site_label
_atom_site_fract_x
_atom_site_fract_y
_atom_site_fract_z
Si Si1 0.693611 0.882129 0.507667
Si Si2 0.146738 0.610300 0.574530
Si Si3 0.797498 0.428857 0.544346
Si Si4 0.145271 0.847932 0.740296
Si Si5 0.471897 0.156706 0.781249
Si Si6 0.109962 0.075330 0.896087
Si Si7 0.668675 0.424113 0.376213
O O1 0.638085 0.795414 0.519371
O O2 0.672921 0.896406 0.444838
O O3 0.674932 0.969094 0.541011
O O4 0.094870 0.702380 0.569864
O O5 0.195605 0.600390 0.517326
O O6 0.084989 0.525288 0.586038
O O7 0.227621 0.600430 0.616485
O O8 0.869314 0.378052 0.577923
O O9 0.106572 0.750000 0.750000
O O10 0.250000 0.838936 0.750000
O O11 0.136141 0.887057 0.680702
O O12 0.118116 0.928365 0.778956
O O13 0.472049 0.250000 0.750000
O O14 0.409396 0.090605 0.750000
O O15 0.433997 0.161815 0.840598
O O16 0.025508 0.138289 0.885913
#
# Coordination Sequence:
#
# PCOD9563539 Si02
#       7
#    16  16  16  16  16  16  16
#     4  10  24  43  62  87 127 170 211 260 318 385
#     4  11  23  40  62  90 125 163 209 262 322 378
#     4  11  24  37  64  90 126 159 213 261 316 377
#     4  10  23  40  61  88 125 166 206 264 325 377
#     4  11  23  41  62  88 125 166 215 268 315 384
#     4  11  24  39  65  89 123 167 215 263 317 386
#     4  12  24  40  62  97 125 167 216 265 320 391
#
# _framework density 19.493590999999999
#
# number of rings (size 3 to 8) (size 9 to 14) (size 15 to 20)
#    0.000    1.143    2.857    3.857   10.000    1.286 
#    0.000    0.000    0.000    0.000    0.000    0.000 
#    0.000    0.286    0.000    0.000    0.000    0.000 
#
# Total GULP energy -624758.152732 kJ/mol
# GULP energy per Si atom -5578.197792 kJ/mol
# Density = 1.944922 g / cm^3
# Si number density = 19.493591 Si / 1000 Ang^3
#
#
#
# Elastic Constant Matrix: (Units=GPa)
#
#
# Indices 1 2 3 4 5 6 
#
# 1 78.6286 20.3444 16.3275 0.0000 0.0000 0.0000
# 2 20.3444 78.6283 16.3281 0.0000 0.0000 0.0000
# 3 16.3275 16.3281 59.4474 0.0000 0.0000 0.0000
# 4 0.0000 0.0000 0.0000 23.0518 0.0000 0.0000
# 5 0.0000 0.0000 0.0000 0.0000 23.0518 0.0000
# 6 0.0000 0.0000 0.0000 0.0000 0.0000 26.8229
#
#
#
# Elastic Compliance Matrix: (Units=1/GPa)
#
#
# Indices 1 2 3 4 5 6 
#
# 1 0.014134 -0.003023 -0.003052 0.000000 0.000000 0.000000
# 2 -0.003023 0.014134 -0.003052 0.000000 0.000000 0.000000
# 3 -0.003052 -0.003052 0.018498 0.000000 0.000000 0.000000
# 4 0.000000 0.000000 0.000000 0.043381 0.000000 0.000000
# 5 0.000000 0.000000 0.000000 0.000000 0.043380 0.000000
# 6 0.000000 0.000000 0.000000 0.000000 0.000000 0.037282
#
#
# Mechanical properties :
#
#
# Convention : Reuss Voigt Hill
#
# Bulk Modulus (GPa) = 35.07219 35.85606 35.46412
# Shear Modulus (GPa) = 25.18053 25.49892 25.33973
#
# Velocity S-wave (km/s) = 3.59797 3.62064 3.60932
# Velocity P-wave (km/s) = 5.94064 5.99270 5.96673
#
# Compressibility (1/GPa) = 0.02851262
#
# Stress axis : x y z
#
# Youngs Moduli (GPa) = 70.75164 70.75104 54.06013
#
# Poissons Ratio (x) = 0.21390 0.16497
# Poissons Ratio (y) = 0.21391 0.16498
# Poissons Ratio (z) = 0.21590 0.21592
#
# Static dielectric constant tensor:
#      x y z
#    x 1.706500 0.000000 0.000000 
#    y 0.000000 1.706500 0.000000 
#    z 0.000000 0.000000 1.727570 
# 
# From -- ./inp_files/6249.got.cif
#   From: 2010.05.17/outbox.cif.g08.bks.cpg/sg126_4_cif.got.tgz:6249.got - 2010.05.20 11:58:20.
