data_PCOD9563775
_publ_section_title
;
Structure prediction by ZEFSAII (Michael W. Deem and Ramdas Pophale) SiO2 
 PCOD9563775
Probable space group: P 4/M B M
;
_chemical_formula_sum "Si O2"
_cell_formula_units_Z 120
_cell_length_a 15.494309
_cell_length_b 15.494309
_cell_length_c 29.358939
_cell_angle_alpha 90.000000
_cell_angle_beta 90.000000
_cell_angle_gamma 90.000000
_cell_volume 7048.306512
_symmetry_space_group_name_H-M "P 4/M B M"
_symmetry_group_IT_number 127
_symmetry_cell_setting 'tetragonal'
loop_
_space_group_symop_operation_xyz
x,y,z
-y,x,z
-x,-y,z
y,-x,z
1/2+x,1/2-y,-z
1/2-x,1/2+y,-z
1/2+y,1/2+x,-z
1/2-y,1/2-x,-z
-x,-y,-z
y,-x,-z
x,y,-z
-y,x,-z
1/2-x,1/2+y,z
1/2+x,1/2-y,z
1/2-y,1/2-x,z
1/2+y,1/2+x,z
loop_
_atom_site_type_symbol
_atom_site_label
_atom_site_fract_x
_atom_site_fract_y
_atom_site_fract_z
Si Si1 0.664437 0.312063 0.878555
Si Si2 0.258803 0.018496 0.906399
Si Si3 0.766588 0.587913 0.269478
Si Si4 0.494805 0.139724 0.187114
Si Si5 0.386740 0.408368 0.785821
Si Si6 0.145455 0.503781 0.649258
Si Si7 0.145497 0.497587 0.450997
Si Si8 0.504061 0.140687 0.000000
O O1 0.732967 0.232967 0.879672
O O2 0.701551 0.395906 0.903712
O O3 0.572780 0.288297 0.900229
O O4 0.641536 0.339237 0.826817
O O5 0.318274 0.024890 0.861325
O O6 0.307811 0.012954 0.953885
O O7 0.828154 0.671846 0.272456
O O8 0.797700 0.534133 0.224926
O O9 0.667579 0.612171 0.259735
O O10 0.788548 0.527392 0.312338
O O11 0.410319 0.089682 0.204580
O O12 0.568212 0.068212 0.179192
O O13 0.487308 0.384525 0.789140
O O14 0.069774 0.430227 0.648545
O O15 0.187098 0.505628 0.598748
O O16 0.092877 0.592877 0.658299
O O17 0.192305 0.503961 0.500000
O O18 0.072807 0.572807 0.450898
O O19 0.091572 0.408429 0.451300
O O20 0.599544 0.099544 0.000000
O O21 0.436846 0.063155 0.000000
#
# Coordination Sequence:
#
# PCOD9563775 Si02
#       8
#    16  16  16  16  16  16  16   8
#     4  12  23  40  65  88 115 146 180 224 268 319
#     4  12  25  40  61  88 114 147 185 220 267 325
#     4  10  18  30  48  73 102 132 170 216 271 324
#     4  10  18  30  49  73 101 132 172 218 262 315
#     4  11  22  38  57  78 105 141 178 218 258 316
#     4   8  13  21  35  60  97 138 176 220 273 324
#     4   7   9  14  26  47  81 129 179 218 258 318
#     4  11  24  44  66  89 120 150 182 231 284 331
#
# _framework density 17.025366999999999
#
# number of rings (size 3 to 8) (size 9 to 14) (size 15 to 20)
#    0.000    1.933    2.667    4.400    0.000    3.467 
#    0.000    3.333    0.000    0.800    0.000    0.000 
#    0.000    1.067    0.000    8.800    0.000    4.133 
#
# Total GULP energy -668528.209980 kJ/mol
# GULP energy per Si atom -5571.068416 kJ/mol
# Density = 1.698662 g / cm^3
# Si number density = 17.025367 Si / 1000 Ang^3
#
#
#
# Elastic Constant Matrix: (Units=GPa)
#
#
# Indices 1 2 3 4 5 6 
#
# 1 70.4673 30.5877 18.7648 0.0000 0.0000 0.0000
# 2 30.5877 70.4673 18.7647 0.0000 0.0000 0.0000
# 3 18.7648 18.7647 89.1755 0.0000 0.0000 0.0000
# 4 0.0000 0.0000 0.0000 -25.4776 0.0000 0.0000
# 5 0.0000 0.0000 0.0000 0.0000 -25.4503 0.0000
# 6 0.0000 0.0000 0.0000 0.0000 0.0000 12.5988
#
#
#
# Elastic Compliance Matrix: (Units=1/GPa)
#
#
# Indices 1 2 3 4 5 6 
#
# 1 0.017905 -0.007171 -0.002259 0.000000 0.000000 0.000000
# 2 -0.007171 0.017905 -0.002259 0.000000 0.000000 0.000000
# 3 -0.002259 -0.002259 0.012164 0.000000 0.000000 0.000000
# 4 0.000000 0.000000 0.000000 -0.039250 0.000000 0.000000
# 5 0.000000 0.000000 0.000000 0.000000 -0.039292 0.000000
# 6 0.000000 0.000000 0.000000 0.000000 0.000000 0.079372
#
#
# Mechanical properties :
#
#
# Convention : Reuss Voigt Hill
#
# Bulk Modulus (GPa) = 40.65340 40.70495 40.67918
# Shear Modulus (GPa) = 62.20451 3.13371 32.66911
#
# Velocity S-wave (km/s) = 6.05109 1.35816 4.38522
# Velocity P-wave (km/s) = 8.52941 5.14002 7.04169
#
# Compressibility (1/GPa) = 0.02459819
#
# Stress axis : x y z
#
# Youngs Moduli (GPa) = 55.85039 55.85040 82.20675
#
# Poissons Ratio (x) = 0.40048 0.18569
# Poissons Ratio (y) = 0.40048 0.18569
# Poissons Ratio (z) = 0.12615 0.12615
#
# Static dielectric constant tensor:
#      x y z
#    x 1.627270 0.000000 0.000000 
#    y 0.000000 1.627270 0.000000 
#    z 0.000000 0.000000 0.728300 
# 
# From -- ./inp_files/6692.got.cif
#   From: 2010.05.17/outbox.cif.g08.bks.cpg/sg127_4_cif.got.tgz:6692.got - 2010.05.20 12:03:00.
