data_PCOD9563670
_publ_section_title
;
Structure prediction by ZEFSAII (Michael W. Deem and Ramdas Pophale) SiO2 
 PCOD9563670
Probable space group: P 4/N N C
;
_chemical_formula_sum "Si O2"
_cell_formula_units_Z 56
_cell_length_a 18.413843
_cell_length_b 18.413843
_cell_length_c 7.397639
_cell_angle_alpha 90.000000
_cell_angle_beta 90.000000
_cell_angle_gamma 90.000000
_cell_volume 2508.314600
_symmetry_space_group_name_H-M "P 4/N N C"
_symmetry_group_IT_number 126
_space_group.IT_coordinate_system_code '2'
_symmetry_cell_setting 'tetragonal'
loop_
_space_group_symop_operation_xyz
x,y,z
1/2-y,x,z
1/2-x,1/2-y,z
y,1/2-x,z
x,1/2-y,1/2-z
1/2-x,y,1/2-z
y,x,1/2-z
1/2-y,1/2-x,1/2-z
-x,-y,-z
1/2+y,-x,-z
1/2+x,1/2+y,-z
-y,1/2+x,-z
-x,1/2+y,1/2+z
1/2+x,-y,1/2+z
-y,-x,1/2+z
1/2+y,1/2+x,1/2+z
loop_
_atom_site_type_symbol
_atom_site_label
_atom_site_fract_x
_atom_site_fract_y
_atom_site_fract_z
Si Si1 0.536164 0.329451 0.660903
Si Si2 0.912620 0.679291 0.626503
Si Si3 0.430071 0.671975 0.753807
Si Si4 0.874398 0.625603 0.250000
O O1 0.542805 0.250000 0.750000
O O2 0.604111 0.378628 0.717936
O O3 0.537308 0.329541 0.445241
O O4 0.457953 0.361945 0.703406
O O5 0.896673 0.750000 0.750000
O O6 0.887270 0.612731 0.750000
O O7 0.870027 0.674211 0.434485
O O8 0.000456 0.673538 0.610974
O O9 0.390087 0.750000 0.750000
#
# Coordination Sequence:
#
# PCOD9563670 Si02
#       4
#    16  16  16   8
#     4  12  25  44  71 105 143 192 245 297 373 437
#     4  11  24  44  69 102 144 186 241 304 361 435
#     4  11  24  45  69 106 147 185 238 303 362 448
#     4  12  26  42  74 103 144 192 245 302 366 436
#
# _framework density 22.325749999999999
#
# number of rings (size 3 to 8) (size 9 to 14) (size 15 to 20)
#    0.000    0.571    2.857    6.857    2.000    3.143 
#    0.000    2.857    0.000    2.143    0.000    0.000 
#    0.000    0.000    0.000    0.000    0.000    0.000 
#
# Total GULP energy -312790.698811 kJ/mol
# GULP energy per Si atom -5585.548193 kJ/mol
# Density = 2.227494 g / cm^3
# Si number density = 22.325750 Si / 1000 Ang^3
#
#
#
# Elastic Constant Matrix: (Units=GPa)
#
#
# Indices 1 2 3 4 5 6 
#
# 1 183.9545 -3.5396 43.6571 0.0000 0.0000 0.0000
# 2 -3.5396 183.9563 43.6618 0.0000 0.0000 0.0000
# 3 43.6571 43.6618 156.4248 0.0000 0.0000 0.0000
# 4 0.0000 0.0000 0.0000 40.5551 0.0000 0.0000
# 5 0.0000 0.0000 0.0000 0.0000 40.5559 0.0000
# 6 0.0000 0.0000 0.0000 0.0000 0.0000 -169.4609
#
#
#
# Elastic Compliance Matrix: (Units=1/GPa)
#
#
# Indices 1 2 3 4 5 6 
#
# 1 0.005871 0.000537 -0.001789 0.000000 0.000000 0.000000
# 2 0.000537 0.005871 -0.001789 0.000000 0.000000 0.000000
# 3 -0.001789 -0.001789 0.007391 0.000000 0.000000 0.000000
# 4 0.000000 0.000000 0.000000 0.024658 0.000000 0.000000
# 5 0.000000 0.000000 0.000000 0.000000 0.024657 0.000000
# 6 0.000000 0.000000 0.000000 0.000000 0.000000 -0.005901
#
#
# Mechanical properties :
#
#
# Convention : Reuss Voigt Hill
#
# Bulk Modulus (GPa) = 76.60735 76.87715 76.74225
# Shear Modulus (GPa) = 68.51373 11.70044 40.10709
#
# Velocity S-wave (km/s) = 5.54570 2.29176 4.24305
# Velocity P-wave (km/s) = 8.68299 6.44298 7.64547
#
# Compressibility (1/GPa) = 0.01305358
#
# Stress axis : x y z
#
# Youngs Moduli (GPa) = 170.33039 170.32969 135.29416
#
# Poissons Ratio (x) = -0.09155 0.24198
# Poissons Ratio (y) = -0.09155 0.24200
# Poissons Ratio (z) = 0.30465 0.30467
#
# Static dielectric constant tensor:
#      x y z
#    x 1.898490 0.000000 0.000000 
#    y 0.000000 1.898500 0.000000 
#    z 0.000000 0.000000 1.916890 
# 
# From -- ./inp_files/1252.got.cif
#   From: 2010.05.17/outbox.cif.g08.bks.cpg/sg126_1_cif.got.tgz:1252.got - 2010.05.20 11:58:20.
