data_PCOD9563687
_publ_section_title
;
Structure prediction by ZEFSAII (Michael W. Deem and Ramdas Pophale) SiO2 
 PCOD9563687
Probable space group: P 4/N N C
;
_chemical_formula_sum "Si O2"
_cell_formula_units_Z 80
_cell_length_a 11.374014
_cell_length_b 11.374014
_cell_length_c 26.912034
_cell_angle_alpha 90.000000
_cell_angle_beta 90.000000
_cell_angle_gamma 90.000000
_cell_volume 3481.561248
_symmetry_space_group_name_H-M "P 4/N N C"
_symmetry_group_IT_number 126
_space_group.IT_coordinate_system_code '2'
_symmetry_cell_setting 'tetragonal'
loop_
_space_group_symop_operation_xyz
x,y,z
1/2-y,x,z
1/2-x,1/2-y,z
y,1/2-x,z
x,1/2-y,1/2-z
1/2-x,y,1/2-z
y,x,1/2-z
1/2-y,1/2-x,1/2-z
-x,-y,-z
1/2+y,-x,-z
1/2+x,1/2+y,-z
-y,1/2+x,-z
-x,1/2+y,1/2+z
1/2+x,-y,1/2+z
-y,-x,1/2+z
1/2+y,1/2+x,1/2+z
loop_
_atom_site_type_symbol
_atom_site_label
_atom_site_fract_x
_atom_site_fract_y
_atom_site_fract_z
Si Si1 0.857648 0.014309 0.781197
Si Si2 0.080349 0.653161 0.991077
Si Si3 0.402612 0.376430 0.575131
Si Si4 0.936789 0.811406 0.606682
Si Si5 0.910244 0.632384 0.315551
O O1 0.750000 0.067949 0.750000
O O2 0.900260 0.900260 0.750000
O O3 0.819780 0.981586 0.836879
O O4 0.974328 0.093039 0.786249
O O5 0.031159 0.655262 0.935153
O O6 0.097573 0.791004 0.004875
O O7 0.990260 0.595851 0.030652
O O8 0.265124 0.405002 0.572833
O O9 0.427969 0.426578 0.629737
O O10 0.822314 0.892763 0.599041
O O11 0.904468 0.773700 0.308400
#
# Coordination Sequence:
#
# PCOD9563687 Si02
#       5
#    16  16  16  16  16
#     4  12  26  47  77 108 151 202 258 338 393 453
#     4  11  26  41  63 105 153 195 240 319 397 471
#     4   9  19  38  67 101 138 185 242 301 370 461
#     4  11  25  45  73 104 139 201 260 304 383 481
#     4   9  22  46  79 114 149 198 254 319 398 472
#
# _framework density 22.978197000000002
#
# number of rings (size 3 to 8) (size 9 to 14) (size 15 to 20)
#    0.000    1.600    2.000    2.400    8.400    4.200 
#    0.000    3.000    8.800    0.000    0.000    0.000 
#    0.000    0.000    0.000    0.000    0.000    0.000 
#
# Total GULP energy -446700.828676 kJ/mol
# GULP energy per Si atom -5583.760358 kJ/mol
# Density = 2.292590 g / cm^3
# Si number density = 22.978197 Si / 1000 Ang^3
#
#
#
# Elastic Constant Matrix: (Units=GPa)
#
#
# Indices 1 2 3 4 5 6 
#
# 1 112.4125 40.9357 77.5440 0.0000 0.0000 0.0000
# 2 40.9357 112.4125 77.5440 0.0000 0.0000 0.0000
# 3 77.5440 77.5440 190.0834 0.0000 0.0000 0.0000
# 4 0.0000 0.0000 0.0000 37.2895 0.0000 0.0000
# 5 0.0000 0.0000 0.0000 0.0000 37.2895 0.0000
# 6 0.0000 0.0000 0.0000 0.0000 0.0000 21.8757
#
#
#
# Elastic Compliance Matrix: (Units=1/GPa)
#
#
# Indices 1 2 3 4 5 6 
#
# 1 0.012546 -0.001445 -0.004529 0.000000 0.000000 0.000000
# 2 -0.001445 0.012546 -0.004529 0.000000 0.000000 0.000000
# 3 -0.004529 -0.004529 0.008956 0.000000 0.000000 0.000000
# 4 0.000000 0.000000 0.000000 0.026817 0.000000 0.000000
# 5 0.000000 0.000000 0.000000 0.000000 0.026817 0.000000
# 6 0.000000 0.000000 0.000000 0.000000 0.000000 0.045713
#
#
# Mechanical properties :
#
#
# Convention : Reuss Voigt Hill
#
# Bulk Modulus (GPa) = 76.66732 89.66176 83.16454
# Shear Modulus (GPa) = 31.49669 33.88323 32.68996
#
# Velocity S-wave (km/s) = 3.70634 3.84419 3.77590
# Velocity P-wave (km/s) = 7.19400 7.66869 7.43514
#
# Compressibility (1/GPa) = 0.01304337
#
# Stress axis : x y z
#
# Youngs Moduli (GPa) = 79.70753 79.70753 111.65957
#
# Poissons Ratio (x) = 0.11515 0.50567
# Poissons Ratio (y) = 0.11515 0.50567
# Poissons Ratio (z) = 0.36097 0.36097
#
# Static dielectric constant tensor:
#      x y z
#    x 1.872710 0.000000 0.000000 
#    y 0.000000 1.872710 0.000000 
#    z 0.000000 0.000000 1.965370 
# 
# From -- ./inp_files/6415.got.cif
#   From: 2010.05.17/outbox.cif.g08.bks.cpg/sg126_4_cif.got.tgz:6415.got - 2010.05.20 11:58:20.
