data_PCOD9563364
_publ_section_title
;
Structure prediction by ZEFSAII (Michael W. Deem and Ramdas Pophale) SiO2 
 PCOD9563364
Probable space group: P 4/N N C
;
_chemical_formula_sum "Si O2"
_cell_formula_units_Z 96
_cell_length_a 25.756002
_cell_length_b 25.756002
_cell_length_c 9.423903
_cell_angle_alpha 90.000000
_cell_angle_beta 90.000000
_cell_angle_gamma 90.000000
_cell_volume 6251.549979
_symmetry_space_group_name_H-M "P 4/N N C"
_symmetry_group_IT_number 126
_space_group.IT_coordinate_system_code '2'
_symmetry_cell_setting 'tetragonal'
loop_
_space_group_symop_operation_xyz
x,y,z
1/2-y,x,z
1/2-x,1/2-y,z
y,1/2-x,z
x,1/2-y,1/2-z
1/2-x,y,1/2-z
y,x,1/2-z
1/2-y,1/2-x,1/2-z
-x,-y,-z
1/2+y,-x,-z
1/2+x,1/2+y,-z
-y,1/2+x,-z
-x,1/2+y,1/2+z
1/2+x,-y,1/2+z
-y,-x,1/2+z
1/2+y,1/2+x,1/2+z
loop_
_atom_site_type_symbol
_atom_site_label
_atom_site_fract_x
_atom_site_fract_y
_atom_site_fract_z
Si Si1 0.202968 0.628539 0.827734
Si Si2 0.649623 0.488890 0.924921
Si Si3 0.985951 0.255670 0.591334
Si Si4 0.962214 0.539724 0.920477
Si Si5 0.353181 0.991179 0.092588
Si Si6 0.877129 0.131017 0.553591
O O1 0.250000 0.658290 0.750000
O O2 0.230524 0.575884 0.888304
O O3 0.161146 0.616727 0.702625
O O4 0.170744 0.652112 0.958229
O O5 0.598463 0.522431 0.960852
O O6 0.658885 0.497508 0.758506
O O7 0.702425 0.497236 0.010687
O O8 0.635980 0.429311 0.962124
O O9 0.006702 0.250000 0.750000
O O10 0.005784 0.304372 0.502944
O O11 0.967619 0.532382 0.750000
O O12 0.903202 0.524190 0.951439
O O13 0.000000 0.500000 0.000000
O O14 0.366731 0.930065 0.075373
#
# Coordination Sequence:
#
# PCOD9563364 Si02
#       6
#    16  16  16  16  16  16
#     4  10  20  33  48  73  88 120 165 215 258 302
#     4  11  19  33  49  75 102 133 169 206 253 304
#     4  10  20  33  53  71  97 126 177 215 244 303
#     4  10  21  31  48  75 111 139 165 204 258 316
#     4  10  21  33  49  75 102 137 167 205 256 308
#     4  11  18  30  51  70  94 123 163 206 251 301
#
# _framework density 15.356192
#
# number of rings (size 3 to 8) (size 9 to 14) (size 15 to 20)
#    0.000    1.667    6.667    0.500    0.000    1.333 
#    0.000    0.833    0.000    1.500    0.000    0.000 
#    0.000    0.667    0.000    7.667    0.000    3.000 
#
# Total GULP energy -534753.967332 kJ/mol
# GULP energy per Si atom -5570.353826 kJ/mol
# Density = 1.532124 g / cm^3
# Si number density = 15.356192 Si / 1000 Ang^3
#
#
#
# Elastic Constant Matrix: (Units=GPa)
#
#
# Indices 1 2 3 4 5 6 
#
# 1 87.1396 59.8553 50.6261 0.0000 0.0000 0.0000
# 2 59.8553 87.1406 50.6256 0.0000 0.0000 0.0000
# 3 50.6261 50.6256 81.3923 0.0000 0.0000 0.0000
# 4 0.0000 0.0000 0.0000 22.8382 0.0000 0.0000
# 5 0.0000 0.0000 0.0000 0.0000 22.8382 0.0000
# 6 0.0000 0.0000 0.0000 0.0000 0.0000 12.2963
#
#
#
# Elastic Compliance Matrix: (Units=1/GPa)
#
#
# Indices 1 2 3 4 5 6 
#
# 1 0.024277 -0.012374 -0.007404 0.000000 0.000000 0.000000
# 2 -0.012374 0.024276 -0.007403 0.000000 0.000000 0.000000
# 3 -0.007404 -0.007403 0.021496 0.000000 0.000000 0.000000
# 4 0.000000 0.000000 0.000000 0.043786 0.000000 0.000000
# 5 0.000000 0.000000 0.000000 0.000000 0.043786 0.000000
# 6 0.000000 0.000000 0.000000 0.000000 0.000000 0.081325
#
#
# Mechanical properties :
#
#
# Convention : Reuss Voigt Hill
#
# Bulk Modulus (GPa) = 63.74494 64.20962 63.97728
# Shear Modulus (GPa) = 16.74837 17.89891 17.32364
#
# Velocity S-wave (km/s) = 3.30610 3.41777 3.36240
# Velocity P-wave (km/s) = 7.49498 7.58150 7.53836
#
# Compressibility (1/GPa) = 0.01568752
#
# Stress axis : x y z
#
# Youngs Moduli (GPa) = 41.19177 41.19294 46.52070
#
# Poissons Ratio (x) = 0.50972 0.34442
# Poissons Ratio (y) = 0.50971 0.34439
# Poissons Ratio (z) = 0.30497 0.30495
#
# Static dielectric constant tensor:
#      x y z
#    x 1.508800 0.000000 0.000000 
#    y 0.000000 1.508800 0.000000 
#    z 0.000000 0.000000 1.538920 
# 
# From -- ./inp_files/1722.got.cif
#   From: 2010.05.17/outbox.cif.g08.bks.cpg/sg126_1_cif.got.tgz:1722.got - 2010.05.20 11:58:20.
