data_PCOD9563754
_publ_section_title
;
Structure prediction by ZEFSAII (Michael W. Deem and Ramdas Pophale) SiO2 
 PCOD9563754
Probable space group: P 4/M B M
;
_chemical_formula_sum "Si O2"
_cell_formula_units_Z 120
_cell_length_a 28.403278
_cell_length_b 28.403278
_cell_length_c 7.978798
_cell_angle_alpha 90.000000
_cell_angle_beta 90.000000
_cell_angle_gamma 90.000000
_cell_volume 6436.864976
_symmetry_space_group_name_H-M "P 4/M B M"
_symmetry_group_IT_number 127
_symmetry_cell_setting 'tetragonal'
loop_
_space_group_symop_operation_xyz
x,y,z
-y,x,z
-x,-y,z
y,-x,z
1/2+x,1/2-y,-z
1/2-x,1/2+y,-z
1/2+y,1/2+x,-z
1/2-y,1/2-x,-z
-x,-y,-z
y,-x,-z
x,y,-z
-y,x,-z
1/2-x,1/2+y,z
1/2+x,1/2-y,z
1/2-y,1/2-x,z
1/2+y,1/2+x,z
loop_
_atom_site_type_symbol
_atom_site_label
_atom_site_fract_x
_atom_site_fract_y
_atom_site_fract_z
Si Si1 0.955057 0.870980 0.807243
Si Si2 0.140923 0.510156 0.203520
Si Si3 0.891175 0.315404 0.697561
Si Si4 0.556239 0.729904 0.705662
Si Si5 0.122439 0.057913 0.694793
Si Si6 0.463736 0.036265 0.796395
Si Si7 0.765024 0.051457 0.300370
Si Si8 0.594086 0.170889 0.200912
O O1 0.914694 0.909545 0.787240
O O2 0.938969 0.819207 0.746626
O O3 0.002110 0.886448 0.710321
O O4 0.968856 0.866428 0.000000
O O5 0.165914 0.555621 0.280297
O O6 0.087558 0.520455 0.250188
O O7 0.153418 0.457534 0.261131
O O8 0.146557 0.511953 0.000000
O O9 0.881089 0.311647 0.500000
O O10 0.852277 0.352277 0.768082
O O11 0.900745 0.262839 0.765148
O O12 0.555210 0.731240 0.500000
O O13 0.563828 0.676048 0.755905
O O14 0.502835 0.744366 0.761578
O O15 0.120575 0.071412 0.500000
O O16 0.500000 0.000000 0.725347
O O17 0.464868 0.035133 0.000000
O O18 0.761352 0.050088 0.500000
O O19 0.726678 0.089445 0.238766
O O20 0.637554 0.137554 0.262303
O O21 0.594376 0.166044 0.000000
#
# Coordination Sequence:
#
# PCOD9563754 Si02
#       8
#    16  16  16  16  16   8  16  16
#     4  11  22  37  58  88 120 147 179 218 262 308
#     4  10  18  28  43  64  90 125 169 217 269 325
#     4  10  18  29  47  70  98 131 169 219 275 321
#     4   8  16  31  51  74 100 134 176 221 263 311
#     4  10  20  37  59  84 115 151 186 215 254 311
#     4   9  16  26  39  55  83 125 169 209 257 323
#     4  10  19  34  55  76 103 141 185 226 268 323
#     4  10  20  32  47  71 101 133 174 229 286 332
#
# _framework density 18.642617000000001
#
# number of rings (size 3 to 8) (size 9 to 14) (size 15 to 20)
#    0.000    2.200    2.000    3.200    0.000    2.133 
#    0.000    2.000    0.000    2.400    0.000    1.867 
#    0.000    0.000    0.000    0.000    0.000    0.000 
#
# Total GULP energy -668284.435613 kJ/mol
# GULP energy per Si atom -5569.036963 kJ/mol
# Density = 1.860019 g / cm^3
# Si number density = 18.642617 Si / 1000 Ang^3
#
#
#
# Elastic Constant Matrix: (Units=GPa)
#
#
# Indices 1 2 3 4 5 6 
#
# 1 97.7444 56.7465 -2.3188 0.0000 0.0000 0.0000
# 2 56.7465 97.7408 -2.3166 0.0000 0.0000 0.0000
# 3 -2.3188 -2.3166 24.4467 0.0000 0.0000 0.0000
# 4 0.0000 0.0000 0.0000 16.4566 0.0000 0.0000
# 5 0.0000 0.0000 0.0000 0.0000 16.4567 0.0000
# 6 0.0000 0.0000 0.0000 0.0000 0.0000 27.4045
#
#
#
# Elastic Compliance Matrix: (Units=1/GPa)
#
#
# Indices 1 2 3 4 5 6 
#
# 1 0.015442 -0.008951 0.000617 0.000000 0.000000 0.000000
# 2 -0.008951 0.015442 0.000614 0.000000 0.000000 0.000000
# 3 0.000617 0.000614 0.041022 0.000000 0.000000 0.000000
# 4 0.000000 0.000000 0.000000 0.060766 0.000000 0.000000
# 5 0.000000 0.000000 0.000000 0.000000 0.060766 0.000000
# 6 0.000000 0.000000 0.000000 0.000000 0.000000 0.036490
#
#
# Mechanical properties :
#
#
# Convention : Reuss Voigt Hill
#
# Bulk Modulus (GPa) = 17.70957 36.01710 26.86333
# Shear Modulus (GPa) = 18.92581 23.25162 21.08872
#
# Velocity S-wave (km/s) = 3.18966 3.53544 3.36700
# Velocity P-wave (km/s) = 4.80473 6.00229 5.43659
#
# Compressibility (1/GPa) = 0.05646664
#
# Stress axis : x y z
#
# Youngs Moduli (GPa) = 64.75955 64.75745 24.37713
#
# Poissons Ratio (x) = 0.57962 -0.01503
# Poissons Ratio (y) = 0.57963 -0.01498
# Poissons Ratio (z) = -0.03993 -0.03978
#
# Static dielectric constant tensor:
#      x y z
#    x 1.680500 0.000000 0.000000 
#    y 0.000000 1.680500 0.000000 
#    z 0.000000 0.000000 1.664370 
# 
# From -- ./inp_files/2424.got.cif
#   From: 2010.05.17/outbox.cif.g08.bks.cpg/sg127_2_cif.got.tgz:2424.got - 2010.05.20 12:03:00.
