data_PCOD9563437
_publ_section_title
;
Structure prediction by ZEFSAII (Michael W. Deem and Ramdas Pophale) SiO2 
 PCOD9563437
Probable space group: P 4/N N C
;
_chemical_formula_sum "Si O2"
_cell_formula_units_Z 96
_cell_length_a 21.412384
_cell_length_b 21.412384
_cell_length_c 12.098674
_cell_angle_alpha 90.000000
_cell_angle_beta 90.000000
_cell_angle_gamma 90.000000
_cell_volume 5547.123324
_symmetry_space_group_name_H-M "P 4/N N C"
_symmetry_group_IT_number 126
_space_group.IT_coordinate_system_code '2'
_symmetry_cell_setting 'tetragonal'
loop_
_space_group_symop_operation_xyz
x,y,z
1/2-y,x,z
1/2-x,1/2-y,z
y,1/2-x,z
x,1/2-y,1/2-z
1/2-x,y,1/2-z
y,x,1/2-z
1/2-y,1/2-x,1/2-z
-x,-y,-z
1/2+y,-x,-z
1/2+x,1/2+y,-z
-y,1/2+x,-z
-x,1/2+y,1/2+z
1/2+x,-y,1/2+z
-y,-x,1/2+z
1/2+y,1/2+x,1/2+z
loop_
_atom_site_type_symbol
_atom_site_label
_atom_site_fract_x
_atom_site_fract_y
_atom_site_fract_z
Si Si1 0.641419 0.250000 0.750000
Si Si2 0.281004 0.528290 0.910867
Si Si3 0.750000 0.351368 0.750000
Si Si4 0.926695 0.478505 0.799133
Si Si5 0.354000 0.532779 0.525648
Si Si6 0.621661 0.527343 0.242739
Si Si7 0.584335 0.345150 0.394185
O O1 0.593239 0.237716 0.849978
O O2 0.689372 0.307568 0.735186
O O3 0.217371 0.510386 0.971542
O O4 0.313005 0.485640 0.817372
O O5 0.331785 0.538556 0.005384
O O6 0.777193 0.391558 0.648310
O O7 0.880102 0.447780 0.708819
O O8 0.959331 0.540670 0.750000
O O9 0.983534 0.429703 0.817472
O O10 0.889611 0.484047 0.913695
O O11 0.380549 0.498620 0.633258
O O12 0.364414 0.606681 0.555167
O O13 0.597503 0.597503 0.250000
#
# Coordination Sequence:
#
# PCOD9563437 Si02
#       7
#     8  16   8  16  16  16  16
#     4  11  22  34  52  74 110 162 193 240 268 334
#     4  12  21  37  53  80 114 144 195 240 291 342
#     4  11  22  36  48  76 112 152 210 227 280 332
#     4  10  22  38  55  79 106 146 197 244 302 350
#     4  11  21  37  56  76 112 150 185 245 294 342
#     4  10  21  34  57  80 106 145 193 236 293 349
#     4  11  23  34  55  77 107 149 196 241 287 335
#
# _framework density 17.306267999999999
#
# number of rings (size 3 to 8) (size 9 to 14) (size 15 to 20)
#    0.000    1.167    5.000    2.000    4.667    2.000 
#    0.000    1.667    0.000    0.000    0.000    0.000 
#    0.000    5.333    0.000    1.500    0.000    0.000 
#
# Total GULP energy -534468.305818 kJ/mol
# GULP energy per Si atom -5567.378186 kJ/mol
# Density = 1.726688 g / cm^3
# Si number density = 17.306268 Si / 1000 Ang^3
#
#
#
# Elastic Constant Matrix: (Units=GPa)
#
#
# Indices 1 2 3 4 5 6 
#
# 1 67.1309 40.0850 36.8589 0.0000 0.0000 0.0000
# 2 40.0850 67.1296 36.8587 0.0000 0.0000 0.0000
# 3 36.8589 36.8587 98.4014 0.0000 0.0000 0.0000
# 4 0.0000 0.0000 0.0000 10.2343 0.0000 0.0000
# 5 0.0000 0.0000 0.0000 0.0000 10.2397 0.0000
# 6 0.0000 0.0000 0.0000 0.0000 0.0000 11.8116
#
#
#
# Elastic Compliance Matrix: (Units=1/GPa)
#
#
# Indices 1 2 3 4 5 6 
#
# 1 0.024769 -0.012206 -0.004706 0.000000 0.000000 0.000000
# 2 -0.012206 0.024769 -0.004706 0.000000 0.000000 0.000000
# 3 -0.004706 -0.004706 0.013688 0.000000 0.000000 0.000000
# 4 0.000000 0.000000 0.000000 0.097711 0.000000 0.000000
# 5 0.000000 0.000000 0.000000 0.000000 0.097659 0.000000
# 6 0.000000 0.000000 0.000000 0.000000 0.000000 0.084663
#
#
# Mechanical properties :
#
#
# Convention : Reuss Voigt Hill
#
# Bulk Modulus (GPa) = 50.02457 51.14080 50.58269
# Shear Modulus (GPa) = 12.71758 14.38105 13.54931
#
# Velocity S-wave (km/s) = 2.71376 2.88579 2.80109
# Velocity P-wave (km/s) = 6.22796 6.38109 6.30499
#
# Compressibility (1/GPa) = 0.01999018
#
# Stress axis : x y z
#
# Youngs Moduli (GPa) = 40.37381 40.37297 73.05856
#
# Poissons Ratio (x) = 0.49281 0.34378
# Poissons Ratio (y) = 0.49282 0.34379
# Poissons Ratio (z) = 0.18998 0.18998
#
# Static dielectric constant tensor:
#      x y z
#    x 1.630400 0.000000 0.000000 
#    y 0.000000 1.630400 0.000000 
#    z 0.000000 0.000000 1.622760 
# 
# From -- ./inp_files/2949.got.cif
#   From: 2010.05.17/outbox.cif.g08.bks.cpg/sg126_2_cif.got.tgz:2949.got - 2010.05.20 11:58:20.
