data_PCOD9563365
_publ_section_title
;
Structure prediction by ZEFSAII (Michael W. Deem and Ramdas Pophale) SiO2 
 PCOD9563365
Probable space group: P 4/N N C
;
_chemical_formula_sum "Si O2"
_cell_formula_units_Z 64
_cell_length_a 13.507641
_cell_length_b 13.507641
_cell_length_c 20.331988
_cell_angle_alpha 90.000000
_cell_angle_beta 90.000000
_cell_angle_gamma 90.000000
_cell_volume 3709.700632
_symmetry_space_group_name_H-M "P 4/N N C"
_symmetry_group_IT_number 126
_space_group.IT_coordinate_system_code '2'
_symmetry_cell_setting 'tetragonal'
loop_
_space_group_symop_operation_xyz
x,y,z
1/2-y,x,z
1/2-x,1/2-y,z
y,1/2-x,z
x,1/2-y,1/2-z
1/2-x,y,1/2-z
y,x,1/2-z
1/2-y,1/2-x,1/2-z
-x,-y,-z
1/2+y,-x,-z
1/2+x,1/2+y,-z
-y,1/2+x,-z
-x,1/2+y,1/2+z
1/2+x,-y,1/2+z
-y,-x,1/2+z
1/2+y,1/2+x,1/2+z
loop_
_atom_site_type_symbol
_atom_site_label
_atom_site_fract_x
_atom_site_fract_y
_atom_site_fract_z
Si Si1 0.358206 0.532523 0.356113
Si Si2 0.646962 0.376842 0.009524
Si Si3 0.624855 0.020266 0.623816
Si Si4 0.471646 0.633987 0.238708
O O1 0.389835 0.595156 0.420519
O O2 0.418316 0.430014 0.359172
O O3 0.240669 0.519047 0.358655
O O4 0.393977 0.590544 0.291734
O O5 0.765912 0.379388 0.015040
O O6 0.615817 0.453127 0.953046
O O7 0.570980 0.104211 0.667510
O O8 0.483623 0.750000 0.250000
O O9 0.572803 0.572803 0.250000
#
# Coordination Sequence:
#
# PCOD9563365 Si02
#       4
#    16  16  16  16
#     4  10  20  33  50  73 101 133 168 205 244 287
#     4   9  17  30  50  74  97 125 164 208 251 293
#     4  10  20  33  50  73 101 133 168 205 244 287
#     4  10  21  36  54  76 100 126 159 200 246 296
#
# _framework density 17.252065000000002
#
# number of rings (size 3 to 8) (size 9 to 14) (size 15 to 20)
#    0.000    2.250    0.000    3.000    0.000    4.750 
#    0.000    0.000    0.000    4.500    0.000    7.000 
#    0.000    0.000    0.000    0.000    0.000    0.000 
#
# Total GULP energy -357145.640253 kJ/mol
# GULP energy per Si atom -5580.400629 kJ/mol
# Density = 1.721280 g / cm^3
# Si number density = 17.252065 Si / 1000 Ang^3
#
#
#
# Elastic Constant Matrix: (Units=GPa)
#
#
# Indices 1 2 3 4 5 6 
#
# 1 45.2109 13.2386 -4.9593 0.0000 0.0000 0.0000
# 2 13.2386 45.2109 -4.9593 0.0000 0.0000 0.0000
# 3 -4.9593 -4.9593 42.9402 0.0000 0.0000 0.0000
# 4 0.0000 0.0000 0.0000 20.2283 0.0000 0.0000
# 5 0.0000 0.0000 0.0000 0.0000 20.2283 0.0000
# 6 0.0000 0.0000 0.0000 0.0000 0.0000 8.3410
#
#
#
# Elastic Compliance Matrix: (Units=1/GPa)
#
#
# Indices 1 2 3 4 5 6 
#
# 1 0.024364 -0.006913 0.002015 0.000000 0.000000 0.000000
# 2 -0.006913 0.024364 0.002015 0.000000 0.000000 0.000000
# 3 0.002015 0.002015 0.023754 0.000000 0.000000 0.000000
# 4 0.000000 0.000000 0.000000 0.049436 0.000000 0.000000
# 5 0.000000 0.000000 0.000000 0.000000 0.049436 0.000000
# 6 0.000000 0.000000 0.000000 0.000000 0.000000 0.119890
#
#
# Mechanical properties :
#
#
# Convention : Reuss Voigt Hill
#
# Bulk Modulus (GPa) = 14.98863 15.55576 15.27219
# Shear Modulus (GPa) = 15.66189 18.42900 17.04545
#
# Velocity S-wave (km/s) = 3.01629 3.27191 3.14669
# Velocity P-wave (km/s) = 4.56481 4.82806 4.69828
#
# Compressibility (1/GPa) = 0.06671722
#
# Stress axis : x y z
#
# Youngs Moduli (GPa) = 41.04427 41.04427 42.09861
#
# Poissons Ratio (x) = 0.28374 -0.08485
# Poissons Ratio (y) = 0.28374 -0.08485
# Poissons Ratio (z) = -0.08272 -0.08272
#
# Static dielectric constant tensor:
#      x y z
#    x 1.561120 0.000000 0.000000 
#    y 0.000000 1.561120 0.000000 
#    z 0.000000 0.000000 1.582490 
# 
# From -- ./inp_files/4289.got.cif
#   From: 2010.05.17/outbox.cif.g08.bks.cpg/sg126_3_cif.got.tgz:4289.got - 2010.05.20 11:58:20.
