data_PCOD9563204
_publ_section_title
;
Structure prediction by ZEFSAII (Michael W. Deem and Ramdas Pophale) SiO2 
 PCOD9563204
Probable space group: P 4/N B M
;
_chemical_formula_sum "Si O2"
_cell_formula_units_Z 96
_cell_length_a 13.853037
_cell_length_b 13.853037
_cell_length_c 26.268420
_cell_angle_alpha 90.000000
_cell_angle_beta 90.000000
_cell_angle_gamma 90.000000
_cell_volume 5041.084066
_symmetry_space_group_name_H-M "P 4/N B M"
_symmetry_group_IT_number 125
_space_group.IT_coordinate_system_code '2'
_symmetry_cell_setting 'tetragonal'
loop_
_space_group_symop_operation_xyz
x,y,z
1/2-y,x,z
1/2-x,1/2-y,z
y,1/2-x,z
x,1/2-y,-z
1/2-x,y,-z
y,x,-z
1/2-y,1/2-x,-z
-x,-y,-z
1/2+y,-x,-z
1/2+x,1/2+y,-z
-y,1/2+x,-z
-x,1/2+y,z
1/2+x,-y,z
-y,-x,z
1/2+y,1/2+x,z
loop_
_atom_site_type_symbol
_atom_site_label
_atom_site_fract_x
_atom_site_fract_y
_atom_site_fract_z
Si Si1 0.176265 0.516996 0.757974
Si Si2 0.843154 0.884815 0.664547
Si Si3 0.859275 0.872725 0.554384
Si Si4 0.815133 0.602364 0.137781
Si Si5 0.833313 0.166688 0.233639
Si Si6 0.331907 0.668094 0.882597
Si Si7 0.037150 0.801192 0.050936
O O1 0.104196 0.604196 0.768299
O O2 0.135553 0.453770 0.711495
O O3 0.175300 0.453684 0.809012
O O4 0.279936 0.569542 0.746164
O O5 0.726037 0.877639 0.667527
O O6 0.883065 0.917890 0.609198
O O7 0.742411 0.879856 0.554449
O O8 0.903712 0.903712 0.500000
O O9 0.871799 0.702185 0.135788
O O10 0.846132 0.540847 0.088695
O O11 0.750000 0.250000 0.237042
O O12 0.857664 0.142337 0.174844
O O13 0.250000 0.750000 0.877281
O O14 0.415308 0.717666 0.914511
O O15 0.121000 0.879001 0.038214
O O16 0.999959 0.750000 0.000000
#
# Coordination Sequence:
#
# PCOD9563204 Si02
#       7
#    16  16  16  16   8   8  16
#     4  11  21  37  56  79 106 138 186 229 276 333
#     4   9  17  31  49  74 113 148 172 215 277 326
#     4   7  10  19  40  69  99 136 179 216 249 301
#     4  11  25  44  59  76 110 149 179 219 282 343
#     4   9  18  34  56  75 101 137 174 229 276 322
#     4   9  16  32  58  82 108 136 168 219 274 318
#     4  11  21  38  63  91 113 138 179 224 276 331
#
# _framework density 19.043524000000001
#
# number of rings (size 3 to 8) (size 9 to 14) (size 15 to 20)
#    0.000    2.333    2.500    3.000    0.000    2.000 
#   10.500    1.667    0.000    0.500    0.000    0.000 
#    2.500    0.000    0.000    5.333    0.000    5.333 
#
# Total GULP energy -534435.325693 kJ/mol
# GULP energy per Si atom -5567.034643 kJ/mol
# Density = 1.900018 g / cm^3
# Si number density = 19.043524 Si / 1000 Ang^3
#
#
#
# Elastic Constant Matrix: (Units=GPa)
#
#
# Indices 1 2 3 4 5 6 
#
# 1 39.4695 -6.1814 19.8473 0.0000 0.0000 0.0000
# 2 -6.1814 39.4695 19.8473 0.0000 0.0000 0.0000
# 3 19.8473 19.8473 127.1542 0.0000 0.0000 0.0000
# 4 0.0000 0.0000 0.0000 7.8681 0.0000 0.0000
# 5 0.0000 0.0000 0.0000 0.0000 7.8681 0.0000
# 6 0.0000 0.0000 0.0000 0.0000 0.0000 -2.3642
#
#
#
# Elastic Compliance Matrix: (Units=1/GPa)
#
#
# Indices 1 2 3 4 5 6 
#
# 1 0.029408 0.007503 -0.005761 0.000000 0.000000 0.000000
# 2 0.007503 0.029408 -0.005761 0.000000 0.000000 0.000000
# 3 -0.005761 -0.005761 0.009663 0.000000 0.000000 0.000000
# 4 0.000000 0.000000 0.000000 0.127096 0.000000 0.000000
# 5 0.000000 0.000000 0.000000 0.000000 0.127096 0.000000
# 6 0.000000 0.000000 0.000000 0.000000 0.000000 -0.422975
#
#
# Mechanical properties :
#
#
# Convention : Reuss Voigt Hill
#
# Bulk Modulus (GPa) = 16.54551 30.34663 23.44607
# Shear Modulus (GPa) = -69.33103 14.17973 -27.57565
#
# Velocity S-wave (km/s) = -6.04034 2.73169 -3.80943
# Velocity P-wave (km/s) = 6.31984 5.09112 2.64773
#
# Compressibility (1/GPa) = 0.06043937
#
# Stress axis : x y z
#
# Youngs Moduli (GPa) = 34.00420 34.00420 103.48719
#
# Poissons Ratio (x) = -0.25513 0.59623
# Poissons Ratio (y) = -0.25513 0.59623
# Poissons Ratio (z) = 0.19591 0.19591
#
# Static dielectric constant tensor:
#      x y z
#    x 1.690260 0.000000 0.000000 
#    y 0.000000 1.690260 0.000000 
#    z 0.000000 0.000000 1.715400 
# 
# From -- ./inp_files/6195.got.cif
#   From: 2010.05.17/outbox.cif.g08.bks.cpg/sg125_4_cif.got.tgz:6195.got - 2010.05.20 11:54:10.
