data_PCOD9563586
_publ_section_title
;
Structure prediction by ZEFSAII (Michael W. Deem and Ramdas Pophale) SiO2 
 PCOD9563586
Probable space group: P 4/N N C
;
_chemical_formula_sum "Si O2"
_cell_formula_units_Z 112
_cell_length_a 15.329933
_cell_length_b 15.329933
_cell_length_c 24.502210
_cell_angle_alpha 90.000000
_cell_angle_beta 90.000000
_cell_angle_gamma 90.000000
_cell_volume 5758.187087
_symmetry_space_group_name_H-M "P 4/N N C"
_symmetry_group_IT_number 126
_space_group.IT_coordinate_system_code '2'
_symmetry_cell_setting 'tetragonal'
loop_
_space_group_symop_operation_xyz
x,y,z
1/2-y,x,z
1/2-x,1/2-y,z
y,1/2-x,z
x,1/2-y,1/2-z
1/2-x,y,1/2-z
y,x,1/2-z
1/2-y,1/2-x,1/2-z
-x,-y,-z
1/2+y,-x,-z
1/2+x,1/2+y,-z
-y,1/2+x,-z
-x,1/2+y,1/2+z
1/2+x,-y,1/2+z
-y,-x,1/2+z
1/2+y,1/2+x,1/2+z
loop_
_atom_site_type_symbol
_atom_site_label
_atom_site_fract_x
_atom_site_fract_y
_atom_site_fract_z
Si Si1 0.191318 0.615230 0.502092
Si Si2 0.840792 0.364685 0.314758
Si Si3 0.322694 0.501907 0.103191
Si Si4 0.656470 0.356707 0.813593
Si Si5 0.137297 0.060794 0.433617
Si Si6 0.094133 0.979815 0.908425
Si Si7 0.159126 0.362841 0.944677
O O1 0.140213 0.707060 0.505378
O O2 0.159375 0.558914 0.451029
O O3 0.174661 0.556873 0.555215
O O4 0.862707 0.366185 0.250394
O O5 0.738398 0.381487 0.327830
O O6 0.851494 0.261105 0.325995
O O7 0.895546 0.432620 0.350182
O O8 0.364236 0.558159 0.151805
O O9 0.219765 0.482451 0.096066
O O10 0.365161 0.407241 0.102318
O O11 0.153861 0.103950 0.492571
O O12 0.063357 0.987661 0.438540
O O13 0.087678 0.084052 0.910836
O O14 0.133086 0.261880 0.934071
#
# Coordination Sequence:
#
# PCOD9563586 Si02
#       7
#    16  16  16  16  16  16  16
#     4  11  21  33  54  85 123 154 188 254 330 387
#     4   9  18  35  65  90 122 158 198 260 327 395
#     4  12  23  37  58  86 126 166 216 256 311 384
#     4   9  18  37  61  91 122 161 200 253 338 386
#     4  12  23  38  58  84 120 173 205 264 312 379
#     4  12  22  36  60  91 119 156 217 260 316 376
#     4  11  24  41  58  82 129 180 215 251 307 383
#
# _framework density 19.450566999999999
#
# number of rings (size 3 to 8) (size 9 to 14) (size 15 to 20)
#    0.000    1.143    5.714    2.143    0.000    3.714 
#    0.000    0.714    0.000    0.000    0.000    0.000 
#    0.000    4.571    0.000    0.000    0.000    0.000 
#
# Total GULP energy -624214.577120 kJ/mol
# GULP energy per Si atom -5573.344439 kJ/mol
# Density = 1.940630 g / cm^3
# Si number density = 19.450567 Si / 1000 Ang^3
#
#
#
# Elastic Constant Matrix: (Units=GPa)
#
#
# Indices 1 2 3 4 5 6 
#
# 1 70.6514 12.9949 20.7780 0.0000 0.0000 0.0000
# 2 12.9949 70.6514 20.7780 0.0000 0.0000 0.0000
# 3 20.7780 20.7780 35.2449 0.0000 0.0000 0.0000
# 4 0.0000 0.0000 0.0000 2.1654 0.0000 0.0000
# 5 0.0000 0.0000 0.0000 0.0000 2.1654 0.0000
# 6 0.0000 0.0000 0.0000 0.0000 0.0000 24.8540
#
#
#
# Elastic Compliance Matrix: (Units=1/GPa)
#
#
# Indices 1 2 3 4 5 6 
#
# 1 0.017125 -0.000219 -0.009967 0.000000 0.000000 0.000000
# 2 -0.000219 0.017125 -0.009967 0.000000 0.000000 0.000000
# 3 -0.009967 -0.009967 0.040125 0.000000 0.000000 0.000000
# 4 0.000000 0.000000 0.000000 0.461806 0.000000 0.000000
# 5 0.000000 0.000000 0.000000 0.000000 0.461806 0.000000
# 6 0.000000 0.000000 0.000000 0.000000 0.000000 0.040235
#
#
# Mechanical properties :
#
#
# Convention : Reuss Voigt Hill
#
# Bulk Modulus (GPa) = 29.35137 31.73883 30.54510
# Shear Modulus (GPa) = 4.58764 13.97009 9.27886
#
# Velocity S-wave (km/s) = 1.53744 2.68290 2.18651
# Velocity P-wave (km/s) = 4.27489 5.09415 4.70239
#
# Compressibility (1/GPa) = 0.03406996
#
# Stress axis : x y z
#
# Youngs Moduli (GPa) = 58.39267 58.39267 24.92235
#
# Poissons Ratio (x) = 0.01277 0.24840
# Poissons Ratio (y) = 0.01277 0.24840
# Poissons Ratio (z) = 0.58200 0.58200
#
# Static dielectric constant tensor:
#      x y z
#    x 1.774600 0.000000 0.000000 
#    y 0.000000 1.774600 0.000000 
#    z 0.000000 0.000000 1.689660 
# 
# From -- ./inp_files/5829.got.cif
#   From: 2010.05.17/outbox.cif.g08.bks.cpg/sg126_3_cif.got.tgz:5829.got - 2010.05.20 11:58:20.
