data_PCOD9563002
_publ_section_title
;
Structure prediction by ZEFSAII (Michael W. Deem and Ramdas Pophale) SiO2 
 PCOD9563002
Probable space group: P 4/N B M
;
_chemical_formula_sum "Si O2"
_cell_formula_units_Z 120
_cell_length_a 26.385110
_cell_length_b 26.385110
_cell_length_c 8.967603
_cell_angle_alpha 90.000000
_cell_angle_beta 90.000000
_cell_angle_gamma 90.000000
_cell_volume 6243.012317
_symmetry_space_group_name_H-M "P 4/N B M"
_symmetry_group_IT_number 125
_space_group.IT_coordinate_system_code '2'
_symmetry_cell_setting 'tetragonal'
loop_
_space_group_symop_operation_xyz
x,y,z
1/2-y,x,z
1/2-x,1/2-y,z
y,1/2-x,z
x,1/2-y,-z
1/2-x,y,-z
y,x,-z
1/2-y,1/2-x,-z
-x,-y,-z
1/2+y,-x,-z
1/2+x,1/2+y,-z
-y,1/2+x,-z
-x,1/2+y,z
1/2+x,-y,z
-y,-x,z
1/2+y,1/2+x,z
loop_
_atom_site_type_symbol
_atom_site_label
_atom_site_fract_x
_atom_site_fract_y
_atom_site_fract_z
Si Si1 0.270614 0.951183 0.235381
Si Si2 0.553079 0.617165 0.095844
Si Si3 0.943441 0.526725 0.668657
Si Si4 0.750000 0.925595 0.500000
Si Si5 0.839249 0.417663 0.293907
Si Si6 0.933819 0.767178 0.169617
Si Si7 0.339778 0.995666 0.463253
Si Si8 0.446305 0.866716 0.038141
O O1 0.221201 0.918829 0.271549
O O2 0.303088 0.955711 0.384136
O O3 0.312367 0.936624 0.113842
O O4 0.253415 0.008579 0.192584
O O5 0.547850 0.573473 0.219986
O O6 0.561301 0.672336 0.163207
O O7 0.601716 0.601716 0.000000
O O8 0.505203 0.618675 0.982660
O O9 0.957208 0.542793 0.500000
O O10 0.884735 0.510564 0.647899
O O11 0.980504 0.480504 0.710077
O O12 0.748946 0.904920 0.325593
O O13 0.697927 0.958315 0.499670
O O14 0.866143 0.366143 0.346166
O O15 0.857822 0.464769 0.394277
O O16 0.858945 0.430436 0.131177
O O17 0.917412 0.750000 0.000000
O O18 0.410874 0.910874 0.104295
#
# Coordination Sequence:
#
# PCOD9563002 Si02
#       8
#    16  16  16   8  16  16  16  16
#     4  11  20  37  59  81 110 150 209 263 308 361
#     4  12  24  37  55  86 127 165 202 250 308 382
#     4  11  24  38  53  79 127 173 203 245 310 386
#     4  10  20  34  64  84 112 156 222 270 296 348
#     4  11  20  34  57  83 112 146 204 267 313 362
#     4  11  20  38  63  85 114 162 209 260 308 350
#     4  11  20  35  55  83 110 159 211 249 299 369
#     4  11  22  36  57  83 115 159 206 247 300 376
#
# _framework density 19.221489999999999
#
# number of rings (size 3 to 8) (size 9 to 14) (size 15 to 20)
#    0.000    0.933    5.333    3.600    1.867    5.333 
#    0.000    0.000    0.000    0.400    0.000    1.867 
#    0.000    0.267    0.000    1.200    0.267    0.000 
#
# Total GULP energy -668764.029331 kJ/mol
# GULP energy per Si atom -5573.033578 kJ/mol
# Density = 1.917774 g / cm^3
# Si number density = 19.221490 Si / 1000 Ang^3
#
#
#
# Elastic Constant Matrix: (Units=GPa)
#
#
# Indices 1 2 3 4 5 6 
#
# 1 83.7249 36.1967 26.9887 0.0000 0.0000 0.0000
# 2 36.1967 83.7246 26.9891 0.0000 0.0000 0.0000
# 3 26.9887 26.9891 114.5008 0.0000 0.0000 0.0000
# 4 0.0000 0.0000 0.0000 -43.5674 0.0000 0.0000
# 5 0.0000 0.0000 0.0000 0.0000 -43.5777 0.0000
# 6 0.0000 0.0000 0.0000 0.0000 0.0000 17.5683
#
#
#
# Elastic Compliance Matrix: (Units=1/GPa)
#
#
# Indices 1 2 3 4 5 6 
#
# 1 0.015184 -0.005856 -0.002199 0.000000 0.000000 0.000000
# 2 -0.005856 0.015184 -0.002199 0.000000 0.000000 0.000000
# 3 -0.002199 -0.002199 0.009770 0.000000 0.000000 0.000000
# 4 0.000000 0.000000 0.000000 -0.022953 0.000000 0.000000
# 5 0.000000 0.000000 0.000000 0.000000 -0.022947 0.000000
# 6 0.000000 0.000000 0.000000 0.000000 0.000000 0.056921
#
#
# Mechanical properties :
#
#
# Convention : Reuss Voigt Hill
#
# Bulk Modulus (GPa) = 50.93758 51.36658 51.15208
# Shear Modulus (GPa) = 63.93037 -1.13031 31.40003
#
# Velocity S-wave (km/s) = 5.77339 -0.76767 4.04615
# Velocity P-wave (km/s) = 8.42618 5.09860 6.96406
#
# Compressibility (1/GPa) = 0.01963187
#
# Stress axis : x y z
#
# Youngs Moduli (GPa) = 65.85750 65.85707 102.35290
#
# Poissons Ratio (x) = 0.38565 0.22505
# Poissons Ratio (y) = 0.38565 0.22506
# Poissons Ratio (z) = 0.14480 0.14481
#
# Static dielectric constant tensor:
#      x y z
#    x 1.526820 0.000000 0.000000 
#    y 0.000000 1.526850 0.000000 
#    z 0.000000 0.000000 1.798470 
# 
# From -- ./inp_files/3110.got.cif
#   From: 2010.05.17/outbox.cif.g08.bks.cpg/sg125_2_cif.got.tgz:3110.got - 2010.05.20 11:54:10.
