data_PCOD9563540
_publ_section_title
;
Structure prediction by ZEFSAII (Michael W. Deem and Ramdas Pophale) SiO2 
 PCOD9563540
Probable space group: P 4/N N C
;
_chemical_formula_sum "Si O2"
_cell_formula_units_Z 64
_cell_length_a 19.317848
_cell_length_b 19.317848
_cell_length_c 8.770273
_cell_angle_alpha 90.000000
_cell_angle_beta 90.000000
_cell_angle_gamma 90.000000
_cell_volume 3272.883912
_symmetry_space_group_name_H-M "P 4/N N C"
_symmetry_group_IT_number 126
_space_group.IT_coordinate_system_code '2'
_symmetry_cell_setting 'tetragonal'
loop_
_space_group_symop_operation_xyz
x,y,z
1/2-y,x,z
1/2-x,1/2-y,z
y,1/2-x,z
x,1/2-y,1/2-z
1/2-x,y,1/2-z
y,x,1/2-z
1/2-y,1/2-x,1/2-z
-x,-y,-z
1/2+y,-x,-z
1/2+x,1/2+y,-z
-y,1/2+x,-z
-x,1/2+y,1/2+z
1/2+x,-y,1/2+z
-y,-x,1/2+z
1/2+y,1/2+x,1/2+z
loop_
_atom_site_type_symbol
_atom_site_label
_atom_site_fract_x
_atom_site_fract_y
_atom_site_fract_z
Si Si1 0.251775 0.858577 0.064266
Si Si2 0.297707 0.497313 0.562112
Si Si3 0.427348 0.167740 0.849341
Si Si4 0.542612 0.561987 0.926141
O O1 0.250000 0.859856 0.250000
O O2 0.317465 0.814264 0.003084
O O3 0.257870 0.934487 0.990568
O O4 0.331621 0.492513 0.731300
O O5 0.244207 0.432626 0.577776
O O6 0.362208 0.489220 0.451318
O O7 0.362577 0.137424 0.750000
O O8 0.436668 0.114871 0.985336
O O9 0.549175 0.549175 0.750000
O O10 0.500000 0.500000 0.000000
#
# Coordination Sequence:
#
# PCOD9563540 Si02
#       4
#    16  16  16  16
#     4  11  26  41  60  91 133 179 228 272 327 410
#     4  10  23  40  69  92 129 178 219 277 347 403
#     4   9  21  42  65  93 125 169 224 276 336 400
#     4  11  24  40  63  97 138 174 226 282 340 407
#
# _framework density 19.554621000000001
#
# number of rings (size 3 to 8) (size 9 to 14) (size 15 to 20)
#    0.000    1.750    0.000    3.750   14.000    0.000 
#    0.000    0.000    0.000   72.750    0.000   15.750 
#    0.000    0.000    0.000    0.000    0.000    0.000 
#
# Total GULP energy -356591.870188 kJ/mol
# GULP energy per Si atom -5571.747972 kJ/mol
# Density = 1.951011 g / cm^3
# Si number density = 19.554621 Si / 1000 Ang^3
#
#
#
# Elastic Constant Matrix: (Units=GPa)
#
#
# Indices 1 2 3 4 5 6 
#
# 1 104.2122 55.5317 39.7269 0.0000 0.0000 0.0000
# 2 55.5317 104.2118 39.7241 0.0000 0.0000 0.0000
# 3 39.7269 39.7241 108.6074 0.0000 0.0000 0.0000
# 4 0.0000 0.0000 0.0000 29.7331 0.0000 0.0000
# 5 0.0000 0.0000 0.0000 0.0000 29.7334 0.0000
# 6 0.0000 0.0000 0.0000 0.0000 0.0000 13.2448
#
#
#
# Elastic Compliance Matrix: (Units=1/GPa)
#
#
# Indices 1 2 3 4 5 6 
#
# 1 0.014097 -0.006445 -0.002799 0.000000 0.000000 0.000000
# 2 -0.006445 0.014097 -0.002799 0.000000 0.000000 0.000000
# 3 -0.002799 -0.002799 0.011255 0.000000 0.000000 0.000000
# 4 0.000000 0.000000 0.000000 0.033633 0.000000 0.000000
# 5 0.000000 0.000000 0.000000 0.000000 0.033632 0.000000
# 6 0.000000 0.000000 0.000000 0.000000 0.000000 0.075502
#
#
# Mechanical properties :
#
#
# Convention : Reuss Voigt Hill
#
# Bulk Modulus (GPa) = 65.08919 65.22189 65.15554
# Shear Modulus (GPa) = 23.64931 26.67883 25.16407
#
# Velocity S-wave (km/s) = 3.48141 3.69768 3.59118
# Velocity P-wave (km/s) = 7.03693 7.18725 7.11249
#
# Compressibility (1/GPa) = 0.01536353
#
# Stress axis : x y z
#
# Youngs Moduli (GPa) = 70.93557 70.93692 88.84932
#
# Poissons Ratio (x) = 0.45719 0.24871
# Poissons Ratio (y) = 0.45718 0.24865
# Poissons Ratio (z) = 0.19857 0.19852
#
# Static dielectric constant tensor:
#      x y z
#    x 1.730050 0.000000 0.000000 
#    y 0.000000 1.730050 0.000000 
#    z 0.000000 0.000000 1.715970 
# 
# From -- ./inp_files/1492.got.cif
#   From: 2010.05.17/outbox.cif.g08.bks.cpg/sg126_1_cif.got.tgz:1492.got - 2010.05.20 11:58:20.
