data_PCOD9563426
_publ_section_title
;
Structure prediction by ZEFSAII (Michael W. Deem and Ramdas Pophale) SiO2 
 PCOD9563426
Probable space group: P 4/N N C
;
_chemical_formula_sum "Si O2"
_cell_formula_units_Z 92
_cell_length_a 13.992263
_cell_length_b 13.992263
_cell_length_c 19.296578
_cell_angle_alpha 90.000000
_cell_angle_beta 90.000000
_cell_angle_gamma 90.000000
_cell_volume 3777.950110
_symmetry_space_group_name_H-M "P 4/N N C"
_symmetry_group_IT_number 126
_space_group.IT_coordinate_system_code '2'
_symmetry_cell_setting 'tetragonal'
loop_
_space_group_symop_operation_xyz
x,y,z
1/2-y,x,z
1/2-x,1/2-y,z
y,1/2-x,z
x,1/2-y,1/2-z
1/2-x,y,1/2-z
y,x,1/2-z
1/2-y,1/2-x,1/2-z
-x,-y,-z
1/2+y,-x,-z
1/2+x,1/2+y,-z
-y,1/2+x,-z
-x,1/2+y,1/2+z
1/2+x,-y,1/2+z
-y,-x,1/2+z
1/2+y,1/2+x,1/2+z
loop_
_atom_site_type_symbol
_atom_site_label
_atom_site_fract_x
_atom_site_fract_y
_atom_site_fract_z
Si Si1 0.640758 0.018269 0.270815
Si Si2 0.027472 0.232023 0.060457
Si Si3 0.262069 0.885778 0.539359
Si Si4 0.546069 0.505688 0.624007
Si Si5 0.133712 0.366289 0.250000
Si Si6 0.111684 0.859887 0.645114
Si Si7 0.250000 0.250000 0.079374
O O1 0.750000 0.994763 0.250000
O O2 0.602663 0.040570 0.347947
O O3 0.617531 0.113179 0.225392
O O4 0.569224 0.930777 0.250000
O O5 0.020970 0.117919 0.062237
O O6 0.133587 0.262615 0.078338
O O7 0.954835 0.273948 0.119428
O O8 0.993334 0.273376 0.986537
O O9 0.348218 0.821116 0.514012
O O10 0.216939 0.860139 0.612754
O O11 0.590581 0.573795 0.685472
O O12 0.441666 0.547835 0.611952
O O13 0.121006 0.250000 0.250000
#
# Coordination Sequence:
#
# PCOD9563426 Si02
#       7
#    16  16  16  16   8  16   4
#     4  10  23  42  64  94 124 164 210 261 316 376
#     4  11  23  38  62  92 126 168 212 256 317 378
#     4   9  21  41  63  89 119 165 216 265 321 375
#     4  11  21  37  57  90 128 163 208 252 312 382
#     4  11  22  32  56  88 125 168 200 238 303 382
#     4  10  20  41  62  88 127 164 210 262 315 376
#     4  12  24  40  60  97 132 168 201 260 316 382
#
# _framework density 24.351831000000001
#
# number of rings (size 3 to 8) (size 9 to 14) (size 15 to 20)
#    0.000    1.652    4.348    1.043    2.435    0.870 
#    0.000    0.870    0.000    0.000    0.000    0.000 
#    0.000    0.000    0.000    0.000    0.000    0.000 
#
# Total GULP energy -512546.603590 kJ/mol
# GULP energy per Si atom -5571.158735 kJ/mol
# Density = 2.429641 g / cm^3
# Si number density = 24.351831 Si / 1000 Ang^3
#
#
#
# Elastic Constant Matrix: (Units=GPa)
#
#
# Indices 1 2 3 4 5 6 
#
# 1 115.5245 -12.9189 -3.5492 0.0000 0.0000 0.0000
# 2 -12.9189 115.5232 -3.5493 0.0000 0.0000 0.0000
# 3 -3.5492 -3.5493 34.5408 0.0000 0.0000 0.0000
# 4 0.0000 0.0000 0.0000 22.0176 0.0000 0.0000
# 5 0.0000 0.0000 0.0000 0.0000 22.0175 0.0000
# 6 0.0000 0.0000 0.0000 0.0000 0.0000 25.9227
#
#
#
# Elastic Compliance Matrix: (Units=1/GPa)
#
#
# Indices 1 2 3 4 5 6 
#
# 1 0.008801 0.001015 0.001009 0.000000 0.000000 0.000000
# 2 0.001015 0.008801 0.001009 0.000000 0.000000 0.000000
# 3 0.001009 0.001009 0.029159 0.000000 0.000000 0.000000
# 4 0.000000 0.000000 0.000000 0.045418 0.000000 0.000000
# 5 0.000000 0.000000 0.000000 0.000000 0.045418 0.000000
# 6 0.000000 0.000000 0.000000 0.000000 0.000000 0.038576
#
#
# Mechanical properties :
#
#
# Convention : Reuss Voigt Hill
#
# Bulk Modulus (GPa) = 18.93047 25.06152 21.99600
# Shear Modulus (GPa) = 26.63592 33.03194 29.83393
#
# Velocity S-wave (km/s) = 3.31085 3.68699 3.50397
# Velocity P-wave (km/s) = 4.73352 5.33282 5.04208
#
# Compressibility (1/GPa) = 0.05282488
#
# Stress axis : x y z
#
# Youngs Moduli (GPa) = 113.62749 113.62624 34.29526
#
# Poissons Ratio (x) = -0.11535 -0.03459
# Poissons Ratio (y) = -0.11535 -0.03459
# Poissons Ratio (z) = -0.11461 -0.11461
#
# Static dielectric constant tensor:
#      x y z
#    x 1.982850 0.000000 0.000000 
#    y 0.000000 1.982850 0.000000 
#    z 0.000000 0.000000 2.016210 
# 
# From -- ./inp_files/5276.got.cif
#   From: 2010.05.17/outbox.cif.g08.bks.cpg/sg126_3_cif.got.tgz:5276.got - 2010.05.20 11:58:20.
