data_PCOD9563537
_publ_section_title
;
Structure prediction by ZEFSAII (Michael W. Deem and Ramdas Pophale) SiO2 
 PCOD9563537
Probable space group: P 4/N N C
;
_chemical_formula_sum "Si O2"
_cell_formula_units_Z 88
_cell_length_a 12.112708
_cell_length_b 12.112708
_cell_length_c 31.779982
_cell_angle_alpha 90.000000
_cell_angle_beta 90.000000
_cell_angle_gamma 90.000000
_cell_volume 4662.685709
_symmetry_space_group_name_H-M "P 4/N N C"
_symmetry_group_IT_number 126
_space_group.IT_coordinate_system_code '2'
_symmetry_cell_setting 'tetragonal'
loop_
_space_group_symop_operation_xyz
x,y,z
1/2-y,x,z
1/2-x,1/2-y,z
y,1/2-x,z
x,1/2-y,1/2-z
1/2-x,y,1/2-z
y,x,1/2-z
1/2-y,1/2-x,1/2-z
-x,-y,-z
1/2+y,-x,-z
1/2+x,1/2+y,-z
-y,1/2+x,-z
-x,1/2+y,1/2+z
1/2+x,-y,1/2+z
-y,-x,1/2+z
1/2+y,1/2+x,1/2+z
loop_
_atom_site_type_symbol
_atom_site_label
_atom_site_fract_x
_atom_site_fract_y
_atom_site_fract_z
Si Si1 0.866747 0.017004 0.832230
Si Si2 0.764218 0.379515 0.123121
Si Si3 0.787456 0.933642 0.444628
Si Si4 0.478168 0.638099 0.874386
Si Si5 0.117081 0.117081 0.250000
Si Si6 0.290189 0.431820 0.459317
O O1 0.882906 0.146893 0.839389
O O2 0.738099 0.995644 0.842378
O O3 0.910575 0.960272 0.789871
O O4 0.931339 0.954720 0.869010
O O5 0.750000 0.250000 0.110355
O O6 0.799877 0.464480 0.086928
O O7 0.640734 0.410459 0.136168
O O8 0.666555 0.875616 0.439129
O O9 0.798258 0.973588 0.492930
O O10 0.484315 0.684786 0.921806
O O11 0.250000 0.102255 0.250000
O O12 0.169958 0.376067 0.455029
#
# Coordination Sequence:
#
# PCOD9563537 Si02
#       6
#    16  16  16  16   8  16
#     4  11  22  38  61  88 117 151 192 241 305 369
#     4  10  23  39  52  81 125 164 194 228 301 381
#     4   9  18  37  61  83 109 155 223 276 293 329
#     4  11  20  36  59  84 121 161 194 246 304 368
#     4  11  22  38  66 100 116 133 182 250 303 362
#     4   9  17  31  56  86 112 149 211 273 311 332
#
# _framework density 18.873242000000001
#
# number of rings (size 3 to 8) (size 9 to 14) (size 15 to 20)
#    0.000    1.909    3.636    2.182    0.000    0.364 
#    6.545    3.636    0.000    0.000    0.000    0.000 
#    0.000    1.455    0.000    0.000    0.000    0.000 
#
# Total GULP energy -490285.869715 kJ/mol
# GULP energy per Si atom -5571.430338 kJ/mol
# Density = 1.883029 g / cm^3
# Si number density = 18.873242 Si / 1000 Ang^3
#
#
#
# Elastic Constant Matrix: (Units=GPa)
#
#
# Indices 1 2 3 4 5 6 
#
# 1 75.5279 23.7609 46.4818 0.0000 0.0000 0.0000
# 2 23.7609 75.5279 46.4818 0.0000 0.0000 0.0000
# 3 46.4818 46.4818 102.7439 0.0000 0.0000 0.0000
# 4 0.0000 0.0000 0.0000 23.3078 0.0000 0.0000
# 5 0.0000 0.0000 0.0000 0.0000 23.3078 0.0000
# 6 0.0000 0.0000 0.0000 0.0000 0.0000 7.1025
#
#
#
# Elastic Compliance Matrix: (Units=1/GPa)
#
#
# Indices 1 2 3 4 5 6 
#
# 1 0.018395 -0.000922 -0.007905 0.000000 0.000000 0.000000
# 2 -0.000922 0.018395 -0.007905 0.000000 0.000000 0.000000
# 3 -0.007905 -0.007905 0.016885 0.000000 0.000000 0.000000
# 4 0.000000 0.000000 0.000000 0.042904 0.000000 0.000000
# 5 0.000000 0.000000 0.000000 0.000000 0.042904 0.000000
# 6 0.000000 0.000000 0.000000 0.000000 0.000000 0.140796
#
#
# Mechanical properties :
#
#
# Convention : Reuss Voigt Hill
#
# Bulk Modulus (GPa) = 49.47611 54.13875 51.80743
# Shear Modulus (GPa) = 15.60157 19.88197 17.74177
#
# Velocity S-wave (km/s) = 2.87827 3.24921 3.06935
# Velocity P-wave (km/s) = 6.10883 6.54402 6.33017
#
# Compressibility (1/GPa) = 0.02021178
#
# Stress axis : x y z
#
# Youngs Moduli (GPa) = 54.36240 54.36240 59.22333
#
# Poissons Ratio (x) = 0.05014 0.46815
# Poissons Ratio (y) = 0.05014 0.46815
# Poissons Ratio (z) = 0.42972 0.42972
#
# Static dielectric constant tensor:
#      x y z
#    x 1.670300 0.000000 0.000000 
#    y 0.000000 1.670300 0.000000 
#    z 0.000000 0.000000 1.673530 
# 
# From -- ./inp_files/6545.got.cif
#   From: 2010.05.17/outbox.cif.g08.bks.cpg/sg126_4_cif.got.tgz:6545.got - 2010.05.20 11:58:20.
