data_PCOD9563514
_publ_section_title
;
Structure prediction by ZEFSAII (Michael W. Deem and Ramdas Pophale) SiO2 
 PCOD9563514
Probable space group: P 4/N N C
;
_chemical_formula_sum "Si O2"
_cell_formula_units_Z 84
_cell_length_a 12.886288
_cell_length_b 12.886288
_cell_length_c 20.924720
_cell_angle_alpha 90.000000
_cell_angle_beta 90.000000
_cell_angle_gamma 90.000000
_cell_volume 3474.684060
_symmetry_space_group_name_H-M "P 4/N N C"
_symmetry_group_IT_number 126
_space_group.IT_coordinate_system_code '2'
_symmetry_cell_setting 'tetragonal'
loop_
_space_group_symop_operation_xyz
x,y,z
1/2-y,x,z
1/2-x,1/2-y,z
y,1/2-x,z
x,1/2-y,1/2-z
1/2-x,y,1/2-z
y,x,1/2-z
1/2-y,1/2-x,1/2-z
-x,-y,-z
1/2+y,-x,-z
1/2+x,1/2+y,-z
-y,1/2+x,-z
-x,1/2+y,1/2+z
1/2+x,-y,1/2+z
-y,-x,1/2+z
1/2+y,1/2+x,1/2+z
loop_
_atom_site_type_symbol
_atom_site_label
_atom_site_fract_x
_atom_site_fract_y
_atom_site_fract_z
Si Si1 0.150465 0.860674 0.131711
Si Si2 0.516979 0.544986 0.319810
Si Si3 0.044502 0.822468 0.433158
Si Si4 0.895082 0.665203 0.668670
Si Si5 0.250000 0.750000 0.250000
Si Si6 0.001704 0.196084 0.048030
O O1 0.131119 0.760197 0.088170
O O2 0.186346 0.821882 0.201277
O O3 0.230709 0.935301 0.096224
O O4 0.042745 0.919319 0.142938
O O5 0.563377 0.563377 0.250000
O O6 0.507600 0.641149 0.367358
O O7 0.402202 0.493551 0.309488
O O8 0.098871 0.924194 0.463509
O O9 0.977145 0.761112 0.484783
O O10 0.887335 0.786077 0.687134
O O11 0.903218 0.660511 0.591366
#
# Coordination Sequence:
#
# PCOD9563514 Si02
#       6
#    16  16  16  16   4  16
#     4  12  23  39  63  94 128 171 224 273 338 398
#     4  11  26  42  63  96 134 177 228 271 334 416
#     4  11  23  41  65  96 133 169 219 291 339 399
#     4  10  22  40  59  89 132 174 211 258 323 406
#     4  12  24  36  66  92 134 178 220 294 336 396
#     4  11  21  38  65  94 126 165 221 274 336 401
#
# _framework density 24.174861
#
# number of rings (size 3 to 8) (size 9 to 14) (size 15 to 20)
#    0.000    0.952    5.714    1.143    2.667    3.048 
#    0.000    0.952    0.000    0.571    0.000    1.333 
#    0.000    0.000    0.000    0.000    0.000    0.000 
#
# Total GULP energy -470345.190865 kJ/mol
# GULP energy per Si atom -5599.347510 kJ/mol
# Density = 2.411984 g / cm^3
# Si number density = 24.174861 Si / 1000 Ang^3
#
#
#
# Elastic Constant Matrix: (Units=GPa)
#
#
# Indices 1 2 3 4 5 6 
#
# 1 54.6885 12.6770 26.1531 0.0000 0.0000 0.0000
# 2 12.6770 54.6885 26.1531 0.0000 0.0000 0.0000
# 3 26.1531 26.1531 159.8350 0.0000 0.0000 0.0000
# 4 0.0000 0.0000 0.0000 47.3180 0.0000 0.0000
# 5 0.0000 0.0000 0.0000 0.0000 47.3180 0.0000
# 6 0.0000 0.0000 0.0000 0.0000 0.0000 32.6987
#
#
#
# Elastic Compliance Matrix: (Units=1/GPa)
#
#
# Indices 1 2 3 4 5 6 
#
# 1 0.020404 -0.003399 -0.002782 0.000000 0.000000 0.000000
# 2 -0.003399 0.020404 -0.002782 0.000000 0.000000 0.000000
# 3 -0.002782 -0.002782 0.007167 0.000000 0.000000 0.000000
# 4 0.000000 0.000000 0.000000 0.021134 0.000000 0.000000
# 5 0.000000 0.000000 0.000000 0.000000 0.021134 0.000000
# 6 0.000000 0.000000 0.000000 0.000000 0.000000 0.030582
#
#
# Mechanical properties :
#
#
# Convention : Reuss Voigt Hill
#
# Bulk Modulus (GPa) = 33.28126 44.35317 38.81721
# Shear Modulus (GPa) = 33.60942 39.08219 36.34581
#
# Velocity S-wave (km/s) = 3.73267 4.02512 3.88165
# Velocity P-wave (km/s) = 5.68980 6.32366 6.01509
#
# Compressibility (1/GPa) = 0.03004694
#
# Stress axis : x y z
#
# Youngs Moduli (GPa) = 49.01024 49.01024 139.52829
#
# Poissons Ratio (x) = 0.16659 0.38823
# Poissons Ratio (y) = 0.16659 0.38823
# Poissons Ratio (z) = 0.13637 0.13637
#
# Static dielectric constant tensor:
#      x y z
#    x 1.942490 0.000000 0.000000 
#    y 0.000000 1.942490 0.000000 
#    z 0.000000 0.000000 1.972900 
# 
# From -- ./inp_files/5168.got.cif
#   From: 2010.05.17/outbox.cif.g08.bks.cpg/sg126_3_cif.got.tgz:5168.got - 2010.05.20 11:58:20.
