data_PCOD9563758
_publ_section_title
;
Structure prediction by ZEFSAII (Michael W. Deem and Ramdas Pophale) SiO2 
 PCOD9563758
Probable space group: P 4/M B M
;
_chemical_formula_sum "Si O2"
_cell_formula_units_Z 112
_cell_length_a 15.292647
_cell_length_b 15.292647
_cell_length_c 24.442495
_cell_angle_alpha 90.000000
_cell_angle_beta 90.000000
_cell_angle_gamma 90.000000
_cell_volume 5716.245371
_symmetry_space_group_name_H-M "P 4/M B M"
_symmetry_group_IT_number 127
_symmetry_cell_setting 'tetragonal'
loop_
_space_group_symop_operation_xyz
x,y,z
-y,x,z
-x,-y,z
y,-x,z
1/2+x,1/2-y,-z
1/2-x,1/2+y,-z
1/2+y,1/2+x,-z
1/2-y,1/2-x,-z
-x,-y,-z
y,-x,-z
x,y,-z
-y,x,-z
1/2-x,1/2+y,z
1/2+x,1/2-y,z
1/2-y,1/2-x,z
1/2+y,1/2+x,z
loop_
_atom_site_type_symbol
_atom_site_label
_atom_site_fract_x
_atom_site_fract_y
_atom_site_fract_z
Si Si1 0.611458 0.404317 0.778313
Si Si2 0.855735 0.504817 0.261425
Si Si3 0.727733 0.623545 0.561075
Si Si4 0.583739 0.768634 0.840655
Si Si5 0.354165 0.004734 0.615239
Si Si6 0.106181 0.102434 0.657622
Si Si7 0.145637 0.494915 0.062921
O O1 0.615930 0.509633 0.781776
O O2 0.675086 0.375089 0.826401
O O3 0.639456 0.371307 0.718040
O O4 0.900649 0.599352 0.253862
O O5 0.795897 0.475468 0.211697
O O6 0.817949 0.496993 0.322552
O O7 0.934784 0.434784 0.261623
O O8 0.690450 0.617601 0.500000
O O9 0.800403 0.699598 0.562090
O O10 0.780555 0.534100 0.575719
O O11 0.656706 0.643798 0.607459
O O12 0.660716 0.839285 0.843951
O O13 0.525209 0.781048 0.894568
O O14 0.403198 0.096803 0.603331
O O15 0.432332 0.932332 0.615323
O O16 0.001604 0.117105 0.654458
O O17 0.093487 0.406514 0.078834
O O18 0.070818 0.570818 0.064000
O O19 0.174967 0.486977 0.000000
#
# Coordination Sequence:
#
# PCOD9563758 Si02
#       7
#    16  16  16  16  16  16  16
#     4   9  20  38  55  72 100 137 175 216 268 330
#     4   8  14  24  40  68 105 137 163 200 254 313
#     4  10  21  35  53  79 107 133 167 217 271 325
#     4  10  18  28  50  82 108 134 178 229 271 314
#     4   8  15  28  45  68 103 143 171 195 246 323
#     4   9  20  39  60  75  92 128 175 216 261 320
#     4   8  14  26  46  76 118 162 191 212 252 312
#
# _framework density 19.593281999999999
#
# number of rings (size 3 to 8) (size 9 to 14) (size 15 to 20)
#    0.000    3.143    0.000    2.571    4.000    3.143 
#    0.000    4.286    0.000    0.857    0.000    3.000 
#    0.000    0.000    0.000    0.000    0.000    0.000 
#
# Total GULP energy -624127.139604 kJ/mol
# GULP energy per Si atom -5572.563746 kJ/mol
# Density = 1.954869 g / cm^3
# Si number density = 19.593282 Si / 1000 Ang^3
#
#
#
# Elastic Constant Matrix: (Units=GPa)
#
#
# Indices 1 2 3 4 5 6 
#
# 1 58.5235 3.7738 32.5798 0.0000 0.0000 0.0000
# 2 3.7738 58.5235 32.5798 0.0000 0.0000 0.0000
# 3 32.5798 32.5798 101.8235 0.0000 0.0000 0.0000
# 4 0.0000 0.0000 0.0000 26.7641 0.0000 0.0000
# 5 0.0000 0.0000 0.0000 0.0000 26.7641 0.0000
# 6 0.0000 0.0000 0.0000 0.0000 0.0000 -8.2846
#
#
#
# Elastic Compliance Matrix: (Units=1/GPa)
#
#
# Indices 1 2 3 4 5 6 
#
# 1 0.021196 0.002931 -0.007719 0.000000 0.000000 0.000000
# 2 0.002931 0.021196 -0.007719 0.000000 0.000000 0.000000
# 3 -0.007719 -0.007719 0.014761 0.000000 0.000000 0.000000
# 4 0.000000 0.000000 0.000000 0.037364 0.000000 0.000000
# 5 0.000000 0.000000 0.000000 0.000000 0.037364 0.000000
# 6 0.000000 0.000000 0.000000 0.000000 0.000000 -0.120706
#
#
# Mechanical properties :
#
#
# Convention : Reuss Voigt Hill
#
# Bulk Modulus (GPa) = 31.11845 39.63746 35.37796
# Shear Modulus (GPa) = 106.60590 19.04451 62.82521
#
# Velocity S-wave (km/s) = 7.38428 3.12106 5.66871
# Velocity P-wave (km/s) = 9.41382 5.76733 7.80648
#
# Compressibility (1/GPa) = 0.03213528
#
# Stress axis : x y z
#
# Youngs Moduli (GPa) = 47.17962 47.17962 67.74692
#
# Poissons Ratio (x) = -0.13827 0.52297
# Poissons Ratio (y) = -0.13827 0.52297
# Poissons Ratio (z) = 0.36420 0.36420
#
# Static dielectric constant tensor:
#      x y z
#    x 1.725180 0.000000 0.000000 
#    y 0.000000 1.725180 0.000000 
#    z 0.000000 0.000000 1.695480 
# 
# From -- ./inp_files/6166.got.cif
#   From: 2010.05.17/outbox.cif.g08.bks.cpg/sg127_4_cif.got.tgz:6166.got - 2010.05.20 12:03:00.
