data_PCOD9563601
_publ_section_title
;
Structure prediction by ZEFSAII (Michael W. Deem and Ramdas Pophale) SiO2 
 PCOD9563601
Probable space group: P 4/N N C
;
_chemical_formula_sum "Si O2"
_cell_formula_units_Z 88
_cell_length_a 13.870081
_cell_length_b 13.870081
_cell_length_c 25.832480
_cell_angle_alpha 90.000000
_cell_angle_beta 90.000000
_cell_angle_gamma 90.000000
_cell_volume 4969.630466
_symmetry_space_group_name_H-M "P 4/N N C"
_symmetry_group_IT_number 126
_space_group.IT_coordinate_system_code '2'
_symmetry_cell_setting 'tetragonal'
loop_
_space_group_symop_operation_xyz
x,y,z
1/2-y,x,z
1/2-x,1/2-y,z
y,1/2-x,z
x,1/2-y,1/2-z
1/2-x,y,1/2-z
y,x,1/2-z
1/2-y,1/2-x,1/2-z
-x,-y,-z
1/2+y,-x,-z
1/2+x,1/2+y,-z
-y,1/2+x,-z
-x,1/2+y,1/2+z
1/2+x,-y,1/2+z
-y,-x,1/2+z
1/2+y,1/2+x,1/2+z
loop_
_atom_site_type_symbol
_atom_site_label
_atom_site_fract_x
_atom_site_fract_y
_atom_site_fract_z
Si Si1 0.162714 0.671384 0.566909
Si Si2 0.433140 0.645948 0.545462
Si Si3 0.250000 0.083769 0.750000
Si Si4 0.368282 0.456665 0.594543
Si Si5 0.629993 0.643757 0.513090
Si Si6 0.820298 0.997798 0.144885
O O1 0.250000 0.750000 0.563384
O O2 0.074289 0.746564 0.568115
O O3 0.154619 0.608747 0.513605
O O4 0.169841 0.600707 0.616038
O O5 0.373492 0.568059 0.577858
O O6 0.541516 0.604318 0.546321
O O7 0.341904 0.158097 0.750000
O O8 0.224394 0.013670 0.798194
O O9 0.391878 0.396437 0.543616
O O10 0.260171 0.438092 0.612633
O O11 0.442164 0.421153 0.638034
O O12 0.741491 0.620420 0.519956
#
# Coordination Sequence:
#
# PCOD9563601 Si02
#       6
#    16  16   8  16  16  16
#     4  12  21  37  55  79 117 156 198 231 276 344
#     4  12  22  36  54  83 118 162 198 235 278 349
#     4  11  24  42  63  86 116 146 185 246 307 358
#     4  12  22  35  57  82 117 152 198 231 293 347
#     4  11  22  33  49  80 119 156 194 238 284 338
#     4  12  24  39  60  85 110 150 191 244 295 355
#
# _framework density 17.707553999999998
#
# number of rings (size 3 to 8) (size 9 to 14) (size 15 to 20)
#    0.000    0.273    9.091    1.636    2.545    0.364 
#    0.000    0.455    0.000    0.000    0.000    0.000 
#    0.000    0.000    0.000    0.000    0.000    0.000 
#
# Total GULP energy -490048.428838 kJ/mol
# GULP energy per Si atom -5568.732146 kJ/mol
# Density = 1.766725 g / cm^3
# Si number density = 17.707554 Si / 1000 Ang^3
#
#
#
# Elastic Constant Matrix: (Units=GPa)
#
#
# Indices 1 2 3 4 5 6 
#
# 1 71.4482 21.6202 30.2074 0.0000 0.0000 0.0000
# 2 21.6202 71.4483 30.2073 0.0000 0.0000 0.0000
# 3 30.2074 30.2073 75.7629 0.0000 0.0000 0.0000
# 4 0.0000 0.0000 0.0000 23.0107 0.0000 0.0000
# 5 0.0000 0.0000 0.0000 0.0000 23.0110 0.0000
# 6 0.0000 0.0000 0.0000 0.0000 0.0000 14.9805
#
#
#
# Elastic Compliance Matrix: (Units=1/GPa)
#
#
# Indices 1 2 3 4 5 6 
#
# 1 0.017283 -0.002786 -0.005780 0.000000 0.000000 0.000000
# 2 -0.002786 0.017283 -0.005780 0.000000 0.000000 0.000000
# 3 -0.005780 -0.005780 0.017808 0.000000 0.000000 0.000000
# 4 0.000000 0.000000 0.000000 0.043458 0.000000 0.000000
# 5 0.000000 0.000000 0.000000 0.000000 0.043458 0.000000
# 6 0.000000 0.000000 0.000000 0.000000 0.000000 0.066754
#
#
# Mechanical properties :
#
#
# Convention : Reuss Voigt Hill
#
# Bulk Modulus (GPa) = 42.22660 42.52548 42.37604
# Shear Modulus (GPa) = 20.60756 21.30872 20.95814
#
# Velocity S-wave (km/s) = 3.41511 3.47272 3.44404
# Velocity P-wave (km/s) = 6.28085 6.33619 6.30858
#
# Compressibility (1/GPa) = 0.02368175
#
# Stress axis : x y z
#
# Youngs Moduli (GPa) = 57.86051 57.86066 56.15398
#
# Poissons Ratio (x) = 0.16121 0.32457
# Poissons Ratio (y) = 0.16120 0.32457
# Poissons Ratio (z) = 0.33444 0.33444
#
# Static dielectric constant tensor:
#      x y z
#    x 1.664100 0.000000 0.000000 
#    y 0.000000 1.664100 0.000000 
#    z 0.000000 0.000000 1.623200 
# 
# From -- ./inp_files/5162.got.cif
#   From: 2010.05.17/outbox.cif.g08.bks.cpg/sg126_3_cif.got.tgz:5162.got - 2010.05.20 11:58:20.
