data_PCOD9563219
_publ_section_title
;
Structure prediction by ZEFSAII (Michael W. Deem and Ramdas Pophale) SiO2 
 PCOD9563219
Probable space group: P 4/N B M
;
_chemical_formula_sum "Si O2"
_cell_formula_units_Z 56
_cell_length_a 11.708530
_cell_length_b 11.708530
_cell_length_c 21.758673
_cell_angle_alpha 90.000000
_cell_angle_beta 90.000000
_cell_angle_gamma 90.000000
_cell_volume 2982.889405
_symmetry_space_group_name_H-M "P 4/N B M"
_symmetry_group_IT_number 125
_space_group.IT_coordinate_system_code '2'
_symmetry_cell_setting 'tetragonal'
loop_
_space_group_symop_operation_xyz
x,y,z
1/2-y,x,z
1/2-x,1/2-y,z
y,1/2-x,z
x,1/2-y,-z
1/2-x,y,-z
y,x,-z
1/2-y,1/2-x,-z
-x,-y,-z
1/2+y,-x,-z
1/2+x,1/2+y,-z
-y,1/2+x,-z
-x,1/2+y,z
1/2+x,-y,z
-y,-x,z
1/2+y,1/2+x,z
loop_
_atom_site_type_symbol
_atom_site_label
_atom_site_fract_x
_atom_site_fract_y
_atom_site_fract_z
Si Si1 0.345806 0.654195 0.850093
Si Si2 0.764012 0.559472 0.928378
Si Si3 0.652818 0.347183 0.290806
Si Si4 0.250000 0.938873 0.500000
Si Si5 0.280618 0.062306 0.372177
O O1 0.250000 0.750000 0.847253
O O2 0.452573 0.707987 0.886221
O O3 0.375681 0.624320 0.779816
O O4 0.867737 0.648825 0.917977
O O5 0.750000 0.524777 0.000000
O O6 0.750000 0.250000 0.293060
O O7 0.541915 0.301569 0.326384
O O8 0.355556 0.855556 0.516571
O O9 0.283481 0.014062 0.441508
O O10 0.376708 0.158790 0.363335
#
# Coordination Sequence:
#
# PCOD9563219 Si02
#       5
#     8  16   8   8  16
#     4  11  26  39  63  97 127 170 216 261 310 390
#     4   9  21  41  65  95 130 166 209 265 321 371
#     4  11  26  46  62  89 133 171 213 263 322 378
#     4  11  22  37  66 102 130 163 205 268 330 378
#     4  11  25  43  67  96 125 167 219 268 319 383
#
# _framework density 18.773741999999999
#
# number of rings (size 3 to 8) (size 9 to 14) (size 15 to 20)
#    0.000    1.571    1.429    2.571    8.000    5.714 
#    0.000    2.857    0.000    0.000    0.000    0.000 
#    0.000    0.000    0.000    0.000    0.000    0.000 
#
# Total GULP energy -312876.230079 kJ/mol
# GULP energy per Si atom -5587.075537 kJ/mol
# Density = 1.873101 g / cm^3
# Si number density = 18.773742 Si / 1000 Ang^3
#
#
#
# Elastic Constant Matrix: (Units=GPa)
#
#
# Indices 1 2 3 4 5 6 
#
# 1 111.4465 59.7439 80.4496 0.0000 0.0000 0.0000
# 2 59.7439 111.4465 80.4496 0.0000 0.0000 0.0000
# 3 80.4496 80.4496 157.2642 0.0000 0.0000 0.0000
# 4 0.0000 0.0000 0.0000 -35.2298 0.0000 0.0000
# 5 0.0000 0.0000 0.0000 0.0000 -35.2298 0.0000
# 6 0.0000 0.0000 0.0000 0.0000 0.0000 11.5178
#
#
#
# Elastic Compliance Matrix: (Units=1/GPa)
#
#
# Indices 1 2 3 4 5 6 
#
# 1 0.015296 -0.004045 -0.005756 0.000000 0.000000 0.000000
# 2 -0.004045 0.015296 -0.005756 0.000000 0.000000 0.000000
# 3 -0.005756 -0.005756 0.012247 0.000000 0.000000 0.000000
# 4 0.000000 0.000000 0.000000 -0.028385 0.000000 0.000000
# 5 0.000000 0.000000 0.000000 0.000000 -0.028385 0.000000
# 6 0.000000 0.000000 0.000000 0.000000 0.000000 0.086822
#
#
# Mechanical properties :
#
#
# Convention : Reuss Voigt Hill
#
# Bulk Modulus (GPa) = 85.27214 91.27149 88.27181
# Shear Modulus (GPa) = 46.33364 -1.15408 22.58978
#
# Velocity S-wave (km/s) = 4.97329 -0.78490 3.47257
# Velocity P-wave (km/s) = 8.85989 6.92103 7.94979
#
# Compressibility (1/GPa) = 0.01172716
#
# Stress axis : x y z
#
# Youngs Moduli (GPa) = 65.37583 65.37583 81.65081
#
# Poissons Ratio (x) = 0.26446 0.46994
# Poissons Ratio (y) = 0.26446 0.46994
# Poissons Ratio (z) = 0.37627 0.37627
#
# Static dielectric constant tensor:
#      x y z
#    x 1.634770 0.000000 0.000000 
#    y 0.000000 1.634770 0.000000 
#    z 0.000000 0.000000 1.626270 
# 
# From -- ./inp_files/5699.got.cif
#   From: 2010.05.17/outbox.cif.g08.bks.cpg/sg125_3_cif.got.tgz:5699.got - 2010.05.20 11:54:10.
