data_PCOD9563641
_publ_section_title
;
Structure prediction by ZEFSAII (Michael W. Deem and Ramdas Pophale) SiO2 
 PCOD9563641
Probable space group: P 4/N N C
;
_chemical_formula_sum "Si O2"
_cell_formula_units_Z 88
_cell_length_a 13.951835
_cell_length_b 13.951835
_cell_length_c 20.195446
_cell_angle_alpha 90.000000
_cell_angle_beta 90.000000
_cell_angle_gamma 90.000000
_cell_volume 3931.118284
_symmetry_space_group_name_H-M "P 4/N N C"
_symmetry_group_IT_number 126
_space_group.IT_coordinate_system_code '2'
_symmetry_cell_setting 'tetragonal'
loop_
_space_group_symop_operation_xyz
x,y,z
1/2-y,x,z
1/2-x,1/2-y,z
y,1/2-x,z
x,1/2-y,1/2-z
1/2-x,y,1/2-z
y,x,1/2-z
1/2-y,1/2-x,1/2-z
-x,-y,-z
1/2+y,-x,-z
1/2+x,1/2+y,-z
-y,1/2+x,-z
-x,1/2+y,1/2+z
1/2+x,-y,1/2+z
-y,-x,1/2+z
1/2+y,1/2+x,1/2+z
loop_
_atom_site_type_symbol
_atom_site_label
_atom_site_fract_x
_atom_site_fract_y
_atom_site_fract_z
Si Si1 0.431240 0.569083 0.380537
Si Si2 0.237481 0.864836 0.671292
Si Si3 0.986470 0.243101 0.461623
Si Si4 0.102787 0.195949 0.344824
Si Si5 0.949990 0.550011 0.750000
Si Si6 0.051114 0.893184 0.066966
O O1 0.423352 0.681035 0.367895
O O2 0.325684 0.543272 0.408819
O O3 0.450026 0.526681 0.307822
O O4 0.515810 0.519510 0.423831
O O5 0.250000 0.750000 0.658517
O O6 0.250000 0.878109 0.750000
O O7 0.142580 0.908958 0.637921
O O8 0.915627 0.152496 0.471152
O O9 0.000021 0.307571 0.526412
O O10 0.071662 0.190598 0.421214
O O11 0.196769 0.133209 0.332831
O O12 0.034819 0.149392 0.291030
#
# Coordination Sequence:
#
# PCOD9563641 Si02
#       6
#    16  16  16  16   8  16
#     4  12  25  43  69 104 143 193 245 305 371 448
#     4  11  25  45  71 104 144 189 245 307 371 441
#     4  12  24  43  65 101 143 192 247 296 361 451
#     4  11  23  38  61  98 144 191 232 291 373 456
#     4  12  22  39  68 102 148 187 238 308 382 448
#     4  12  26  45  72 102 144 198 250 306 371 441
#
# _framework density 22.385487999999999
#
# number of rings (size 3 to 8) (size 9 to 14) (size 15 to 20)
#    0.000    0.364    5.455    3.273    0.000    2.182 
#    0.000    0.000    0.000    0.545    0.000    1.273 
#    0.000    0.000    0.000    0.000    0.000    0.000 
#
# Total GULP energy -491009.763996 kJ/mol
# GULP energy per Si atom -5579.656409 kJ/mol
# Density = 2.233454 g / cm^3
# Si number density = 22.385488 Si / 1000 Ang^3
#
#
#
# Elastic Constant Matrix: (Units=GPa)
#
#
# Indices 1 2 3 4 5 6 
#
# 1 104.2091 38.4428 42.4654 0.0000 0.0000 0.0000
# 2 38.4428 104.2094 42.4654 0.0000 0.0000 0.0000
# 3 42.4654 42.4654 119.8246 0.0000 0.0000 0.0000
# 4 0.0000 0.0000 0.0000 45.0684 0.0000 0.0000
# 5 0.0000 0.0000 0.0000 0.0000 45.0682 0.0000
# 6 0.0000 0.0000 0.0000 0.0000 0.0000 25.8156
#
#
#
# Elastic Compliance Matrix: (Units=1/GPa)
#
#
# Indices 1 2 3 4 5 6 
#
# 1 0.012045 -0.003160 -0.003149 0.000000 0.000000 0.000000
# 2 -0.003160 0.012045 -0.003149 0.000000 0.000000 0.000000
# 3 -0.003149 -0.003149 0.010577 0.000000 0.000000 0.000000
# 4 0.000000 0.000000 0.000000 0.022188 0.000000 0.000000
# 5 0.000000 0.000000 0.000000 0.000000 0.022189 0.000000
# 6 0.000000 0.000000 0.000000 0.000000 0.000000 0.038736
#
#
# Mechanical properties :
#
#
# Convention : Reuss Voigt Hill
#
# Bulk Modulus (GPa) = 63.48439 63.88780 63.68610
# Shear Modulus (GPa) = 35.22448 36.84842 36.03645
#
# Velocity S-wave (km/s) = 3.97109 4.06160 4.01660
# Velocity P-wave (km/s) = 7.03188 7.11317 7.07264
#
# Compressibility (1/GPa) = 0.01575190
#
# Stress axis : x y z
#
# Youngs Moduli (GPa) = 83.02177 83.02200 94.54195
#
# Poissons Ratio (x) = 0.26237 0.29769
# Poissons Ratio (y) = 0.26237 0.29768
# Poissons Ratio (z) = 0.26141 0.26141
#
# Static dielectric constant tensor:
#      x y z
#    x 1.874550 0.000000 0.000000 
#    y 0.000000 1.874550 0.000000 
#    z 0.000000 0.000000 1.913780 
# 
# From -- ./inp_files/5188.got.cif
#   From: 2010.05.17/outbox.cif.g08.bks.cpg/sg126_3_cif.got.tgz:5188.got - 2010.05.20 11:58:20.
