data_PCOD9563073
_publ_section_title
;
Structure prediction by ZEFSAII (Michael W. Deem and Ramdas Pophale) SiO2 
 PCOD9563073
Probable space group: P 4/N B M
;
_chemical_formula_sum "Si O2"
_cell_formula_units_Z 96
_cell_length_a 15.165427
_cell_length_b 15.165427
_cell_length_c 20.027560
_cell_angle_alpha 90.000000
_cell_angle_beta 90.000000
_cell_angle_gamma 90.000000
_cell_volume 4606.142051
_symmetry_space_group_name_H-M "P 4/N B M"
_symmetry_group_IT_number 125
_space_group.IT_coordinate_system_code '2'
_symmetry_cell_setting 'tetragonal'
loop_
_space_group_symop_operation_xyz
x,y,z
1/2-y,x,z
1/2-x,1/2-y,z
y,1/2-x,z
x,1/2-y,-z
1/2-x,y,-z
y,x,-z
1/2-y,1/2-x,-z
-x,-y,-z
1/2+y,-x,-z
1/2+x,1/2+y,-z
-y,1/2+x,-z
-x,1/2+y,z
1/2+x,-y,z
-y,-x,z
1/2+y,1/2+x,z
loop_
_atom_site_type_symbol
_atom_site_label
_atom_site_fract_x
_atom_site_fract_y
_atom_site_fract_z
Si Si1 0.748017 0.397392 0.704166
Si Si2 0.641632 0.658910 0.243117
Si Si3 0.041868 0.686883 0.563062
Si Si4 0.364626 0.333950 0.596941
Si Si5 0.351727 0.004582 0.027643
Si Si6 0.349342 0.995206 0.183291
O O1 0.659504 0.340497 0.716515
O O2 0.826601 0.326601 0.695113
O O3 0.736335 0.449878 0.634731
O O4 0.773396 0.461182 0.765152
O O5 0.741348 0.632934 0.220869
O O6 0.635478 0.659589 0.322868
O O7 0.592740 0.575705 0.213958
O O8 0.039599 0.750000 0.500000
O O9 0.127163 0.627163 0.557581
O O10 0.953652 0.628050 0.568031
O O11 0.269333 0.367768 0.576777
O O12 0.416575 0.916575 0.018355
O O13 0.332747 0.017793 0.106494
O O14 0.250000 0.996659 0.000000
O O15 0.412707 0.087294 0.000000
O O16 0.410271 0.910271 0.180219
#
# Coordination Sequence:
#
# PCOD9563073 Si02
#       6
#    16  16  16  16  16  16
#     4   9  18  34  56  84 119 158 207 260 309 373
#     4   9  18  33  56  85 117 153 195 244 302 372
#     4  11  23  39  60  87 120 161 208 259 323 384
#     4   9  19  38  60  83 116 156 199 250 309 375
#     4  10  24  45  67  99 141 183 230 283 343 414
#     4  10  21  37  61  92 123 161 208 261 319 377
#
# _framework density 20.841736999999998
#
# number of rings (size 3 to 8) (size 9 to 14) (size 15 to 20)
#    0.000    2.333    0.000    3.500    2.333    3.167 
#    0.000    5.833    0.000    0.000    0.000    0.000 
#    0.000    0.000    0.000    0.000    0.000    0.000 
#
# Total GULP energy -534433.658079 kJ/mol
# GULP energy per Si atom -5567.017272 kJ/mol
# Density = 2.079430 g / cm^3
# Si number density = 20.841737 Si / 1000 Ang^3
#
#
#
# Elastic Constant Matrix: (Units=GPa)
#
#
# Indices 1 2 3 4 5 6 
#
# 1 96.0346 18.9564 49.5101 0.0000 0.0000 0.0000
# 2 18.9564 96.0345 49.5099 0.0000 0.0000 0.0000
# 3 49.5101 49.5099 142.6244 0.0000 0.0000 0.0000
# 4 0.0000 0.0000 0.0000 19.4344 0.0000 0.0000
# 5 0.0000 0.0000 0.0000 0.0000 19.4345 0.0000
# 6 0.0000 0.0000 0.0000 0.0000 0.0000 1.2360
#
#
#
# Elastic Compliance Matrix: (Units=1/GPa)
#
#
# Indices 1 2 3 4 5 6 
#
# 1 0.012689 -0.000285 -0.004306 0.000000 0.000000 0.000000
# 2 -0.000285 0.012689 -0.004306 0.000000 0.000000 0.000000
# 3 -0.004306 -0.004306 0.010001 0.000000 0.000000 0.000000
# 4 0.000000 0.000000 0.000000 0.051455 0.000000 0.000000
# 5 0.000000 0.000000 0.000000 0.000000 0.051455 0.000000
# 6 0.000000 0.000000 0.000000 0.000000 0.000000 0.809053
#
#
# Mechanical properties :
#
#
# Convention : Reuss Voigt Hill
#
# Bulk Modulus (GPa) = 56.86473 63.40515 60.13494
# Shear Modulus (GPa) = 5.14935 22.46879 13.80907
#
# Velocity S-wave (km/s) = 1.57355 3.28696 2.57683
# Velocity P-wave (km/s) = 5.53577 6.70027 6.14566
#
# Compressibility (1/GPa) = 0.01758559
#
# Stress axis : x y z
#
# Youngs Moduli (GPa) = 78.80819 78.80815 99.99081
#
# Poissons Ratio (x) = 0.02244 0.43056
# Poissons Ratio (y) = 0.02244 0.43056
# Poissons Ratio (z) = 0.33934 0.33934
#
# Static dielectric constant tensor:
#      x y z
#    x 1.879150 0.000000 0.000000 
#    y 0.000000 1.879160 0.000000 
#    z 0.000000 0.000000 1.757990 
# 
# From -- ./inp_files/5923.got.cif
#   From: 2010.05.17/outbox.cif.g08.bks.cpg/sg125_3_cif.got.tgz:5923.got - 2010.05.20 11:54:10.
