data_PCOD9563508
_publ_section_title
;
Structure prediction by ZEFSAII (Michael W. Deem and Ramdas Pophale) SiO2 
 PCOD9563508
Probable space group: P 4/N N C
;
_chemical_formula_sum "Si O2"
_cell_formula_units_Z 116
_cell_length_a 16.651108
_cell_length_b 16.651108
_cell_length_c 19.443897
_cell_angle_alpha 90.000000
_cell_angle_beta 90.000000
_cell_angle_gamma 90.000000
_cell_volume 5391.003170
_symmetry_space_group_name_H-M "P 4/N N C"
_symmetry_group_IT_number 126
_space_group.IT_coordinate_system_code '2'
_symmetry_cell_setting 'tetragonal'
loop_
_space_group_symop_operation_xyz
x,y,z
1/2-y,x,z
1/2-x,1/2-y,z
y,1/2-x,z
x,1/2-y,1/2-z
1/2-x,y,1/2-z
y,x,1/2-z
1/2-y,1/2-x,1/2-z
-x,-y,-z
1/2+y,-x,-z
1/2+x,1/2+y,-z
-y,1/2+x,-z
-x,1/2+y,1/2+z
1/2+x,-y,1/2+z
-y,-x,1/2+z
1/2+y,1/2+x,1/2+z
loop_
_atom_site_type_symbol
_atom_site_label
_atom_site_fract_x
_atom_site_fract_y
_atom_site_fract_z
Si Si1 0.133144 0.005701 0.225190
Si Si2 0.750000 0.250000 0.250000
Si Si3 0.507252 0.279966 0.138460
Si Si4 0.949861 0.668667 0.215437
Si Si5 0.797183 0.623399 0.971296
Si Si6 0.338555 0.903144 0.806654
Si Si7 0.255257 0.486701 0.915087
Si Si8 0.268846 0.621277 0.017969
O O1 0.205665 0.035500 0.177661
O O2 0.166444 0.967750 0.296569
O O3 0.098482 0.933232 0.180622
O O4 0.072446 0.072446 0.250000
O O5 0.697507 0.185982 0.205487
O O6 0.441211 0.317435 0.087725
O O7 0.582606 0.254073 0.091358
O O8 0.915534 0.750000 0.250000
O O9 0.905423 0.594578 0.250000
O O10 0.944413 0.680129 0.134229
O O11 0.043308 0.666973 0.237201
O O12 0.849388 0.703594 0.966043
O O13 0.799123 0.576491 0.043803
O O14 0.295698 0.956154 0.864442
O O15 0.293428 0.545784 0.971248
O O16 0.189656 0.663573 0.985357
#
# Coordination Sequence:
#
# PCOD9563508 Si02
#       8
#    16   4  16  16  16  16  16  16
#     4  11  23  40  65  94 131 172 211 269 346 407
#     4  12  20  40  64  88 132 170 220 266 324 384
#     4  10  22  41  62  95 127 160 220 276 332 397
#     4  10  22  40  59  91 132 171 223 273 324 394
#     4  10  22  41  66  90 119 169 219 270 327 390
#     4  11  23  39  60  96 128 171 214 272 326 398
#     4  10  22  39  59  92 128 164 216 263 327 379
#     4  10  22  39  63  89 125 167 218 269 317 388
#
# _framework density 21.517330999999999
#
# number of rings (size 3 to 8) (size 9 to 14) (size 15 to 20)
#    0.000    1.655    2.069    2.897    5.793    2.345 
#    0.000    0.000    0.000    9.931    0.000    0.000 
#    0.000    0.000    0.000    0.000    0.000    0.000 
#
# Total GULP energy -647229.936183 kJ/mol
# GULP energy per Si atom -5579.568415 kJ/mol
# Density = 2.146836 g / cm^3
# Si number density = 21.517331 Si / 1000 Ang^3
#
#
#
# Elastic Constant Matrix: (Units=GPa)
#
#
# Indices 1 2 3 4 5 6 
#
# 1 77.4588 19.5757 20.7058 0.0000 0.0000 0.0000
# 2 19.5757 77.4603 20.7057 0.0000 0.0000 0.0000
# 3 20.7058 20.7057 105.8932 0.0000 0.0000 0.0000
# 4 0.0000 0.0000 0.0000 28.4085 0.0000 0.0000
# 5 0.0000 0.0000 0.0000 0.0000 28.4086 0.0000
# 6 0.0000 0.0000 0.0000 0.0000 0.0000 27.6368
#
#
#
# Elastic Compliance Matrix: (Units=1/GPa)
#
#
# Indices 1 2 3 4 5 6 
#
# 1 0.014260 -0.003016 -0.002199 0.000000 0.000000 0.000000
# 2 -0.003016 0.014260 -0.002199 0.000000 0.000000 0.000000
# 3 -0.002199 -0.002199 0.010303 0.000000 0.000000 0.000000
# 4 0.000000 0.000000 0.000000 0.035201 0.000000 0.000000
# 5 0.000000 0.000000 0.000000 0.000000 0.035201 0.000000
# 6 0.000000 0.000000 0.000000 0.000000 0.000000 0.036184
#
#
# Mechanical properties :
#
#
# Convention : Reuss Voigt Hill
#
# Bulk Modulus (GPa) = 41.67245 42.53186 42.10216
# Shear Modulus (GPa) = 29.72062 30.21244 29.96653
#
# Velocity S-wave (km/s) = 3.72054 3.75119 3.73590
# Velocity P-wave (km/s) = 6.15349 6.21057 6.18210
#
# Compressibility (1/GPa) = 0.02399667
#
# Stress axis : x y z
#
# Youngs Moduli (GPa) = 70.12602 70.12754 97.05666
#
# Poissons Ratio (x) = 0.21151 0.21339
# Poissons Ratio (y) = 0.21151 0.21338
# Poissons Ratio (z) = 0.15418 0.15418
#
# Static dielectric constant tensor:
#      x y z
#    x 1.827800 0.000000 0.000000 
#    y 0.000000 1.827800 0.000000 
#    z 0.000000 0.000000 1.826820 
# 
# From -- ./inp_files/4617.got.cif
#   From: 2010.05.17/outbox.cif.g08.bks.cpg/sg126_3_cif.got.tgz:4617.got - 2010.05.20 11:58:20.
