data_PCOD9563223
_publ_section_title
;
Structure prediction by ZEFSAII (Michael W. Deem and Ramdas Pophale) SiO2 
 PCOD9563223
Probable space group: P 4/N B M
;
_chemical_formula_sum "Si O2"
_cell_formula_units_Z 40
_cell_length_a 10.978486
_cell_length_b 10.978486
_cell_length_c 16.268386
_cell_angle_alpha 90.000000
_cell_angle_beta 90.000000
_cell_angle_gamma 90.000000
_cell_volume 1960.782279
_symmetry_space_group_name_H-M "P 4/N B M"
_symmetry_group_IT_number 125
_space_group.IT_coordinate_system_code '2'
_symmetry_cell_setting 'tetragonal'
loop_
_space_group_symop_operation_xyz
x,y,z
1/2-y,x,z
1/2-x,1/2-y,z
y,1/2-x,z
x,1/2-y,-z
1/2-x,y,-z
y,x,-z
1/2-y,1/2-x,-z
-x,-y,-z
1/2+y,-x,-z
1/2+x,1/2+y,-z
-y,1/2+x,-z
-x,1/2+y,z
1/2+x,-y,z
-y,-x,z
1/2+y,1/2+x,z
loop_
_atom_site_type_symbol
_atom_site_label
_atom_site_fract_x
_atom_site_fract_y
_atom_site_fract_z
Si Si1 0.395996 0.604005 0.974400
Si Si2 0.760331 0.947102 0.318674
Si Si3 0.155799 0.844202 0.796239
Si Si4 0.750000 0.453659 0.500000
O O1 0.403931 0.596070 0.875223
O O2 0.420809 0.750000 0.000000
O O3 0.500000 0.500000 0.000000
O O4 0.638703 0.874282 0.299428
O O5 0.773962 0.064950 0.263921
O O6 0.762347 0.973149 0.415964
O O7 0.250000 0.750000 0.833693
O O8 0.867052 0.367052 0.491722
#
# Coordination Sequence:
#
# PCOD9563223 Si02
#       4
#     8  16   8   8
#     4  11  27  52  79 112 147 192 240 304 374 448
#     4  11  26  42  65  99 135 180 230 284 337 406
#     4  12  26  45  76  99 142 175 231 277 353 417
#     4  11  22  39  62  94 132 181 233 280 342 398
#
# _framework density 20.400020000000001
#
# number of rings (size 3 to 8) (size 9 to 14) (size 15 to 20)
#    0.000    0.800    4.000    2.400   11.200    3.600 
#    0.000    0.000    0.000    0.000    0.000    0.000 
#    0.000    0.000    0.000    0.000    0.000    0.000 
#
# Total GULP energy -223251.702067 kJ/mol
# GULP energy per Si atom -5581.292552 kJ/mol
# Density = 2.035359 g / cm^3
# Si number density = 20.400020 Si / 1000 Ang^3
#
#
#
# Elastic Constant Matrix: (Units=GPa)
#
#
# Indices 1 2 3 4 5 6 
#
# 1 88.9197 48.4677 12.4290 0.0000 0.0000 0.0000
# 2 48.4677 88.9197 12.4290 0.0000 0.0000 0.0000
# 3 12.4290 12.4290 101.9533 0.0000 0.0000 0.0000
# 4 0.0000 0.0000 0.0000 37.0204 0.0000 0.0000
# 5 0.0000 0.0000 0.0000 0.0000 37.0204 0.0000
# 6 0.0000 0.0000 0.0000 0.0000 0.0000 -87.1688
#
#
#
# Elastic Compliance Matrix: (Units=1/GPa)
#
#
# Indices 1 2 3 4 5 6 
#
# 1 0.016082 -0.008639 -0.000907 0.000000 0.000000 0.000000
# 2 -0.008639 0.016082 -0.000907 0.000000 0.000000 0.000000
# 3 -0.000907 -0.000907 0.010030 0.000000 0.000000 0.000000
# 4 0.000000 0.000000 0.000000 0.027012 0.000000 0.000000
# 5 0.000000 0.000000 0.000000 0.000000 0.027012 0.000000
# 6 0.000000 0.000000 0.000000 0.000000 0.000000 -0.011472
#
#
# Mechanical properties :
#
#
# Convention : Reuss Voigt Hill
#
# Bulk Modulus (GPa) = 46.97937 47.38272 47.18104
# Shear Modulus (GPa) = 44.34672 11.13888 27.74280
#
# Velocity S-wave (km/s) = 4.66752 2.33925 3.69174
# Velocity P-wave (km/s) = 7.21989 5.52932 6.43040
#
# Compressibility (1/GPa) = 0.02128594
#
# Stress axis : x y z
#
# Youngs Moduli (GPa) = 62.18225 62.18225 99.70451
#
# Poissons Ratio (x) = 0.53719 0.09047
# Poissons Ratio (y) = 0.53719 0.09047
# Poissons Ratio (z) = 0.05642 0.05642
#
# Static dielectric constant tensor:
#      x y z
#    x 1.757910 0.000000 0.000000 
#    y 0.000000 1.757910 0.000000 
#    z 0.000000 0.000000 1.707800 
# 
# From -- ./inp_files/4481.got.cif
#   From: 2010.05.17/outbox.cif.g08.bks.cpg/sg125_3_cif.got.tgz:4481.got - 2010.05.20 11:54:10.
