data_PCOD9563698
_publ_section_title
;
Structure prediction by ZEFSAII (Michael W. Deem and Ramdas Pophale) SiO2 
 PCOD9563698
Probable space group: P 4/N N C
;
_chemical_formula_sum "Si O2"
_cell_formula_units_Z 24
_cell_length_a 12.982788
_cell_length_b 12.982788
_cell_length_c 5.037746
_cell_angle_alpha 90.000000
_cell_angle_beta 90.000000
_cell_angle_gamma 90.000000
_cell_volume 849.126115
_symmetry_space_group_name_H-M "P 4/N N C"
_symmetry_group_IT_number 126
_space_group.IT_coordinate_system_code '2'
_symmetry_cell_setting 'tetragonal'
loop_
_space_group_symop_operation_xyz
x,y,z
1/2-y,x,z
1/2-x,1/2-y,z
y,1/2-x,z
x,1/2-y,1/2-z
1/2-x,y,1/2-z
y,x,1/2-z
1/2-y,1/2-x,1/2-z
-x,-y,-z
1/2+y,-x,-z
1/2+x,1/2+y,-z
-y,1/2+x,-z
-x,1/2+y,1/2+z
1/2+x,-y,1/2+z
-y,-x,1/2+z
1/2+y,1/2+x,1/2+z
loop_
_atom_site_type_symbol
_atom_site_label
_atom_site_fract_x
_atom_site_fract_y
_atom_site_fract_z
Si Si1 0.958967 0.138757 0.124261
Si Si2 0.372127 0.127874 0.750000
O O1 0.982646 0.250000 0.250000
O O2 0.875607 0.095367 0.335172
O O3 0.067439 0.089026 0.008141
O O4 0.388351 0.250000 0.750000
#
# Coordination Sequence:
#
# PCOD9563698 Si02
#       2
#    16   8
#     4  12  27  50  80 116 161 215 273 340 416 499
#     4  11  26  50  80 118 164 217 280 350 426 505
#
# _framework density 28.264353
#
# number of rings (size 3 to 8) (size 9 to 14) (size 15 to 20)
#    0.000    0.333    0.000    8.000    0.000   12.000 
#    0.000   10.000    0.000    0.000    0.000    0.000 
#    0.000    0.000    0.000    0.000    0.000    0.000 
#
# Total GULP energy -133772.101430 kJ/mol
# GULP energy per Si atom -5573.837560 kJ/mol
# Density = 2.820002 g / cm^3
# Si number density = 28.264353 Si / 1000 Ang^3
#
#
#
# Elastic Constant Matrix: (Units=GPa)
#
#
# Indices 1 2 3 4 5 6 
#
# 1 133.7864 67.0540 70.5839 0.0000 0.0000 0.0000
# 2 67.0540 133.7903 70.5838 0.0000 0.0000 0.0000
# 3 70.5839 70.5838 370.4870 0.0000 0.0000 0.0000
# 4 0.0000 0.0000 0.0000 48.9792 0.0000 0.0000
# 5 0.0000 0.0000 0.0000 0.0000 48.9797 0.0000
# 6 0.0000 0.0000 0.0000 0.0000 0.0000 50.6036
#
#
#
# Elastic Compliance Matrix: (Units=1/GPa)
#
#
# Indices 1 2 3 4 5 6 
#
# 1 0.010367 -0.004618 -0.001095 0.000000 0.000000 0.000000
# 2 -0.004618 0.010367 -0.001095 0.000000 0.000000 0.000000
# 3 -0.001095 -0.001095 0.003116 0.000000 0.000000 0.000000
# 4 0.000000 0.000000 0.000000 0.020417 0.000000 0.000000
# 5 0.000000 0.000000 0.000000 0.000000 0.020417 0.000000
# 6 0.000000 0.000000 0.000000 0.000000 0.000000 0.019761
#
#
# Mechanical properties :
#
#
# Convention : Reuss Voigt Hill
#
# Bulk Modulus (GPa) = 97.72126 117.16745 107.44436
# Shear Modulus (GPa) = 49.27420 58.36864 53.82142
#
# Velocity S-wave (km/s) = 4.17985 4.54926 4.36847
# Velocity P-wave (km/s) = 7.61210 8.31496 7.97128
#
# Compressibility (1/GPa) = 0.01023319
#
# Stress axis : x y z
#
# Youngs Moduli (GPa) = 96.46004 96.46320 320.87518
#
# Poissons Ratio (x) = 0.44546 0.35145
# Poissons Ratio (y) = 0.44545 0.35143
# Poissons Ratio (z) = 0.10565 0.10565
#
# Static dielectric constant tensor:
#      x y z
#    x 2.454180 0.000000 0.000000 
#    y 0.000000 2.454160 0.000000 
#    z 0.000000 0.000000 2.609270 
# 
# From -- ./inp_files/68.got.cif
#   From: 2010.05.17/outbox.cif.g08.bks.cpg/sg126_1_cif.got.tgz:68.got - 2010.05.20 11:58:20.
