data_PCOD9563169
_publ_section_title
;
Structure prediction by ZEFSAII (Michael W. Deem and Ramdas Pophale) SiO2 
 PCOD9563169
Probable space group: P 4/N B M
;
_chemical_formula_sum "Si O2"
_cell_formula_units_Z 96
_cell_length_a 24.479556
_cell_length_b 24.479556
_cell_length_c 9.632793
_cell_angle_alpha 90.000000
_cell_angle_beta 90.000000
_cell_angle_gamma 90.000000
_cell_volume 5772.438316
_symmetry_space_group_name_H-M "P 4/N B M"
_symmetry_group_IT_number 125
_space_group.IT_coordinate_system_code '2'
_symmetry_cell_setting 'tetragonal'
loop_
_space_group_symop_operation_xyz
x,y,z
1/2-y,x,z
1/2-x,1/2-y,z
y,1/2-x,z
x,1/2-y,-z
1/2-x,y,-z
y,x,-z
1/2-y,1/2-x,-z
-x,-y,-z
1/2+y,-x,-z
1/2+x,1/2+y,-z
-y,1/2+x,-z
-x,1/2+y,z
1/2+x,-y,z
-y,-x,z
1/2+y,1/2+x,z
loop_
_atom_site_type_symbol
_atom_site_label
_atom_site_fract_x
_atom_site_fract_y
_atom_site_fract_z
Si Si1 0.599588 0.812211 0.169149
Si Si2 0.687090 0.187090 0.035306
Si Si3 0.686608 0.186608 0.532740
Si Si4 0.133635 0.866365 0.782433
Si Si5 0.025061 0.686177 0.166756
Si Si6 0.599161 0.687478 0.169242
Si Si7 0.974086 0.185192 0.832755
Si Si8 0.867154 0.367154 0.284033
O O1 0.537214 0.825100 0.210100
O O2 0.611883 0.749816 0.211799
O O3 0.643689 0.856340 0.217034
O O4 0.599880 0.812604 0.999956
O O5 0.649534 0.149534 0.939438
O O6 0.675700 0.250000 0.000000
O O7 0.672185 0.172185 0.191540
O O8 0.675751 0.250000 0.500000
O O9 0.672049 0.172049 0.689678
O O10 0.648103 0.148103 0.440027
O O11 0.070915 0.850512 0.762316
O O12 0.036850 0.750339 0.193052
O O13 0.028458 0.678029 0.999795
O O14 0.536763 0.674171 0.210028
O O15 0.928457 0.149177 0.758133
#
# Coordination Sequence:
#
# PCOD9563169 Si02
#       8
#    16   8   8   8  16  16  16   8
#     4   8  14  24  39  62  93 123 150 185 228 272
#     4  11  20  28  44  66  83 108 152 194 221 262
#     4  11  24  36  44  62  93 120 148 200 255 282
#     4  12  20  31  47  63  88 121 155 187 231 282
#     4   9  16  27  43  63  86 116 157 197 225 259
#     4   8  14  24  39  62  93 123 150 185 228 272
#     4   9  16  27  43  63  86 116 157 197 225 259
#     4  12  20  31  47  63  88 121 155 187 231 282
#
# _framework density 16.630755000000001
#
# number of rings (size 3 to 8) (size 9 to 14) (size 15 to 20)
#    0.000    2.500    1.667    5.000    0.000    1.667 
#    0.000    2.500    0.000    4.000    0.000    2.333 
#    0.000    0.000    0.000    0.000    0.000   15.333 
#
# Total GULP energy -535025.493742 kJ/mol
# GULP energy per Si atom -5573.182226 kJ/mol
# Density = 1.659290 g / cm^3
# Si number density = 16.630755 Si / 1000 Ang^3
#
#
#
# Elastic Constant Matrix: (Units=GPa)
#
#
# Indices 1 2 3 4 5 6 
#
# 1 121.4824 98.4166 4.5241 0.0000 0.0000 0.0000
# 2 98.4166 121.4824 4.5241 0.0000 0.0000 0.0000
# 3 4.5241 4.5241 8.1390 0.0000 0.0000 0.0000
# 4 0.0000 0.0000 0.0000 8.0842 0.0000 0.0000
# 5 0.0000 0.0000 0.0000 0.0000 8.0842 0.0000
# 6 0.0000 0.0000 0.0000 0.0000 0.0000 31.6230
#
#
#
# Elastic Compliance Matrix: (Units=1/GPa)
#
#
# Indices 1 2 3 4 5 6 
#
# 1 0.024004 -0.019350 -0.002587 0.000000 0.000000 0.000000
# 2 -0.019350 0.024004 -0.002587 0.000000 0.000000 0.000000
# 3 -0.002587 -0.002587 0.125742 0.000000 0.000000 0.000000
# 4 0.000000 0.000000 0.000000 0.123698 0.000000 0.000000
# 5 0.000000 0.000000 0.000000 0.000000 0.123698 0.000000
# 6 0.000000 0.000000 0.000000 0.000000 0.000000 0.031623
#
#
# Mechanical properties :
#
#
# Convention : Reuss Voigt Hill
#
# Bulk Modulus (GPa) = 8.01913 51.78149 29.90031
# Shear Modulus (GPa) = 9.20161 19.13422 14.16792
#
# Velocity S-wave (km/s) = 2.35476 3.39563 2.92192
# Velocity P-wave (km/s) = 3.49650 6.82476 5.42231
#
# Compressibility (1/GPa) = 0.12470182
#
# Stress axis : x y z
#
# Youngs Moduli (GPa) = 41.65951 41.65951 7.95281
#
# Poissons Ratio (x) = 0.80612 0.02057
# Poissons Ratio (y) = 0.80612 0.02057
# Poissons Ratio (z) = 0.10777 0.10777
#
# Static dielectric constant tensor:
#      x y z
#    x 1.565880 0.000000 0.000000 
#    y 0.000000 1.565880 0.000000 
#    z 0.000000 0.000000 1.531340 
# 
# From -- ./inp_files/4302.got.cif
#   From: 2010.05.17/outbox.cif.g08.bks.cpg/sg125_3_cif.got.tgz:4302.got - 2010.05.20 11:54:10.
