data_PCOD9563542
_publ_section_title
;
Structure prediction by ZEFSAII (Michael W. Deem and Ramdas Pophale) SiO2 
 PCOD9563542
Probable space group: P 4/N N C
;
_chemical_formula_sum "Si O2"
_cell_formula_units_Z 60
_cell_length_a 11.844254
_cell_length_b 11.844254
_cell_length_c 20.444845
_cell_angle_alpha 90.000000
_cell_angle_beta 90.000000
_cell_angle_gamma 90.000000
_cell_volume 2868.132739
_symmetry_space_group_name_H-M "P 4/N N C"
_symmetry_group_IT_number 126
_space_group.IT_coordinate_system_code '2'
_symmetry_cell_setting 'tetragonal'
loop_
_space_group_symop_operation_xyz
x,y,z
1/2-y,x,z
1/2-x,1/2-y,z
y,1/2-x,z
x,1/2-y,1/2-z
1/2-x,y,1/2-z
y,x,1/2-z
1/2-y,1/2-x,1/2-z
-x,-y,-z
1/2+y,-x,-z
1/2+x,1/2+y,-z
-y,1/2+x,-z
-x,1/2+y,1/2+z
1/2+x,-y,1/2+z
-y,-x,1/2+z
1/2+y,1/2+x,1/2+z
loop_
_atom_site_type_symbol
_atom_site_label
_atom_site_fract_x
_atom_site_fract_y
_atom_site_fract_z
Si Si1 0.078452 0.875300 0.846283
Si Si2 0.115521 0.384480 0.250000
Si Si3 0.217117 0.583839 0.470625
Si Si4 0.250000 0.750000 0.250000
Si Si5 0.080208 0.173670 0.571452
O O1 0.067390 0.777168 0.901355
O O2 0.166889 0.826673 0.793670
O O3 0.962278 0.914972 0.811880
O O4 0.130222 0.982804 0.881957
O O5 0.097311 0.250000 0.250000
O O6 0.126557 0.684758 0.478322
O O7 0.163376 0.469696 0.498071
O O8 0.195404 0.107938 0.581479
#
# Coordination Sequence:
#
# PCOD9563542 Si02
#       5
#    16   8  16   4  16
#     4  11  24  41  68  96 136 183 231 283 341 427
#     4  11  26  46  64  97 138 182 238 287 344 400
#     4   9  19  39  66  98 127 167 227 287 348 414
#     4  12  24  44  68  94 132 188 236 272 330 428
#     4  10  23  41  64  98 134 170 224 293 361 419
#
# _framework density 20.919535
#
# number of rings (size 3 to 8) (size 9 to 14) (size 15 to 20)
#    0.000    1.733    1.333    3.200    3.733    8.533 
#    0.000    2.667    0.000    0.000    0.000    0.000 
#    0.000    0.000    0.000    0.000    0.000    0.000 
#
# Total GULP energy -335099.035705 kJ/mol
# GULP energy per Si atom -5584.983928 kJ/mol
# Density = 2.087192 g / cm^3
# Si number density = 20.919535 Si / 1000 Ang^3
#
#
#
# Elastic Constant Matrix: (Units=GPa)
#
#
# Indices 1 2 3 4 5 6 
#
# 1 115.3270 27.4518 57.0384 0.0000 0.0000 0.0000
# 2 27.4518 115.3253 57.0382 0.0000 0.0000 0.0000
# 3 57.0384 57.0382 119.3534 0.0000 0.0000 0.0000
# 4 0.0000 0.0000 0.0000 24.9284 0.0000 0.0000
# 5 0.0000 0.0000 0.0000 0.0000 24.9278 0.0000
# 6 0.0000 0.0000 0.0000 0.0000 0.0000 -17.1294
#
#
#
# Elastic Compliance Matrix: (Units=1/GPa)
#
#
# Indices 1 2 3 4 5 6 
#
# 1 0.011355 -0.000025 -0.005414 0.000000 0.000000 0.000000
# 2 -0.000025 0.011355 -0.005415 0.000000 0.000000 0.000000
# 3 -0.005414 -0.005415 0.013554 0.000000 0.000000 0.000000
# 4 0.000000 0.000000 0.000000 0.040115 0.000000 0.000000
# 5 0.000000 0.000000 0.000000 0.000000 0.040116 0.000000
# 6 0.000000 0.000000 0.000000 0.000000 0.000000 -0.058379
#
#
# Mechanical properties :
#
#
# Convention : Reuss Voigt Hill
#
# Bulk Modulus (GPa) = 68.70273 70.34026 69.52150
# Shear Modulus (GPa) = 59.04933 20.44384 39.74658
#
# Velocity S-wave (km/s) = 5.31866 3.12951 4.36360
# Velocity P-wave (km/s) = 8.40418 6.83781 7.66113
#
# Compressibility (1/GPa) = 0.01455546
#
# Stress axis : x y z
#
# Youngs Moduli (GPa) = 88.06825 88.06671 73.78103
#
# Poissons Ratio (x) = 0.00220 0.39949
# Poissons Ratio (y) = 0.00220 0.39949
# Poissons Ratio (z) = 0.47684 0.47684
#
# Static dielectric constant tensor:
#      x y z
#    x 1.776510 0.000000 0.000000 
#    y 0.000000 1.776510 0.000000 
#    z 0.000000 0.000000 1.771870 
# 
# From -- ./inp_files/4963.got.cif
#   From: 2010.05.17/outbox.cif.g08.bks.cpg/sg126_3_cif.got.tgz:4963.got - 2010.05.20 11:58:20.
