data_PCOD9563106
_publ_section_title
;
Structure prediction by ZEFSAII (Michael W. Deem and Ramdas Pophale) SiO2 
 PCOD9563106
Probable space group: P 4/N B M
;
_chemical_formula_sum "Si O2"
_cell_formula_units_Z 104
_cell_length_a 15.758146
_cell_length_b 15.758146
_cell_length_c 20.973978
_cell_angle_alpha 90.000000
_cell_angle_beta 90.000000
_cell_angle_gamma 90.000000
_cell_volume 5208.240711
_symmetry_space_group_name_H-M "P 4/N B M"
_symmetry_group_IT_number 125
_space_group.IT_coordinate_system_code '2'
_symmetry_cell_setting 'tetragonal'
loop_
_space_group_symop_operation_xyz
x,y,z
1/2-y,x,z
1/2-x,1/2-y,z
y,1/2-x,z
x,1/2-y,-z
1/2-x,y,-z
y,x,-z
1/2-y,1/2-x,-z
-x,-y,-z
1/2+y,-x,-z
1/2+x,1/2+y,-z
-y,1/2+x,-z
-x,1/2+y,z
1/2+x,-y,z
-y,-x,z
1/2+y,1/2+x,z
loop_
_atom_site_type_symbol
_atom_site_label
_atom_site_fract_x
_atom_site_fract_y
_atom_site_fract_z
Si Si1 0.856313 0.654264 0.927643
Si Si2 0.928462 0.569980 0.680919
Si Si3 0.126982 0.018162 0.184247
Si Si4 0.106796 0.750000 0.500000
Si Si5 0.387767 0.748929 0.772100
Si Si6 0.336599 0.135568 0.566368
Si Si7 0.935271 0.208511 0.362407
O O1 0.864586 0.756357 0.920435
O O2 0.918884 0.617810 0.874862
O O3 0.874860 0.625141 0.000000
O O4 0.923178 0.635891 0.623946
O O5 0.846841 0.511728 0.666086
O O6 0.009729 0.509729 0.675820
O O7 0.930428 0.611629 0.750202
O O8 0.054944 0.945057 0.181510
O O9 0.218321 0.969871 0.189405
O O10 0.168840 0.831161 0.492910
O O11 0.054963 0.757003 0.565945
O O12 0.346015 0.653986 0.778134
O O13 0.313060 0.813060 0.790517
O O14 0.408948 0.766175 0.697419
O O15 0.361111 0.235128 0.569396
O O16 0.384791 0.115210 0.500000
O O17 0.856015 0.143986 0.369559
#
# Coordination Sequence:
#
# PCOD9563106 Si02
#       7
#    16  16  16   8  16  16  16
#     4   9  20  40  65  92 121 154 192 233 277 332
#     4  10  22  36  50  78 114 144 178 231 292 348
#     4  10  22  37  57  89 123 154 194 240 286 347
#     4   9  16  28  48  72  98 137 198 260 306 357
#     4   9  18  34  55  79 113 155 194 239 295 351
#     4   9  20  38  57  73  93 133 189 240 284 340
#     4   9  18  31  48  73 106 143 190 245 301 355
#
# _framework density 19.968354000000001
#
# number of rings (size 3 to 8) (size 9 to 14) (size 15 to 20)
#    0.000    2.692    0.000    1.385    4.308    3.692 
#    0.000    1.538    0.000    0.923    0.000    0.000 
#    0.000    0.000    0.000    0.000    0.000    0.000 
#
# Total GULP energy -579568.130548 kJ/mol
# GULP energy per Si atom -5572.770486 kJ/mol
# Density = 1.992291 g / cm^3
# Si number density = 19.968354 Si / 1000 Ang^3
#
#
#
# Elastic Constant Matrix: (Units=GPa)
#
#
# Indices 1 2 3 4 5 6 
#
# 1 54.8717 20.6781 53.2919 0.0000 0.0000 0.0000
# 2 20.6781 54.8722 53.2922 0.0000 0.0000 0.0000
# 3 53.2919 53.2922 150.2749 0.0000 0.0000 0.0000
# 4 0.0000 0.0000 0.0000 28.6799 0.0000 0.0000
# 5 0.0000 0.0000 0.0000 0.0000 28.6799 0.0000
# 6 0.0000 0.0000 0.0000 0.0000 0.0000 -67.7468
#
#
#
# Elastic Compliance Matrix: (Units=1/GPa)
#
#
# Indices 1 2 3 4 5 6 
#
# 1 0.027867 -0.001378 -0.009394 0.000000 0.000000 0.000000
# 2 -0.001378 0.027867 -0.009394 0.000000 0.000000 0.000000
# 3 -0.009394 -0.009394 0.013317 0.000000 0.000000 0.000000
# 4 0.000000 0.000000 0.000000 0.034868 0.000000 0.000000
# 5 0.000000 0.000000 0.000000 0.000000 0.034868 0.000000
# 6 0.000000 0.000000 0.000000 0.000000 0.000000 -0.014761
#
#
# Mechanical properties :
#
#
# Convention : Reuss Voigt Hill
#
# Bulk Modulus (GPa) = 34.81946 57.17147 45.99547
# Shear Modulus (GPa) = 28.74730 6.77302 17.76016
#
# Velocity S-wave (km/s) = 3.79838 1.84370 2.98554
# Velocity P-wave (km/s) = 6.05905 5.76416 5.91344
#
# Compressibility (1/GPa) = 0.02871957
#
# Stress axis : x y z
#
# Youngs Moduli (GPa) = 35.88485 35.88513 75.09188
#
# Poissons Ratio (x) = 0.04946 0.70539
# Poissons Ratio (y) = 0.04946 0.70539
# Poissons Ratio (z) = 0.33709 0.33709
#
# Static dielectric constant tensor:
#      x y z
#    x 1.726110 0.000000 0.000000 
#    y 0.000000 1.726110 0.000000 
#    z 0.000000 0.000000 1.713200 
# 
# From -- ./inp_files/5516.got.cif
#   From: 2010.05.17/outbox.cif.g08.bks.cpg/sg125_3_cif.got.tgz:5516.got - 2010.05.20 11:54:10.
