data_PCOD9563103
_publ_section_title
;
Structure prediction by ZEFSAII (Michael W. Deem and Ramdas Pophale) SiO2 
 PCOD9563103
Probable space group: P 4/N B M
;
_chemical_formula_sum "Si O2"
_cell_formula_units_Z 42
_cell_length_a 13.626994
_cell_length_b 13.626994
_cell_length_c 9.863153
_cell_angle_alpha 90.000000
_cell_angle_beta 90.000000
_cell_angle_gamma 90.000000
_cell_volume 1831.537856
_symmetry_space_group_name_H-M "P 4/N B M"
_symmetry_group_IT_number 125
_space_group.IT_coordinate_system_code '2'
_symmetry_cell_setting 'tetragonal'
loop_
_space_group_symop_operation_xyz
x,y,z
1/2-y,x,z
1/2-x,1/2-y,z
y,1/2-x,z
x,1/2-y,-z
1/2-x,y,-z
y,x,-z
1/2-y,1/2-x,-z
-x,-y,-z
1/2+y,-x,-z
1/2+x,1/2+y,-z
-y,1/2+x,-z
-x,1/2+y,z
1/2+x,-y,z
-y,-x,z
1/2+y,1/2+x,z
loop_
_atom_site_type_symbol
_atom_site_label
_atom_site_fract_x
_atom_site_fract_y
_atom_site_fract_z
Si Si1 0.099999 0.900002 0.383036
Si Si2 0.750000 0.250000 0.500000
Si Si3 0.019331 0.519331 0.155818
Si Si4 0.443974 0.250000 0.500000
Si Si5 0.808076 0.607525 0.792644
O O1 0.183917 0.816084 0.398375
O O2 0.011233 0.842285 0.454406
O O3 0.050403 0.949598 0.250069
O O4 0.132101 0.490920 0.182860
O O5 0.000000 0.500000 0.000000
O O6 0.388980 0.290600 0.368837
O O7 0.874332 0.698115 0.845420
#
# Coordination Sequence:
#
# PCOD9563103 Si02
#       5
#     8   2   8   8  16
#     4  10  21  40  66 104 139 181 229 292 357 422
#     4   8  20  40  72 104 138 180 228 314 380 400
#     4  12  27  47  66  93 142 198 239 272 339 429
#     4  11  20  40  73 104 144 166 229 299 376 406
#     4  11  24  42  70 106 138 176 226 296 357 417
#
# _framework density 22.931549
#
# number of rings (size 3 to 8) (size 9 to 14) (size 15 to 20)
#    0.000    1.143    3.810    2.286    0.000    4.571 
#    0.000    1.905    0.000    2.286    0.000    0.000 
#    0.000    0.000    0.000    0.000    0.000    0.000 
#
# Total GULP energy -234381.826370 kJ/mol
# GULP energy per Si atom -5580.519675 kJ/mol
# Density = 2.287936 g / cm^3
# Si number density = 22.931549 Si / 1000 Ang^3
#
#
#
# Elastic Constant Matrix: (Units=GPa)
#
#
# Indices 1 2 3 4 5 6 
#
# 1 110.7741 54.0545 6.1663 0.0000 0.0000 0.0000
# 2 54.0545 110.7741 6.1663 0.0000 0.0000 0.0000
# 3 6.1663 6.1663 82.5372 0.0000 0.0000 0.0000
# 4 0.0000 0.0000 0.0000 24.7938 0.0000 0.0000
# 5 0.0000 0.0000 0.0000 0.0000 24.7938 0.0000
# 6 0.0000 0.0000 0.0000 0.0000 0.0000 64.3059
#
#
#
# Elastic Compliance Matrix: (Units=1/GPa)
#
#
# Indices 1 2 3 4 5 6 
#
# 1 0.011866 -0.005765 -0.000456 0.000000 0.000000 0.000000
# 2 -0.005765 0.011866 -0.000456 0.000000 0.000000 0.000000
# 3 -0.000456 -0.000456 0.012184 0.000000 0.000000 0.000000
# 4 0.000000 0.000000 0.000000 0.040333 0.000000 0.000000
# 5 0.000000 0.000000 0.000000 0.000000 0.040333 0.000000
# 6 0.000000 0.000000 0.000000 0.000000 0.000000 0.015551
#
#
# Mechanical properties :
#
#
# Convention : Reuss Voigt Hill
#
# Bulk Modulus (GPa) = 44.32098 48.53994 46.43046
# Shear Modulus (GPa) = 32.67862 38.62525 35.65194
#
# Velocity S-wave (km/s) = 3.77908 4.10856 3.94726
# Velocity P-wave (km/s) = 6.19769 6.61213 6.40826
#
# Compressibility (1/GPa) = 0.02256268
#
# Stress axis : x y z
#
# Youngs Moduli (GPa) = 84.27580 84.27580 82.07582
#
# Poissons Ratio (x) = 0.48583 0.03741
# Poissons Ratio (y) = 0.48583 0.03741
# Poissons Ratio (z) = 0.03841 0.03841
#
# Static dielectric constant tensor:
#      x y z
#    x 1.915360 0.000000 0.000000 
#    y 0.000000 1.915360 0.000000 
#    z 0.000000 0.000000 1.876250 
# 
# From -- ./inp_files/1737.got.cif
#   From: 2010.05.17/outbox.cif.g08.bks.cpg/sg125_1_cif.got.tgz:1737.got - 2010.05.20 11:54:10.
