data_PCOD9563557
_publ_section_title
;
Structure prediction by ZEFSAII (Michael W. Deem and Ramdas Pophale) SiO2 
 PCOD9563557
Probable space group: P 4/N N C
;
_chemical_formula_sum "Si O2"
_cell_formula_units_Z 56
_cell_length_a 18.003299
_cell_length_b 18.003299
_cell_length_c 8.661640
_cell_angle_alpha 90.000000
_cell_angle_beta 90.000000
_cell_angle_gamma 90.000000
_cell_volume 2807.400145
_symmetry_space_group_name_H-M "P 4/N N C"
_symmetry_group_IT_number 126
_space_group.IT_coordinate_system_code '2'
_symmetry_cell_setting 'tetragonal'
loop_
_space_group_symop_operation_xyz
x,y,z
1/2-y,x,z
1/2-x,1/2-y,z
y,1/2-x,z
x,1/2-y,1/2-z
1/2-x,y,1/2-z
y,x,1/2-z
1/2-y,1/2-x,1/2-z
-x,-y,-z
1/2+y,-x,-z
1/2+x,1/2+y,-z
-y,1/2+x,-z
-x,1/2+y,1/2+z
1/2+x,-y,1/2+z
-y,-x,1/2+z
1/2+y,1/2+x,1/2+z
loop_
_atom_site_type_symbol
_atom_site_label
_atom_site_fract_x
_atom_site_fract_y
_atom_site_fract_z
Si Si1 0.498213 0.376988 0.016686
Si Si2 0.827035 0.844435 0.433297
Si Si3 0.360286 0.775896 0.571228
Si Si4 0.488095 0.011906 0.750000
O O1 0.411439 0.358479 0.031537
O O2 0.499436 0.413460 0.847539
O O3 0.559193 0.312025 0.035516
O O4 0.513437 0.442411 0.135867
O O5 0.739372 0.849961 0.465110
O O6 0.847754 0.847754 0.250000
O O7 0.357037 0.750000 0.750000
O O8 0.336819 0.703807 0.469034
#
# Coordination Sequence:
#
# PCOD9563557 Si02
#       4
#    16  16  16   8
#     4  11  22  42  62  91 126 170 199 269 322 379
#     4   9  19  38  62  90 117 152 207 252 300 375
#     4  11  24  43  64  94 127 170 223 272 323 396
#     4  10  24  38  60  96 128 156 220 252 314 406
#
# _framework density 19.947279999999999
#
# number of rings (size 3 to 8) (size 9 to 14) (size 15 to 20)
#    0.000    1.714    1.429    4.286    0.000    6.857 
#   10.286    0.000    0.000    1.714    0.000    0.000 
#    0.000    0.000    0.000    0.000    0.000    0.000 
#
# Total GULP energy -312019.324290 kJ/mol
# GULP energy per Si atom -5571.773648 kJ/mol
# Density = 1.990188 g / cm^3
# Si number density = 19.947280 Si / 1000 Ang^3
#
#
#
# Elastic Constant Matrix: (Units=GPa)
#
#
# Indices 1 2 3 4 5 6 
#
# 1 61.3694 32.1829 40.3580 0.0000 0.0000 0.0000
# 2 32.1829 61.3724 40.3549 0.0000 0.0000 0.0000
# 3 40.3580 40.3549 91.3405 0.0000 0.0000 0.0000
# 4 0.0000 0.0000 0.0000 -22.0218 0.0000 0.0000
# 5 0.0000 0.0000 0.0000 0.0000 -22.0197 0.0000
# 6 0.0000 0.0000 0.0000 0.0000 0.0000 61.8103
#
#
#
# Elastic Compliance Matrix: (Units=1/GPa)
#
#
# Indices 1 2 3 4 5 6 
#
# 1 0.025769 -0.008494 -0.007633 0.000000 0.000000 0.000000
# 2 -0.008494 0.025765 -0.007630 0.000000 0.000000 0.000000
# 3 -0.007633 -0.007630 0.017692 0.000000 0.000000 0.000000
# 4 0.000000 0.000000 0.000000 -0.045410 0.000000 0.000000
# 5 0.000000 0.000000 0.000000 0.000000 -0.045414 0.000000
# 6 0.000000 0.000000 0.000000 0.000000 0.000000 0.016179
#
#
# Mechanical properties :
#
#
# Convention : Reuss Voigt Hill
#
# Bulk Modulus (GPa) = 46.05880 48.87486 47.46683
# Shear Modulus (GPa) = 101.35379 10.29955 55.82667
#
# Velocity S-wave (km/s) = 7.13590 2.27477 5.29602
# Velocity P-wave (km/s) = 9.54124 5.60845 7.82592
#
# Compressibility (1/GPa) = 0.02171138
#
# Stress axis : x y z
#
# Youngs Moduli (GPa) = 38.80682 38.81197 56.52338
#
# Poissons Ratio (x) = 0.32966 0.43145
# Poissons Ratio (y) = 0.32961 0.43130
# Poissons Ratio (z) = 0.29621 0.29615
#
# Static dielectric constant tensor:
#      x y z
#    x 1.700030 0.000000 0.000000 
#    y 0.000000 1.700030 0.000000 
#    z 0.000000 0.000000 1.733890 
# 
# From -- ./inp_files/1246.got.cif
#   From: 2010.05.17/outbox.cif.g08.bks.cpg/sg126_1_cif.got.tgz:1246.got - 2010.05.20 11:58:20.
