data_PCOD9563188
_publ_section_title
;
Structure prediction by ZEFSAII (Michael W. Deem and Ramdas Pophale) SiO2 
 PCOD9563188
Probable space group: P 4/N B M
;
_chemical_formula_sum "Si O2"
_cell_formula_units_Z 112
_cell_length_a 14.458817
_cell_length_b 14.458817
_cell_length_c 27.908843
_cell_angle_alpha 90.000000
_cell_angle_beta 90.000000
_cell_angle_gamma 90.000000
_cell_volume 5834.549849
_symmetry_space_group_name_H-M "P 4/N B M"
_symmetry_group_IT_number 125
_space_group.IT_coordinate_system_code '2'
_symmetry_cell_setting 'tetragonal'
loop_
_space_group_symop_operation_xyz
x,y,z
1/2-y,x,z
1/2-x,1/2-y,z
y,1/2-x,z
x,1/2-y,-z
1/2-x,y,-z
y,x,-z
1/2-y,1/2-x,-z
-x,-y,-z
1/2+y,-x,-z
1/2+x,1/2+y,-z
-y,1/2+x,-z
-x,1/2+y,z
1/2+x,-y,z
-y,-x,z
1/2+y,1/2+x,z
loop_
_atom_site_type_symbol
_atom_site_label
_atom_site_fract_x
_atom_site_fract_y
_atom_site_fract_z
Si Si1 0.516707 0.866771 0.202273
Si Si2 0.226433 0.403337 0.108694
Si Si3 0.864093 0.644699 0.714455
Si Si4 0.501902 0.150782 0.361941
Si Si5 0.406173 0.257257 0.553662
Si Si6 0.751712 0.099408 0.942237
Si Si7 0.751908 0.394541 0.274291
O O1 0.563490 0.803552 0.161894
O O2 0.593901 0.905693 0.239211
O O3 0.454362 0.800117 0.235020
O O4 0.450057 0.950057 0.184294
O O5 0.148806 0.324103 0.100080
O O6 0.232643 0.498240 0.078772
O O7 0.873165 0.754940 0.715735
O O8 0.910735 0.611823 0.665223
O O9 0.476737 0.220975 0.404138
O O10 0.551850 0.203043 0.318186
O O11 0.568173 0.068173 0.378645
O O12 0.333759 0.342757 0.557836
O O13 0.446389 0.250000 0.500000
O O14 0.848110 0.151891 0.928667
O O15 0.669574 0.169574 0.927455
O O16 0.750000 0.094209 0.000000
O O17 0.675312 0.324689 0.294514
O O18 0.832290 0.332290 0.251237
#
# Coordination Sequence:
#
# PCOD9563188 Si02
#       7
#    16  16  16  16  16  16  16
#     4  11  22  38  58  83 116 158 210 258 304 365
#     4  11  25  42  59  89 134 176 214 262 326 393
#     4  11  21  35  53  78 115 155 193 240 305 366
#     4  11  21  35  56  85 112 142 193 243 289 351
#     4   9  19  38  59  78 106 143 182 225 286 355
#     4   9  20  42  71 100 128 163 216 278 332 388
#     4   9  20  38  56  77 110 151 193 240 292 352
#
# _framework density 19.195997999999999
#
# number of rings (size 3 to 8) (size 9 to 14) (size 15 to 20)
#    0.000    1.857    1.429    3.429    0.000    4.571 
#    0.000    5.714    0.000    0.000    0.000    0.000 
#    0.000    0.000    0.000    0.000    0.000    0.000 
#
# Total GULP energy -624244.123191 kJ/mol
# GULP energy per Si atom -5573.608243 kJ/mol
# Density = 1.915231 g / cm^3
# Si number density = 19.195998 Si / 1000 Ang^3
#
#
#
# Elastic Constant Matrix: (Units=GPa)
#
#
# Indices 1 2 3 4 5 6 
#
# 1 103.9008 43.6594 33.3791 0.0000 0.0000 0.0000
# 2 43.6594 103.9008 33.3791 0.0000 0.0000 0.0000
# 3 33.3791 33.3791 62.1933 0.0000 0.0000 0.0000
# 4 0.0000 0.0000 0.0000 8.3674 0.0000 0.0000
# 5 0.0000 0.0000 0.0000 0.0000 8.3674 0.0000
# 6 0.0000 0.0000 0.0000 0.0000 0.0000 19.5339
#
#
#
# Elastic Compliance Matrix: (Units=1/GPa)
#
#
# Indices 1 2 3 4 5 6 
#
# 1 0.012775 -0.003825 -0.004803 0.000000 0.000000 0.000000
# 2 -0.003825 0.012775 -0.004803 0.000000 0.000000 0.000000
# 3 -0.004803 -0.004803 0.021235 0.000000 0.000000 0.000000
# 4 0.000000 0.000000 0.000000 0.119512 0.000000 0.000000
# 5 0.000000 0.000000 0.000000 0.000000 0.119512 0.000000
# 6 0.000000 0.000000 0.000000 0.000000 0.000000 0.051193
#
#
# Mechanical properties :
#
#
# Convention : Reuss Voigt Hill
#
# Bulk Modulus (GPa) = 50.19800 54.53670 52.36735
# Shear Modulus (GPa) = 13.49507 17.89221 15.69364
#
# Velocity S-wave (km/s) = 2.65432 3.05631 2.86238
# Velocity P-wave (km/s) = 5.96665 6.39741 6.18578
#
# Compressibility (1/GPa) = 0.01992111
#
# Stress axis : x y z
#
# Youngs Moduli (GPa) = 78.27805 78.27805 47.09212
#
# Poissons Ratio (x) = 0.29941 0.22621
# Poissons Ratio (y) = 0.29941 0.22621
# Poissons Ratio (z) = 0.37601 0.37601
#
# Static dielectric constant tensor:
#      x y z
#    x 1.713140 0.000000 0.000000 
#    y 0.000000 1.713140 0.000000 
#    z 0.000000 0.000000 1.665460 
# 
# From -- ./inp_files/6235.got.cif
#   From: 2010.05.17/outbox.cif.g08.bks.cpg/sg125_4_cif.got.tgz:6235.got - 2010.05.20 11:54:10.
