data_PCOD9563028
_publ_section_title
;
Structure prediction by ZEFSAII (Michael W. Deem and Ramdas Pophale) SiO2 
 PCOD9563028
Probable space group: P 4/N B M
;
_chemical_formula_sum "Si O2"
_cell_formula_units_Z 96
_cell_length_a 19.984606
_cell_length_b 19.984606
_cell_length_c 12.227868
_cell_angle_alpha 90.000000
_cell_angle_beta 90.000000
_cell_angle_gamma 90.000000
_cell_volume 4883.620666
_symmetry_space_group_name_H-M "P 4/N B M"
_symmetry_group_IT_number 125
_space_group.IT_coordinate_system_code '2'
_symmetry_cell_setting 'tetragonal'
loop_
_space_group_symop_operation_xyz
x,y,z
1/2-y,x,z
1/2-x,1/2-y,z
y,1/2-x,z
x,1/2-y,-z
1/2-x,y,-z
y,x,-z
1/2-y,1/2-x,-z
-x,-y,-z
1/2+y,-x,-z
1/2+x,1/2+y,-z
-y,1/2+x,-z
-x,1/2+y,z
1/2+x,-y,z
-y,-x,z
1/2+y,1/2+x,z
loop_
_atom_site_type_symbol
_atom_site_label
_atom_site_fract_x
_atom_site_fract_y
_atom_site_fract_z
Si Si1 0.001409 0.106694 0.336997
Si Si2 0.934010 0.323924 0.456823
Si Si3 0.248852 0.642970 0.868039
Si Si4 0.289676 0.493041 0.852650
Si Si5 0.839863 0.936796 0.939806
Si Si6 0.504906 0.893883 0.720961
O O1 0.064450 0.058168 0.350108
O O2 0.975320 0.138462 0.448297
O O3 0.019363 0.163849 0.250294
O O4 0.940833 0.059168 0.293608
O O5 0.921020 0.250000 0.500000
O O6 0.865908 0.365908 0.441007
O O7 0.979074 0.330367 0.347664
O O8 0.311710 0.688291 0.829078
O O9 0.181574 0.681574 0.831711
O O10 0.256626 0.565857 0.838740
O O11 0.250000 0.645630 0.000000
O O12 0.233747 0.437214 0.882805
O O13 0.333858 0.491834 0.963726
O O14 0.883510 0.961976 0.838641
O O15 0.872375 0.872375 0.000000
O O16 0.440970 0.940970 0.734997
#
# Coordination Sequence:
#
# PCOD9563028 Si02
#       6
#    16  16  16  16  16  16
#     4  10  20  36  60  88 117 150 192 245 302 352
#     4  10  21  39  61  85 116 155 199 242 291 351
#     4   9  17  30  48  72 107 150 193 231 269 331
#     4  11  21  36  57  81 116 159 193 240 288 359
#     4  11  22  36  52  81 116 152 192 239 292 356
#     4  10  21  36  57  86 118 148 191 246 299 354
#
# _framework density 19.657544999999999
#
# number of rings (size 3 to 8) (size 9 to 14) (size 15 to 20)
#    0.000    1.833    3.333    2.500    0.000    4.500 
#    0.000    0.833    0.000    5.000    0.000    0.000 
#    0.000    2.667    0.000    0.000    0.000    0.000 
#
# Total GULP energy -535362.982102 kJ/mol
# GULP energy per Si atom -5576.697730 kJ/mol
# Density = 1.961280 g / cm^3
# Si number density = 19.657545 Si / 1000 Ang^3
#
#
#
# Elastic Constant Matrix: (Units=GPa)
#
#
# Indices 1 2 3 4 5 6 
#
# 1 91.6045 57.0405 37.9312 0.0000 0.0000 0.0000
# 2 57.0405 91.6045 37.9312 0.0000 0.0000 0.0000
# 3 37.9312 37.9312 75.5370 0.0000 0.0000 0.0000
# 4 0.0000 0.0000 0.0000 28.7246 0.0000 0.0000
# 5 0.0000 0.0000 0.0000 0.0000 28.7246 0.0000
# 6 0.0000 0.0000 0.0000 0.0000 0.0000 19.4005
#
#
#
# Elastic Compliance Matrix: (Units=1/GPa)
#
#
# Indices 1 2 3 4 5 6 
#
# 1 0.018989 -0.009943 -0.004542 0.000000 0.000000 0.000000
# 2 -0.009943 0.018989 -0.004542 0.000000 0.000000 0.000000
# 3 -0.004542 -0.004542 0.017800 0.000000 0.000000 0.000000
# 4 0.000000 0.000000 0.000000 0.034813 0.000000 0.000000
# 5 0.000000 0.000000 0.000000 0.000000 0.034813 0.000000
# 6 0.000000 0.000000 0.000000 0.000000 0.000000 0.051545
#
#
# Mechanical properties :
#
#
# Convention : Reuss Voigt Hill
#
# Bulk Modulus (GPa) = 56.42552 58.28355 57.35453
# Shear Modulus (GPa) = 22.63340 23.75950 23.19645
#
# Velocity S-wave (km/s) = 3.39689 3.48037 3.43888
# Velocity P-wave (km/s) = 6.64467 6.77233 6.70880
#
# Compressibility (1/GPa) = 0.01772248
#
# Stress axis : x y z
#
# Youngs Moduli (GPa) = 52.66285 52.66285 56.17844
#
# Poissons Ratio (x) = 0.52363 0.25518
# Poissons Ratio (y) = 0.52363 0.25518
# Poissons Ratio (z) = 0.23921 0.23921
#
# Static dielectric constant tensor:
#      x y z
#    x 1.718130 0.000000 0.000000 
#    y 0.000000 1.718130 0.000000 
#    z 0.000000 0.000000 1.718700 
# 
# From -- ./inp_files/4117.got.cif
#   From: 2010.05.17/outbox.cif.g08.bks.cpg/sg125_3_cif.got.tgz:4117.got - 2010.05.20 11:54:10.
