data_PCOD9563645
_publ_section_title
;
Structure prediction by ZEFSAII (Michael W. Deem and Ramdas Pophale) SiO2 
 PCOD9563645
Probable space group: P 4/N N C
;
_chemical_formula_sum "Si O2"
_cell_formula_units_Z 48
_cell_length_a 14.765991
_cell_length_b 14.765991
_cell_length_c 8.952480
_cell_angle_alpha 90.000000
_cell_angle_beta 90.000000
_cell_angle_gamma 90.000000
_cell_volume 1951.949413
_symmetry_space_group_name_H-M "P 4/N N C"
_symmetry_group_IT_number 126
_space_group.IT_coordinate_system_code '2'
_symmetry_cell_setting 'tetragonal'
loop_
_space_group_symop_operation_xyz
x,y,z
1/2-y,x,z
1/2-x,1/2-y,z
y,1/2-x,z
x,1/2-y,1/2-z
1/2-x,y,1/2-z
y,x,1/2-z
1/2-y,1/2-x,1/2-z
-x,-y,-z
1/2+y,-x,-z
1/2+x,1/2+y,-z
-y,1/2+x,-z
-x,1/2+y,1/2+z
1/2+x,-y,1/2+z
-y,-x,1/2+z
1/2+y,1/2+x,1/2+z
loop_
_atom_site_type_symbol
_atom_site_label
_atom_site_fract_x
_atom_site_fract_y
_atom_site_fract_z
Si Si1 0.665869 0.633337 0.070840
Si Si2 0.316847 0.616500 0.539369
Si Si3 0.083511 0.546295 0.671624
O O1 0.769832 0.628213 0.015535
O O2 0.653190 0.653190 0.250000
O O3 0.622304 0.533853 0.065105
O O4 0.213745 0.635123 0.495141
O O5 0.344664 0.578822 0.701267
O O6 0.366953 0.554102 0.420901
O O7 0.998953 0.501048 0.750000
#
# Coordination Sequence:
#
# PCOD9563645 Si02
#       3
#    16  16  16
#     4   8  16  30  54  86 113 146 191 245 300 342
#     4  11  25  42  62  88 125 169 206 250 308 367
#     4  11  23  39  63  94 119 158 206 260 306 357
#
# _framework density 24.590803000000001
#
# number of rings (size 3 to 8) (size 9 to 14) (size 15 to 20)
#    0.000    2.000    0.000    4.000   18.667    2.667 
#    0.000    0.000    0.000    0.000    0.000    0.000 
#    0.000   10.667    0.000    0.000    0.000    0.000 
#
# Total GULP energy -267732.055557 kJ/mol
# GULP energy per Si atom -5577.751157 kJ/mol
# Density = 2.453483 g / cm^3
# Si number density = 24.590803 Si / 1000 Ang^3
#
#
#
# Elastic Constant Matrix: (Units=GPa)
#
#
# Indices 1 2 3 4 5 6 
#
# 1 109.3464 36.7660 27.6253 0.0000 0.0000 0.0000
# 2 36.7660 109.3439 27.6258 0.0000 0.0000 0.0000
# 3 27.6253 27.6258 51.1210 0.0000 0.0000 0.0000
# 4 0.0000 0.0000 0.0000 26.4616 0.0000 0.0000
# 5 0.0000 0.0000 0.0000 0.0000 26.4618 0.0000
# 6 0.0000 0.0000 0.0000 0.0000 0.0000 18.7572
#
#
#
# Elastic Compliance Matrix: (Units=1/GPa)
#
#
# Indices 1 2 3 4 5 6 
#
# 1 0.011190 -0.002588 -0.004648 0.000000 0.000000 0.000000
# 2 -0.002588 0.011190 -0.004649 0.000000 0.000000 0.000000
# 3 -0.004648 -0.004649 0.024585 0.000000 0.000000 0.000000
# 4 0.000000 0.000000 0.000000 0.037791 0.000000 0.000000
# 5 0.000000 0.000000 0.000000 0.000000 0.037790 0.000000
# 6 0.000000 0.000000 0.000000 0.000000 0.000000 0.053313
#
#
# Mechanical properties :
#
#
# Convention : Reuss Voigt Hill
#
# Bulk Modulus (GPa) = 43.11184 50.42728 46.76956
# Shear Modulus (GPa) = 24.11258 26.18908 25.15083
#
# Velocity S-wave (km/s) = 3.13477 3.26697 3.20155
# Velocity P-wave (km/s) = 5.53825 5.89761 5.72075
#
# Compressibility (1/GPa) = 0.02319548
#
# Stress axis : x y z
#
# Youngs Moduli (GPa) = 89.36719 89.36431 40.67458
#
# Poissons Ratio (x) = 0.23128 0.18907
# Poissons Ratio (y) = 0.23129 0.18908
# Poissons Ratio (z) = 0.41540 0.41542
#
# Static dielectric constant tensor:
#      x y z
#    x 2.047970 0.000000 0.000000 
#    y 0.000000 2.047970 0.000000 
#    z 0.000000 0.000000 2.025320 
# 
# From -- ./inp_files/2292.got.cif
#   From: 2010.05.17/outbox.cif.g08.bks.cpg/sg126_2_cif.got.tgz:2292.got - 2010.05.20 11:58:20.
