data_PCOD9563521
_publ_section_title
;
Structure prediction by ZEFSAII (Michael W. Deem and Ramdas Pophale) SiO2 
 PCOD9563521
Probable space group: P 4/N N C
;
_chemical_formula_sum "Si O2"
_cell_formula_units_Z 96
_cell_length_a 14.058720
_cell_length_b 14.058720
_cell_length_c 21.923716
_cell_angle_alpha 90.000000
_cell_angle_beta 90.000000
_cell_angle_gamma 90.000000
_cell_volume 4333.170027
_symmetry_space_group_name_H-M "P 4/N N C"
_symmetry_group_IT_number 126
_space_group.IT_coordinate_system_code '2'
_symmetry_cell_setting 'tetragonal'
loop_
_space_group_symop_operation_xyz
x,y,z
1/2-y,x,z
1/2-x,1/2-y,z
y,1/2-x,z
x,1/2-y,1/2-z
1/2-x,y,1/2-z
y,x,1/2-z
1/2-y,1/2-x,1/2-z
-x,-y,-z
1/2+y,-x,-z
1/2+x,1/2+y,-z
-y,1/2+x,-z
-x,1/2+y,1/2+z
1/2+x,-y,1/2+z
-y,-x,1/2+z
1/2+y,1/2+x,1/2+z
loop_
_atom_site_type_symbol
_atom_site_label
_atom_site_fract_x
_atom_site_fract_y
_atom_site_fract_z
Si Si1 0.270488 0.405886 0.894464
Si Si2 0.644075 0.980585 0.509036
Si Si3 0.764059 0.139339 0.912086
Si Si4 0.342141 0.643977 0.221438
Si Si5 0.518768 0.607181 0.298669
Si Si6 0.071036 0.985835 0.407868
O O1 0.171441 0.354112 0.884481
O O2 0.298995 0.481360 0.842311
O O3 0.274396 0.436289 0.965576
O O4 0.679818 0.078494 0.538209
O O5 0.568927 0.006934 0.457079
O O6 0.591172 0.920454 0.562306
O O7 0.750000 0.250000 0.928778
O O8 0.825604 0.143862 0.850217
O O9 0.667310 0.077234 0.901278
O O10 0.342779 0.750000 0.250000
O O11 0.250000 0.593740 0.250000
O O12 0.435204 0.601192 0.249632
O O13 0.605265 0.605265 0.250000
O O14 0.490832 0.524276 0.346723
#
# Coordination Sequence:
#
# PCOD9563521 Si02
#       6
#    16  16  16  16  16  16
#     4  10  23  44  65  92 128 173 225 277 331 412
#     4  10  23  40  62  91 132 173 217 282 339 396
#     4  12  23  39  67  98 130 175 231 280 341 425
#     4  11  21  41  58  87 132 168 209 268 336 399
#     4  11  23  38  64  93 127 172 216 274 337 400
#     4  10  22  41  56  93 132 166 219 273 341 400
#
# _framework density 22.154682000000001
#
# number of rings (size 3 to 8) (size 9 to 14) (size 15 to 20)
#    0.000    1.333    3.333    2.000    4.667    0.000 
#    6.000    0.833    0.000    0.000    0.000    0.000 
#    0.000    0.333    0.000    0.000    0.000    0.000 
#
# Total GULP energy -535174.307246 kJ/mol
# GULP energy per Si atom -5574.732367 kJ/mol
# Density = 2.210426 g / cm^3
# Si number density = 22.154682 Si / 1000 Ang^3
#
#
#
# Elastic Constant Matrix: (Units=GPa)
#
#
# Indices 1 2 3 4 5 6 
#
# 1 57.9588 22.6792 45.4743 0.0000 0.0000 0.0000
# 2 22.6792 57.9588 45.4743 0.0000 0.0000 0.0000
# 3 45.4743 45.4743 167.6202 0.0000 0.0000 0.0000
# 4 0.0000 0.0000 0.0000 36.7635 0.0000 0.0000
# 5 0.0000 0.0000 0.0000 0.0000 36.7635 0.0000
# 6 0.0000 0.0000 0.0000 0.0000 0.0000 18.4502
#
#
#
# Elastic Compliance Matrix: (Units=1/GPa)
#
#
# Indices 1 2 3 4 5 6 
#
# 1 0.023107 -0.005238 -0.004848 0.000000 0.000000 0.000000
# 2 -0.005238 0.023107 -0.004848 0.000000 0.000000 0.000000
# 3 -0.004848 -0.004848 0.008596 0.000000 0.000000 0.000000
# 4 0.000000 0.000000 0.000000 0.027201 0.000000 0.000000
# 5 0.000000 0.000000 0.000000 0.000000 0.027201 0.000000
# 6 0.000000 0.000000 0.000000 0.000000 0.000000 0.054200
#
#
# Mechanical properties :
#
#
# Convention : Reuss Voigt Hill
#
# Bulk Modulus (GPa) = 40.09182 56.75481 48.42332
# Shear Modulus (GPa) = 24.80247 29.72276 27.26262
#
# Velocity S-wave (km/s) = 3.34954 3.66676 3.51174
# Velocity P-wave (km/s) = 5.75281 6.60303 6.19253
#
# Compressibility (1/GPa) = 0.02494274
#
# Stress axis : x y z
#
# Youngs Moduli (GPa) = 43.27730 43.27730 116.33149
#
# Poissons Ratio (x) = 0.22670 0.56393
# Poissons Ratio (y) = 0.22670 0.56393
# Poissons Ratio (z) = 0.20979 0.20979
#
# Static dielectric constant tensor:
#      x y z
#    x 1.964060 0.000000 0.000000 
#    y 0.000000 1.964060 0.000000 
#    z 0.000000 0.000000 1.925460 
# 
# From -- ./inp_files/5225.got.cif
#   From: 2010.05.17/outbox.cif.g08.bks.cpg/sg126_3_cif.got.tgz:5225.got - 2010.05.20 11:58:20.
