data_PCOD9563543
_publ_section_title
;
Structure prediction by ZEFSAII (Michael W. Deem and Ramdas Pophale) SiO2 
 PCOD9563543
Probable space group: P 4/N N C
;
_chemical_formula_sum "Si O2"
_cell_formula_units_Z 112
_cell_length_a 14.058616
_cell_length_b 14.058616
_cell_length_c 24.728953
_cell_angle_alpha 90.000000
_cell_angle_beta 90.000000
_cell_angle_gamma 90.000000
_cell_volume 4887.546097
_symmetry_space_group_name_H-M "P 4/N N C"
_symmetry_group_IT_number 126
_space_group.IT_coordinate_system_code '2'
_symmetry_cell_setting 'tetragonal'
loop_
_space_group_symop_operation_xyz
x,y,z
1/2-y,x,z
1/2-x,1/2-y,z
y,1/2-x,z
x,1/2-y,1/2-z
1/2-x,y,1/2-z
y,x,1/2-z
1/2-y,1/2-x,1/2-z
-x,-y,-z
1/2+y,-x,-z
1/2+x,1/2+y,-z
-y,1/2+x,-z
-x,1/2+y,1/2+z
1/2+x,-y,1/2+z
-y,-x,1/2+z
1/2+y,1/2+x,1/2+z
loop_
_atom_site_type_symbol
_atom_site_label
_atom_site_fract_x
_atom_site_fract_y
_atom_site_fract_z
Si Si1 0.529485 0.985412 0.145728
Si Si2 0.005343 0.210627 0.358373
Si Si3 0.680615 0.178355 0.895348
Si Si4 0.513133 0.135091 0.274451
Si Si5 0.094309 0.985149 0.963363
Si Si6 0.912852 0.186405 0.800559
Si Si7 0.597459 0.727978 0.529534
O O1 0.499335 0.096250 0.136475
O O2 0.628268 0.997903 0.176494
O O3 0.441126 0.947135 0.180876
O O4 0.544566 0.928717 0.090845
O O5 0.900758 0.251520 0.369443
O O6 0.029505 0.272968 0.305241
O O7 0.074408 0.237073 0.407394
O O8 0.750000 0.250000 0.926330
O O9 0.615205 0.117962 0.935568
O O10 0.632011 0.245790 0.848007
O O11 0.599415 0.146153 0.230586
O O12 0.426512 0.073489 0.250000
O O13 0.189253 0.008582 0.996685
O O14 0.000000 0.000000 0.000000
O O15 0.938477 0.250000 0.750000
O O16 0.673337 0.645746 0.515448
#
# Coordination Sequence:
#
# PCOD9563543 Si02
#       7
#    16  16  16  16  16  16  16
#     4  11  23  40  69 104 148 203 246 309 404 472
#     4  12  21  43  68 105 152 190 255 314 388 472
#     4  12  26  44  72 116 149 195 254 330 382 465
#     4  10  23  41  67 104 151 206 251 316 404 467
#     4  12  25  50  74 105 152 199 248 325 405 459
#     4  11  22  41  67 104 153 197 251 314 390 460
#     4  11  26  46  73  98 135 199 255 312 379 465
#
# _framework density 22.915386000000002
#
# number of rings (size 3 to 8) (size 9 to 14) (size 15 to 20)
#    0.000    0.714    5.714    1.714    2.000    3.714 
#    2.571    0.000    0.000    0.000    0.000    3.000 
#    0.000    0.000    0.000    0.000    0.000    0.000 
#
# Total GULP energy -624383.394524 kJ/mol
# GULP energy per Si atom -5574.851737 kJ/mol
# Density = 2.286323 g / cm^3
# Si number density = 22.915386 Si / 1000 Ang^3
#
#
#
# Elastic Constant Matrix: (Units=GPa)
#
#
# Indices 1 2 3 4 5 6 
#
# 1 75.4653 31.2881 26.9057 0.0000 0.0000 0.0000
# 2 31.2881 75.4659 26.9057 0.0000 0.0000 0.0000
# 3 26.9057 26.9057 112.1650 0.0000 0.0000 0.0000
# 4 0.0000 0.0000 0.0000 43.6740 0.0000 0.0000
# 5 0.0000 0.0000 0.0000 0.0000 43.6740 0.0000
# 6 0.0000 0.0000 0.0000 0.0000 0.0000 37.3262
#
#
#
# Elastic Compliance Matrix: (Units=1/GPa)
#
#
# Indices 1 2 3 4 5 6 
#
# 1 0.016646 -0.005990 -0.002556 0.000000 0.000000 0.000000
# 2 -0.005990 0.016646 -0.002556 0.000000 0.000000 0.000000
# 3 -0.002556 -0.002556 0.010142 0.000000 0.000000 0.000000
# 4 0.000000 0.000000 0.000000 0.022897 0.000000 0.000000
# 5 0.000000 0.000000 0.000000 0.000000 0.022897 0.000000
# 6 0.000000 0.000000 0.000000 0.000000 0.000000 0.026791
#
#
# Mechanical properties :
#
#
# Convention : Reuss Voigt Hill
#
# Bulk Modulus (GPa) = 47.10531 48.14391 47.62461
# Shear Modulus (GPa) = 34.41182 36.80129 35.60656
#
# Velocity S-wave (km/s) = 3.87937 4.01180 3.94614
# Velocity P-wave (km/s) = 6.37705 6.52031 6.44908
#
# Compressibility (1/GPa) = 0.02122903
#
# Stress axis : x y z
#
# Youngs Moduli (GPa) = 60.07469 60.07524 98.60263
#
# Poissons Ratio (x) = 0.35985 0.25204
# Poissons Ratio (y) = 0.35985 0.25203
# Poissons Ratio (z) = 0.15356 0.15356
#
# Static dielectric constant tensor:
#      x y z
#    x 1.890850 0.000000 0.000000 
#    y 0.000000 1.890850 0.000000 
#    z 0.000000 0.000000 1.971910 
# 
# From -- ./inp_files/5845.got.cif
#   From: 2010.05.17/outbox.cif.g08.bks.cpg/sg126_3_cif.got.tgz:5845.got - 2010.05.20 11:58:20.
