data_PCOD9563910
_publ_section_title
;
Structure prediction by ZEFSAII (Michael W. Deem and Ramdas Pophale) SiO2 
 PCOD9563910
Probable space group: P 4/M B M
;
_chemical_formula_sum "Si O2"
_cell_formula_units_Z 72
_cell_length_a 20.909152
_cell_length_b 20.909152
_cell_length_c 10.077016
_cell_angle_alpha 90.000000
_cell_angle_beta 90.000000
_cell_angle_gamma 90.000000
_cell_volume 4405.597202
_symmetry_space_group_name_H-M "P 4/M B M"
_symmetry_group_IT_number 127
_symmetry_cell_setting 'tetragonal'
loop_
_space_group_symop_operation_xyz
x,y,z
-y,x,z
-x,-y,z
y,-x,z
1/2+x,1/2-y,-z
1/2-x,1/2+y,-z
1/2+y,1/2+x,-z
1/2-y,1/2-x,-z
-x,-y,-z
y,-x,-z
x,y,-z
-y,x,-z
1/2-x,1/2+y,z
1/2+x,1/2-y,z
1/2-y,1/2-x,z
1/2+y,1/2+x,z
loop_
_atom_site_type_symbol
_atom_site_label
_atom_site_fract_x
_atom_site_fract_y
_atom_site_fract_z
Si Si1 0.794662 0.185989 0.500000
Si Si2 0.580891 0.190946 0.500000
Si Si3 0.159572 0.118158 0.000000
Si Si4 0.305787 0.471792 0.000000
Si Si5 0.502573 0.105003 0.000000
Si Si6 0.293512 0.000390 0.231798
Si Si7 0.856189 0.246936 0.251203
O O1 0.738253 0.238253 0.500000
O O2 0.758005 0.119382 0.500000
O O3 0.836122 0.201842 0.372122
O O4 0.632025 0.132025 0.500000
O O5 0.539655 0.191258 0.635787
O O6 0.089424 0.148574 0.000000
O O7 0.201704 0.141248 0.123910
O O8 0.159325 0.040769 0.000000
O O9 0.261717 0.471870 0.866302
O O10 0.496015 0.146922 0.868248
O O11 0.570777 0.070777 0.000000
O O12 0.448222 0.051779 0.000000
O O13 0.274692 0.072742 0.269941
O O14 0.804387 0.304387 0.238513
#
# Coordination Sequence:
#
# PCOD9563910 Si02
#       7
#     8   8   8   8   8  16  16
#     4   9  19  32  48  71  99 129 162 205 254 299
#     4  11  21  34  51  74 105 137 167 204 254 310
#     4  10  19  33  52  76 102 130 166 205 251 308
#     4   9  20  34  52  76 102 133 168 208 256 305
#     4  10  20  35  52  71 100 138 176 214 260 314
#     4  10  20  34  53  75 102 134 172 214 256 304
#     4  10  19  33  53  75  98 128 168 212 254 295
#
# _framework density 16.342846999999999
#
# number of rings (size 3 to 8) (size 9 to 14) (size 15 to 20)
#    0.000    2.111    0.000    4.333    0.000    0.222 
#    0.000    7.222    0.000    4.000    0.000    0.000 
#    0.000   16.000    0.000    0.000    0.000    0.000 
#
# Total GULP energy -401402.835728 kJ/mol
# GULP energy per Si atom -5575.039385 kJ/mol
# Density = 1.630565 g / cm^3
# Si number density = 16.342847 Si / 1000 Ang^3
#
#
#
# Elastic Constant Matrix: (Units=GPa)
#
#
# Indices 1 2 3 4 5 6 
#
# 1 93.8821 66.7445 66.8197 0.0000 0.0000 0.0000
# 2 66.7445 93.8802 66.8189 0.0000 0.0000 0.0000
# 3 66.8197 66.8189 158.2164 0.0000 0.0000 0.0000
# 4 0.0000 0.0000 0.0000 -3.9860 0.0000 0.0000
# 5 0.0000 0.0000 0.0000 0.0000 -3.9979 0.0000
# 6 0.0000 0.0000 0.0000 0.0000 0.0000 27.5489
#
#
#
# Elastic Compliance Matrix: (Units=1/GPa)
#
#
# Indices 1 2 3 4 5 6 
#
# 1 0.023224 -0.013626 -0.004054 0.000000 0.000000 0.000000
# 2 -0.013626 0.023225 -0.004054 0.000000 0.000000 0.000000
# 3 -0.004054 -0.004054 0.009744 0.000000 0.000000 0.000000
# 4 0.000000 0.000000 0.000000 -0.250879 0.000000 0.000000
# 5 0.000000 0.000000 0.000000 0.000000 -0.250128 0.000000
# 6 0.000000 0.000000 0.000000 0.000000 0.000000 0.036299
#
#
# Mechanical properties :
#
#
# Convention : Reuss Voigt Hill
#
# Bulk Modulus (GPa) = 78.57698 82.97166 80.77432
# Shear Modulus (GPa) = -13.85784 13.61938 -0.11923
#
# Velocity S-wave (km/s) = -2.91511 2.88992 -0.27040
# Velocity P-wave (km/s) = 6.07077 7.87497 7.03098
#
# Compressibility (1/GPa) = 0.01272637
#
# Stress axis : x y z
#
# Youngs Moduli (GPa) = 43.05869 43.05784 102.62355
#
# Poissons Ratio (x) = 0.58671 0.41599
# Poissons Ratio (y) = 0.58672 0.41599
# Poissons Ratio (z) = 0.17454 0.17454
#
# Static dielectric constant tensor:
#      x y z
#    x 1.538450 0.000000 0.000000 
#    y 0.000000 1.538450 0.000000 
#    z 0.000000 0.000000 1.553320 
# 
# From -- ./inp_files/1703.got.cif
#   From: 2010.05.17/outbox.cif.g08.bks.cpg/sg127_1_cif.got.tgz:1703.got - 2010.05.20 12:03:00.
