data_PCOD9563532
_publ_section_title
;
Structure prediction by ZEFSAII (Michael W. Deem and Ramdas Pophale) SiO2 
 PCOD9563532
Probable space group: P 4/N N C
;
_chemical_formula_sum "Si O2"
_cell_formula_units_Z 112
_cell_length_a 15.224637
_cell_length_b 15.224637
_cell_length_c 22.957417
_cell_angle_alpha 90.000000
_cell_angle_beta 90.000000
_cell_angle_gamma 90.000000
_cell_volume 5321.289856
_symmetry_space_group_name_H-M "P 4/N N C"
_symmetry_group_IT_number 126
_space_group.IT_coordinate_system_code '2'
_symmetry_cell_setting 'tetragonal'
loop_
_space_group_symop_operation_xyz
x,y,z
1/2-y,x,z
1/2-x,1/2-y,z
y,1/2-x,z
x,1/2-y,1/2-z
1/2-x,y,1/2-z
y,x,1/2-z
1/2-y,1/2-x,1/2-z
-x,-y,-z
1/2+y,-x,-z
1/2+x,1/2+y,-z
-y,1/2+x,-z
-x,1/2+y,1/2+z
1/2+x,-y,1/2+z
-y,-x,1/2+z
1/2+y,1/2+x,1/2+z
loop_
_atom_site_type_symbol
_atom_site_label
_atom_site_fract_x
_atom_site_fract_y
_atom_site_fract_z
Si Si1 0.246146 0.939412 0.618211
Si Si2 0.219898 0.511327 0.011378
Si Si3 0.099865 0.808888 0.869571
Si Si4 0.955016 0.580479 0.964259
Si Si5 0.233836 0.103487 0.815575
Si Si6 0.477389 0.149036 0.266855
Si Si7 0.396448 0.562865 0.153040
O O1 0.307419 0.858164 0.636564
O O2 0.153081 0.946767 0.649350
O O3 0.219174 0.940885 0.550615
O O4 0.290982 0.029057 0.638237
O O5 0.189857 0.576922 0.062358
O O6 0.148343 0.434288 0.022115
O O7 0.320559 0.480658 0.017722
O O8 0.092503 0.705762 0.854735
O O9 0.025809 0.855807 0.829086
O O10 0.993879 0.578505 0.897948
O O11 0.000000 0.500000 0.000000
O O12 0.323666 0.158247 0.822630
O O13 0.250000 0.067027 0.750000
O O14 0.486901 0.250000 0.250000
O O15 0.378394 0.121607 0.250000
O O16 0.525822 0.093085 0.217257
#
# Coordination Sequence:
#
# PCOD9563532 Si02
#       7
#    16  16  16  16  16  16  16
#     4  12  24  38  67  95 124 178 224 267 334 402
#     4  11  25  40  66  93 131 177 218 274 336 394
#     4  10  24  43  61  97 131 167 221 277 329 410
#     4  11  22  44  63  94 136 171 222 278 327 403
#     4   9  22  43  62  89 131 171 216 273 327 391
#     4  10  22  42  68  96 131 170 214 277 339 404
#     4  10  23  42  66  94 132 171 214 279 342 386
#
# _framework density 21.047529000000001
#
# number of rings (size 3 to 8) (size 9 to 14) (size 15 to 20)
#    0.000    1.571    1.429    2.571    6.000    2.714 
#    0.000    2.143    0.000    5.143    0.000    0.000 
#    0.000    0.000    0.000    0.000    0.000    0.000 
#
# Total GULP energy -623855.108017 kJ/mol
# GULP energy per Si atom -5570.134893 kJ/mol
# Density = 2.099962 g / cm^3
# Si number density = 21.047529 Si / 1000 Ang^3
#
#
#
# Elastic Constant Matrix: (Units=GPa)
#
#
# Indices 1 2 3 4 5 6 
#
# 1 52.9660 44.3456 30.0673 0.0000 0.0000 0.0000
# 2 44.3456 52.9573 30.0650 0.0000 0.0000 0.0000
# 3 30.0673 30.0650 90.2113 0.0000 0.0000 0.0000
# 4 0.0000 0.0000 0.0000 24.5495 0.0000 0.0000
# 5 0.0000 0.0000 0.0000 0.0000 24.5505 0.0000
# 6 0.0000 0.0000 0.0000 0.0000 0.0000 29.2492
#
#
#
# Elastic Compliance Matrix: (Units=1/GPa)
#
#
# Indices 1 2 3 4 5 6 
#
# 1 0.064497 -0.051560 -0.004313 0.000000 0.000000 0.000000
# 2 -0.051560 0.064508 -0.004314 0.000000 0.000000 0.000000
# 3 -0.004313 -0.004314 0.013960 0.000000 0.000000 0.000000
# 4 0.000000 0.000000 0.000000 0.040734 0.000000 0.000000
# 5 0.000000 0.000000 0.000000 0.000000 0.040732 0.000000
# 6 0.000000 0.000000 0.000000 0.000000 0.000000 0.034189
#
#
# Mechanical properties :
#
#
# Convention : Reuss Voigt Hill
#
# Bulk Modulus (GPa) = 44.26541 45.01002 44.63772
# Shear Modulus (GPa) = 12.93576 21.78027 17.35802
#
# Velocity S-wave (km/s) = 2.48180 3.22034 2.87488
# Velocity P-wave (km/s) = 5.41195 5.93792 5.68102
#
# Compressibility (1/GPa) = 0.02259100
#
# Stress axis : x y z
#
# Youngs Moduli (GPa) = 15.50457 15.50200 71.63152
#
# Poissons Ratio (x) = 0.79929 0.30896
# Poissons Ratio (y) = 0.79942 0.30900
# Poissons Ratio (z) = 0.06687 0.06687
#
# Static dielectric constant tensor:
#      x y z
#    x 1.876630 0.000000 0.000000 
#    y 0.000000 1.876620 0.000000 
#    z 0.000000 0.000000 1.795130 
# 
# From -- ./inp_files/5841.got.cif
#   From: 2010.05.17/outbox.cif.g08.bks.cpg/sg126_3_cif.got.tgz:5841.got - 2010.05.20 11:58:20.
