data_PCOD9563990
_publ_section_title
;
Structure prediction by ZEFSAII (Michael W. Deem and Ramdas Pophale) SiO2 
 PCOD9563990
Probable space group: P 4/M B M
;
_chemical_formula_sum "Si O2"
_cell_formula_units_Z 120
_cell_length_a 22.462358
_cell_length_b 22.462358
_cell_length_c 14.662052
_cell_angle_alpha 90.000000
_cell_angle_beta 90.000000
_cell_angle_gamma 90.000000
_cell_volume 7397.848697
_symmetry_space_group_name_H-M "P 4/M B M"
_symmetry_group_IT_number 127
_symmetry_cell_setting 'tetragonal'
loop_
_space_group_symop_operation_xyz
x,y,z
-y,x,z
-x,-y,z
y,-x,z
1/2+x,1/2-y,-z
1/2-x,1/2+y,-z
1/2+y,1/2+x,-z
1/2-y,1/2-x,-z
-x,-y,-z
y,-x,-z
x,y,-z
-y,x,-z
1/2-x,1/2+y,z
1/2+x,1/2-y,z
1/2-y,1/2-x,z
1/2+y,1/2+x,z
loop_
_atom_site_type_symbol
_atom_site_label
_atom_site_fract_x
_atom_site_fract_y
_atom_site_fract_z
Si Si1 0.176299 0.037207 0.605989
Si Si2 0.899644 0.846594 0.394824
Si Si3 0.784477 0.185963 0.253441
Si Si4 0.917735 0.213286 0.790357
Si Si5 0.964626 0.093269 0.890239
Si Si6 0.712203 0.114530 0.895775
Si Si7 0.480604 0.182174 0.890468
Si Si8 0.951543 0.451543 0.888767
O O1 0.197256 0.041321 0.500000
O O2 0.123661 0.085806 0.615794
O O3 0.219544 0.055804 0.688028
O O4 0.156810 0.969683 0.623529
O O5 0.890220 0.829901 0.500000
O O6 0.860009 0.803684 0.332380
O O7 0.737552 0.237552 0.280478
O O8 0.846857 0.211655 0.218429
O O9 0.755184 0.148845 0.171760
O O10 0.942385 0.151245 0.834998
O O11 0.937426 0.268717 0.850151
O O12 0.033659 0.074789 0.870719
O O13 0.960682 0.104190 0.000000
O O14 0.649816 0.149816 0.895730
O O15 0.701560 0.047375 0.866205
O O16 0.734967 0.115185 0.000000
O O17 0.467739 0.115117 0.859443
O O18 0.476724 0.182406 0.000000
O O19 0.000000 0.500000 0.858486
O O20 0.952319 0.452319 0.000000
#
# Coordination Sequence:
#
# PCOD9563990 Si02
#       8
#    16  16  16  16  16  16  16   8
#     4   9  19  33  50  75 104 131 165 207 253 303
#     4   9  18  34  53  74 100 129 161 203 253 302
#     4  10  22  36  49  70 100 132 170 209 249 297
#     4  11  22  32  52  73 101 138 173 211 258 299
#     4   9  20  36  51  72 104 141 182 218 245 285
#     4   9  18  33  51  71  96 129 166 206 250 299
#     4  10  20  32  51  77 101 129 168 208 253 312
#     4   9  18  34  54  76 105 135 163 211 270 319
#
# _framework density 16.220932000000001
#
# number of rings (size 3 to 8) (size 9 to 14) (size 15 to 20)
#    0.000    2.467    0.000    2.000    6.533    3.200 
#    0.000    1.333    0.000    0.000    0.000    0.000 
#    0.000    0.533    0.000    0.000    0.000    0.267 
#
# Total GULP energy -668867.268804 kJ/mol
# GULP energy per Si atom -5573.893907 kJ/mol
# Density = 1.618401 g / cm^3
# Si number density = 16.220932 Si / 1000 Ang^3
#
#
#
# Elastic Constant Matrix: (Units=GPa)
#
#
# Indices 1 2 3 4 5 6 
#
# 1 96.5947 44.1593 35.1615 0.0000 0.0000 0.0000
# 2 44.1593 96.5947 35.1615 0.0000 0.0000 0.0000
# 3 35.1615 35.1615 32.9454 0.0000 0.0000 0.0000
# 4 0.0000 0.0000 0.0000 19.7077 0.0000 0.0000
# 5 0.0000 0.0000 0.0000 0.0000 19.7077 0.0000
# 6 0.0000 0.0000 0.0000 0.0000 0.0000 4.1503
#
#
#
# Elastic Compliance Matrix: (Units=1/GPa)
#
#
# Indices 1 2 3 4 5 6 
#
# 1 0.017146 -0.001925 -0.016244 0.000000 0.000000 0.000000
# 2 -0.001925 0.017146 -0.016244 0.000000 0.000000 0.000000
# 3 -0.016244 -0.016244 0.065027 0.000000 0.000000 0.000000
# 4 0.000000 0.000000 0.000000 0.050742 0.000000 0.000000
# 5 0.000000 0.000000 0.000000 0.000000 0.050742 0.000000
# 6 0.000000 0.000000 0.000000 0.000000 0.000000 0.240946
#
#
# Mechanical properties :
#
#
# Convention : Reuss Voigt Hill
#
# Bulk Modulus (GPa) = 32.79662 50.56663 41.68162
# Shear Modulus (GPa) = 9.60171 16.15664 12.87918
#
# Velocity S-wave (km/s) = 2.43561 3.15943 2.82083
# Velocity P-wave (km/s) = 5.30775 6.67463 6.03004
#
# Compressibility (1/GPa) = 0.03049095
#
# Stress axis : x y z
#
# Youngs Moduli (GPa) = 58.32321 58.32321 15.37814
#
# Poissons Ratio (x) = 0.11229 0.24981
# Poissons Ratio (y) = 0.11229 0.24981
# Poissons Ratio (z) = 0.94742 0.94742
#
# Static dielectric constant tensor:
#      x y z
#    x 1.535350 0.000000 0.000000 
#    y 0.000000 1.535350 0.000000 
#    z 0.000000 0.000000 1.555300 
# 
# From -- ./inp_files/4643.got.cif
#   From: 2010.05.17/outbox.cif.g08.bks.cpg/sg127_3_cif.got.tgz:4643.got - 2010.05.20 12:03:00.
