data_PCOD9563835
_publ_section_title
;
Structure prediction by ZEFSAII (Michael W. Deem and Ramdas Pophale) SiO2 
 PCOD9563835
Probable space group: P 4/M B M
;
_chemical_formula_sum "Si O2"
_cell_formula_units_Z 120
_cell_length_a 28.855788
_cell_length_b 28.855788
_cell_length_c 7.951438
_cell_angle_alpha 90.000000
_cell_angle_beta 90.000000
_cell_angle_gamma 90.000000
_cell_volume 6620.816544
_symmetry_space_group_name_H-M "P 4/M B M"
_symmetry_group_IT_number 127
_symmetry_cell_setting 'tetragonal'
loop_
_space_group_symop_operation_xyz
x,y,z
-y,x,z
-x,-y,z
y,-x,z
1/2+x,1/2-y,-z
1/2-x,1/2+y,-z
1/2+y,1/2+x,-z
1/2-y,1/2-x,-z
-x,-y,-z
y,-x,-z
x,y,-z
-y,x,-z
1/2-x,1/2+y,z
1/2+x,1/2-y,z
1/2-y,1/2-x,z
1/2+y,1/2+x,z
loop_
_atom_site_type_symbol
_atom_site_label
_atom_site_fract_x
_atom_site_fract_y
_atom_site_fract_z
Si Si1 0.160391 0.933046 0.190088
Si Si2 0.462419 0.962419 0.700762
Si Si3 0.966687 0.391217 0.800118
Si Si4 0.968338 0.191233 0.197271
Si Si5 0.436991 0.209766 0.698601
Si Si6 0.763082 0.335723 0.297059
Si Si7 0.434849 0.460134 0.301436
Si Si8 0.662224 0.367349 0.797599
O O1 0.105047 0.939693 0.189303
O O2 0.161959 0.881714 0.269012
O O3 0.178331 0.981140 0.270788
O O4 0.179682 0.930886 0.000000
O O5 0.463049 0.963049 0.500000
O O6 0.483485 0.913752 0.758409
O O7 0.500000 0.000000 0.767060
O O8 0.926790 0.426790 0.733781
O O9 0.959208 0.339916 0.731672
O O10 0.962006 0.389336 0.000000
O O11 0.960608 0.246290 0.213247
O O12 0.920847 0.167786 0.267092
O O13 0.970318 0.178227 0.000000
O O14 0.438487 0.219501 0.500000
O O15 0.383026 0.210191 0.752048
O O16 0.762587 0.334069 0.500000
O O17 0.791319 0.291319 0.234575
O O18 0.710644 0.342254 0.238398
O O19 0.485073 0.438860 0.270016
O O20 0.424335 0.453619 0.500000
O O21 0.656971 0.370279 0.000000
#
# Coordination Sequence:
#
# PCOD9563835 Si02
#       8
#    16   8  16  16  16  16  16  16
#     4  10  19  31  48  68  91 122 157 195 236 280
#     4   9  17  29  45  67  97 131 165 197 225 261
#     4  10  19  30  46  70 100 132 163 194 232 279
#     4   9  18  32  47  66  95 125 155 197 242 287
#     4  10  19  31  48  70  96 126 160 197 238 288
#     4   9  18  32  49  70  96 124 154 191 238 290
#     4   9  18  30  42  60  88 120 154 192 232 274
#     4   9  18  31  47  70  96 122 156 193 236 286
#
# _framework density 18.124652000000001
#
# number of rings (size 3 to 8) (size 9 to 14) (size 15 to 20)
#    0.000    2.600    0.000    2.600    0.000    5.600 
#    0.000    3.333    0.000    0.000    1.733    0.000 
#    0.000    0.000    0.000    0.000    0.000    0.000 
#
# Total GULP energy -668648.950492 kJ/mol
# GULP energy per Si atom -5572.074587 kJ/mol
# Density = 1.808340 g / cm^3
# Si number density = 18.124652 Si / 1000 Ang^3
#
#
#
# Elastic Constant Matrix: (Units=GPa)
#
#
# Indices 1 2 3 4 5 6 
#
# 1 75.9901 66.0651 1.5783 0.0000 0.0000 0.0000
# 2 66.0651 75.9901 1.5783 0.0000 0.0000 0.0000
# 3 1.5783 1.5783 17.8547 0.0000 0.0000 0.0000
# 4 0.0000 0.0000 0.0000 13.7545 0.0000 0.0000
# 5 0.0000 0.0000 0.0000 0.0000 13.7545 0.0000
# 6 0.0000 0.0000 0.0000 0.0000 0.0000 24.2761
#
#
#
# Elastic Compliance Matrix: (Units=1/GPa)
#
#
# Indices 1 2 3 4 5 6 
#
# 1 0.053905 -0.046851 -0.000623 0.000000 0.000000 0.000000
# 2 -0.046851 0.053905 -0.000623 0.000000 0.000000 0.000000
# 3 -0.000623 -0.000623 0.056118 0.000000 0.000000 0.000000
# 4 0.000000 0.000000 0.000000 0.072703 0.000000 0.000000
# 5 0.000000 0.000000 0.000000 0.000000 0.072703 0.000000
# 6 0.000000 0.000000 0.000000 0.000000 0.000000 0.041193
#
#
# Mechanical properties :
#
#
# Convention : Reuss Voigt Hill
#
# Bulk Modulus (GPa) = 14.76434 34.25313 24.50873
# Shear Modulus (GPa) = 10.65414 17.06457 13.85935
#
# Velocity S-wave (km/s) = 2.42714 3.07173 2.76826
# Velocity P-wave (km/s) = 4.00230 5.61430 4.87539
#
# Compressibility (1/GPa) = 0.06773075
#
# Stress axis : x y z
#
# Youngs Moduli (GPa) = 18.55121 18.55121 17.81960
#
# Poissons Ratio (x) = 0.86915 0.01111
# Poissons Ratio (y) = 0.86915 0.01111
# Poissons Ratio (z) = 0.01157 0.01157
#
# Static dielectric constant tensor:
#      x y z
#    x 1.639090 0.000000 0.000000 
#    y 0.000000 1.639090 0.000000 
#    z 0.000000 0.000000 1.654410 
# 
# From -- ./inp_files/2416.got.cif
#   From: 2010.05.17/outbox.cif.g08.bks.cpg/sg127_2_cif.got.tgz:2416.got - 2010.05.20 12:03:00.
