data_PCOD9563504
_publ_section_title
;
Structure prediction by ZEFSAII (Michael W. Deem and Ramdas Pophale) SiO2 
 PCOD9563504
Probable space group: P 4/N N C
;
_chemical_formula_sum "Si O2"
_cell_formula_units_Z 40
_cell_length_a 17.430608
_cell_length_b 17.430608
_cell_length_c 5.422061
_cell_angle_alpha 90.000000
_cell_angle_beta 90.000000
_cell_angle_gamma 90.000000
_cell_volume 1647.363622
_symmetry_space_group_name_H-M "P 4/N N C"
_symmetry_group_IT_number 126
_space_group.IT_coordinate_system_code '2'
_symmetry_cell_setting 'tetragonal'
loop_
_space_group_symop_operation_xyz
x,y,z
1/2-y,x,z
1/2-x,1/2-y,z
y,1/2-x,z
x,1/2-y,1/2-z
1/2-x,y,1/2-z
y,x,1/2-z
1/2-y,1/2-x,1/2-z
-x,-y,-z
1/2+y,-x,-z
1/2+x,1/2+y,-z
-y,1/2+x,-z
-x,1/2+y,1/2+z
1/2+x,-y,1/2+z
-y,-x,1/2+z
1/2+y,1/2+x,1/2+z
loop_
_atom_site_type_symbol
_atom_site_label
_atom_site_fract_x
_atom_site_fract_y
_atom_site_fract_z
Si Si1 0.602672 0.965336 0.001713
Si Si2 0.618600 0.150420 0.953807
Si Si3 0.250000 0.485234 0.750000
O O1 0.554880 0.945121 0.250000
O O2 0.689226 0.942031 0.079663
O O3 0.573140 0.926861 0.750000
O O4 0.604626 0.057635 0.966485
O O5 0.665311 0.161184 0.705457
O O6 0.541194 0.199017 0.924053
#
# Coordination Sequence:
#
# PCOD9563504 Si02
#       3
#    16  16   8
#     4  11  24  42  67 100 134 172 225 283 335 396
#     4  10  22  38  61  91 130 166 210 269 328 391
#     4  10  24  40  64  98 136 174 218 278 342 396
#
# _framework density 24.281222
#
# number of rings (size 3 to 8) (size 9 to 14) (size 15 to 20)
#    0.000    1.600    0.000    4.800    0.000   33.600 
#    0.000    0.000    0.000   58.200    0.000   11.200 
#    0.000    0.000    0.000    0.000    0.000    0.000 
#
# Total GULP energy -223700.938103 kJ/mol
# GULP energy per Si atom -5592.523453 kJ/mol
# Density = 2.422596 g / cm^3
# Si number density = 24.281222 Si / 1000 Ang^3
#
#
#
# Elastic Constant Matrix: (Units=GPa)
#
#
# Indices 1 2 3 4 5 6 
#
# 1 126.0049 22.2962 52.5293 0.0000 0.0000 0.0000
# 2 22.2962 126.0029 52.5274 0.0000 0.0000 0.0000
# 3 52.5293 52.5274 242.9287 0.0000 0.0000 0.0000
# 4 0.0000 0.0000 0.0000 23.6609 0.0000 0.0000
# 5 0.0000 0.0000 0.0000 0.0000 23.6618 0.0000
# 6 0.0000 0.0000 0.0000 0.0000 0.0000 11.3772
#
#
#
# Elastic Compliance Matrix: (Units=1/GPa)
#
#
# Indices 1 2 3 4 5 6 
#
# 1 0.008803 -0.000840 -0.001722 0.000000 0.000000 0.000000
# 2 -0.000840 0.008803 -0.001722 0.000000 0.000000 0.000000
# 3 -0.001722 -0.001722 0.004861 0.000000 0.000000 0.000000
# 4 0.000000 0.000000 0.000000 0.042264 0.000000 0.000000
# 5 0.000000 0.000000 0.000000 0.000000 0.042262 0.000000
# 6 0.000000 0.000000 0.000000 0.000000 0.000000 0.087895
#
#
# Mechanical properties :
#
#
# Convention : Reuss Voigt Hill
#
# Bulk Modulus (GPa) = 71.94507 83.29356 77.61932
# Shear Modulus (GPa) = 24.02834 36.24556 30.13695
#
# Velocity S-wave (km/s) = 3.14918 3.86779 3.52684
# Velocity P-wave (km/s) = 6.55113 7.37052 6.97287
#
# Compressibility (1/GPa) = 0.01389949
#
# Stress axis : x y z
#
# Youngs Moduli (GPa) = 113.60276 113.60152 205.71723
#
# Poissons Ratio (x) = 0.09541 0.35421
# Poissons Ratio (y) = 0.09541 0.35420
# Poissons Ratio (z) = 0.19560 0.19560
#
# Static dielectric constant tensor:
#      x y z
#    x 1.994920 0.000000 0.000000 
#    y 0.000000 1.994920 0.000000 
#    z 0.000000 0.000000 2.045800 
# 
# From -- ./inp_files/195.got.cif
#   From: 2010.05.17/outbox.cif.g08.bks.cpg/sg126_1_cif.got.tgz:195.got - 2010.05.20 11:58:20.
