data_PCOD9563594
_publ_section_title
;
Structure prediction by ZEFSAII (Michael W. Deem and Ramdas Pophale) SiO2 
 PCOD9563594
Probable space group: P 4/N N C
;
_chemical_formula_sum "Si O2"
_cell_formula_units_Z 120
_cell_length_a 14.086546
_cell_length_b 14.086546
_cell_length_c 30.448799
_cell_angle_alpha 90.000000
_cell_angle_beta 90.000000
_cell_angle_gamma 90.000000
_cell_volume 6041.978881
_symmetry_space_group_name_H-M "P 4/N N C"
_symmetry_group_IT_number 126
_space_group.IT_coordinate_system_code '2'
_symmetry_cell_setting 'tetragonal'
loop_
_space_group_symop_operation_xyz
x,y,z
1/2-y,x,z
1/2-x,1/2-y,z
y,1/2-x,z
x,1/2-y,1/2-z
1/2-x,y,1/2-z
y,x,1/2-z
1/2-y,1/2-x,1/2-z
-x,-y,-z
1/2+y,-x,-z
1/2+x,1/2+y,-z
-y,1/2+x,-z
-x,1/2+y,1/2+z
1/2+x,-y,1/2+z
-y,-x,1/2+z
1/2+y,1/2+x,1/2+z
loop_
_atom_site_type_symbol
_atom_site_label
_atom_site_fract_x
_atom_site_fract_y
_atom_site_fract_z
Si Si1 0.840144 0.323630 0.898538
Si Si2 0.626243 0.534561 0.880746
Si Si3 0.871711 0.645243 0.066799
Si Si4 0.250000 0.087156 0.250000
Si Si5 0.457709 0.855420 0.409408
Si Si6 0.663857 0.118401 0.994076
Si Si7 0.123577 0.347869 0.029892
Si Si8 0.685833 0.998695 0.839634
O O1 0.750000 0.250000 0.905312
O O2 0.930053 0.252180 0.896472
O O3 0.854514 0.390376 0.941880
O O4 0.826829 0.394308 0.857650
O O5 0.612763 0.422348 0.882542
O O6 0.607624 0.569258 0.930005
O O7 0.558474 0.588799 0.847326
O O8 0.735631 0.553614 0.870025
O O9 0.876531 0.757978 0.070461
O O10 0.903005 0.561290 0.098658
O O11 0.913044 0.627369 0.018318
O O12 0.340738 0.159263 0.250000
O O13 0.270224 0.019746 0.208243
O O14 0.440685 0.861811 0.462330
O O15 0.623096 0.222329 0.004194
O O16 0.122342 0.233643 0.031881
#
# Coordination Sequence:
#
# PCOD9563594 Si02
#       8
#    16  16  16   8  16  16  16  16
#     4  11  21  39  58  82 124 161 202 257 306 354
#     4  12  23  36  59  92 119 157 208 256 309 371
#     4   9  21  38  50  70 112 168 219 265 311 353
#     4  11  24  46  71  96 126 158 191 238 309 396
#     4  11  23  35  57  83 121 164 220 261 302 362
#     4   9  15  31  50  73 109 166 202 241 296 344
#     4   9  18  32  49  72 113 156 198 260 312 345
#     4  12  25  41  66  93 121 154 197 251 312 382
#
# _framework density 19.861042000000001
#
# number of rings (size 3 to 8) (size 9 to 14) (size 15 to 20)
#    0.000    1.533    6.667    0.800    3.733    5.067 
#    0.000    0.333    0.000    0.000    0.000    0.000 
#    0.000    0.000    0.000    0.000    0.000    0.000 
#
# Total GULP energy -668614.188471 kJ/mol
# GULP energy per Si atom -5571.784904 kJ/mol
# Density = 1.981584 g / cm^3
# Si number density = 19.861042 Si / 1000 Ang^3
#
#
#
# Elastic Constant Matrix: (Units=GPa)
#
#
# Indices 1 2 3 4 5 6 
#
# 1 61.9929 11.9377 28.2143 0.0000 0.0000 0.0000
# 2 11.9377 61.9930 28.2143 0.0000 0.0000 0.0000
# 3 28.2143 28.2143 66.3182 0.0000 0.0000 0.0000
# 4 0.0000 0.0000 0.0000 19.7418 0.0000 0.0000
# 5 0.0000 0.0000 0.0000 0.0000 19.7420 0.0000
# 6 0.0000 0.0000 0.0000 0.0000 0.0000 33.4482
#
#
#
# Elastic Compliance Matrix: (Units=1/GPa)
#
#
# Indices 1 2 3 4 5 6 
#
# 1 0.020004 0.000026 -0.008522 0.000000 0.000000 0.000000
# 2 0.000026 0.020004 -0.008522 0.000000 0.000000 0.000000
# 3 -0.008522 -0.008522 0.022330 0.000000 0.000000 0.000000
# 4 0.000000 0.000000 0.000000 0.050654 0.000000 0.000000
# 5 0.000000 0.000000 0.000000 0.000000 0.050653 0.000000
# 6 0.000000 0.000000 0.000000 0.000000 0.000000 0.029897
#
#
# Mechanical properties :
#
#
# Convention : Reuss Voigt Hill
#
# Bulk Modulus (GPa) = 35.33091 36.33741 35.83416
# Shear Modulus (GPa) = 21.09601 22.71558 21.90579
#
# Velocity S-wave (km/s) = 3.26265 3.38557 3.32468
# Velocity P-wave (km/s) = 5.65869 5.79813 5.72884
#
# Compressibility (1/GPa) = 0.02830383
#
# Stress axis : x y z
#
# Youngs Moduli (GPa) = 49.98941 49.98953 44.78335
#
# Poissons Ratio (x) = -0.00131 0.38163
# Poissons Ratio (y) = -0.00131 0.38163
# Poissons Ratio (z) = 0.42600 0.42600
#
# Static dielectric constant tensor:
#      x y z
#    x 1.767450 0.000000 0.000000 
#    y 0.000000 1.767450 0.000000 
#    z 0.000000 0.000000 1.672960 
# 
# From -- ./inp_files/6670.got.cif
#   From: 2010.05.17/outbox.cif.g08.bks.cpg/sg126_4_cif.got.tgz:6670.got - 2010.05.20 11:58:20.
