data_PCOD9563730
_publ_section_title
;
Structure prediction by ZEFSAII (Michael W. Deem and Ramdas Pophale) SiO2 
 PCOD9563730
Probable space group: P 4/N N C
;
_chemical_formula_sum "Si O2"
_cell_formula_units_Z 64
_cell_length_a 21.000000
_cell_length_b 21.000000
_cell_length_c 9.000000
_cell_angle_alpha 90.000000
_cell_angle_beta 90.000000
_cell_angle_gamma 90.000000
_cell_volume 3969.000000
_symmetry_space_group_name_H-M "P 4/N N C"
_symmetry_group_IT_number 126
_space_group.IT_coordinate_system_code '2'
_symmetry_cell_setting 'tetragonal'
loop_
_space_group_symop_operation_xyz
x,y,z
1/2-y,x,z
1/2-x,1/2-y,z
y,1/2-x,z
x,1/2-y,1/2-z
1/2-x,y,1/2-z
y,x,1/2-z
1/2-y,1/2-x,1/2-z
-x,-y,-z
1/2+y,-x,-z
1/2+x,1/2+y,-z
-y,1/2+x,-z
-x,1/2+y,1/2+z
1/2+x,-y,1/2+z
-y,-x,1/2+z
1/2+y,1/2+x,1/2+z
loop_
_atom_site_type_symbol
_atom_site_label
_atom_site_fract_x
_atom_site_fract_y
_atom_site_fract_z
Si Si1 0.874164 0.496982 0.432297
Si Si2 0.421765 0.360639 0.988205
Si Si3 0.537499 0.750000 0.250000
Si Si4 0.911489 0.481257 0.775460
Si Si5 0.674192 0.674192 0.750000
O O1 0.906356 0.568374 0.422450
O O2 0.802904 0.502833 0.358692
O O3 0.878121 0.478298 0.610478
O O4 0.917410 0.445726 0.340100
O O5 0.428618 0.301843 0.867914
O O6 0.484722 0.368580 0.094854
O O7 0.363404 0.349567 0.103948
O O8 0.968870 0.531131 0.750000
O O9 0.750000 0.663091 0.750000
#
# Coordination Sequence:
#
# PCOD9563730 Si02
#       5
#    16  16   8  16   8
#     4  11  21  37  55  86 112 152 186 244 295 355
#     4  11  21  38  56  82 110 156 198 248 286 343
#     4  12  24  32  56  81 122 145 196 238 294 344
#     4  10  19  35  61  80 112 144 196 240 307 346
#     4  11  22  36  54  76 114 166 206 232 279 336
#
# _framework density 16.124969
#
# number of rings (size 3 to 8) (size 9 to 14) (size 15 to 20)
#    0.000    1.125    3.750    8.250    0.000    0.000 
#    0.000    0.000    0.000    1.500    0.000    0.000 
#    0.000   48.000    0.000    0.000    0.000    0.000 
#
# Total GULP energy -356328.384721 kJ/mol
# GULP energy per Si atom -5567.631011 kJ/mol
# Density = 1.608827 g / cm^3
# Si number density = 16.124969 Si / 1000 Ang^3
#
#
#
# Elastic Constant Matrix: (Units=GPa)
#
#
# Indices 1 2 3 4 5 6 
#
# 1 90.1326 37.6149 47.7622 0.0000 0.0000 0.0000
# 2 37.6149 90.1328 47.7623 0.0000 0.0000 0.0000
# 3 47.7622 47.7623 135.2564 0.0000 0.0000 0.0000
# 4 0.0000 0.0000 0.0000 44.6066 0.0000 0.0000
# 5 0.0000 0.0000 0.0000 0.0000 44.6065 0.0000
# 6 0.0000 0.0000 0.0000 0.0000 0.0000 28.9572
#
#
#
# Elastic Compliance Matrix: (Units=1/GPa)
#
#
# Indices 1 2 3 4 5 6 
#
# 1 0.014839 -0.004202 -0.003756 0.000000 0.000000 0.000000
# 2 -0.004202 0.014839 -0.003756 0.000000 0.000000 0.000000
# 3 -0.003756 -0.003756 0.010046 0.000000 0.000000 0.000000
# 4 0.000000 0.000000 0.000000 0.022418 0.000000 0.000000
# 5 0.000000 0.000000 0.000000 0.000000 0.022418 0.000000
# 6 0.000000 0.000000 0.000000 0.000000 0.000000 0.034534
#
#
# Mechanical properties :
#
#
# Convention : Reuss Voigt Hill
#
# Bulk Modulus (GPa) = 61.36832 64.64451 63.00641
# Shear Modulus (GPa) = 33.79423 35.79289 34.79356
#
# Velocity S-wave (km/s) = 4.58292 4.71650 4.65019
# Velocity P-wave (km/s) = 8.13295 8.35687 8.24567
#
# Compressibility (1/GPa) = 0.01629505
#
# Stress axis : x y z
#
# Youngs Moduli (GPa) = 67.39062 67.39074 99.54169
#
# Poissons Ratio (x) = 0.28320 0.37388
# Poissons Ratio (y) = 0.28320 0.37388
# Poissons Ratio (z) = 0.25312 0.25312
#
# Static dielectric constant tensor:
#      x y z
#    x 1.553190 0.000000 0.000000 
#    y 0.000000 1.553190 0.000000 
#    z 0.000000 0.000000 1.614040 
# 
# From -- ./inp_files/1517.got.cif
#   From: 2010.05.17/outbox.ucp.g08.bks.cvg/sg126_1_cif.got.tgz:1517.got - 2010.06.11 11:36:48.
