data_PCOD9563559
_publ_section_title
;
Structure prediction by ZEFSAII (Michael W. Deem and Ramdas Pophale) SiO2 
 PCOD9563559
Probable space group: P 4/N N C
;
_chemical_formula_sum "Si O2"
_cell_formula_units_Z 56
_cell_length_a 18.097238
_cell_length_b 18.097238
_cell_length_c 8.282642
_cell_angle_alpha 90.000000
_cell_angle_beta 90.000000
_cell_angle_gamma 90.000000
_cell_volume 2712.648274
_symmetry_space_group_name_H-M "P 4/N N C"
_symmetry_group_IT_number 126
_space_group.IT_coordinate_system_code '2'
_symmetry_cell_setting 'tetragonal'
loop_
_space_group_symop_operation_xyz
x,y,z
1/2-y,x,z
1/2-x,1/2-y,z
y,1/2-x,z
x,1/2-y,1/2-z
1/2-x,y,1/2-z
y,x,1/2-z
1/2-y,1/2-x,1/2-z
-x,-y,-z
1/2+y,-x,-z
1/2+x,1/2+y,-z
-y,1/2+x,-z
-x,1/2+y,1/2+z
1/2+x,-y,1/2+z
-y,-x,1/2+z
1/2+y,1/2+x,1/2+z
loop_
_atom_site_type_symbol
_atom_site_label
_atom_site_fract_x
_atom_site_fract_y
_atom_site_fract_z
Si Si1 0.497802 0.002199 0.750000
Si Si2 0.003485 0.872118 0.986692
Si Si3 0.770292 0.634036 0.942167
Si Si4 0.788877 0.349138 0.076326
O O1 0.580729 0.008443 0.821496
O O2 0.484224 0.064407 0.615857
O O3 0.944591 0.805645 0.980286
O O4 0.080768 0.837350 0.036094
O O5 0.832580 0.692632 0.002007
O O6 0.750000 0.634875 0.750000
O O7 0.750000 0.354487 0.250000
O O8 0.838124 0.276073 0.055030
#
# Coordination Sequence:
#
# PCOD9563559 Si02
#       4
#     8  16  16  16
#     4  10  24  40  60  96 124 162 214 244 300 388
#     4  11  23  42  64  89 129 165 201 258 310 359
#     4   9  19  36  61  90 114 149 203 250 297 358
#     4  11  24  41  63  92 123 160 209 256 307 373
#
# _framework density 20.644034999999999
#
# number of rings (size 3 to 8) (size 9 to 14) (size 15 to 20)
#    0.000    1.714    0.000    6.000    0.000   11.429 
#    0.000    0.000    0.000    1.714    0.000    0.000 
#    0.000    0.000    0.000    0.000    0.000    0.000 
#
# Total GULP energy -312334.109569 kJ/mol
# GULP energy per Si atom -5577.394814 kJ/mol
# Density = 2.059705 g / cm^3
# Si number density = 20.644035 Si / 1000 Ang^3
#
#
#
# Elastic Constant Matrix: (Units=GPa)
#
#
# Indices 1 2 3 4 5 6 
#
# 1 52.3110 45.1734 14.2913 0.0000 0.0000 0.0000
# 2 45.1734 52.3115 14.2912 0.0000 0.0000 0.0000
# 3 14.2913 14.2912 60.7415 0.0000 0.0000 0.0000
# 4 0.0000 0.0000 0.0000 27.2872 0.0000 0.0000
# 5 0.0000 0.0000 0.0000 0.0000 27.2884 0.0000
# 6 0.0000 0.0000 0.0000 0.0000 0.0000 7.3411
#
#
#
# Elastic Compliance Matrix: (Units=1/GPa)
#
#
# Indices 1 2 3 4 5 6 
#
# 1 0.075559 -0.064540 -0.002593 0.000000 0.000000 0.000000
# 2 -0.064540 0.075558 -0.002592 0.000000 0.000000 0.000000
# 3 -0.002593 -0.002592 0.017683 0.000000 0.000000 0.000000
# 4 0.000000 0.000000 0.000000 0.036647 0.000000 0.000000
# 5 0.000000 0.000000 0.000000 0.000000 0.036646 0.000000
# 6 0.000000 0.000000 0.000000 0.000000 0.000000 0.136219
#
#
# Mechanical properties :
#
#
# Convention : Reuss Voigt Hill
#
# Bulk Modulus (GPa) = 34.07166 34.76398 34.41782
# Shear Modulus (GPa) = 9.47788 18.49055 13.98421
#
# Velocity S-wave (km/s) = 2.14501 2.99605 2.60551
# Velocity P-wave (km/s) = 4.76182 5.37072 5.07541
#
# Compressibility (1/GPa) = 0.02934991
#
# Stress axis : x y z
#
# Youngs Moduli (GPa) = 13.23475 13.23491 56.55127
#
# Poissons Ratio (x) = 0.85418 0.14662
# Poissons Ratio (y) = 0.85417 0.14659
# Poissons Ratio (z) = 0.03431 0.03431
#
# Static dielectric constant tensor:
#      x y z
#    x 1.717040 0.000000 0.000000 
#    y 0.000000 1.717040 0.000000 
#    z 0.000000 0.000000 1.786990 
# 
# From -- ./inp_files/1253.got.cif
#   From: 2010.05.17/outbox.cif.g08.bks.cpg/sg126_1_cif.got.tgz:1253.got - 2010.05.20 11:58:20.
