data_PCOD9563159
_publ_section_title
;
Structure prediction by ZEFSAII (Michael W. Deem and Ramdas Pophale) SiO2 
 PCOD9563159
Probable space group: P 4/N B M
;
_chemical_formula_sum "Si O2"
_cell_formula_units_Z 50
_cell_length_a 21.045861
_cell_length_b 21.045861
_cell_length_c 4.770053
_cell_angle_alpha 90.000000
_cell_angle_beta 90.000000
_cell_angle_gamma 90.000000
_cell_volume 2112.791300
_symmetry_space_group_name_H-M "P 4/N B M"
_symmetry_group_IT_number 125
_space_group.IT_coordinate_system_code '2'
_symmetry_cell_setting 'tetragonal'
loop_
_space_group_symop_operation_xyz
x,y,z
1/2-y,x,z
1/2-x,1/2-y,z
y,1/2-x,z
x,1/2-y,-z
1/2-x,y,-z
y,x,-z
1/2-y,1/2-x,-z
-x,-y,-z
1/2+y,-x,-z
1/2+x,1/2+y,-z
-y,1/2+x,-z
-x,1/2+y,z
1/2+x,-y,z
-y,-x,z
1/2+y,1/2+x,z
loop_
_atom_site_type_symbol
_atom_site_label
_atom_site_fract_x
_atom_site_fract_y
_atom_site_fract_z
Si Si1 0.250000 0.926742 0.000000
Si Si2 0.628474 0.565922 0.233593
Si Si3 0.250000 0.750000 0.500000
Si Si4 0.750000 0.510915 0.500000
Si Si5 0.047339 0.547339 0.326001
Si Si6 0.149478 0.850523 0.627580
O O1 0.301971 0.887231 0.168455
O O2 0.219599 0.968308 0.252443
O O3 0.592308 0.592308 0.500000
O O4 0.698513 0.550530 0.332457
O O5 0.592715 0.500292 0.153378
O O6 0.618283 0.618283 0.000000
O O7 0.194807 0.805194 0.430087
O O8 0.097150 0.597150 0.473700
O O9 0.000000 0.500000 0.500000
#
# Coordination Sequence:
#
# PCOD9563159 Si02
#       6
#     8  16   2   8   8   8
#     4  12  26  43  70 104 144 207 258 314 380 458
#     4  11  24  44  69 105 145 189 246 308 386 468
#     4  12  28  50  72 110 160 230 280 326 388 482
#     4  12  25  46  72 106 144 197 244 314 396 458
#     4  10  23  43  71 108 149 201 252 322 395 446
#     4  12  25  46  71 107 160 209 277 322 379 474
#
# _framework density 23.665374
#
# number of rings (size 3 to 8) (size 9 to 14) (size 15 to 20)
#    0.000    0.640    3.200    4.320    0.000    2.560 
#    0.000    0.000    0.000    0.480    0.000    2.240 
#    0.000    0.000    0.000    0.000    0.000    0.000 
#
# Total GULP energy -278961.669522 kJ/mol
# GULP energy per Si atom -5579.233390 kJ/mol
# Density = 2.361151 g / cm^3
# Si number density = 23.665374 Si / 1000 Ang^3
#
#
#
# Elastic Constant Matrix: (Units=GPa)
#
#
# Indices 1 2 3 4 5 6 
#
# 1 147.4287 56.5482 33.2920 0.0000 0.0000 0.0000
# 2 56.5482 147.4287 33.2920 0.0000 0.0000 0.0000
# 3 33.2920 33.2920 107.6314 0.0000 0.0000 0.0000
# 4 0.0000 0.0000 0.0000 38.3447 0.0000 0.0000
# 5 0.0000 0.0000 0.0000 0.0000 38.3447 0.0000
# 6 0.0000 0.0000 0.0000 0.0000 0.0000 51.4927
#
#
#
# Elastic Compliance Matrix: (Units=1/GPa)
#
#
# Indices 1 2 3 4 5 6 
#
# 1 0.008228 -0.002775 -0.001687 0.000000 0.000000 0.000000
# 2 -0.002775 0.008228 -0.001687 0.000000 0.000000 0.000000
# 3 -0.001687 -0.001687 0.010334 0.000000 0.000000 0.000000
# 4 0.000000 0.000000 0.000000 0.026079 0.000000 0.000000
# 5 0.000000 0.000000 0.000000 0.000000 0.026079 0.000000
# 6 0.000000 0.000000 0.000000 0.000000 0.000000 0.019420
#
#
# Mechanical properties :
#
#
# Convention : Reuss Voigt Hill
#
# Bulk Modulus (GPa) = 68.99528 72.08366 70.53947
# Shear Modulus (GPa) = 43.29071 44.26019 43.77545
#
# Velocity S-wave (km/s) = 4.28165 4.32933 4.30556
# Velocity P-wave (km/s) = 7.32538 7.45094 7.38843
#
# Compressibility (1/GPa) = 0.01449374
#
# Stress axis : x y z
#
# Youngs Moduli (GPa) = 121.53198 121.53198 96.76398
#
# Poissons Ratio (x) = 0.33727 0.16321
# Poissons Ratio (y) = 0.33727 0.16321
# Poissons Ratio (z) = 0.20499 0.20499
#
# Static dielectric constant tensor:
#      x y z
#    x 1.953920 0.000000 0.000000 
#    y 0.000000 1.953920 0.000000 
#    z 0.000000 0.000000 1.927130 
# 
# From -- ./inp_files/747.got.cif
#   From: 2010.05.17/outbox.cif.g08.bks.cpg/sg125_1_cif.got.tgz:747.got - 2010.05.20 11:54:10.
