data_PCOD9563848
_publ_section_title
;
Structure prediction by ZEFSAII (Michael W. Deem and Ramdas Pophale) SiO2 
 PCOD9563848
Probable space group: P 4/M B M
;
_chemical_formula_sum "Si O2"
_cell_formula_units_Z 72
_cell_length_a 24.119169
_cell_length_b 24.119169
_cell_length_c 7.944290
_cell_angle_alpha 90.000000
_cell_angle_beta 90.000000
_cell_angle_gamma 90.000000
_cell_volume 4621.466087
_symmetry_space_group_name_H-M "P 4/M B M"
_symmetry_group_IT_number 127
_symmetry_cell_setting 'tetragonal'
loop_
_space_group_symop_operation_xyz
x,y,z
-y,x,z
-x,-y,z
y,-x,z
1/2+x,1/2-y,-z
1/2-x,1/2+y,-z
1/2+y,1/2+x,-z
1/2-y,1/2-x,-z
-x,-y,-z
y,-x,-z
x,y,-z
-y,x,-z
1/2-x,1/2+y,z
1/2+x,1/2-y,z
1/2-y,1/2-x,z
1/2+y,1/2+x,z
loop_
_atom_site_type_symbol
_atom_site_label
_atom_site_fract_x
_atom_site_fract_y
_atom_site_fract_z
Si Si1 0.325921 0.993107 0.193686
Si Si2 0.702791 0.888523 0.697021
Si Si3 0.590817 0.997640 0.500000
Si Si4 0.283312 0.873682 0.795788
Si Si5 0.804203 0.209290 0.806353
O O1 0.296732 0.052919 0.209113
O O2 0.374211 0.995679 0.330655
O O3 0.290686 0.938370 0.240787
O O4 0.344616 0.985534 0.000000
O O5 0.693629 0.899603 0.500000
O O6 0.652893 0.847108 0.755735
O O7 0.759831 0.854531 0.716907
O O8 0.543846 0.043846 0.500000
O O9 0.561899 0.938102 0.500000
O O10 0.336410 0.836410 0.739669
O O11 0.226615 0.844796 0.734113
O O12 0.281658 0.868563 0.000000
O O13 0.754645 0.254645 0.807710
O O14 0.820752 0.199233 0.000000
#
# Coordination Sequence:
#
# PCOD9563848 Si02
#       5
#    16  16   8  16  16
#     4  11  21  34  52  70  93 127 162 200 245 285
#     4  10  19  31  45  66  96 124 157 199 237 281
#     4  11  24  38  48  64  92 124 166 213 242 274
#     4   8  15  29  48  69  92 118 154 197 238 286
#     4   8  14  27  47  68  89 115 148 189 239 291
#
# _framework density 15.579471
#
# number of rings (size 3 to 8) (size 9 to 14) (size 15 to 20)
#    0.000    2.556    1.111    3.333    0.000    4.000 
#    2.000    1.111    0.000    0.000    0.000    0.000 
#    0.000    0.889    0.000   10.222    0.000    4.000 
#
# Total GULP energy -400973.871380 kJ/mol
# GULP energy per Si atom -5569.081547 kJ/mol
# Density = 1.554401 g / cm^3
# Si number density = 15.579471 Si / 1000 Ang^3
#
#
#
# Elastic Constant Matrix: (Units=GPa)
#
#
# Indices 1 2 3 4 5 6 
#
# 1 79.9228 64.3232 23.2547 0.0000 0.0000 0.0000
# 2 64.3232 79.9181 23.2532 0.0000 0.0000 0.0000
# 3 23.2547 23.2532 55.2373 0.0000 0.0000 0.0000
# 4 0.0000 0.0000 0.0000 16.3788 0.0000 0.0000
# 5 0.0000 0.0000 0.0000 0.0000 16.3792 0.0000
# 6 0.0000 0.0000 0.0000 0.0000 0.0000 26.1334
#
#
#
# Elastic Compliance Matrix: (Units=1/GPa)
#
#
# Indices 1 2 3 4 5 6 
#
# 1 0.036067 -0.028046 -0.003377 0.000000 0.000000 0.000000
# 2 -0.028046 0.036069 -0.003376 0.000000 0.000000 0.000000
# 3 -0.003377 -0.003376 0.020947 0.000000 0.000000 0.000000
# 4 0.000000 0.000000 0.000000 0.061055 0.000000 0.000000
# 5 0.000000 0.000000 0.000000 0.000000 0.061053 0.000000
# 6 0.000000 0.000000 0.000000 0.000000 0.000000 0.038265
#
#
# Mechanical properties :
#
#
# Convention : Reuss Voigt Hill
#
# Bulk Modulus (GPa) = 42.58525 48.52672 45.55598
# Shear Modulus (GPa) = 15.11108 18.72807 16.91957
#
# Velocity S-wave (km/s) = 3.11776 3.47089 3.29905
# Velocity P-wave (km/s) = 6.35249 6.87592 6.61938
#
# Compressibility (1/GPa) = 0.02348231
#
# Stress axis : x y z
#
# Youngs Moduli (GPa) = 27.72622 27.72486 47.73959
#
# Poissons Ratio (x) = 0.77758 0.16124
# Poissons Ratio (y) = 0.77762 0.16119
# Poissons Ratio (z) = 0.09364 0.09361
#
# Static dielectric constant tensor:
#      x y z
#    x 1.532770 0.000000 0.000000 
#    y 0.000000 1.532770 0.000000 
#    z 0.000000 0.000000 1.547910 
# 
# From -- ./inp_files/1761.got.cif
#   From: 2010.05.17/outbox.cif.g08.bks.cpg/sg127_1_cif.got.tgz:1761.got - 2010.05.20 12:03:00.
