data_PCOD9563503
_publ_section_title
;
Structure prediction by ZEFSAII (Michael W. Deem and Ramdas Pophale) SiO2 
 PCOD9563503
Probable space group: P 4/N N C
;
_chemical_formula_sum "Si O2"
_cell_formula_units_Z 80
_cell_length_a 14.376797
_cell_length_b 14.376797
_cell_length_c 18.675654
_cell_angle_alpha 90.000000
_cell_angle_beta 90.000000
_cell_angle_gamma 90.000000
_cell_volume 3860.113729
_symmetry_space_group_name_H-M "P 4/N N C"
_symmetry_group_IT_number 126
_space_group.IT_coordinate_system_code '2'
_symmetry_cell_setting 'tetragonal'
loop_
_space_group_symop_operation_xyz
x,y,z
1/2-y,x,z
1/2-x,1/2-y,z
y,1/2-x,z
x,1/2-y,1/2-z
1/2-x,y,1/2-z
y,x,1/2-z
1/2-y,1/2-x,1/2-z
-x,-y,-z
1/2+y,-x,-z
1/2+x,1/2+y,-z
-y,1/2+x,-z
-x,1/2+y,1/2+z
1/2+x,-y,1/2+z
-y,-x,1/2+z
1/2+y,1/2+x,1/2+z
loop_
_atom_site_type_symbol
_atom_site_label
_atom_site_fract_x
_atom_site_fract_y
_atom_site_fract_z
Si Si1 0.357679 0.146183 0.662903
Si Si2 0.815899 0.335908 0.115335
Si Si3 0.434748 0.425677 0.037473
Si Si4 0.962594 0.033824 0.825490
Si Si5 0.235417 0.531465 0.501151
O O1 0.377378 0.252549 0.640725
O O2 0.355744 0.144257 0.750000
O O3 0.442021 0.078998 0.643653
O O4 0.750000 0.250000 0.138111
O O5 0.881259 0.387900 0.173504
O O6 0.888598 0.299477 0.054483
O O7 0.753359 0.413685 0.075049
O O8 0.427802 0.455122 0.120286
O O9 0.336788 0.446707 0.000892
O O10 0.485323 0.329516 0.026172
O O11 0.500000 0.500000 0.000000
O O12 0.989225 0.989225 0.750000
#
# Coordination Sequence:
#
# PCOD9563503 Si02
#       5
#    16  16  16  16  16
#     4   8  15  30  50  74 113 164 206 247 312 393
#     4  11  19  38  66  93 127 177 232 283 340 407
#     4  11  22  40  64  93 128 172 223 285 343 403
#     4  10  22  38  60  92 132 176 217 277 346 412
#     4  11  20  38  66  96 126 169 225 288 339 404
#
# _framework density 20.724778000000001
#
# number of rings (size 3 to 8) (size 9 to 14) (size 15 to 20)
#    0.000    1.800    6.000    0.600    0.000    3.600 
#    0.000    4.000    0.000    4.800    0.000    5.600 
#    0.000    0.000    0.000    0.000    0.000    0.000 
#
# Total GULP energy -446749.943826 kJ/mol
# GULP energy per Si atom -5584.374298 kJ/mol
# Density = 2.067761 g / cm^3
# Si number density = 20.724778 Si / 1000 Ang^3
#
#
#
# Elastic Constant Matrix: (Units=GPa)
#
#
# Indices 1 2 3 4 5 6 
#
# 1 101.4417 25.8847 35.0747 0.0000 0.0000 0.0000
# 2 25.8847 101.4418 35.0747 0.0000 0.0000 0.0000
# 3 35.0747 35.0747 92.7623 0.0000 0.0000 0.0000
# 4 0.0000 0.0000 0.0000 25.9906 0.0000 0.0000
# 5 0.0000 0.0000 0.0000 0.0000 25.9905 0.0000
# 6 0.0000 0.0000 0.0000 0.0000 0.0000 54.2675
#
#
#
# Elastic Compliance Matrix: (Units=1/GPa)
#
#
# Indices 1 2 3 4 5 6 
#
# 1 0.011578 -0.001657 -0.003751 0.000000 0.000000 0.000000
# 2 -0.001657 0.011578 -0.003751 0.000000 0.000000 0.000000
# 3 -0.003751 -0.003751 0.013617 0.000000 0.000000 0.000000
# 4 0.000000 0.000000 0.000000 0.038475 0.000000 0.000000
# 5 0.000000 0.000000 0.000000 0.000000 0.038476 0.000000
# 6 0.000000 0.000000 0.000000 0.000000 0.000000 0.018427
#
#
# Mechanical properties :
#
#
# Convention : Reuss Voigt Hill
#
# Bulk Modulus (GPa) = 54.19012 54.19045 54.19029
# Shear Modulus (GPa) = 31.92426 34.55716 33.24071
#
# Velocity S-wave (km/s) = 3.92904 4.08785 4.00923
# Velocity P-wave (km/s) = 6.84013 6.96313 6.90190
#
# Compressibility (1/GPa) = 0.01845355
#
# Stress axis : x y z
#
# Youngs Moduli (GPa) = 86.37262 86.37276 73.43823
#
# Poissons Ratio (x) = 0.14315 0.27547
# Poissons Ratio (y) = 0.14315 0.27547
# Poissons Ratio (z) = 0.32399 0.32399
#
# Static dielectric constant tensor:
#      x y z
#    x 1.668400 0.000000 0.000000 
#    y 0.000000 1.668400 0.000000 
#    z 0.000000 0.000000 1.784850 
# 
# From -- ./inp_files/5088.got.cif
#   From: 2010.05.17/outbox.cif.g08.bks.cpg/sg126_3_cif.got.tgz:5088.got - 2010.05.20 11:58:20.
