data_PCOD9563640
_publ_section_title
;
Structure prediction by ZEFSAII (Michael W. Deem and Ramdas Pophale) SiO2 
 PCOD9563640
Probable space group: P 4/N N C
;
_chemical_formula_sum "Si O2"
_cell_formula_units_Z 48
_cell_length_a 9.820122
_cell_length_b 9.820122
_cell_length_c 21.782874
_cell_angle_alpha 90.000000
_cell_angle_beta 90.000000
_cell_angle_gamma 90.000000
_cell_volume 2100.627013
_symmetry_space_group_name_H-M "P 4/N N C"
_symmetry_group_IT_number 126
_space_group.IT_coordinate_system_code '2'
_symmetry_cell_setting 'tetragonal'
loop_
_space_group_symop_operation_xyz
x,y,z
1/2-y,x,z
1/2-x,1/2-y,z
y,1/2-x,z
x,1/2-y,1/2-z
1/2-x,y,1/2-z
y,x,1/2-z
1/2-y,1/2-x,1/2-z
-x,-y,-z
1/2+y,-x,-z
1/2+x,1/2+y,-z
-y,1/2+x,-z
-x,1/2+y,1/2+z
1/2+x,-y,1/2+z
-y,-x,1/2+z
1/2+y,1/2+x,1/2+z
loop_
_atom_site_type_symbol
_atom_site_label
_atom_site_fract_x
_atom_site_fract_y
_atom_site_fract_z
Si Si1 0.710867 0.528073 0.501071
Si Si2 0.825040 0.121304 0.895625
Si Si3 0.609315 0.576252 0.322869
O O1 0.856581 0.598464 0.490165
O O2 0.717744 0.477836 0.571405
O O3 0.680676 0.407338 0.454378
O O4 0.750000 0.250000 0.864892
O O5 0.939068 0.053173 0.852909
O O6 0.770502 0.567424 0.340761
O O7 0.582143 0.582143 0.250000
#
# Coordination Sequence:
#
# PCOD9563640 Si02
#       3
#    16  16  16
#     4  11  23  38  58  89 133 175 214 259 331 408
#     4  12  22  36  61  96 131 170 212 271 337 396
#     4   9  20  40  65  88 118 164 221 275 322 376
#
# _framework density 22.850321999999998
#
# number of rings (size 3 to 8) (size 9 to 14) (size 15 to 20)
#    0.000    1.333    3.333    4.000    4.667    2.667 
#    0.000    3.333    0.000    0.000    0.000    2.333 
#    0.000    0.000    0.000    0.000    0.000    0.000 
#
# Total GULP energy -268174.775971 kJ/mol
# GULP energy per Si atom -5586.974499 kJ/mol
# Density = 2.279831 g / cm^3
# Si number density = 22.850322 Si / 1000 Ang^3
#
#
#
# Elastic Constant Matrix: (Units=GPa)
#
#
# Indices 1 2 3 4 5 6 
#
# 1 74.4849 23.3913 22.7928 0.0000 0.0000 0.0000
# 2 23.3913 74.4849 22.7928 0.0000 0.0000 0.0000
# 3 22.7928 22.7928 75.3633 0.0000 0.0000 0.0000
# 4 0.0000 0.0000 0.0000 28.7171 0.0000 0.0000
# 5 0.0000 0.0000 0.0000 0.0000 28.7171 0.0000
# 6 0.0000 0.0000 0.0000 0.0000 0.0000 28.7135
#
#
#
# Elastic Compliance Matrix: (Units=1/GPa)
#
#
# Indices 1 2 3 4 5 6 
#
# 1 0.015732 -0.003840 -0.003597 0.000000 0.000000 0.000000
# 2 -0.003840 0.015732 -0.003597 0.000000 0.000000 0.000000
# 3 -0.003597 -0.003597 0.015445 0.000000 0.000000 0.000000
# 4 0.000000 0.000000 0.000000 0.034823 0.000000 0.000000
# 5 0.000000 0.000000 0.000000 0.000000 0.034823 0.000000
# 6 0.000000 0.000000 0.000000 0.000000 0.000000 0.034827
#
#
# Mechanical properties :
#
#
# Convention : Reuss Voigt Hill
#
# Bulk Modulus (GPa) = 40.25400 40.25411 40.25405
# Shear Modulus (GPa) = 27.51370 27.58659 27.55015
#
# Velocity S-wave (km/s) = 3.47376 3.47835 3.47606
# Velocity P-wave (km/s) = 5.80895 5.81262 5.81079
#
# Compressibility (1/GPa) = 0.02484225
#
# Stress axis : x y z
#
# Youngs Moduli (GPa) = 63.56462 63.56462 64.74754
#
# Poissons Ratio (x) = 0.24408 0.23287
# Poissons Ratio (y) = 0.24408 0.23287
# Poissons Ratio (z) = 0.22862 0.22862
#
# Static dielectric constant tensor:
#      x y z
#    x 1.926070 0.000000 0.000000 
#    y 0.000000 1.926070 0.000000 
#    z 0.000000 0.000000 1.867770 
# 
# From -- ./inp_files/4811.got.cif
#   From: 2010.05.17/outbox.cif.g08.bks.cpg/sg126_3_cif.got.tgz:4811.got - 2010.05.20 11:58:20.
