data_PCOD9563177
_publ_section_title
;
Structure prediction by ZEFSAII (Michael W. Deem and Ramdas Pophale) SiO2 
 PCOD9563177
Probable space group: P 4/N B M
;
_chemical_formula_sum "Si O2"
_cell_formula_units_Z 112
_cell_length_a 14.555685
_cell_length_b 14.555685
_cell_length_c 29.796237
_cell_angle_alpha 90.000000
_cell_angle_beta 90.000000
_cell_angle_gamma 90.000000
_cell_volume 6312.868122
_symmetry_space_group_name_H-M "P 4/N B M"
_symmetry_group_IT_number 125
_space_group.IT_coordinate_system_code '2'
_symmetry_cell_setting 'tetragonal'
loop_
_space_group_symop_operation_xyz
x,y,z
1/2-y,x,z
1/2-x,1/2-y,z
y,1/2-x,z
x,1/2-y,-z
1/2-x,y,-z
y,x,-z
1/2-y,1/2-x,-z
-x,-y,-z
1/2+y,-x,-z
1/2+x,1/2+y,-z
-y,1/2+x,-z
-x,1/2+y,z
1/2+x,-y,z
-y,-x,z
1/2+y,1/2+x,z
loop_
_atom_site_type_symbol
_atom_site_label
_atom_site_fract_x
_atom_site_fract_y
_atom_site_fract_z
Si Si1 0.095588 0.250405 0.447813
Si Si2 0.636773 0.642417 0.951794
Si Si3 0.131357 0.351122 0.853831
Si Si4 0.744064 0.100040 0.279024
Si Si5 0.823037 0.469205 0.375079
Si Si6 0.152822 0.132550 0.323977
Si Si7 0.536748 0.616354 0.761691
O O1 0.161532 0.162706 0.440647
O O2 0.067641 0.250000 0.500000
O O3 0.011367 0.260117 0.413899
O O4 0.746805 0.626013 0.951805
O O5 0.599518 0.614060 0.903077
O O6 0.604005 0.604005 0.000000
O O7 0.126067 0.239873 0.851065
O O8 0.075130 0.387408 0.811758
O O9 0.820307 0.179694 0.279637
O O10 0.648718 0.148718 0.263710
O O11 0.727700 0.066493 0.330013
O O12 0.789688 0.019893 0.249237
O O13 0.887816 0.387816 0.391784
O O14 0.885078 0.553820 0.356089
O O15 0.262108 0.127777 0.331822
O O16 0.119868 0.112259 0.273735
O O17 0.466688 0.533313 0.753164
#
# Coordination Sequence:
#
# PCOD9563177 Si02
#       7
#    16  16  16  16  16  16  16
#     4   9  19  38  59  77 103 137 167 197 248 307
#     4   7  10  19  38  62  86 116 157 199 238 295
#     4   9  17  29  44  66  97 127 157 201 260 310
#     4   9  20  38  54  68  95 137 177 209 242 289
#     4  11  21  35  55  81 105 128 170 212 245 288
#     4  11  21  34  50  72 102 134 165 200 254 309
#     4  11  21  33  47  68  98 133 174 212 250 296
#
# _framework density 17.741539
#
# number of rings (size 3 to 8) (size 9 to 14) (size 15 to 20)
#    0.000    2.429    1.429    3.857    0.000    2.286 
#    0.000    2.143    0.000    0.429    0.000    0.000 
#    0.000    1.143    0.000    0.000    0.000   12.000 
#
# Total GULP energy -623688.406911 kJ/mol
# GULP energy per Si atom -5568.646490 kJ/mol
# Density = 1.770116 g / cm^3
# Si number density = 17.741539 Si / 1000 Ang^3
#
#
#
# Elastic Constant Matrix: (Units=GPa)
#
#
# Indices 1 2 3 4 5 6 
#
# 1 35.1342 4.0056 10.6601 0.0000 0.0000 0.0000
# 2 4.0056 35.1342 10.6601 0.0000 0.0000 0.0000
# 3 10.6601 10.6601 107.6383 0.0000 0.0000 0.0000
# 4 0.0000 0.0000 0.0000 14.7704 0.0000 0.0000
# 5 0.0000 0.0000 0.0000 0.0000 14.7704 0.0000
# 6 0.0000 0.0000 0.0000 0.0000 0.0000 11.4733
#
#
#
# Elastic Compliance Matrix: (Units=1/GPa)
#
#
# Indices 1 2 3 4 5 6 
#
# 1 0.029566 -0.002559 -0.002675 0.000000 0.000000 0.000000
# 2 -0.002559 0.029566 -0.002675 0.000000 0.000000 0.000000
# 3 -0.002675 -0.002675 0.009820 0.000000 0.000000 0.000000
# 4 0.000000 0.000000 0.000000 0.067703 0.000000 0.000000
# 5 0.000000 0.000000 0.000000 0.000000 0.067703 0.000000
# 6 0.000000 0.000000 0.000000 0.000000 0.000000 0.087159
#
#
# Mechanical properties :
#
#
# Convention : Reuss Voigt Hill
#
# Bulk Modulus (GPa) = 18.82020 25.39539 22.10780
# Shear Modulus (GPa) = 15.38252 18.37488 16.87870
#
# Velocity S-wave (km/s) = 2.94774 3.22172 3.08777
# Velocity P-wave (km/s) = 4.71345 5.30890 5.02001
#
# Compressibility (1/GPa) = 0.05313439
#
# Stress axis : x y z
#
# Youngs Moduli (GPa) = 33.82312 33.82312 101.83149
#
# Poissons Ratio (x) = 0.08656 0.27236
# Poissons Ratio (y) = 0.08656 0.27236
# Poissons Ratio (z) = 0.09046 0.09046
#
# Static dielectric constant tensor:
#      x y z
#    x 1.623820 0.000000 0.000000 
#    y 0.000000 1.623820 0.000000 
#    z 0.000000 0.000000 1.645410 
# 
# From -- ./inp_files/6655.got.cif
#   From: 2010.05.17/outbox.cif.g08.bks.cpg/sg125_4_cif.got.tgz:6655.got - 2010.05.20 11:54:10.
