data_PCOD9563352
_publ_section_title
;
Structure prediction by ZEFSAII (Michael W. Deem and Ramdas Pophale) SiO2 
 PCOD9563352
Probable space group: P 4/N N C
;
_chemical_formula_sum "Si O2"
_cell_formula_units_Z 40
_cell_length_a 12.184965
_cell_length_b 12.184965
_cell_length_c 12.625660
_cell_angle_alpha 90.000000
_cell_angle_beta 90.000000
_cell_angle_gamma 90.000000
_cell_volume 1874.574315
_symmetry_space_group_name_H-M "P 4/N N C"
_symmetry_group_IT_number 126
_space_group.IT_coordinate_system_code '2'
_symmetry_cell_setting 'tetragonal'
loop_
_space_group_symop_operation_xyz
x,y,z
1/2-y,x,z
1/2-x,1/2-y,z
y,1/2-x,z
x,1/2-y,1/2-z
1/2-x,y,1/2-z
y,x,1/2-z
1/2-y,1/2-x,1/2-z
-x,-y,-z
1/2+y,-x,-z
1/2+x,1/2+y,-z
-y,1/2+x,-z
-x,1/2+y,1/2+z
1/2+x,-y,1/2+z
-y,-x,1/2+z
1/2+y,1/2+x,1/2+z
loop_
_atom_site_type_symbol
_atom_site_label
_atom_site_fract_x
_atom_site_fract_y
_atom_site_fract_z
Si Si1 0.198357 0.575385 0.520869
Si Si2 0.573663 0.250000 0.750000
Si Si3 0.357214 0.512227 0.193244
O O1 0.120727 0.684232 0.523928
O O2 0.212934 0.523072 0.637068
O O3 0.148605 0.496144 0.432290
O O4 0.639371 0.356943 0.787986
O O5 0.250000 0.466002 0.250000
O O6 0.461241 0.461241 0.250000
#
# Coordination Sequence:
#
# PCOD9563352 Si02
#       3
#    16   8  16
#     4   9  17  31  58  85 114 152 197 260 303 349
#     4  10  19  38  58  83 120 151 210 254 297 360
#     4  11  22  37  59  89 122 156 200 252 310 372
#
# _framework density 21.338177000000002
#
# number of rings (size 3 to 8) (size 9 to 14) (size 15 to 20)
#    0.000    2.000    4.000    0.600    0.000    2.000 
#    0.000    0.000    0.000    0.600    0.000    0.000 
#    0.000    0.000    0.000    0.000    0.000    0.000 
#
# Total GULP energy -222823.127751 kJ/mol
# GULP energy per Si atom -5570.578194 kJ/mol
# Density = 2.128961 g / cm^3
# Si number density = 21.338177 Si / 1000 Ang^3
#
#
#
# Elastic Constant Matrix: (Units=GPa)
#
#
# Indices 1 2 3 4 5 6 
#
# 1 35.3547 12.6033 24.2154 0.0000 0.0000 0.0000
# 2 12.6033 35.3547 24.2154 0.0000 0.0000 0.0000
# 3 24.2154 24.2154 250.9052 0.0000 0.0000 0.0000
# 4 0.0000 0.0000 0.0000 1.9950 0.0000 0.0000
# 5 0.0000 0.0000 0.0000 0.0000 1.9950 0.0000
# 6 0.0000 0.0000 0.0000 0.0000 0.0000 -2.7644
#
#
#
# Elastic Compliance Matrix: (Units=1/GPa)
#
#
# Indices 1 2 3 4 5 6 
#
# 1 0.033528 -0.010425 -0.002230 0.000000 0.000000 0.000000
# 2 -0.010425 0.033528 -0.002230 0.000000 0.000000 0.000000
# 3 -0.002230 -0.002230 0.004416 0.000000 0.000000 0.000000
# 4 0.000000 0.000000 0.000000 0.501246 0.000000 0.000000
# 5 0.000000 0.000000 0.000000 0.000000 0.501246 0.000000
# 6 0.000000 0.000000 0.000000 0.000000 0.000000 -0.361740
#
#
# Mechanical properties :
#
#
# Convention : Reuss Voigt Hill
#
# Bulk Modulus (GPa) = 23.97873 49.29807 36.63840
# Shear Modulus (GPa) = 6.61468 17.61716 12.11592
#
# Velocity S-wave (km/s) = 1.76257 2.87647 2.38545
# Velocity P-wave (km/s) = 3.92480 5.84684 4.97944
#
# Compressibility (1/GPa) = 0.04170362
#
# Stress axis : x y z
#
# Youngs Moduli (GPa) = 29.82550 29.82550 226.45112
#
# Poissons Ratio (x) = 0.31093 0.50493
# Poissons Ratio (y) = 0.31093 0.50493
# Poissons Ratio (z) = 0.06650 0.06650
#
# Static dielectric constant tensor:
#      x y z
#    x 1.766970 0.000000 0.000000 
#    y 0.000000 1.766970 0.000000 
#    z 0.000000 0.000000 1.886650 
# 
# From -- ./inp_files/2159.got.cif
#   From: 2010.05.17/outbox.cif.g08.bks.cpg/sg126_2_cif.got.tgz:2159.got - 2010.05.20 11:58:20.
