data_PCOD9563137
_publ_section_title
;
Structure prediction by ZEFSAII (Michael W. Deem and Ramdas Pophale) SiO2 
 PCOD9563137
Probable space group: P 4/N B M
;
_chemical_formula_sum "Si O2"
_cell_formula_units_Z 40
_cell_length_a 19.161306
_cell_length_b 19.161306
_cell_length_c 5.011168
_cell_angle_alpha 90.000000
_cell_angle_beta 90.000000
_cell_angle_gamma 90.000000
_cell_volume 1839.878632
_symmetry_space_group_name_H-M "P 4/N B M"
_symmetry_group_IT_number 125
_space_group.IT_coordinate_system_code '2'
_symmetry_cell_setting 'tetragonal'
loop_
_space_group_symop_operation_xyz
x,y,z
1/2-y,x,z
1/2-x,1/2-y,z
y,1/2-x,z
x,1/2-y,-z
1/2-x,y,-z
y,x,-z
1/2-y,1/2-x,-z
-x,-y,-z
1/2+y,-x,-z
1/2+x,1/2+y,-z
-y,1/2+x,-z
-x,1/2+y,z
1/2+x,-y,z
-y,-x,z
1/2+y,1/2+x,z
loop_
_atom_site_type_symbol
_atom_site_label
_atom_site_fract_x
_atom_site_fract_y
_atom_site_fract_z
Si Si1 0.322686 0.567388 0.593973
Si Si2 0.040015 0.250000 0.000000
Si Si3 0.450804 0.116283 0.242313
O O1 0.250000 0.601611 0.500000
O O2 0.377091 0.622910 0.706339
O O3 0.295541 0.508631 0.800198
O O4 0.360549 0.527255 0.348152
O O5 0.081193 0.190710 0.843992
O O6 0.415357 0.084644 0.500000
O O7 0.437706 0.062295 0.000000
#
# Coordination Sequence:
#
# PCOD9563137 Si02
#       3
#    16   8  16
#     4  10  23  42  64  95 133 173 220 268 321 387
#     4  10  22  42  64  98 132 174 210 270 322 392
#     4  11  22  41  67  99 128 168 213 272 331 381
#
# _framework density 21.740563999999999
#
# number of rings (size 3 to 8) (size 9 to 14) (size 15 to 20)
#    0.000    1.600    4.000    0.000    0.000    8.400 
#    0.000    0.000    0.000    0.600   20.800    0.000 
#    0.000    0.000    0.000    0.000    0.000    0.000 
#
# Total GULP energy -222936.994494 kJ/mol
# GULP energy per Si atom -5573.424862 kJ/mol
# Density = 2.169108 g / cm^3
# Si number density = 21.740564 Si / 1000 Ang^3
#
#
#
# Elastic Constant Matrix: (Units=GPa)
#
#
# Indices 1 2 3 4 5 6 
#
# 1 63.3029 68.6156 33.3179 0.0000 0.0000 0.0000
# 2 68.6156 63.3077 33.3195 0.0000 0.0000 0.0000
# 3 33.3179 33.3195 133.1969 0.0000 0.0000 0.0000
# 4 0.0000 0.0000 0.0000 23.7093 0.0000 0.0000
# 5 0.0000 0.0000 0.0000 0.0000 23.7088 0.0000
# 6 0.0000 0.0000 0.0000 0.0000 0.0000 15.0512
#
#
#
# Elastic Compliance Matrix: (Units=1/GPa)
#
#
# Indices 1 2 3 4 5 6 
#
# 1 -0.089820 0.098493 -0.002171 0.000000 0.000000 0.000000
# 2 0.098493 -0.089813 -0.002170 0.000000 0.000000 0.000000
# 3 -0.002171 -0.002170 0.008594 0.000000 0.000000 0.000000
# 4 0.000000 0.000000 0.000000 0.042178 0.000000 0.000000
# 5 0.000000 0.000000 0.000000 0.000000 0.042179 0.000000
# 6 0.000000 0.000000 0.000000 0.000000 0.000000 0.066440
#
#
# Mechanical properties :
#
#
# Convention : Reuss Voigt Hill
#
# Bulk Modulus (GPa) = 57.92029 58.92374 58.42201
# Shear Modulus (GPa) = -24.65557 20.79747 -1.92905
#
# Velocity S-wave (km/s) = -3.37127 3.09628 -0.94299
# Velocity P-wave (km/s) = 3.39787 6.32017 5.07396
#
# Compressibility (1/GPa) = 0.01726511
#
# Stress axis : x y z
#
# Youngs Moduli (GPa) = -11.13338 -11.13419 116.36655
#
# Poissons Ratio (x) = 1.09664 0.25260
# Poissons Ratio (y) = 1.09656 0.25253
# Poissons Ratio (z) = -0.02417 -0.02416
#
# Static dielectric constant tensor:
#      x y z
#    x 1.833680 0.000000 0.000000 
#    y 0.000000 1.833670 0.000000 
#    z 0.000000 0.000000 1.914810 
# 
# From -- ./inp_files/428.got.cif
#   From: 2010.05.17/outbox.cif.g08.bks.cpg/sg125_1_cif.got.tgz:428.got - 2010.05.20 11:54:10.
