data_PCOD9563004
_publ_section_title
;
Structure prediction by ZEFSAII (Michael W. Deem and Ramdas Pophale) SiO2 
 PCOD9563004
Probable space group: P 4/N B M
;
_chemical_formula_sum "Si O2"
_cell_formula_units_Z 64
_cell_length_a 13.462574
_cell_length_b 13.462574
_cell_length_c 18.883643
_cell_angle_alpha 90.000000
_cell_angle_beta 90.000000
_cell_angle_gamma 90.000000
_cell_volume 3422.488428
_symmetry_space_group_name_H-M "P 4/N B M"
_symmetry_group_IT_number 125
_space_group.IT_coordinate_system_code '2'
_symmetry_cell_setting 'tetragonal'
loop_
_space_group_symop_operation_xyz
x,y,z
1/2-y,x,z
1/2-x,1/2-y,z
y,1/2-x,z
x,1/2-y,-z
1/2-x,y,-z
y,x,-z
1/2-y,1/2-x,-z
-x,-y,-z
1/2+y,-x,-z
1/2+x,1/2+y,-z
-y,1/2+x,-z
-x,1/2+y,z
1/2+x,-y,z
-y,-x,z
1/2+y,1/2+x,z
loop_
_atom_site_type_symbol
_atom_site_label
_atom_site_fract_x
_atom_site_fract_y
_atom_site_fract_z
Si Si1 0.849312 0.990879 0.544808
Si Si2 0.022789 0.145829 0.705942
Si Si3 0.506493 0.837671 0.212821
Si Si4 0.584279 0.254331 0.918952
O O1 0.750000 0.999357 0.500000
O O2 0.921130 0.921130 0.500000
O O3 0.841372 0.947327 0.624078
O O4 0.902707 0.097294 0.551878
O O5 0.982247 0.250450 0.732468
O O6 0.109811 0.106346 0.758205
O O7 0.937527 0.062474 0.709133
O O8 0.497484 0.782402 0.136984
O O9 0.422661 0.922661 0.213164
O O10 0.639377 0.360624 0.904121
O O11 0.673173 0.173173 0.915296
O O12 0.548415 0.250000 0.000000
#
# Coordination Sequence:
#
# PCOD9563004 Si02
#       4
#    16  16  16  16
#     4  10  21  37  55  76 104 136 172 217 265 315
#     4  10  21  35  54  79 103 135 177 214 261 321
#     4  10  20  35  53  76 109 141 173 219 265 308
#     4   8  14  27  50  78 106 140 181 220 259 306
#
# _framework density 18.699843999999999
#
# number of rings (size 3 to 8) (size 9 to 14) (size 15 to 20)
#    0.000    2.500    0.000    3.000    0.000    5.500 
#    0.000    6.250    0.000    6.000    0.000    1.750 
#    0.000    0.000    0.000    0.000    0.000    0.000 
#
# Total GULP energy -356393.060884 kJ/mol
# GULP energy per Si atom -5568.641576 kJ/mol
# Density = 1.865728 g / cm^3
# Si number density = 18.699844 Si / 1000 Ang^3
#
#
#
# Elastic Constant Matrix: (Units=GPa)
#
#
# Indices 1 2 3 4 5 6 
#
# 1 51.6268 4.2129 29.9764 0.0000 0.0000 0.0000
# 2 4.2129 51.6268 29.9764 0.0000 0.0000 0.0000
# 3 29.9764 29.9764 104.0420 0.0000 0.0000 0.0000
# 4 0.0000 0.0000 0.0000 17.2451 0.0000 0.0000
# 5 0.0000 0.0000 0.0000 0.0000 17.2451 0.0000
# 6 0.0000 0.0000 0.0000 0.0000 0.0000 -5.4306
#
#
#
# Elastic Compliance Matrix: (Units=1/GPa)
#
#
# Indices 1 2 3 4 5 6 
#
# 1 0.023510 0.002419 -0.007471 0.000000 0.000000 0.000000
# 2 0.002419 0.023510 -0.007471 0.000000 0.000000 0.000000
# 3 -0.007471 -0.007471 0.013916 0.000000 0.000000 0.000000
# 4 0.000000 0.000000 0.000000 0.057988 0.000000 0.000000
# 5 0.000000 0.000000 0.000000 0.000000 0.057988 0.000000
# 6 0.000000 0.000000 0.000000 0.000000 0.000000 -0.184143
#
#
# Mechanical properties :
#
#
# Convention : Reuss Voigt Hill
#
# Bulk Modulus (GPa) = 27.86112 37.29189 32.57651
# Shear Modulus (GPa) = 167.91195 15.35390 91.63292
#
# Velocity S-wave (km/s) = 9.48621 2.86854 7.00774
# Velocity P-wave (km/s) = 11.61532 5.56390 9.10694
#
# Compressibility (1/GPa) = 0.03589231
#
# Stress axis : x y z
#
# Youngs Moduli (GPa) = 42.53480 42.53480 71.85754
#
# Poissons Ratio (x) = -0.10290 0.53683
# Poissons Ratio (y) = -0.10290 0.53683
# Poissons Ratio (z) = 0.31777 0.31777
#
# Static dielectric constant tensor:
#      x y z
#    x 1.671870 0.000000 0.000000 
#    y 0.000000 1.671870 0.000000 
#    z 0.000000 0.000000 1.700820 
# 
# From -- ./inp_files/4631.got.cif
#   From: 2010.05.17/outbox.cif.g08.bks.cpg/sg125_3_cif.got.tgz:4631.got - 2010.05.20 11:54:10.
