data_PCOD9563756
_publ_section_title
;
Structure prediction by ZEFSAII (Michael W. Deem and Ramdas Pophale) SiO2 
 PCOD9563756
Probable space group: P 4/M B M
;
_chemical_formula_sum "Si O2"
_cell_formula_units_Z 96
_cell_length_a 24.989055
_cell_length_b 24.989055
_cell_length_c 7.434560
_cell_angle_alpha 90.000000
_cell_angle_beta 90.000000
_cell_angle_gamma 90.000000
_cell_volume 4642.532328
_symmetry_space_group_name_H-M "P 4/M B M"
_symmetry_group_IT_number 127
_symmetry_cell_setting 'tetragonal'
loop_
_space_group_symop_operation_xyz
x,y,z
-y,x,z
-x,-y,z
y,-x,z
1/2+x,1/2-y,-z
1/2-x,1/2+y,-z
1/2+y,1/2+x,-z
1/2-y,1/2-x,-z
-x,-y,-z
y,-x,-z
x,y,-z
-y,x,-z
1/2-x,1/2+y,z
1/2+x,1/2-y,z
1/2-y,1/2-x,z
1/2+y,1/2+x,z
loop_
_atom_site_type_symbol
_atom_site_label
_atom_site_fract_x
_atom_site_fract_y
_atom_site_fract_z
Si Si1 0.941904 0.064267 0.780555
Si Si2 0.438414 0.146313 0.782664
Si Si3 0.855776 0.851029 0.792786
Si Si4 0.265509 0.149608 0.289876
Si Si5 0.231413 0.353391 0.780197
Si Si6 0.355899 0.940522 0.219186
O O1 0.899105 0.108284 0.716960
O O2 0.003663 0.073525 0.726008
O O3 0.942829 0.065495 0.000000
O O4 0.406654 0.093347 0.723338
O O5 0.401587 0.196176 0.729328
O O6 0.498973 0.148700 0.717439
O O7 0.439697 0.145759 0.000000
O O8 0.792299 0.861461 0.791256
O O9 0.860890 0.791508 0.713344
O O10 0.873447 0.846330 0.000000
O O11 0.256713 0.159741 0.500000
O O12 0.299745 0.200256 0.215853
O O13 0.201148 0.298853 0.723841
O O14 0.193258 0.402483 0.727912
O O15 0.232859 0.351745 0.000000
O O16 0.409971 0.909971 0.273993
O O17 0.355721 0.941427 0.000000
#
# Coordination Sequence:
#
# PCOD9563756 Si02
#       6
#    16  16  16  16  16  16
#     4   8  15  28  45  69 101 128 150 185 233 278
#     4   9  17  29  47  71  96 123 158 197 230 265
#     4  10  18  28  49  75  91 113 155 197 228 269
#     4  10  21  35  48  64  92 126 153 185 236 288
#     4   8  14  24  39  64  97 124 146 183 233 273
#     4   8  14  25  42  67  99 129 155 189 233 272
#
# _framework density 20.678369
#
# number of rings (size 3 to 8) (size 9 to 14) (size 15 to 20)
#    0.000    3.167    0.000    2.500    0.000    3.333 
#    0.000    6.667    0.000    4.500    0.000    5.833 
#    0.000    0.000    0.000    0.000    0.000    0.000 
#
# Total GULP energy -535467.069388 kJ/mol
# GULP energy per Si atom -5577.781973 kJ/mol
# Density = 2.063130 g / cm^3
# Si number density = 20.678369 Si / 1000 Ang^3
#
#
#
# Elastic Constant Matrix: (Units=GPa)
#
#
# Indices 1 2 3 4 5 6 
#
# 1 198.7803 76.0351 -0.2407 0.0000 0.0000 0.0000
# 2 76.0351 198.7803 -0.2407 0.0000 0.0000 0.0000
# 3 -0.2407 -0.2407 64.0971 0.0000 0.0000 0.0000
# 4 0.0000 0.0000 0.0000 -23.3187 0.0000 0.0000
# 5 0.0000 0.0000 0.0000 0.0000 -23.3187 0.0000
# 6 0.0000 0.0000 0.0000 0.0000 0.0000 26.3885
#
#
#
# Elastic Compliance Matrix: (Units=1/GPa)
#
#
# Indices 1 2 3 4 5 6 
#
# 1 0.005893 -0.002254 0.000014 0.000000 0.000000 0.000000
# 2 -0.002254 0.005893 0.000014 0.000000 0.000000 0.000000
# 3 0.000014 0.000014 0.015601 0.000000 0.000000 0.000000
# 4 0.000000 0.000000 0.000000 -0.042884 0.000000 0.000000
# 5 0.000000 0.000000 0.000000 0.000000 -0.042884 0.000000
# 6 0.000000 0.000000 0.000000 0.000000 0.000000 0.037895
#
#
# Mechanical properties :
#
#
# Convention : Reuss Voigt Hill
#
# Bulk Modulus (GPa) = 43.60386 68.08500 55.84443
# Shear Modulus (GPa) = -596.12138 21.69049 -287.21545
#
# Velocity S-wave (km/s) = -16.99731 3.24226 -11.79822
# Velocity P-wave (km/s) = 19.08085 6.85664 12.59097
#
# Compressibility (1/GPa) = 0.02293375
#
# Stress axis : x y z
#
# Youngs Moduli (GPa) = 169.69591 169.69591 64.09670
#
# Poissons Ratio (x) = 0.38251 -0.00088
# Poissons Ratio (y) = 0.38251 -0.00088
# Poissons Ratio (z) = -0.00232 -0.00232
#
# Static dielectric constant tensor:
#      x y z
#    x 1.717030 0.000000 0.000000 
#    y 0.000000 1.717030 0.000000 
#    z 0.000000 0.000000 1.795660 
# 
# From -- ./inp_files/1945.got.cif
#   From: 2010.05.17/outbox.cif.g08.bks.cpg/sg127_1_cif.got.tgz:1945.got - 2010.05.20 12:03:00.
