data_PCOD9563724
_publ_section_title
;
Structure prediction by ZEFSAII (Michael W. Deem and Ramdas Pophale) SiO2 
 PCOD9563724
Probable space group: P 4/N N C
;
_chemical_formula_sum "Si O2"
_cell_formula_units_Z 64
_cell_length_a 10.460441
_cell_length_b 10.460441
_cell_length_c 23.599302
_cell_angle_alpha 90.000000
_cell_angle_beta 90.000000
_cell_angle_gamma 90.000000
_cell_volume 2582.255116
_symmetry_space_group_name_H-M "P 4/N N C"
_symmetry_group_IT_number 126
_space_group.IT_coordinate_system_code '2'
_symmetry_cell_setting 'tetragonal'
loop_
_space_group_symop_operation_xyz
x,y,z
1/2-y,x,z
1/2-x,1/2-y,z
y,1/2-x,z
x,1/2-y,1/2-z
1/2-x,y,1/2-z
y,x,1/2-z
1/2-y,1/2-x,1/2-z
-x,-y,-z
1/2+y,-x,-z
1/2+x,1/2+y,-z
-y,1/2+x,-z
-x,1/2+y,1/2+z
1/2+x,-y,1/2+z
-y,-x,1/2+z
1/2+y,1/2+x,1/2+z
loop_
_atom_site_type_symbol
_atom_site_label
_atom_site_fract_x
_atom_site_fract_y
_atom_site_fract_z
Si Si1 0.509686 0.456348 0.309352
Si Si2 0.227873 0.032319 0.959792
Si Si3 0.899071 0.228663 0.657734
Si Si4 0.543409 0.806272 0.918948
O O1 0.436863 0.436863 0.250000
O O2 0.448278 0.587926 0.329170
O O3 0.662770 0.472370 0.306117
O O4 0.505608 0.346418 0.357452
O O5 0.359359 0.115719 0.954588
O O6 0.238014 0.933198 0.908901
O O7 0.191983 0.971083 0.020962
O O8 0.750000 0.250000 0.669356
O O9 0.599685 0.664630 0.921687
#
# Coordination Sequence:
#
# PCOD9563724 Si02
#       4
#    16  16  16  16
#     4  12  27  47  69 100 148 196 246 306 366 444
#     4   9  18  42  74 102 143 185 237 302 372 440
#     4  12  26  46  72 110 144 191 250 306 372 445
#     4   9  20  41  70 102 139 188 235 296 365 437
#
# _framework density 24.784538000000001
#
# number of rings (size 3 to 8) (size 9 to 14) (size 15 to 20)
#    0.000    1.500    2.500    3.750    0.000    6.500 
#    4.500    2.500    0.000    0.000    0.000    0.000 
#    0.000    0.000    0.000    0.000    0.000    0.000 
#
# Total GULP energy -357229.634703 kJ/mol
# GULP energy per Si atom -5581.713042 kJ/mol
# Density = 2.472813 g / cm^3
# Si number density = 24.784538 Si / 1000 Ang^3
#
#
#
# Elastic Constant Matrix: (Units=GPa)
#
#
# Indices 1 2 3 4 5 6 
#
# 1 78.7293 38.2675 16.6770 0.0000 0.0000 0.0000
# 2 38.2675 78.7293 16.6770 0.0000 0.0000 0.0000
# 3 16.6770 16.6770 143.3923 0.0000 0.0000 0.0000
# 4 0.0000 0.0000 0.0000 27.6850 0.0000 0.0000
# 5 0.0000 0.0000 0.0000 0.0000 27.6850 0.0000
# 6 0.0000 0.0000 0.0000 0.0000 0.0000 32.1945
#
#
#
# Elastic Compliance Matrix: (Units=1/GPa)
#
#
# Indices 1 2 3 4 5 6 
#
# 1 0.016778 -0.007937 -0.001028 0.000000 0.000000 0.000000
# 2 -0.007937 0.016778 -0.001028 0.000000 0.000000 0.000000
# 3 -0.001028 -0.001028 0.007213 0.000000 0.000000 0.000000
# 4 0.000000 0.000000 0.000000 0.036121 0.000000 0.000000
# 5 0.000000 0.000000 0.000000 0.000000 0.036121 0.000000
# 6 0.000000 0.000000 0.000000 0.000000 0.000000 0.031061
#
#
# Mechanical properties :
#
#
# Convention : Reuss Voigt Hill
#
# Bulk Modulus (GPa) = 48.12068 49.34378 48.73223
# Shear Modulus (GPa) = 29.24240 32.79485 31.01863
#
# Velocity S-wave (km/s) = 3.43864 3.64153 3.54154
# Velocity P-wave (km/s) = 5.93493 6.13460 6.03559
#
# Compressibility (1/GPa) = 0.02078109
#
# Stress axis : x y z
#
# Youngs Moduli (GPa) = 59.60357 59.60357 138.63793
#
# Poissons Ratio (x) = 0.47308 0.14254
# Poissons Ratio (y) = 0.47308 0.14254
# Poissons Ratio (z) = 0.06128 0.06128
#
# Static dielectric constant tensor:
#      x y z
#    x 2.010700 0.000000 0.000000 
#    y 0.000000 2.010700 0.000000 
#    z 0.000000 0.000000 2.118380 
# 
# From -- ./inp_files/4946.got.cif
#   From: 2010.05.17/outbox.cif.g08.bks.cpg/sg126_3_cif.got.tgz:4946.got - 2010.05.20 11:58:20.
