data_PCOD9563075
_publ_section_title
;
Structure prediction by ZEFSAII (Michael W. Deem and Ramdas Pophale) SiO2 
 PCOD9563075
Probable space group: P 4/N B M
;
_chemical_formula_sum "Si O2"
_cell_formula_units_Z 112
_cell_length_a 14.176524
_cell_length_b 14.176524
_cell_length_c 34.740669
_cell_angle_alpha 90.000000
_cell_angle_beta 90.000000
_cell_angle_gamma 90.000000
_cell_volume 6981.965400
_symmetry_space_group_name_H-M "P 4/N B M"
_symmetry_group_IT_number 125
_space_group.IT_coordinate_system_code '2'
_symmetry_cell_setting 'tetragonal'
loop_
_space_group_symop_operation_xyz
x,y,z
1/2-y,x,z
1/2-x,1/2-y,z
y,1/2-x,z
x,1/2-y,-z
1/2-x,y,-z
y,x,-z
1/2-y,1/2-x,-z
-x,-y,-z
1/2+y,-x,-z
1/2+x,1/2+y,-z
-y,1/2+x,-z
-x,1/2+y,z
1/2+x,-y,z
-y,-x,z
1/2+y,1/2+x,z
loop_
_atom_site_type_symbol
_atom_site_label
_atom_site_fract_x
_atom_site_fract_y
_atom_site_fract_z
Si Si1 0.491610 0.149753 0.019776
Si Si2 0.992158 0.649888 0.889147
Si Si3 0.149576 0.007256 0.520442
Si Si4 0.898907 0.690580 0.399631
Si Si5 0.992304 0.850594 0.848915
Si Si6 0.690377 0.898827 0.768969
Si Si7 0.690310 0.898252 0.684663
O O1 0.474918 0.160328 0.065322
O O2 0.582646 0.082646 0.014495
O O3 0.505776 0.250000 0.000000
O O4 0.405007 0.094994 0.000000
O O5 0.906448 0.593162 0.869542
O O6 0.084265 0.584265 0.884130
O O7 0.004620 0.750334 0.869235
O O8 0.250000 0.996149 0.500000
O O9 0.092106 0.092106 0.500000
O O10 0.164519 0.035661 0.564838
O O11 0.085198 0.914803 0.516925
O O12 0.867645 0.800512 0.402266
O O13 0.942609 0.672591 0.357162
O O14 0.084037 0.915964 0.852705
O O15 0.964308 0.835923 0.804468
O O16 0.632248 0.800369 0.771608
O O17 0.672484 0.942537 0.726493
O O18 0.632824 0.799917 0.684661
#
# Coordination Sequence:
#
# PCOD9563075 Si02
#       7
#    16  16  16  16  16  16  16
#     4  10  21  38  57  78 104 134 169 210 254 302
#     4  10  22  37  54  78 106 133 167 211 257 303
#     4  11  22  34  50  74 102 133 173 215 258 311
#     4   9  15  27  49  74  99 129 167 214 262 305
#     4  11  21  34  53  77 105 139 176 210 249 302
#     4   9  15  28  49  74 104 134 167 211 257 304
#     4   7  12  22  42  72 101 128 160 205 261 305
#
# _framework density 16.041328
#
# number of rings (size 3 to 8) (size 9 to 14) (size 15 to 20)
#    0.000    2.429    2.857    2.571    0.000    2.857 
#    0.000    3.571    0.000    0.000    0.000    1.000 
#    0.000    2.286    0.000    0.000    0.000    0.000 
#
# Total GULP energy -624026.560796 kJ/mol
# GULP energy per Si atom -5571.665721 kJ/mol
# Density = 1.600482 g / cm^3
# Si number density = 16.041328 Si / 1000 Ang^3
#
#
#
# Elastic Constant Matrix: (Units=GPa)
#
#
# Indices 1 2 3 4 5 6 
#
# 1 76.7216 31.2763 59.3341 0.0000 0.0000 0.0000
# 2 31.2763 76.7198 59.3330 0.0000 0.0000 0.0000
# 3 59.3341 59.3330 172.6880 0.0000 0.0000 0.0000
# 4 0.0000 0.0000 0.0000 15.1355 0.0000 0.0000
# 5 0.0000 0.0000 0.0000 0.0000 15.1358 0.0000
# 6 0.0000 0.0000 0.0000 0.0000 0.0000 3.7882
#
#
#
# Elastic Compliance Matrix: (Units=1/GPa)
#
#
# Indices 1 2 3 4 5 6 
#
# 1 0.018440 -0.003565 -0.005111 0.000000 0.000000 0.000000
# 2 -0.003565 0.018440 -0.005111 0.000000 0.000000 0.000000
# 3 -0.005111 -0.005111 0.009303 0.000000 0.000000 0.000000
# 4 0.000000 0.000000 0.000000 0.066070 0.000000 0.000000
# 5 0.000000 0.000000 0.000000 0.000000 0.066068 0.000000
# 6 0.000000 0.000000 0.000000 0.000000 0.000000 0.263976
#
#
# Mechanical properties :
#
#
# Convention : Reuss Voigt Hill
#
# Bulk Modulus (GPa) = 53.73500 69.55734 61.64617
# Shear Modulus (GPa) = 10.50257 18.55766 14.53011
#
# Velocity S-wave (km/s) = 2.56152 3.40496 3.01290
# Velocity P-wave (km/s) = 6.50531 7.67553 7.11453
#
# Compressibility (1/GPa) = 0.01860985
#
# Stress axis : x y z
#
# Youngs Moduli (GPa) = 54.22975 54.22881 107.49234
#
# Poissons Ratio (x) = 0.19331 0.54940
# Poissons Ratio (y) = 0.19331 0.54940
# Poissons Ratio (z) = 0.27717 0.27717
#
# Static dielectric constant tensor:
#      x y z
#    x 1.511170 0.000000 0.000000 
#    y 0.000000 1.511170 0.000000 
#    z 0.000000 0.000000 1.564940 
# 
# From -- ./inp_files/6654.got.cif
#   From: 2010.05.17/outbox.cif.g08.bks.cpg/sg125_4_cif.got.tgz:6654.got - 2010.05.20 11:54:10.
