data_PCOD9563524
_publ_section_title
;
Structure prediction by ZEFSAII (Michael W. Deem and Ramdas Pophale) SiO2 
 PCOD9563524
Probable space group: P 4/N N C
;
_chemical_formula_sum "Si O2"
_cell_formula_units_Z 84
_cell_length_a 13.568968
_cell_length_b 13.568968
_cell_length_c 21.082998
_cell_angle_alpha 90.000000
_cell_angle_beta 90.000000
_cell_angle_gamma 90.000000
_cell_volume 3881.736078
_symmetry_space_group_name_H-M "P 4/N N C"
_symmetry_group_IT_number 126
_space_group.IT_coordinate_system_code '2'
_symmetry_cell_setting 'tetragonal'
loop_
_space_group_symop_operation_xyz
x,y,z
1/2-y,x,z
1/2-x,1/2-y,z
y,1/2-x,z
x,1/2-y,1/2-z
1/2-x,y,1/2-z
y,x,1/2-z
1/2-y,1/2-x,1/2-z
-x,-y,-z
1/2+y,-x,-z
1/2+x,1/2+y,-z
-y,1/2+x,-z
-x,1/2+y,1/2+z
1/2+x,-y,1/2+z
-y,-x,1/2+z
1/2+y,1/2+x,1/2+z
loop_
_atom_site_type_symbol
_atom_site_label
_atom_site_fract_x
_atom_site_fract_y
_atom_site_fract_z
Si Si1 0.129190 0.814011 0.134659
Si Si2 0.537091 0.496523 0.318876
Si Si3 0.086143 0.891900 0.426163
Si Si4 0.824225 0.607214 0.664377
Si Si5 0.250000 0.750000 0.250000
Si Si6 0.986691 0.288069 0.046185
O O1 0.132861 0.705705 0.105717
O O2 0.184394 0.812669 0.201972
O O3 0.172295 0.891688 0.085137
O O4 0.021885 0.856229 0.150925
O O5 0.543424 0.543424 0.250000
O O6 0.470300 0.552299 0.370162
O O7 0.481820 0.390306 0.309726
O O8 0.171261 0.962005 0.455803
O O9 0.016580 0.847089 0.480732
O O10 0.878409 0.709366 0.681505
O O11 0.814232 0.580525 0.589376
#
# Coordination Sequence:
#
# PCOD9563524 Si02
#       6
#    16  16  16  16   4  16
#     4  11  24  37  64  97 129 174 212 275 333 382
#     4  11  26  42  63  96 133 174 225 266 328 405
#     4  12  22  43  66  97 134 166 223 276 334 404
#     4  10  22  41  61  90 130 172 212 259 322 394
#     4  12  20  36  62  92 140 172 220 266 336 396
#     4  11  22  38  67  95 125 165 215 271 334 386
#
# _framework density 21.639802
#
# number of rings (size 3 to 8) (size 9 to 14) (size 15 to 20)
#    0.000    0.952    5.714    1.143    0.000    5.333 
#    0.000    0.952    0.000    0.571    0.000    1.333 
#    0.000    0.000    0.000    0.000    0.000    0.000 
#
# Total GULP energy -469002.718284 kJ/mol
# GULP energy per Si atom -5583.365694 kJ/mol
# Density = 2.159055 g / cm^3
# Si number density = 21.639802 Si / 1000 Ang^3
#
#
#
# Elastic Constant Matrix: (Units=GPa)
#
#
# Indices 1 2 3 4 5 6 
#
# 1 51.0707 22.2668 13.2512 0.0000 0.0000 0.0000
# 2 22.2668 51.0707 13.2512 0.0000 0.0000 0.0000
# 3 13.2512 13.2512 95.2892 0.0000 0.0000 0.0000
# 4 0.0000 0.0000 0.0000 29.4781 0.0000 0.0000
# 5 0.0000 0.0000 0.0000 0.0000 29.4781 0.0000
# 6 0.0000 0.0000 0.0000 0.0000 0.0000 30.5251
#
#
#
# Elastic Compliance Matrix: (Units=1/GPa)
#
#
# Indices 1 2 3 4 5 6 
#
# 1 0.024537 -0.010180 -0.001997 0.000000 0.000000 0.000000
# 2 -0.010180 0.024537 -0.001997 0.000000 0.000000 0.000000
# 3 -0.001997 -0.001997 0.011050 0.000000 0.000000 0.000000
# 4 0.000000 0.000000 0.000000 0.033924 0.000000 0.000000
# 5 0.000000 0.000000 0.000000 0.000000 0.033924 0.000000
# 6 0.000000 0.000000 0.000000 0.000000 0.000000 0.032760
#
#
# Mechanical properties :
#
#
# Convention : Reuss Voigt Hill
#
# Bulk Modulus (GPa) = 31.46861 32.77432 32.12146
# Shear Modulus (GPa) = 25.04127 27.80700 26.42414
#
# Velocity S-wave (km/s) = 3.40543 3.58857 3.49820
# Velocity P-wave (km/s) = 5.48053 5.68759 5.58502
#
# Compressibility (1/GPa) = 0.03177770
#
# Stress axis : x y z
#
# Youngs Moduli (GPa) = 40.75427 40.75427 90.50056
#
# Poissons Ratio (x) = 0.41489 0.18069
# Poissons Ratio (y) = 0.41489 0.18069
# Poissons Ratio (z) = 0.08137 0.08137
#
# Static dielectric constant tensor:
#      x y z
#    x 1.828020 0.000000 0.000000 
#    y 0.000000 1.828020 0.000000 
#    z 0.000000 0.000000 1.831300 
# 
# From -- ./inp_files/5167.got.cif
#   From: 2010.05.17/outbox.cif.g08.bks.cpg/sg126_3_cif.got.tgz:5167.got - 2010.05.20 11:58:20.
