data_PCOD9563934
_publ_section_title
;
Structure prediction by ZEFSAII (Michael W. Deem and Ramdas Pophale) SiO2 
 PCOD9563934
Probable space group: P 4/M B M
;
_chemical_formula_sum "Si O2"
_cell_formula_units_Z 120
_cell_length_a 18.224169
_cell_length_b 18.224169
_cell_length_c 21.674277
_cell_angle_alpha 90.000000
_cell_angle_beta 90.000000
_cell_angle_gamma 90.000000
_cell_volume 7198.468154
_symmetry_space_group_name_H-M "P 4/M B M"
_symmetry_group_IT_number 127
_symmetry_cell_setting 'tetragonal'
loop_
_space_group_symop_operation_xyz
x,y,z
-y,x,z
-x,-y,z
y,-x,z
1/2+x,1/2-y,-z
1/2-x,1/2+y,-z
1/2+y,1/2+x,-z
1/2-y,1/2-x,-z
-x,-y,-z
y,-x,-z
x,y,-z
-y,x,-z
1/2-x,1/2+y,z
1/2+x,1/2-y,z
1/2-y,1/2-x,z
1/2+y,1/2+x,z
loop_
_atom_site_type_symbol
_atom_site_label
_atom_site_fract_x
_atom_site_fract_y
_atom_site_fract_z
Si Si1 0.114097 0.002982 0.073584
Si Si2 0.188912 0.814557 0.429507
Si Si3 0.207591 0.415850 0.352366
Si Si4 0.137055 0.759616 0.785903
Si Si5 0.755163 0.623017 0.211220
Si Si6 0.378445 0.997488 0.000000
Si Si7 0.714749 0.911617 0.346514
Si Si8 0.724063 0.988059 0.880108
O O1 0.068816 0.072558 0.097248
O O2 0.197160 0.005893 0.089251
O O3 0.107915 0.002624 0.000000
O O4 0.168990 0.831757 0.500000
O O5 0.252475 0.752475 0.430084
O O6 0.227819 0.882804 0.395392
O O7 0.123036 0.775404 0.392522
O O8 0.134039 0.365962 0.362679
O O9 0.233136 0.400026 0.282197
O O10 0.196578 0.503259 0.360512
O O11 0.205378 0.705378 0.777805
O O12 0.174697 0.839273 0.796169
O O13 0.093546 0.751042 0.721671
O O14 0.086715 0.728125 0.840623
O O15 0.813814 0.686186 0.196715
O O16 0.776593 0.555314 0.167827
O O17 0.333219 0.006983 0.063745
O O18 0.418951 0.918951 0.000000
O O19 0.440411 0.059590 0.000000
O O20 0.642803 0.857198 0.348151
#
# Coordination Sequence:
#
# PCOD9563934 Si02
#       8
#    16  16  16  16  16   8  16  16
#     4   9  18  33  52  75 102 129 162 208 262 322
#     4   9  18  34  58  83 109 150 196 230 274 341
#     4  10  19  34  55  82 118 151 188 236 283 334
#     4  10  20  34  53  80 109 139 178 230 280 322
#     4  10  20  34  53  80 109 139 178 230 280 322
#     4  11  26  44  56  73 108 146 182 229 280 342
#     4  10  19  34  55  82 118 151 188 236 283 334
#     4  12  20  36  58  78 100 140 184 222 275 335
#
# _framework density 16.670213
#
# number of rings (size 3 to 8) (size 9 to 14) (size 15 to 20)
#    0.000    1.933    3.333    2.000    0.000    0.800 
#    0.000    0.000    0.000    3.600    0.000    4.667 
#    0.000    0.000    0.000    0.000    0.000    0.000 
#
# Total GULP energy -668104.540671 kJ/mol
# GULP energy per Si atom -5567.537839 kJ/mol
# Density = 1.663227 g / cm^3
# Si number density = 16.670213 Si / 1000 Ang^3
#
#
#
# Elastic Constant Matrix: (Units=GPa)
#
#
# Indices 1 2 3 4 5 6 
#
# 1 115.6675 -18.5717 17.1927 0.0000 0.0000 0.0000
# 2 -18.5717 115.6715 17.1944 0.0000 0.0000 0.0000
# 3 17.1927 17.1944 79.0240 0.0000 0.0000 0.0000
# 4 0.0000 0.0000 0.0000 24.7170 0.0000 0.0000
# 5 0.0000 0.0000 0.0000 0.0000 24.7170 0.0000
# 6 0.0000 0.0000 0.0000 0.0000 0.0000 38.8310
#
#
#
# Elastic Compliance Matrix: (Units=1/GPa)
#
#
# Indices 1 2 3 4 5 6 
#
# 1 0.009304 0.001855 -0.002428 0.000000 0.000000 0.000000
# 2 0.001855 0.009304 -0.002428 0.000000 0.000000 0.000000
# 3 -0.002428 -0.002428 0.013711 0.000000 0.000000 0.000000
# 4 0.000000 0.000000 0.000000 0.040458 0.000000 0.000000
# 5 0.000000 0.000000 0.000000 0.000000 0.040458 0.000000
# 6 0.000000 0.000000 0.000000 0.000000 0.000000 0.025753
#
#
# Mechanical properties :
#
#
# Convention : Reuss Voigt Hill
#
# Bulk Modulus (GPa) = 37.99838 37.99930 37.99884
# Shear Modulus (GPa) = 32.51788 37.28952 34.90370
#
# Velocity S-wave (km/s) = 4.42142 4.73471 4.58074
# Velocity P-wave (km/s) = 6.99349 7.26183 7.12892
#
# Compressibility (1/GPa) = 0.02631691
#
# Stress axis : x y z
#
# Youngs Moduli (GPa) = 107.47914 107.48228 72.93489
#
# Poissons Ratio (x) = -0.19935 0.17707
# Poissons Ratio (y) = -0.19934 0.17708
# Poissons Ratio (z) = 0.26094 0.26096
#
# Static dielectric constant tensor:
#      x y z
#    x 1.566720 0.000000 0.000000 
#    y 0.000000 1.566720 0.000000 
#    z 0.000000 0.000000 1.584780 
# 
# From -- ./inp_files/5971.got.cif
#   From: 2010.05.17/outbox.cif.g08.bks.cpg/sg127_3_cif.got.tgz:5971.got - 2010.05.20 12:03:00.
