data_PCOD9563012
_publ_section_title
;
Structure prediction by ZEFSAII (Michael W. Deem and Ramdas Pophale) SiO2 
 PCOD9563012
Probable space group: P 4/N B M
;
_chemical_formula_sum "Si O2"
_cell_formula_units_Z 96
_cell_length_a 24.769115
_cell_length_b 24.769115
_cell_length_c 8.742611
_cell_angle_alpha 90.000000
_cell_angle_beta 90.000000
_cell_angle_gamma 90.000000
_cell_volume 5363.671038
_symmetry_space_group_name_H-M "P 4/N B M"
_symmetry_group_IT_number 125
_space_group.IT_coordinate_system_code '2'
_symmetry_cell_setting 'tetragonal'
loop_
_space_group_symop_operation_xyz
x,y,z
1/2-y,x,z
1/2-x,1/2-y,z
y,1/2-x,z
x,1/2-y,-z
1/2-x,y,-z
y,x,-z
1/2-y,1/2-x,-z
-x,-y,-z
1/2+y,-x,-z
1/2+x,1/2+y,-z
-y,1/2+x,-z
-x,1/2+y,z
1/2+x,-y,z
-y,-x,z
1/2+y,1/2+x,z
loop_
_atom_site_type_symbol
_atom_site_label
_atom_site_fract_x
_atom_site_fract_y
_atom_site_fract_z
Si Si1 0.160578 0.750000 0.500000
Si Si2 0.567657 0.262119 0.256127
Si Si3 0.838000 0.074808 0.966823
Si Si4 0.024948 0.250000 0.500000
Si Si5 0.814835 0.692872 0.686548
Si Si6 0.358724 0.419264 0.367143
Si Si7 0.988173 0.924151 0.125228
O O1 0.199455 0.800546 0.466025
O O2 0.120829 0.763350 0.639503
O O3 0.566268 0.205108 0.167929
O O4 0.515045 0.267532 0.362723
O O5 0.570887 0.307309 0.126838
O O6 0.868170 0.131831 0.950200
O O7 0.882863 0.028857 0.955748
O O8 0.058697 0.302144 0.440381
O O9 0.823688 0.754858 0.735621
O O10 0.811059 0.688942 0.500000
O O11 0.865891 0.657411 0.729830
O O12 0.397929 0.397929 0.500000
O O13 0.391037 0.460908 0.262491
O O14 0.946208 0.946208 0.000000
O O15 0.024674 0.975327 0.177915
#
# Coordination Sequence:
#
# PCOD9563012 Si02
#       7
#     8  16  16   8  16  16  16
#     4  10  20  35  56  86 120 145 176 234 298 354
#     4  10  21  36  57  86 114 148 189 241 285 357
#     4  10  20  39  61  79 109 157 197 236 290 349
#     4  11  22  37  54  90 122 143 188 247 292 354
#     4   8  14  28  50  79 111 143 173 212 269 336
#     4  11  21  35  59  86 115 150 191 237 294 346
#     4  10  23  42  58  78 113 154 202 249 291 338
#
# _framework density 17.89819
#
# number of rings (size 3 to 8) (size 9 to 14) (size 15 to 20)
#    0.000    2.083    1.667    3.500    2.333    0.333 
#    0.000    0.833    0.000    4.000    0.000    1.167 
#    0.000    0.000    0.000    0.000    0.000    0.000 
#
# Total GULP energy -535334.142837 kJ/mol
# GULP energy per Si atom -5576.397321 kJ/mol
# Density = 1.785745 g / cm^3
# Si number density = 17.898190 Si / 1000 Ang^3
#
#
#
# Elastic Constant Matrix: (Units=GPa)
#
#
# Indices 1 2 3 4 5 6 
#
# 1 99.4893 48.5215 38.4580 0.0000 0.0000 0.0000
# 2 48.5215 99.4888 38.4579 0.0000 0.0000 0.0000
# 3 38.4580 38.4579 58.7657 0.0000 0.0000 0.0000
# 4 0.0000 0.0000 0.0000 11.6576 0.0000 0.0000
# 5 0.0000 0.0000 0.0000 0.0000 11.6576 0.0000
# 6 0.0000 0.0000 0.0000 0.0000 0.0000 17.5960
#
#
#
# Elastic Compliance Matrix: (Units=1/GPa)
#
#
# Indices 1 2 3 4 5 6 
#
# 1 0.014929 -0.004691 -0.006700 0.000000 0.000000 0.000000
# 2 -0.004691 0.014929 -0.006700 0.000000 0.000000 0.000000
# 3 -0.006700 -0.006700 0.025786 0.000000 0.000000 0.000000
# 4 0.000000 0.000000 0.000000 0.085781 0.000000 0.000000
# 5 0.000000 0.000000 0.000000 0.000000 0.085781 0.000000
# 6 0.000000 0.000000 0.000000 0.000000 0.000000 0.056831
#
#
# Mechanical properties :
#
#
# Convention : Reuss Voigt Hill
#
# Bulk Modulus (GPa) = 51.38224 56.51318 53.94771
# Shear Modulus (GPa) = 15.30420 17.00267 16.15344
#
# Velocity S-wave (km/s) = 2.92733 3.08550 3.00745
# Velocity P-wave (km/s) = 6.34004 6.65861 6.50127
#
# Compressibility (1/GPa) = 0.01946198
#
# Stress axis : x y z
#
# Youngs Moduli (GPa) = 66.98294 66.98265 38.78052
#
# Poissons Ratio (x) = 0.31423 0.25983
# Poissons Ratio (y) = 0.31423 0.25983
# Poissons Ratio (z) = 0.44879 0.44879
#
# Static dielectric constant tensor:
#      x y z
#    x 1.617530 0.000000 0.000000 
#    y 0.000000 1.617530 0.000000 
#    z 0.000000 0.000000 1.589680 
# 
# From -- ./inp_files/2937.got.cif
#   From: 2010.05.17/outbox.cif.g08.bks.cpg/sg125_2_cif.got.tgz:2937.got - 2010.05.20 11:54:10.
