data_PCOD9563242
_publ_section_title
;
Structure prediction by ZEFSAII (Michael W. Deem and Ramdas Pophale) SiO2 
 PCOD9563242
Probable space group: P 4/N B M
;
_chemical_formula_sum "Si O2"
_cell_formula_units_Z 108
_cell_length_a 13.488369
_cell_length_b 13.488369
_cell_length_c 30.201510
_cell_angle_alpha 90.000000
_cell_angle_beta 90.000000
_cell_angle_gamma 90.000000
_cell_volume 5494.744892
_symmetry_space_group_name_H-M "P 4/N B M"
_symmetry_group_IT_number 125
_space_group.IT_coordinate_system_code '2'
_symmetry_cell_setting 'tetragonal'
loop_
_space_group_symop_operation_xyz
x,y,z
1/2-y,x,z
1/2-x,1/2-y,z
y,1/2-x,z
x,1/2-y,-z
1/2-x,y,-z
y,x,-z
1/2-y,1/2-x,-z
-x,-y,-z
1/2+y,-x,-z
1/2+x,1/2+y,-z
-y,1/2+x,-z
-x,1/2+y,z
1/2+x,-y,z
-y,-x,z
1/2+y,1/2+x,z
loop_
_atom_site_type_symbol
_atom_site_label
_atom_site_fract_x
_atom_site_fract_y
_atom_site_fract_z
Si Si1 0.091011 0.209944 0.437927
Si Si2 0.911792 0.250000 0.500000
Si Si3 0.565924 0.592045 0.049512
Si Si4 0.171536 0.996269 0.287489
Si Si5 0.764749 0.583168 0.193774
Si Si6 0.750000 0.250000 0.090775
Si Si7 0.860776 0.526272 0.657942
Si Si8 0.485858 0.731756 0.898419
O O1 0.180459 0.134121 0.448715
O O2 0.071726 0.186610 0.386387
O O3 0.986563 0.205367 0.463303
O O4 0.838342 0.161659 0.515957
O O5 0.458877 0.541124 0.043371
O O6 0.553852 0.694095 0.073954
O O7 0.627987 0.522434 0.082205
O O8 0.605678 0.605678 0.000000
O O9 0.095895 0.904106 0.284839
O O10 0.212804 0.027762 0.239612
O O11 0.109921 0.086107 0.311263
O O12 0.269254 0.976916 0.316385
O O13 0.853170 0.663598 0.191364
O O14 0.754801 0.508579 0.152801
O O15 0.748959 0.371807 0.091708
O O16 0.945902 0.445902 0.647228
#
# Coordination Sequence:
#
# PCOD9563242 Si02
#       8
#    16   8  16  16  16   4  16  16
#     4  11  23  41  71 101 131 179 233 290 340 406
#     4  11  26  45  64  96 142 187 230 285 350 414
#     4  11  24  43  68  97 134 173 218 279 334 398
#     4  11  24  42  66  99 135 178 224 276 334 399
#     4  11  23  42  72  98 127 170 219 276 331 395
#     4  12  28  44  69  96 136 188 216 276 332 427
#     4  11  23  42  67  99 137 178 226 275 344 406
#     4  12  24  47  66 101 133 174 226 271 341 405
#
# _framework density 19.655142000000001
#
# number of rings (size 3 to 8) (size 9 to 14) (size 15 to 20)
#    0.000    0.815    5.926    1.333    1.037    3.852 
#    2.667    2.222    0.000    0.000    0.000    0.000 
#    0.000    0.000    0.000    0.000    0.000    0.000 
#
# Total GULP energy -601633.110874 kJ/mol
# GULP energy per Si atom -5570.676953 kJ/mol
# Density = 1.961041 g / cm^3
# Si number density = 19.655142 Si / 1000 Ang^3
#
#
#
# Elastic Constant Matrix: (Units=GPa)
#
#
# Indices 1 2 3 4 5 6 
#
# 1 103.6644 14.6635 22.5559 0.0000 0.0000 0.0000
# 2 14.6635 103.6644 22.5559 0.0000 0.0000 0.0000
# 3 22.5559 22.5559 102.5247 0.0000 0.0000 0.0000
# 4 0.0000 0.0000 0.0000 -8.4614 0.0000 0.0000
# 5 0.0000 0.0000 0.0000 0.0000 -8.4614 0.0000
# 6 0.0000 0.0000 0.0000 0.0000 0.0000 28.1181
#
#
#
# Elastic Compliance Matrix: (Units=1/GPa)
#
#
# Indices 1 2 3 4 5 6 
#
# 1 0.010230 -0.001006 -0.002029 0.000000 0.000000 0.000000
# 2 -0.001006 0.010230 -0.002029 0.000000 0.000000 0.000000
# 3 -0.002029 -0.002029 0.010647 0.000000 0.000000 0.000000
# 4 0.000000 0.000000 0.000000 -0.118184 0.000000 0.000000
# 5 0.000000 0.000000 0.000000 0.000000 -0.118184 0.000000
# 6 0.000000 0.000000 0.000000 0.000000 0.000000 0.035564
#
#
# Mechanical properties :
#
#
# Convention : Reuss Voigt Hill
#
# Bulk Modulus (GPa) = 47.66809 47.71155 47.68982
# Shear Modulus (GPa) = -32.77107 18.91094 -6.93007
#
# Velocity S-wave (km/s) = -4.08769 3.10520 -1.87976
# Velocity P-wave (km/s) = 1.42334 6.09782 4.42771
#
# Compressibility (1/GPa) = 0.02097839
#
# Stress axis : x y z
#
# Youngs Moduli (GPa) = 97.74855 97.74855 93.92541
#
# Poissons Ratio (x) = 0.09829 0.19062
# Poissons Ratio (y) = 0.09829 0.19062
# Poissons Ratio (z) = 0.19838 0.19838
#
# Static dielectric constant tensor:
#      x y z
#    x 1.631790 0.000000 0.000000 
#    y 0.000000 1.631790 0.000000 
#    z 0.000000 0.000000 1.792180 
# 
# From -- ./inp_files/6463.got.cif
#   From: 2010.05.17/outbox.cif.g08.bks.cpg/sg125_4_cif.got.tgz:6463.got - 2010.05.20 11:54:10.
