data_PCOD9563369
_publ_section_title
;
Structure prediction by ZEFSAII (Michael W. Deem and Ramdas Pophale) SiO2 
 PCOD9563369
Probable space group: P 4/N N C
;
_chemical_formula_sum "Si O2"
_cell_formula_units_Z 128
_cell_length_a 20.045924
_cell_length_b 20.045924
_cell_length_c 18.590829
_cell_angle_alpha 90.000000
_cell_angle_beta 90.000000
_cell_angle_gamma 90.000000
_cell_volume 7470.521418
_symmetry_space_group_name_H-M "P 4/N N C"
_symmetry_group_IT_number 126
_space_group.IT_coordinate_system_code '2'
_symmetry_cell_setting 'tetragonal'
loop_
_space_group_symop_operation_xyz
x,y,z
1/2-y,x,z
1/2-x,1/2-y,z
y,1/2-x,z
x,1/2-y,1/2-z
1/2-x,y,1/2-z
y,x,1/2-z
1/2-y,1/2-x,1/2-z
-x,-y,-z
1/2+y,-x,-z
1/2+x,1/2+y,-z
-y,1/2+x,-z
-x,1/2+y,1/2+z
1/2+x,-y,1/2+z
-y,-x,1/2+z
1/2+y,1/2+x,1/2+z
loop_
_atom_site_type_symbol
_atom_site_label
_atom_site_fract_x
_atom_site_fract_y
_atom_site_fract_z
Si Si1 0.074717 0.983974 0.022950
Si Si2 0.175933 0.328484 0.836469
Si Si3 0.464544 0.514635 0.179498
Si Si4 0.934222 0.287977 0.850510
Si Si5 0.848375 0.109236 0.291858
Si Si6 0.645934 0.354950 0.027366
Si Si7 0.826393 0.269664 0.110589
Si Si8 0.612549 0.954581 0.381323
O O1 0.077619 0.001886 0.107193
O O2 0.091298 0.906268 0.004877
O O3 0.115977 0.026972 0.965555
O O4 0.000000 0.000000 0.000000
O O5 0.158959 0.252260 0.857060
O O6 0.169774 0.330227 0.750000
O O7 0.123153 0.378485 0.869071
O O8 0.467699 0.467699 0.250000
O O9 0.432810 0.584537 0.203778
O O10 0.541722 0.522908 0.152896
O O11 0.888106 0.322136 0.789491
O O12 0.931031 0.210026 0.834060
O O13 0.902863 0.305210 0.927071
O O14 0.004531 0.326469 0.844963
O O15 0.854189 0.182482 0.327022
O O16 0.631587 0.294550 0.083066
O O17 0.683599 0.324110 0.959805
O O18 0.750000 0.250000 0.128150
#
# Coordination Sequence:
#
# PCOD9563369 Si02
#       8
#    16  16  16  16  16  16  16  16
#     4   9  21  37  53  74 103 134 179 225 267 315
#     4   9  19  32  49  80 116 145 170 208 266 322
#     4  11  20  35  54  72 100 143 182 225 275 323
#     4  10  22  33  47  75 108 137 182 227 267 329
#     4  11  22  34  49  77 106 141 183 223 279 324
#     4  11  19  35  54  75 103 136 179 226 271 330
#     4  12  20  34  54  77 103 140 180 223 282 330
#     4  10  20  34  53  76 104 139 185 224 264 320
#
# _framework density 17.134011999999998
#
# number of rings (size 3 to 8) (size 9 to 14) (size 15 to 20)
#    0.000    1.625    5.000    0.750    1.750    1.500 
#    0.000    0.000    0.000    0.000    0.000    0.000 
#    0.000    0.000    0.000    1.375    0.000    0.000 
#
# Total GULP energy -712975.613153 kJ/mol
# GULP energy per Si atom -5570.121978 kJ/mol
# Density = 1.709501 g / cm^3
# Si number density = 17.134012 Si / 1000 Ang^3
#
#
#
# Elastic Constant Matrix: (Units=GPa)
#
#
# Indices 1 2 3 4 5 6 
#
# 1 42.9261 24.9072 14.4918 0.0000 0.0000 0.0000
# 2 24.9072 42.9257 14.4917 0.0000 0.0000 0.0000
# 3 14.4918 14.4917 82.4846 0.0000 0.0000 0.0000
# 4 0.0000 0.0000 0.0000 19.9315 0.0000 0.0000
# 5 0.0000 0.0000 0.0000 0.0000 19.9315 0.0000
# 6 0.0000 0.0000 0.0000 0.0000 0.0000 28.7460
#
#
#
# Elastic Compliance Matrix: (Units=1/GPa)
#
#
# Indices 1 2 3 4 5 6 
#
# 1 0.035718 -0.019780 -0.002800 0.000000 0.000000 0.000000
# 2 -0.019780 0.035718 -0.002800 0.000000 0.000000 0.000000
# 3 -0.002800 -0.002800 0.013107 0.000000 0.000000 0.000000
# 4 0.000000 0.000000 0.000000 0.050172 0.000000 0.000000
# 5 0.000000 0.000000 0.000000 0.000000 0.050172 0.000000
# 6 0.000000 0.000000 0.000000 0.000000 0.000000 0.034787
#
#
# Mechanical properties :
#
#
# Convention : Reuss Voigt Hill
#
# Bulk Modulus (GPa) = 29.60022 30.67975 30.13998
# Shear Modulus (GPa) = 17.74960 21.35152 19.55056
#
# Velocity S-wave (km/s) = 3.22208 3.53391 3.38159
# Velocity P-wave (km/s) = 5.58172 5.88184 5.73374
#
# Compressibility (1/GPa) = 0.03378353
#
# Stress axis : x y z
#
# Youngs Moduli (GPa) = 27.99702 27.99679 76.29261
#
# Poissons Ratio (x) = 0.55377 0.21364
# Poissons Ratio (y) = 0.55377 0.21364
# Poissons Ratio (z) = 0.07840 0.07840
#
# Static dielectric constant tensor:
#      x y z
#    x 1.603440 0.000000 0.000000 
#    y 0.000000 1.603440 0.000000 
#    z 0.000000 0.000000 1.663080 
# 
# From -- ./inp_files/4714.got.cif
#   From: 2010.05.17/outbox.cif.g08.bks.cpg/sg126_3_cif.got.tgz:4714.got - 2010.05.20 11:58:20.
