data_PCOD9563272
_publ_section_title
;
Structure prediction by ZEFSAII (Michael W. Deem and Ramdas Pophale) SiO2 
 PCOD9563272
Probable space group: P 4/N B M
;
_chemical_formula_sum "Si O2"
_cell_formula_units_Z 64
_cell_length_a 21.716095
_cell_length_b 21.716095
_cell_length_c 7.861876
_cell_angle_alpha 90.000000
_cell_angle_beta 90.000000
_cell_angle_gamma 90.000000
_cell_volume 3707.572527
_symmetry_space_group_name_H-M "P 4/N B M"
_symmetry_group_IT_number 125
_space_group.IT_coordinate_system_code '2'
_symmetry_cell_setting 'tetragonal'
loop_
_space_group_symop_operation_xyz
x,y,z
1/2-y,x,z
1/2-x,1/2-y,z
y,1/2-x,z
x,1/2-y,-z
1/2-x,y,-z
y,x,-z
1/2-y,1/2-x,-z
-x,-y,-z
1/2+y,-x,-z
1/2+x,1/2+y,-z
-y,1/2+x,-z
-x,1/2+y,z
1/2+x,-y,z
-y,-x,z
1/2+y,1/2+x,z
loop_
_atom_site_type_symbol
_atom_site_label
_atom_site_fract_x
_atom_site_fract_y
_atom_site_fract_z
Si Si1 0.056395 0.836687 0.763629
Si Si2 0.494785 0.399253 0.933038
Si Si3 0.102427 0.496537 0.549065
Si Si4 0.754456 0.152848 0.705479
O O1 0.111756 0.888245 0.758105
O O2 0.088986 0.770730 0.771281
O O3 0.017372 0.848699 0.592428
O O4 0.016303 0.850925 0.927567
O O5 0.547407 0.452594 0.929658
O O6 0.489932 0.374824 0.741700
O O7 0.433895 0.433895 0.000000
O O8 0.065049 0.434952 0.500000
O O9 0.050690 0.550690 0.547872
O O10 0.750000 0.150568 0.500000
O O11 0.821815 0.178186 0.752586
O O12 0.705443 0.205443 0.759348
#
# Coordination Sequence:
#
# PCOD9563272 Si02
#       4
#    16  16  16  16
#     4   9  15  22  35  52  68  90 114 141 190 242
#     4   9  14  20  31  49  73  93 106 127 169 237
#     4   9  14  20  31  49  73  93 106 127 169 236
#     4   8  14  25  40  54  66  88 130 178 213 239
#
# _framework density 17.261966999999999
#
# number of rings (size 3 to 8) (size 9 to 14) (size 15 to 20)
#    0.000    3.250    2.500    0.750    0.000    0.000 
#    0.000    0.000    0.000    3.000    0.000   17.500 
#    0.000   12.000    0.000    0.000    0.000    0.000 
#
# Total GULP energy -356645.906827 kJ/mol
# GULP energy per Si atom -5572.592294 kJ/mol
# Density = 1.722268 g / cm^3
# Si number density = 17.261967 Si / 1000 Ang^3
#
#
#
# Elastic Constant Matrix: (Units=GPa)
#
#
# Indices 1 2 3 4 5 6 
#
# 1 45.7742 48.8293 45.0012 0.0000 0.0000 0.0000
# 2 48.8293 45.7744 45.0014 0.0000 0.0000 0.0000
# 3 45.0012 45.0014 143.0871 0.0000 0.0000 0.0000
# 4 0.0000 0.0000 0.0000 3.0699 0.0000 0.0000
# 5 0.0000 0.0000 0.0000 0.0000 3.0697 0.0000
# 6 0.0000 0.0000 0.0000 0.0000 0.0000 43.8841
#
#
#
# Elastic Compliance Matrix: (Units=1/GPa)
#
#
# Indices 1 2 3 4 5 6 
#
# 1 -0.156126 0.171209 -0.004744 0.000000 0.000000 0.000000
# 2 0.171209 -0.156125 -0.004744 0.000000 0.000000 0.000000
# 3 -0.004744 -0.004744 0.009973 0.000000 0.000000 0.000000
# 4 0.000000 0.000000 0.000000 0.325740 0.000000 0.000000
# 5 0.000000 0.000000 0.000000 0.000000 0.325761 0.000000
# 6 0.000000 0.000000 0.000000 0.000000 0.000000 0.022787
#
#
# Mechanical properties :
#
#
# Convention : Reuss Voigt Hill
#
# Bulk Modulus (GPa) = 47.24907 56.92214 52.08561
# Shear Modulus (GPa) = 89.89092 16.39169 53.14130
#
# Velocity S-wave (km/s) = 7.22410 3.08487 5.55446
# Velocity P-wave (km/s) = 9.84960 6.76281 8.44838
#
# Compressibility (1/GPa) = 0.02116444
#
# Stress axis : x y z
#
# Youngs Moduli (GPa) = -6.40510 -6.40513 100.27449
#
# Poissons Ratio (x) = 1.09661 0.47569
# Poissons Ratio (y) = 1.09661 0.47567
# Poissons Ratio (z) = -0.03039 -0.03038
#
# Static dielectric constant tensor:
#      x y z
#    x 1.582730 0.000000 0.000000 
#    y 0.000000 1.582720 0.000000 
#    z 0.000000 0.000000 1.703250 
# 
# From -- ./inp_files/2387.got.cif
#   From: 2010.05.17/outbox.cif.g08.bks.cpg/sg125_2_cif.got.tgz:2387.got - 2010.05.20 11:54:10.
