data_PCOD9563948
_publ_section_title
;
Structure prediction by ZEFSAII (Michael W. Deem and Ramdas Pophale) SiO2 
 PCOD9563948
Probable space group: P 4/M B M
;
_chemical_formula_sum "Si O2"
_cell_formula_units_Z 96
_cell_length_a 14.892433
_cell_length_b 14.892433
_cell_length_c 21.476860
_cell_angle_alpha 90.000000
_cell_angle_beta 90.000000
_cell_angle_gamma 90.000000
_cell_volume 4763.235959
_symmetry_space_group_name_H-M "P 4/M B M"
_symmetry_group_IT_number 127
_symmetry_cell_setting 'tetragonal'
loop_
_space_group_symop_operation_xyz
x,y,z
-y,x,z
-x,-y,z
y,-x,z
1/2+x,1/2-y,-z
1/2-x,1/2+y,-z
1/2+y,1/2+x,-z
1/2-y,1/2-x,-z
-x,-y,-z
y,-x,-z
x,y,-z
-y,x,-z
1/2-x,1/2+y,z
1/2+x,1/2-y,z
1/2-y,1/2-x,z
1/2+y,1/2+x,z
loop_
_atom_site_type_symbol
_atom_site_label
_atom_site_fract_x
_atom_site_fract_y
_atom_site_fract_z
Si Si1 0.741590 0.096676 0.175908
Si Si2 0.477472 0.827629 0.500000
Si Si3 0.681899 0.333006 0.067300
Si Si4 0.983093 0.334747 0.931290
Si Si5 0.763778 0.409316 0.609568
Si Si6 0.653460 0.501160 0.283413
Si Si7 0.820177 0.167252 0.500000
O O1 0.683412 0.183412 0.199714
O O2 0.823495 0.127082 0.130597
O O3 0.678557 0.045767 0.126921
O O4 0.780383 0.028538 0.226787
O O5 0.407453 0.907453 0.500000
O O6 0.535826 0.826226 0.562022
O O7 0.424194 0.733369 0.500000
O O8 0.743323 0.243323 0.066099
O O9 0.751038 0.414565 0.070160
O O10 0.633636 0.339335 0.000000
O O11 0.923331 0.423331 0.926594
O O12 0.025920 0.334392 0.000000
O O13 0.824165 0.324165 0.633176
O O14 0.720349 0.475178 0.660085
O O15 0.684711 0.374145 0.563456
O O16 0.585532 0.586854 0.283495
O O17 0.747150 0.247150 0.500000
#
# Coordination Sequence:
#
# PCOD9563948 Si02
#       7
#    16   8  16  16  16  16   8
#     4  11  22  35  54  79 108 146 191 236 285 344
#     4  10  19  34  60  92 125 155 185 231 287 336
#     4   8  15  30  52  76 102 136 180 229 284 348
#     4   9  18  33  53  78 109 142 178 229 291 348
#     4  10  21  37  59  87 118 154 194 234 280 338
#     4  11  25  43  61  83 114 153 198 245 287 330
#     4   8  16  33  58  88 118 149 187 228 278 342
#
# _framework density 20.154364000000001
#
# number of rings (size 3 to 8) (size 9 to 14) (size 15 to 20)
#    0.000    2.333    0.000    4.250    0.000    4.000 
#    0.000    0.833    0.000    4.000    0.000    7.000 
#    0.000    0.000    0.000    0.000    0.000    0.000 
#
# Total GULP energy -534763.479896 kJ/mol
# GULP energy per Si atom -5570.452916 kJ/mol
# Density = 2.010849 g / cm^3
# Si number density = 20.154364 Si / 1000 Ang^3
#
#
#
# Elastic Constant Matrix: (Units=GPa)
#
#
# Indices 1 2 3 4 5 6 
#
# 1 85.5782 43.6492 58.4741 0.0000 0.0000 0.0000
# 2 43.6492 85.5782 58.4741 0.0000 0.0000 0.0000
# 3 58.4741 58.4741 148.1830 0.0000 0.0000 0.0000
# 4 0.0000 0.0000 0.0000 59.6458 0.0000 0.0000
# 5 0.0000 0.0000 0.0000 0.0000 59.6458 0.0000
# 6 0.0000 0.0000 0.0000 0.0000 0.0000 41.9921
#
#
#
# Elastic Compliance Matrix: (Units=1/GPa)
#
#
# Indices 1 2 3 4 5 6 
#
# 1 0.017943 -0.005907 -0.004750 0.000000 0.000000 0.000000
# 2 -0.005907 0.017943 -0.004750 0.000000 0.000000 0.000000
# 3 -0.004750 -0.004750 0.010497 0.000000 0.000000 0.000000
# 4 0.000000 0.000000 0.000000 0.016766 0.000000 0.000000
# 5 0.000000 0.000000 0.000000 0.000000 0.016766 0.000000
# 6 0.000000 0.000000 0.000000 0.000000 0.000000 0.023814
#
#
# Mechanical properties :
#
#
# Convention : Reuss Voigt Hill
#
# Bulk Modulus (GPa) = 64.22045 71.17049 67.69547
# Shear Modulus (GPa) = 35.78289 42.83953 39.31121
#
# Velocity S-wave (km/s) = 4.21817 4.61539 4.42124
# Velocity P-wave (km/s) = 7.46039 7.98698 7.72817
#
# Compressibility (1/GPa) = 0.01557136
#
# Stress axis : x y z
#
# Youngs Moduli (GPa) = 55.73114 55.73114 95.26515
#
# Poissons Ratio (x) = 0.32918 0.45249
# Poissons Ratio (y) = 0.32918 0.45249
# Poissons Ratio (z) = 0.26471 0.26471
#
# Static dielectric constant tensor:
#      x y z
#    x 1.738170 0.000000 0.000000 
#    y 0.000000 1.738170 0.000000 
#    z 0.000000 0.000000 1.724680 
# 
# From -- ./inp_files/5805.got.cif
#   From: 2010.05.17/outbox.cif.g08.bks.cpg/sg127_3_cif.got.tgz:5805.got - 2010.05.20 12:03:00.
