data_PCOD9563257
_publ_section_title
;
Structure prediction by ZEFSAII (Michael W. Deem and Ramdas Pophale) SiO2 
 PCOD9563257
Probable space group: P 4/N B M
;
_chemical_formula_sum "Si O2"
_cell_formula_units_Z 42
_cell_length_a 13.483271
_cell_length_b 13.483271
_cell_length_c 9.721234
_cell_angle_alpha 90.000000
_cell_angle_beta 90.000000
_cell_angle_gamma 90.000000
_cell_volume 1767.306701
_symmetry_space_group_name_H-M "P 4/N B M"
_symmetry_group_IT_number 125
_space_group.IT_coordinate_system_code '2'
_symmetry_cell_setting 'tetragonal'
loop_
_space_group_symop_operation_xyz
x,y,z
1/2-y,x,z
1/2-x,1/2-y,z
y,1/2-x,z
x,1/2-y,-z
1/2-x,y,-z
y,x,-z
1/2-y,1/2-x,-z
-x,-y,-z
1/2+y,-x,-z
1/2+x,1/2+y,-z
-y,1/2+x,-z
-x,1/2+y,z
1/2+x,-y,z
-y,-x,z
1/2+y,1/2+x,z
loop_
_atom_site_type_symbol
_atom_site_label
_atom_site_fract_x
_atom_site_fract_y
_atom_site_fract_z
Si Si1 0.400327 0.324386 0.794780
Si Si2 0.750000 0.250000 0.500000
Si Si3 0.855462 0.144539 0.239884
Si Si4 0.750000 0.033322 0.000000
Si Si5 0.985909 0.014092 0.657899
O O1 0.293027 0.376520 0.779439
O O2 0.459039 0.331592 0.938696
O O3 0.477302 0.375663 0.692274
O O4 0.814362 0.185639 0.386662
O O5 0.938842 0.061159 0.265854
O O6 0.776648 0.096665 0.134037
O O7 0.000000 0.000000 0.500000
#
# Coordination Sequence:
#
# PCOD9563257 Si02
#       5
#    16   2   8   8   8
#     4  11  25  47  79 118 159 207 262 340 410 478
#     4  12  32  54  76 108 172 218 276 340 416 482
#     4  12  28  48  78 113 155 214 274 337 405 486
#     4  12  24  48  82 112 156 206 278 333 413 482
#     4  12  29  48  76 113 161 209 269 324 409 492
#
# _framework density 23.764976999999998
#
# number of rings (size 3 to 8) (size 9 to 14) (size 15 to 20)
#    0.000    0.381    3.810    3.429    5.333    4.571 
#    0.000    1.905    0.000    0.000    0.000    0.000 
#    0.000    0.000    0.000    0.000    0.000    0.000 
#
# Total GULP energy -234214.153878 kJ/mol
# GULP energy per Si atom -5576.527473 kJ/mol
# Density = 2.371089 g / cm^3
# Si number density = 23.764977 Si / 1000 Ang^3
#
#
#
# Elastic Constant Matrix: (Units=GPa)
#
#
# Indices 1 2 3 4 5 6 
#
# 1 101.0182 74.8194 59.2343 0.0000 0.0000 0.0000
# 2 74.8194 101.0182 59.2343 0.0000 0.0000 0.0000
# 3 59.2343 59.2343 188.4235 0.0000 0.0000 0.0000
# 4 0.0000 0.0000 0.0000 44.1512 0.0000 0.0000
# 5 0.0000 0.0000 0.0000 0.0000 44.1512 0.0000
# 6 0.0000 0.0000 0.0000 0.0000 0.0000 72.5209
#
#
#
# Elastic Compliance Matrix: (Units=1/GPa)
#
#
# Indices 1 2 3 4 5 6 
#
# 1 0.022692 -0.015477 -0.002268 0.000000 0.000000 0.000000
# 2 -0.015477 0.022692 -0.002268 0.000000 0.000000 0.000000
# 3 -0.002268 -0.002268 0.006733 0.000000 0.000000 0.000000
# 4 0.000000 0.000000 0.000000 0.022649 0.000000 0.000000
# 5 0.000000 0.000000 0.000000 0.000000 0.022649 0.000000
# 6 0.000000 0.000000 0.000000 0.000000 0.000000 0.013789
#
#
# Mechanical properties :
#
#
# Convention : Reuss Voigt Hill
#
# Bulk Modulus (GPa) = 82.70703 86.33733 84.52218
# Shear Modulus (GPa) = 32.20326 45.30948 38.75637
#
# Velocity S-wave (km/s) = 3.68512 4.37116 4.04272
# Velocity P-wave (km/s) = 7.27904 7.86667 7.57856
#
# Compressibility (1/GPa) = 0.01209087
#
# Stress axis : x y z
#
# Youngs Moduli (GPa) = 44.06754 44.06754 148.51496
#
# Poissons Ratio (x) = 0.68204 0.33687
# Poissons Ratio (y) = 0.68204 0.33687
# Poissons Ratio (z) = 0.09996 0.09996
#
# Static dielectric constant tensor:
#      x y z
#    x 1.759830 0.000000 0.000000 
#    y 0.000000 1.759830 0.000000 
#    z 0.000000 0.000000 1.929170 
# 
# From -- ./inp_files/1722.got.cif
#   From: 2010.05.17/outbox.cif.g08.bks.cpg/sg125_1_cif.got.tgz:1722.got - 2010.05.20 11:54:10.
