data_PCOD9563230
_publ_section_title
;
Structure prediction by ZEFSAII (Michael W. Deem and Ramdas Pophale) SiO2 
 PCOD9563230
Probable space group: P 4/N B M
;
_chemical_formula_sum "Si O2"
_cell_formula_units_Z 96
_cell_length_a 19.992363
_cell_length_b 19.992363
_cell_length_c 11.376655
_cell_angle_alpha 90.000000
_cell_angle_beta 90.000000
_cell_angle_gamma 90.000000
_cell_volume 4547.187323
_symmetry_space_group_name_H-M "P 4/N B M"
_symmetry_group_IT_number 125
_space_group.IT_coordinate_system_code '2'
_symmetry_cell_setting 'tetragonal'
loop_
_space_group_symop_operation_xyz
x,y,z
1/2-y,x,z
1/2-x,1/2-y,z
y,1/2-x,z
x,1/2-y,-z
1/2-x,y,-z
y,x,-z
1/2-y,1/2-x,-z
-x,-y,-z
1/2+y,-x,-z
1/2+x,1/2+y,-z
-y,1/2+x,-z
-x,1/2+y,z
1/2+x,-y,z
-y,-x,z
1/2+y,1/2+x,z
loop_
_atom_site_type_symbol
_atom_site_label
_atom_site_fract_x
_atom_site_fract_y
_atom_site_fract_z
Si Si1 0.458910 0.429917 0.122689
Si Si2 0.358504 0.247161 0.142053
Si Si3 0.008928 0.617699 0.713633
Si Si4 0.654574 0.455843 0.279559
Si Si5 0.517296 0.266841 0.863348
Si Si6 0.673565 0.940485 0.506972
O O1 0.501821 0.498180 0.115609
O O2 0.414638 0.441143 0.236635
O O3 0.509619 0.373251 0.159432
O O4 0.420976 0.420976 0.000000
O O5 0.317012 0.313608 0.180994
O O6 0.437536 0.243558 0.169672
O O7 0.356368 0.250000 0.000000
O O8 0.061198 0.561198 0.676553
O O9 0.032620 0.656868 0.829571
O O10 0.988780 0.662686 0.605086
O O11 0.603009 0.396992 0.311481
O O12 0.726547 0.437001 0.229452
O O13 0.661434 0.510563 0.381817
O O14 0.526153 0.250000 0.000000
O O15 0.750000 0.915409 0.500000
O O16 0.619179 0.880822 0.500000
#
# Coordination Sequence:
#
# PCOD9563230 Si02
#       6
#    16  16  16  16  16  16
#     4   9  18  33  57  91 127 161 200 254 319 381
#     4   8  16  31  49  73 113 165 212 247 284 349
#     4  11  23  40  64  93 127 168 217 272 325 381
#     4  11  23  40  64  93 127 168 217 272 325 381
#     4  11  23  37  60  94 132 174 213 260 321 391
#     4  12  25  46  71  96 128 170 219 267 319 382
#
# _framework density 21.111951999999999
#
# number of rings (size 3 to 8) (size 9 to 14) (size 15 to 20)
#    0.000    1.667    3.333    2.000    2.333    2.833 
#    0.000    0.000    0.000    0.500    0.000    2.333 
#    0.000    0.000    0.000    0.000    0.000    0.000 
#
# Total GULP energy -535245.537158 kJ/mol
# GULP energy per Si atom -5575.474345 kJ/mol
# Density = 2.106390 g / cm^3
# Si number density = 21.111952 Si / 1000 Ang^3
#
#
#
# Elastic Constant Matrix: (Units=GPa)
#
#
# Indices 1 2 3 4 5 6 
#
# 1 61.1933 38.7877 15.7417 0.0000 0.0000 0.0000
# 2 38.7877 61.1920 15.7415 0.0000 0.0000 0.0000
# 3 15.7417 15.7415 94.8732 0.0000 0.0000 0.0000
# 4 0.0000 0.0000 0.0000 24.0128 0.0000 0.0000
# 5 0.0000 0.0000 0.0000 0.0000 24.0128 0.0000
# 6 0.0000 0.0000 0.0000 0.0000 0.0000 21.9184
#
#
#
# Elastic Compliance Matrix: (Units=1/GPa)
#
#
# Indices 1 2 3 4 5 6 
#
# 1 0.027593 -0.017040 -0.001751 0.000000 0.000000 0.000000
# 2 -0.017040 0.027594 -0.001751 0.000000 0.000000 0.000000
# 3 -0.001751 -0.001751 0.011121 0.000000 0.000000 0.000000
# 4 0.000000 0.000000 0.000000 0.041645 0.000000 0.000000
# 5 0.000000 0.000000 0.000000 0.000000 0.041644 0.000000
# 6 0.000000 0.000000 0.000000 0.000000 0.000000 0.045624
#
#
# Mechanical properties :
#
#
# Convention : Reuss Voigt Hill
#
# Bulk Modulus (GPa) = 39.64476 39.75559 39.70018
# Shear Modulus (GPa) = 20.43215 23.78798 22.11006
#
# Velocity S-wave (km/s) = 3.11432 3.36036 3.23968
# Velocity P-wave (km/s) = 5.63481 5.82475 5.73057
#
# Compressibility (1/GPa) = 0.02522401
#
# Stress axis : x y z
#
# Youngs Moduli (GPa) = 36.24116 36.24041 89.91626
#
# Poissons Ratio (x) = 0.61753 0.15745
# Poissons Ratio (y) = 0.61754 0.15745
# Poissons Ratio (z) = 0.06346 0.06346
#
# Static dielectric constant tensor:
#      x y z
#    x 1.860270 0.000000 0.000000 
#    y 0.000000 1.860270 0.000000 
#    z 0.000000 0.000000 1.789360 
# 
# From -- ./inp_files/4111.got.cif
#   From: 2010.05.17/outbox.cif.g08.bks.cpg/sg125_3_cif.got.tgz:4111.got - 2010.05.20 11:54:10.
