data_PCOD9563679
_publ_section_title
;
Structure prediction by ZEFSAII (Michael W. Deem and Ramdas Pophale) SiO2 
 PCOD9563679
Probable space group: P 4/N N C
;
_chemical_formula_sum "Si O2"
_cell_formula_units_Z 96
_cell_length_a 14.855832
_cell_length_b 14.855832
_cell_length_c 20.220890
_cell_angle_alpha 90.000000
_cell_angle_beta 90.000000
_cell_angle_gamma 90.000000
_cell_volume 4462.664371
_symmetry_space_group_name_H-M "P 4/N N C"
_symmetry_group_IT_number 126
_space_group.IT_coordinate_system_code '2'
_symmetry_cell_setting 'tetragonal'
loop_
_space_group_symop_operation_xyz
x,y,z
1/2-y,x,z
1/2-x,1/2-y,z
y,1/2-x,z
x,1/2-y,1/2-z
1/2-x,y,1/2-z
y,x,1/2-z
1/2-y,1/2-x,1/2-z
-x,-y,-z
1/2+y,-x,-z
1/2+x,1/2+y,-z
-y,1/2+x,-z
-x,1/2+y,1/2+z
1/2+x,-y,1/2+z
-y,-x,1/2+z
1/2+y,1/2+x,1/2+z
loop_
_atom_site_type_symbol
_atom_site_label
_atom_site_fract_x
_atom_site_fract_y
_atom_site_fract_z
Si Si1 0.354220 0.853805 0.232489
Si Si2 0.367884 0.660933 0.016783
Si Si3 0.551209 0.407719 0.356363
Si Si4 0.293384 0.109154 0.396755
Si Si5 0.585917 0.053692 0.397976
Si Si6 0.799850 0.610780 0.444379
O O1 0.371492 0.750000 0.250000
O O2 0.250000 0.870531 0.250000
O O3 0.412975 0.912295 0.282755
O O4 0.378491 0.878520 0.157811
O O5 0.390142 0.631163 0.090935
O O6 0.266705 0.630049 0.997426
O O7 0.431052 0.607744 0.965834
O O8 0.481551 0.325243 0.363139
O O9 0.496384 0.495694 0.376709
O O10 0.358910 0.192864 0.379810
O O11 0.300936 0.098238 0.476154
O O12 0.660507 0.976866 0.410463
O O13 0.861667 0.697563 0.427827
#
# Coordination Sequence:
#
# PCOD9563679 Si02
#       6
#    16  16  16  16  16  16
#     4  11  27  50  68  88 129 181 218 274 340 393
#     4  11  25  42  66 101 136 174 218 273 327 386
#     4  12  25  40  69 100 128 169 226 272 330 389
#     4   9  20  38  64 101 140 173 205 262 339 397
#     4  12  25  40  69 100 128 169 226 272 330 389
#     4   9  20  38  64 101 140 173 205 262 339 397
#
# _framework density 21.511811000000002
#
# number of rings (size 3 to 8) (size 9 to 14) (size 15 to 20)
#    0.000    1.333    1.667    4.000    9.333    2.667 
#    0.000    0.000    0.000    0.000    0.000    0.000 
#    0.000    0.000    0.000    0.000    0.000    0.000 
#
# Total GULP energy -537661.022481 kJ/mol
# GULP energy per Si atom -5600.635651 kJ/mol
# Density = 2.146285 g / cm^3
# Si number density = 21.511811 Si / 1000 Ang^3
#
#
#
# Elastic Constant Matrix: (Units=GPa)
#
#
# Indices 1 2 3 4 5 6 
#
# 1 66.8469 12.7908 0.0954 0.0000 0.0000 0.0000
# 2 12.7908 66.8469 0.0954 0.0000 0.0000 0.0000
# 3 0.0954 0.0954 43.1190 0.0000 0.0000 0.0000
# 4 0.0000 0.0000 0.0000 29.3953 0.0000 0.0000
# 5 0.0000 0.0000 0.0000 0.0000 29.3953 0.0000
# 6 0.0000 0.0000 0.0000 0.0000 0.0000 22.1422
#
#
#
# Elastic Compliance Matrix: (Units=1/GPa)
#
#
# Indices 1 2 3 4 5 6 
#
# 1 0.015528 -0.002971 -0.000028 0.000000 0.000000 0.000000
# 2 -0.002971 0.015528 -0.000028 0.000000 0.000000 0.000000
# 3 -0.000028 -0.000028 0.023192 0.000000 0.000000 0.000000
# 4 0.000000 0.000000 0.000000 0.034019 0.000000 0.000000
# 5 0.000000 0.000000 0.000000 0.000000 0.034019 0.000000
# 6 0.000000 0.000000 0.000000 0.000000 0.000000 0.045163
#
#
# Mechanical properties :
#
#
# Convention : Reuss Voigt Hill
#
# Bulk Modulus (GPa) = 20.74927 22.53068 21.63998
# Shear Modulus (GPa) = 26.37588 27.10864 26.74226
#
# Velocity S-wave (km/s) = 3.50539 3.55374 3.52965
# Velocity P-wave (km/s) = 5.10393 5.22831 5.16649
#
# Compressibility (1/GPa) = 0.04819446
#
# Stress axis : x y z
#
# Youngs Moduli (GPa) = 64.39926 64.39926 43.11876
#
# Poissons Ratio (x) = 0.19134 0.00120
# Poissons Ratio (y) = 0.19134 0.00120
# Poissons Ratio (z) = 0.00179 0.00179
#
# Static dielectric constant tensor:
#      x y z
#    x 1.792190 0.000000 0.000000 
#    y 0.000000 1.792190 0.000000 
#    z 0.000000 0.000000 1.727800 
# 
# From -- ./inp_files/5217.got.cif
#   From: 2010.05.17/outbox.cif.g08.bks.cpg/sg126_3_cif.got.tgz:5217.got - 2010.05.20 11:58:20.
