data_PCOD9563716
_publ_section_title
;
Structure prediction by ZEFSAII (Michael W. Deem and Ramdas Pophale) SiO2 
 PCOD9563716
Probable space group: P 4/N N C
;
_chemical_formula_sum "Si O2"
_cell_formula_units_Z 68
_cell_length_a 12.002253
_cell_length_b 12.002253
_cell_length_c 27.671142
_cell_angle_alpha 90.000000
_cell_angle_beta 90.000000
_cell_angle_gamma 90.000000
_cell_volume 3986.140822
_symmetry_space_group_name_H-M "P 4/N N C"
_symmetry_group_IT_number 126
_space_group.IT_coordinate_system_code '2'
_symmetry_cell_setting 'tetragonal'
loop_
_space_group_symop_operation_xyz
x,y,z
1/2-y,x,z
1/2-x,1/2-y,z
y,1/2-x,z
x,1/2-y,1/2-z
1/2-x,y,1/2-z
y,x,1/2-z
1/2-y,1/2-x,1/2-z
-x,-y,-z
1/2+y,-x,-z
1/2+x,1/2+y,-z
-y,1/2+x,-z
-x,1/2+y,1/2+z
1/2+x,-y,1/2+z
-y,-x,1/2+z
1/2+y,1/2+x,1/2+z
loop_
_atom_site_type_symbol
_atom_site_label
_atom_site_fract_x
_atom_site_fract_y
_atom_site_fract_z
Si Si1 0.250000 0.250000 0.556514
Si Si2 0.123933 0.390294 0.195786
Si Si3 0.514173 0.237552 0.945178
Si Si4 0.898946 0.017921 0.600239
Si Si5 0.839434 0.453813 0.554879
O O1 0.385888 0.227235 0.556054
O O2 0.099854 0.258347 0.191241
O O3 0.083169 0.416832 0.250000
O O4 0.078338 0.466732 0.153057
O O5 0.541130 0.134300 0.910194
O O6 0.593596 0.341652 0.933605
O O7 0.544903 0.198718 0.999438
O O8 0.768770 0.033498 0.588400
O O9 0.945033 0.924466 0.563552
#
# Coordination Sequence:
#
# PCOD9563716 Si02
#       5
#     4  16  16  16  16
#     4  12  24  40  60  76 109 168 217 240 280 352
#     4   9  18  35  58  88 121 149 187 246 313 367
#     4  12  24  42  54  83 123 170 203 246 292 353
#     4  12  22  36  62  89 117 158 203 246 299 366
#     4  12  24  38  57  84 125 163 202 242 296 355
#
# _framework density 17.059107000000001
#
# number of rings (size 3 to 8) (size 9 to 14) (size 15 to 20)
#    0.000    0.706    7.059    3.529    0.000    0.471 
#    0.000    0.000    0.000    1.412    0.000    0.824 
#    0.000    0.000    0.000    0.000    0.000    0.000 
#
# Total GULP energy -378711.190074 kJ/mol
# GULP energy per Si atom -5569.282207 kJ/mol
# Density = 1.702028 g / cm^3
# Si number density = 17.059107 Si / 1000 Ang^3
#
#
#
# Elastic Constant Matrix: (Units=GPa)
#
#
# Indices 1 2 3 4 5 6 
#
# 1 90.9194 31.1435 25.4692 0.0000 0.0000 0.0000
# 2 31.1435 90.9192 25.4692 0.0000 0.0000 0.0000
# 3 25.4692 25.4692 90.6493 0.0000 0.0000 0.0000
# 4 0.0000 0.0000 0.0000 16.5481 0.0000 0.0000
# 5 0.0000 0.0000 0.0000 0.0000 16.5483 0.0000
# 6 0.0000 0.0000 0.0000 0.0000 0.0000 36.0843
#
#
#
# Elastic Compliance Matrix: (Units=1/GPa)
#
#
# Indices 1 2 3 4 5 6 
#
# 1 0.013005 -0.003724 -0.002608 0.000000 0.000000 0.000000
# 2 -0.003724 0.013005 -0.002608 0.000000 0.000000 0.000000
# 3 -0.002608 -0.002608 0.012497 0.000000 0.000000 0.000000
# 4 0.000000 0.000000 0.000000 0.060430 0.000000 0.000000
# 5 0.000000 0.000000 0.000000 0.000000 0.060429 0.000000
# 6 0.000000 0.000000 0.000000 0.000000 0.000000 0.027713
#
#
# Mechanical properties :
#
#
# Convention : Reuss Voigt Hill
#
# Bulk Modulus (GPa) = 48.47788 48.51685 48.49737
# Shear Modulus (GPa) = 23.60348 26.52986 25.06667
#
# Velocity S-wave (km/s) = 3.72375 3.94785 3.83744
# Velocity P-wave (km/s) = 6.85330 7.02017 6.93724
#
# Compressibility (1/GPa) = 0.02062796
#
# Stress axis : x y z
#
# Youngs Moduli (GPa) = 76.89404 76.89390 80.02068
#
# Poissons Ratio (x) = 0.28637 0.20866
# Poissons Ratio (y) = 0.28637 0.20866
# Poissons Ratio (z) = 0.20050 0.20050
#
# Static dielectric constant tensor:
#      x y z
#    x 1.582890 0.000000 0.000000 
#    y 0.000000 1.582890 0.000000 
#    z 0.000000 0.000000 1.594700 
# 
# From -- ./inp_files/6113.got.cif
#   From: 2010.05.17/outbox.cif.g08.bks.cpg/sg126_4_cif.got.tgz:6113.got - 2010.05.20 11:58:20.
