data_PCOD9563487
_publ_section_title
;
Structure prediction by ZEFSAII (Michael W. Deem and Ramdas Pophale) SiO2 
 PCOD9563487
Probable space group: P 4/N N C
;
_chemical_formula_sum "Si O2"
_cell_formula_units_Z 72
_cell_length_a 10.426847
_cell_length_b 10.426847
_cell_length_c 34.858216
_cell_angle_alpha 90.000000
_cell_angle_beta 90.000000
_cell_angle_gamma 90.000000
_cell_volume 3789.755208
_symmetry_space_group_name_H-M "P 4/N N C"
_symmetry_group_IT_number 126
_space_group.IT_coordinate_system_code '2'
_symmetry_cell_setting 'tetragonal'
loop_
_space_group_symop_operation_xyz
x,y,z
1/2-y,x,z
1/2-x,1/2-y,z
y,1/2-x,z
x,1/2-y,1/2-z
1/2-x,y,1/2-z
y,x,1/2-z
1/2-y,1/2-x,1/2-z
-x,-y,-z
1/2+y,-x,-z
1/2+x,1/2+y,-z
-y,1/2+x,-z
-x,1/2+y,1/2+z
1/2+x,-y,1/2+z
-y,-x,1/2+z
1/2+y,1/2+x,1/2+z
loop_
_atom_site_type_symbol
_atom_site_label
_atom_site_fract_x
_atom_site_fract_y
_atom_site_fract_z
Si Si1 0.954247 0.301096 0.990536
Si Si2 0.784755 0.399066 0.088021
Si Si3 0.967229 0.755901 0.333618
Si Si4 0.849879 0.569833 0.567564
Si Si5 0.032406 0.250000 0.750000
O O1 0.981283 0.283194 0.945686
O O2 0.897701 0.164818 0.004433
O O3 0.058571 0.345129 0.021127
O O4 0.750000 0.250000 0.080538
O O5 0.743743 0.440970 0.130034
O O6 0.938340 0.408465 0.082934
O O7 0.869799 0.876048 0.335731
O O8 0.033505 0.753602 0.291572
O O9 0.918559 0.700449 0.579592
O O10 0.127617 0.127617 0.750000
#
# Coordination Sequence:
#
# PCOD9563487 Si02
#       5
#    16  16  16  16   8
#     4   9  16  33  48  66  93 130 172 212 265 298
#     4  11  21  33  52  77 108 135 174 221 265 304
#     4   9  19  33  55  83 107 135 169 210 265 318
#     4  10  22  36  51  71 100 143 184 214 258 314
#     4   7  12  30  53  76 108 136 159 201 264 320
#
# _framework density 18.998588999999999
#
# number of rings (size 3 to 8) (size 9 to 14) (size 15 to 20)
#    0.000    2.556    4.444    1.333    3.111    5.333 
#    0.000    2.778    0.000    0.000    0.000    0.000 
#    0.000    0.000    0.000    0.000    0.000    0.000 
#
# Total GULP energy -401631.269329 kJ/mol
# GULP energy per Si atom -5578.212074 kJ/mol
# Density = 1.895535 g / cm^3
# Si number density = 18.998589 Si / 1000 Ang^3
#
#
#
# Elastic Constant Matrix: (Units=GPa)
#
#
# Indices 1 2 3 4 5 6 
#
# 1 24.5927 12.7240 2.7516 0.0000 0.0000 0.0000
# 2 12.7240 24.5927 2.7516 0.0000 0.0000 0.0000
# 3 2.7516 2.7516 145.4267 0.0000 0.0000 0.0000
# 4 0.0000 0.0000 0.0000 23.5277 0.0000 0.0000
# 5 0.0000 0.0000 0.0000 0.0000 23.5277 0.0000
# 6 0.0000 0.0000 0.0000 0.0000 0.0000 -7.2865
#
#
#
# Elastic Compliance Matrix: (Units=1/GPa)
#
#
# Indices 1 2 3 4 5 6 
#
# 1 0.055564 -0.028691 -0.000508 0.000000 0.000000 0.000000
# 2 -0.028691 0.055564 -0.000508 0.000000 0.000000 0.000000
# 3 -0.000508 -0.000508 0.006896 0.000000 0.000000 0.000000
# 4 0.000000 0.000000 0.000000 0.042503 0.000000 0.000000
# 5 0.000000 0.000000 0.000000 0.000000 0.042503 0.000000
# 6 0.000000 0.000000 0.000000 0.000000 0.000000 -0.137240
#
#
# Mechanical properties :
#
#
# Convention : Reuss Voigt Hill
#
# Bulk Modulus (GPa) = 17.06280 25.67407 21.36843
# Shear Modulus (GPa) = 34.54434 19.71275 27.12855
#
# Velocity S-wave (km/s) = 4.26873 3.22466 3.78289
# Velocity P-wave (km/s) = 5.77033 5.23522 5.50928
#
# Compressibility (1/GPa) = 0.05860702
#
# Stress axis : x y z
#
# Youngs Moduli (GPa) = 17.99730 17.99730 145.02087
#
# Poissons Ratio (x) = 0.51636 0.07374
# Poissons Ratio (y) = 0.51636 0.07374
# Poissons Ratio (z) = 0.00915 0.00915
#
# Static dielectric constant tensor:
#      x y z
#    x 1.684750 0.000000 0.000000 
#    y 0.000000 1.684750 0.000000 
#    z 0.000000 0.000000 1.692780 
# 
# From -- ./inp_files/6106.got.cif
#   From: 2010.05.17/outbox.cif.g08.bks.cpg/sg126_4_cif.got.tgz:6106.got - 2010.05.20 11:58:20.
