data_PCOD9563208
_publ_section_title
;
Structure prediction by ZEFSAII (Michael W. Deem and Ramdas Pophale) SiO2 
 PCOD9563208
Probable space group: P 4/N B M
;
_chemical_formula_sum "Si O2"
_cell_formula_units_Z 128
_cell_length_a 19.617498
_cell_length_b 19.617498
_cell_length_c 21.035768
_cell_angle_alpha 90.000000
_cell_angle_beta 90.000000
_cell_angle_gamma 90.000000
_cell_volume 8095.535963
_symmetry_space_group_name_H-M "P 4/N B M"
_symmetry_group_IT_number 125
_space_group.IT_coordinate_system_code '2'
_symmetry_cell_setting 'tetragonal'
loop_
_space_group_symop_operation_xyz
x,y,z
1/2-y,x,z
1/2-x,1/2-y,z
y,1/2-x,z
x,1/2-y,-z
1/2-x,y,-z
y,x,-z
1/2-y,1/2-x,-z
-x,-y,-z
1/2+y,-x,-z
1/2+x,1/2+y,-z
-y,1/2+x,-z
-x,1/2+y,z
1/2+x,-y,z
-y,-x,z
1/2+y,1/2+x,z
loop_
_atom_site_type_symbol
_atom_site_label
_atom_site_fract_x
_atom_site_fract_y
_atom_site_fract_z
Si Si1 0.598042 0.519005 0.821301
Si Si2 0.019004 0.098043 0.678697
Si Si3 0.585870 0.531478 0.063973
Si Si4 0.081708 0.804273 0.556833
Si Si5 0.031479 0.085869 0.436027
Si Si6 0.918292 0.304272 0.943166
Si Si7 0.290088 0.594188 0.323560
Si Si8 0.209911 0.594187 0.823558
O O1 0.537668 0.462333 0.820963
O O2 0.602062 0.547654 0.749999
O O3 0.578551 0.572813 0.874936
O O4 0.665685 0.474661 0.834248
O O5 0.072812 0.078552 0.625063
O O6 0.974659 0.165685 0.665750
O O7 0.962332 0.037669 0.679036
O O8 0.526373 0.473628 0.065275
O O9 0.655565 0.489506 0.062938
O O10 0.573849 0.573849 0.000000
O O11 0.079507 0.750000 0.500000
O O12 0.140012 0.859989 0.542555
O O13 0.098117 0.767309 0.623297
O O14 0.010495 0.844437 0.562937
O O15 0.073849 0.073849 0.500000
O O16 0.973629 0.026372 0.434725
O O17 0.859989 0.359989 0.957441
O O18 0.901884 0.267307 0.876702
O O19 0.920491 0.250000 0.000000
O O20 0.342959 0.657042 0.330276
O O21 0.266146 0.594163 0.250001
O O22 0.157039 0.657039 0.830273
#
# Coordination Sequence:
#
# PCOD9563208 Si02
#       8
#    16  16  16  16  16  16  16  16
#     4   8  14  27  47  66  84 110 144 183 229 273
#     4   8  14  27  47  66  84 110 144 183 229 273
#     4   9  17  29  45  63  83 110 146 190 236 271
#     4  11  22  32  44  64  92 126 160 191 220 256
#     4   9  17  29  45  63  83 110 146 190 236 271
#     4  11  22  32  44  64  92 126 160 191 220 256
#     4   9  18  32  48  66  92 126 157 183 215 260
#     4   9  18  32  48  66  92 126 157 183 215 260
#
# _framework density 15.811183
#
# number of rings (size 3 to 8) (size 9 to 14) (size 15 to 20)
#    0.000    2.750    0.000    3.750    0.000    7.250 
#    0.000    3.750    0.000    0.000    0.000    0.000 
#    0.000   23.500    0.000   22.000    0.000    2.000 
#
# Total GULP energy -713241.956903 kJ/mol
# GULP energy per Si atom -5572.202788 kJ/mol
# Density = 1.577520 g / cm^3
# Si number density = 15.811183 Si / 1000 Ang^3
#
#
#
# Elastic Constant Matrix: (Units=GPa)
#
#
# Indices 1 2 3 4 5 6 
#
# 1 10.1002 19.1896 11.1406 0.0000 0.0000 0.0000
# 2 19.1896 10.1002 11.1406 0.0000 0.0000 0.0000
# 3 11.1406 11.1406 53.9324 0.0000 0.0000 0.0000
# 4 0.0000 0.0000 0.0000 24.3514 0.0000 0.0000
# 5 0.0000 0.0000 0.0000 0.0000 24.3514 0.0000
# 6 0.0000 0.0000 0.0000 0.0000 0.0000 8.9182
#
#
#
# Elastic Compliance Matrix: (Units=1/GPa)
#
#
# Indices 1 2 3 4 5 6 
#
# 1 -0.034756 0.075262 -0.008367 0.000000 0.000000 0.000000
# 2 0.075262 -0.034756 -0.008367 0.000000 0.000000 0.000000
# 3 -0.008367 -0.008367 0.021999 0.000000 0.000000 0.000000
# 4 0.000000 0.000000 0.000000 0.041065 0.000000 0.000000
# 5 0.000000 0.000000 0.000000 0.000000 0.041065 0.000000
# 6 0.000000 0.000000 0.000000 0.000000 0.000000 0.112130
#
#
# Mechanical properties :
#
#
# Convention : Reuss Voigt Hill
#
# Bulk Modulus (GPa) = 14.37967 17.45272 15.91620
# Shear Modulus (GPa) = 94.56517 13.70167 54.13342
#
# Velocity S-wave (km/s) = 7.74202 2.94697 5.85762
# Velocity P-wave (km/s) = 9.43572 4.75833 7.47243
#
# Compressibility (1/GPa) = 0.06954262
#
# Stress axis : x y z
#
# Youngs Moduli (GPa) = -28.77234 -28.77234 45.45753
#
# Poissons Ratio (x) = 2.16547 0.38036
# Poissons Ratio (y) = 2.16547 0.38036
# Poissons Ratio (z) = -0.24075 -0.24075
#
# Static dielectric constant tensor:
#      x y z
#    x 1.512300 0.000000 0.000000 
#    y 0.000000 1.512300 0.000000 
#    z 0.000000 0.000000 1.542710 
# 
# From -- ./inp_files/5620.got.cif
#   From: 2010.05.17/outbox.cif.g08.bks.cpg/sg125_3_cif.got.tgz:5620.got - 2010.05.20 11:54:10.
