data_PCOD9563040
_publ_section_title
;
Structure prediction by ZEFSAII (Michael W. Deem and Ramdas Pophale) SiO2 
 PCOD9563040
Probable space group: P 4/N B M
;
_chemical_formula_sum "Si O2"
_cell_formula_units_Z 96
_cell_length_a 19.874025
_cell_length_b 19.874025
_cell_length_c 13.595508
_cell_angle_alpha 90.000000
_cell_angle_beta 90.000000
_cell_angle_gamma 90.000000
_cell_volume 5369.911192
_symmetry_space_group_name_H-M "P 4/N B M"
_symmetry_group_IT_number 125
_space_group.IT_coordinate_system_code '2'
_symmetry_cell_setting 'tetragonal'
loop_
_space_group_symop_operation_xyz
x,y,z
1/2-y,x,z
1/2-x,1/2-y,z
y,1/2-x,z
x,1/2-y,-z
1/2-x,y,-z
y,x,-z
1/2-y,1/2-x,-z
-x,-y,-z
1/2+y,-x,-z
1/2+x,1/2+y,-z
-y,1/2+x,-z
-x,1/2+y,z
1/2+x,-y,z
-y,-x,z
1/2+y,1/2+x,z
loop_
_atom_site_type_symbol
_atom_site_label
_atom_site_fract_x
_atom_site_fract_y
_atom_site_fract_z
Si Si1 0.362158 0.246407 0.204020
Si Si2 0.416128 0.027961 0.602733
Si Si3 0.250000 0.441991 0.000000
Si Si4 0.146358 0.750000 0.000000
Si Si5 0.038842 0.240338 0.611136
Si Si6 0.514922 0.126481 0.693848
Si Si7 0.651480 0.455197 0.080093
O O1 0.316873 0.312765 0.206879
O O2 0.408558 0.245913 0.299979
O O3 0.400975 0.244964 0.100595
O O4 0.435446 0.064555 0.500000
O O5 0.337177 0.014252 0.614080
O O6 0.447965 0.081481 0.678811
O O7 0.460116 0.960116 0.607855
O O8 0.317435 0.487285 0.988249
O O9 0.100571 0.789393 0.923497
O O10 0.194521 0.805480 0.048037
O O11 0.066093 0.250000 0.500000
O O12 0.989491 0.303818 0.633180
O O13 0.577624 0.077624 0.665097
O O14 0.521114 0.142417 0.808929
O O15 0.583560 0.416441 0.047692
#
# Coordination Sequence:
#
# PCOD9563040 Si02
#       7
#    16  16   8   8  16  16  16
#     4  11  25  41  58  84 119 159 202 248 305 370
#     4  10  21  38  61  88 122 161 202 247 305 369
#     4  11  20  38  62  82 116 165 202 242 300 373
#     4   8  14  27  50  79 112 148 190 244 298 350
#     4  12  23  37  63  94 119 155 204 257 301 356
#     4  10  20  38  60  86 121 163 202 246 306 369
#     4   9  18  33  56  85 114 153 202 248 297 354
#
# _framework density 17.877390999999999
#
# number of rings (size 3 to 8) (size 9 to 14) (size 15 to 20)
#    0.000    1.750    3.333    1.500    0.000    0.667 
#    0.000    2.500    0.000    4.500    0.000    1.167 
#    0.000    0.000    0.000    0.000    0.000    0.000 
#
# Total GULP energy -534846.939552 kJ/mol
# GULP energy per Si atom -5571.322287 kJ/mol
# Density = 1.783670 g / cm^3
# Si number density = 17.877391 Si / 1000 Ang^3
#
#
#
# Elastic Constant Matrix: (Units=GPa)
#
#
# Indices 1 2 3 4 5 6 
#
# 1 112.3509 52.9475 49.0049 0.0000 0.0000 0.0000
# 2 52.9475 112.3513 49.0051 0.0000 0.0000 0.0000
# 3 49.0049 49.0051 116.0529 0.0000 0.0000 0.0000
# 4 0.0000 0.0000 0.0000 16.7433 0.0000 0.0000
# 5 0.0000 0.0000 0.0000 0.0000 16.7424 0.0000
# 6 0.0000 0.0000 0.0000 0.0000 0.0000 -170.7489
#
#
#
# Elastic Compliance Matrix: (Units=1/GPa)
#
#
# Indices 1 2 3 4 5 6 
#
# 1 0.012452 -0.004382 -0.003408 0.000000 0.000000 0.000000
# 2 -0.004382 0.012452 -0.003408 0.000000 0.000000 0.000000
# 3 -0.003408 -0.003408 0.011495 0.000000 0.000000 0.000000
# 4 0.000000 0.000000 0.000000 0.059725 0.000000 0.000000
# 5 0.000000 0.000000 0.000000 0.000000 0.059729 0.000000
# 6 0.000000 0.000000 0.000000 0.000000 0.000000 -0.005857
#
#
# Mechanical properties :
#
#
# Convention : Reuss Voigt Hill
#
# Bulk Modulus (GPa) = 71.40772 71.40778 71.40775
# Shear Modulus (GPa) = 28.23913 -14.79948 6.71983
#
# Velocity S-wave (km/s) = 3.97873 -2.88033 1.94088
# Velocity P-wave (km/s) = 7.81900 5.38220 6.71211
#
# Compressibility (1/GPa) = 0.01400409
#
# Stress axis : x y z
#
# Youngs Moduli (GPa) = 80.30751 80.30774 86.99646
#
# Poissons Ratio (x) = 0.35190 0.29646
# Poissons Ratio (y) = 0.35190 0.29646
# Poissons Ratio (z) = 0.27367 0.27367
#
# Static dielectric constant tensor:
#      x y z
#    x 1.640390 0.000000 0.000000 
#    y 0.000000 1.640390 0.000000 
#    z 0.000000 0.000000 1.592700 
# 
# From -- ./inp_files/4215.got.cif
#   From: 2010.05.17/outbox.cif.g08.bks.cpg/sg125_3_cif.got.tgz:4215.got - 2010.05.20 11:54:10.
