data_PCOD9563965
_publ_section_title
;
Structure prediction by ZEFSAII (Michael W. Deem and Ramdas Pophale) SiO2 
 PCOD9563965
Probable space group: P 4/M B M
;
_chemical_formula_sum "Si O2"
_cell_formula_units_Z 50
_cell_length_a 21.451680
_cell_length_b 21.451680
_cell_length_c 5.369968
_cell_angle_alpha 90.000000
_cell_angle_beta 90.000000
_cell_angle_gamma 90.000000
_cell_volume 2471.122741
_symmetry_space_group_name_H-M "P 4/M B M"
_symmetry_group_IT_number 127
_symmetry_cell_setting 'tetragonal'
loop_
_space_group_symop_operation_xyz
x,y,z
-y,x,z
-x,-y,z
y,-x,z
1/2+x,1/2-y,-z
1/2-x,1/2+y,-z
1/2+y,1/2+x,-z
1/2-y,1/2-x,-z
-x,-y,-z
y,-x,-z
x,y,-z
-y,x,-z
1/2-x,1/2+y,z
1/2+x,1/2-y,z
1/2-y,1/2-x,z
1/2+y,1/2+x,z
loop_
_atom_site_type_symbol
_atom_site_label
_atom_site_fract_x
_atom_site_fract_y
_atom_site_fract_z
Si Si1 0.089907 0.208835 0.000000
Si Si2 0.956556 0.281353 0.000000
Si Si3 0.152811 0.078526 0.000000
Si Si4 0.100777 0.027383 0.500000
Si Si5 0.121689 0.274949 0.500000
Si Si6 0.509392 0.848417 0.500000
Si Si7 0.500000 0.000000 0.500000
O O1 0.104069 0.135530 0.000000
O O2 0.120537 0.234000 0.747556
O O3 0.021224 0.240618 0.000000
O O4 0.957452 0.323264 0.248493
O O5 0.905349 0.226287 0.000000
O O6 0.139136 0.040486 0.748301
O O7 0.041718 0.073461 0.500000
O O8 0.179670 0.320331 0.500000
O O9 0.058820 0.316497 0.500000
O O10 0.501017 0.922551 0.500000
#
# Coordination Sequence:
#
# PCOD9563965 Si02
#       7
#     8   8   8   8   8   8   2
#     4  10  21  34  60  87 112 164 212 244 303 368
#     4  10  22  40  59  89 133 159 204 258 302 360
#     4  12  22  38  60  82 127 173 214 250 315 373
#     4  11  22  34  54  86 121 162 220 274 306 339
#     4  10  19  38  59  88 116 143 196 268 303 352
#     4  10  23  39  66  97 121 153 190 249 325 377
#     4  12  24  46  76 102 120 154 196 250 324 422
#
# _framework density 20.233719000000001
#
# number of rings (size 3 to 8) (size 9 to 14) (size 15 to 20)
#    0.000    1.440    0.800    5.280    0.000    5.760 
#    0.000    0.000   10.560    0.000    0.000    0.000 
#    0.000    0.000    0.000    0.000    0.000    0.000 
#
# Total GULP energy -278775.692209 kJ/mol
# GULP energy per Si atom -5575.513844 kJ/mol
# Density = 2.018767 g / cm^3
# Si number density = 20.233719 Si / 1000 Ang^3
#
#
#
# Elastic Constant Matrix: (Units=GPa)
#
#
# Indices 1 2 3 4 5 6 
#
# 1 62.4764 17.4188 43.3406 0.0000 0.0000 0.0000
# 2 17.4188 62.4761 43.3405 0.0000 0.0000 0.0000
# 3 43.3406 43.3405 199.4380 0.0000 0.0000 0.0000
# 4 0.0000 0.0000 0.0000 8.9896 0.0000 0.0000
# 5 0.0000 0.0000 0.0000 0.0000 8.9887 0.0000
# 6 0.0000 0.0000 0.0000 0.0000 0.0000 27.1722
#
#
#
# Elastic Compliance Matrix: (Units=1/GPa)
#
#
# Indices 1 2 3 4 5 6 
#
# 1 0.019286 -0.002908 -0.003559 0.000000 0.000000 0.000000
# 2 -0.002908 0.019286 -0.003559 0.000000 0.000000 0.000000
# 3 -0.003559 -0.003559 0.006561 0.000000 0.000000 0.000000
# 4 0.000000 0.000000 0.000000 0.111239 0.000000 0.000000
# 5 0.000000 0.000000 0.000000 0.000000 0.111251 0.000000
# 6 0.000000 0.000000 0.000000 0.000000 0.000000 0.036802
#
#
# Mechanical properties :
#
#
# Convention : Reuss Voigt Hill
#
# Bulk Modulus (GPa) = 39.87210 59.17668 49.52439
# Shear Modulus (GPa) = 15.02233 23.71614 19.36924
#
# Velocity S-wave (km/s) = 2.72773 3.42732 3.09734
# Velocity P-wave (km/s) = 5.44695 6.70613 6.10907
#
# Compressibility (1/GPa) = 0.02508020
#
# Stress axis : x y z
#
# Youngs Moduli (GPa) = 51.85157 51.85130 152.41629
#
# Poissons Ratio (x) = 0.15078 0.54247
# Poissons Ratio (y) = 0.15078 0.54247
# Poissons Ratio (z) = 0.18455 0.18455
#
# Static dielectric constant tensor:
#      x y z
#    x 1.707650 0.000000 0.000000 
#    y 0.000000 1.707650 0.000000 
#    z 0.000000 0.000000 1.693850 
# 
# From -- ./inp_files/280.got.cif
#   From: 2010.05.17/outbox.cif.g08.bks.cpg/sg127_1_cif.got.tgz:280.got - 2010.05.20 12:03:00.
