data_PCOD9563833
_publ_section_title
;
Structure prediction by ZEFSAII (Michael W. Deem and Ramdas Pophale) SiO2 
 PCOD9563833
Probable space group: P 4/M B M
;
_chemical_formula_sum "Si O2"
_cell_formula_units_Z 104
_cell_length_a 14.866787
_cell_length_b 14.866787
_cell_length_c 27.516082
_cell_angle_alpha 90.000000
_cell_angle_beta 90.000000
_cell_angle_gamma 90.000000
_cell_volume 6081.641747
_symmetry_space_group_name_H-M "P 4/M B M"
_symmetry_group_IT_number 127
_symmetry_cell_setting 'tetragonal'
loop_
_space_group_symop_operation_xyz
x,y,z
-y,x,z
-x,-y,z
y,-x,z
1/2+x,1/2-y,-z
1/2-x,1/2+y,-z
1/2+y,1/2+x,-z
1/2-y,1/2-x,-z
-x,-y,-z
y,-x,-z
x,y,-z
-y,x,-z
1/2-x,1/2+y,z
1/2+x,1/2-y,z
1/2-y,1/2-x,z
1/2+y,1/2+x,z
loop_
_atom_site_type_symbol
_atom_site_label
_atom_site_fract_x
_atom_site_fract_y
_atom_site_fract_z
Si Si1 0.850036 0.014472 0.443268
Si Si2 0.134980 0.928513 0.893467
Si Si3 0.071437 0.134516 0.000000
Si Si4 0.920888 0.727598 0.360597
Si Si5 0.884336 0.096351 0.295543
Si Si6 0.768168 0.115912 0.204800
Si Si7 0.506021 0.853065 0.734015
O O1 0.824045 0.016928 0.500000
O O2 0.905681 0.922755 0.434912
O O3 0.768531 0.028690 0.406681
O O4 0.174647 0.907330 0.947164
O O5 0.196044 0.897196 0.849209
O O6 0.035889 0.883439 0.889990
O O7 0.964432 0.116093 0.000000
O O8 0.849793 0.650208 0.373182
O O9 0.869747 0.810865 0.333931
O O10 0.987254 0.688321 0.319121
O O11 0.850485 0.125528 0.242506
O O12 0.987936 0.119989 0.301805
O O13 0.699067 0.199067 0.208822
O O14 0.716485 0.027430 0.225263
O O15 0.434006 0.934006 0.737718
O O16 0.604065 0.895936 0.739613
#
# Coordination Sequence:
#
# PCOD9563833 Si02
#       7
#    16  16   8  16  16  16  16
#     4   9  18  34  54  72  92 121 155 188 226 275
#     4   9  16  29  48  68  90 117 151 188 231 279
#     4   7  12  24  45  68  86 111 149 189 224 271
#     4  10  19  31  49  73  99 122 149 190 232 269
#     4  10  19  32  49  66  88 121 158 192 230 277
#     4  10  19  30  44  67  97 122 151 192 232 270
#     4   8  16  32  49  63  86 124 161 184 210 259
#
# _framework density 17.100646000000001
#
# number of rings (size 3 to 8) (size 9 to 14) (size 15 to 20)
#    0.000    2.846    0.000    4.615    0.000    2.769 
#    0.000   14.231    0.000    1.385    0.000    3.769 
#    0.000    2.462    0.000    0.000    0.000    0.000 
#
# Total GULP energy -579347.011535 kJ/mol
# GULP energy per Si atom -5570.644342 kJ/mol
# Density = 1.706172 g / cm^3
# Si number density = 17.100646 Si / 1000 Ang^3
#
#
#
# Elastic Constant Matrix: (Units=GPa)
#
#
# Indices 1 2 3 4 5 6 
#
# 1 29.0072 -0.9186 -13.1467 0.0000 0.0000 0.0000
# 2 -0.9186 29.0072 -13.1467 0.0000 0.0000 0.0000
# 3 -13.1467 -13.1467 42.0629 0.0000 0.0000 0.0000
# 4 0.0000 0.0000 0.0000 19.9324 0.0000 0.0000
# 5 0.0000 0.0000 0.0000 0.0000 19.9324 0.0000
# 6 0.0000 0.0000 0.0000 0.0000 0.0000 15.5451
#
#
#
# Elastic Compliance Matrix: (Units=1/GPa)
#
#
# Indices 1 2 3 4 5 6 
#
# 1 0.041871 0.008455 0.015729 0.000000 0.000000 0.000000
# 2 0.008455 0.041871 0.015729 0.000000 0.000000 0.000000
# 3 0.015729 0.015729 0.033606 0.000000 0.000000 0.000000
# 4 0.000000 0.000000 0.000000 0.050170 0.000000 0.000000
# 5 0.000000 0.000000 0.000000 0.000000 0.050170 0.000000
# 6 0.000000 0.000000 0.000000 0.000000 0.000000 0.064329
#
#
# Mechanical properties :
#
#
# Convention : Reuss Voigt Hill
#
# Bulk Modulus (GPa) = 5.07165 5.07258 5.07211
# Shear Modulus (GPa) = 18.66271 19.56795 19.11533
#
# Velocity S-wave (km/s) = 3.30714 3.38639 3.34700
# Velocity P-wave (km/s) = 4.18988 4.27352 4.23190
#
# Compressibility (1/GPa) = 0.19717442
#
# Stress axis : x y z
#
# Youngs Moduli (GPa) = 23.88299 23.88299 29.75639
#
# Poissons Ratio (x) = -0.20193 -0.46805
# Poissons Ratio (y) = -0.20193 -0.46805
# Poissons Ratio (z) = -0.37566 -0.37566
#
# Static dielectric constant tensor:
#      x y z
#    x 1.595530 0.000000 0.000000 
#    y 0.000000 1.595530 0.000000 
#    z 0.000000 0.000000 1.596330 
# 
# From -- ./inp_files/6196.got.cif
#   From: 2010.05.17/outbox.cif.g08.bks.cpg/sg127_4_cif.got.tgz:6196.got - 2010.05.20 12:03:00.
