data_PCOD9563363
_publ_section_title
;
Structure prediction by ZEFSAII (Michael W. Deem and Ramdas Pophale) SiO2 
 PCOD9563363
Probable space group: P 4/N N C
;
_chemical_formula_sum "Si O2"
_cell_formula_units_Z 96
_cell_length_a 19.898546
_cell_length_b 19.898546
_cell_length_c 13.396402
_cell_angle_alpha 90.000000
_cell_angle_beta 90.000000
_cell_angle_gamma 90.000000
_cell_volume 5304.333945
_symmetry_space_group_name_H-M "P 4/N N C"
_symmetry_group_IT_number 126
_space_group.IT_coordinate_system_code '2'
_symmetry_cell_setting 'tetragonal'
loop_
_space_group_symop_operation_xyz
x,y,z
1/2-y,x,z
1/2-x,1/2-y,z
y,1/2-x,z
x,1/2-y,1/2-z
1/2-x,y,1/2-z
y,x,1/2-z
1/2-y,1/2-x,1/2-z
-x,-y,-z
1/2+y,-x,-z
1/2+x,1/2+y,-z
-y,1/2+x,-z
-x,1/2+y,1/2+z
1/2+x,-y,1/2+z
-y,-x,1/2+z
1/2+y,1/2+x,1/2+z
loop_
_atom_site_type_symbol
_atom_site_label
_atom_site_fract_x
_atom_site_fract_y
_atom_site_fract_z
Si Si1 0.290653 0.660872 0.541982
Si Si2 0.092770 0.658101 0.810849
Si Si3 0.401648 0.444997 0.451863
Si Si4 0.710084 0.045252 0.896713
Si Si5 0.175016 0.333768 0.367244
Si Si6 0.959858 0.490795 0.148639
O O1 0.320797 0.712509 0.459213
O O2 0.334016 0.670835 0.640865
O O3 0.297653 0.587182 0.497922
O O4 0.043436 0.711328 0.867370
O O5 0.085466 0.676464 0.695481
O O6 0.073754 0.581481 0.831398
O O7 0.333508 0.479318 0.411176
O O8 0.385917 0.367128 0.433176
O O9 0.464781 0.472930 0.388974
O O10 0.420194 0.468193 0.563572
O O11 0.159052 0.254781 0.384333
O O12 0.156692 0.343309 0.250000
O O13 0.967648 0.532353 0.250000
#
# Coordination Sequence:
#
# PCOD9563363 Si02
#       6
#    16  16  16  16  16  16
#     4   9  18  34  52  71 101 140 182 224 266 315
#     4  10  20  33  52  76 107 140 180 232 265 327
#     4  11  22  34  56  82 107 152 181 223 283 340
#     4  10  20  32  52  81 105 139 184 219 279 324
#     4   9  20  37  60  91 119 140 176 233 292 346
#     4  11  22  37  53  77 116 149 185 228 273 332
#
# _framework density 18.098407000000002
#
# number of rings (size 3 to 8) (size 9 to 14) (size 15 to 20)
#    0.000    2.000    3.333    1.000    2.333    2.000 
#    0.000    3.333    0.000    1.000    0.000    1.167 
#    0.000    0.000    0.000    0.000    0.000    0.000 
#
# Total GULP energy -535111.819319 kJ/mol
# GULP energy per Si atom -5574.081451 kJ/mol
# Density = 1.805721 g / cm^3
# Si number density = 18.098407 Si / 1000 Ang^3
#
#
#
# Elastic Constant Matrix: (Units=GPa)
#
#
# Indices 1 2 3 4 5 6 
#
# 1 53.6072 32.7840 23.0108 0.0000 0.0000 0.0000
# 2 32.7840 53.6061 23.0105 0.0000 0.0000 0.0000
# 3 23.0108 23.0105 77.2850 0.0000 0.0000 0.0000
# 4 0.0000 0.0000 0.0000 21.4553 0.0000 0.0000
# 5 0.0000 0.0000 0.0000 0.0000 21.4556 0.0000
# 6 0.0000 0.0000 0.0000 0.0000 0.0000 27.7163
#
#
#
# Elastic Compliance Matrix: (Units=1/GPa)
#
#
# Indices 1 2 3 4 5 6 
#
# 1 0.030891 -0.017134 -0.004096 0.000000 0.000000 0.000000
# 2 -0.017134 0.030891 -0.004096 0.000000 0.000000 0.000000
# 3 -0.004096 -0.004096 0.015378 0.000000 0.000000 0.000000
# 4 0.000000 0.000000 0.000000 0.046609 0.000000 0.000000
# 5 0.000000 0.000000 0.000000 0.000000 0.046608 0.000000
# 6 0.000000 0.000000 0.000000 0.000000 0.000000 0.036080
#
#
# Mechanical properties :
#
#
# Convention : Reuss Voigt Hill
#
# Bulk Modulus (GPa) = 37.72358 38.01210 37.86784
# Shear Modulus (GPa) = 18.80091 21.17163 19.98627
#
# Velocity S-wave (km/s) = 3.22656 3.42395 3.32672
# Velocity P-wave (km/s) = 5.89659 6.05639 5.97703
#
# Compressibility (1/GPa) = 0.02650862
#
# Stress axis : x y z
#
# Youngs Moduli (GPa) = 32.37215 32.37156 65.02700
#
# Poissons Ratio (x) = 0.55464 0.26636
# Poissons Ratio (y) = 0.55465 0.26636
# Poissons Ratio (z) = 0.13260 0.13260
#
# Static dielectric constant tensor:
#      x y z
#    x 1.646170 0.000000 0.000000 
#    y 0.000000 1.646170 0.000000 
#    z 0.000000 0.000000 1.603650 
# 
# From -- ./inp_files/2904.got.cif
#   From: 2010.05.17/outbox.cif.g08.bks.cpg/sg126_2_cif.got.tgz:2904.got - 2010.05.20 11:58:20.
