data_PCOD9563815
_publ_section_title
;
Structure prediction by ZEFSAII (Michael W. Deem and Ramdas Pophale) SiO2 
 PCOD9563815
Probable space group: P 4/M B M
;
_chemical_formula_sum "Si O2"
_cell_formula_units_Z 112
_cell_length_a 19.050891
_cell_length_b 19.050891
_cell_length_c 19.426706
_cell_angle_alpha 90.000000
_cell_angle_beta 90.000000
_cell_angle_gamma 90.000000
_cell_volume 7050.659670
_symmetry_space_group_name_H-M "P 4/M B M"
_symmetry_group_IT_number 127
_symmetry_cell_setting 'tetragonal'
loop_
_space_group_symop_operation_xyz
x,y,z
-y,x,z
-x,-y,z
y,-x,z
1/2+x,1/2-y,-z
1/2-x,1/2+y,-z
1/2+y,1/2+x,-z
1/2-y,1/2-x,-z
-x,-y,-z
y,-x,-z
x,y,-z
-y,x,-z
1/2-x,1/2+y,z
1/2+x,1/2-y,z
1/2-y,1/2-x,z
1/2+y,1/2+x,z
loop_
_atom_site_type_symbol
_atom_site_label
_atom_site_fract_x
_atom_site_fract_y
_atom_site_fract_z
Si Si1 0.280566 0.660881 0.073512
Si Si2 0.618275 0.504375 0.422462
Si Si3 0.504297 0.383515 0.147604
Si Si4 0.241456 0.929295 0.924530
Si Si5 0.284713 0.898000 0.777854
Si Si6 0.837372 0.220440 0.226543
Si Si7 0.514917 0.701686 0.713959
O O1 0.219403 0.719403 0.074085
O O2 0.354041 0.702354 0.072014
O O3 0.276323 0.628568 0.149666
O O4 0.274461 0.621958 0.000000
O O5 0.564850 0.569649 0.416121
O O6 0.648075 0.505534 0.500000
O O7 0.672302 0.504082 0.360379
O O8 0.570150 0.435370 0.136938
O O9 0.515459 0.318990 0.096106
O O10 0.503502 0.354794 0.225701
O O11 0.290225 0.921868 0.857701
O O12 0.272253 0.942908 0.000000
O O13 0.351354 0.851354 0.758399
O O14 0.216366 0.845818 0.772219
O O15 0.267704 0.966233 0.733172
O O16 0.788386 0.288386 0.236975
O O17 0.902043 0.214565 0.278168
#
# Coordination Sequence:
#
# PCOD9563815 Si02
#       7
#    16  16  16  16  16  16  16
#     4   8  13  23  39  55  74 105 146 189 225 256
#     4   9  17  28  44  69  98 125 153 181 208 253
#     4  10  19  27  36  55  84 117 148 177 216 269
#     4   9  16  25  37  52  75 112 152 182 210 251
#     4   9  18  30  44  64  88 115 151 193 233 272
#     4   9  17  29  45  67  90 113 149 194 233 268
#     4  11  18  29  48  65  85 116 151 186 227 276
#
# _framework density 15.885039000000001
#
# number of rings (size 3 to 8) (size 9 to 14) (size 15 to 20)
#    0.000    2.714    0.000    6.000    0.000    2.571 
#    0.000    5.000    0.000    1.286    0.000    4.000 
#    0.000    0.000    0.000   10.000    0.000    0.714 
#
# Total GULP energy -623929.888166 kJ/mol
# GULP energy per Si atom -5570.802573 kJ/mol
# Density = 1.584888 g / cm^3
# Si number density = 15.885039 Si / 1000 Ang^3
#
#
#
# Elastic Constant Matrix: (Units=GPa)
#
#
# Indices 1 2 3 4 5 6 
#
# 1 17.0963 -6.9751 0.2133 0.0000 0.0000 0.0000
# 2 -6.9751 17.0963 0.2133 0.0000 0.0000 0.0000
# 3 0.2133 0.2133 86.8738 0.0000 0.0000 0.0000
# 4 0.0000 0.0000 0.0000 13.0438 0.0000 0.0000
# 5 0.0000 0.0000 0.0000 0.0000 13.0438 0.0000
# 6 0.0000 0.0000 0.0000 0.0000 0.0000 15.2680
#
#
#
# Elastic Compliance Matrix: (Units=1/GPa)
#
#
# Indices 1 2 3 4 5 6 
#
# 1 0.070178 0.028635 -0.000243 0.000000 0.000000 0.000000
# 2 0.028635 0.070178 -0.000243 0.000000 0.000000 0.000000
# 3 -0.000243 -0.000243 0.011512 0.000000 0.000000 0.000000
# 4 0.000000 0.000000 0.000000 0.076665 0.000000 0.000000
# 5 0.000000 0.000000 0.000000 0.000000 0.076665 0.000000
# 6 0.000000 0.000000 0.000000 0.000000 0.000000 0.065497
#
#
# Mechanical properties :
#
#
# Convention : Reuss Voigt Hill
#
# Bulk Modulus (GPa) = 4.80382 11.99659 8.40021
# Shear Modulus (GPa) = 13.02817 16.77878 14.90347
#
# Velocity S-wave (km/s) = 2.86694 3.25355 3.06634
# Velocity P-wave (km/s) = 3.74029 4.65646 4.22329
#
# Compressibility (1/GPa) = 0.20816768
#
# Stress axis : x y z
#
# Youngs Moduli (GPa) = 14.24948 14.24948 86.86479
#
# Poissons Ratio (x) = -0.40803 0.02107
# Poissons Ratio (y) = -0.40803 0.02107
# Poissons Ratio (z) = 0.00346 0.00346
#
# Static dielectric constant tensor:
#      x y z
#    x 1.545710 0.000000 0.000000 
#    y 0.000000 1.545710 0.000000 
#    z 0.000000 0.000000 1.548790 
# 
# From -- ./inp_files/5350.got.cif
#   From: 2010.05.17/outbox.cif.g08.bks.cpg/sg127_3_cif.got.tgz:5350.got - 2010.05.20 12:03:00.
