data_PCOD9563988
_publ_section_title
;
Structure prediction by ZEFSAII (Michael W. Deem and Ramdas Pophale) SiO2 
 PCOD9563988
Probable space group: P 4/M B M
;
_chemical_formula_sum "Si O2"
_cell_formula_units_Z 104
_cell_length_a 18.302406
_cell_length_b 18.302406
_cell_length_c 18.549657
_cell_angle_alpha 90.000000
_cell_angle_beta 90.000000
_cell_angle_gamma 90.000000
_cell_volume 6213.728215
_symmetry_space_group_name_H-M "P 4/M B M"
_symmetry_group_IT_number 127
_symmetry_cell_setting 'tetragonal'
loop_
_space_group_symop_operation_xyz
x,y,z
-y,x,z
-x,-y,z
y,-x,z
1/2+x,1/2-y,-z
1/2-x,1/2+y,-z
1/2+y,1/2+x,-z
1/2-y,1/2-x,-z
-x,-y,-z
y,-x,-z
x,y,-z
-y,x,-z
1/2-x,1/2+y,z
1/2+x,1/2-y,z
1/2-y,1/2-x,z
1/2+y,1/2+x,z
loop_
_atom_site_type_symbol
_atom_site_label
_atom_site_fract_x
_atom_site_fract_y
_atom_site_fract_z
Si Si1 0.654190 0.273030 0.309278
Si Si2 0.441870 0.941870 0.587182
Si Si3 0.309382 0.930944 0.915709
Si Si4 0.207302 0.583254 0.832438
Si Si5 0.799160 0.174480 0.848959
Si Si6 0.533777 0.226513 0.584749
Si Si7 0.223091 0.607427 0.335809
O O1 0.694275 0.194275 0.307637
O O2 0.633737 0.295489 0.228118
O O3 0.589933 0.270332 0.366184
O O4 0.715650 0.330733 0.331351
O O5 0.445290 0.945290 0.500000
O O6 0.459499 0.858853 0.606316
O O7 0.500000 0.000000 0.616495
O O8 0.377123 0.877123 0.894369
O O9 0.235906 0.882085 0.904824
O O10 0.305046 0.005404 0.870009
O O11 0.317951 0.948507 0.000000
O O12 0.139377 0.639377 0.845735
O O13 0.281889 0.624826 0.858853
O O14 0.214487 0.576323 0.745520
O O15 0.741000 0.241000 0.842479
O O16 0.548621 0.233784 0.500000
O O17 0.452264 0.246224 0.606888
O O18 0.147468 0.647468 0.355682
#
# Coordination Sequence:
#
# PCOD9563988 Si02
#       7
#    16   8  16  16  16  16  16
#     4   9  17  32  52  71  92 124 169 215 250 290
#     4   9  18  30  42  62  98 134 161 190 236 301
#     4  10  20  32  49  77 109 136 164 201 248 304
#     4   9  18  34  53  73 100 135 174 210 249 297
#     4   8  16  32  53  72  93 129 173 213 246 290
#     4  11  20  30  47  71  99 132 164 202 254 305
#     4   9  19  34  51  72  98 128 168 212 251 296
#
# _framework density 16.737133
#
# number of rings (size 3 to 8) (size 9 to 14) (size 15 to 20)
#    0.000    2.692    0.769    3.231    0.000    2.769 
#    1.385    3.846    0.000    0.923    0.000    6.462 
#    0.000    0.000    0.000    0.000    0.000    0.000 
#
# Total GULP energy -579104.989085 kJ/mol
# GULP energy per Si atom -5568.317203 kJ/mol
# Density = 1.669904 g / cm^3
# Si number density = 16.737133 Si / 1000 Ang^3
#
#
#
# Elastic Constant Matrix: (Units=GPa)
#
#
# Indices 1 2 3 4 5 6 
#
# 1 30.4297 57.3584 36.8540 0.0000 0.0000 0.0000
# 2 57.3584 30.4297 36.8540 0.0000 0.0000 0.0000
# 3 36.8540 36.8540 49.2516 0.0000 0.0000 0.0000
# 4 0.0000 0.0000 0.0000 21.5236 0.0000 0.0000
# 5 0.0000 0.0000 0.0000 0.0000 21.5236 0.0000
# 6 0.0000 0.0000 0.0000 0.0000 0.0000 16.4242
#
#
#
# Elastic Compliance Matrix: (Units=1/GPa)
#
#
# Indices 1 2 3 4 5 6 
#
# 1 -0.003246 0.033889 -0.022930 0.000000 0.000000 0.000000
# 2 0.033889 -0.003246 -0.022930 0.000000 0.000000 0.000000
# 3 -0.022930 -0.022930 0.054620 0.000000 0.000000 0.000000
# 4 0.000000 0.000000 0.000000 0.046461 0.000000 0.000000
# 5 0.000000 0.000000 0.000000 0.000000 0.046461 0.000000
# 6 0.000000 0.000000 0.000000 0.000000 0.000000 0.060886
#
#
# Mechanical properties :
#
#
# Convention : Reuss Voigt Hill
#
# Bulk Modulus (GPa) = 41.34427 41.36045 41.35236
# Shear Modulus (GPa) = 21.37321 10.49723 15.93522
#
# Velocity S-wave (km/s) = 3.57738 2.50708 3.08894
# Velocity P-wave (km/s) = 6.46678 5.75726 6.12231
#
# Compressibility (1/GPa) = 0.02418715
#
# Stress axis : x y z
#
# Youngs Moduli (GPa) = -308.07555 -308.07555 18.30845
#
# Poissons Ratio (x) = 10.44039 0.41981
# Poissons Ratio (y) = 10.44039 0.41981
# Poissons Ratio (z) = -7.06407 -7.06407
#
# Static dielectric constant tensor:
#      x y z
#    x 1.568130 0.000000 0.000000 
#    y 0.000000 1.568130 0.000000 
#    z 0.000000 0.000000 1.570660 
# 
# From -- ./inp_files/5229.got.cif
#   From: 2010.05.17/outbox.cif.g08.bks.cpg/sg127_3_cif.got.tgz:5229.got - 2010.05.20 12:03:00.
