data_PCOD9563275
_publ_section_title
;
Structure prediction by ZEFSAII (Michael W. Deem and Ramdas Pophale) SiO2 
 PCOD9563275
Probable space group: P 4/N B M
;
_chemical_formula_sum "Si O2"
_cell_formula_units_Z 72
_cell_length_a 12.000000
_cell_length_b 12.000000
_cell_length_c 27.000000
_cell_angle_alpha 90.000000
_cell_angle_beta 90.000000
_cell_angle_gamma 90.000000
_cell_volume 3888.000000
_symmetry_space_group_name_H-M "P 4/N B M"
_symmetry_group_IT_number 125
_space_group.IT_coordinate_system_code '2'
_symmetry_cell_setting 'tetragonal'
loop_
_space_group_symop_operation_xyz
x,y,z
1/2-y,x,z
1/2-x,1/2-y,z
y,1/2-x,z
x,1/2-y,-z
1/2-x,y,-z
y,x,-z
1/2-y,1/2-x,-z
-x,-y,-z
1/2+y,-x,-z
1/2+x,1/2+y,-z
-y,1/2+x,-z
-x,1/2+y,z
1/2+x,-y,z
-y,-x,z
1/2+y,1/2+x,z
loop_
_atom_site_type_symbol
_atom_site_label
_atom_site_fract_x
_atom_site_fract_y
_atom_site_fract_z
Si Si1 0.343647 0.843647 0.385260
Si Si2 0.287159 0.064103 0.206097
Si Si3 0.250000 0.924693 0.000000
Si Si4 0.345381 0.654620 0.731925
Si Si5 0.266307 0.434598 0.558761
Si Si6 0.789497 0.932501 0.093685
O O1 0.250000 0.750000 0.389855
O O2 0.362933 0.862933 0.326798
O O3 0.454434 0.796178 0.411677
O O4 0.376653 0.165646 0.211901
O O5 0.298129 0.020422 0.149286
O O6 0.307338 0.961552 0.242753
O O7 0.199806 0.992549 0.954453
O O8 0.345852 0.845852 0.978408
O O9 0.250000 0.750000 0.738564
O O10 0.152717 0.366554 0.569668
O O11 0.250000 0.458646 0.500000
O O12 0.667607 0.877177 0.090522
#
# Coordination Sequence:
#
# PCOD9563275 Si02
#       6
#     8  16   8   8  16  16
#     4  11  26  39  59  94 132 166 210 256 312 363
#     4   9  21  43  68  90 116 160 212 257 315 376
#     4  11  24  35  46  80 124 151 182 229 294 358
#     4  11  26  42  59  94 129 161 208 263 309 362
#     4   9  21  41  65  94 126 166 212 256 307 368
#     4   9  19  38  61  83 107 142 192 242 292 360
#
# _framework density 18.518519000000001
#
# number of rings (size 3 to 8) (size 9 to 14) (size 15 to 20)
#    0.000    2.333    0.000    2.667    6.222    6.222 
#    4.000    2.222    0.000    0.000    0.000    0.000 
#    0.000    0.000    0.000    0.000    0.000    0.000 
#
# Total GULP energy -401549.661823 kJ/mol
# GULP energy per Si atom -5577.078636 kJ/mol
# Density = 1.847637 g / cm^3
# Si number density = 18.518519 Si / 1000 Ang^3
#
#
#
# Elastic Constant Matrix: (Units=GPa)
#
#
# Indices 1 2 3 4 5 6 
#
# 1 100.1052 43.2250 77.0717 0.0000 0.0000 0.0000
# 2 43.2250 100.1052 77.0717 0.0000 0.0000 0.0000
# 3 77.0717 77.0717 124.4621 0.0000 0.0000 0.0000
# 4 0.0000 0.0000 0.0000 32.0160 0.0000 0.0000
# 5 0.0000 0.0000 0.0000 0.0000 32.0160 0.0000
# 6 0.0000 0.0000 0.0000 0.0000 0.0000 86.7246
#
#
#
# Elastic Compliance Matrix: (Units=1/GPa)
#
#
# Indices 1 2 3 4 5 6 
#
# 1 0.019233 0.001653 -0.012933 0.000000 0.000000 0.000000
# 2 0.001653 0.019233 -0.012933 0.000000 0.000000 0.000000
# 3 -0.012933 -0.012933 0.024052 0.000000 0.000000 0.000000
# 4 0.000000 0.000000 0.000000 0.031234 0.000000 0.000000
# 5 0.000000 0.000000 0.000000 0.000000 0.031234 0.000000
# 6 0.000000 0.000000 0.000000 0.000000 0.000000 0.011531
#
#
# Mechanical properties :
#
#
# Convention : Reuss Voigt Hill
#
# Bulk Modulus (GPa) = 70.96889 79.93436 75.45162
# Shear Modulus (GPa) = 26.36519 38.63829 32.50174
#
# Velocity S-wave (km/s) = 3.77732 4.57274 4.19393
# Velocity P-wave (km/s) = 7.57829 8.43435 8.01775
#
# Compressibility (1/GPa) = 0.01409068
#
# Stress axis : x y z
#
# Youngs Moduli (GPa) = 51.99283 51.99283 41.57602
#
# Poissons Ratio (x) = -0.08592 0.53772
# Poissons Ratio (y) = -0.08592 0.53772
# Poissons Ratio (z) = 0.67245 0.67245
#
# Static dielectric constant tensor:
#      x y z
#    x 1.630780 0.000000 0.000000 
#    y 0.000000 1.630780 0.000000 
#    z 0.000000 0.000000 1.629080 
# 
# From -- ./inp_files/6374.got.cif
#   From: 2010.05.17/outbox.ucp.g08.bks.cvg/sg125_4_cif.got.tgz:6374.got - 2010.06.11 11:36:31.
