data_PCOD9563361
_publ_section_title
;
Structure prediction by ZEFSAII (Michael W. Deem and Ramdas Pophale) SiO2 
 PCOD9563361
Probable space group: P 4/N N C
;
_chemical_formula_sum "Si O2"
_cell_formula_units_Z 104
_cell_length_a 24.898280
_cell_length_b 24.898280
_cell_length_c 9.361013
_cell_angle_alpha 90.000000
_cell_angle_beta 90.000000
_cell_angle_gamma 90.000000
_cell_volume 5803.119871
_symmetry_space_group_name_H-M "P 4/N N C"
_symmetry_group_IT_number 126
_space_group.IT_coordinate_system_code '2'
_symmetry_cell_setting 'tetragonal'
loop_
_space_group_symop_operation_xyz
x,y,z
1/2-y,x,z
1/2-x,1/2-y,z
y,1/2-x,z
x,1/2-y,1/2-z
1/2-x,y,1/2-z
y,x,1/2-z
1/2-y,1/2-x,1/2-z
-x,-y,-z
1/2+y,-x,-z
1/2+x,1/2+y,-z
-y,1/2+x,-z
-x,1/2+y,1/2+z
1/2+x,-y,1/2+z
-y,-x,1/2+z
1/2+y,1/2+x,1/2+z
loop_
_atom_site_type_symbol
_atom_site_label
_atom_site_fract_x
_atom_site_fract_y
_atom_site_fract_z
Si Si1 0.010303 0.489698 0.750000
Si Si2 0.001676 0.866043 0.910906
Si Si3 0.930984 0.029626 0.011426
Si Si4 0.372599 0.125905 0.085054
Si Si5 0.274902 0.001501 0.891933
Si Si6 0.490381 0.326665 0.410535
Si Si7 0.697369 0.625129 0.334257
O O1 0.059858 0.488982 0.642438
O O2 0.960739 0.488600 0.636076
O O3 0.938601 0.880147 0.932318
O O4 0.000582 0.835102 0.758627
O O5 0.038142 0.918578 0.927382
O O6 0.022422 0.827337 0.035919
O O7 0.868595 0.031710 0.981253
O O8 0.362492 0.137509 0.250000
O O9 0.429513 0.154035 0.053173
O O10 0.320641 0.142537 0.992864
O O11 0.250000 0.975831 0.750000
O O12 0.292892 0.061652 0.845821
O O13 0.230804 0.004250 0.017153
O O14 0.750000 0.646874 0.250000
O O15 0.644889 0.644889 0.250000
#
# Coordination Sequence:
#
# PCOD9563361 Si02
#       7
#     8  16  16  16  16  16  16
#     4  10  20  32  50  80 116 144 181 223 278 352
#     4  10  21  36  52  78 111 148 183 229 277 342
#     4  11  21  34  52  81 115 148 183 225 283 340
#     4   9  18  32  53  75 101 136 177 218 275 343
#     4  10  22  36  54  77 103 141 191 230 280 334
#     4  11  21  36  54  76 110 147 182 227 280 343
#     4  10  20  37  52  73 100 129 176 234 295 335
#
# _framework density 17.921395
#
# number of rings (size 3 to 8) (size 9 to 14) (size 15 to 20)
#    0.000    1.846    1.538    4.154    4.308    0.154 
#    9.692    2.308    0.000    0.000    0.000   10.769 
#    0.000    0.615    0.000    4.308    0.000    1.077 
#
# Total GULP energy -579125.156784 kJ/mol
# GULP energy per Si atom -5568.511123 kJ/mol
# Density = 1.788060 g / cm^3
# Si number density = 17.921395 Si / 1000 Ang^3
#
#
#
# Elastic Constant Matrix: (Units=GPa)
#
#
# Indices 1 2 3 4 5 6 
#
# 1 35.6432 26.3314 27.5750 0.0000 0.0000 0.0000
# 2 26.3314 35.6418 27.5745 0.0000 0.0000 0.0000
# 3 27.5750 27.5745 96.2604 0.0000 0.0000 0.0000
# 4 0.0000 0.0000 0.0000 20.9303 0.0000 0.0000
# 5 0.0000 0.0000 0.0000 0.0000 20.9303 0.0000
# 6 0.0000 0.0000 0.0000 0.0000 0.0000 10.7812
#
#
#
# Elastic Compliance Matrix: (Units=1/GPa)
#
#
# Indices 1 2 3 4 5 6 
#
# 1 0.064526 -0.042871 -0.006204 0.000000 0.000000 0.000000
# 2 -0.042871 0.064529 -0.006204 0.000000 0.000000 0.000000
# 3 -0.006204 -0.006204 0.013943 0.000000 0.000000 0.000000
# 4 0.000000 0.000000 0.000000 0.047778 0.000000 0.000000
# 5 0.000000 0.000000 0.000000 0.000000 0.047778 0.000000
# 6 0.000000 0.000000 0.000000 0.000000 0.000000 0.092754
#
#
# Mechanical properties :
#
#
# Convention : Reuss Voigt Hill
#
# Bulk Modulus (GPa) = 30.82545 36.72301 33.77423
# Shear Modulus (GPa) = 11.04538 16.26600 13.65569
#
# Velocity S-wave (km/s) = 2.48528 3.01596 2.76339
# Velocity P-wave (km/s) = 5.04710 5.71521 5.39151
#
# Compressibility (1/GPa) = 0.03244073
#
# Stress axis : x y z
#
# Youngs Moduli (GPa) = 15.49752 15.49690 71.72208
#
# Poissons Ratio (x) = 0.66437 0.44493
# Poissons Ratio (y) = 0.66440 0.44495
# Poissons Ratio (z) = 0.09614 0.09614
#
# Static dielectric constant tensor:
#      x y z
#    x 1.563460 0.000000 0.000000 
#    y 0.000000 1.563450 0.000000 
#    z 0.000000 0.000000 1.707680 
# 
# From -- ./inp_files/1911.got.cif
#   From: 2010.05.17/outbox.cif.g08.bks.cpg/sg126_1_cif.got.tgz:1911.got - 2010.05.20 11:58:20.
