data_PCOD9563947
_publ_section_title
;
Structure prediction by ZEFSAII (Michael W. Deem and Ramdas Pophale) SiO2 
 PCOD9563947
Probable space group: P 4/M B M
;
_chemical_formula_sum "Si O2"
_cell_formula_units_Z 96
_cell_length_a 24.236694
_cell_length_b 24.236694
_cell_length_c 8.856582
_cell_angle_alpha 90.000000
_cell_angle_beta 90.000000
_cell_angle_gamma 90.000000
_cell_volume 5202.509805
_symmetry_space_group_name_H-M "P 4/M B M"
_symmetry_group_IT_number 127
_symmetry_cell_setting 'tetragonal'
loop_
_space_group_symop_operation_xyz
x,y,z
-y,x,z
-x,-y,z
y,-x,z
1/2+x,1/2-y,-z
1/2-x,1/2+y,-z
1/2+y,1/2+x,-z
1/2-y,1/2-x,-z
-x,-y,-z
y,-x,-z
x,y,-z
-y,x,-z
1/2-x,1/2+y,z
1/2+x,1/2-y,z
1/2-y,1/2-x,z
1/2+y,1/2+x,z
loop_
_atom_site_type_symbol
_atom_site_label
_atom_site_fract_x
_atom_site_fract_y
_atom_site_fract_z
Si Si1 0.346833 0.507928 0.821656
Si Si2 0.894897 0.091532 0.327890
Si Si3 0.789092 0.167208 0.673579
Si Si4 0.009741 0.729855 0.681487
Si Si5 0.310962 0.900113 0.179467
Si Si6 0.138510 0.727520 0.317288
O O1 0.391378 0.462857 0.771736
O O2 0.365456 0.564876 0.749493
O O3 0.289699 0.492901 0.742866
O O4 0.340784 0.510533 0.000000
O O5 0.911837 0.079800 0.500000
O O6 0.835565 0.120223 0.331264
O O7 0.772180 0.179104 0.500000
O O8 0.737546 0.140999 0.761081
O O9 0.822229 0.221283 0.734465
O O10 0.008767 0.728325 0.500000
O O11 0.074285 0.723693 0.731651
O O12 0.960563 0.691698 0.744517
O O13 0.368003 0.868003 0.208492
O O14 0.303478 0.906721 0.000000
O O15 0.136237 0.734292 0.500000
O O16 0.171872 0.671872 0.282270
#
# Coordination Sequence:
#
# PCOD9563947 Si02
#       6
#    16  16  16  16  16  16
#     4  12  24  38  57  82 114 154 197 241 291 340
#     4  11  22  38  59  83 111 150 199 245 285 335
#     4  10  19  34  59  86 116 150 189 231 283 345
#     4  11  21  37  60  85 114 151 193 233 282 348
#     4  11  24  39  56  84 120 153 191 239 289 342
#     4   9  18  34  58  88 117 144 181 232 284 334
#
# _framework density 18.452632000000001
#
# number of rings (size 3 to 8) (size 9 to 14) (size 15 to 20)
#    0.000    1.333    3.333    3.500    0.000    3.000 
#    0.000    1.667    0.000    3.500    0.000    3.500 
#    0.000    0.000    0.000    0.000    0.000    0.000 
#
# Total GULP energy -535515.174568 kJ/mol
# GULP energy per Si atom -5578.283068 kJ/mol
# Density = 1.841063 g / cm^3
# Si number density = 18.452632 Si / 1000 Ang^3
#
#
#
# Elastic Constant Matrix: (Units=GPa)
#
#
# Indices 1 2 3 4 5 6 
#
# 1 63.1660 53.5541 30.9608 0.0000 0.0000 0.0000
# 2 53.5541 63.1660 30.9608 0.0000 0.0000 0.0000
# 3 30.9608 30.9608 51.1693 0.0000 0.0000 0.0000
# 4 0.0000 0.0000 0.0000 -747.1228 0.0000 0.0000
# 5 0.0000 0.0000 0.0000 0.0000 -747.1228 0.0000
# 6 0.0000 0.0000 0.0000 0.0000 0.0000 28.2021
#
#
#
# Elastic Compliance Matrix: (Units=1/GPa)
#
#
# Indices 1 2 3 4 5 6 
#
# 1 0.058328 -0.045710 -0.007635 0.000000 0.000000 0.000000
# 2 -0.045710 0.058328 -0.007635 0.000000 0.000000 0.000000
# 3 -0.007635 -0.007635 0.028782 0.000000 0.000000 0.000000
# 4 0.000000 0.000000 0.000000 -0.001338 0.000000 0.000000
# 5 0.000000 0.000000 0.000000 0.000000 -0.001338 0.000000
# 6 0.000000 0.000000 0.000000 0.000000 0.000000 0.035458
#
#
# Mechanical properties :
#
#
# Convention : Reuss Voigt Hill
#
# Bulk Modulus (GPa) = 42.59121 45.38363 43.98742
# Shear Modulus (GPa) = 16.23363 -289.07367 -136.42002
#
# Velocity S-wave (km/s) = 2.96927 -12.52985 -8.60757
# Velocity P-wave (km/s) = 5.90651 13.58976 8.65433
#
# Compressibility (1/GPa) = 0.02347902
#
# Stress axis : x y z
#
# Youngs Moduli (GPa) = 17.14455 17.14455 34.74418
#
# Poissons Ratio (x) = 0.78367 0.26526
# Poissons Ratio (y) = 0.78367 0.26526
# Poissons Ratio (z) = 0.13089 0.13089
#
# Static dielectric constant tensor:
#      x y z
#    x 1.633120 0.000000 0.000000 
#    y 0.000000 1.633120 0.000000 
#    z 0.000000 0.000000 1.622540 
# 
# From -- ./inp_files/1930.got.cif
#   From: 2010.05.17/outbox.cif.g08.bks.cpg/sg127_1_cif.got.tgz:1930.got - 2010.05.20 12:03:00.
