data_PCOD9563283
_publ_section_title
;
Structure prediction by ZEFSAII (Michael W. Deem and Ramdas Pophale) SiO2 
 PCOD9563283
Probable space group: P 4/N N C
;
_chemical_formula_sum "Si O2"
_cell_formula_units_Z 48
_cell_length_a 18.713115
_cell_length_b 18.713115
_cell_length_c 5.687496
_cell_angle_alpha 90.000000
_cell_angle_beta 90.000000
_cell_angle_gamma 90.000000
_cell_volume 1991.651177
_symmetry_space_group_name_H-M "P 4/N N C"
_symmetry_group_IT_number 126
_space_group.IT_coordinate_system_code '2'
_symmetry_cell_setting 'tetragonal'
loop_
_space_group_symop_operation_xyz
x,y,z
1/2-y,x,z
1/2-x,1/2-y,z
y,1/2-x,z
x,1/2-y,1/2-z
1/2-x,y,1/2-z
y,x,1/2-z
1/2-y,1/2-x,1/2-z
-x,-y,-z
1/2+y,-x,-z
1/2+x,1/2+y,-z
-y,1/2+x,-z
-x,1/2+y,1/2+z
1/2+x,-y,1/2+z
-y,-x,1/2+z
1/2+y,1/2+x,1/2+z
loop_
_atom_site_type_symbol
_atom_site_label
_atom_site_fract_x
_atom_site_fract_y
_atom_site_fract_z
Si Si1 0.332341 0.432322 0.133620
Si Si2 0.915331 0.118837 0.287421
Si Si3 0.545136 0.954865 0.250000
Si Si4 0.250000 0.369817 0.750000
O O1 0.358207 0.358207 0.250000
O O2 0.335958 0.511558 0.245107
O O3 0.398399 0.439446 0.951243
O O4 0.261082 0.418197 0.981369
O O5 0.879672 0.131293 0.546202
O O6 0.940201 0.036002 0.319782
O O7 0.182458 0.317543 0.750000
#
# Coordination Sequence:
#
# PCOD9563283 Si02
#       4
#    16  16   8   8
#     4  11  19  35  56  71  97 132 180 243 279 319
#     4  10  17  29  55  88 103 111 149 230 309 366
#     4  10  16  32  53  88  96 115 156 240 300 366
#     4  11  26  42  48  62  98 154 216 231 240 294
#
# _framework density 24.100607
#
# number of rings (size 3 to 8) (size 9 to 14) (size 15 to 20)
#    0.000    1.500    6.667    2.000    0.000    1.333 
#    0.000    1.667    0.000    0.000    0.000    0.000 
#    0.000    0.000    0.000    0.000    0.000   80.000 
#
# Total GULP energy -267748.984166 kJ/mol
# GULP energy per Si atom -5578.103837 kJ/mol
# Density = 2.404575 g / cm^3
# Si number density = 24.100607 Si / 1000 Ang^3
#
#
#
# Elastic Constant Matrix: (Units=GPa)
#
#
# Indices 1 2 3 4 5 6 
#
# 1 50.0787 40.0574 18.9407 0.0000 0.0000 0.0000
# 2 40.0574 50.0815 18.9405 0.0000 0.0000 0.0000
# 3 18.9407 18.9405 124.6459 0.0000 0.0000 0.0000
# 4 0.0000 0.0000 0.0000 40.7642 0.0000 0.0000
# 5 0.0000 0.0000 0.0000 0.0000 40.7630 0.0000
# 6 0.0000 0.0000 0.0000 0.0000 0.0000 23.6256
#
#
#
# Elastic Compliance Matrix: (Units=1/GPa)
#
#
# Indices 1 2 3 4 5 6 
#
# 1 0.055814 -0.043961 -0.001801 0.000000 0.000000 0.000000
# 2 -0.043961 0.055810 -0.001800 0.000000 0.000000 0.000000
# 3 -0.001801 -0.001800 0.008570 0.000000 0.000000 0.000000
# 4 0.000000 0.000000 0.000000 0.024531 0.000000 0.000000
# 5 0.000000 0.000000 0.000000 0.000000 0.024532 0.000000
# 6 0.000000 0.000000 0.000000 0.000000 0.000000 0.042327
#
#
# Mechanical properties :
#
#
# Convention : Reuss Voigt Hill
#
# Bulk Modulus (GPa) = 39.89040 42.29815 41.09428
# Shear Modulus (GPa) = 15.86967 30.82173 23.34570
#
# Velocity S-wave (km/s) = 2.56886 3.58002 3.11573
# Velocity P-wave (km/s) = 5.03848 5.88876 5.48014
#
# Compressibility (1/GPa) = 0.02506869
#
# Stress axis : x y z
#
# Youngs Moduli (GPa) = 17.91672 17.91778 116.68593
#
# Poissons Ratio (x) = 0.78769 0.21017
# Poissons Ratio (y) = 0.78764 0.21009
# Poissons Ratio (z) = 0.03227 0.03226
#
# Static dielectric constant tensor:
#      x y z
#    x 1.926610 0.000000 0.000000 
#    y 0.000000 1.926610 0.000000 
#    z 0.000000 0.000000 2.289260 
# 
# From -- ./inp_files/310.got.cif
#   From: 2010.05.17/outbox.cif.g08.bks.cpg/sg126_1_cif.got.tgz:310.got - 2010.05.20 11:58:20.
