data_PCOD9563781
_publ_section_title
;
Structure prediction by ZEFSAII (Michael W. Deem and Ramdas Pophale) SiO2 
 PCOD9563781
Probable space group: P 4/M B M
;
_chemical_formula_sum "Si O2"
_cell_formula_units_Z 56
_cell_length_a 19.873601
_cell_length_b 19.873601
_cell_length_c 8.283962
_cell_angle_alpha 90.000000
_cell_angle_beta 90.000000
_cell_angle_gamma 90.000000
_cell_volume 3271.833770
_symmetry_space_group_name_H-M "P 4/M B M"
_symmetry_group_IT_number 127
_symmetry_cell_setting 'tetragonal'
loop_
_space_group_symop_operation_xyz
x,y,z
-y,x,z
-x,-y,z
y,-x,z
1/2+x,1/2-y,-z
1/2-x,1/2+y,-z
1/2+y,1/2+x,-z
1/2-y,1/2-x,-z
-x,-y,-z
y,-x,-z
x,y,-z
-y,x,-z
1/2-x,1/2+y,z
1/2+x,1/2-y,z
1/2-y,1/2-x,z
1/2+y,1/2+x,z
loop_
_atom_site_type_symbol
_atom_site_label
_atom_site_fract_x
_atom_site_fract_y
_atom_site_fract_z
Si Si1 0.019102 0.293997 0.194663
Si Si2 0.945020 0.554981 0.802687
Si Si3 0.235018 0.844475 0.692776
Si Si4 0.630252 0.759940 0.805028
O O1 0.035215 0.370052 0.250862
O O2 0.080689 0.246908 0.245021
O O3 0.945941 0.269966 0.252138
O O4 0.016847 0.296059 0.000000
O O5 0.000000 0.500000 0.751946
O O6 0.944797 0.555204 0.000000
O O7 0.236931 0.844863 0.500000
O O8 0.296635 0.796635 0.752322
O O9 0.167235 0.807594 0.748524
O O10 0.677842 0.822159 0.752034
O O11 0.629856 0.760271 0.000000
#
# Coordination Sequence:
#
# PCOD9563781 Si02
#       4
#    16   8  16  16
#     4  10  18  30  51  76 101 131 165 207 252 296
#     4   9  16  26  45  75 107 133 159 194 245 302
#     4  10  20  33  49  70  99 136 174 207 244 295
#     4   9  18  32  51  75 101 129 167 210 251 296
#
# _framework density 17.115784999999999
#
# number of rings (size 3 to 8) (size 9 to 14) (size 15 to 20)
#    0.000    2.429    1.429    1.714    0.000    5.714 
#    0.000    0.000    0.000    4.286    0.000    6.000 
#    0.000    0.000    0.000    0.000    0.000    0.000 
#
# Total GULP energy -312399.072434 kJ/mol
# GULP energy per Si atom -5578.554865 kJ/mol
# Density = 1.707683 g / cm^3
# Si number density = 17.115785 Si / 1000 Ang^3
#
#
#
# Elastic Constant Matrix: (Units=GPa)
#
#
# Indices 1 2 3 4 5 6 
#
# 1 148.9259 108.1921 15.8905 0.0000 0.0000 0.0000
# 2 108.1921 148.9260 15.8904 0.0000 0.0000 0.0000
# 3 15.8905 15.8904 8.2534 0.0000 0.0000 0.0000
# 4 0.0000 0.0000 0.0000 6.7632 0.0000 0.0000
# 5 0.0000 0.0000 0.0000 0.0000 6.7631 0.0000
# 6 0.0000 0.0000 0.0000 0.0000 0.0000 23.5118
#
#
#
# Elastic Compliance Matrix: (Units=1/GPa)
#
#
# Indices 1 2 3 4 5 6 
#
# 1 0.014827 -0.009723 -0.009827 0.000000 0.000000 0.000000
# 2 -0.009723 0.014827 -0.009827 0.000000 0.000000 0.000000
# 3 -0.009827 -0.009827 0.159002 0.000000 0.000000 0.000000
# 4 0.000000 0.000000 0.000000 0.147860 0.000000 0.000000
# 5 0.000000 0.000000 0.000000 0.000000 0.147861 0.000000
# 6 0.000000 0.000000 0.000000 0.000000 0.000000 0.042532
#
#
# Mechanical properties :
#
#
# Convention : Reuss Voigt Hill
#
# Bulk Modulus (GPa) = 7.69805 65.11681 36.40743
# Shear Modulus (GPa) = 7.94961 18.48310 13.21635
#
# Velocity S-wave (km/s) = 2.15747 3.28973 2.78182
# Velocity P-wave (km/s) = 3.27317 7.24964 5.62454
#
# Compressibility (1/GPa) = 0.12990304
#
# Stress axis : x y z
#
# Youngs Moduli (GPa) = 67.44565 67.44573 6.28923
#
# Poissons Ratio (x) = 0.65577 0.06180
# Poissons Ratio (y) = 0.65576 0.06180
# Poissons Ratio (z) = 0.66277 0.66276
#
# Static dielectric constant tensor:
#      x y z
#    x 1.567150 0.000000 0.000000 
#    y 0.000000 1.567150 0.000000 
#    z 0.000000 0.000000 1.587670 
# 
# From -- ./inp_files/1058.got.cif
#   From: 2010.05.17/outbox.cif.g08.bks.cpg/sg127_1_cif.got.tgz:1058.got - 2010.05.20 12:03:00.
