data_PCOD9563535
_publ_section_title
;
Structure prediction by ZEFSAII (Michael W. Deem and Ramdas Pophale) SiO2 
 PCOD9563535
Probable space group: P 4/N N C
;
_chemical_formula_sum "Si O2"
_cell_formula_units_Z 96
_cell_length_a 25.148307
_cell_length_b 25.148307
_cell_length_c 8.865856
_cell_angle_alpha 90.000000
_cell_angle_beta 90.000000
_cell_angle_gamma 90.000000
_cell_volume 5607.098429
_symmetry_space_group_name_H-M "P 4/N N C"
_symmetry_group_IT_number 126
_space_group.IT_coordinate_system_code '2'
_symmetry_cell_setting 'tetragonal'
loop_
_space_group_symop_operation_xyz
x,y,z
1/2-y,x,z
1/2-x,1/2-y,z
y,1/2-x,z
x,1/2-y,1/2-z
1/2-x,y,1/2-z
y,x,1/2-z
1/2-y,1/2-x,1/2-z
-x,-y,-z
1/2+y,-x,-z
1/2+x,1/2+y,-z
-y,1/2+x,-z
-x,1/2+y,1/2+z
1/2+x,-y,1/2+z
-y,-x,1/2+z
1/2+y,1/2+x,1/2+z
loop_
_atom_site_type_symbol
_atom_site_label
_atom_site_fract_x
_atom_site_fract_y
_atom_site_fract_z
Si Si1 0.118507 0.676739 0.598430
Si Si2 0.396854 0.701342 0.556800
Si Si3 0.037113 0.455286 0.427046
Si Si4 0.233983 0.492243 0.581157
Si Si5 0.507918 0.348898 0.950778
Si Si6 0.630827 0.554764 0.157819
O O1 0.127414 0.739168 0.564261
O O2 0.104891 0.675876 0.776128
O O3 0.166324 0.637921 0.556384
O O4 0.068860 0.659796 0.493977
O O5 0.458000 0.708292 0.505219
O O6 0.037794 0.462206 0.250000
O O7 0.092468 0.457326 0.518261
O O8 0.000000 0.500000 0.500000
O O9 0.014008 0.396866 0.452767
O O10 0.250000 0.511072 0.750000
O O11 0.292192 0.479699 0.515101
O O12 0.191630 0.444784 0.599534
O O13 0.493353 0.366533 0.780028
O O14 0.604370 0.604370 0.250000
#
# Coordination Sequence:
#
# PCOD9563535 Si02
#       6
#    16  16  16  16  16  16
#     4  10  23  37  53  75  99 136 181 234 280 330
#     4  10  23  36  53  75  99 133 186 231 283 329
#     4  11  23  35  52  79 112 150 185 231 279 331
#     4   9  19  36  60  79 104 144 177 229 274 331
#     4   9  20  37  54  79 108 141 184 219 277 335
#     4   9  19  36  55  80 107 138 181 220 273 338
#
# _framework density 17.121155000000002
#
# number of rings (size 3 to 8) (size 9 to 14) (size 15 to 20)
#    0.000    2.333    0.000    1.500   11.667    0.333 
#    0.000    1.667    0.000    0.000    0.000    0.000 
#    0.000  175.667    0.000   24.000    0.000    0.000 
#
# Total GULP energy -534775.734105 kJ/mol
# GULP energy per Si atom -5570.580564 kJ/mol
# Density = 1.708219 g / cm^3
# Si number density = 17.121155 Si / 1000 Ang^3
#
#
#
# Elastic Constant Matrix: (Units=GPa)
#
#
# Indices 1 2 3 4 5 6 
#
# 1 81.6510 68.4089 50.1098 0.0000 0.0000 0.0000
# 2 68.4089 81.6503 50.1094 0.0000 0.0000 0.0000
# 3 50.1098 50.1094 82.9329 0.0000 0.0000 0.0000
# 4 0.0000 0.0000 0.0000 17.4685 0.0000 0.0000
# 5 0.0000 0.0000 0.0000 0.0000 17.4695 0.0000
# 6 0.0000 0.0000 0.0000 0.0000 0.0000 25.2024
#
#
#
# Elastic Compliance Matrix: (Units=1/GPa)
#
#
# Indices 1 2 3 4 5 6 
#
# 1 0.043345 -0.032173 -0.006751 0.000000 0.000000 0.000000
# 2 -0.032173 0.043346 -0.006751 0.000000 0.000000 0.000000
# 3 -0.006751 -0.006751 0.020216 0.000000 0.000000 0.000000
# 4 0.000000 0.000000 0.000000 0.057246 0.000000 0.000000
# 5 0.000000 0.000000 0.000000 0.000000 0.057243 0.000000
# 6 0.000000 0.000000 0.000000 0.000000 0.000000 0.039679
#
#
# Mechanical properties :
#
#
# Convention : Reuss Voigt Hill
#
# Bulk Modulus (GPa) = 64.27504 64.83225 64.55364
# Shear Modulus (GPa) = 13.98176 17.20182 15.59179
#
# Velocity S-wave (km/s) = 2.86079 3.17316 3.02101
# Velocity P-wave (km/s) = 6.96670 7.16758 7.06785
#
# Compressibility (1/GPa) = 0.01555814
#
# Stress axis : x y z
#
# Youngs Moduli (GPa) = 23.07045 23.07037 49.46656
#
# Poissons Ratio (x) = 0.74224 0.33394
# Poissons Ratio (y) = 0.74225 0.33393
# Poissons Ratio (z) = 0.15574 0.15574
#
# Static dielectric constant tensor:
#      x y z
#    x 1.598300 0.000000 0.000000 
#    y 0.000000 1.598300 0.000000 
#    z 0.000000 0.000000 1.653220 
# 
# From -- ./inp_files/1739.got.cif
#   From: 2010.05.17/outbox.cif.g08.bks.cpg/sg126_1_cif.got.tgz:1739.got - 2010.05.20 11:58:20.
