data_PCOD9563946
_publ_section_title
;
Structure prediction by ZEFSAII (Michael W. Deem and Ramdas Pophale) SiO2 
 PCOD9563946
Probable space group: P 4/M B M
;
_chemical_formula_sum "Si O2"
_cell_formula_units_Z 72
_cell_length_a 14.298637
_cell_length_b 14.298637
_cell_length_c 15.405440
_cell_angle_alpha 90.000000
_cell_angle_beta 90.000000
_cell_angle_gamma 90.000000
_cell_volume 3149.657922
_symmetry_space_group_name_H-M "P 4/M B M"
_symmetry_group_IT_number 127
_symmetry_cell_setting 'tetragonal'
loop_
_space_group_symop_operation_xyz
x,y,z
-y,x,z
-x,-y,z
y,-x,z
1/2+x,1/2-y,-z
1/2-x,1/2+y,-z
1/2+y,1/2+x,-z
1/2-y,1/2-x,-z
-x,-y,-z
y,-x,-z
x,y,-z
-y,x,-z
1/2-x,1/2+y,z
1/2+x,1/2-y,z
1/2-y,1/2-x,z
1/2+y,1/2+x,z
loop_
_atom_site_type_symbol
_atom_site_label
_atom_site_fract_x
_atom_site_fract_y
_atom_site_fract_z
Si Si1 0.419371 0.080630 0.404124
Si Si2 0.395676 0.608964 0.893660
Si Si3 0.851877 0.052100 0.595942
Si Si4 0.960692 0.694466 0.719879
Si Si5 0.726277 0.773724 0.097903
Si Si6 0.423279 0.076722 0.858546
O O1 0.393579 0.106422 0.500000
O O2 0.464117 0.165585 0.353606
O O3 0.500000 0.000000 0.403877
O O4 0.371624 0.502522 0.868340
O O5 0.318985 0.682025 0.861287
O O6 0.393085 0.609968 0.000000
O O7 0.805425 0.069140 0.500000
O O8 0.795172 0.068314 0.684599
O O9 0.945087 0.114038 0.597155
O O10 0.869862 0.630139 0.712679
O O11 0.013761 0.651587 0.804075
O O12 0.646425 0.853576 0.091578
O O13 0.753541 0.746460 0.000000
O O14 0.500000 0.000000 0.893161
#
# Coordination Sequence:
#
# PCOD9563946 Si02
#       6
#     8  16  16  16   8   8
#     4   8  13  22  42  69  90 113 150 195 241 287
#     4   8  15  31  55  82 113 145 178 225 286 351
#     4   9  18  33  52  76 110 145 175 218 272 318
#     4   9  17  32  52  69  97 139 172 213 264 315
#     4  10  19  34  59  85 111 148 192 242 302 362
#     4   9  20  38  54  74 110 144 181 231 290 348
#
# _framework density 22.859625000000001
#
# number of rings (size 3 to 8) (size 9 to 14) (size 15 to 20)
#    0.000    3.222    0.000    3.333    0.000    1.556 
#    6.000    2.222    0.000    2.667    0.000    0.000 
#    0.000    0.000    0.000    0.000    0.000    0.000 
#
# Total GULP energy -401095.714108 kJ/mol
# GULP energy per Si atom -5570.773807 kJ/mol
# Density = 2.280760 g / cm^3
# Si number density = 22.859625 Si / 1000 Ang^3
#
#
#
# Elastic Constant Matrix: (Units=GPa)
#
#
# Indices 1 2 3 4 5 6 
#
# 1 105.0035 34.5228 16.8099 0.0000 0.0000 0.0000
# 2 34.5228 105.0035 16.8101 0.0000 0.0000 0.0000
# 3 16.8099 16.8101 59.1765 0.0000 0.0000 0.0000
# 4 0.0000 0.0000 0.0000 13.7092 0.0000 0.0000
# 5 0.0000 0.0000 0.0000 0.0000 13.7094 0.0000
# 6 0.0000 0.0000 0.0000 0.0000 0.0000 14.3399
#
#
#
# Elastic Compliance Matrix: (Units=1/GPa)
#
#
# Indices 1 2 3 4 5 6 
#
# 1 0.010941 -0.003247 -0.002185 0.000000 0.000000 0.000000
# 2 -0.003247 0.010941 -0.002186 0.000000 0.000000 0.000000
# 3 -0.002185 -0.002186 0.018140 0.000000 0.000000 0.000000
# 4 0.000000 0.000000 0.000000 0.072943 0.000000 0.000000
# 5 0.000000 0.000000 0.000000 0.000000 0.072942 0.000000
# 6 0.000000 0.000000 0.000000 0.000000 0.000000 0.069735
#
#
# Mechanical properties :
#
#
# Convention : Reuss Voigt Hill
#
# Bulk Modulus (GPa) = 40.34596 45.05212 42.69904
# Shear Modulus (GPa) = 17.91203 21.75444 19.83323
#
# Velocity S-wave (km/s) = 2.80226 3.08823 2.94872
# Velocity P-wave (km/s) = 5.30641 5.69800 5.50569
#
# Compressibility (1/GPa) = 0.02478563
#
# Stress axis : x y z
#
# Youngs Moduli (GPa) = 91.39935 91.39926 55.12603
#
# Poissons Ratio (x) = 0.29680 0.12048
# Poissons Ratio (y) = 0.29680 0.12048
# Poissons Ratio (z) = 0.19975 0.19976
#
# Static dielectric constant tensor:
#      x y z
#    x 1.805110 0.000000 0.000000 
#    y 0.000000 1.805110 0.000000 
#    z 0.000000 0.000000 1.927910 
# 
# From -- ./inp_files/4978.got.cif
#   From: 2010.05.17/outbox.cif.g08.bks.cpg/sg127_3_cif.got.tgz:4978.got - 2010.05.20 12:03:00.
