data_PCOD9563590
_publ_section_title
;
Structure prediction by ZEFSAII (Michael W. Deem and Ramdas Pophale) SiO2 
 PCOD9563590
Probable space group: P 4/N N C
;
_chemical_formula_sum "Si O2"
_cell_formula_units_Z 68
_cell_length_a 11.702425
_cell_length_b 11.702425
_cell_length_c 26.414639
_cell_angle_alpha 90.000000
_cell_angle_beta 90.000000
_cell_angle_gamma 90.000000
_cell_volume 3617.398987
_symmetry_space_group_name_H-M "P 4/N N C"
_symmetry_group_IT_number 126
_space_group.IT_coordinate_system_code '2'
_symmetry_cell_setting 'tetragonal'
loop_
_space_group_symop_operation_xyz
x,y,z
1/2-y,x,z
1/2-x,1/2-y,z
y,1/2-x,z
x,1/2-y,1/2-z
1/2-x,y,1/2-z
y,x,1/2-z
1/2-y,1/2-x,1/2-z
-x,-y,-z
1/2+y,-x,-z
1/2+x,1/2+y,-z
-y,1/2+x,-z
-x,1/2+y,1/2+z
1/2+x,-y,1/2+z
-y,-x,1/2+z
1/2+y,1/2+x,1/2+z
loop_
_atom_site_type_symbol
_atom_site_label
_atom_site_fract_x
_atom_site_fract_y
_atom_site_fract_z
Si Si1 0.063716 0.538686 0.890987
Si Si2 0.370471 0.104290 0.310109
Si Si3 0.250000 0.750000 0.000000
Si Si4 0.072668 0.200084 0.455927
Si Si5 0.530707 0.305854 0.563873
O O1 0.199699 0.522763 0.897299
O O2 0.999937 0.569371 0.838860
O O3 0.034652 0.644001 0.928695
O O4 0.002988 0.424297 0.910852
O O5 0.404679 0.235177 0.323215
O O6 0.395409 0.104592 0.250000
O O7 0.304667 0.653556 0.963791
O O8 0.174932 0.114265 0.441229
O O9 0.053729 0.206948 0.515897
#
# Coordination Sequence:
#
# PCOD9563590 Si02
#       5
#    16  16   4  16  16
#     4  12  24  38  58  87 118 165 200 247 298 359
#     4   9  20  42  69  92 113 143 194 256 310 360
#     4  12  24  36  52  88 130 156 192 260 288 336
#     4  11  21  37  57  79 113 158 207 241 281 344
#     4  12  24  37  54  82 127 163 203 236 292 354
#
# _framework density 18.798037000000001
#
# number of rings (size 3 to 8) (size 9 to 14) (size 15 to 20)
#    0.000    0.941    4.706    4.235    3.294    2.353 
#    0.000    1.176    0.000    2.824    0.000    1.647 
#    0.000    0.000    0.000    0.000    0.000    0.000 
#
# Total GULP energy -379566.432528 kJ/mol
# GULP energy per Si atom -5581.859302 kJ/mol
# Density = 1.875525 g / cm^3
# Si number density = 18.798037 Si / 1000 Ang^3
#
#
#
# Elastic Constant Matrix: (Units=GPa)
#
#
# Indices 1 2 3 4 5 6 
#
# 1 67.1495 34.8386 18.8092 0.0000 0.0000 0.0000
# 2 34.8386 67.1497 18.8092 0.0000 0.0000 0.0000
# 3 18.8092 18.8092 81.1939 0.0000 0.0000 0.0000
# 4 0.0000 0.0000 0.0000 30.8689 0.0000 0.0000
# 5 0.0000 0.0000 0.0000 0.0000 30.8687 0.0000
# 6 0.0000 0.0000 0.0000 0.0000 0.0000 24.5511
#
#
#
# Elastic Compliance Matrix: (Units=1/GPa)
#
#
# Indices 1 2 3 4 5 6 
#
# 1 0.020835 -0.010114 -0.002484 0.000000 0.000000 0.000000
# 2 -0.010114 0.020835 -0.002484 0.000000 0.000000 0.000000
# 3 -0.002484 -0.002484 0.013467 0.000000 0.000000 0.000000
# 4 0.000000 0.000000 0.000000 0.032395 0.000000 0.000000
# 5 0.000000 0.000000 0.000000 0.000000 0.032395 0.000000
# 6 0.000000 0.000000 0.000000 0.000000 0.000000 0.040731
#
#
# Mechanical properties :
#
#
# Convention : Reuss Voigt Hill
#
# Bulk Modulus (GPa) = 40.04062 40.04525 40.04293
# Shear Modulus (GPa) = 25.10714 26.79348 25.95031
#
# Velocity S-wave (km/s) = 3.65859 3.77946 3.71951
# Velocity P-wave (km/s) = 6.26048 6.35569 6.30827
#
# Compressibility (1/GPa) = 0.02497464
#
# Stress axis : x y z
#
# Youngs Moduli (GPa) = 47.99564 47.99582 74.25608
#
# Poissons Ratio (x) = 0.48543 0.18443
# Poissons Ratio (y) = 0.48543 0.18442
# Poissons Ratio (z) = 0.11920 0.11920
#
# Static dielectric constant tensor:
#      x y z
#    x 1.677010 0.000000 0.000000 
#    y 0.000000 1.677010 0.000000 
#    z 0.000000 0.000000 1.660290 
# 
# From -- ./inp_files/6117.got.cif
#   From: 2010.05.17/outbox.cif.g08.bks.cpg/sg126_4_cif.got.tgz:6117.got - 2010.05.20 11:58:20.
