data_PCOD9563734
_publ_section_title
;
Structure prediction by ZEFSAII (Michael W. Deem and Ramdas Pophale) SiO2 
 PCOD9563734
Probable space group: P 4/N N C
;
_chemical_formula_sum "Si O2"
_cell_formula_units_Z 96
_cell_length_a 15.000000
_cell_length_b 15.000000
_cell_length_c 21.000000
_cell_angle_alpha 90.000000
_cell_angle_beta 90.000000
_cell_angle_gamma 90.000000
_cell_volume 4725.000000
_symmetry_space_group_name_H-M "P 4/N N C"
_symmetry_group_IT_number 126
_space_group.IT_coordinate_system_code '2'
_symmetry_cell_setting 'tetragonal'
loop_
_space_group_symop_operation_xyz
x,y,z
1/2-y,x,z
1/2-x,1/2-y,z
y,1/2-x,z
x,1/2-y,1/2-z
1/2-x,y,1/2-z
y,x,1/2-z
1/2-y,1/2-x,1/2-z
-x,-y,-z
1/2+y,-x,-z
1/2+x,1/2+y,-z
-y,1/2+x,-z
-x,1/2+y,1/2+z
1/2+x,-y,1/2+z
-y,-x,1/2+z
1/2+y,1/2+x,1/2+z
loop_
_atom_site_type_symbol
_atom_site_label
_atom_site_fract_x
_atom_site_fract_y
_atom_site_fract_z
Si Si1 0.645032 0.500889 0.730631
Si Si2 0.853063 0.997449 0.226703
Si Si3 0.195350 0.387194 0.614207
Si Si4 0.049495 0.351600 0.024178
Si Si5 0.989176 0.676304 0.585537
Si Si6 0.338806 0.849283 0.513151
O O1 0.750000 0.495551 0.750000
O O2 0.587791 0.587791 0.750000
O O3 0.584555 0.412073 0.744249
O O4 0.645157 0.512676 0.655942
O O5 0.750000 0.001075 0.250000
O O6 0.912435 0.912435 0.250000
O O7 0.840866 0.972477 0.152254
O O8 0.138267 0.297919 0.628950
O O9 0.187555 0.409654 0.540315
O O10 0.054633 0.272956 0.075883
O O11 0.105160 0.437313 0.042748
O O12 0.944534 0.366953 0.013584
O O13 0.092160 0.679514 0.566378
O O14 0.350178 0.764461 0.465981
#
# Coordination Sequence:
#
# PCOD9563734 Si02
#       6
#    16  16  16  16  16  16
#     4  11  26  49  68  95 128 175 243 295 337 396
#     4  11  23  42  69 101 138 183 224 271 338 407
#     4  11  21  36  62 103 145 176 212 266 333 421
#     4  11  21  37  62  98 133 167 206 269 334 396
#     4  11  22  40  64  90 126 169 211 269 339 389
#     4   9  20  38  58  89 128 171 213 251 312 399
#
# _framework density 20.317460000000001
#
# number of rings (size 3 to 8) (size 9 to 14) (size 15 to 20)
#    0.000    1.333    3.333    2.500    0.000    1.000 
#    0.000   20.000    0.000    0.000    0.000    0.000 
#    0.000    0.000    0.000    0.000    0.000    0.000 
#
# Total GULP energy -534859.459257 kJ/mol
# GULP energy per Si atom -5571.452701 kJ/mol
# Density = 2.027122 g / cm^3
# Si number density = 20.317460 Si / 1000 Ang^3
#
#
#
# Elastic Constant Matrix: (Units=GPa)
#
#
# Indices 1 2 3 4 5 6 
#
# 1 121.1910 46.9690 13.2345 0.0000 0.0000 0.0000
# 2 46.9690 121.1910 13.2345 0.0000 0.0000 0.0000
# 3 13.2345 13.2345 44.1079 0.0000 0.0000 0.0000
# 4 0.0000 0.0000 0.0000 5.7351 0.0000 0.0000
# 5 0.0000 0.0000 0.0000 0.0000 5.7351 0.0000
# 6 0.0000 0.0000 0.0000 0.0000 0.0000 23.2805
#
#
#
# Elastic Compliance Matrix: (Units=1/GPa)
#
#
# Indices 1 2 3 4 5 6 
#
# 1 0.009857 -0.003616 -0.001873 0.000000 0.000000 0.000000
# 2 -0.003616 0.009857 -0.001873 0.000000 0.000000 0.000000
# 3 -0.001873 -0.001873 0.023796 0.000000 0.000000 0.000000
# 4 0.000000 0.000000 0.000000 0.174364 0.000000 0.000000
# 5 0.000000 0.000000 0.000000 0.000000 0.174364 0.000000
# 6 0.000000 0.000000 0.000000 0.000000 0.000000 0.042954
#
#
# Mechanical properties :
#
#
# Convention : Reuss Voigt Hill
#
# Bulk Modulus (GPa) = 34.73727 48.15175 41.44451
# Shear Modulus (GPa) = 10.88113 21.15362 16.01737
#
# Velocity S-wave (km/s) = 2.31672 3.23019 2.81081
# Velocity P-wave (km/s) = 4.92855 6.13705 5.56570
#
# Compressibility (1/GPa) = 0.02878753
#
# Stress axis : x y z
#
# Youngs Moduli (GPa) = 101.44777 101.44777 42.02471
#
# Poissons Ratio (x) = 0.36681 0.07870
# Poissons Ratio (y) = 0.36681 0.07870
# Poissons Ratio (z) = 0.18999 0.18999
#
# Static dielectric constant tensor:
#      x y z
#    x 1.645230 0.000000 0.000000 
#    y 0.000000 1.645230 0.000000 
#    z 0.000000 0.000000 1.745120 
# 
# From -- ./inp_files/5269.got.cif
#   From: 2010.05.17/outbox.ucp.g08.bks.cvg/sg126_3_cif.got.tgz:5269.got - 2010.06.11 11:36:48.
