data_PCOD9563311
_publ_section_title
;
Structure prediction by ZEFSAII (Michael W. Deem and Ramdas Pophale) SiO2 
 PCOD9563311
Probable space group: P 4/N N C
;
_chemical_formula_sum "Si O2"
_cell_formula_units_Z 96
_cell_length_a 14.415088
_cell_length_b 14.415088
_cell_length_c 18.719759
_cell_angle_alpha 90.000000
_cell_angle_beta 90.000000
_cell_angle_gamma 90.000000
_cell_volume 3889.867867
_symmetry_space_group_name_H-M "P 4/N N C"
_symmetry_group_IT_number 126
_space_group.IT_coordinate_system_code '2'
_symmetry_cell_setting 'tetragonal'
loop_
_space_group_symop_operation_xyz
x,y,z
1/2-y,x,z
1/2-x,1/2-y,z
y,1/2-x,z
x,1/2-y,1/2-z
1/2-x,y,1/2-z
y,x,1/2-z
1/2-y,1/2-x,1/2-z
-x,-y,-z
1/2+y,-x,-z
1/2+x,1/2+y,-z
-y,1/2+x,-z
-x,1/2+y,1/2+z
1/2+x,-y,1/2+z
-y,-x,1/2+z
1/2+y,1/2+x,1/2+z
loop_
_atom_site_type_symbol
_atom_site_label
_atom_site_fract_x
_atom_site_fract_y
_atom_site_fract_z
Si Si1 0.554774 0.868175 0.958291
Si Si2 0.099019 0.021232 0.585681
Si Si3 0.114445 0.714143 0.031030
Si Si4 0.339294 0.883060 0.801699
Si Si5 0.489386 0.248445 0.167612
Si Si6 0.073987 0.587780 0.155939
O O1 0.573774 0.810634 0.886223
O O2 0.480048 0.947542 0.938010
O O3 0.622602 0.916691 0.015917
O O4 0.488351 0.798700 0.003066
O O5 0.032409 0.084984 0.633768
O O6 0.167403 0.963527 0.637508
O O7 0.120406 0.670316 0.109326
O O8 0.152247 0.816157 0.017426
O O9 0.250000 0.860265 0.750000
O O10 0.405425 0.798919 0.830185
O O11 0.404599 0.924575 0.740254
O O12 0.458138 0.250000 0.250000
O O13 0.504210 0.353654 0.140385
#
# Coordination Sequence:
#
# PCOD9563311 Si02
#       6
#    16  16  16  16  16  16
#     4   9  17  33  46  67 101 144 190 235 300 357
#     4   9  19  33  49  65 103 152 186 242 290 361
#     4  10  19  26  44  70 103 138 179 231 286 369
#     4  10  21  32  50  74 107 152 194 238 293 375
#     4   9  18  31  48  74 105 143 192 238 303 364
#     4  10  19  31  47  71 104 146 186 231 294 370
#
# _framework density 24.679500999999998
#
# number of rings (size 3 to 8) (size 9 to 14) (size 15 to 20)
#    0.000    2.500    1.667    0.500    4.667    3.000 
#    0.000    0.000    0.000    0.000    0.000    0.000 
#    0.000   16.000   22.667   66.667    4.667    0.000 
#
# Total GULP energy -534779.411052 kJ/mol
# GULP energy per Si atom -5570.618865 kJ/mol
# Density = 2.462333 g / cm^3
# Si number density = 24.679501 Si / 1000 Ang^3
#
#
#
# Elastic Constant Matrix: (Units=GPa)
#
#
# Indices 1 2 3 4 5 6 
#
# 1 58.1973 23.8753 33.6260 0.0000 0.0000 0.0000
# 2 23.8753 58.1973 33.6260 0.0000 0.0000 0.0000
# 3 33.6260 33.6260 171.3218 0.0000 0.0000 0.0000
# 4 0.0000 0.0000 0.0000 32.2838 0.0000 0.0000
# 5 0.0000 0.0000 0.0000 0.0000 32.2838 0.0000
# 6 0.0000 0.0000 0.0000 0.0000 0.0000 32.4339
#
#
#
# Elastic Compliance Matrix: (Units=1/GPa)
#
#
# Indices 1 2 3 4 5 6 
#
# 1 0.021828 -0.007308 -0.002850 0.000000 0.000000 0.000000
# 2 -0.007308 0.021828 -0.002850 0.000000 0.000000 0.000000
# 3 -0.002850 -0.002850 0.006956 0.000000 0.000000 0.000000
# 4 0.000000 0.000000 0.000000 0.030975 0.000000 0.000000
# 5 0.000000 0.000000 0.000000 0.000000 0.030975 0.000000
# 6 0.000000 0.000000 0.000000 0.000000 0.000000 0.030832
#
#
# Mechanical properties :
#
#
# Convention : Reuss Voigt Hill
#
# Bulk Modulus (GPa) = 40.65791 52.21903 46.43847
# Shear Modulus (GPa) = 28.15195 32.50622 30.32909
#
# Velocity S-wave (km/s) = 3.38109 3.63317 3.50940
# Velocity P-wave (km/s) = 5.63494 6.22934 5.93958
#
# Compressibility (1/GPa) = 0.02459546
#
# Stress axis : x y z
#
# Youngs Moduli (GPa) = 45.81342 45.81342 143.76790
#
# Poissons Ratio (x) = 0.33481 0.40971
# Poissons Ratio (y) = 0.33481 0.40971
# Poissons Ratio (z) = 0.13056 0.13056
#
# Static dielectric constant tensor:
#      x y z
#    x 2.051000 0.000000 0.000000 
#    y 0.000000 2.051000 0.000000 
#    z 0.000000 0.000000 2.041470 
# 
# From -- ./inp_files/5252.got.cif
#   From: 2010.05.17/outbox.cif.g08.bks.cpg/sg126_3_cif.got.tgz:5252.got - 2010.05.20 11:58:20.
