data_PCOD9563732
_publ_section_title
;
Structure prediction by ZEFSAII (Michael W. Deem and Ramdas Pophale) SiO2 
 PCOD9563732
Probable space group: P 4/N N C
;
_chemical_formula_sum "Si O2"
_cell_formula_units_Z 108
_cell_length_a 15.000000
_cell_length_b 15.000000
_cell_length_c 24.000000
_cell_angle_alpha 90.000000
_cell_angle_beta 90.000000
_cell_angle_gamma 90.000000
_cell_volume 5400.000000
_symmetry_space_group_name_H-M "P 4/N N C"
_symmetry_group_IT_number 126
_space_group.IT_coordinate_system_code '2'
_symmetry_cell_setting 'tetragonal'
loop_
_space_group_symop_operation_xyz
x,y,z
1/2-y,x,z
1/2-x,1/2-y,z
y,1/2-x,z
x,1/2-y,1/2-z
1/2-x,y,1/2-z
y,x,1/2-z
1/2-y,1/2-x,1/2-z
-x,-y,-z
1/2+y,-x,-z
1/2+x,1/2+y,-z
-y,1/2+x,-z
-x,1/2+y,1/2+z
1/2+x,-y,1/2+z
-y,-x,1/2+z
1/2+y,1/2+x,1/2+z
loop_
_atom_site_type_symbol
_atom_site_label
_atom_site_fract_x
_atom_site_fract_y
_atom_site_fract_z
Si Si1 0.750000 0.750000 0.631654
Si Si2 0.250000 0.750000 0.396203
Si Si3 0.083283 0.111675 0.387656
Si Si4 0.957615 0.499620 0.312842
Si Si5 0.839295 0.327410 0.788563
Si Si6 0.136373 0.353229 0.605672
Si Si7 0.492542 0.141526 0.499766
Si Si8 0.180415 0.572982 0.458909
O O1 0.834485 0.824183 0.629606
O O2 0.182172 0.789687 0.350266
O O3 0.213266 0.668264 0.433667
O O4 0.116362 0.049880 0.439901
O O5 0.000258 0.169389 0.410600
O O6 0.037724 0.048191 0.341312
O O7 0.966028 0.533973 0.250000
O O8 0.901841 0.409692 0.302506
O O9 0.913161 0.578297 0.351171
O O10 0.881045 0.250000 0.750000
O O11 0.750000 0.351073 0.750000
O O12 0.128196 0.243838 0.610820
O O13 0.084924 0.370141 0.546441
O O14 0.530437 0.243263 0.498077
O O15 0.582656 0.085902 0.513581
#
# Coordination Sequence:
#
# PCOD9563732 Si02
#       8
#     4   8  16  16  16  16  16  16
#     4  12  28  52  77 108 152 208 241 328 376 482
#     4  10  23  43  70 110 144 184 235 323 394 454
#     4  12  27  47  73 107 145 200 256 304 386 461
#     4  12  29  46  77 109 145 200 263 324 379 458
#     4   9  23  43  74 102 143 189 241 313 394 449
#     4  11  28  47  73 112 157 210 259 316 394 473
#     4  12  25  44  72 111 154 199 253 319 389 471
#     4  12  24  41  73 108 153 192 252 311 391 466
#
# _framework density 20.0
#
# number of rings (size 3 to 8) (size 9 to 14) (size 15 to 20)
#    0.000    0.889    2.963    3.111   10.370    0.000 
#    0.000    1.111    0.000    0.000    0.000    0.000 
#    0.000    0.000    0.000    0.000    0.000    0.000 
#
# Total GULP energy -601550.582283 kJ/mol
# GULP energy per Si atom -5569.912799 kJ/mol
# Density = 1.995448 g / cm^3
# Si number density = 20.000000 Si / 1000 Ang^3
#
#
#
# Elastic Constant Matrix: (Units=GPa)
#
#
# Indices 1 2 3 4 5 6 
#
# 1 102.7454 51.1351 24.9922 0.0000 0.0000 0.0000
# 2 51.1351 102.7466 24.9926 0.0000 0.0000 0.0000
# 3 24.9922 24.9926 91.1669 0.0000 0.0000 0.0000
# 4 0.0000 0.0000 0.0000 13.1732 0.0000 0.0000
# 5 0.0000 0.0000 0.0000 0.0000 13.1694 0.0000
# 6 0.0000 0.0000 0.0000 0.0000 0.0000 62.4779
#
#
#
# Elastic Compliance Matrix: (Units=1/GPa)
#
#
# Indices 1 2 3 4 5 6 
#
# 1 0.013255 -0.006121 -0.001956 0.000000 0.000000 0.000000
# 2 -0.006121 0.013255 -0.001956 0.000000 0.000000 0.000000
# 3 -0.001956 -0.001956 0.012041 0.000000 0.000000 0.000000
# 4 0.000000 0.000000 0.000000 0.075912 0.000000 0.000000
# 5 0.000000 0.000000 0.000000 0.000000 0.075934 0.000000
# 6 0.000000 0.000000 0.000000 0.000000 0.000000 0.016006
#
#
# Mechanical properties :
#
#
# Convention : Reuss Voigt Hill
#
# Bulk Modulus (GPa) = 54.09473 55.43320 54.76396
# Shear Modulus (GPa) = 21.49352 30.80003 26.14677
#
# Velocity S-wave (km/s) = 3.28178 3.92854 3.61964
# Velocity P-wave (km/s) = 6.43943 6.95375 6.70153
#
# Compressibility (1/GPa) = 0.01848609
#
# Stress axis : x y z
#
# Youngs Moduli (GPa) = 75.44422 75.44493 83.04871
#
# Poissons Ratio (x) = 0.46180 0.16241
# Poissons Ratio (y) = 0.46179 0.16242
# Poissons Ratio (z) = 0.14754 0.14755
#
# Static dielectric constant tensor:
#      x y z
#    x 1.854570 0.000000 0.000000 
#    y 0.000000 1.854610 0.000000 
#    z 0.000000 0.000000 1.736810 
# 
# From -- ./inp_files/5880.got.cif
#   From: 2010.05.17/outbox.ucp.g08.bks.cvg/sg126_3_cif.got.tgz:5880.got - 2010.06.11 11:36:48.
