data_PCOD9563671
_publ_section_title
;
Structure prediction by ZEFSAII (Michael W. Deem and Ramdas Pophale) SiO2 
 PCOD9563671
Probable space group: P 4/N N C
;
_chemical_formula_sum "Si O2"
_cell_formula_units_Z 112
_cell_length_a 12.236030
_cell_length_b 12.236030
_cell_length_c 28.455159
_cell_angle_alpha 90.000000
_cell_angle_beta 90.000000
_cell_angle_gamma 90.000000
_cell_volume 4260.318646
_symmetry_space_group_name_H-M "P 4/N N C"
_symmetry_group_IT_number 126
_space_group.IT_coordinate_system_code '2'
_symmetry_cell_setting 'tetragonal'
loop_
_space_group_symop_operation_xyz
x,y,z
1/2-y,x,z
1/2-x,1/2-y,z
y,1/2-x,z
x,1/2-y,1/2-z
1/2-x,y,1/2-z
y,x,1/2-z
1/2-y,1/2-x,1/2-z
-x,-y,-z
1/2+y,-x,-z
1/2+x,1/2+y,-z
-y,1/2+x,-z
-x,1/2+y,1/2+z
1/2+x,-y,1/2+z
-y,-x,1/2+z
1/2+y,1/2+x,1/2+z
loop_
_atom_site_type_symbol
_atom_site_label
_atom_site_fract_x
_atom_site_fract_y
_atom_site_fract_z
Si Si1 0.137631 0.881553 0.635568
Si Si2 0.471059 0.803447 0.702710
Si Si3 0.883940 0.865343 0.122098
Si Si4 0.188375 0.502502 0.703614
Si Si5 0.911365 0.838607 0.987291
Si Si6 0.907232 0.842957 0.886066
Si Si7 0.329566 0.876729 0.970673
O O1 0.088025 0.789437 0.670030
O O2 0.238874 0.930979 0.665119
O O3 0.163833 0.837619 0.583198
O O4 0.077535 0.996448 0.621233
O O5 0.518013 0.750000 0.750000
O O6 0.394393 0.597815 0.780665
O O7 0.549152 0.862044 0.665587
O O8 0.760980 0.896092 0.104073
O O9 0.858679 0.897015 0.176845
O O10 0.250000 0.469937 0.750000
O O11 0.791492 0.889528 0.990768
O O12 0.961297 0.866956 0.935970
O O13 0.001140 0.874923 0.024220
O O14 0.787797 0.893403 0.888511
O O15 0.382375 0.792479 0.007551
#
# Coordination Sequence:
#
# PCOD9563671 Si02
#       7
#    16  16  16  16  16  16  16
#     4  11  25  43  68  99 141 188 235 293 365 433
#     4  12  25  41  69  96 137 185 241 295 350 433
#     4   9  22  46  72 103 142 182 232 295 357 424
#     4  11  24  44  70 100 137 188 234 288 357 429
#     4   9  20  43  72 101 137 182 231 288 356 429
#     4   9  21  42  65  97 137 184 231 286 352 414
#     4  11  26  43  66 105 141 185 237 300 361 426
#
# _framework density 26.289113
#
# number of rings (size 3 to 8) (size 9 to 14) (size 15 to 20)
#    0.000    1.714    1.429    2.143    8.000    5.714 
#    0.000    6.429    0.000    0.000    0.000    0.000 
#    0.000    0.000    0.000    0.000    0.000    0.000 
#
# Total GULP energy -624560.142970 kJ/mol
# GULP energy per Si atom -5576.429848 kJ/mol
# Density = 2.622928 g / cm^3
# Si number density = 26.289113 Si / 1000 Ang^3
#
#
#
# Elastic Constant Matrix: (Units=GPa)
#
#
# Indices 1 2 3 4 5 6 
#
# 1 92.8073 -7.2054 23.8179 0.0000 0.0000 0.0000
# 2 -7.2054 92.8073 23.8179 0.0000 0.0000 0.0000
# 3 23.8179 23.8179 200.0154 0.0000 0.0000 0.0000
# 4 0.0000 0.0000 0.0000 28.6543 0.0000 0.0000
# 5 0.0000 0.0000 0.0000 0.0000 28.6543 0.0000
# 6 0.0000 0.0000 0.0000 0.0000 0.0000 9.8593
#
#
#
# Elastic Compliance Matrix: (Units=1/GPa)
#
#
# Indices 1 2 3 4 5 6 
#
# 1 0.011255 0.001256 -0.001490 0.000000 0.000000 0.000000
# 2 0.001256 0.011255 -0.001490 0.000000 0.000000 0.000000
# 3 -0.001490 -0.001490 0.005354 0.000000 0.000000 0.000000
# 4 0.000000 0.000000 0.000000 0.034899 0.000000 0.000000
# 5 0.000000 0.000000 0.000000 0.000000 0.034899 0.000000
# 6 0.000000 0.000000 0.000000 0.000000 0.000000 0.101427
#
#
# Mechanical properties :
#
#
# Convention : Reuss Voigt Hill
#
# Bulk Modulus (GPa) = 40.95469 51.83232 46.39351
# Shear Modulus (GPa) = 23.73326 36.44688 30.09007
#
# Velocity S-wave (km/s) = 3.00789 3.72746 3.38684
# Velocity P-wave (km/s) = 5.26076 6.18744 5.74282
#
# Compressibility (1/GPa) = 0.02441723
#
# Stress axis : x y z
#
# Youngs Moduli (GPa) = 88.85030 88.85030 186.76120
#
# Poissons Ratio (x) = -0.11161 0.27824
# Poissons Ratio (y) = -0.11161 0.27824
# Poissons Ratio (z) = 0.13237 0.13237
#
# Static dielectric constant tensor:
#      x y z
#    x 2.140800 0.000000 0.000000 
#    y 0.000000 2.140800 0.000000 
#    z 0.000000 0.000000 2.108420 
# 
# From -- ./inp_files/6247.got.cif
#   From: 2010.05.17/outbox.cif.g08.bks.cpg/sg126_4_cif.got.tgz:6247.got - 2010.05.20 11:58:20.
