data_PCOD9563604
_publ_section_title
;
Structure prediction by ZEFSAII (Michael W. Deem and Ramdas Pophale) SiO2 
 PCOD9563604
Probable space group: P 4/N N C
;
_chemical_formula_sum "Si O2"
_cell_formula_units_Z 116
_cell_length_a 17.641594
_cell_length_b 17.641594
_cell_length_c 19.768018
_cell_angle_alpha 90.000000
_cell_angle_beta 90.000000
_cell_angle_gamma 90.000000
_cell_volume 6152.317985
_symmetry_space_group_name_H-M "P 4/N N C"
_symmetry_group_IT_number 126
_space_group.IT_coordinate_system_code '2'
_symmetry_cell_setting 'tetragonal'
loop_
_space_group_symop_operation_xyz
x,y,z
1/2-y,x,z
1/2-x,1/2-y,z
y,1/2-x,z
x,1/2-y,1/2-z
1/2-x,y,1/2-z
y,x,1/2-z
1/2-y,1/2-x,1/2-z
-x,-y,-z
1/2+y,-x,-z
1/2+x,1/2+y,-z
-y,1/2+x,-z
-x,1/2+y,1/2+z
1/2+x,-y,1/2+z
-y,-x,1/2+z
1/2+y,1/2+x,1/2+z
loop_
_atom_site_type_symbol
_atom_site_label
_atom_site_fract_x
_atom_site_fract_y
_atom_site_fract_z
Si Si1 0.219741 0.372259 0.583164
Si Si2 0.250000 0.750000 0.250000
Si Si3 0.376171 0.256121 0.425448
Si Si4 0.808163 0.362399 0.013067
Si Si5 0.134122 0.833609 0.657099
Si Si6 0.669545 0.945829 0.285739
Si Si7 0.694343 0.036043 0.888982
Si Si8 0.575867 0.045455 0.767964
O O1 0.162162 0.302715 0.595805
O O2 0.226577 0.393516 0.504664
O O3 0.191856 0.433143 0.636174
O O4 0.306711 0.797538 0.296346
O O5 0.319156 0.325683 0.410558
O O6 0.456425 0.238852 0.392133
O O7 0.828672 0.431684 0.963013
O O8 0.846199 0.282755 0.988034
O O9 0.837258 0.375216 0.089453
O O10 0.097567 0.754803 0.634628
O O11 0.073958 0.877286 0.703081
O O12 0.750000 0.958419 0.250000
O O13 0.625785 0.874216 0.250000
O O14 0.612016 0.015150 0.280536
O O15 0.627854 0.034000 0.833900
O O16 0.530149 0.969852 0.750000
#
# Coordination Sequence:
#
# PCOD9563604 Si02
#       8
#    16   4  16  16  16  16  16  16
#     4   9  17  34  59  86 119 155 206 256 296 352
#     4  12  20  40  70  96 116 162 228 260 320 368
#     4   9  21  40  65  93 116 154 212 271 318 375
#     4   9  20  38  65  99 126 154 213 270 301 372
#     4  11  23  41  68  93 123 166 215 261 316 379
#     4  11  22  34  56  88 127 171 210 245 299 372
#     4  11  22  43  68  91 122 168 209 259 338 376
#     4  11  27  43  56  91 134 170 209 258 315 390
#
# _framework density 18.854683000000001
#
# number of rings (size 3 to 8) (size 9 to 14) (size 15 to 20)
#    0.000    1.793    2.759    2.483    2.897    3.448 
#    2.483    0.690    0.000    0.000    0.000    0.000 
#    0.000    0.000    0.000    0.000    0.000    0.000 
#
# Total GULP energy -646709.739738 kJ/mol
# GULP energy per Si atom -5575.083963 kJ/mol
# Density = 1.881177 g / cm^3
# Si number density = 18.854683 Si / 1000 Ang^3
#
#
#
# Elastic Constant Matrix: (Units=GPa)
#
#
# Indices 1 2 3 4 5 6 
#
# 1 58.6354 6.1976 36.8463 0.0000 0.0000 0.0000
# 2 6.1976 58.6360 36.8461 0.0000 0.0000 0.0000
# 3 36.8463 36.8461 95.9010 0.0000 0.0000 0.0000
# 4 0.0000 0.0000 0.0000 11.8066 0.0000 0.0000
# 5 0.0000 0.0000 0.0000 0.0000 11.8027 0.0000
# 6 0.0000 0.0000 0.0000 0.0000 0.0000 26.7773
#
#
#
# Elastic Compliance Matrix: (Units=1/GPa)
#
#
# Indices 1 2 3 4 5 6 
#
# 1 0.023226 0.004156 -0.010521 0.000000 0.000000 0.000000
# 2 0.004156 0.023226 -0.010521 0.000000 0.000000 0.000000
# 3 -0.010521 -0.010521 0.018512 0.000000 0.000000 0.000000
# 4 0.000000 0.000000 0.000000 0.084699 0.000000 0.000000
# 5 0.000000 0.000000 0.000000 0.000000 0.084726 0.000000
# 6 0.000000 0.000000 0.000000 0.000000 0.000000 0.037345
#
#
# Mechanical properties :
#
#
# Convention : Reuss Voigt Hill
#
# Bulk Modulus (GPa) = 32.05746 41.43917 36.74832
# Shear Modulus (GPa) = 15.82767 18.96280 17.39523
#
# Velocity S-wave (km/s) = 2.90048 3.17477 3.04072
# Velocity P-wave (km/s) = 5.31567 5.95523 5.64452
#
# Compressibility (1/GPa) = 0.03119399
#
# Stress axis : x y z
#
# Youngs Moduli (GPa) = 43.05439 43.05511 54.01990
#
# Poissons Ratio (x) = -0.17894 0.56833
# Poissons Ratio (y) = -0.17894 0.56832
# Poissons Ratio (z) = 0.45296 0.45296
#
# Static dielectric constant tensor:
#      x y z
#    x 1.638510 0.000000 0.000000 
#    y 0.000000 1.638510 0.000000 
#    z 0.000000 0.000000 1.689660 
# 
# From -- ./inp_files/4625.got.cif
#   From: 2010.05.17/outbox.cif.g08.bks.cpg/sg126_3_cif.got.tgz:4625.got - 2010.05.20 11:58:20.
