data_PCOD9563084
_publ_section_title
;
Structure prediction by ZEFSAII (Michael W. Deem and Ramdas Pophale) SiO2 
 PCOD9563084
Probable space group: P 4/N B M
;
_chemical_formula_sum "Si O2"
_cell_formula_units_Z 84
_cell_length_a 19.808318
_cell_length_b 19.808318
_cell_length_c 10.515792
_cell_angle_alpha 90.000000
_cell_angle_beta 90.000000
_cell_angle_gamma 90.000000
_cell_volume 4126.075649
_symmetry_space_group_name_H-M "P 4/N B M"
_symmetry_group_IT_number 125
_space_group.IT_coordinate_system_code '2'
_symmetry_cell_setting 'tetragonal'
loop_
_space_group_symop_operation_xyz
x,y,z
1/2-y,x,z
1/2-x,1/2-y,z
y,1/2-x,z
x,1/2-y,-z
1/2-x,y,-z
y,x,-z
1/2-y,1/2-x,-z
-x,-y,-z
1/2+y,-x,-z
1/2+x,1/2+y,-z
-y,1/2+x,-z
-x,1/2+y,z
1/2+x,-y,z
-y,-x,z
1/2+y,1/2+x,z
loop_
_atom_site_type_symbol
_atom_site_label
_atom_site_fract_x
_atom_site_fract_y
_atom_site_fract_z
Si Si1 0.750000 0.250000 0.721873
Si Si2 0.000539 0.198615 0.617368
Si Si3 0.454608 0.432137 0.687764
Si Si4 0.348756 0.848756 0.576020
Si Si5 0.502274 0.391822 0.957347
Si Si6 0.352043 0.852043 0.270000
Si Si7 0.505212 0.818153 0.202267
O O1 0.703128 0.296873 0.635824
O O2 0.800041 0.300041 0.793611
O O3 0.005702 0.250000 0.500000
O O4 0.922830 0.173622 0.621009
O O5 0.021742 0.245923 0.736876
O O6 0.041874 0.129703 0.590147
O O7 0.503067 0.496934 0.659651
O O8 0.489584 0.392934 0.807730
O O9 0.380674 0.455369 0.730918
O O10 0.347176 0.847176 0.423329
O O11 0.576229 0.423772 0.981555
O O12 0.448930 0.448930 0.000000
O O13 0.488765 0.329447 0.050251
O O14 0.427349 0.832442 0.234484
#
# Coordination Sequence:
#
# PCOD9563084 Si02
#       7
#     4  16  16   8  16   8  16
#     4  12  21  32  52  74 123 172 197 232 279 354
#     4  12  24  36  53  84 118 153 199 239 296 347
#     4  10  21  38  60  83 115 149 195 259 300 346
#     4  12  21  35  49  77 116 158 198 236 278 350
#     4   8  15  31  56  84 110 143 189 243 299 347
#     4  12  19  31  52  82 112 159 198 237 278 355
#     4  11  20  35  59  86 113 150 202 242 301 357
#
# _framework density 20.358326999999999
#
# number of rings (size 3 to 8) (size 9 to 14) (size 15 to 20)
#    0.000    1.333    6.667    2.000    0.000    1.524 
#    0.000    1.905    0.000    0.571    0.000    2.667 
#    0.000    4.571    0.000    0.000    0.000    0.000 
#
# Total GULP energy -468663.124708 kJ/mol
# GULP energy per Si atom -5579.322913 kJ/mol
# Density = 2.031199 g / cm^3
# Si number density = 20.358327 Si / 1000 Ang^3
#
#
#
# Elastic Constant Matrix: (Units=GPa)
#
#
# Indices 1 2 3 4 5 6 
#
# 1 94.8633 51.7790 3.4200 0.0000 0.0000 0.0000
# 2 51.7790 94.8633 3.4200 0.0000 0.0000 0.0000
# 3 3.4200 3.4200 38.5587 0.0000 0.0000 0.0000
# 4 0.0000 0.0000 0.0000 20.2208 0.0000 0.0000
# 5 0.0000 0.0000 0.0000 0.0000 20.2208 0.0000
# 6 0.0000 0.0000 0.0000 0.0000 0.0000 37.0345
#
#
#
# Elastic Compliance Matrix: (Units=1/GPa)
#
#
# Indices 1 2 3 4 5 6 
#
# 1 0.015029 -0.008181 -0.000607 0.000000 0.000000 0.000000
# 2 -0.008181 0.015029 -0.000607 0.000000 0.000000 0.000000
# 3 -0.000607 -0.000607 0.026042 0.000000 0.000000 0.000000
# 4 0.000000 0.000000 0.000000 0.049454 0.000000 0.000000
# 5 0.000000 0.000000 0.000000 0.000000 0.049454 0.000000
# 6 0.000000 0.000000 0.000000 0.000000 0.000000 0.027002
#
#
# Mechanical properties :
#
#
# Convention : Reuss Voigt Hill
#
# Bulk Modulus (GPa) = 26.80382 38.39146 32.59764
# Shear Modulus (GPa) = 23.44796 26.80631 25.12714
#
# Velocity S-wave (km/s) = 3.39744 3.63261 3.51699
# Velocity P-wave (km/s) = 5.34647 6.04096 5.70430
#
# Compressibility (1/GPa) = 0.03730812
#
# Stress axis : x y z
#
# Youngs Moduli (GPa) = 66.53811 66.53811 38.39915
#
# Poissons Ratio (x) = 0.54437 0.02332
# Poissons Ratio (y) = 0.54437 0.02332
# Poissons Ratio (z) = 0.04041 0.04041
#
# Static dielectric constant tensor:
#      x y z
#    x 1.734750 0.000000 0.000000 
#    y 0.000000 1.734750 0.000000 
#    z 0.000000 0.000000 1.954760 
# 
# From -- ./inp_files/4066.got.cif
#   From: 2010.05.17/outbox.cif.g08.bks.cpg/sg125_3_cif.got.tgz:4066.got - 2010.05.20 11:54:10.
