data_PCOD9563864
_publ_section_title
;
Structure prediction by ZEFSAII (Michael W. Deem and Ramdas Pophale) SiO2 
 PCOD9563864
Probable space group: P 4/M B M
;
_chemical_formula_sum "Si O2"
_cell_formula_units_Z 96
_cell_length_a 24.645577
_cell_length_b 24.645577
_cell_length_c 7.519737
_cell_angle_alpha 90.000000
_cell_angle_beta 90.000000
_cell_angle_gamma 90.000000
_cell_volume 4567.521834
_symmetry_space_group_name_H-M "P 4/M B M"
_symmetry_group_IT_number 127
_symmetry_cell_setting 'tetragonal'
loop_
_space_group_symop_operation_xyz
x,y,z
-y,x,z
-x,-y,z
y,-x,z
1/2+x,1/2-y,-z
1/2-x,1/2+y,-z
1/2+y,1/2+x,-z
1/2-y,1/2-x,-z
-x,-y,-z
y,-x,-z
x,y,-z
-y,x,-z
1/2-x,1/2+y,z
1/2+x,1/2-y,z
1/2-y,1/2-x,z
1/2+y,1/2+x,z
loop_
_atom_site_type_symbol
_atom_site_label
_atom_site_fract_x
_atom_site_fract_y
_atom_site_fract_z
Si Si1 0.142241 0.729566 0.716446
Si Si2 0.770150 0.183635 0.284983
Si Si3 0.201683 0.939143 0.792491
Si Si4 0.793232 0.476306 0.707339
Si Si5 0.498948 0.912492 0.283064
Si Si6 0.581923 0.531611 0.216830
O O1 0.142065 0.732932 0.500000
O O2 0.175242 0.675242 0.762981
O O3 0.178666 0.780174 0.776212
O O4 0.081083 0.726746 0.783100
O O5 0.769641 0.183896 0.500000
O O6 0.715902 0.215902 0.227367
O O7 0.778138 0.122251 0.227980
O O8 0.140638 0.948136 0.720551
O O9 0.246343 0.979458 0.715670
O O10 0.198877 0.952357 0.000000
O O11 0.804475 0.465167 0.500000
O O12 0.850907 0.496346 0.781454
O O13 0.496736 0.912190 0.500000
O O14 0.446164 0.946164 0.223322
O O15 0.551610 0.948391 0.234848
O O16 0.530318 0.568251 0.271263
O O17 0.581840 0.532773 0.000000
#
# Coordination Sequence:
#
# PCOD9563864 Si02
#       6
#    16  16  16  16  16  16
#     4   8  15  30  54  80 101 129 173 223 268 306
#     4   9  19  37  57  74  98 135 176 216 263 317
#     4  11  23  34  51  79 108 139 174 216 260 311
#     4  10  19  31  50  77 107 137 169 209 257 308
#     4   8  14  26  47  75 102 129 167 211 247 286
#     4   8  16  33  54  73  96 132 176 217 259 309
#
# _framework density 21.017961
#
# number of rings (size 3 to 8) (size 9 to 14) (size 15 to 20)
#    0.000    3.000    0.000    3.000    2.333    3.000 
#    0.000    1.667    0.000    3.000    0.000    5.833 
#    0.000    0.000    0.000    0.000    0.000    0.000 
#
# Total GULP energy -535638.940871 kJ/mol
# GULP energy per Si atom -5579.572301 kJ/mol
# Density = 2.097012 g / cm^3
# Si number density = 21.017961 Si / 1000 Ang^3
#
#
#
# Elastic Constant Matrix: (Units=GPa)
#
#
# Indices 1 2 3 4 5 6 
#
# 1 105.5849 100.6655 -14.8058 0.0000 0.0000 0.0000
# 2 100.6655 105.5849 -14.8058 0.0000 0.0000 0.0000
# 3 -14.8058 -14.8058 46.9023 0.0000 0.0000 0.0000
# 4 0.0000 0.0000 0.0000 -7.9292 0.0000 0.0000
# 5 0.0000 0.0000 0.0000 0.0000 -7.9292 0.0000
# 6 0.0000 0.0000 0.0000 0.0000 0.0000 14.6805
#
#
#
# Elastic Compliance Matrix: (Units=1/GPa)
#
#
# Indices 1 2 3 4 5 6 
#
# 1 0.104179 -0.099101 0.001603 0.000000 0.000000 0.000000
# 2 -0.099101 0.104179 0.001603 0.000000 0.000000 0.000000
# 3 0.001603 0.001603 0.022333 0.000000 0.000000 0.000000
# 4 0.000000 0.000000 0.000000 -0.126117 0.000000 0.000000
# 5 0.000000 0.000000 0.000000 0.000000 -0.126117 0.000000
# 6 0.000000 0.000000 0.000000 0.000000 0.000000 0.068117
#
#
# Mechanical properties :
#
#
# Convention : Reuss Voigt Hill
#
# Bulk Modulus (GPa) = 25.70483 44.46442 35.08463
# Shear Modulus (GPa) = 19.89399 12.23231 16.06315
#
# Velocity S-wave (km/s) = 3.07990 2.41507 2.76752
# Velocity P-wave (km/s) = 4.99041 5.38313 5.19049
#
# Compressibility (1/GPa) = 0.03890319
#
# Stress axis : x y z
#
# Youngs Moduli (GPa) = 9.59883 9.59883 44.77656
#
# Poissons Ratio (x) = 0.95125 -0.07179
# Poissons Ratio (y) = 0.95125 -0.07179
# Poissons Ratio (z) = -0.01539 -0.01539
#
# Static dielectric constant tensor:
#      x y z
#    x 1.728810 0.000000 0.000000 
#    y 0.000000 1.728810 0.000000 
#    z 0.000000 0.000000 1.835200 
# 
# From -- ./inp_files/1946.got.cif
#   From: 2010.05.17/outbox.cif.g08.bks.cpg/sg127_1_cif.got.tgz:1946.got - 2010.05.20 12:03:00.
