data_PCOD9563904
_publ_section_title
;
Structure prediction by ZEFSAII (Michael W. Deem and Ramdas Pophale) SiO2 
 PCOD9563904
Probable space group: P 4/M B M
;
_chemical_formula_sum "Si O2"
_cell_formula_units_Z 80
_cell_length_a 23.167687
_cell_length_b 23.167687
_cell_length_c 9.813830
_cell_angle_alpha 90.000000
_cell_angle_beta 90.000000
_cell_angle_gamma 90.000000
_cell_volume 5267.492003
_symmetry_space_group_name_H-M "P 4/M B M"
_symmetry_group_IT_number 127
_symmetry_cell_setting 'tetragonal'
loop_
_space_group_symop_operation_xyz
x,y,z
-y,x,z
-x,-y,z
y,-x,z
1/2+x,1/2-y,-z
1/2-x,1/2+y,-z
1/2+y,1/2+x,-z
1/2-y,1/2-x,-z
-x,-y,-z
y,-x,-z
x,y,-z
-y,x,-z
1/2-x,1/2+y,z
1/2+x,1/2-y,z
1/2-y,1/2-x,z
1/2+y,1/2+x,z
loop_
_atom_site_type_symbol
_atom_site_label
_atom_site_fract_x
_atom_site_fract_y
_atom_site_fract_z
Si Si1 0.521716 0.405015 0.000000
Si Si2 0.235535 0.083782 0.660673
Si Si3 0.763601 0.736400 0.834713
Si Si4 0.520404 0.325880 0.739202
Si Si5 0.305712 0.348270 0.340755
Si Si6 0.988224 0.094941 0.500000
Si Si7 0.180860 0.680860 0.662293
O O1 0.566319 0.458145 0.000000
O O2 0.529280 0.363966 0.128396
O O3 0.233614 0.068507 0.500000
O O4 0.186305 0.133609 0.683716
O O5 0.296472 0.116244 0.683613
O O6 0.225220 0.026482 0.749212
O O7 0.822543 0.759171 0.765135
O O8 0.718219 0.781782 0.768598
O O9 0.764390 0.735611 0.000000
O O10 0.583232 0.310897 0.680894
O O11 0.487519 0.367049 0.632940
O O12 0.290964 0.336857 0.500000
O O13 0.938365 0.048606 0.500000
O O14 0.194079 0.694079 0.500000
#
# Coordination Sequence:
#
# PCOD9563904 Si02
#       7
#     8  16   8  16  16   8   8
#     4  11  24  36  42  58  96 140 172 203 246 280
#     4   9  16  30  49  70  91 120 160 201 247 289
#     4  10  20  32  50  70  92 121 156 197 247 305
#     4  12  21  32  49  68  94 127 167 208 244 290
#     4  10  19  33  51  70  94 122 160 206 247 288
#     4  11  20  30  46  66  88 124 172 209 228 264
#     4   8  16  32  52  70  94 121 156 205 249 293
#
# _framework density 15.187493
#
# number of rings (size 3 to 8) (size 9 to 14) (size 15 to 20)
#    0.000    1.800    2.000    5.700    1.400    1.600 
#    7.200    0.000    0.000    0.000    0.000    0.000 
#    0.000    0.800    0.000    6.600    0.000    0.500 
#
# Total GULP energy -445580.868904 kJ/mol
# GULP energy per Si atom -5569.760861 kJ/mol
# Density = 1.515293 g / cm^3
# Si number density = 15.187493 Si / 1000 Ang^3
#
#
#
# Elastic Constant Matrix: (Units=GPa)
#
#
# Indices 1 2 3 4 5 6 
#
# 1 42.2926 12.8026 15.2282 0.0000 0.0000 0.0000
# 2 12.8026 42.2924 15.2281 0.0000 0.0000 0.0000
# 3 15.2282 15.2281 77.6926 0.0000 0.0000 0.0000
# 4 0.0000 0.0000 0.0000 21.1780 0.0000 0.0000
# 5 0.0000 0.0000 0.0000 0.0000 21.1780 0.0000
# 6 0.0000 0.0000 0.0000 0.0000 0.0000 54.7944
#
#
#
# Elastic Compliance Matrix: (Units=1/GPa)
#
#
# Indices 1 2 3 4 5 6 
#
# 1 0.027133 -0.006777 -0.003990 0.000000 0.000000 0.000000
# 2 -0.006777 0.027133 -0.003990 0.000000 0.000000 0.000000
# 3 -0.003990 -0.003990 0.014435 0.000000 0.000000 0.000000
# 4 0.000000 0.000000 0.000000 0.047219 0.000000 0.000000
# 5 0.000000 0.000000 0.000000 0.000000 0.047219 0.000000
# 6 0.000000 0.000000 0.000000 0.000000 0.000000 0.018250
#
#
# Mechanical properties :
#
#
# Convention : Reuss Voigt Hill
#
# Bulk Modulus (GPa) = 25.51812 27.64392 26.58102
# Shear Modulus (GPa) = 22.32492 27.36466 24.84479
#
# Velocity S-wave (km/s) = 3.83816 4.24935 4.04898
# Velocity P-wave (km/s) = 6.03991 6.50517 6.27685
#
# Compressibility (1/GPa) = 0.03918785
#
# Stress axis : x y z
#
# Youngs Moduli (GPa) = 36.85561 36.85543 69.27460
#
# Poissons Ratio (x) = 0.24977 0.27640
# Poissons Ratio (y) = 0.24977 0.27640
# Poissons Ratio (z) = 0.14705 0.14705
#
# Static dielectric constant tensor:
#      x y z
#    x 1.533730 0.000000 0.000000 
#    y 0.000000 1.533730 0.000000 
#    z 0.000000 0.000000 1.497420 
# 
# From -- ./inp_files/1899.got.cif
#   From: 2010.05.17/outbox.cif.g08.bks.cpg/sg127_1_cif.got.tgz:1899.got - 2010.05.20 12:03:00.
