data_PCOD9563021
_publ_section_title
;
Structure prediction by ZEFSAII (Michael W. Deem and Ramdas Pophale) SiO2 
 PCOD9563021
Probable space group: P 4/N B M
;
_chemical_formula_sum "Si O2"
_cell_formula_units_Z 104
_cell_length_a 25.762873
_cell_length_b 25.762873
_cell_length_c 8.480741
_cell_angle_alpha 90.000000
_cell_angle_beta 90.000000
_cell_angle_gamma 90.000000
_cell_volume 5628.885123
_symmetry_space_group_name_H-M "P 4/N B M"
_symmetry_group_IT_number 125
_space_group.IT_coordinate_system_code '2'
_symmetry_cell_setting 'tetragonal'
loop_
_space_group_symop_operation_xyz
x,y,z
1/2-y,x,z
1/2-x,1/2-y,z
y,1/2-x,z
x,1/2-y,-z
1/2-x,y,-z
y,x,-z
1/2-y,1/2-x,-z
-x,-y,-z
1/2+y,-x,-z
1/2+x,1/2+y,-z
-y,1/2+x,-z
-x,1/2+y,z
1/2+x,-y,z
-y,-x,z
1/2+y,1/2+x,z
loop_
_atom_site_type_symbol
_atom_site_label
_atom_site_fract_x
_atom_site_fract_y
_atom_site_fract_z
Si Si1 0.523153 0.875471 0.894681
Si Si2 0.750000 0.664737 0.500000
Si Si3 0.831737 0.494978 0.591792
Si Si4 0.058196 0.941805 0.595456
Si Si5 0.414335 0.125332 0.784185
Si Si6 0.882505 0.763825 0.833136
Si Si7 0.979254 0.479254 0.250573
Si Si8 0.725026 0.504537 0.747712
O O1 0.574986 0.878371 0.784088
O O2 0.497677 0.929042 0.843752
O O3 0.489969 0.823507 0.862658
O O4 0.544394 0.879002 0.071945
O O5 0.799955 0.700045 0.500000
O O6 0.745887 0.636112 0.664002
O O7 0.880454 0.455567 0.603701
O O8 0.858326 0.550333 0.636952
O O9 0.782585 0.481531 0.706784
O O10 0.804891 0.502165 0.421027
O O11 0.038850 0.961151 0.423999
O O12 0.023488 0.976513 0.718829
O O13 0.380197 0.174392 0.825787
O O14 0.941199 0.742443 0.826329
O O15 0.857712 0.750000 0.000000
#
# Coordination Sequence:
#
# PCOD9563021 Si02
#       8
#    16   8  16   8  16  16   8  16
#     4  11  21  35  54  83 115 147 189 235 290 356
#     4  11  28  44  54  80 110 138 190 266 320 359
#     4  10  20  36  55  78 109 153 194 241 286 346
#     4  11  20  35  54  81 112 157 194 229 301 361
#     4  10  22  34  54  81 112 147 192 238 289 355
#     4  11  22  42  64  81 108 149 201 247 306 358
#     4  11  22  34  53  82 121 154 187 234 288 372
#     4  10  21  37  55  82 108 142 196 243 283 339
#
# _framework density 18.476129
#
# number of rings (size 3 to 8) (size 9 to 14) (size 15 to 20)
#    0.000    1.462    4.615    1.846    2.154    3.077 
#    0.000    0.769    0.000    0.000    0.000    0.000 
#    0.000   10.462    0.000    0.000    0.000   27.385 
#
# Total GULP energy -579105.817111 kJ/mol
# GULP energy per Si atom -5568.325165 kJ/mol
# Density = 1.843408 g / cm^3
# Si number density = 18.476129 Si / 1000 Ang^3
#
#
#
# Elastic Constant Matrix: (Units=GPa)
#
#
# Indices 1 2 3 4 5 6 
#
# 1 91.0621 29.4193 26.1239 0.0000 0.0000 0.0000
# 2 29.4193 91.0641 26.1245 0.0000 0.0000 0.0000
# 3 26.1239 26.1245 92.4189 0.0000 0.0000 0.0000
# 4 0.0000 0.0000 0.0000 25.6345 0.0000 0.0000
# 5 0.0000 0.0000 0.0000 0.0000 25.6423 0.0000
# 6 0.0000 0.0000 0.0000 0.0000 0.0000 20.7705
#
#
#
# Elastic Compliance Matrix: (Units=1/GPa)
#
#
# Indices 1 2 3 4 5 6 
#
# 1 0.012841 -0.003381 -0.002674 0.000000 0.000000 0.000000
# 2 -0.003381 0.012841 -0.002674 0.000000 0.000000 0.000000
# 3 -0.002674 -0.002674 0.012332 0.000000 0.000000 0.000000
# 4 0.000000 0.000000 0.000000 0.039010 0.000000 0.000000
# 5 0.000000 0.000000 0.000000 0.000000 0.038998 0.000000
# 6 0.000000 0.000000 0.000000 0.000000 0.000000 0.048145
#
#
# Mechanical properties :
#
#
# Convention : Reuss Voigt Hill
#
# Bulk Modulus (GPa) = 48.64923 48.65339 48.65131
# Shear Modulus (GPa) = 26.52842 27.26796 26.89819
#
# Velocity S-wave (km/s) = 3.79333 3.84584 3.81968
# Velocity P-wave (km/s) = 6.75084 6.79051 6.77070
#
# Compressibility (1/GPa) = 0.02055531
#
# Stress axis : x y z
#
# Youngs Moduli (GPa) = 77.87545 77.87693 81.08984
#
# Poissons Ratio (x) = 0.26333 0.21683
# Poissons Ratio (y) = 0.26332 0.21683
# Poissons Ratio (z) = 0.20823 0.20824
#
# Static dielectric constant tensor:
#      x y z
#    x 1.680030 0.000000 0.000000 
#    y 0.000000 1.680030 0.000000 
#    z 0.000000 0.000000 1.652820 
# 
# From -- ./inp_files/3083.got.cif
#   From: 2010.05.17/outbox.cif.g08.bks.cpg/sg125_2_cif.got.tgz:3083.got - 2010.05.20 11:54:10.
