data_PCOD9563873
_publ_section_title
;
Structure prediction by ZEFSAII (Michael W. Deem and Ramdas Pophale) SiO2 
 PCOD9563873
Probable space group: P 4/M B M
;
_chemical_formula_sum "Si O2"
_cell_formula_units_Z 120
_cell_length_a 15.033138
_cell_length_b 15.033138
_cell_length_c 30.161226
_cell_angle_alpha 90.000000
_cell_angle_beta 90.000000
_cell_angle_gamma 90.000000
_cell_volume 6816.293452
_symmetry_space_group_name_H-M "P 4/M B M"
_symmetry_group_IT_number 127
_symmetry_cell_setting 'tetragonal'
loop_
_space_group_symop_operation_xyz
x,y,z
-y,x,z
-x,-y,z
y,-x,z
1/2+x,1/2-y,-z
1/2-x,1/2+y,-z
1/2+y,1/2+x,-z
1/2-y,1/2-x,-z
-x,-y,-z
y,-x,-z
x,y,-z
-y,x,-z
1/2-x,1/2+y,z
1/2+x,1/2-y,z
1/2-y,1/2-x,z
1/2+y,1/2+x,z
loop_
_atom_site_type_symbol
_atom_site_label
_atom_site_fract_x
_atom_site_fract_y
_atom_site_fract_z
Si Si1 0.430807 0.069194 0.053520
Si Si2 0.181230 0.829888 0.097782
Si Si3 0.278230 0.631147 0.638647
Si Si4 0.215271 0.864122 0.722209
Si Si5 0.854856 0.499647 0.686207
Si Si6 0.765118 0.990869 0.946949
Si Si7 0.095220 0.115315 0.812191
Si Si8 0.080022 0.873263 0.451449
O O1 0.457763 0.167311 0.065336
O O2 0.500000 0.000000 0.072699
O O3 0.434679 0.065322 0.000000
O O4 0.241256 0.741256 0.092450
O O5 0.082355 0.825171 0.077006
O O6 0.170159 0.857016 0.148907
O O7 0.225372 0.910432 0.071073
O O8 0.218564 0.718564 0.633974
O O9 0.347503 0.654864 0.678290
O O10 0.210640 0.551947 0.652650
O O11 0.322948 0.610904 0.592054
O O12 0.276071 0.776071 0.727655
O O13 0.153469 0.878387 0.764458
O O14 0.285271 0.945891 0.716814
O O15 0.921348 0.421348 0.704564
O O16 0.923501 0.576500 0.669026
O O17 0.777696 0.988008 0.000000
O O18 0.988394 0.120766 0.816632
O O19 0.104296 0.834689 0.500000
O O20 0.973371 0.882365 0.449974
#
# Coordination Sequence:
#
# PCOD9563873 Si02
#       8
#     8  16  16  16  16  16  16  16
#     4   9  18  36  60  90 124 153 191 243 293 340
#     4  12  24  42  64  89 123 160 198 243 298 356
#     4  10  19  31  52  81 108 138 182 232 278 332
#     4  10  20  35  57  84 110 142 187 234 282 337
#     4   9  18  33  53  78 111 147 182 227 284 342
#     4  11  23  39  64  93 120 156 199 242 290 348
#     4  11  23  40  59  81 113 151 189 232 290 350
#     4   9  18  32  49  70 101 141 181 225 280 335
#
# _framework density 17.604875
#
# number of rings (size 3 to 8) (size 9 to 14) (size 15 to 20)
#    0.000    1.800    2.000    3.200    0.000    1.867 
#    0.000    2.667    1.467    1.200    0.000    1.867 
#    0.000    0.000    0.000    0.000    0.000    0.000 
#
# Total GULP energy -668750.376759 kJ/mol
# GULP energy per Si atom -5572.919806 kJ/mol
# Density = 1.756481 g / cm^3
# Si number density = 17.604875 Si / 1000 Ang^3
#
#
#
# Elastic Constant Matrix: (Units=GPa)
#
#
# Indices 1 2 3 4 5 6 
#
# 1 55.3728 19.1941 35.3905 0.0000 0.0000 0.0000
# 2 19.1941 55.3728 35.3906 0.0000 0.0000 0.0000
# 3 35.3905 35.3906 110.8197 0.0000 0.0000 0.0000
# 4 0.0000 0.0000 0.0000 34.1502 0.0000 0.0000
# 5 0.0000 0.0000 0.0000 0.0000 34.1500 0.0000
# 6 0.0000 0.0000 0.0000 0.0000 0.0000 24.1732
#
#
#
# Elastic Compliance Matrix: (Units=1/GPa)
#
#
# Indices 1 2 3 4 5 6 
#
# 1 0.023443 -0.004198 -0.006146 0.000000 0.000000 0.000000
# 2 -0.004198 0.023443 -0.006146 0.000000 0.000000 0.000000
# 3 -0.006146 -0.006146 0.012949 0.000000 0.000000 0.000000
# 4 0.000000 0.000000 0.000000 0.029282 0.000000 0.000000
# 5 0.000000 0.000000 0.000000 0.000000 0.029283 0.000000
# 6 0.000000 0.000000 0.000000 0.000000 0.000000 0.041368
#
#
# Mechanical properties :
#
#
# Convention : Reuss Voigt Hill
#
# Bulk Modulus (GPa) = 37.23709 44.61286 40.92498
# Shear Modulus (GPa) = 24.78952 27.26735 26.02844
#
# Velocity S-wave (km/s) = 3.75654 3.93982 3.84927
# Velocity P-wave (km/s) = 6.32558 6.78914 6.56146
#
# Compressibility (1/GPa) = 0.02685494
#
# Stress axis : x y z
#
# Youngs Moduli (GPa) = 42.65746 42.65743 77.22590
#
# Poissons Ratio (x) = 0.17908 0.47461
# Poissons Ratio (y) = 0.17908 0.47462
# Poissons Ratio (z) = 0.26216 0.26216
#
# Static dielectric constant tensor:
#      x y z
#    x 1.627400 0.000000 0.000000 
#    y 0.000000 1.627400 0.000000 
#    z 0.000000 0.000000 1.578290 
# 
# From -- ./inp_files/6680.got.cif
#   From: 2010.05.17/outbox.cif.g08.bks.cpg/sg127_4_cif.got.tgz:6680.got - 2010.05.20 12:03:00.
