data_PCOD9563770
_publ_section_title
;
Structure prediction by ZEFSAII (Michael W. Deem and Ramdas Pophale) SiO2 
 PCOD9563770
Probable space group: P 4/M B M
;
_chemical_formula_sum "Si O2"
_cell_formula_units_Z 128
_cell_length_a 19.435453
_cell_length_b 19.435453
_cell_length_c 17.505930
_cell_angle_alpha 90.000000
_cell_angle_beta 90.000000
_cell_angle_gamma 90.000000
_cell_volume 6612.634562
_symmetry_space_group_name_H-M "P 4/M B M"
_symmetry_group_IT_number 127
_symmetry_cell_setting 'tetragonal'
loop_
_space_group_symop_operation_xyz
x,y,z
-y,x,z
-x,-y,z
y,-x,z
1/2+x,1/2-y,-z
1/2-x,1/2+y,-z
1/2+y,1/2+x,-z
1/2-y,1/2-x,-z
-x,-y,-z
y,-x,-z
x,y,-z
-y,x,-z
1/2-x,1/2+y,z
1/2+x,1/2-y,z
1/2-y,1/2-x,z
1/2+y,1/2+x,z
loop_
_atom_site_type_symbol
_atom_site_label
_atom_site_fract_x
_atom_site_fract_y
_atom_site_fract_z
Si Si1 0.357951 0.743824 0.334292
Si Si2 0.889734 0.981902 0.383098
Si Si3 0.776331 0.837611 0.236226
Si Si4 0.450762 0.161352 0.266063
Si Si5 0.501693 0.611858 0.801045
Si Si6 0.737619 0.054300 0.179245
Si Si7 0.763629 0.504625 0.415446
Si Si8 0.287175 0.328951 0.916167
O O1 0.300295 0.800295 0.352178
O O2 0.324949 0.670682 0.310134
O O3 0.396417 0.760110 0.254021
O O4 0.415655 0.746418 0.397994
O O5 0.886416 0.989912 0.290887
O O6 0.812057 0.970825 0.409864
O O7 0.924030 0.055123 0.406486
O O8 0.733584 0.766417 0.235776
O O9 0.720947 0.895782 0.247387
O O10 0.814364 0.838309 0.154814
O O11 0.410599 0.089402 0.267801
O O12 0.506680 0.172673 0.199077
O O13 0.480682 0.184728 0.348350
O O14 0.434693 0.567033 0.824792
O O15 0.489551 0.691063 0.823641
O O16 0.741910 0.104903 0.107713
O O17 0.792092 0.494271 0.500000
O O18 0.236048 0.263953 0.919754
O O19 0.318978 0.337853 0.000000
#
# Coordination Sequence:
#
# PCOD9563770 Si02
#       8
#    16  16  16  16  16  16  16  16
#     4   9  18  33  51  73  97 126 175 225 262 312
#     4   9  18  32  48  69 100 136 173 215 258 305
#     4   8  16  31  54  77 102 138 174 210 257 315
#     4  10  21  36  53  76 106 140 180 223 265 318
#     4   9  17  28  48  76 103 136 180 219 249 295
#     4  10  18  29  56  78 101 139 180 213 259 309
#     4  11  23  34  51  75 100 140 179 223 278 324
#     4   9  18  33  54  83 114 140 173 218 266 313
#
# _framework density 19.356884999999998
#
# number of rings (size 3 to 8) (size 9 to 14) (size 15 to 20)
#    0.000    2.625    2.500    1.875    5.250    1.000 
#    0.000    1.250    0.000   12.750    0.000    5.250 
#    0.000    0.000    0.000    0.000    0.000    0.000 
#
# Total GULP energy -712812.813266 kJ/mol
# GULP energy per Si atom -5568.850104 kJ/mol
# Density = 1.931283 g / cm^3
# Si number density = 19.356885 Si / 1000 Ang^3
#
#
#
# Elastic Constant Matrix: (Units=GPa)
#
#
# Indices 1 2 3 4 5 6 
#
# 1 32.5538 -6.2910 4.2648 0.0000 0.0000 0.0000
# 2 -6.2910 32.5538 4.2648 0.0000 0.0000 0.0000
# 3 4.2648 4.2648 52.6420 0.0000 0.0000 0.0000
# 4 0.0000 0.0000 0.0000 2.3983 0.0000 0.0000
# 5 0.0000 0.0000 0.0000 0.0000 2.3983 0.0000
# 6 0.0000 0.0000 0.0000 0.0000 0.0000 32.5663
#
#
#
# Elastic Compliance Matrix: (Units=1/GPa)
#
#
# Indices 1 2 3 4 5 6 
#
# 1 0.032424 0.006681 -0.003168 0.000000 0.000000 0.000000
# 2 0.006681 0.032424 -0.003168 0.000000 0.000000 0.000000
# 3 -0.003168 -0.003168 0.019510 0.000000 0.000000 0.000000
# 4 0.000000 0.000000 0.000000 0.416958 0.000000 0.000000
# 5 0.000000 0.000000 0.000000 0.000000 0.416958 0.000000
# 6 0.000000 0.000000 0.000000 0.000000 0.000000 0.030707
#
#
# Mechanical properties :
#
#
# Convention : Reuss Voigt Hill
#
# Bulk Modulus (GPa) = 11.75808 13.58079 12.66943
# Shear Modulus (GPa) = 5.11959 15.17332 10.14646
#
# Velocity S-wave (km/s) = 1.62806 2.80281 2.29198
# Velocity P-wave (km/s) = 3.10188 4.18396 3.68288
#
# Compressibility (1/GPa) = 0.08504792
#
# Stress axis : x y z
#
# Youngs Moduli (GPa) = 30.84089 30.84089 51.25684
#
# Poissons Ratio (x) = -0.20605 0.16239
# Poissons Ratio (y) = -0.20605 0.16239
# Poissons Ratio (z) = 0.09771 0.09771
#
# Static dielectric constant tensor:
#      x y z
#    x 1.740760 0.000000 0.000000 
#    y 0.000000 1.740760 0.000000 
#    z 0.000000 0.000000 1.686440 
# 
# From -- ./inp_files/5428.got.cif
#   From: 2010.05.17/outbox.cif.g08.bks.cpg/sg127_3_cif.got.tgz:5428.got - 2010.05.20 12:03:00.
