data_PCOD9563140
_publ_section_title
;
Structure prediction by ZEFSAII (Michael W. Deem and Ramdas Pophale) SiO2 
 PCOD9563140
Probable space group: P 4/N B M
;
_chemical_formula_sum "Si O2"
_cell_formula_units_Z 96
_cell_length_a 14.168586
_cell_length_b 14.168586
_cell_length_c 22.570655
_cell_angle_alpha 90.000000
_cell_angle_beta 90.000000
_cell_angle_gamma 90.000000
_cell_volume 4531.032566
_symmetry_space_group_name_H-M "P 4/N B M"
_symmetry_group_IT_number 125
_space_group.IT_coordinate_system_code '2'
_symmetry_cell_setting 'tetragonal'
loop_
_space_group_symop_operation_xyz
x,y,z
1/2-y,x,z
1/2-x,1/2-y,z
y,1/2-x,z
x,1/2-y,-z
1/2-x,y,-z
y,x,-z
1/2-y,1/2-x,-z
-x,-y,-z
1/2+y,-x,-z
1/2+x,1/2+y,-z
-y,1/2+x,-z
-x,1/2+y,z
1/2+x,-y,z
-y,-x,z
1/2+y,1/2+x,z
loop_
_atom_site_type_symbol
_atom_site_label
_atom_site_fract_x
_atom_site_fract_y
_atom_site_fract_z
Si Si1 0.672883 0.327118 0.841631
Si Si2 0.151000 0.009800 0.531289
Si Si3 0.475590 0.683119 0.663654
Si Si4 0.167827 0.667827 0.707818
Si Si5 0.926856 0.921448 0.105752
Si Si6 0.115796 0.165681 0.231479
Si Si7 0.754717 0.472028 0.935208
O O1 0.750000 0.250000 0.826833
O O2 0.641112 0.358889 0.776055
O O3 0.726773 0.403374 0.881764
O O4 0.250000 0.988919 0.500000
O O5 0.096738 0.096738 0.500000
O O6 0.176446 0.026152 0.600245
O O7 0.079045 0.920956 0.527215
O O8 0.389839 0.610162 0.660921
O O9 0.424593 0.783735 0.678214
O O10 0.544855 0.646857 0.715102
O O11 0.250000 0.750000 0.705625
O O12 0.875202 0.919088 0.169103
O O13 0.858437 0.986187 0.067958
O O14 0.943679 0.820731 0.075327
O O15 0.027726 0.972274 0.111788
O O16 0.221207 0.125382 0.234536
O O17 0.750000 0.426701 0.000000
#
# Coordination Sequence:
#
# PCOD9563140 Si02
#       7
#     8  16  16   8  16  16  16
#     4  11  24  42  67 101 143 175 224 296 354 418
#     4  10  24  44  68 103 145 190 240 292 351 424
#     4  10  22  42  69 101 138 178 229 284 345 422
#     4   9  20  40  66 101 136 172 223 280 349 405
#     4  12  25  46  69  96 134 175 226 284 350 416
#     4  11  24  43  66  95 131 171 225 283 345 415
#     4  12  27  43  68  98 132 180 228 280 350 431
#
# _framework density 21.187225000000002
#
# number of rings (size 3 to 8) (size 9 to 14) (size 15 to 20)
#    0.000    1.167    2.500    2.500    5.833    2.667 
#    1.500    0.833    0.000    0.000    0.000    0.000 
#    0.000    0.000    0.000    0.000    0.000    0.000 
#
# Total GULP energy -536037.226178 kJ/mol
# GULP energy per Si atom -5583.721106 kJ/mol
# Density = 2.113900 g / cm^3
# Si number density = 21.187225 Si / 1000 Ang^3
#
#
#
# Elastic Constant Matrix: (Units=GPa)
#
#
# Indices 1 2 3 4 5 6 
#
# 1 11.4944 66.8889 26.6979 0.0000 0.0000 0.0000
# 2 66.8889 11.4944 26.6979 0.0000 0.0000 0.0000
# 3 26.6979 26.6979 143.6880 0.0000 0.0000 0.0000
# 4 0.0000 0.0000 0.0000 10.6049 0.0000 0.0000
# 5 0.0000 0.0000 0.0000 0.0000 10.6049 0.0000
# 6 0.0000 0.0000 0.0000 0.0000 0.0000 25.7758
#
#
#
# Elastic Compliance Matrix: (Units=1/GPa)
#
#
# Indices 1 2 3 4 5 6 
#
# 1 -0.001723 0.016329 -0.002714 0.000000 0.000000 0.000000
# 2 0.016329 -0.001723 -0.002714 0.000000 0.000000 0.000000
# 3 -0.002714 -0.002714 0.007968 0.000000 0.000000 0.000000
# 4 0.000000 0.000000 0.000000 0.094296 0.000000 0.000000
# 5 0.000000 0.000000 0.000000 0.000000 0.094296 0.000000
# 6 0.000000 0.000000 0.000000 0.000000 0.000000 0.038796
#
#
# Mechanical properties :
#
#
# Convention : Reuss Voigt Hill
#
# Bulk Modulus (GPa) = 37.98615 45.24957 41.61786
# Shear Modulus (GPa) = 22.84334 12.48994 17.66664
#
# Velocity S-wave (km/s) = 3.28711 2.43060 2.89075
# Velocity P-wave (km/s) = 5.68986 5.41114 5.55225
#
# Compressibility (1/GPa) = 0.02632538
#
# Stress axis : x y z
#
# Youngs Moduli (GPa) = -580.42597 -580.42597 125.50104
#
# Poissons Ratio (x) = 9.47805 0.34061
# Poissons Ratio (y) = 9.47805 0.34061
# Poissons Ratio (z) = -1.57526 -1.57526
#
# Static dielectric constant tensor:
#      x y z
#    x 1.776410 0.000000 0.000000 
#    y 0.000000 1.776410 0.000000 
#    z 0.000000 0.000000 1.803350 
# 
# From -- ./inp_files/5969.got.cif
#   From: 2010.05.17/outbox.cif.g08.bks.cpg/sg125_3_cif.got.tgz:5969.got - 2010.05.20 11:54:10.
