data_PCOD9563095
_publ_section_title
;
Structure prediction by ZEFSAII (Michael W. Deem and Ramdas Pophale) SiO2 
 PCOD9563095
Probable space group: P 4/N B M
;
_chemical_formula_sum "Si O2"
_cell_formula_units_Z 116
_cell_length_a 18.062230
_cell_length_b 18.062230
_cell_length_c 18.033557
_cell_angle_alpha 90.000000
_cell_angle_beta 90.000000
_cell_angle_gamma 90.000000
_cell_volume 5883.342521
_symmetry_space_group_name_H-M "P 4/N B M"
_symmetry_group_IT_number 125
_space_group.IT_coordinate_system_code '2'
_symmetry_cell_setting 'tetragonal'
loop_
_space_group_symop_operation_xyz
x,y,z
1/2-y,x,z
1/2-x,1/2-y,z
y,1/2-x,z
x,1/2-y,-z
1/2-x,y,-z
y,x,-z
1/2-y,1/2-x,-z
-x,-y,-z
1/2+y,-x,-z
1/2+x,1/2+y,-z
-y,1/2+x,-z
-x,1/2+y,z
1/2+x,-y,z
-y,-x,z
1/2+y,1/2+x,z
loop_
_atom_site_type_symbol
_atom_site_label
_atom_site_fract_x
_atom_site_fract_y
_atom_site_fract_z
Si Si1 0.341611 0.042981 0.845890
Si Si2 0.998845 0.876150 0.511828
Si Si3 0.629067 0.732931 0.268346
Si Si4 0.250000 0.750000 0.803207
Si Si5 0.665778 0.459459 0.997348
Si Si6 0.003405 0.120416 0.160301
Si Si7 0.922406 0.242917 0.766366
Si Si8 0.992546 0.260500 0.379263
O O1 0.277751 0.097324 0.814870
O O2 0.416760 0.085194 0.825923
O O3 0.340177 0.018685 0.931102
O O4 0.326308 0.966755 0.801411
O O5 0.064856 0.935145 0.521451
O O6 0.997218 0.818239 0.579894
O O7 0.012322 0.824548 0.440227
O O8 0.923850 0.923850 0.500000
O O9 0.689920 0.669747 0.279621
O O10 0.562993 0.724957 0.326507
O O11 0.250118 0.841481 0.799538
O O12 0.606092 0.393909 0.986439
O O13 0.750000 0.429974 0.000000
O O14 0.649602 0.497475 0.076007
O O15 0.946449 0.053552 0.166795
O O16 0.971532 0.185121 0.212111
O O17 0.923584 0.238543 0.677380
#
# Coordination Sequence:
#
# PCOD9563095 Si02
#       8
#    16  16  16   4  16  16  16  16
#     4  11  22  40  66  93 129 168 221 268 332 392
#     4  10  22  40  64  93 128 164 207 260 309 372
#     4  10  21  39  65  96 130 167 209 266 325 389
#     4  12  28  44  64  94 136 168 224 266 320 392
#     4  11  24  41  62  93 128 171 222 271 333 390
#     4  11  23  43  63  94 129 173 222 277 330 388
#     4  11  25  43  67  97 131 174 215 274 326 388
#     4  10  22  41  63  94 127 166 211 253 318 385
#
# _framework density 19.716684000000001
#
# number of rings (size 3 to 8) (size 9 to 14) (size 15 to 20)
#    0.000    1.379    2.069    3.310    3.862    2.345 
#    0.000    2.759    0.000    4.966    0.000    0.000 
#    0.000    0.000    0.000    0.000    0.000    0.000 
#
# Total GULP energy -646671.074297 kJ/mol
# GULP energy per Si atom -5574.750640 kJ/mol
# Density = 1.967181 g / cm^3
# Si number density = 19.716684 Si / 1000 Ang^3
#
#
#
# Elastic Constant Matrix: (Units=GPa)
#
#
# Indices 1 2 3 4 5 6 
#
# 1 106.0467 30.0207 16.1187 0.0000 0.0000 0.0000
# 2 30.0207 106.0467 16.1187 0.0000 0.0000 0.0000
# 3 16.1187 16.1187 77.1516 0.0000 0.0000 0.0000
# 4 0.0000 0.0000 0.0000 15.9938 0.0000 0.0000
# 5 0.0000 0.0000 0.0000 0.0000 15.9938 0.0000
# 6 0.0000 0.0000 0.0000 0.0000 0.0000 33.2377
#
#
#
# Elastic Compliance Matrix: (Units=1/GPa)
#
#
# Indices 1 2 3 4 5 6 
#
# 1 0.010443 -0.002711 -0.001615 0.000000 0.000000 0.000000
# 2 -0.002711 0.010443 -0.001615 0.000000 0.000000 0.000000
# 3 -0.001615 -0.001615 0.013636 0.000000 0.000000 0.000000
# 4 0.000000 0.000000 0.000000 0.062524 0.000000 0.000000
# 5 0.000000 0.000000 0.000000 0.000000 0.062524 0.000000
# 6 0.000000 0.000000 0.000000 0.000000 0.000000 0.030086
#
#
# Mechanical properties :
#
#
# Convention : Reuss Voigt Hill
#
# Bulk Modulus (GPa) = 44.17164 45.97345 45.07254
# Shear Modulus (GPa) = 23.91359 28.17751 26.04555
#
# Velocity S-wave (km/s) = 3.48639 3.78447 3.63849
# Velocity P-wave (km/s) = 6.21759 6.51644 6.36877
#
# Compressibility (1/GPa) = 0.02263896
#
# Stress axis : x y z
#
# Youngs Moduli (GPa) = 95.76062 95.76062 73.33277
#
# Poissons Ratio (x) = 0.25958 0.11846
# Poissons Ratio (y) = 0.25958 0.11846
# Poissons Ratio (z) = 0.15469 0.15469
#
# Static dielectric constant tensor:
#      x y z
#    x 1.703020 0.000000 0.000000 
#    y 0.000000 1.703020 0.000000 
#    z 0.000000 0.000000 1.706240 
# 
# From -- ./inp_files/5545.got.cif
#   From: 2010.05.17/outbox.cif.g08.bks.cpg/sg125_3_cif.got.tgz:5545.got - 2010.05.20 11:54:10.
