data_PCOD9563477
_publ_section_title
;
Structure prediction by ZEFSAII (Michael W. Deem and Ramdas Pophale) SiO2 
 PCOD9563477
Probable space group: P 4/N N C
;
_chemical_formula_sum "Si O2"
_cell_formula_units_Z 120
_cell_length_a 20.042273
_cell_length_b 20.042273
_cell_length_c 14.133925
_cell_angle_alpha 90.000000
_cell_angle_beta 90.000000
_cell_angle_gamma 90.000000
_cell_volume 5677.494594
_symmetry_space_group_name_H-M "P 4/N N C"
_symmetry_group_IT_number 126
_space_group.IT_coordinate_system_code '2'
_symmetry_cell_setting 'tetragonal'
loop_
_space_group_symop_operation_xyz
x,y,z
1/2-y,x,z
1/2-x,1/2-y,z
y,1/2-x,z
x,1/2-y,1/2-z
1/2-x,y,1/2-z
y,x,1/2-z
1/2-y,1/2-x,1/2-z
-x,-y,-z
1/2+y,-x,-z
1/2+x,1/2+y,-z
-y,1/2+x,-z
-x,1/2+y,1/2+z
1/2+x,-y,1/2+z
-y,-x,1/2+z
1/2+y,1/2+x,1/2+z
loop_
_atom_site_type_symbol
_atom_site_label
_atom_site_fract_x
_atom_site_fract_y
_atom_site_fract_z
Si Si1 0.431144 0.992406 0.052576
Si Si2 0.528453 0.250000 0.750000
Si Si3 0.634176 0.901176 0.645363
Si Si4 0.794635 0.027435 0.935414
Si Si5 0.240304 0.829310 0.363476
Si Si6 0.320724 0.168164 0.968975
Si Si7 0.820620 0.974320 0.432969
Si Si8 0.642451 0.088331 0.382265
O O1 0.412659 0.060752 0.103198
O O2 0.425878 0.935003 0.130629
O O3 0.379726 0.977568 0.966372
O O4 0.500000 0.000000 0.000000
O O5 0.489120 0.216506 0.664014
O O6 0.570895 0.308968 0.703472
O O7 0.626107 0.873894 0.750000
O O8 0.665942 0.844388 0.577926
O O9 0.672168 0.972482 0.633502
O O10 0.779361 0.102538 0.896696
O O11 0.839094 0.042836 0.027752
O O12 0.731299 0.988064 0.980976
O O13 0.250000 0.750000 0.391020
O O14 0.250000 0.829494 0.250000
O O15 0.165977 0.845178 0.399311
O O16 0.339921 0.242912 0.942184
O O17 0.350691 0.100409 0.926781
#
# Coordination Sequence:
#
# PCOD9563477 Si02
#       8
#    16   8  16  16  16  16  16  16
#     4  11  23  43  66  94 137 184 228 283 347 422
#     4  10  24  42  71 101 134 178 234 292 342 420
#     4  11  25  41  64 101 133 177 231 281 350 422
#     4  11  23  42  67  91 135 183 223 279 346 420
#     4  11  26  42  64 100 136 174 228 286 342 411
#     4  10  21  41  68  94 133 174 217 280 343 418
#     4  10  22  43  68  96 131 179 226 278 353 408
#     4  11  24  43  65  97 135 178 230 280 348 412
#
# _framework density 21.136084
#
# number of rings (size 3 to 8) (size 9 to 14) (size 15 to 20)
#    0.000    1.333    4.000    0.800    3.733    2.667 
#    0.000    2.667    0.000    0.800    0.000    0.000 
#    0.000    0.000    0.000    0.000    0.000    0.000 
#
# Total GULP energy -668342.893837 kJ/mol
# GULP energy per Si atom -5569.524115 kJ/mol
# Density = 2.108798 g / cm^3
# Si number density = 21.136084 Si / 1000 Ang^3
#
#
#
# Elastic Constant Matrix: (Units=GPa)
#
#
# Indices 1 2 3 4 5 6 
#
# 1 101.9668 15.8712 13.6963 0.0000 0.0000 0.0000
# 2 15.8712 101.9672 13.6967 0.0000 0.0000 0.0000
# 3 13.6963 13.6967 61.7135 0.0000 0.0000 0.0000
# 4 0.0000 0.0000 0.0000 20.4904 0.0000 0.0000
# 5 0.0000 0.0000 0.0000 0.0000 20.4903 0.0000
# 6 0.0000 0.0000 0.0000 0.0000 0.0000 29.4196
#
#
#
# Elastic Compliance Matrix: (Units=1/GPa)
#
#
# Indices 1 2 3 4 5 6 
#
# 1 0.010281 -0.001334 -0.001986 0.000000 0.000000 0.000000
# 2 -0.001334 0.010281 -0.001986 0.000000 0.000000 0.000000
# 3 -0.001986 -0.001986 0.017085 0.000000 0.000000 0.000000
# 4 0.000000 0.000000 0.000000 0.048803 0.000000 0.000000
# 5 0.000000 0.000000 0.000000 0.000000 0.048804 0.000000
# 6 0.000000 0.000000 0.000000 0.000000 0.000000 0.033991
#
#
# Mechanical properties :
#
#
# Convention : Reuss Voigt Hill
#
# Bulk Modulus (GPa) = 36.98546 39.13065 38.05806
# Shear Modulus (GPa) = 26.47333 28.90561 27.68947
#
# Velocity S-wave (km/s) = 3.54293 3.70211 3.62340
# Velocity P-wave (km/s) = 5.85433 6.06861 5.96244
#
# Compressibility (1/GPa) = 0.02703765
#
# Stress axis : x y z
#
# Youngs Moduli (GPa) = 97.26283 97.26309 58.52958
#
# Poissons Ratio (x) = 0.12971 0.11623
# Poissons Ratio (y) = 0.12971 0.11623
# Poissons Ratio (z) = 0.19315 0.19315
#
# Static dielectric constant tensor:
#      x y z
#    x 1.753720 0.000000 0.000000 
#    y 0.000000 1.753720 0.000000 
#    z 0.000000 0.000000 1.758750 
# 
# From -- ./inp_files/3959.got.cif
#   From: 2010.05.17/outbox.cif.g08.bks.cpg/sg126_2_cif.got.tgz:3959.got - 2010.05.20 11:58:20.
