data_PCOD9563053
_publ_section_title
;
Structure prediction by ZEFSAII (Michael W. Deem and Ramdas Pophale) SiO2 
 PCOD9563053
Probable space group: P 4/N B M
;
_chemical_formula_sum "Si O2"
_cell_formula_units_Z 112
_cell_length_a 14.528055
_cell_length_b 14.528055
_cell_length_c 28.290811
_cell_angle_alpha 90.000000
_cell_angle_beta 90.000000
_cell_angle_gamma 90.000000
_cell_volume 5971.182542
_symmetry_space_group_name_H-M "P 4/N B M"
_symmetry_group_IT_number 125
_space_group.IT_coordinate_system_code '2'
_symmetry_cell_setting 'tetragonal'
loop_
_space_group_symop_operation_xyz
x,y,z
1/2-y,x,z
1/2-x,1/2-y,z
y,1/2-x,z
x,1/2-y,-z
1/2-x,y,-z
y,x,-z
1/2-y,1/2-x,-z
-x,-y,-z
1/2+y,-x,-z
1/2+x,1/2+y,-z
-y,1/2+x,-z
-x,1/2+y,z
1/2+x,-y,z
-y,-x,z
1/2+y,1/2+x,z
loop_
_atom_site_type_symbol
_atom_site_label
_atom_site_fract_x
_atom_site_fract_y
_atom_site_fract_z
Si Si1 0.379949 0.463107 0.043488
Si Si2 0.250704 0.098159 0.443060
Si Si3 0.732307 0.013046 0.179317
Si Si4 0.906690 0.249141 0.612207
Si Si5 0.255854 0.897021 0.079909
Si Si6 0.901802 0.245308 0.280816
Si Si7 0.911293 0.941132 0.145992
O O1 0.540724 0.459277 0.150842
O O2 0.281831 0.511928 0.054063
O O3 0.411650 0.413446 0.091511
O O4 0.395183 0.395183 0.000000
O O5 0.340003 0.160806 0.430165
O O6 0.250000 0.089822 0.500000
O O7 0.251544 0.996789 0.420411
O O8 0.810397 0.939476 0.166940
O O9 0.631117 0.975515 0.172006
O O10 0.748888 0.086027 0.136512
O O11 0.743763 0.042785 0.232924
O O12 0.839503 0.160498 0.604239
O O13 0.838082 0.338082 0.607282
O O14 0.942109 0.245776 0.666663
O O15 0.182161 0.817840 0.068462
O O16 0.355553 0.855553 0.067018
O O17 0.853414 0.146587 0.278664
O O18 0.821904 0.321904 0.279114
O O19 0.952144 0.047857 0.962471
#
# Coordination Sequence:
#
# PCOD9563053 Si02
#       7
#    16  16  16  16  16  16  16
#     4   8  15  30  50  72 104 140 164 198 268 341
#     4   9  19  37  59  82 113 157 204 247 293 347
#     4  11  20  34  53  75 107 140 179 229 276 324
#     4   9  19  35  54  83 119 151 191 243 297 353
#     4   9  16  27  49  78 100 128 179 231 270 319
#     4   9  17  32  55  79 107 145 184 228 287 342
#     4  10  21  35  54  79 104 138 184 225 270 334
#
# _framework density 18.756751999999999
#
# number of rings (size 3 to 8) (size 9 to 14) (size 15 to 20)
#    0.000    2.714    0.000    4.714    0.000    2.571 
#    2.571    5.000    0.000    6.000    0.000   16.000 
#    0.000    0.000    0.000    0.000    0.000    0.000 
#
# Total GULP energy -624267.792559 kJ/mol
# GULP energy per Si atom -5573.819576 kJ/mol
# Density = 1.871406 g / cm^3
# Si number density = 18.756752 Si / 1000 Ang^3
#
#
#
# Elastic Constant Matrix: (Units=GPa)
#
#
# Indices 1 2 3 4 5 6 
#
# 1 89.1940 38.1204 50.2051 0.0000 0.0000 0.0000
# 2 38.1204 89.1940 50.2051 0.0000 0.0000 0.0000
# 3 50.2051 50.2051 100.4647 0.0000 0.0000 0.0000
# 4 0.0000 0.0000 0.0000 -28.6979 0.0000 0.0000
# 5 0.0000 0.0000 0.0000 0.0000 -28.6979 0.0000
# 6 0.0000 0.0000 0.0000 0.0000 0.0000 18.5569
#
#
#
# Elastic Compliance Matrix: (Units=1/GPa)
#
#
# Indices 1 2 3 4 5 6 
#
# 1 0.016272 -0.003308 -0.006478 0.000000 0.000000 0.000000
# 2 -0.003308 0.016272 -0.006478 0.000000 0.000000 0.000000
# 3 -0.006478 -0.006478 0.016429 0.000000 0.000000 0.000000
# 4 0.000000 0.000000 0.000000 -0.034846 0.000000 0.000000
# 5 0.000000 0.000000 0.000000 0.000000 -0.034846 0.000000
# 6 0.000000 0.000000 0.000000 0.000000 0.000000 0.053888
#
#
# Mechanical properties :
#
#
# Convention : Reuss Voigt Hill
#
# Bulk Modulus (GPa) = 60.81692 61.76821 61.29257
# Shear Modulus (GPa) = 70.24500 1.58705 35.91602
#
# Velocity S-wave (km/s) = 6.12632 0.92085 4.38063
# Velocity P-wave (km/s) = 9.08498 5.84237 7.63774
#
# Compressibility (1/GPa) = 0.01644279
#
# Stress axis : x y z
#
# Youngs Moduli (GPa) = 61.45605 61.45605 60.86902
#
# Poissons Ratio (x) = 0.20328 0.39434
# Poissons Ratio (y) = 0.20328 0.39434
# Poissons Ratio (z) = 0.39814 0.39814
#
# Static dielectric constant tensor:
#      x y z
#    x 1.677470 0.000000 0.000000 
#    y 0.000000 1.677470 0.000000 
#    z 0.000000 0.000000 1.666840 
# 
# From -- ./inp_files/6249.got.cif
#   From: 2010.05.17/outbox.cif.g08.bks.cpg/sg125_4_cif.got.tgz:6249.got - 2010.05.20 11:54:10.
