data_PCOD9563079
_publ_section_title
;
Structure prediction by ZEFSAII (Michael W. Deem and Ramdas Pophale) SiO2 
 PCOD9563079
Probable space group: P 4/N B M
;
_chemical_formula_sum "Si O2"
_cell_formula_units_Z 112
_cell_length_a 14.019868
_cell_length_b 14.019868
_cell_length_c 33.170630
_cell_angle_alpha 90.000000
_cell_angle_beta 90.000000
_cell_angle_gamma 90.000000
_cell_volume 6519.909528
_symmetry_space_group_name_H-M "P 4/N B M"
_symmetry_group_IT_number 125
_space_group.IT_coordinate_system_code '2'
_symmetry_cell_setting 'tetragonal'
loop_
_space_group_symop_operation_xyz
x,y,z
1/2-y,x,z
1/2-x,1/2-y,z
y,1/2-x,z
x,1/2-y,-z
1/2-x,y,-z
y,x,-z
1/2-y,1/2-x,-z
-x,-y,-z
1/2+y,-x,-z
1/2+x,1/2+y,-z
-y,1/2+x,-z
-x,1/2+y,z
1/2+x,-y,z
-y,-x,z
1/2+y,1/2+x,z
loop_
_atom_site_type_symbol
_atom_site_label
_atom_site_fract_x
_atom_site_fract_y
_atom_site_fract_z
Si Si1 0.981287 0.640831 0.167755
Si Si2 0.851180 0.992097 0.339621
Si Si3 0.349028 0.491989 0.383799
Si Si4 0.106523 0.322815 0.745084
Si Si5 0.411067 0.236021 0.044703
Si Si6 0.837866 0.000466 0.875933
Si Si7 0.848955 0.989705 0.521725
O O1 0.941748 0.647981 0.213025
O O2 0.900861 0.590302 0.139448
O O3 0.072398 0.572398 0.166106
O O4 0.006410 0.746738 0.153123
O O5 0.848106 0.956394 0.293628
O O6 0.907965 0.912183 0.364821
O O7 0.747383 0.002012 0.358788
O O8 0.911036 0.088965 0.342669
O O9 0.412688 0.587313 0.380886
O O10 0.332181 0.471824 0.430948
O O11 0.126622 0.209576 0.743536
O O12 0.348586 0.332495 0.048070
O O13 0.482841 0.208998 0.080159
O O14 0.454321 0.250000 0.000000
O O15 0.909019 0.090982 0.875189
O O16 0.750000 0.010209 0.500000
O O17 0.901393 0.901393 0.500000
O O18 0.921385 0.078616 0.518109
#
# Coordination Sequence:
#
# PCOD9563079 Si02
#       7
#    16  16  16  16  16  16  16
#     4  11  23  39  60  87 119 158 198 242 296 355
#     4  11  22  39  60  83 119 156 188 240 292 342
#     4  10  22  38  59  85 113 151 197 236 283 352
#     4  11  21  37  62  90 117 149 192 247 297 344
#     4   9  17  32  57  86 116 149 197 251 298 341
#     4  11  22  37  60  88 120 157 199 248 300 355
#     4  10  21  38  58  84 116 149 190 239 291 344
#
# _framework density 17.178153999999999
#
# number of rings (size 3 to 8) (size 9 to 14) (size 15 to 20)
#    0.000    1.571    4.286    1.714    0.000    3.143 
#    0.000    5.714    0.000    1.714    0.000    0.000 
#    0.000    0.000    0.000    0.000    0.000    0.000 
#
# Total GULP energy -624868.765886 kJ/mol
# GULP energy per Si atom -5579.185410 kJ/mol
# Density = 1.713906 g / cm^3
# Si number density = 17.178154 Si / 1000 Ang^3
#
#
#
# Elastic Constant Matrix: (Units=GPa)
#
#
# Indices 1 2 3 4 5 6 
#
# 1 80.4099 22.2544 38.7192 0.0000 0.0000 0.0000
# 2 22.2544 80.4099 38.7192 0.0000 0.0000 0.0000
# 3 38.7192 38.7192 139.3150 0.0000 0.0000 0.0000
# 4 0.0000 0.0000 0.0000 26.6357 0.0000 0.0000
# 5 0.0000 0.0000 0.0000 0.0000 26.6357 0.0000
# 6 0.0000 0.0000 0.0000 0.0000 0.0000 6.0093
#
#
#
# Elastic Compliance Matrix: (Units=1/GPa)
#
#
# Indices 1 2 3 4 5 6 
#
# 1 0.014760 -0.002436 -0.003425 0.000000 0.000000 0.000000
# 2 -0.002436 0.014760 -0.003425 0.000000 0.000000 0.000000
# 3 -0.003425 -0.003425 0.009082 0.000000 0.000000 0.000000
# 4 0.000000 0.000000 0.000000 0.037544 0.000000 0.000000
# 5 0.000000 0.000000 0.000000 0.000000 0.037544 0.000000
# 6 0.000000 0.000000 0.000000 0.000000 0.000000 0.166409
#
#
# Mechanical properties :
#
#
# Convention : Reuss Voigt Hill
#
# Bulk Modulus (GPa) = 49.92689 55.50225 52.71457
# Shear Modulus (GPa) = 16.37491 25.21895 20.79693
#
# Velocity S-wave (km/s) = 3.09081 3.83571 3.48323
# Velocity P-wave (km/s) = 6.47030 7.21088 6.85061
#
# Compressibility (1/GPa) = 0.02002929
#
# Stress axis : x y z
#
# Youngs Moduli (GPa) = 67.75224 67.75224 110.10962
#
# Poissons Ratio (x) = 0.16502 0.37714
# Poissons Ratio (y) = 0.16502 0.37714
# Poissons Ratio (z) = 0.23206 0.23206
#
# Static dielectric constant tensor:
#      x y z
#    x 1.557450 0.000000 0.000000 
#    y 0.000000 1.557450 0.000000 
#    z 0.000000 0.000000 1.585060 
# 
# From -- ./inp_files/6460.got.cif
#   From: 2010.05.17/outbox.cif.g08.bks.cpg/sg125_4_cif.got.tgz:6460.got - 2010.05.20 11:54:10.
