data_PCOD9563911
_publ_section_title
;
Structure prediction by ZEFSAII (Michael W. Deem and Ramdas Pophale) SiO2 
 PCOD9563911
Probable space group: P 4/M B M
;
_chemical_formula_sum "Si O2"
_cell_formula_units_Z 96
_cell_length_a 25.117097
_cell_length_b 25.117097
_cell_length_c 8.532601
_cell_angle_alpha 90.000000
_cell_angle_beta 90.000000
_cell_angle_gamma 90.000000
_cell_volume 5382.949720
_symmetry_space_group_name_H-M "P 4/M B M"
_symmetry_group_IT_number 127
_symmetry_cell_setting 'tetragonal'
loop_
_space_group_symop_operation_xyz
x,y,z
-y,x,z
-x,-y,z
y,-x,z
1/2+x,1/2-y,-z
1/2-x,1/2+y,-z
1/2+y,1/2+x,-z
1/2-y,1/2-x,-z
-x,-y,-z
y,-x,-z
x,y,-z
-y,x,-z
1/2-x,1/2+y,z
1/2+x,1/2-y,z
1/2-y,1/2-x,z
1/2+y,1/2+x,z
loop_
_atom_site_type_symbol
_atom_site_label
_atom_site_fract_x
_atom_site_fract_y
_atom_site_fract_z
Si Si1 0.880696 0.380696 0.820621
Si Si2 0.687024 0.100599 0.686975
Si Si3 0.140746 0.808417 0.313704
Si Si4 0.797469 0.297469 0.686300
Si Si5 0.527198 0.719561 0.186702
Si Si6 0.015280 0.662790 0.317065
Si Si7 0.410780 0.696467 0.183447
O O1 0.842133 0.342133 0.720787
O O2 0.868353 0.441598 0.782283
O O3 0.868574 0.368574 0.000000
O O4 0.700039 0.099810 0.500000
O O5 0.652154 0.152154 0.719813
O O6 0.740929 0.098290 0.784259
O O7 0.653825 0.046762 0.718325
O O8 0.133357 0.801127 0.500000
O O9 0.179117 0.759516 0.256497
O O10 0.083481 0.805567 0.230832
O O11 0.166322 0.865564 0.279279
O O12 0.791216 0.291216 0.500000
O O13 0.524340 0.774946 0.280219
O O14 0.473044 0.687352 0.225640
O O15 0.525202 0.730490 0.000000
O O16 0.024977 0.652338 0.500000
O O17 0.403836 0.684496 0.000000
#
# Coordination Sequence:
#
# PCOD9563911 Si02
#       7
#     8  16  16   8  16  16  16
#     4  12  22  32  51  77 106 141 178 224 273 327
#     4   9  19  36  56  76 102 140 185 227 270 321
#     4  11  22  36  57  83 114 146 182 226 267 318
#     4  10  22  36  52  79 113 144 178 222 273 318
#     4  10  20  36  56  79 109 143 180 220 267 325
#     4  10  19  33  53  75 102 138 180 226 272 323
#     4  10  22  37  55  82 114 146 179 218 269 327
#
# _framework density 17.834088000000001
#
# number of rings (size 3 to 8) (size 9 to 14) (size 15 to 20)
#    0.000    1.833    1.667    2.750    1.167    3.667 
#    0.000    0.417    0.000    3.000    0.000    3.500 
#    0.000    0.000    0.000    0.000    0.000    0.000 
#
# Total GULP energy -535570.284653 kJ/mol
# GULP energy per Si atom -5578.857132 kJ/mol
# Density = 1.779350 g / cm^3
# Si number density = 17.834088 Si / 1000 Ang^3
#
#
#
# Elastic Constant Matrix: (Units=GPa)
#
#
# Indices 1 2 3 4 5 6 
#
# 1 63.8315 34.2026 8.0538 0.0000 0.0000 0.0000
# 2 34.2026 63.8315 8.0538 0.0000 0.0000 0.0000
# 3 8.0538 8.0538 5.4971 0.0000 0.0000 0.0000
# 4 0.0000 0.0000 0.0000 19.8739 0.0000 0.0000
# 5 0.0000 0.0000 0.0000 0.0000 19.8739 0.0000
# 6 0.0000 0.0000 0.0000 0.0000 0.0000 22.2870
#
#
#
# Elastic Compliance Matrix: (Units=1/GPa)
#
#
# Indices 1 2 3 4 5 6 
#
# 1 0.023593 -0.010158 -0.019683 0.000000 0.000000 0.000000
# 2 -0.010158 0.023593 -0.019683 0.000000 0.000000 0.000000
# 3 -0.019683 -0.019683 0.239590 0.000000 0.000000 0.000000
# 4 0.000000 0.000000 0.000000 0.050317 0.000000 0.000000
# 5 0.000000 0.000000 0.000000 0.000000 0.050317 0.000000
# 6 0.000000 0.000000 0.000000 0.000000 0.000000 0.044869
#
#
# Mechanical properties :
#
#
# Convention : Reuss Voigt Hill
#
# Bulk Modulus (GPa) = 5.32689 25.97560 15.65124
# Shear Modulus (GPa) = 8.41889 17.93030 13.17459
#
# Velocity S-wave (km/s) = 2.17507 3.17424 2.72091
# Velocity P-wave (km/s) = 3.04980 5.29444 4.32044
#
# Compressibility (1/GPa) = 0.18772679
#
# Stress axis : x y z
#
# Youngs Moduli (GPa) = 42.38595 42.38595 4.17380
#
# Poissons Ratio (x) = 0.43056 0.08215
# Poissons Ratio (y) = 0.43056 0.08215
# Poissons Ratio (z) = 0.83428 0.83428
#
# Static dielectric constant tensor:
#      x y z
#    x 1.606340 0.000000 0.000000 
#    y 0.000000 1.606340 0.000000 
#    z 0.000000 0.000000 1.610950 
# 
# From -- ./inp_files/2088.got.cif
#   From: 2010.05.17/outbox.cif.g08.bks.cpg/sg127_2_cif.got.tgz:2088.got - 2010.05.20 12:03:00.
