data_PCOD9563064
_publ_section_title
;
Structure prediction by ZEFSAII (Michael W. Deem and Ramdas Pophale) SiO2 
 PCOD9563064
Probable space group: P 4/N B M
;
_chemical_formula_sum "Si O2"
_cell_formula_units_Z 96
_cell_length_a 23.446033
_cell_length_b 23.446033
_cell_length_c 8.193749
_cell_angle_alpha 90.000000
_cell_angle_beta 90.000000
_cell_angle_gamma 90.000000
_cell_volume 4504.238723
_symmetry_space_group_name_H-M "P 4/N B M"
_symmetry_group_IT_number 125
_space_group.IT_coordinate_system_code '2'
_symmetry_cell_setting 'tetragonal'
loop_
_space_group_symop_operation_xyz
x,y,z
1/2-y,x,z
1/2-x,1/2-y,z
y,1/2-x,z
x,1/2-y,-z
1/2-x,y,-z
y,x,-z
1/2-y,1/2-x,-z
-x,-y,-z
1/2+y,-x,-z
1/2+x,1/2+y,-z
-y,1/2+x,-z
-x,1/2+y,z
1/2+x,-y,z
-y,-x,z
1/2+y,1/2+x,z
loop_
_atom_site_type_symbol
_atom_site_label
_atom_site_fract_x
_atom_site_fract_y
_atom_site_fract_z
Si Si1 0.677988 0.451674 0.147652
Si Si2 0.545991 0.759916 0.811006
Si Si3 0.555369 0.055369 0.255183
Si Si4 0.879868 0.541861 0.097895
Si Si5 0.262201 0.338305 0.691902
Si Si6 0.645067 0.145067 0.085287
Si Si7 0.098854 0.598854 0.416191
Si Si8 0.687025 0.312976 0.573370
O O1 0.736117 0.482014 0.206769
O O2 0.637300 0.439755 0.299035
O O3 0.646925 0.498297 0.034374
O O4 0.682401 0.394802 0.036824
O O5 0.552022 0.827026 0.780711
O O6 0.595402 0.727102 0.718616
O O7 0.561065 0.750000 0.000000
O O8 0.492906 0.071724 0.192746
O O9 0.600411 0.100411 0.171042
O O10 0.564759 0.064759 0.446575
O O11 0.905170 0.594831 0.000000
O O12 0.202666 0.311914 0.758933
O O13 0.250000 0.332268 0.500000
O O14 0.678652 0.178652 0.229388
O O15 0.142495 0.642495 0.500762
O O16 0.673893 0.250000 0.500000
#
# Coordination Sequence:
#
# PCOD9563064 Si02
#       8
#    16  16   8  16  16   8   8   8
#     4   9  20  38  58  87 114 152 202 252 305 379
#     4  10  22  34  59  89 116 150 205 259 302 376
#     4   9  19  36  57  82 102 156 200 234 304 365
#     4  10  21  37  56  79 119 158 197 252 318 372
#     4   9  20  38  57  80 118 164 200 246 324 394
#     4   8  17  39  61  77 119 159 183 239 316 354
#     4  10  21  38  63  87 119 153 205 261 306 362
#     4  10  22  37  58  93 123 156 199 245 307 384
#
# _framework density 21.313257
#
# number of rings (size 3 to 8) (size 9 to 14) (size 15 to 20)
#    0.000    2.583    0.000    1.250    4.667    8.000 
#    0.000    5.000    0.000    4.000    0.000    0.000 
#    0.000    0.000    0.000    0.000    0.000    0.000 
#
# Total GULP energy -535036.793822 kJ/mol
# GULP energy per Si atom -5573.299936 kJ/mol
# Density = 2.126475 g / cm^3
# Si number density = 21.313257 Si / 1000 Ang^3
#
#
#
# Elastic Constant Matrix: (Units=GPa)
#
#
# Indices 1 2 3 4 5 6 
#
# 1 98.1738 13.4281 11.1640 0.0000 0.0000 0.0000
# 2 13.4281 98.1669 11.1637 0.0000 0.0000 0.0000
# 3 11.1640 11.1637 56.4146 0.0000 0.0000 0.0000
# 4 0.0000 0.0000 0.0000 24.6367 0.0000 0.0000
# 5 0.0000 0.0000 0.0000 0.0000 24.6438 0.0000
# 6 0.0000 0.0000 0.0000 0.0000 0.0000 18.8699
#
#
#
# Elastic Compliance Matrix: (Units=1/GPa)
#
#
# Indices 1 2 3 4 5 6 
#
# 1 0.010565 -0.001235 -0.001846 0.000000 0.000000 0.000000
# 2 -0.001235 0.010566 -0.001846 0.000000 0.000000 0.000000
# 3 -0.001846 -0.001846 0.018457 0.000000 0.000000 0.000000
# 4 0.000000 0.000000 0.000000 0.040590 0.000000 0.000000
# 5 0.000000 0.000000 0.000000 0.000000 0.040578 0.000000
# 6 0.000000 0.000000 0.000000 0.000000 0.000000 0.052994
#
#
# Mechanical properties :
#
#
# Convention : Reuss Voigt Hill
#
# Bulk Modulus (GPa) = 33.63433 36.02966 34.83200
# Shear Modulus (GPa) = 25.83766 28.09671 26.96719
#
# Velocity S-wave (km/s) = 3.48556 3.63474 3.56093
# Velocity P-wave (km/s) = 5.65810 5.87849 5.76935
#
# Compressibility (1/GPa) = 0.02973152
#
# Stress axis : x y z
#
# Youngs Moduli (GPa) = 94.65285 94.64620 54.18103
#
# Poissons Ratio (x) = 0.11691 0.10003
# Poissons Ratio (y) = 0.11692 0.10004
# Poissons Ratio (z) = 0.17476 0.17475
#
# Static dielectric constant tensor:
#      x y z
#    x 1.928550 0.000000 0.000000 
#    y 0.000000 1.928560 0.000000 
#    z 0.000000 0.000000 1.779000 
# 
# From -- ./inp_files/2948.got.cif
#   From: 2010.05.17/outbox.cif.g08.bks.cpg/sg125_2_cif.got.tgz:2948.got - 2010.05.20 11:54:10.
