data_PCOD9563571
_publ_section_title
;
Structure prediction by ZEFSAII (Michael W. Deem and Ramdas Pophale) SiO2 
 PCOD9563571
Probable space group: P 4/N N C
;
_chemical_formula_sum "Si O2"
_cell_formula_units_Z 64
_cell_length_a 11.877431
_cell_length_b 11.877431
_cell_length_c 20.314406
_cell_angle_alpha 90.000000
_cell_angle_beta 90.000000
_cell_angle_gamma 90.000000
_cell_volume 2865.821656
_symmetry_space_group_name_H-M "P 4/N N C"
_symmetry_group_IT_number 126
_space_group.IT_coordinate_system_code '2'
_symmetry_cell_setting 'tetragonal'
loop_
_space_group_symop_operation_xyz
x,y,z
1/2-y,x,z
1/2-x,1/2-y,z
y,1/2-x,z
x,1/2-y,1/2-z
1/2-x,y,1/2-z
y,x,1/2-z
1/2-y,1/2-x,1/2-z
-x,-y,-z
1/2+y,-x,-z
1/2+x,1/2+y,-z
-y,1/2+x,-z
-x,1/2+y,1/2+z
1/2+x,-y,1/2+z
-y,-x,1/2+z
1/2+y,1/2+x,1/2+z
loop_
_atom_site_type_symbol
_atom_site_label
_atom_site_fract_x
_atom_site_fract_y
_atom_site_fract_z
Si Si1 0.013810 0.644851 0.628160
Si Si2 0.873714 0.014290 0.804064
Si Si3 0.262310 0.617515 0.626379
Si Si4 0.438204 0.284618 0.987044
O O1 0.922275 0.548331 0.631626
O O2 0.001483 0.699281 0.556560
O O3 0.994285 0.740590 0.683926
O O4 0.133990 0.590540 0.643368
O O5 0.888606 0.147409 0.814616
O O6 0.951711 0.951711 0.750000
O O7 0.250000 0.750000 0.606602
O O8 0.297277 0.531924 0.569322
O O9 0.337163 0.376434 0.982282
#
# Coordination Sequence:
#
# PCOD9563571 Si02
#       4
#    16  16  16  16
#     4  11  23  41  65  98 132 177 233 284 347 414
#     4  11  24  43  65  94 133 183 228 283 342 417
#     4  10  25  40  65  99 135 178 226 285 355 415
#     4  11  23  41  66  98 139 180 231 290 352 423
#
# _framework density 22.332163999999999
#
# number of rings (size 3 to 8) (size 9 to 14) (size 15 to 20)
#    0.000    1.250    2.500    2.250    7.000    3.500 
#    0.000    5.000    0.000    0.000    0.000    1.750 
#    0.000    0.000    0.000    0.000    0.000    0.000 
#
# Total GULP energy -356949.058548 kJ/mol
# GULP energy per Si atom -5577.329040 kJ/mol
# Density = 2.228134 g / cm^3
# Si number density = 22.332164 Si / 1000 Ang^3
#
#
#
# Elastic Constant Matrix: (Units=GPa)
#
#
# Indices 1 2 3 4 5 6 
#
# 1 102.4826 42.4652 42.4892 0.0000 0.0000 0.0000
# 2 42.4652 102.4826 42.4892 0.0000 0.0000 0.0000
# 3 42.4892 42.4892 79.2432 0.0000 0.0000 0.0000
# 4 0.0000 0.0000 0.0000 25.3891 0.0000 0.0000
# 5 0.0000 0.0000 0.0000 0.0000 25.3891 0.0000
# 6 0.0000 0.0000 0.0000 0.0000 0.0000 0.5991
#
#
#
# Elastic Compliance Matrix: (Units=1/GPa)
#
#
# Indices 1 2 3 4 5 6 
#
# 1 0.013362 -0.003300 -0.005395 0.000000 0.000000 0.000000
# 2 -0.003300 0.013362 -0.005395 0.000000 0.000000 0.000000
# 3 -0.005395 -0.005395 0.018405 0.000000 0.000000 0.000000
# 4 0.000000 0.000000 0.000000 0.039387 0.000000 0.000000
# 5 0.000000 0.000000 0.000000 0.000000 0.039387 0.000000
# 6 0.000000 0.000000 0.000000 0.000000 0.000000 1.669050
#
#
# Mechanical properties :
#
#
# Convention : Reuss Voigt Hill
#
# Bulk Modulus (GPa) = 59.00222 59.89951 59.45086
# Shear Modulus (GPa) = 2.73705 20.72644 11.73175
#
# Velocity S-wave (km/s) = 1.10827 3.04978 2.29449
# Velocity P-wave (km/s) = 5.30239 6.26752 5.80505
#
# Compressibility (1/GPa) = 0.01694851
#
# Stress axis : x y z
#
# Youngs Moduli (GPa) = 74.83943 74.83943 54.33305
#
# Poissons Ratio (x) = 0.24696 0.29313
# Poissons Ratio (y) = 0.24696 0.29313
# Poissons Ratio (z) = 0.40377 0.40377
#
# Static dielectric constant tensor:
#      x y z
#    x 1.830890 0.000000 0.000000 
#    y 0.000000 1.830890 0.000000 
#    z 0.000000 0.000000 1.941150 
# 
# From -- ./inp_files/4933.got.cif
#   From: 2010.05.17/outbox.cif.g08.bks.cpg/sg126_3_cif.got.tgz:4933.got - 2010.05.20 11:58:20.
