data_PCOD9563112
_publ_section_title
;
Structure prediction by ZEFSAII (Michael W. Deem and Ramdas Pophale) SiO2 
 PCOD9563112
Probable space group: P 4/N B M
;
_chemical_formula_sum "Si O2"
_cell_formula_units_Z 120
_cell_length_a 14.832586
_cell_length_b 14.832586
_cell_length_c 31.409020
_cell_angle_alpha 90.000000
_cell_angle_beta 90.000000
_cell_angle_gamma 90.000000
_cell_volume 6910.160524
_symmetry_space_group_name_H-M "P 4/N B M"
_symmetry_group_IT_number 125
_space_group.IT_coordinate_system_code '2'
_symmetry_cell_setting 'tetragonal'
loop_
_space_group_symop_operation_xyz
x,y,z
1/2-y,x,z
1/2-x,1/2-y,z
y,1/2-x,z
x,1/2-y,-z
1/2-x,y,-z
y,x,-z
1/2-y,1/2-x,-z
-x,-y,-z
1/2+y,-x,-z
1/2+x,1/2+y,-z
-y,1/2+x,-z
-x,1/2+y,z
1/2+x,-y,z
-y,-x,z
1/2+y,1/2+x,z
loop_
_atom_site_type_symbol
_atom_site_label
_atom_site_fract_x
_atom_site_fract_y
_atom_site_fract_z
Si Si1 0.401083 0.750000 0.500000
Si Si2 0.118876 0.325855 0.800447
Si Si3 0.434640 0.414768 0.626475
Si Si4 0.373451 0.026532 0.286136
Si Si5 0.742979 0.392233 0.676701
Si Si6 0.012818 0.761564 0.591605
Si Si7 0.852381 0.994989 0.019896
Si Si8 0.815374 0.611462 0.896501
O O1 0.336896 0.663104 0.498161
O O2 0.457414 0.745486 0.543244
O O3 0.132010 0.218412 0.797263
O O4 0.064275 0.363108 0.760772
O O5 0.082227 0.338810 0.848283
O O6 0.526404 0.473597 0.624560
O O7 0.403403 0.407391 0.675677
O O8 0.446574 0.319250 0.604423
O O9 0.357940 0.471144 0.602552
O O10 0.448659 0.948659 0.286945
O O11 0.279203 0.981411 0.300884
O O12 0.645603 0.354398 0.689048
O O13 0.815579 0.315579 0.687399
O O14 0.747808 0.407340 0.626018
O O15 0.841004 0.962285 0.068645
O O16 0.750000 0.001543 0.000000
O O17 0.913445 0.913445 0.000000
O O18 0.913702 0.086299 0.015742
O O19 0.865163 0.708655 0.901650
#
# Coordination Sequence:
#
# PCOD9563112 Si02
#       8
#     8  16  16  16  16  16  16  16
#     4  11  22  36  60  87 104 134 184 227 274 327
#     4   9  19  33  51  78 110 145 184 229 282 337
#     4  10  22  38  56  81 110 144 183 221 270 326
#     4   9  19  33  50  76 106 138 182 225 271 337
#     4   9  17  32  53  73  98 133 175 228 275 311
#     4  11  22  37  55  79 112 139 173 221 268 325
#     4  11  22  35  58  90 119 153 201 249 296 353
#     4   9  17  33  56  80 110 148 194 247 296 337
#
# _framework density 17.365732999999999
#
# number of rings (size 3 to 8) (size 9 to 14) (size 15 to 20)
#    0.000    2.200    1.333    4.000    3.733    2.667 
#    0.000    1.333    0.000    2.400    0.000    1.867 
#    0.000    0.000    0.000    0.000    0.000    0.000 
#
# Total GULP energy -668692.114035 kJ/mol
# GULP energy per Si atom -5572.434284 kJ/mol
# Density = 1.732621 g / cm^3
# Si number density = 17.365733 Si / 1000 Ang^3
#
#
#
# Elastic Constant Matrix: (Units=GPa)
#
#
# Indices 1 2 3 4 5 6 
#
# 1 58.0126 36.3291 37.3276 0.0000 0.0000 0.0000
# 2 36.3291 58.0126 37.3276 0.0000 0.0000 0.0000
# 3 37.3276 37.3276 142.6554 0.0000 0.0000 0.0000
# 4 0.0000 0.0000 0.0000 21.9574 0.0000 0.0000
# 5 0.0000 0.0000 0.0000 0.0000 21.9574 0.0000
# 6 0.0000 0.0000 0.0000 0.0000 0.0000 -10.0632
#
#
#
# Elastic Compliance Matrix: (Units=1/GPa)
#
#
# Indices 1 2 3 4 5 6 
#
# 1 0.029743 -0.016375 -0.003498 0.000000 0.000000 0.000000
# 2 -0.016375 0.029743 -0.003498 0.000000 0.000000 0.000000
# 3 -0.003498 -0.003498 0.008840 0.000000 0.000000 0.000000
# 4 0.000000 0.000000 0.000000 0.045543 0.000000 0.000000
# 5 0.000000 0.000000 0.000000 0.000000 0.045543 0.000000
# 6 0.000000 0.000000 0.000000 0.000000 0.000000 -0.099372
#
#
# Mechanical properties :
#
#
# Convention : Reuss Voigt Hill
#
# Bulk Modulus (GPa) = 46.32961 53.40547 49.86754
# Shear Modulus (GPa) = 43.86891 16.61675 30.24283
#
# Velocity S-wave (km/s) = 5.03156 3.09669 4.17768
# Velocity P-wave (km/s) = 7.77767 6.60349 7.21451
#
# Compressibility (1/GPa) = 0.02158447
#
# Stress axis : x y z
#
# Youngs Moduli (GPa) = 33.62153 33.62153 113.11708
#
# Poissons Ratio (x) = 0.55056 0.39566
# Poissons Ratio (y) = 0.55056 0.39566
# Poissons Ratio (z) = 0.11760 0.11760
#
# Static dielectric constant tensor:
#      x y z
#    x 1.608760 0.000000 0.000000 
#    y 0.000000 1.608760 0.000000 
#    z 0.000000 0.000000 1.582720 
# 
# From -- ./inp_files/6668.got.cif
#   From: 2010.05.17/outbox.cif.g08.bks.cpg/sg125_4_cif.got.tgz:6668.got - 2010.05.20 11:54:10.
