data_PCOD9563981
_publ_section_title
;
Structure prediction by ZEFSAII (Michael W. Deem and Ramdas Pophale) SiO2 
 PCOD9563981
Probable space group: P 4/M B M
;
_chemical_formula_sum "Si O2"
_cell_formula_units_Z 80
_cell_length_a 19.629623
_cell_length_b 19.629623
_cell_length_c 14.518196
_cell_angle_alpha 90.000000
_cell_angle_beta 90.000000
_cell_angle_gamma 90.000000
_cell_volume 5594.181758
_symmetry_space_group_name_H-M "P 4/M B M"
_symmetry_group_IT_number 127
_symmetry_cell_setting 'tetragonal'
loop_
_space_group_symop_operation_xyz
x,y,z
-y,x,z
-x,-y,z
y,-x,z
1/2+x,1/2-y,-z
1/2-x,1/2+y,-z
1/2+y,1/2+x,-z
1/2-y,1/2-x,-z
-x,-y,-z
y,-x,-z
x,y,-z
-y,x,-z
1/2-x,1/2+y,z
1/2+x,1/2-y,z
1/2-y,1/2-x,z
1/2+y,1/2+x,z
loop_
_atom_site_type_symbol
_atom_site_label
_atom_site_fract_x
_atom_site_fract_y
_atom_site_fract_z
Si Si1 0.845530 0.456835 0.707423
Si Si2 0.201465 0.033433 0.611386
Si Si3 0.919027 0.580974 0.390099
Si Si4 0.379135 0.667633 0.388041
Si Si5 0.695849 0.195849 0.610993
Si Si6 0.114218 0.497134 0.103201
O O1 0.885736 0.385736 0.709168
O O2 0.774815 0.452808 0.654933
O O3 0.893065 0.511526 0.654969
O O4 0.838084 0.484924 0.811538
O O5 0.207410 0.033767 0.500000
O O6 0.151115 0.094578 0.638602
O O7 0.177860 0.957702 0.639298
O O8 0.926329 0.573672 0.500000
O O9 0.861487 0.638514 0.372011
O O10 0.378317 0.669943 0.500000
O O11 0.332434 0.731227 0.355597
O O12 0.701679 0.201679 0.500000
O O13 0.073528 0.426473 0.118215
O O14 0.055389 0.555389 0.104627
O O15 0.143731 0.496715 0.000000
#
# Coordination Sequence:
#
# PCOD9563981 Si02
#       6
#    16  16   8  16   8  16
#     4  11  20  28  41  66  92 117 152 184 220 270
#     4  10  20  32  45  63  87 117 154 193 225 261
#     4  11  19  28  40  58  94 132 150 172 212 264
#     4   9  18  31  45  60  83 118 156 188 221 257
#     4   9  16  29  44  56  82 123 154 173 214 269
#     4   8  14  26  42  59  83 115 148 182 216 257
#
# _framework density 14.300572000000001
#
# number of rings (size 3 to 8) (size 9 to 14) (size 15 to 20)
#    0.000    2.400    3.000    1.500    1.400    2.400 
#    0.000    2.000    0.000    0.000    0.000    1.400 
#    0.000    3.200    0.000    1.800    0.000    0.200 
#
# Total GULP energy -445608.798654 kJ/mol
# GULP energy per Si atom -5570.109983 kJ/mol
# Density = 1.426802 g / cm^3
# Si number density = 14.300572 Si / 1000 Ang^3
#
#
#
# Elastic Constant Matrix: (Units=GPa)
#
#
# Indices 1 2 3 4 5 6 
#
# 1 71.7262 82.5136 21.4070 0.0000 0.0000 0.0000
# 2 82.5136 71.7267 21.4063 0.0000 0.0000 0.0000
# 3 21.4070 21.4063 47.1388 0.0000 0.0000 0.0000
# 4 0.0000 0.0000 0.0000 5.1148 0.0000 0.0000
# 5 0.0000 0.0000 0.0000 0.0000 5.1148 0.0000
# 6 0.0000 0.0000 0.0000 0.0000 0.0000 20.4172
#
#
#
# Elastic Compliance Matrix: (Units=1/GPa)
#
#
# Indices 1 2 3 4 5 6 
#
# 1 -0.042643 0.050061 -0.003368 0.000000 0.000000 0.000000
# 2 0.050061 -0.042642 -0.003370 0.000000 0.000000 0.000000
# 3 -0.003368 -0.003370 0.024274 0.000000 0.000000 0.000000
# 4 0.000000 0.000000 0.000000 0.195511 0.000000 0.000000
# 5 0.000000 0.000000 0.000000 0.000000 0.195511 0.000000
# 6 0.000000 0.000000 0.000000 0.000000 0.000000 0.048978
#
#
# Mechanical properties :
#
#
# Convention : Reuss Voigt Hill
#
# Bulk Modulus (GPa) = 39.00891 49.02727 44.01809
# Shear Modulus (GPa) = 16.61744 10.48035 13.54890
#
# Velocity S-wave (km/s) = 3.41253 2.71008 3.08139
# Velocity P-wave (km/s) = 6.54708 6.64459 6.59601
#
# Compressibility (1/GPa) = 0.02563517
#
# Stress axis : x y z
#
# Youngs Moduli (GPa) = -23.45076 -23.45118 41.19682
#
# Poissons Ratio (x) = 1.17398 0.13875
# Poissons Ratio (y) = 1.17396 0.13882
# Poissons Ratio (z) = -0.07898 -0.07902
#
# Static dielectric constant tensor:
#      x y z
#    x 1.472150 0.000000 0.000000 
#    y 0.000000 1.472150 0.000000 
#    z 0.000000 0.000000 1.464350 
# 
# From -- ./inp_files/4270.got.cif
#   From: 2010.05.17/outbox.cif.g08.bks.cpg/sg127_3_cif.got.tgz:4270.got - 2010.05.20 12:03:00.
