data_PCOD9563293
_publ_section_title
;
Structure prediction by ZEFSAII (Michael W. Deem and Ramdas Pophale) SiO2 
 PCOD9563293
Probable space group: P 4/N N C
;
_chemical_formula_sum "Si O2"
_cell_formula_units_Z 80
_cell_length_a 31.902958
_cell_length_b 31.902958
_cell_length_c 5.241201
_cell_angle_alpha 90.000000
_cell_angle_beta 90.000000
_cell_angle_gamma 90.000000
_cell_volume 5334.487717
_symmetry_space_group_name_H-M "P 4/N N C"
_symmetry_group_IT_number 126
_space_group.IT_coordinate_system_code '2'
_symmetry_cell_setting 'tetragonal'
loop_
_space_group_symop_operation_xyz
x,y,z
1/2-y,x,z
1/2-x,1/2-y,z
y,1/2-x,z
x,1/2-y,1/2-z
1/2-x,y,1/2-z
y,x,1/2-z
1/2-y,1/2-x,1/2-z
-x,-y,-z
1/2+y,-x,-z
1/2+x,1/2+y,-z
-y,1/2+x,-z
-x,1/2+y,1/2+z
1/2+x,-y,1/2+z
-y,-x,1/2+z
1/2+y,1/2+x,1/2+z
loop_
_atom_site_type_symbol
_atom_site_label
_atom_site_fract_x
_atom_site_fract_y
_atom_site_fract_z
Si Si1 0.156477 0.091835 0.823694
Si Si2 0.151622 0.991248 0.803925
Si Si3 0.510853 0.202089 0.303895
Si Si4 0.091222 0.296258 0.324410
Si Si5 0.053154 0.513717 0.782065
O O1 0.113116 0.113116 0.750000
O O2 0.189447 0.104508 0.604327
O O3 0.153752 0.041827 0.812418
O O4 0.171880 0.104457 0.102976
O O5 0.180789 0.976119 0.570029
O O6 0.102667 0.982158 0.762220
O O7 0.171876 0.976783 0.070136
O O8 0.524614 0.250000 0.250000
O O9 0.459846 0.203835 0.317308
O O10 0.105331 0.250000 0.250000
O O11 0.029772 0.540698 0.563090
O O12 0.032935 0.467066 0.750000
#
# Coordination Sequence:
#
# PCOD9563293 Si02
#       5
#    16  16  16  16  16
#     4  10  18  27  41  60  79  96 121 153 187 237
#     4  10  18  29  44  60  82 110 135 167 213 249
#     4   9  17  28  43  62  81 103 130 161 207 263
#     4   9  17  28  40  55  78 101 116 141 186 239
#     4  10  20  32  44  59  82 114 154 192 219 244
#
# _framework density 14.996753
#
# number of rings (size 3 to 8) (size 9 to 14) (size 15 to 20)
#    0.000    2.400    0.000    3.600    0.000    4.800 
#    0.000    6.000    0.000    0.000    0.000    0.000 
#    0.000   28.000    0.000    0.000    0.000    0.000 
#
# Total GULP energy -445672.840009 kJ/mol
# GULP energy per Si atom -5570.910500 kJ/mol
# Density = 1.496262 g / cm^3
# Si number density = 14.996753 Si / 1000 Ang^3
#
#
#
# Elastic Constant Matrix: (Units=GPa)
#
#
# Indices 1 2 3 4 5 6 
#
# 1 36.7013 -2.8672 -1.0958 0.0000 0.0000 0.0000
# 2 -2.8672 36.7034 -1.0957 0.0000 0.0000 0.0000
# 3 -1.0958 -1.0957 53.3471 0.0000 0.0000 0.0000
# 4 0.0000 0.0000 0.0000 14.9621 0.0000 0.0000
# 5 0.0000 0.0000 0.0000 0.0000 14.9612 0.0000
# 6 0.0000 0.0000 0.0000 0.0000 0.0000 8.1087
#
#
#
# Elastic Compliance Matrix: (Units=1/GPa)
#
#
# Indices 1 2 3 4 5 6 
#
# 1 0.027434 0.002161 0.000608 0.000000 0.000000 0.000000
# 2 0.002161 0.027432 0.000608 0.000000 0.000000 0.000000
# 3 0.000608 0.000608 0.018770 0.000000 0.000000 0.000000
# 4 0.000000 0.000000 0.000000 0.066835 0.000000 0.000000
# 5 0.000000 0.000000 0.000000 0.000000 0.066840 0.000000
# 6 0.000000 0.000000 0.000000 0.000000 0.000000 0.123324
#
#
# Mechanical properties :
#
#
# Convention : Reuss Voigt Hill
#
# Bulk Modulus (GPa) = 12.43928 12.95937 12.69932
# Shear Modulus (GPa) = 14.25809 16.39378 15.32594
#
# Velocity S-wave (km/s) = 3.08676 3.30988 3.20026
# Velocity P-wave (km/s) = 4.58441 4.82361 4.70553
#
# Compressibility (1/GPa) = 0.08039052
#
# Stress axis : x y z
#
# Youngs Moduli (GPa) = 36.45116 36.45323 53.27612
#
# Poissons Ratio (x) = -0.07878 -0.03239
# Poissons Ratio (y) = -0.07878 -0.03238
# Poissons Ratio (z) = -0.02216 -0.02216
#
# Static dielectric constant tensor:
#      x y z
#    x 1.486800 0.000000 0.000000 
#    y 0.000000 1.486800 0.000000 
#    z 0.000000 0.000000 1.522330 
# 
# From -- ./inp_files/583.got.cif
#   From: 2010.05.17/outbox.cif.g08.bks.cpg/sg126_1_cif.got.tgz:583.got - 2010.05.20 11:58:20.
