data_PCOD9563278
_publ_section_title
;
Structure prediction by ZEFSAII (Michael W. Deem and Ramdas Pophale) SiO2 
 PCOD9563278
Probable space group: P 4/N N C
;
_chemical_formula_sum "Si O2"
_cell_formula_units_Z 84
_cell_length_a 15.501585
_cell_length_b 15.501585
_cell_length_c 14.411778
_cell_angle_alpha 90.000000
_cell_angle_beta 90.000000
_cell_angle_gamma 90.000000
_cell_volume 3463.137823
_symmetry_space_group_name_H-M "P 4/N N C"
_symmetry_group_IT_number 126
_space_group.IT_coordinate_system_code '2'
_symmetry_cell_setting 'tetragonal'
loop_
_space_group_symop_operation_xyz
x,y,z
1/2-y,x,z
1/2-x,1/2-y,z
y,1/2-x,z
x,1/2-y,1/2-z
1/2-x,y,1/2-z
y,x,1/2-z
1/2-y,1/2-x,1/2-z
-x,-y,-z
1/2+y,-x,-z
1/2+x,1/2+y,-z
-y,1/2+x,-z
-x,1/2+y,1/2+z
1/2+x,-y,1/2+z
-y,-x,1/2+z
1/2+y,1/2+x,1/2+z
loop_
_atom_site_type_symbol
_atom_site_label
_atom_site_fract_x
_atom_site_fract_y
_atom_site_fract_z
Si Si1 0.692113 0.861025 0.848234
Si Si2 0.750000 0.250000 0.500000
Si Si3 0.989843 0.643699 0.400287
Si Si4 0.494379 0.342259 0.598122
Si Si5 0.589747 0.332684 0.403558
Si Si6 0.646385 0.462641 0.621313
O O1 0.641633 0.784297 0.900853
O O2 0.750000 0.857768 0.750000
O O3 0.634172 0.943104 0.836883
O O4 0.685859 0.309544 0.441448
O O5 0.904860 0.586764 0.387149
O O6 0.981383 0.743498 0.372354
O O7 0.074621 0.598417 0.356241
O O8 0.014744 0.643181 0.510666
O O9 0.524903 0.341367 0.490390
O O10 0.577684 0.389768 0.642619
O O11 0.563037 0.244277 0.354304
#
# Coordination Sequence:
#
# PCOD9563278 Si02
#       6
#    16   4  16  16  16  16
#     4   9  20  35  48  70 103 131 169 212 249 300
#     4  12  12  28  44  60 104 138 160 208 260 292
#     4  10  20  29  42  66 106 131 174 214 243 307
#     4  10  19  30  40  66  98 130 171 210 246 306
#     4  10  16  27  42  66  96 132 167 214 246 307
#     4  10  18  28  51  68  92 135 173 202 257 301
#
# _framework density 24.255461
#
# number of rings (size 3 to 8) (size 9 to 14) (size 15 to 20)
#    0.000    2.095    5.714    2.857    8.000    0.381 
#    0.000    0.000    0.000    0.000    0.000    1.333 
#    0.000    0.000    0.000    1.714    0.381    0.000 
#
# Total GULP energy -467615.547254 kJ/mol
# GULP energy per Si atom -5566.851753 kJ/mol
# Density = 2.420025 g / cm^3
# Si number density = 24.255461 Si / 1000 Ang^3
#
#
#
# Elastic Constant Matrix: (Units=GPa)
#
#
# Indices 1 2 3 4 5 6 
#
# 1 192.0366 64.6248 1.8045 0.0000 0.0000 0.0000
# 2 64.6248 192.0366 1.8045 0.0000 0.0000 0.0000
# 3 1.8045 1.8045 56.0050 0.0000 0.0000 0.0000
# 4 0.0000 0.0000 0.0000 -8.5143 0.0000 0.0000
# 5 0.0000 0.0000 0.0000 0.0000 -8.5143 0.0000
# 6 0.0000 0.0000 0.0000 0.0000 0.0000 62.4673
#
#
#
# Elastic Compliance Matrix: (Units=1/GPa)
#
#
# Indices 1 2 3 4 5 6 
#
# 1 0.005873 -0.001975 -0.000126 0.000000 0.000000 0.000000
# 2 -0.001975 0.005873 -0.000126 0.000000 0.000000 0.000000
# 3 -0.000126 -0.000126 0.017864 0.000000 0.000000 0.000000
# 4 0.000000 0.000000 0.000000 -0.117450 0.000000 0.000000
# 5 0.000000 0.000000 0.000000 0.000000 -0.117450 0.000000
# 6 0.000000 0.000000 0.000000 0.000000 0.000000 0.016008
#
#
# Mechanical properties :
#
#
# Convention : Reuss Voigt Hill
#
# Bulk Modulus (GPa) = 39.75008 64.06063 51.90536
# Shear Modulus (GPa) = -28.33795 33.87736 2.76971
#
# Velocity S-wave (km/s) = -3.42177 3.74129 1.06975
# Velocity P-wave (km/s) = 0.90131 6.71797 4.79288
#
# Compressibility (1/GPa) = 0.02515718
#
# Stress axis : x y z
#
# Youngs Moduli (GPa) = 170.26324 170.26324 55.97960
#
# Poissons Ratio (x) = 0.33632 0.00703
# Poissons Ratio (y) = 0.33632 0.00703
# Poissons Ratio (z) = 0.02138 0.02138
#
# Static dielectric constant tensor:
#      x y z
#    x 1.918710 0.000000 0.000000 
#    y 0.000000 1.918710 0.000000 
#    z 0.000000 0.000000 2.026730 
# 
# From -- ./inp_files/5172.got.cif
#   From: 2010.05.17/outbox.cif.g08.bks.cpg/sg126_3_cif.got.tgz:5172.got - 2010.05.20 11:58:20.
