data_PCOD9563814
_publ_section_title
;
Structure prediction by ZEFSAII (Michael W. Deem and Ramdas Pophale) SiO2 
 PCOD9563814
Probable space group: P 4/M B M
;
_chemical_formula_sum "Si O2"
_cell_formula_units_Z 72
_cell_length_a 19.961010
_cell_length_b 19.961010
_cell_length_c 12.293869
_cell_angle_alpha 90.000000
_cell_angle_beta 90.000000
_cell_angle_gamma 90.000000
_cell_volume 4898.392771
_symmetry_space_group_name_H-M "P 4/M B M"
_symmetry_group_IT_number 127
_symmetry_cell_setting 'tetragonal'
loop_
_space_group_symop_operation_xyz
x,y,z
-y,x,z
-x,-y,z
y,-x,z
1/2+x,1/2-y,-z
1/2-x,1/2+y,-z
1/2+y,1/2+x,-z
1/2-y,1/2-x,-z
-x,-y,-z
y,-x,-z
x,y,-z
-y,x,-z
1/2-x,1/2+y,z
1/2+x,1/2-y,z
1/2-y,1/2-x,z
1/2+y,1/2+x,z
loop_
_atom_site_type_symbol
_atom_site_label
_atom_site_fract_x
_atom_site_fract_y
_atom_site_fract_z
Si Si1 0.217807 0.831227 0.000000
Si Si2 0.390694 0.526710 0.000000
Si Si3 0.072051 0.680052 0.123695
Si Si4 0.086828 0.071232 0.626621
Si Si5 0.679581 0.395159 0.818853
Si Si6 0.442405 0.829972 0.000000
O O1 0.170237 0.828973 0.105766
O O2 0.263098 0.898017 0.000000
O O3 0.268434 0.768434 0.000000
O O4 0.421762 0.453268 0.000000
O O5 0.347762 0.543662 0.893867
O O6 0.113499 0.613499 0.150407
O O7 0.090599 0.742046 0.199021
O O8 0.993397 0.668289 0.102791
O O9 0.094446 0.701193 0.000000
O O10 0.102421 0.084135 0.500000
O O11 0.135797 0.106685 0.710792
O O12 0.009137 0.090489 0.644655
O O13 0.392448 0.892448 0.000000
#
# Coordination Sequence:
#
# PCOD9563814 Si02
#       6
#     8   8  16  16  16   8
#     4  10  20  30  42  68 100 125 146 184 239 289
#     4  10  19  24  32  62  92 113 145 179 213 261
#     4   9  18  30  43  63  90 121 152 184 232 278
#     4   9  19  33  46  66  95 126 162 201 235 267
#     4  11  19  26  49  61  93 126 156 181 231 282
#     4   9  18  29  44  66  94 123 157 186 222 284
#
# _framework density 14.698699
#
# number of rings (size 3 to 8) (size 9 to 14) (size 15 to 20)
#    0.667    1.667    2.222    2.667    9.333    2.667 
#    0.000    0.000    0.000    2.667    0.000    0.000 
#    0.000    0.889    0.000    2.000    0.000    0.000 
#
# Total GULP energy -400982.097991 kJ/mol
# GULP energy per Si atom -5569.195805 kJ/mol
# Density = 1.466524 g / cm^3
# Si number density = 14.698699 Si / 1000 Ang^3
#
#
#
# Elastic Constant Matrix: (Units=GPa)
#
#
# Indices 1 2 3 4 5 6 
#
# 1 89.9534 46.4221 32.4356 0.0000 0.0000 0.0000
# 2 46.4221 89.9534 32.4356 0.0000 0.0000 0.0000
# 3 32.4356 32.4356 65.0017 0.0000 0.0000 0.0000
# 4 0.0000 0.0000 0.0000 14.3496 0.0000 0.0000
# 5 0.0000 0.0000 0.0000 0.0000 14.3496 0.0000
# 6 0.0000 0.0000 0.0000 0.0000 0.0000 19.3531
#
#
#
# Elastic Compliance Matrix: (Units=1/GPa)
#
#
# Indices 1 2 3 4 5 6 
#
# 1 0.016293 -0.006679 -0.004798 0.000000 0.000000 0.000000
# 2 -0.006679 0.016293 -0.004798 0.000000 0.000000 0.000000
# 3 -0.004798 -0.004798 0.020172 0.000000 0.000000 0.000000
# 4 0.000000 0.000000 0.000000 0.069688 0.000000 0.000000
# 5 0.000000 0.000000 0.000000 0.000000 0.069688 0.000000
# 6 0.000000 0.000000 0.000000 0.000000 0.000000 0.051671
#
#
# Mechanical properties :
#
#
# Convention : Reuss Voigt Hill
#
# Bulk Modulus (GPa) = 49.47803 51.94391 50.71097
# Shear Modulus (GPa) = 17.66204 18.51812 18.09008
#
# Velocity S-wave (km/s) = 3.47018 3.55328 3.51198
# Velocity P-wave (km/s) = 7.05626 7.22843 7.14286
#
# Compressibility (1/GPa) = 0.02021099
#
# Stress axis : x y z
#
# Youngs Moduli (GPa) = 61.37429 61.37429 49.57271
#
# Poissons Ratio (x) = 0.40989 0.23784
# Poissons Ratio (y) = 0.40989 0.23784
# Poissons Ratio (z) = 0.29446 0.29446
#
# Static dielectric constant tensor:
#      x y z
#    x 1.502170 0.000000 0.000000 
#    y 0.000000 1.502170 0.000000 
#    z 0.000000 0.000000 1.468420 
# 
# From -- ./inp_files/3383.got.cif
#   From: 2010.05.17/outbox.cif.g08.bks.cpg/sg127_2_cif.got.tgz:3383.got - 2010.05.20 12:03:00.
