data_PCOD9563935
_publ_section_title
;
Structure prediction by ZEFSAII (Michael W. Deem and Ramdas Pophale) SiO2 
 PCOD9563935
Probable space group: P 4/M B M
;
_chemical_formula_sum "Si O2"
_cell_formula_units_Z 72
_cell_length_a 19.169000
_cell_length_b 19.169000
_cell_length_c 11.962032
_cell_angle_alpha 90.000000
_cell_angle_beta 90.000000
_cell_angle_gamma 90.000000
_cell_volume 4395.455369
_symmetry_space_group_name_H-M "P 4/M B M"
_symmetry_group_IT_number 127
_symmetry_cell_setting 'tetragonal'
loop_
_space_group_symop_operation_xyz
x,y,z
-y,x,z
-x,-y,z
y,-x,z
1/2+x,1/2-y,-z
1/2-x,1/2+y,-z
1/2+y,1/2+x,-z
1/2-y,1/2-x,-z
-x,-y,-z
y,-x,-z
x,y,-z
-y,x,-z
1/2-x,1/2+y,z
1/2+x,1/2-y,z
1/2-y,1/2-x,z
1/2+y,1/2+x,z
loop_
_atom_site_type_symbol
_atom_site_label
_atom_site_fract_x
_atom_site_fract_y
_atom_site_fract_z
Si Si1 0.943451 0.556550 0.636039
Si Si2 0.092225 0.290976 0.000000
Si Si3 0.145508 0.236380 0.233503
Si Si4 0.071423 0.683064 0.000000
Si Si5 0.518566 0.214063 0.633567
Si Si6 0.737606 0.877301 0.237539
O O1 0.943620 0.556381 0.500000
O O2 0.865754 0.535187 0.671418
O O3 0.000000 0.500000 0.674316
O O4 0.112576 0.248017 0.889142
O O5 0.140725 0.359276 0.000000
O O6 0.011770 0.312950 0.000000
O O7 0.199413 0.300588 0.252599
O O8 0.191565 0.166983 0.241054
O O9 0.083040 0.240963 0.321419
O O10 0.099880 0.721029 0.110695
O O11 0.105969 0.605969 0.000000
O O12 0.514956 0.215102 0.500000
O O13 0.445864 0.237205 0.686980
O O14 0.674983 0.825018 0.272815
#
# Coordination Sequence:
#
# PCOD9563935 Si02
#       6
#     8   8  16   8  16  16
#     4   9  18  32  50  73 109 149 179 215 265 328
#     4  10  19  34  57  84 112 143 180 219 272 336
#     4  10  20  36  57  80 109 147 187 228 274 326
#     4  10  19  34  55  84 116 142 175 222 277 335
#     4  11  21  34  53  80 111 148 190 225 270 328
#     4  10  21  36  56  82 112 145 184 230 274 324
#
# _framework density 16.380555000000001
#
# number of rings (size 3 to 8) (size 9 to 14) (size 15 to 20)
#    0.000    1.889    3.333    1.333    0.000    5.111 
#    0.000    2.222    0.000    0.667    0.000    3.111 
#    0.000    0.000    0.000    0.000    0.000    0.000 
#
# Total GULP energy -401880.826131 kJ/mol
# GULP energy per Si atom -5581.678141 kJ/mol
# Density = 1.634327 g / cm^3
# Si number density = 16.380555 Si / 1000 Ang^3
#
#
#
# Elastic Constant Matrix: (Units=GPa)
#
#
# Indices 1 2 3 4 5 6 
#
# 1 117.8721 86.1004 53.4220 0.0000 0.0000 0.0000
# 2 86.1004 117.8686 53.4223 0.0000 0.0000 0.0000
# 3 53.4220 53.4223 85.9663 0.0000 0.0000 0.0000
# 4 0.0000 0.0000 0.0000 14.1012 0.0000 0.0000
# 5 0.0000 0.0000 0.0000 0.0000 14.1010 0.0000
# 6 0.0000 0.0000 0.0000 0.0000 0.0000 18.6445
#
#
#
# Elastic Compliance Matrix: (Units=1/GPa)
#
#
# Indices 1 2 3 4 5 6 
#
# 1 0.019372 -0.012104 -0.004517 0.000000 0.000000 0.000000
# 2 -0.012104 0.019373 -0.004517 0.000000 0.000000 0.000000
# 3 -0.004517 -0.004517 0.017247 0.000000 0.000000 0.000000
# 4 0.000000 0.000000 0.000000 0.070916 0.000000 0.000000
# 5 0.000000 0.000000 0.000000 0.000000 0.070917 0.000000
# 6 0.000000 0.000000 0.000000 0.000000 0.000000 0.053635
#
#
# Mechanical properties :
#
#
# Convention : Reuss Voigt Hill
#
# Bulk Modulus (GPa) = 72.90803 78.62182 75.76493
# Shear Modulus (GPa) = 16.76124 17.95349 17.35736
#
# Velocity S-wave (km/s) = 3.20228 3.31422 3.25873
# Velocity P-wave (km/s) = 7.63402 7.92128 7.77898
#
# Compressibility (1/GPa) = 0.01371591
#
# Stress axis : x y z
#
# Youngs Moduli (GPa) = 51.62070 51.61829 57.98260
#
# Poissons Ratio (x) = 0.62477 0.26189
# Poissons Ratio (y) = 0.62480 0.26193
# Poissons Ratio (z) = 0.23316 0.23318
#
# Static dielectric constant tensor:
#      x y z
#    x 1.530380 0.000000 0.000000 
#    y 0.000000 1.530380 0.000000 
#    z 0.000000 0.000000 1.554370 
# 
# From -- ./inp_files/3217.got.cif
#   From: 2010.05.17/outbox.cif.g08.bks.cpg/sg127_2_cif.got.tgz:3217.got - 2010.05.20 12:03:00.
