data_PCOD9563982
_publ_section_title
;
Structure prediction by ZEFSAII (Michael W. Deem and Ramdas Pophale) SiO2 
 PCOD9563982
Probable space group: P 4/M B M
;
_chemical_formula_sum "Si O2"
_cell_formula_units_Z 96
_cell_length_a 25.849955
_cell_length_b 25.849955
_cell_length_c 9.167074
_cell_angle_alpha 90.000000
_cell_angle_beta 90.000000
_cell_angle_gamma 90.000000
_cell_volume 6125.623779
_symmetry_space_group_name_H-M "P 4/M B M"
_symmetry_group_IT_number 127
_symmetry_cell_setting 'tetragonal'
loop_
_space_group_symop_operation_xyz
x,y,z
-y,x,z
-x,-y,z
y,-x,z
1/2+x,1/2-y,-z
1/2-x,1/2+y,-z
1/2+y,1/2+x,-z
1/2-y,1/2-x,-z
-x,-y,-z
y,-x,-z
x,y,-z
-y,x,-z
1/2-x,1/2+y,z
1/2+x,1/2-y,z
1/2-y,1/2-x,z
1/2+y,1/2+x,z
loop_
_atom_site_type_symbol
_atom_site_label
_atom_site_fract_x
_atom_site_fract_y
_atom_site_fract_z
Si Si1 0.552215 0.862304 0.323973
Si Si2 0.644337 0.561116 0.823829
Si Si3 0.855227 0.558190 0.173264
Si Si4 0.751547 0.938307 0.666649
Si Si5 0.144101 0.059022 0.825043
Si Si6 0.063992 0.250124 0.332076
O O1 0.543864 0.860553 0.500000
O O2 0.591462 0.908539 0.291179
O O3 0.497241 0.868143 0.245102
O O4 0.575971 0.806198 0.282633
O O5 0.635177 0.500978 0.782315
O O6 0.596900 0.597818 0.780276
O O7 0.697599 0.579286 0.749727
O O8 0.649719 0.562864 0.000000
O O9 0.901408 0.598593 0.197175
O O10 0.802305 0.578221 0.247086
O O11 0.847279 0.551730 0.000000
O O12 0.758711 0.920986 0.500000
O O13 0.800899 0.923121 0.760996
O O14 0.750336 0.001096 0.667422
O O15 0.147015 0.060022 0.000000
O O16 0.081238 0.251062 0.500000
#
# Coordination Sequence:
#
# PCOD9563982 Si02
#       6
#    16  16  16  16  16  16
#     4   9  18  32  49  69  93 122 155 190 228 269
#     4   9  17  29  45  67  94 122 153 188 227 271
#     4  10  20  32  47  69  96 123 150 184 227 272
#     4   8  15  28  45  64  86 114 151 192 227 263
#     4   9  17  28  44  66  92 122 153 187 227 270
#     4   9  17  30  48  67  87 117 157 193 224 264
#
# _framework density 15.671874000000001
#
# number of rings (size 3 to 8) (size 9 to 14) (size 15 to 20)
#    0.000    3.000    0.000    2.000    0.000    7.000 
#    0.000    3.333    0.000    1.000    0.000    9.333 
#    0.000    0.000    0.000    0.000    0.000    0.000 
#
# Total GULP energy -534504.549303 kJ/mol
# GULP energy per Si atom -5567.755722 kJ/mol
# Density = 1.563620 g / cm^3
# Si number density = 15.671874 Si / 1000 Ang^3
#
#
#
# Elastic Constant Matrix: (Units=GPa)
#
#
# Indices 1 2 3 4 5 6 
#
# 1 100.4196 68.3847 49.1047 0.0000 0.0000 0.0000
# 2 68.3847 100.4196 49.1047 0.0000 0.0000 0.0000
# 3 49.1047 49.1047 47.2300 0.0000 0.0000 0.0000
# 4 0.0000 0.0000 0.0000 21.4556 0.0000 0.0000
# 5 0.0000 0.0000 0.0000 0.0000 21.4556 0.0000
# 6 0.0000 0.0000 0.0000 0.0000 0.0000 -1.1541
#
#
#
# Elastic Compliance Matrix: (Units=1/GPa)
#
#
# Indices 1 2 3 4 5 6 
#
# 1 0.023105 -0.008111 -0.015588 0.000000 0.000000 0.000000
# 2 -0.008111 0.023105 -0.015588 0.000000 0.000000 0.000000
# 3 -0.015588 -0.015588 0.053587 0.000000 0.000000 0.000000
# 4 0.000000 0.000000 0.000000 0.046608 0.000000 0.000000
# 5 0.000000 0.000000 0.000000 0.000000 0.046608 0.000000
# 6 0.000000 0.000000 0.000000 0.000000 0.000000 -0.866469
#
#
# Mechanical properties :
#
#
# Convention : Reuss Voigt Hill
#
# Bulk Modulus (GPa) = 47.12486 64.58413 55.85449
# Shear Modulus (GPa) = -8.50619 13.78308 2.63845
#
# Velocity S-wave (km/s) = -2.33226 2.96882 1.29893
# Velocity P-wave (km/s) = 4.78355 7.28365 6.16173
#
# Compressibility (1/GPa) = 0.02122022
#
# Stress axis : x y z
#
# Youngs Moduli (GPa) = 43.28141 43.28141 18.66121
#
# Poissons Ratio (x) = 0.35107 0.29090
# Poissons Ratio (y) = 0.35107 0.29090
# Poissons Ratio (z) = 0.67469 0.67469
#
# Static dielectric constant tensor:
#      x y z
#    x 1.515610 0.000000 0.000000 
#    y 0.000000 1.515610 0.000000 
#    z 0.000000 0.000000 1.531650 
# 
# From -- ./inp_files/1963.got.cif
#   From: 2010.05.17/outbox.cif.g08.bks.cpg/sg127_1_cif.got.tgz:1963.got - 2010.05.20 12:03:00.
