data_PCOD9563837
_publ_section_title
;
Structure prediction by ZEFSAII (Michael W. Deem and Ramdas Pophale) SiO2 
 PCOD9563837
Probable space group: P 4/M B M
;
_chemical_formula_sum "Si O2"
_cell_formula_units_Z 104
_cell_length_a 26.747648
_cell_length_b 26.747648
_cell_length_c 7.481682
_cell_angle_alpha 90.000000
_cell_angle_beta 90.000000
_cell_angle_gamma 90.000000
_cell_volume 5352.669683
_symmetry_space_group_name_H-M "P 4/M B M"
_symmetry_group_IT_number 127
_symmetry_cell_setting 'tetragonal'
loop_
_space_group_symop_operation_xyz
x,y,z
-y,x,z
-x,-y,z
y,-x,z
1/2+x,1/2-y,-z
1/2-x,1/2+y,-z
1/2+y,1/2+x,-z
1/2-y,1/2-x,-z
-x,-y,-z
y,-x,-z
x,y,-z
-y,x,-z
1/2-x,1/2+y,z
1/2+x,1/2-y,z
1/2-y,1/2-x,z
1/2+y,1/2+x,z
loop_
_atom_site_type_symbol
_atom_site_label
_atom_site_fract_x
_atom_site_fract_y
_atom_site_fract_z
Si Si1 0.337560 0.596375 0.200135
Si Si2 0.472558 0.838035 0.293318
Si Si3 0.083792 0.501154 0.000000
Si Si4 0.488434 0.271732 0.218081
Si Si5 0.182499 0.907938 0.206333
Si Si6 0.368607 0.790485 0.716247
Si Si7 0.471643 0.424057 0.284864
O O1 0.291060 0.565912 0.280880
O O2 0.370841 0.640516 0.286468
O O3 0.376609 0.550737 0.191944
O O4 0.323338 0.613416 0.000000
O O5 0.471446 0.853123 0.500000
O O6 0.500552 0.784848 0.274691
O O7 0.415845 0.825059 0.233950
O O8 0.495971 0.880164 0.170292
O O9 0.051614 0.551614 0.000000
O O10 0.044465 0.455536 0.000000
O O11 0.536576 0.305049 0.281007
O O12 0.488848 0.273171 0.000000
O O13 0.235366 0.879260 0.212680
O O14 0.167212 0.915672 0.000000
O O15 0.368989 0.786962 0.500000
O O16 0.317946 0.817946 0.772167
O O17 0.528007 0.437968 0.238223
O O18 0.469505 0.417891 0.500000
#
# Coordination Sequence:
#
# PCOD9563837 Si02
#       7
#    16  16   8  16  16  16  16
#     4  10  19  30  47  71 100 134 176 228 277 325
#     4  10  20  37  60  87 119 153 190 226 265 326
#     4  11  24  40  62  94 126 154 180 213 268 326
#     4   9  17  32  52  74 106 148 192 236 283 335
#     4   9  18  30  45  72 103 133 175 226 280 332
#     4   9  18  32  52  78 105 136 173 216 271 329
#     4   9  18  30  41  57  87 128 173 220 273 330
#
# _framework density 19.429558
#
# number of rings (size 3 to 8) (size 9 to 14) (size 15 to 20)
#    0.000    2.538    0.769    1.846    1.077    4.615 
#    0.000    4.615    0.000    0.923    0.000    0.000 
#    0.000    0.000    0.000    0.000    0.000    0.000 
#
# Total GULP energy -580094.734904 kJ/mol
# GULP energy per Si atom -5577.833989 kJ/mol
# Density = 1.938534 g / cm^3
# Si number density = 19.429558 Si / 1000 Ang^3
#
#
#
# Elastic Constant Matrix: (Units=GPa)
#
#
# Indices 1 2 3 4 5 6 
#
# 1 75.4795 61.7125 13.7258 0.0000 0.0000 0.0000
# 2 61.7125 75.4778 13.7252 0.0000 0.0000 0.0000
# 3 13.7258 13.7252 64.6058 0.0000 0.0000 0.0000
# 4 0.0000 0.0000 0.0000 17.6145 0.0000 0.0000
# 5 0.0000 0.0000 0.0000 0.0000 17.6215 0.0000
# 6 0.0000 0.0000 0.0000 0.0000 0.0000 36.6554
#
#
#
# Elastic Compliance Matrix: (Units=1/GPa)
#
#
# Indices 1 2 3 4 5 6 
#
# 1 0.040127 -0.032515 -0.001618 0.000000 0.000000 0.000000
# 2 -0.032515 0.040128 -0.001617 0.000000 0.000000 0.000000
# 3 -0.001618 -0.001617 0.016166 0.000000 0.000000 0.000000
# 4 0.000000 0.000000 0.000000 0.056771 0.000000 0.000000
# 5 0.000000 0.000000 0.000000 0.000000 0.056749 0.000000
# 6 0.000000 0.000000 0.000000 0.000000 0.000000 0.027281
#
#
# Mechanical properties :
#
#
# Convention : Reuss Voigt Hill
#
# Bulk Modulus (GPa) = 40.12548 43.76558 41.94553
# Shear Modulus (GPa) = 15.77150 22.80494 19.28822
#
# Velocity S-wave (km/s) = 2.85217 3.42968 3.15417
# Velocity P-wave (km/s) = 5.61633 6.18529 5.90766
#
# Compressibility (1/GPa) = 0.02492182
#
# Stress axis : x y z
#
# Youngs Moduli (GPa) = 24.92087 24.92038 61.85947
#
# Poissons Ratio (x) = 0.81028 0.10006
# Poissons Ratio (y) = 0.81029 0.10003
# Poissons Ratio (z) = 0.04031 0.04030
#
# Static dielectric constant tensor:
#      x y z
#    x 1.682010 0.000000 0.000000 
#    y 0.000000 1.682010 0.000000 
#    z 0.000000 0.000000 1.735900 
# 
# From -- ./inp_files/2287.got.cif
#   From: 2010.05.17/outbox.cif.g08.bks.cpg/sg127_2_cif.got.tgz:2287.got - 2010.05.20 12:03:00.
