data_PCOD9563551
_publ_section_title
;
Structure prediction by ZEFSAII (Michael W. Deem and Ramdas Pophale) SiO2 
 PCOD9563551
Probable space group: P 4/N N C
;
_chemical_formula_sum "Si O2"
_cell_formula_units_Z 112
_cell_length_a 15.164760
_cell_length_b 15.164760
_cell_length_c 24.322231
_cell_angle_alpha 90.000000
_cell_angle_beta 90.000000
_cell_angle_gamma 90.000000
_cell_volume 5593.382146
_symmetry_space_group_name_H-M "P 4/N N C"
_symmetry_group_IT_number 126
_space_group.IT_coordinate_system_code '2'
_symmetry_cell_setting 'tetragonal'
loop_
_space_group_symop_operation_xyz
x,y,z
1/2-y,x,z
1/2-x,1/2-y,z
y,1/2-x,z
x,1/2-y,1/2-z
1/2-x,y,1/2-z
y,x,1/2-z
1/2-y,1/2-x,1/2-z
-x,-y,-z
1/2+y,-x,-z
1/2+x,1/2+y,-z
-y,1/2+x,-z
-x,1/2+y,1/2+z
1/2+x,-y,1/2+z
-y,-x,1/2+z
1/2+y,1/2+x,1/2+z
loop_
_atom_site_type_symbol
_atom_site_label
_atom_site_fract_x
_atom_site_fract_y
_atom_site_fract_z
Si Si1 0.116452 0.189084 0.981452
Si Si2 0.077751 0.964553 0.349641
Si Si3 0.483851 0.750000 0.250000
Si Si4 0.653647 0.271272 0.651578
Si Si5 0.981711 0.053571 0.945686
Si Si6 0.690171 0.882876 0.888046
Si Si7 0.175103 0.835651 0.036987
Si Si8 0.057527 0.057527 0.750000
O O1 0.208158 0.136744 0.970259
O O2 0.037918 0.144108 0.947916
O O3 0.097174 0.180867 0.046662
O O4 0.129861 0.873302 0.359107
O O5 0.015082 0.962174 0.296786
O O6 0.150242 0.040805 0.351401
O O7 0.008117 0.987611 0.397088
O O8 0.420795 0.753265 0.303944
O O9 0.541459 0.838130 0.257333
O O10 0.750000 0.250000 0.676373
O O11 0.659755 0.219401 0.593292
O O12 0.879413 0.077732 0.950174
O O13 0.000000 0.000000 0.000000
O O14 0.637496 0.792333 0.878149
O O15 0.273076 0.857234 0.013961
#
# Coordination Sequence:
#
# PCOD9563551 Si02
#       8
#    16  16   8  16  16  16  16   8
#     4   9  20  37  56  81 122 164 199 250 310 375
#     4  11  24  41  64  96 122 166 218 264 320 381
#     4  10  23  45  74  94 126 164 222 271 325 382
#     4  11  23  43  66  95 129 168 214 268 329 389
#     4  12  24  35  61  91 121 161 210 263 314 381
#     4   9  19  38  61  89 126 165 201 247 313 379
#     4  11  24  40  58  89 135 173 207 264 329 393
#     4  10  24  47  66  93 128 166 214 272 316 380
#
# _framework density 20.023664
#
# number of rings (size 3 to 8) (size 9 to 14) (size 15 to 20)
#    0.000    1.571    2.857    2.786    4.000    2.429 
#    0.000    2.143    0.000    0.857    0.000    0.000 
#    0.000    0.000    0.000    0.000    0.000    0.000 
#
# Total GULP energy -624592.760921 kJ/mol
# GULP energy per Si atom -5576.721080 kJ/mol
# Density = 1.997809 g / cm^3
# Si number density = 20.023664 Si / 1000 Ang^3
#
#
#
# Elastic Constant Matrix: (Units=GPa)
#
#
# Indices 1 2 3 4 5 6 
#
# 1 71.5408 42.8687 23.0329 0.0000 0.0000 0.0000
# 2 42.8687 71.5408 23.0329 0.0000 0.0000 0.0000
# 3 23.0329 23.0329 63.9119 0.0000 0.0000 0.0000
# 4 0.0000 0.0000 0.0000 21.3926 0.0000 0.0000
# 5 0.0000 0.0000 0.0000 0.0000 21.3926 0.0000
# 6 0.0000 0.0000 0.0000 0.0000 0.0000 38.9877
#
#
#
# Elastic Compliance Matrix: (Units=1/GPa)
#
#
# Indices 1 2 3 4 5 6 
#
# 1 0.022551 -0.012327 -0.003685 0.000000 0.000000 0.000000
# 2 -0.012327 0.022551 -0.003685 0.000000 0.000000 0.000000
# 3 -0.003685 -0.003685 0.018302 0.000000 0.000000 0.000000
# 4 0.000000 0.000000 0.000000 0.046745 0.000000 0.000000
# 5 0.000000 0.000000 0.000000 0.000000 0.046745 0.000000
# 6 0.000000 0.000000 0.000000 0.000000 0.000000 0.025649
#
#
# Mechanical properties :
#
#
# Convention : Reuss Voigt Hill
#
# Bulk Modulus (GPa) = 41.64576 42.76250 42.20413
# Shear Modulus (GPa) = 21.74495 24.22518 22.98506
#
# Velocity S-wave (km/s) = 3.29897 3.48203 3.39174
# Velocity P-wave (km/s) = 5.94595 6.12931 6.03833
#
# Compressibility (1/GPa) = 0.02401205
#
# Stress axis : x y z
#
# Youngs Moduli (GPa) = 44.34469 44.34469 54.63795
#
# Poissons Ratio (x) = 0.54662 0.20132
# Poissons Ratio (y) = 0.54662 0.20132
# Poissons Ratio (z) = 0.16339 0.16339
#
# Static dielectric constant tensor:
#      x y z
#    x 1.755070 0.000000 0.000000 
#    y 0.000000 1.755070 0.000000 
#    z 0.000000 0.000000 1.683660 
# 
# From -- ./inp_files/6262.got.cif
#   From: 2010.05.17/outbox.cif.g08.bks.cpg/sg126_4_cif.got.tgz:6262.got - 2010.05.20 11:58:20.
