data_PCOD9563422
_publ_section_title
;
Structure prediction by ZEFSAII (Michael W. Deem and Ramdas Pophale) SiO2 
 PCOD9563422
Probable space group: P 4/N N C
;
_chemical_formula_sum "Si O2"
_cell_formula_units_Z 128
_cell_length_a 24.417662
_cell_length_b 24.417662
_cell_length_c 9.509591
_cell_angle_alpha 90.000000
_cell_angle_beta 90.000000
_cell_angle_gamma 90.000000
_cell_volume 5669.829434
_symmetry_space_group_name_H-M "P 4/N N C"
_symmetry_group_IT_number 126
_space_group.IT_coordinate_system_code '2'
_symmetry_cell_setting 'tetragonal'
loop_
_space_group_symop_operation_xyz
x,y,z
1/2-y,x,z
1/2-x,1/2-y,z
y,1/2-x,z
x,1/2-y,1/2-z
1/2-x,y,1/2-z
y,x,1/2-z
1/2-y,1/2-x,1/2-z
-x,-y,-z
1/2+y,-x,-z
1/2+x,1/2+y,-z
-y,1/2+x,-z
-x,1/2+y,1/2+z
1/2+x,-y,1/2+z
-y,-x,1/2+z
1/2+y,1/2+x,1/2+z
loop_
_atom_site_type_symbol
_atom_site_label
_atom_site_fract_x
_atom_site_fract_y
_atom_site_fract_z
Si Si1 0.663891 0.744189 0.584377
Si Si2 0.606530 0.471920 0.881583
Si Si3 0.051339 0.526273 0.658947
Si Si4 0.026318 0.784034 0.101077
Si Si5 0.186146 0.687870 0.276565
Si Si6 0.455591 0.202757 0.033881
Si Si7 0.450371 0.142658 0.749787
Si Si8 0.645323 0.127911 0.981986
O O1 0.700128 0.692713 0.526962
O O2 0.672644 0.750000 0.750000
O O3 0.599386 0.733320 0.576875
O O4 0.585897 0.460988 0.723015
O O5 0.649318 0.521884 0.884704
O O6 0.626554 0.416682 0.960138
O O7 0.556740 0.484466 0.992695
O O8 0.110295 0.506192 0.713490
O O9 0.010946 0.489054 0.750000
O O10 0.036510 0.750000 0.250000
O O11 0.074989 0.821923 0.042286
O O12 0.970792 0.820485 0.121739
O O13 0.008678 0.740684 0.983402
O O14 0.167650 0.750000 0.250000
O O15 0.250000 0.683028 0.250000
O O16 0.177519 0.674286 0.438264
O O17 0.153081 0.644434 0.180048
O O18 0.439973 0.182403 0.878380
O O19 0.401548 0.098453 0.750000
#
# Coordination Sequence:
#
# PCOD9563422 Si02
#       8
#    16  16  16  16  16  16  16  16
#     4   9  20  44  71  93 129 175 216 270 346 416
#     4  11  23  40  60  95 127 172 214 271 329 402
#     4  10  20  40  61  85 124 170 220 261 320 390
#     4  10  22  40  63  94 129 176 218 273 338 407
#     4  11  26  43  65  93 119 165 227 282 333 392
#     4  10  23  38  63  97 129 160 225 273 328 400
#     4   9  19  37  63  90 128 171 212 264 330 405
#     4  12  24  42  67  89 132 174 216 273 344 399
#
# _framework density 22.575634999999998
#
# number of rings (size 3 to 8) (size 9 to 14) (size 15 to 20)
#    0.000    1.750    1.250    2.625    8.750    1.000 
#    6.750    0.000    0.000    0.000    0.000    0.000 
#    0.000    0.000    0.000    0.000    0.000    0.000 
#
# Total GULP energy -713187.366820 kJ/mol
# GULP energy per Si atom -5571.776303 kJ/mol
# Density = 2.252425 g / cm^3
# Si number density = 22.575635 Si / 1000 Ang^3
#
#
#
# Elastic Constant Matrix: (Units=GPa)
#
#
# Indices 1 2 3 4 5 6 
#
# 1 85.0782 33.5956 -0.2213 0.0000 0.0000 0.0000
# 2 33.5956 85.0811 -0.2202 0.0000 0.0000 0.0000
# 3 -0.2213 -0.2202 36.7851 0.0000 0.0000 0.0000
# 4 0.0000 0.0000 0.0000 -68.0707 0.0000 0.0000
# 5 0.0000 0.0000 0.0000 0.0000 -67.9603 0.0000
# 6 0.0000 0.0000 0.0000 0.0000 0.0000 -132.3995
#
#
#
# Elastic Compliance Matrix: (Units=1/GPa)
#
#
# Indices 1 2 3 4 5 6 
#
# 1 0.013925 -0.005498 0.000051 0.000000 0.000000 0.000000
# 2 -0.005498 0.013925 0.000050 0.000000 0.000000 0.000000
# 3 0.000051 0.000050 0.027186 0.000000 0.000000 0.000000
# 4 0.000000 0.000000 0.000000 -0.014691 0.000000 0.000000
# 5 0.000000 0.000000 0.000000 0.000000 -0.014714 0.000000
# 6 0.000000 0.000000 0.000000 0.000000 0.000000 -0.007553
#
#
# Mechanical properties :
#
#
# Convention : Reuss Voigt Hill
#
# Bulk Modulus (GPa) = 22.60352 30.36140 26.48246
# Shear Modulus (GPa) = 114.62838 -42.10008 36.26415
#
# Velocity S-wave (km/s) = 7.13341 -4.32307 4.01227
# Velocity P-wave (km/s) = 8.82504 3.38240 5.76371
#
# Compressibility (1/GPa) = 0.04424090
#
# Stress axis : x y z
#
# Youngs Moduli (GPa) = 71.81192 71.81445 36.78429
#
# Poissons Ratio (x) = 0.39487 -0.00187
# Poissons Ratio (y) = 0.39486 -0.00185
# Poissons Ratio (z) = -0.00365 -0.00361
#
# Static dielectric constant tensor:
#      x y z
#    x 1.911400 0.000000 0.000000 
#    y 0.000000 1.911400 0.000000 
#    z 0.000000 0.000000 1.893490 
# 
# From -- ./inp_files/3067.got.cif
#   From: 2010.05.17/outbox.cif.g08.bks.cpg/sg126_2_cif.got.tgz:3067.got - 2010.05.20 11:58:20.
