data_PCOD9563768
_publ_section_title
;
Structure prediction by ZEFSAII (Michael W. Deem and Ramdas Pophale) SiO2 
 PCOD9563768
Probable space group: P 4/M B M
;
_chemical_formula_sum "Si O2"
_cell_formula_units_Z 72
_cell_length_a 19.271235
_cell_length_b 19.271235
_cell_length_c 11.471186
_cell_angle_alpha 90.000000
_cell_angle_beta 90.000000
_cell_angle_gamma 90.000000
_cell_volume 4260.174774
_symmetry_space_group_name_H-M "P 4/M B M"
_symmetry_group_IT_number 127
_symmetry_cell_setting 'tetragonal'
loop_
_space_group_symop_operation_xyz
x,y,z
-y,x,z
-x,-y,z
y,-x,z
1/2+x,1/2-y,-z
1/2-x,1/2+y,-z
1/2+y,1/2+x,-z
1/2-y,1/2-x,-z
-x,-y,-z
y,-x,-z
x,y,-z
-y,x,-z
1/2-x,1/2+y,z
1/2+x,1/2-y,z
1/2-y,1/2-x,z
1/2+y,1/2+x,z
loop_
_atom_site_type_symbol
_atom_site_label
_atom_site_fract_x
_atom_site_fract_y
_atom_site_fract_z
Si Si1 0.811071 0.194591 0.000000
Si Si2 0.735859 0.490094 0.801737
Si Si3 0.617876 0.496054 0.000000
Si Si4 0.259379 0.355528 0.241915
Si Si5 0.187405 0.571691 0.000000
Si Si6 0.746704 0.358518 0.363137
O O1 0.800504 0.152856 0.881394
O O2 0.747813 0.247813 0.000000
O O3 0.877284 0.244752 0.000000
O O4 0.667934 0.493407 0.886199
O O5 0.746624 0.563210 0.738899
O O6 0.800918 0.475067 0.887026
O O7 0.733733 0.426610 0.712355
O O8 0.569526 0.564961 0.000000
O O9 0.187397 0.312604 0.232940
O O10 0.305652 0.315946 0.336702
O O11 0.120265 0.620265 0.000000
O O12 0.752357 0.372724 0.500000
O O13 0.815823 0.315823 0.323894
#
# Coordination Sequence:
#
# PCOD9563768 Si02
#       6
#     8  16   8  16   8  16
#     4   9  15  28  50  74 102 130 160 203 247 295
#     4  11  20  30  54  77 103 133 173 212 258 304
#     4  10  21  33  46  73 110 142 171 203 246 304
#     4  10  20  34  53  80 108 134 167 215 266 305
#     4  10  18  29  51  77 101 132 171 209 246 296
#     4  10  21  37  55  74  99 133 176 221 260 306
#
# _framework density 16.900715000000002
#
# number of rings (size 3 to 8) (size 9 to 14) (size 15 to 20)
#    0.000    1.889    2.222    3.333    3.111    0.889 
#    0.000    0.000    0.000    3.333    0.000    6.222 
#    0.000    0.000    0.000    0.000    0.000    0.000 
#
# Total GULP energy -401563.232230 kJ/mol
# GULP energy per Si atom -5577.267114 kJ/mol
# Density = 1.686225 g / cm^3
# Si number density = 16.900715 Si / 1000 Ang^3
#
#
#
# Elastic Constant Matrix: (Units=GPa)
#
#
# Indices 1 2 3 4 5 6 
#
# 1 105.8589 43.8093 32.0551 0.0000 0.0000 0.0000
# 2 43.8093 105.8589 32.0551 0.0000 0.0000 0.0000
# 3 32.0551 32.0551 54.6999 0.0000 0.0000 0.0000
# 4 0.0000 0.0000 0.0000 7.7857 0.0000 0.0000
# 5 0.0000 0.0000 0.0000 0.0000 7.7857 0.0000
# 6 0.0000 0.0000 0.0000 0.0000 0.0000 21.5036
#
#
#
# Elastic Compliance Matrix: (Units=1/GPa)
#
#
# Indices 1 2 3 4 5 6 
#
# 1 0.012518 -0.003598 -0.005228 0.000000 0.000000 0.000000
# 2 -0.003598 0.012518 -0.005228 0.000000 0.000000 0.000000
# 3 -0.005228 -0.005228 0.024409 0.000000 0.000000 0.000000
# 4 0.000000 0.000000 0.000000 0.128440 0.000000 0.000000
# 5 0.000000 0.000000 0.000000 0.000000 0.128440 0.000000
# 6 0.000000 0.000000 0.000000 0.000000 0.000000 0.046504
#
#
# Mechanical properties :
#
#
# Convention : Reuss Voigt Hill
#
# Bulk Modulus (GPa) = 46.86196 53.58407 50.22302
# Shear Modulus (GPa) = 12.88497 17.98156 15.43326
#
# Velocity S-wave (km/s) = 2.76414 3.26537 3.02515
# Velocity P-wave (km/s) = 6.16241 6.78166 6.47943
#
# Compressibility (1/GPa) = 0.02133927
#
# Stress axis : x y z
#
# Youngs Moduli (GPa) = 79.88226 79.88226 40.96917
#
# Poissons Ratio (x) = 0.28739 0.21417
# Poissons Ratio (y) = 0.28739 0.21417
# Poissons Ratio (z) = 0.41760 0.41760
#
# Static dielectric constant tensor:
#      x y z
#    x 1.580560 0.000000 0.000000 
#    y 0.000000 1.580560 0.000000 
#    z 0.000000 0.000000 1.575420 
# 
# From -- ./inp_files/3389.got.cif
#   From: 2010.05.17/outbox.cif.g08.bks.cpg/sg127_2_cif.got.tgz:3389.got - 2010.05.20 12:03:00.
