data_PCOD9563391
_publ_section_title
;
Structure prediction by ZEFSAII (Michael W. Deem and Ramdas Pophale) SiO2 
 PCOD9563391
Probable space group: P 4/N N C
;
_chemical_formula_sum "Si O2"
_cell_formula_units_Z 64
_cell_length_a 24.695203
_cell_length_b 24.695203
_cell_length_c 5.558227
_cell_angle_alpha 90.000000
_cell_angle_beta 90.000000
_cell_angle_gamma 90.000000
_cell_volume 3389.701695
_symmetry_space_group_name_H-M "P 4/N N C"
_symmetry_group_IT_number 126
_space_group.IT_coordinate_system_code '2'
_symmetry_cell_setting 'tetragonal'
loop_
_space_group_symop_operation_xyz
x,y,z
1/2-y,x,z
1/2-x,1/2-y,z
y,1/2-x,z
x,1/2-y,1/2-z
1/2-x,y,1/2-z
y,x,1/2-z
1/2-y,1/2-x,1/2-z
-x,-y,-z
1/2+y,-x,-z
1/2+x,1/2+y,-z
-y,1/2+x,-z
-x,1/2+y,1/2+z
1/2+x,-y,1/2+z
-y,-x,1/2+z
1/2+y,1/2+x,1/2+z
loop_
_atom_site_type_symbol
_atom_site_label
_atom_site_fract_x
_atom_site_fract_y
_atom_site_fract_z
Si Si1 0.799769 0.005448 0.113688
Si Si2 0.049954 0.049954 0.250000
Si Si3 0.898133 0.438481 0.632472
Si Si4 0.649850 0.586016 0.434198
Si Si5 0.250000 0.419642 0.250000
O O1 0.750000 0.034334 0.250000
O O2 0.831486 0.969688 0.308350
O O3 0.775710 0.958600 0.947533
O O4 0.839369 0.040457 0.949885
O O5 0.094439 0.066298 0.446418
O O6 0.990596 0.061920 0.352700
O O7 0.915600 0.401166 0.404772
O O8 0.633182 0.633182 0.250000
O O9 0.697723 0.605887 0.614490
#
# Coordination Sequence:
#
# PCOD9563391 Si02
#       5
#    16   8  16  16   8
#     4  10  22  37  58  79 116 164 203 251 300 356
#     4  12  22  36  52  84 128 167 198 240 299 384
#     4  12  25  38  56  88 127 171 207 241 300 377
#     4  11  19  34  57  81 116 155 212 253 299 368
#     4  10  20  36  56  76 110 159 203 260 308 348
#
# _framework density 18.880718999999999
#
# number of rings (size 3 to 8) (size 9 to 14) (size 15 to 20)
#    0.000    1.000    5.000    2.250    3.500    0.000 
#    0.000    0.000    0.000    0.000    0.000    0.000 
#    0.000  587.000    0.000    0.000    0.000    0.000 
#
# Total GULP energy -356754.542847 kJ/mol
# GULP energy per Si atom -5574.289732 kJ/mol
# Density = 1.883775 g / cm^3
# Si number density = 18.880719 Si / 1000 Ang^3
#
#
#
# Elastic Constant Matrix: (Units=GPa)
#
#
# Indices 1 2 3 4 5 6 
#
# 1 189.9096 -151.0651 7.8235 0.0000 0.0000 0.0000
# 2 -151.0651 189.9096 7.8235 0.0000 0.0000 0.0000
# 3 7.8235 7.8235 75.5252 0.0000 0.0000 0.0000
# 4 0.0000 0.0000 0.0000 54.3726 0.0000 0.0000
# 5 0.0000 0.0000 0.0000 0.0000 54.3726 0.0000
# 6 0.0000 0.0000 0.0000 0.0000 0.0000 13.8549
#
#
#
# Elastic Compliance Matrix: (Units=1/GPa)
#
#
# Indices 1 2 3 4 5 6 
#
# 1 0.014899 0.011966 -0.002783 0.000000 0.000000 0.000000
# 2 0.011966 0.014899 -0.002783 0.000000 0.000000 0.000000
# 3 -0.002783 -0.002783 0.013817 0.000000 0.000000 0.000000
# 4 0.000000 0.000000 0.000000 0.018392 0.000000 0.000000
# 5 0.000000 0.000000 0.000000 0.000000 0.018392 0.000000
# 6 0.000000 0.000000 0.000000 0.000000 0.000000 0.072177
#
#
# Mechanical properties :
#
#
# Convention : Reuss Voigt Hill
#
# Bulk Modulus (GPa) = 17.72577 20.50090 19.11333
# Shear Modulus (GPa) = 31.53001 63.90416 47.71708
#
# Velocity S-wave (km/s) = 4.09095 5.82406 5.03267
# Velocity P-wave (km/s) = 5.63233 7.49053 6.62688
#
# Compressibility (1/GPa) = 0.05641504
#
# Stress axis : x y z
#
# Youngs Moduli (GPa) = 67.11992 67.11992 72.37376
#
# Poissons Ratio (x) = -0.80315 0.20141
# Poissons Ratio (y) = -0.80315 0.20141
# Poissons Ratio (z) = 0.18678 0.18678
#
# Static dielectric constant tensor:
#      x y z
#    x 1.678070 0.000000 0.000000 
#    y 0.000000 1.678070 0.000000 
#    z 0.000000 0.000000 1.694640 
# 
# From -- ./inp_files/463.got.cif
#   From: 2010.05.17/outbox.cif.g08.bks.cpg/sg126_1_cif.got.tgz:463.got - 2010.05.20 11:58:20.
