data_PCOD9563819
_publ_section_title
;
Structure prediction by ZEFSAII (Michael W. Deem and Ramdas Pophale) SiO2 
 PCOD9563819
Probable space group: P 4/M B M
;
_chemical_formula_sum "Si O2"
_cell_formula_units_Z 72
_cell_length_a 19.996315
_cell_length_b 19.996315
_cell_length_c 7.243599
_cell_angle_alpha 90.000000
_cell_angle_beta 90.000000
_cell_angle_gamma 90.000000
_cell_volume 2896.371992
_symmetry_space_group_name_H-M "P 4/M B M"
_symmetry_group_IT_number 127
_symmetry_cell_setting 'tetragonal'
loop_
_space_group_symop_operation_xyz
x,y,z
-y,x,z
-x,-y,z
y,-x,z
1/2+x,1/2-y,-z
1/2-x,1/2+y,-z
1/2+y,1/2+x,-z
1/2-y,1/2-x,-z
-x,-y,-z
y,-x,-z
x,y,-z
-y,x,-z
1/2-x,1/2+y,z
1/2+x,1/2-y,z
1/2-y,1/2-x,z
1/2+y,1/2+x,z
loop_
_atom_site_type_symbol
_atom_site_label
_atom_site_fract_x
_atom_site_fract_y
_atom_site_fract_z
Si Si1 0.963718 0.898703 0.777426
Si Si2 0.554185 0.945816 0.275506
Si Si3 0.728883 0.616834 0.705226
Si Si4 0.990903 0.298502 0.274309
Si Si5 0.744128 0.352230 0.276312
O O1 0.934768 0.832564 0.694043
O O2 0.038615 0.917628 0.724462
O O3 0.961829 0.893304 0.000000
O O4 0.555379 0.944622 0.500000
O O5 0.628043 0.967397 0.219011
O O6 0.500000 0.000000 0.217913
O O7 0.752078 0.636362 0.500000
O O8 0.783054 0.566491 0.790255
O O9 0.694046 0.682476 0.789920
O O10 0.993406 0.295838 0.500000
O O11 0.929557 0.249507 0.216003
O O12 0.738215 0.354179 0.500000
O O13 0.812185 0.312185 0.233197
#
# Coordination Sequence:
#
# PCOD9563819 Si02
#       5
#    16   8  16  16  16
#     4   9  18  32  47  64  92 130 163 190 233 294
#     4   9  16  26  42  62  89 129 167 200 238 290
#     4  10  19  28  45  73  96 118 159 209 243 281
#     4   9  16  27  41  61  92 125 156 192 243 294
#     4   9  16  27  42  60  90 127 153 184 246 306
#
# _framework density 24.858685000000001
#
# number of rings (size 3 to 8) (size 9 to 14) (size 15 to 20)
#    0.000    2.778    1.111    2.000    0.000    3.556 
#    0.000    5.556    0.000    0.667    0.000    0.778 
#    0.000    0.889    0.000    0.000    0.000    0.000 
#
# Total GULP energy -402209.280731 kJ/mol
# GULP energy per Si atom -5586.240010 kJ/mol
# Density = 2.480211 g / cm^3
# Si number density = 24.858685 Si / 1000 Ang^3
#
#
#
# Elastic Constant Matrix: (Units=GPa)
#
#
# Indices 1 2 3 4 5 6 
#
# 1 100.4576 58.2777 1.8187 0.0000 0.0000 0.0000
# 2 58.2777 100.4578 1.8187 0.0000 0.0000 0.0000
# 3 1.8187 1.8187 113.6842 0.0000 0.0000 0.0000
# 4 0.0000 0.0000 0.0000 13.7533 0.0000 0.0000
# 5 0.0000 0.0000 0.0000 0.0000 13.7531 0.0000
# 6 0.0000 0.0000 0.0000 0.0000 0.0000 28.8445
#
#
#
# Elastic Compliance Matrix: (Units=1/GPa)
#
#
# Indices 1 2 3 4 5 6 
#
# 1 0.015005 -0.008703 -0.000101 0.000000 0.000000 0.000000
# 2 -0.008703 0.015005 -0.000101 0.000000 0.000000 0.000000
# 3 -0.000101 -0.000101 0.008800 0.000000 0.000000 0.000000
# 4 0.000000 0.000000 0.000000 0.072710 0.000000 0.000000
# 5 0.000000 0.000000 0.000000 0.000000 0.072711 0.000000
# 6 0.000000 0.000000 0.000000 0.000000 0.000000 0.034669
#
#
# Mechanical properties :
#
#
# Convention : Reuss Voigt Hill
#
# Bulk Modulus (GPa) = 47.61804 48.71443 48.16624
# Shear Modulus (GPa) = 20.51635 28.11582 24.31609
#
# Velocity S-wave (km/s) = 2.87595 3.36672 3.13097
# Velocity P-wave (km/s) = 5.49775 5.89510 5.69989
#
# Compressibility (1/GPa) = 0.02100044
#
# Stress axis : x y z
#
# Youngs Moduli (GPa) = 66.64436 66.64447 113.64249
#
# Poissons Ratio (x) = 0.58000 0.01146
# Poissons Ratio (y) = 0.58000 0.01146
# Poissons Ratio (z) = 0.00672 0.00672
#
# Static dielectric constant tensor:
#      x y z
#    x 1.949630 0.000000 0.000000 
#    y 0.000000 1.949630 0.000000 
#    z 0.000000 0.000000 1.958410 
# 
# From -- ./inp_files/1580.got.cif
#   From: 2010.05.17/outbox.cif.g08.bks.cpg/sg127_1_cif.got.tgz:1580.got - 2010.05.20 12:03:00.
