data_PCOD9563446
_publ_section_title
;
Structure prediction by ZEFSAII (Michael W. Deem and Ramdas Pophale) SiO2 
 PCOD9563446
Probable space group: P 4/N N C
;
_chemical_formula_sum "Si O2"
_cell_formula_units_Z 80
_cell_length_a 16.565987
_cell_length_b 16.565987
_cell_length_c 14.571452
_cell_angle_alpha 90.000000
_cell_angle_beta 90.000000
_cell_angle_gamma 90.000000
_cell_volume 3998.871627
_symmetry_space_group_name_H-M "P 4/N N C"
_symmetry_group_IT_number 126
_space_group.IT_coordinate_system_code '2'
_symmetry_cell_setting 'tetragonal'
loop_
_space_group_symop_operation_xyz
x,y,z
1/2-y,x,z
1/2-x,1/2-y,z
y,1/2-x,z
x,1/2-y,1/2-z
1/2-x,y,1/2-z
y,x,1/2-z
1/2-y,1/2-x,1/2-z
-x,-y,-z
1/2+y,-x,-z
1/2+x,1/2+y,-z
-y,1/2+x,-z
-x,1/2+y,1/2+z
1/2+x,-y,1/2+z
-y,-x,1/2+z
1/2+y,1/2+x,1/2+z
loop_
_atom_site_type_symbol
_atom_site_label
_atom_site_fract_x
_atom_site_fract_y
_atom_site_fract_z
Si Si1 0.494314 0.529001 0.656881
Si Si2 0.884081 0.756420 0.856658
Si Si3 0.284995 0.991928 0.986983
Si Si4 0.107992 0.944658 0.978075
Si Si5 0.832295 0.550978 0.198973
O O1 0.544437 0.544437 0.750000
O O2 0.518162 0.446598 0.603132
O O3 0.493241 0.591492 0.573344
O O4 0.403711 0.515439 0.695945
O O5 0.823335 0.830971 0.874622
O O6 0.906181 0.750000 0.750000
O O7 0.960282 0.769609 0.920131
O O8 0.356272 0.927954 0.002397
O O9 0.201863 0.950081 0.956612
O O10 0.310713 0.056428 0.908676
O O11 0.750000 0.528498 0.250000
O O12 0.872088 0.627913 0.250000
#
# Coordination Sequence:
#
# PCOD9563446 Si02
#       5
#    16  16  16  16  16
#     4   9  19  38  61  85 118 154 205 260 305 373
#     4   9  21  39  60  90 124 160 197 250 320 380
#     4  11  23  39  62  86 126 161 210 262 302 383
#     4  10  23  38  58  90 116 167 206 251 320 358
#     4  10  21  36  58  87 120 157 198 251 316 377
#
# _framework density 20.005642999999999
#
# number of rings (size 3 to 8) (size 9 to 14) (size 15 to 20)
#    0.000    2.200    0.000    3.000   11.200    2.200 
#    0.000    0.000    0.000    0.000    0.000    8.400 
#    0.000    0.000    0.000    0.000    0.000    0.000 
#
# Total GULP energy -446328.092693 kJ/mol
# GULP energy per Si atom -5579.101159 kJ/mol
# Density = 1.996011 g / cm^3
# Si number density = 20.005643 Si / 1000 Ang^3
#
#
#
# Elastic Constant Matrix: (Units=GPa)
#
#
# Indices 1 2 3 4 5 6 
#
# 1 85.8731 29.5967 36.8483 0.0000 0.0000 0.0000
# 2 29.5967 85.8725 36.8481 0.0000 0.0000 0.0000
# 3 36.8483 36.8481 95.9998 0.0000 0.0000 0.0000
# 4 0.0000 0.0000 0.0000 19.7252 0.0000 0.0000
# 5 0.0000 0.0000 0.0000 0.0000 19.7257 0.0000
# 6 0.0000 0.0000 0.0000 0.0000 0.0000 15.5266
#
#
#
# Elastic Compliance Matrix: (Units=1/GPa)
#
#
# Indices 1 2 3 4 5 6 
#
# 1 0.014620 -0.003150 -0.004403 0.000000 0.000000 0.000000
# 2 -0.003150 0.014620 -0.004403 0.000000 0.000000 0.000000
# 3 -0.004403 -0.004403 0.013797 0.000000 0.000000 0.000000
# 4 0.000000 0.000000 0.000000 0.050696 0.000000 0.000000
# 5 0.000000 0.000000 0.000000 0.000000 0.050695 0.000000
# 6 0.000000 0.000000 0.000000 0.000000 0.000000 0.064406
#
#
# Mechanical properties :
#
#
# Convention : Reuss Voigt Hill
#
# Bulk Modulus (GPa) = 52.28424 52.70350 52.49387
# Shear Modulus (GPa) = 20.91006 21.95898 21.43452
#
# Velocity S-wave (km/s) = 3.23647 3.31666 3.27681
# Velocity P-wave (km/s) = 6.33702 6.40847 6.37285
#
# Compressibility (1/GPa) = 0.01912622
#
# Stress axis : x y z
#
# Youngs Moduli (GPa) = 68.40023 68.39976 72.48207
#
# Poissons Ratio (x) = 0.21543 0.31912
# Poissons Ratio (y) = 0.21544 0.31912
# Poissons Ratio (z) = 0.30114 0.30114
#
# Static dielectric constant tensor:
#      x y z
#    x 1.712870 0.000000 0.000000 
#    y 0.000000 1.712870 0.000000 
#    z 0.000000 0.000000 1.747510 
# 
# From -- ./inp_files/3644.got.cif
#   From: 2010.05.17/outbox.cif.g08.bks.cpg/sg126_2_cif.got.tgz:3644.got - 2010.05.20 11:58:20.
