data_PCOD9563812
_publ_section_title
;
Structure prediction by ZEFSAII (Michael W. Deem and Ramdas Pophale) SiO2 
 PCOD9563812
Probable space group: P 4/M B M
;
_chemical_formula_sum "Si O2"
_cell_formula_units_Z 92
_cell_length_a 15.599547
_cell_length_b 15.599547
_cell_length_c 21.804804
_cell_angle_alpha 90.000000
_cell_angle_beta 90.000000
_cell_angle_gamma 90.000000
_cell_volume 5306.108926
_symmetry_space_group_name_H-M "P 4/M B M"
_symmetry_group_IT_number 127
_symmetry_cell_setting 'tetragonal'
loop_
_space_group_symop_operation_xyz
x,y,z
-y,x,z
-x,-y,z
y,-x,z
1/2+x,1/2-y,-z
1/2-x,1/2+y,-z
1/2+y,1/2+x,-z
1/2-y,1/2-x,-z
-x,-y,-z
y,-x,-z
x,y,-z
-y,x,-z
1/2-x,1/2+y,z
1/2+x,1/2-y,z
1/2-y,1/2-x,z
1/2+y,1/2+x,z
loop_
_atom_site_type_symbol
_atom_site_label
_atom_site_fract_x
_atom_site_fract_y
_atom_site_fract_z
Si Si1 0.000000 0.000000 0.626639
Si Si2 0.330050 0.687107 0.122373
Si Si3 0.856988 0.499446 0.427864
Si Si4 0.431257 0.068744 0.925491
Si Si5 0.003976 0.198547 0.336239
Si Si6 0.257725 0.513833 0.926636
Si Si7 0.816730 0.824673 0.731086
O O1 0.105874 0.998551 0.631418
O O2 0.256988 0.756988 0.103287
O O3 0.424369 0.718499 0.104214
O O4 0.315331 0.595162 0.090919
O O5 0.323002 0.675668 0.195360
O O6 0.833946 0.498808 0.500000
O O7 0.915970 0.415970 0.416062
O O8 0.774860 0.502037 0.385057
O O9 0.918746 0.581255 0.417433
O O10 0.458222 0.162850 0.905925
O O11 0.500000 0.000000 0.904202
O O12 0.431097 0.068903 0.000000
O O13 0.919807 0.203890 0.293354
O O14 0.091405 0.201812 0.296923
O O15 0.258355 0.502052 0.000000
O O16 0.743184 0.756817 0.712908
#
# Coordination Sequence:
#
# PCOD9563812 Si02
#       7
#     4  16  16   8  16  16  16
#     4   8  20  32  49  72 100 144 189 224 260 306
#     4  11  23  39  57  83 117 150 188 241 293 346
#     4   9  18  33  56  86 116 145 179 228 286 331
#     4   9  18  34  56  82 106 139 187 231 278 342
#     4  10  18  36  56  78 109 147 191 229 269 326
#     4  11  22  37  59  82 110 148 188 234 293 353
#     4  10  21  35  56  81 108 148 189 229 276 331
#
# _framework density 17.338505000000001
#
# number of rings (size 3 to 8) (size 9 to 14) (size 15 to 20)
#    0.000    2.000    0.870    3.652    0.000    2.087 
#    0.000    6.522    0.000    9.391    0.000    0.000 
#    0.000    0.000    0.000    0.000    0.000    0.000 
#
# Total GULP energy -512315.496536 kJ/mol
# GULP energy per Si atom -5568.646701 kJ/mol
# Density = 1.729904 g / cm^3
# Si number density = 17.338505 Si / 1000 Ang^3
#
#
#
# Elastic Constant Matrix: (Units=GPa)
#
#
# Indices 1 2 3 4 5 6 
#
# 1 2606.0379-2469.1141 23.4046 0.0000 0.0000 0.0000
# 2 -2469.1141 2605.9299 23.3679 0.0000 0.0000 0.0000
# 3 23.4046 23.3679 45.4127 0.0000 0.0000 0.0000
# 4 0.0000 0.0000 0.0000 28.2219 0.0000 0.0000
# 5 0.0000 0.0000 0.0000 0.0000 28.2219 0.0000
# 6 0.0000 0.0000 0.0000 0.0000 0.0000 30.9724
#
#
#
# Elastic Compliance Matrix: (Units=1/GPa)
#
#
# Indices 1 2 3 4 5 6 
#
# 1 0.004532 0.004335 -0.004566 0.000000 0.000000 0.000000
# 2 0.004335 0.004532 -0.004566 0.000000 0.000000 0.000000
# 3 -0.004566 -0.004566 0.026723 0.000000 0.000000 0.000000
# 4 0.000000 0.000000 0.000000 0.035433 0.000000 0.000000
# 5 0.000000 0.000000 0.000000 0.000000 0.035433 0.000000
# 6 0.000000 0.000000 0.000000 0.000000 0.000000 0.032287
#
#
# Mechanical properties :
#
#
# Convention : Reuss Voigt Hill
#
# Bulk Modulus (GPa) = 38.17954 45.85526 42.01740
# Shear Modulus (GPa) = 31.79334 529.46472 280.62903
#
# Velocity S-wave (km/s) = 4.28680 17.49378 12.73595
# Velocity P-wave (km/s) = 6.82423 20.84580 15.50996
#
# Compressibility (1/GPa) = 0.02619204
#
# Stress axis : x y z
#
# Youngs Moduli (GPa) = 220.66569 220.65972 37.42087
#
# Poissons Ratio (x) = -0.95651 0.17087
# Poissons Ratio (y) = -0.95653 0.17086
# Poissons Ratio (z) = 1.00758 1.00753
#
# Static dielectric constant tensor:
#      x y z
#    x 1.580220 0.000000 0.000000 
#    y 0.000000 1.580220 0.000000 
#    z 0.000000 0.000000 1.565200 
# 
# From -- ./inp_files/5822.got.cif
#   From: 2010.05.17/outbox.cif.g08.bks.cpg/sg127_3_cif.got.tgz:5822.got - 2010.05.20 12:03:00.
