data_PCOD9563659
_publ_section_title
;
Structure prediction by ZEFSAII (Michael W. Deem and Ramdas Pophale) SiO2 
 PCOD9563659
Probable space group: P 4/N N C
;
_chemical_formula_sum "Si O2"
_cell_formula_units_Z 56
_cell_length_a 11.144609
_cell_length_b 11.144609
_cell_length_c 22.012795
_cell_angle_alpha 90.000000
_cell_angle_beta 90.000000
_cell_angle_gamma 90.000000
_cell_volume 2734.039983
_symmetry_space_group_name_H-M "P 4/N N C"
_symmetry_group_IT_number 126
_space_group.IT_coordinate_system_code '2'
_symmetry_cell_setting 'tetragonal'
loop_
_space_group_symop_operation_xyz
x,y,z
1/2-y,x,z
1/2-x,1/2-y,z
y,1/2-x,z
x,1/2-y,1/2-z
1/2-x,y,1/2-z
y,x,1/2-z
1/2-y,1/2-x,1/2-z
-x,-y,-z
1/2+y,-x,-z
1/2+x,1/2+y,-z
-y,1/2+x,-z
-x,1/2+y,1/2+z
1/2+x,-y,1/2+z
-y,-x,1/2+z
1/2+y,1/2+x,1/2+z
loop_
_atom_site_type_symbol
_atom_site_label
_atom_site_fract_x
_atom_site_fract_y
_atom_site_fract_z
Si Si1 0.609127 0.890875 0.314477
Si Si2 0.507110 0.992891 0.927824
Si Si3 0.956125 0.750000 0.750000
Si Si4 0.101850 0.750000 0.875552
O O1 0.585880 0.750001 0.311614
O O2 0.557865 0.942136 0.250000
O O3 0.570563 0.929439 0.380816
O O4 0.637358 0.041628 0.909071
O O5 0.458372 0.862644 0.909070
O O6 0.500000 0.000000 0.000000
O O7 0.864791 0.864791 0.750000
O O8 0.044314 0.750001 0.808104
O O9 0.250000 0.750000 0.875793
#
# Coordination Sequence:
#
# PCOD9563659 Si02
#       4
#    16  16   8  16
#     4   9  20  42  70  99 134 178 237 305 359 418
#     4  12  29  46  70 106 146 197 249 308 375 453
#     4  11  23  50  78 116 157 195 252 312 380 467
#     4  12  28  49  78 105 152 202 253 314 377 451
#
# _framework density 20.482509
#
# number of rings (size 3 to 8) (size 9 to 14) (size 15 to 20)
#    0.000    1.000    2.857    3.000   12.000    0.571 
#    0.000    0.000    0.000    0.000    0.000    0.000 
#    0.000    0.000    0.000    0.000    0.000    0.000 
#
# Total GULP energy -311889.630696 kJ/mol
# GULP energy per Si atom -5569.457691 kJ/mol
# Density = 2.043589 g / cm^3
# Si number density = 20.482509 Si / 1000 Ang^3
#
#
#
# Elastic Constant Matrix: (Units=GPa)
#
#
# Indices 1 2 3 4 5 6 
#
# 1 175.6915 63.2055 94.3438 0.0000 0.0000 0.0000
# 2 63.2055 175.6909 94.3434 0.0000 0.0000 0.0000
# 3 94.3438 94.3434 289.0382 0.0000 0.0000 0.0000
# 4 0.0000 0.0000 0.0000 -13.0734 0.0000 0.0000
# 5 0.0000 0.0000 0.0000 0.0000 -13.0736 0.0000
# 6 0.0000 0.0000 0.0000 0.0000 0.0000 32.8377
#
#
#
# Elastic Compliance Matrix: (Units=1/GPa)
#
#
# Indices 1 2 3 4 5 6 
#
# 1 0.007265 -0.001625 -0.001841 0.000000 0.000000 0.000000
# 2 -0.001625 0.007265 -0.001841 0.000000 0.000000 0.000000
# 3 -0.001841 -0.001841 0.004662 0.000000 0.000000 0.000000
# 4 0.000000 0.000000 0.000000 -0.076491 0.000000 0.000000
# 5 0.000000 0.000000 0.000000 0.000000 -0.076490 0.000000
# 6 0.000000 0.000000 0.000000 0.000000 0.000000 0.030453
#
#
# Mechanical properties :
#
#
# Convention : Reuss Voigt Hill
#
# Bulk Modulus (GPa) = 116.58096 127.13398 121.85747
# Shear Modulus (GPa) = -55.63981 27.23999 -14.19991
#
# Velocity S-wave (km/s) = -5.21762 3.65076 -2.63586
# Velocity P-wave (km/s) = 4.55443 8.94287 7.09640
#
# Compressibility (1/GPa) = 0.00857773
#
# Stress axis : x y z
#
# Youngs Moduli (GPa) = 137.64724 137.64694 214.52304
#
# Poissons Ratio (x) = 0.22368 0.39491
# Poissons Ratio (y) = 0.22368 0.39491
# Poissons Ratio (z) = 0.25339 0.25339
#
# Static dielectric constant tensor:
#      x y z
#    x 1.547110 0.000000 0.000000 
#    y 0.000000 1.547110 0.000000 
#    z 0.000000 0.000000 1.632360 
# 
# From -- ./inp_files/5622.got.cif
#   From: 2010.05.17/outbox.cif.g08.bks.cpg/sg126_3_cif.got.tgz:5622.got - 2010.05.20 11:58:20.
