data_PCOD9563449
_publ_section_title
;
Structure prediction by ZEFSAII (Michael W. Deem and Ramdas Pophale) SiO2 
 PCOD9563449
Probable space group: P 4/N N C
;
_chemical_formula_sum "Si O2"
_cell_formula_units_Z 80
_cell_length_a 10.816590
_cell_length_b 10.816590
_cell_length_c 38.345169
_cell_angle_alpha 90.000000
_cell_angle_beta 90.000000
_cell_angle_gamma 90.000000
_cell_volume 4486.331827
_symmetry_space_group_name_H-M "P 4/N N C"
_symmetry_group_IT_number 126
_space_group.IT_coordinate_system_code '2'
_symmetry_cell_setting 'tetragonal'
loop_
_space_group_symop_operation_xyz
x,y,z
1/2-y,x,z
1/2-x,1/2-y,z
y,1/2-x,z
x,1/2-y,1/2-z
1/2-x,y,1/2-z
y,x,1/2-z
1/2-y,1/2-x,1/2-z
-x,-y,-z
1/2+y,-x,-z
1/2+x,1/2+y,-z
-y,1/2+x,-z
-x,1/2+y,1/2+z
1/2+x,-y,1/2+z
-y,-x,1/2+z
1/2+y,1/2+x,1/2+z
loop_
_atom_site_type_symbol
_atom_site_label
_atom_site_fract_x
_atom_site_fract_y
_atom_site_fract_z
Si Si1 0.519153 0.019660 0.040920
Si Si2 0.809681 0.384099 0.143574
Si Si3 0.935938 0.664672 0.895214
Si Si4 0.727585 0.099849 0.430543
Si Si5 0.762479 0.958113 0.288218
O O1 0.446431 0.904303 0.057218
O O2 0.471188 0.136181 0.064250
O O3 0.665639 0.030255 0.047958
O O4 0.500000 0.000000 0.000000
O O5 0.750000 0.250000 0.147946
O O6 0.741654 0.438983 0.109705
O O7 0.783998 0.455716 0.178886
O O8 0.951499 0.375152 0.129905
O O9 0.908306 0.808717 0.889039
O O10 0.750000 0.250000 0.432989
O O11 0.639216 0.875150 0.289842
O O12 0.750000 0.020290 0.250000
#
# Coordination Sequence:
#
# PCOD9563449 Si02
#       5
#    16  16  16  16  16
#     4  11  24  37  61  83 117 161 203 253 317 371
#     4  10  21  36  63  88 119 150 203 250 299 364
#     4  10  22  40  60  86 120 160 207 250 307 372
#     4  10  24  41  58  86 120 156 205 258 313 364
#     4   9  20  37  59  89 123 158 192 239 305 364
#
# _framework density 17.831942000000002
#
# number of rings (size 3 to 8) (size 9 to 14) (size 15 to 20)
#    0.000    2.000    0.000    4.200   14.000    0.800 
#    0.000    0.000    0.000    0.000    0.000    0.000 
#    0.000    0.000    0.000    0.000    0.000    0.000 
#
# Total GULP energy -445701.484682 kJ/mol
# GULP energy per Si atom -5571.268559 kJ/mol
# Density = 1.779136 g / cm^3
# Si number density = 17.831942 Si / 1000 Ang^3
#
#
#
# Elastic Constant Matrix: (Units=GPa)
#
#
# Indices 1 2 3 4 5 6 
#
# 1 91.6775 35.9848 68.5486 0.0000 0.0000 0.0000
# 2 35.9848 91.6775 68.5486 0.0000 0.0000 0.0000
# 3 68.5486 68.5486 200.7258 0.0000 0.0000 0.0000
# 4 0.0000 0.0000 0.0000 -1.2651 0.0000 0.0000
# 5 0.0000 0.0000 0.0000 0.0000 -1.2651 0.0000
# 6 0.0000 0.0000 0.0000 0.0000 0.0000 25.6677
#
#
#
# Elastic Compliance Matrix: (Units=1/GPa)
#
#
# Indices 1 2 3 4 5 6 
#
# 1 0.015163 -0.002793 -0.004224 0.000000 0.000000 0.000000
# 2 -0.002793 0.015163 -0.004224 0.000000 0.000000 0.000000
# 3 -0.004224 -0.004224 0.007867 0.000000 0.000000 0.000000
# 4 0.000000 0.000000 0.000000 -0.790465 0.000000 0.000000
# 5 0.000000 0.000000 0.000000 0.000000 -0.790465 0.000000
# 6 0.000000 0.000000 0.000000 0.000000 0.000000 0.038959
#
#
# Mechanical properties :
#
#
# Convention : Reuss Voigt Hill
#
# Bulk Modulus (GPa) = 63.65655 81.13833 72.39744
# Shear Modulus (GPa) = -3.38740 18.69409 7.65335
#
# Velocity S-wave (km/s) = -1.37976 3.24133 2.07395
# Velocity P-wave (km/s) = 5.76517 7.72067 6.81344
#
# Compressibility (1/GPa) = 0.01570930
#
# Stress axis : x y z
#
# Youngs Moduli (GPa) = 65.95149 65.95149 127.11104
#
# Poissons Ratio (x) = 0.18420 0.53695
# Poissons Ratio (y) = 0.18420 0.53695
# Poissons Ratio (z) = 0.27860 0.27860
#
# Static dielectric constant tensor:
#      x y z
#    x 1.629930 0.000000 0.000000 
#    y 0.000000 1.629930 0.000000 
#    z 0.000000 0.000000 1.680950 
# 
# From -- ./inp_files/6419.got.cif
#   From: 2010.05.17/outbox.cif.g08.bks.cpg/sg126_4_cif.got.tgz:6419.got - 2010.05.20 11:58:20.
