data_PCOD9563628
_publ_section_title
;
Structure prediction by ZEFSAII (Michael W. Deem and Ramdas Pophale) SiO2 
 PCOD9563628
Probable space group: P 4/N N C
;
_chemical_formula_sum "Si O2"
_cell_formula_units_Z 88
_cell_length_a 16.980529
_cell_length_b 16.980529
_cell_length_c 15.148723
_cell_angle_alpha 90.000000
_cell_angle_beta 90.000000
_cell_angle_gamma 90.000000
_cell_volume 4367.958023
_symmetry_space_group_name_H-M "P 4/N N C"
_symmetry_group_IT_number 126
_space_group.IT_coordinate_system_code '2'
_symmetry_cell_setting 'tetragonal'
loop_
_space_group_symop_operation_xyz
x,y,z
1/2-y,x,z
1/2-x,1/2-y,z
y,1/2-x,z
x,1/2-y,1/2-z
1/2-x,y,1/2-z
y,x,1/2-z
1/2-y,1/2-x,1/2-z
-x,-y,-z
1/2+y,-x,-z
1/2+x,1/2+y,-z
-y,1/2+x,-z
-x,1/2+y,1/2+z
1/2+x,-y,1/2+z
-y,-x,1/2+z
1/2+y,1/2+x,1/2+z
loop_
_atom_site_type_symbol
_atom_site_label
_atom_site_fract_x
_atom_site_fract_y
_atom_site_fract_z
Si Si1 0.255583 0.383362 0.344841
Si Si2 0.048552 0.179330 0.989055
Si Si3 0.386840 0.619609 0.495252
Si Si4 0.057503 0.157242 0.580561
Si Si5 0.249137 0.844860 0.144958
Si Si6 0.345591 0.345591 0.750000
O O1 0.178978 0.327650 0.348706
O O2 0.250000 0.423437 0.250000
O O3 0.272052 0.446569 0.419881
O O4 0.054789 0.248460 0.918157
O O5 0.123364 0.122753 0.985845
O O6 0.970068 0.129847 0.977364
O O7 0.472894 0.629694 0.452961
O O8 0.325344 0.635203 0.415293
O O9 0.372468 0.676600 0.580357
O O10 0.096384 0.128795 0.671094
O O11 0.250000 0.750000 0.148042
O O12 0.250000 0.870456 0.250000
O O13 0.250000 0.354457 0.750000
#
# Coordination Sequence:
#
# PCOD9563628 Si02
#       6
#    16  16  16  16  16   8
#     4   9  18  34  59  93 132 178 230 280 341 433
#     4  12  23  40  70  99 140 186 239 292 366 437
#     4  12  24  47  67 105 148 181 245 316 370 444
#     4  12  25  43  70 101 140 192 234 306 366 437
#     4  11  22  43  75 101 134 196 251 301 371 450
#     4  11  24  44  70 104 142 188 246 295 358 456
#
# _framework density 20.146713999999999
#
# number of rings (size 3 to 8) (size 9 to 14) (size 15 to 20)
#    0.000    0.818    7.273    1.091    0.000    2.545 
#    3.273    1.818    0.000    0.000    0.000    0.000 
#    0.000    0.000    0.000    0.000    0.000    0.000 
#
# Total GULP energy -490032.421817 kJ/mol
# GULP energy per Si atom -5568.550248 kJ/mol
# Density = 2.010086 g / cm^3
# Si number density = 20.146714 Si / 1000 Ang^3
#
#
#
# Elastic Constant Matrix: (Units=GPa)
#
#
# Indices 1 2 3 4 5 6 
#
# 1 92.3248 37.1325 33.0277 0.0000 0.0000 0.0000
# 2 37.1325 92.3248 33.0277 0.0000 0.0000 0.0000
# 3 33.0277 33.0277 159.4942 0.0000 0.0000 0.0000
# 4 0.0000 0.0000 0.0000 15.6894 0.0000 0.0000
# 5 0.0000 0.0000 0.0000 0.0000 15.6894 0.0000
# 6 0.0000 0.0000 0.0000 0.0000 0.0000 7.4242
#
#
#
# Elastic Compliance Matrix: (Units=1/GPa)
#
#
# Indices 1 2 3 4 5 6 
#
# 1 0.013378 -0.004741 -0.001789 0.000000 0.000000 0.000000
# 2 -0.004741 0.013378 -0.001789 0.000000 0.000000 0.000000
# 3 -0.001789 -0.001789 0.007011 0.000000 0.000000 0.000000
# 4 0.000000 0.000000 0.000000 0.063737 0.000000 0.000000
# 5 0.000000 0.000000 0.000000 0.000000 0.063737 0.000000
# 6 0.000000 0.000000 0.000000 0.000000 0.000000 0.134695
#
#
# Mechanical properties :
#
#
# Convention : Reuss Voigt Hill
#
# Bulk Modulus (GPa) = 58.37496 61.16885 59.77190
# Shear Modulus (GPa) = 15.70936 23.82433 19.76684
#
# Velocity S-wave (km/s) = 2.79543 3.44254 3.13572
# Velocity P-wave (km/s) = 6.28148 6.79920 6.54546
#
# Compressibility (1/GPa) = 0.01713063
#
# Stress axis : x y z
#
# Youngs Moduli (GPa) = 74.75061 74.75061 142.64186
#
# Poissons Ratio (x) = 0.35437 0.25512
# Poissons Ratio (y) = 0.35437 0.25512
# Poissons Ratio (z) = 0.13370 0.13370
#
# Static dielectric constant tensor:
#      x y z
#    x 1.720250 0.000000 0.000000 
#    y 0.000000 1.720250 0.000000 
#    z 0.000000 0.000000 1.838530 
# 
# From -- ./inp_files/3753.got.cif
#   From: 2010.05.17/outbox.cif.g08.bks.cpg/sg126_2_cif.got.tgz:3753.got - 2010.05.20 11:58:20.
