data_PCOD9563344
_publ_section_title
;
Structure prediction by ZEFSAII (Michael W. Deem and Ramdas Pophale) SiO2 
 PCOD9563344
Probable space group: P 4/N N C
;
_chemical_formula_sum "Si O2"
_cell_formula_units_Z 120
_cell_length_a 21.015357
_cell_length_b 21.015357
_cell_length_c 14.189405
_cell_angle_alpha 90.000000
_cell_angle_beta 90.000000
_cell_angle_gamma 90.000000
_cell_volume 6266.683032
_symmetry_space_group_name_H-M "P 4/N N C"
_symmetry_group_IT_number 126
_space_group.IT_coordinate_system_code '2'
_symmetry_cell_setting 'tetragonal'
loop_
_space_group_symop_operation_xyz
x,y,z
1/2-y,x,z
1/2-x,1/2-y,z
y,1/2-x,z
x,1/2-y,1/2-z
1/2-x,y,1/2-z
y,x,1/2-z
1/2-y,1/2-x,1/2-z
-x,-y,-z
1/2+y,-x,-z
1/2+x,1/2+y,-z
-y,1/2+x,-z
-x,1/2+y,1/2+z
1/2+x,-y,1/2+z
-y,-x,1/2+z
1/2+y,1/2+x,1/2+z
loop_
_atom_site_type_symbol
_atom_site_label
_atom_site_fract_x
_atom_site_fract_y
_atom_site_fract_z
Si Si1 0.074665 0.929188 0.745555
Si Si2 0.153763 0.297681 0.888255
Si Si3 0.938221 0.750000 0.250000
Si Si4 0.548292 0.292618 0.340059
Si Si5 0.947617 0.653461 0.968075
Si Si6 0.355218 0.736332 0.496843
Si Si7 0.981408 0.524355 0.602640
Si Si8 0.192087 0.963648 0.866403
O O1 0.074106 0.860603 0.696466
O O2 0.143531 0.952000 0.780447
O O3 0.037885 0.972153 0.668759
O O4 0.030423 0.931798 0.839694
O O5 0.168253 0.221908 0.888368
O O6 0.108793 0.303055 0.795151
O O7 0.114294 0.321271 0.978477
O O8 0.988700 0.749204 0.163468
O O9 0.541498 0.250000 0.250000
O O10 0.480777 0.301276 0.391881
O O11 0.597531 0.263749 0.414651
O O12 0.941148 0.585997 0.916095
O O13 0.001275 0.652059 0.051034
O O14 0.302432 0.681824 0.511399
O O15 0.398318 0.719259 0.406853
O O16 0.000000 0.500000 0.500000
#
# Coordination Sequence:
#
# PCOD9563344 Si02
#       8
#    16  16   8  16  16  16  16  16
#     4  10  21  34  58  86 116 158 197 245 310 370
#     4  10  21  39  60  85 120 160 200 244 304 369
#     4  10  22  35  56  87 118 152 194 254 300 362
#     4  10  21  38  57  84 114 147 195 247 302 364
#     4   9  20  37  58  84 117 150 200 246 299 371
#     4  10  22  40  58  80 113 158 202 248 305 365
#     4  10  19  36  56  86 121 156 194 251 311 368
#     4  10  20  37  55  84 117 150 202 249 302 370
#
# _framework density 19.148886000000001
#
# number of rings (size 3 to 8) (size 9 to 14) (size 15 to 20)
#    0.000    2.133    1.333    1.200    1.867    2.667 
#    2.400    2.000    0.000    0.000    0.000    0.933 
#    0.000    0.000    0.000    0.000    0.000    0.000 
#
# Total GULP energy -668225.195408 kJ/mol
# GULP energy per Si atom -5568.543295 kJ/mol
# Density = 1.910530 g / cm^3
# Si number density = 19.148886 Si / 1000 Ang^3
#
#
#
# Elastic Constant Matrix: (Units=GPa)
#
#
# Indices 1 2 3 4 5 6 
#
# 1 68.2835 35.9537 30.8079 0.0000 0.0000 0.0000
# 2 35.9537 68.2835 30.8079 0.0000 0.0000 0.0000
# 3 30.8079 30.8079 104.5276 0.0000 0.0000 0.0000
# 4 0.0000 0.0000 0.0000 21.5138 0.0000 0.0000
# 5 0.0000 0.0000 0.0000 0.0000 21.5138 0.0000
# 6 0.0000 0.0000 0.0000 0.0000 0.0000 2.9927
#
#
#
# Elastic Compliance Matrix: (Units=1/GPa)
#
#
# Indices 1 2 3 4 5 6 
#
# 1 0.021274 -0.009657 -0.003424 0.000000 0.000000 0.000000
# 2 -0.009657 0.021274 -0.003424 0.000000 0.000000 0.000000
# 3 -0.003424 -0.003424 0.011585 0.000000 0.000000 0.000000
# 4 0.000000 0.000000 0.000000 0.046482 0.000000 0.000000
# 5 0.000000 0.000000 0.000000 0.000000 0.046482 0.000000
# 6 0.000000 0.000000 0.000000 0.000000 0.000000 0.334145
#
#
# Mechanical properties :
#
#
# Convention : Reuss Voigt Hill
#
# Bulk Modulus (GPa) = 47.33966 48.47041 47.90504
# Shear Modulus (GPa) = 9.59153 18.77242 14.18197
#
# Velocity S-wave (km/s) = 2.24049 3.13443 2.72438
# Velocity P-wave (km/s) = 5.60969 6.20217 5.91336
#
# Compressibility (1/GPa) = 0.02112394
#
# Stress axis : x y z
#
# Youngs Moduli (GPa) = 47.00497 47.00497 86.31673
#
# Poissons Ratio (x) = 0.45392 0.29556
# Poissons Ratio (y) = 0.45392 0.29556
# Poissons Ratio (z) = 0.16095 0.16095
#
# Static dielectric constant tensor:
#      x y z
#    x 1.693900 0.000000 0.000000 
#    y 0.000000 1.693900 0.000000 
#    z 0.000000 0.000000 1.667580 
# 
# From -- ./inp_files/3951.got.cif
#   From: 2010.05.17/outbox.cif.g08.bks.cpg/sg126_2_cif.got.tgz:3951.got - 2010.05.20 11:58:20.
