data_PCOD9563986
_publ_section_title
;
Structure prediction by ZEFSAII (Michael W. Deem and Ramdas Pophale) SiO2 
 PCOD9563986
Probable space group: P 4/M B M
;
_chemical_formula_sum "Si O2"
_cell_formula_units_Z 80
_cell_length_a 19.327517
_cell_length_b 19.327517
_cell_length_c 14.089168
_cell_angle_alpha 90.000000
_cell_angle_beta 90.000000
_cell_angle_gamma 90.000000
_cell_volume 5263.049754
_symmetry_space_group_name_H-M "P 4/M B M"
_symmetry_group_IT_number 127
_symmetry_cell_setting 'tetragonal'
loop_
_space_group_symop_operation_xyz
x,y,z
-y,x,z
-x,-y,z
y,-x,z
1/2+x,1/2-y,-z
1/2-x,1/2+y,-z
1/2+y,1/2+x,-z
1/2-y,1/2-x,-z
-x,-y,-z
y,-x,-z
x,y,-z
-y,x,-z
1/2-x,1/2+y,z
1/2+x,1/2-y,z
1/2-y,1/2-x,z
1/2+y,1/2+x,z
loop_
_atom_site_type_symbol
_atom_site_label
_atom_site_fract_x
_atom_site_fract_y
_atom_site_fract_z
Si Si1 0.843127 0.124600 0.614045
Si Si2 0.337209 0.048095 0.387267
Si Si3 0.192032 0.024304 0.299925
Si Si4 0.116188 0.011708 0.891441
Si Si5 0.901987 0.598013 0.385533
Si Si6 0.711083 0.211083 0.384764
O O1 0.845585 0.123759 0.500000
O O2 0.918239 0.141562 0.655166
O O3 0.786561 0.183013 0.643595
O O4 0.818403 0.050224 0.651256
O O5 0.318562 0.042467 0.500000
O O6 0.385269 0.114731 0.376631
O O7 0.268595 0.049387 0.325415
O O8 0.380000 0.979334 0.359981
O O9 0.173337 0.017648 0.189443
O O10 0.072794 0.940563 0.879665
O O11 0.141692 0.014292 0.000000
O O12 0.900098 0.599902 0.500000
O O13 0.845701 0.654300 0.352779
O O14 0.711145 0.211145 0.500000
#
# Coordination Sequence:
#
# PCOD9563986 Si02
#       6
#    16  16  16  16   8   8
#     4  11  22  33  47  71 108 143 171 199 242 303
#     4  10  20  32  48  74 106 139 177 214 247 293
#     4  12  21  33  50  75 102 137 169 208 252 301
#     4   9  18  35  55  73  94 125 170 218 257 298
#     4   9  15  30  51  68  94 136 181 218 244 272
#     4   9  18  33  48  65  98 144 177 204 239 288
#
# _framework density 15.200312
#
# number of rings (size 3 to 8) (size 9 to 14) (size 15 to 20)
#    0.000    1.800    4.000    2.700    1.400    1.600 
#    0.000    1.000    0.000    0.600    0.000    4.200 
#    0.000    1.600    0.000    0.000    0.000    0.000 
#
# Total GULP energy -446157.063006 kJ/mol
# GULP energy per Si atom -5576.963288 kJ/mol
# Density = 1.516572 g / cm^3
# Si number density = 15.200312 Si / 1000 Ang^3
#
#
#
# Elastic Constant Matrix: (Units=GPa)
#
#
# Indices 1 2 3 4 5 6 
#
# 1 42.3440 33.3779 30.6280 0.0000 0.0000 0.0000
# 2 33.3779 42.3440 30.6280 0.0000 0.0000 0.0000
# 3 30.6280 30.6280 87.9698 0.0000 0.0000 0.0000
# 4 0.0000 0.0000 0.0000 10.9028 0.0000 0.0000
# 5 0.0000 0.0000 0.0000 0.0000 10.9028 0.0000
# 6 0.0000 0.0000 0.0000 0.0000 0.0000 19.9597
#
#
#
# Elastic Compliance Matrix: (Units=1/GPa)
#
#
# Indices 1 2 3 4 5 6 
#
# 1 0.064957 -0.046573 -0.006401 0.000000 0.000000 0.000000
# 2 -0.046573 0.064957 -0.006401 0.000000 0.000000 0.000000
# 3 -0.006401 -0.006401 0.015825 0.000000 0.000000 0.000000
# 4 0.000000 0.000000 0.000000 0.091720 0.000000 0.000000
# 5 0.000000 0.000000 0.000000 0.000000 0.091720 0.000000
# 6 0.000000 0.000000 0.000000 0.000000 0.000000 0.050101
#
#
# Mechanical properties :
#
#
# Convention : Reuss Voigt Hill
#
# Bulk Modulus (GPa) = 37.05081 40.21396 38.63239
# Shear Modulus (GPa) = 9.86144 13.55467 11.70805
#
# Velocity S-wave (km/s) = 2.54985 2.98943 2.77835
# Velocity P-wave (km/s) = 5.75299 6.19912 5.98022
#
# Compressibility (1/GPa) = 0.02698996
#
# Stress axis : x y z
#
# Youngs Moduli (GPa) = 15.39470 15.39470 63.19302
#
# Poissons Ratio (x) = 0.71698 0.40448
# Poissons Ratio (y) = 0.71698 0.40448
# Poissons Ratio (z) = 0.09854 0.09854
#
# Static dielectric constant tensor:
#      x y z
#    x 1.518420 0.000000 0.000000 
#    y 0.000000 1.518420 0.000000 
#    z 0.000000 0.000000 1.476210 
# 
# From -- ./inp_files/4288.got.cif
#   From: 2010.05.17/outbox.cif.g08.bks.cpg/sg127_3_cif.got.tgz:4288.got - 2010.05.20 12:03:00.
