data_PCOD9563759
_publ_section_title
;
Structure prediction by ZEFSAII (Michael W. Deem and Ramdas Pophale) SiO2 
 PCOD9563759
Probable space group: P 4/M B M
;
_chemical_formula_sum "Si O2"
_cell_formula_units_Z 120
_cell_length_a 21.862880
_cell_length_b 21.862880
_cell_length_c 13.870725
_cell_angle_alpha 90.000000
_cell_angle_beta 90.000000
_cell_angle_gamma 90.000000
_cell_volume 6630.005728
_symmetry_space_group_name_H-M "P 4/M B M"
_symmetry_group_IT_number 127
_symmetry_cell_setting 'tetragonal'
loop_
_space_group_symop_operation_xyz
x,y,z
-y,x,z
-x,-y,z
y,-x,z
1/2+x,1/2-y,-z
1/2-x,1/2+y,-z
1/2+y,1/2+x,-z
1/2-y,1/2-x,-z
-x,-y,-z
y,-x,-z
x,y,-z
-y,x,-z
1/2-x,1/2+y,z
1/2+x,1/2-y,z
1/2-y,1/2-x,z
1/2+y,1/2+x,z
loop_
_atom_site_type_symbol
_atom_site_label
_atom_site_fract_x
_atom_site_fract_y
_atom_site_fract_z
Si Si1 0.308148 0.910002 0.304540
Si Si2 0.968154 0.687229 0.889746
Si Si3 0.032555 0.631000 0.383608
Si Si4 0.579447 0.650211 0.611863
Si Si5 0.556318 0.322306 0.383660
Si Si6 0.611329 0.788977 0.892411
Si Si7 0.453589 0.953589 0.115218
Si Si8 0.230066 0.633594 0.319178
O O1 0.348049 0.848049 0.311739
O O2 0.288854 0.924775 0.194003
O O3 0.243604 0.915161 0.359102
O O4 0.351539 0.965736 0.343517
O O5 0.969718 0.615503 0.864635
O O6 0.038125 0.708781 0.885839
O O7 0.946228 0.694884 0.000000
O O8 0.031203 0.636994 0.500000
O O9 0.065533 0.565533 0.362256
O O10 0.078730 0.682044 0.340531
O O11 0.568770 0.635043 0.500000
O O12 0.513284 0.668940 0.652933
O O13 0.620085 0.595565 0.653630
O O14 0.620832 0.710042 0.621141
O O15 0.555288 0.324658 0.500000
O O16 0.643631 0.856370 0.887200
O O17 0.634075 0.756348 0.795592
O O18 0.627189 0.765260 0.000000
O O19 0.500000 0.000000 0.162246
O O20 0.458154 0.958154 0.000000
O O21 0.195319 0.695319 0.345631
#
# Coordination Sequence:
#
# PCOD9563759 Si02
#       8
#    16  16  16  16  16  16   8  16
#     4  12  23  35  51  76 111 150 183 225 272 317
#     4  10  18  29  44  65  97 140 185 228 273 318
#     4  10  20  33  48  68  99 145 193 226 254 301
#     4  10  20  37  60  84 110 136 170 219 271 328
#     4  10  22  39  60  84 108 136 172 218 275 331
#     4   9  16  26  43  69 100 136 181 232 276 307
#     4   9  16  24  36  58  89 129 179 231 266 296
#     4  10  18  30  52  78 106 143 183 219 259 310
#
# _framework density 18.099532
#
# number of rings (size 3 to 8) (size 9 to 14) (size 15 to 20)
#    0.000    1.933    3.333    1.200    0.000    5.067 
#    0.000    3.333    0.000    0.800    0.000    1.867 
#    0.000    0.000    0.000    5.600    0.000    0.267 
#
# Total GULP energy -668323.288811 kJ/mol
# GULP energy per Si atom -5569.360740 kJ/mol
# Density = 1.805834 g / cm^3
# Si number density = 18.099532 Si / 1000 Ang^3
#
#
#
# Elastic Constant Matrix: (Units=GPa)
#
#
# Indices 1 2 3 4 5 6 
#
# 1 47.5561 41.6362 9.6958 0.0000 0.0000 0.0000
# 2 41.6362 47.5561 9.6958 0.0000 0.0000 0.0000
# 3 9.6958 9.6958 68.2071 0.0000 0.0000 0.0000
# 4 0.0000 0.0000 0.0000 12.8514 0.0000 0.0000
# 5 0.0000 0.0000 0.0000 0.0000 12.8514 0.0000
# 6 0.0000 0.0000 0.0000 0.0000 0.0000 14.7323
#
#
#
# Elastic Compliance Matrix: (Units=1/GPa)
#
#
# Indices 1 2 3 4 5 6 
#
# 1 0.090246 -0.078677 -0.001645 0.000000 0.000000 0.000000
# 2 -0.078677 0.090246 -0.001645 0.000000 0.000000 0.000000
# 3 -0.001645 -0.001645 0.015129 0.000000 0.000000 0.000000
# 4 0.000000 0.000000 0.000000 0.077813 0.000000 0.000000
# 5 0.000000 0.000000 0.000000 0.000000 0.077813 0.000000
# 6 0.000000 0.000000 0.000000 0.000000 0.000000 0.067878
#
#
# Mechanical properties :
#
#
# Convention : Reuss Voigt Hill
#
# Bulk Modulus (GPa) = 31.55672 31.70832 31.63252
# Shear Modulus (GPa) = 8.42292 14.90646 11.66469
#
# Velocity S-wave (km/s) = 2.15958 2.87293 2.54141
# Velocity P-wave (km/s) = 4.86737 5.34433 5.11142
#
# Compressibility (1/GPa) = 0.03168897
#
# Stress axis : x y z
#
# Youngs Moduli (GPa) = 11.08084 11.08084 66.09912
#
# Poissons Ratio (x) = 0.87180 0.10871
# Poissons Ratio (y) = 0.87180 0.10871
# Poissons Ratio (z) = 0.01822 0.01822
#
# Static dielectric constant tensor:
#      x y z
#    x 1.643930 0.000000 0.000000 
#    y 0.000000 1.643930 0.000000 
#    z 0.000000 0.000000 1.672740 
# 
# From -- ./inp_files/4673.got.cif
#   From: 2010.05.17/outbox.cif.g08.bks.cpg/sg127_3_cif.got.tgz:4673.got - 2010.05.20 12:03:00.
