data_PCOD9563125
_publ_section_title
;
Structure prediction by ZEFSAII (Michael W. Deem and Ramdas Pophale) SiO2 
 PCOD9563125
Probable space group: P 4/N B M
;
_chemical_formula_sum "Si O2"
_cell_formula_units_Z 64
_cell_length_a 20.229666
_cell_length_b 20.229666
_cell_length_c 7.493071
_cell_angle_alpha 90.000000
_cell_angle_beta 90.000000
_cell_angle_gamma 90.000000
_cell_volume 3066.459779
_symmetry_space_group_name_H-M "P 4/N B M"
_symmetry_group_IT_number 125
_space_group.IT_coordinate_system_code '2'
_symmetry_cell_setting 'tetragonal'
loop_
_space_group_symop_operation_xyz
x,y,z
1/2-y,x,z
1/2-x,1/2-y,z
y,1/2-x,z
x,1/2-y,-z
1/2-x,y,-z
y,x,-z
1/2-y,1/2-x,-z
-x,-y,-z
1/2+y,-x,-z
1/2+x,1/2+y,-z
-y,1/2+x,-z
-x,1/2+y,z
1/2+x,-y,z
-y,-x,z
1/2+y,1/2+x,z
loop_
_atom_site_type_symbol
_atom_site_label
_atom_site_fract_x
_atom_site_fract_y
_atom_site_fract_z
Si Si1 0.143975 0.249396 0.284081
Si Si2 0.047174 0.655396 0.603328
Si Si3 0.785684 0.495343 0.757095
Si Si4 0.003739 0.105265 0.956685
O O1 0.186469 0.185473 0.226285
O O2 0.144034 0.250000 0.500000
O O3 0.068410 0.245277 0.228961
O O4 0.114635 0.614635 0.577880
O O5 0.054168 0.726688 0.700973
O O6 0.010155 0.666932 0.416687
O O7 0.003507 0.615616 0.745897
O O8 0.829251 0.486269 0.932188
O O9 0.074844 0.074844 0.000000
O O10 0.949084 0.050917 0.010882
#
# Coordination Sequence:
#
# PCOD9563125 Si02
#       4
#    16  16  16  16
#     4   9  18  32  53  83 121 157 195 243 291 353
#     4  10  22  40  59  88 121 155 205 254 301 362
#     4  11  21  38  67  86 114 168 203 246 316 358
#     4  10  23  39  58  90 127 157 199 255 304 363
#
# _framework density 20.870974
#
# number of rings (size 3 to 8) (size 9 to 14) (size 15 to 20)
#    0.000    2.000    2.500    2.250    3.500    1.000 
#    0.000    3.750    0.000   12.750    0.000   17.500 
#    0.000    0.000    0.000    0.000    0.000    0.000 
#
# Total GULP energy -357300.604692 kJ/mol
# GULP energy per Si atom -5582.821948 kJ/mol
# Density = 2.082347 g / cm^3
# Si number density = 20.870974 Si / 1000 Ang^3
#
#
#
# Elastic Constant Matrix: (Units=GPa)
#
#
# Indices 1 2 3 4 5 6 
#
# 1 80.1986 47.2868 13.5836 0.0000 0.0000 0.0000
# 2 47.2868 80.1986 13.5836 0.0000 0.0000 0.0000
# 3 13.5836 13.5836 96.8446 0.0000 0.0000 0.0000
# 4 0.0000 0.0000 0.0000 17.7706 0.0000 0.0000
# 5 0.0000 0.0000 0.0000 0.0000 17.7706 0.0000
# 6 0.0000 0.0000 0.0000 0.0000 0.0000 32.9962
#
#
#
# Elastic Compliance Matrix: (Units=1/GPa)
#
#
# Indices 1 2 3 4 5 6 
#
# 1 0.019235 -0.011149 -0.001134 0.000000 0.000000 0.000000
# 2 -0.011149 0.019235 -0.001134 0.000000 0.000000 0.000000
# 3 -0.001134 -0.001134 0.010644 0.000000 0.000000 0.000000
# 4 0.000000 0.000000 0.000000 0.056273 0.000000 0.000000
# 5 0.000000 0.000000 0.000000 0.000000 0.056273 0.000000
# 6 0.000000 0.000000 0.000000 0.000000 0.000000 0.030307
#
#
# Mechanical properties :
#
#
# Convention : Reuss Voigt Hill
#
# Bulk Modulus (GPa) = 44.88545 45.12775 45.00660
# Shear Modulus (GPa) = 22.10171 25.89335 23.99753
#
# Velocity S-wave (km/s) = 3.25771 3.52609 3.39455
# Velocity P-wave (km/s) = 5.97521 6.18441 6.08071
#
# Compressibility (1/GPa) = 0.02227893
#
# Stress axis : x y z
#
# Youngs Moduli (GPa) = 51.98864 51.98864 93.94992
#
# Poissons Ratio (x) = 0.57963 0.10655
# Poissons Ratio (y) = 0.57963 0.10655
# Poissons Ratio (z) = 0.05896 0.05896
#
# Static dielectric constant tensor:
#      x y z
#    x 1.765580 0.000000 0.000000 
#    y 0.000000 1.765580 0.000000 
#    z 0.000000 0.000000 1.785550 
# 
# From -- ./inp_files/2406.got.cif
#   From: 2010.05.17/outbox.cif.g08.bks.cpg/sg125_2_cif.got.tgz:2406.got - 2010.05.20 11:54:10.
