data_PCOD9563191
_publ_section_title
;
Structure prediction by ZEFSAII (Michael W. Deem and Ramdas Pophale) SiO2 
 PCOD9563191
Probable space group: P 4/N B M
;
_chemical_formula_sum "Si O2"
_cell_formula_units_Z 96
_cell_length_a 15.150587
_cell_length_b 15.150587
_cell_length_c 20.469360
_cell_angle_alpha 90.000000
_cell_angle_beta 90.000000
_cell_angle_gamma 90.000000
_cell_volume 4698.542758
_symmetry_space_group_name_H-M "P 4/N B M"
_symmetry_group_IT_number 125
_space_group.IT_coordinate_system_code '2'
_symmetry_cell_setting 'tetragonal'
loop_
_space_group_symop_operation_xyz
x,y,z
1/2-y,x,z
1/2-x,1/2-y,z
y,1/2-x,z
x,1/2-y,-z
1/2-x,y,-z
y,x,-z
1/2-y,1/2-x,-z
-x,-y,-z
1/2+y,-x,-z
1/2+x,1/2+y,-z
-y,1/2+x,-z
-x,1/2+y,z
1/2+x,-y,z
-y,-x,z
1/2+y,1/2+x,z
loop_
_atom_site_type_symbol
_atom_site_label
_atom_site_fract_x
_atom_site_fract_y
_atom_site_fract_z
Si Si1 0.352498 0.357843 0.571577
Si Si2 0.895238 0.242973 0.743248
Si Si3 0.605492 0.244699 0.103841
Si Si4 0.138803 0.343136 0.811043
Si Si5 0.828877 0.929442 0.044745
Si Si6 0.877781 0.524179 0.694087
O O1 0.246555 0.369169 0.574236
O O2 0.386724 0.386724 0.500000
O O3 0.385527 0.409010 0.634466
O O4 0.847019 0.152982 0.721514
O O5 0.818920 0.318920 0.742865
O O6 0.920264 0.232666 0.819853
O O7 0.974747 0.282855 0.701273
O O8 0.682331 0.317670 0.101869
O O9 0.653271 0.153271 0.081063
O O10 0.523667 0.287370 0.065777
O O11 0.131452 0.238930 0.796982
O O12 0.117543 0.351960 0.887178
O O13 0.073279 0.392341 0.762874
O O14 0.750000 0.889775 0.000000
O O15 0.915622 0.915622 0.000000
O O16 0.948973 0.448973 0.685494
#
# Coordination Sequence:
#
# PCOD9563191 Si02
#       6
#    16  16  16  16  16  16
#     4   9  19  39  66  92 123 166 212 253 305 381
#     4   8  15  30  54  81 115 163 207 245 302 377
#     4   9  19  39  62  83 117 168 217 261 327 415
#     4  11  23  41  63  83 114 160 211 263 325 399
#     4  12  24  38  60  88 116 155 216 285 350 404
#     4  11  21  35  60  95 132 162 203 264 319 375
#
# _framework density 20.431865999999999
#
# number of rings (size 3 to 8) (size 9 to 14) (size 15 to 20)
#    0.000    2.000    3.333    2.500    0.000    2.833 
#    0.000    5.000    0.000    1.000    0.000    0.000 
#    0.000    0.000    0.000    0.000    0.000    0.333 
#
# Total GULP energy -535572.744082 kJ/mol
# GULP energy per Si atom -5578.882751 kJ/mol
# Density = 2.038536 g / cm^3
# Si number density = 20.431866 Si / 1000 Ang^3
#
#
#
# Elastic Constant Matrix: (Units=GPa)
#
#
# Indices 1 2 3 4 5 6 
#
# 1 61.5236 25.9272 36.9846 0.0000 0.0000 0.0000
# 2 25.9272 61.5236 36.9846 0.0000 0.0000 0.0000
# 3 36.9846 36.9846 121.5657 0.0000 0.0000 0.0000
# 4 0.0000 0.0000 0.0000 14.7944 0.0000 0.0000
# 5 0.0000 0.0000 0.0000 0.0000 14.7944 0.0000
# 6 0.0000 0.0000 0.0000 0.0000 0.0000 -2.3578
#
#
#
# Elastic Compliance Matrix: (Units=1/GPa)
#
#
# Indices 1 2 3 4 5 6 
#
# 1 0.021745 -0.006348 -0.004684 0.000000 0.000000 0.000000
# 2 -0.006348 0.021745 -0.004684 0.000000 0.000000 0.000000
# 3 -0.004684 -0.004684 0.011076 0.000000 0.000000 0.000000
# 4 0.000000 0.000000 0.000000 0.067593 0.000000 0.000000
# 5 0.000000 0.000000 0.000000 0.000000 0.067593 0.000000
# 6 0.000000 0.000000 0.000000 0.000000 0.000000 -0.424118
#
#
# Mechanical properties :
#
#
# Convention : Reuss Voigt Hill
#
# Bulk Modulus (GPa) = 43.22784 49.37843 46.30313
# Shear Modulus (GPa) = -25.61198 15.09394 -5.25902
#
# Velocity S-wave (km/s) = -3.54436 2.72094 -1.60609
# Velocity P-wave (km/s) = 2.11021 5.83876 4.39000
#
# Compressibility (1/GPa) = 0.02313324
#
# Stress axis : x y z
#
# Youngs Moduli (GPa) = 45.98763 45.98763 90.28272
#
# Poissons Ratio (x) = 0.29192 0.42292
# Poissons Ratio (y) = 0.29192 0.42292
# Poissons Ratio (z) = 0.21542 0.21542
#
# Static dielectric constant tensor:
#      x y z
#    x 1.767550 0.000000 0.000000 
#    y 0.000000 1.767550 0.000000 
#    z 0.000000 0.000000 1.740650 
# 
# From -- ./inp_files/5927.got.cif
#   From: 2010.05.17/outbox.cif.g08.bks.cpg/sg125_3_cif.got.tgz:5927.got - 2010.05.20 11:54:10.
