data_PCOD9563151
_publ_section_title
;
Structure prediction by ZEFSAII (Michael W. Deem and Ramdas Pophale) SiO2 
 PCOD9563151
Probable space group: P 4/N B M
;
_chemical_formula_sum "Si O2"
_cell_formula_units_Z 32
_cell_length_a 17.349810
_cell_length_b 17.349810
_cell_length_c 5.454198
_cell_angle_alpha 90.000000
_cell_angle_beta 90.000000
_cell_angle_gamma 90.000000
_cell_volume 1641.800358
_symmetry_space_group_name_H-M "P 4/N B M"
_symmetry_group_IT_number 125
_space_group.IT_coordinate_system_code '2'
_symmetry_cell_setting 'tetragonal'
loop_
_space_group_symop_operation_xyz
x,y,z
1/2-y,x,z
1/2-x,1/2-y,z
y,1/2-x,z
x,1/2-y,-z
1/2-x,y,-z
y,x,-z
1/2-y,1/2-x,-z
-x,-y,-z
1/2+y,-x,-z
1/2+x,1/2+y,-z
-y,1/2+x,-z
-x,1/2+y,z
1/2+x,-y,z
-y,-x,z
1/2+y,1/2+x,z
loop_
_atom_site_type_symbol
_atom_site_label
_atom_site_fract_x
_atom_site_fract_y
_atom_site_fract_z
Si Si1 0.527265 0.218650 0.749783
Si Si2 0.035302 0.535302 0.250047
Si Si3 0.750000 0.878739 0.500000
O O1 0.565964 0.250000 0.500000
O O2 0.522561 0.126987 0.748060
O O3 0.439584 0.250744 0.722464
O O4 0.562181 0.250000 0.000000
O O5 0.000000 0.500000 0.500000
O O6 0.000000 0.500000 0.000000
O O7 0.675890 0.824111 0.500000
#
# Coordination Sequence:
#
# PCOD9563151 Si02
#       3
#    16   8   8
#     4  10  23  38  60  89 127 159 212 258 323 374
#     4  12  24  40  68  95 126 175 222 272 315 377
#     4   9  20  36  58  86 127 166 200 244 327 400
#
# _framework density 19.490797000000001
#
# number of rings (size 3 to 8) (size 9 to 14) (size 15 to 20)
#    1.500    0.250    0.000    4.500    7.000    0.000 
#    0.000    2.500    0.000    4.500    0.000    0.000 
#    0.000    0.000    0.000    0.000    0.000    0.000 
#
# Total GULP energy -178222.631650 kJ/mol
# GULP energy per Si atom -5569.457239 kJ/mol
# Density = 1.944643 g / cm^3
# Si number density = 19.490797 Si / 1000 Ang^3
#
#
#
# Elastic Constant Matrix: (Units=GPa)
#
#
# Indices 1 2 3 4 5 6 
#
# 1 40.8654 35.4859 38.9231 0.0000 0.0000 0.0000
# 2 35.4859 40.8749 38.9243 0.0000 0.0000 0.0000
# 3 38.9231 38.9243 214.8467 0.0000 0.0000 0.0000
# 4 0.0000 0.0000 0.0000 21.9698 0.0000 0.0000
# 5 0.0000 0.0000 0.0000 0.0000 21.9701 0.0000
# 6 0.0000 0.0000 0.0000 0.0000 0.0000 18.4402
#
#
#
# Elastic Compliance Matrix: (Units=1/GPa)
#
#
# Indices 1 2 3 4 5 6 
#
# 1 0.100909 -0.084832 -0.002912 0.000000 0.000000 0.000000
# 2 -0.084832 0.100882 -0.002908 0.000000 0.000000 0.000000
# 3 -0.002912 -0.002908 0.005709 0.000000 0.000000 0.000000
# 4 0.000000 0.000000 0.000000 0.045517 0.000000 0.000000
# 5 0.000000 0.000000 0.000000 0.000000 0.045516 0.000000
# 6 0.000000 0.000000 0.000000 0.000000 0.000000 0.054229
#
#
# Mechanical properties :
#
#
# Convention : Reuss Voigt Hill
#
# Bulk Modulus (GPa) = 38.17488 58.13929 48.15708
# Shear Modulus (GPa) = 9.21149 24.69292 16.95220
#
# Velocity S-wave (km/s) = 2.17631 3.56322 2.95236
# Velocity P-wave (km/s) = 5.09350 6.84270 6.03184
#
# Compressibility (1/GPa) = 0.02619524
#
# Stress axis : x y z
#
# Youngs Moduli (GPa) = 9.90989 9.91256 175.16278
#
# Poissons Ratio (x) = 0.84090 0.51011
# Poissons Ratio (y) = 0.84068 0.50942
# Poissons Ratio (z) = 0.02886 0.02883
#
# Static dielectric constant tensor:
#      x y z
#    x 1.655650 0.000000 0.000000 
#    y 0.000000 1.655660 0.000000 
#    z 0.000000 0.000000 1.846520 
# 
# From -- ./inp_files/362.got.cif
#   From: 2010.05.17/outbox.cif.g08.bks.cpg/sg125_1_cif.got.tgz:362.got - 2010.05.20 11:54:10.
