data_PCOD9563114
_publ_section_title
;
Structure prediction by ZEFSAII (Michael W. Deem and Ramdas Pophale) SiO2 
 PCOD9563114
Probable space group: P 4/N B M
;
_chemical_formula_sum "Si O2"
_cell_formula_units_Z 88
_cell_length_a 12.006523
_cell_length_b 12.006523
_cell_length_c 30.255881
_cell_angle_alpha 90.000000
_cell_angle_beta 90.000000
_cell_angle_gamma 90.000000
_cell_volume 4361.584770
_symmetry_space_group_name_H-M "P 4/N B M"
_symmetry_group_IT_number 125
_space_group.IT_coordinate_system_code '2'
_symmetry_cell_setting 'tetragonal'
loop_
_space_group_symop_operation_xyz
x,y,z
1/2-y,x,z
1/2-x,1/2-y,z
y,1/2-x,z
x,1/2-y,-z
1/2-x,y,-z
y,x,-z
1/2-y,1/2-x,-z
-x,-y,-z
1/2+y,-x,-z
1/2+x,1/2+y,-z
-y,1/2+x,-z
-x,1/2+y,z
1/2+x,-y,z
-y,-x,z
1/2+y,1/2+x,z
loop_
_atom_site_type_symbol
_atom_site_label
_atom_site_fract_x
_atom_site_fract_y
_atom_site_fract_z
Si Si1 0.858460 0.955227 0.542157
Si Si2 0.564145 0.250000 0.000000
Si Si3 0.343114 0.656887 0.857302
Si Si4 0.434629 0.226709 0.701573
Si Si5 0.007548 0.320955 0.602565
Si Si6 0.718342 0.934558 0.909548
Si Si7 0.657621 0.157621 0.751742
O O1 0.874674 0.874674 0.500000
O O2 0.880582 0.880904 0.585524
O O3 0.750464 0.020811 0.558471
O O4 0.955096 0.044905 0.538275
O O5 0.487407 0.281971 0.041401
O O6 0.646226 0.353775 0.989138
O O7 0.250000 0.750000 0.868930
O O8 0.461577 0.694240 0.877491
O O9 0.351063 0.648938 0.804544
O O10 0.370590 0.343033 0.708885
O O11 0.475545 0.228927 0.650697
O O12 0.540856 0.198633 0.731370
O O13 0.913251 0.413251 0.607646
O O14 0.625622 0.838085 0.903667
O O15 0.750000 0.250000 0.740735
#
# Coordination Sequence:
#
# PCOD9563114 Si02
#       7
#    16   8   8  16  16  16   8
#     4  10  22  38  57  87 126 170 211 255 316 397
#     4  11  22  37  66 106 146 193 245 298 354 410
#     4  11  26  48  71 100 140 187 234 296 370 436
#     4  11  24  44  71 104 139 177 232 292 358 428
#     4  11  21  37  63  92 126 165 212 268 329 397
#     4  11  25  43  69 104 143 190 245 296 354 423
#     4  11  28  48  74 104 137 181 235 295 368 432
#
# _framework density 20.176152999999999
#
# number of rings (size 3 to 8) (size 9 to 14) (size 15 to 20)
#    0.000    1.182    3.636    1.636    3.818    4.364 
#    0.000    2.727    0.000    3.273    0.000    0.000 
#    0.000    0.000    0.000    0.000    0.000    0.000 
#
# Total GULP energy -490944.861597 kJ/mol
# GULP energy per Si atom -5578.918882 kJ/mol
# Density = 2.013023 g / cm^3
# Si number density = 20.176153 Si / 1000 Ang^3
#
#
#
# Elastic Constant Matrix: (Units=GPa)
#
#
# Indices 1 2 3 4 5 6 
#
# 1 134.5398 74.4748 67.6737 0.0000 0.0000 0.0000
# 2 74.4748 134.5398 67.6737 0.0000 0.0000 0.0000
# 3 67.6737 67.6737 107.0612 0.0000 0.0000 0.0000
# 4 0.0000 0.0000 0.0000 25.9234 0.0000 0.0000
# 5 0.0000 0.0000 0.0000 0.0000 25.9234 0.0000
# 6 0.0000 0.0000 0.0000 0.0000 0.0000 4.9848
#
#
#
# Elastic Compliance Matrix: (Units=1/GPa)
#
#
# Indices 1 2 3 4 5 6 
#
# 1 0.012374 -0.004274 -0.005120 0.000000 0.000000 0.000000
# 2 -0.004274 0.012374 -0.005120 0.000000 0.000000 0.000000
# 3 -0.005120 -0.005120 0.015813 0.000000 0.000000 0.000000
# 4 0.000000 0.000000 0.000000 0.038575 0.000000 0.000000
# 5 0.000000 0.000000 0.000000 0.000000 0.038575 0.000000
# 6 0.000000 0.000000 0.000000 0.000000 0.000000 0.200611
#
#
# Mechanical properties :
#
#
# Convention : Reuss Voigt Hill
#
# Bulk Modulus (GPa) = 86.70759 88.42058 87.56408
# Shear Modulus (GPa) = 14.23710 22.45422 18.34566
#
# Velocity S-wave (km/s) = 2.65927 3.33965 3.01869
# Velocity P-wave (km/s) = 7.24552 7.66749 7.45949
#
# Compressibility (1/GPa) = 0.01153302
#
# Stress axis : x y z
#
# Youngs Moduli (GPa) = 80.81344 80.81344 63.23914
#
# Poissons Ratio (x) = 0.34543 0.32378
# Poissons Ratio (y) = 0.34543 0.32378
# Poissons Ratio (z) = 0.41375 0.41375
#
# Static dielectric constant tensor:
#      x y z
#    x 1.774670 0.000000 0.000000 
#    y 0.000000 1.774670 0.000000 
#    z 0.000000 0.000000 1.689330 
# 
# From -- ./inp_files/6606.got.cif
#   From: 2010.05.17/outbox.cif.g08.bks.cpg/sg125_4_cif.got.tgz:6606.got - 2010.05.20 11:54:10.
