data_PCOD9563091
_publ_section_title
;
Structure prediction by ZEFSAII (Michael W. Deem and Ramdas Pophale) SiO2 
 PCOD9563091
Probable space group: P 4/N B M
;
_chemical_formula_sum "Si O2"
_cell_formula_units_Z 48
_cell_length_a 14.708640
_cell_length_b 14.708640
_cell_length_c 11.808512
_cell_angle_alpha 90.000000
_cell_angle_beta 90.000000
_cell_angle_gamma 90.000000
_cell_volume 2554.701791
_symmetry_space_group_name_H-M "P 4/N B M"
_symmetry_group_IT_number 125
_space_group.IT_coordinate_system_code '2'
_symmetry_cell_setting 'tetragonal'
loop_
_space_group_symop_operation_xyz
x,y,z
1/2-y,x,z
1/2-x,1/2-y,z
y,1/2-x,z
x,1/2-y,-z
1/2-x,y,-z
y,x,-z
1/2-y,1/2-x,-z
-x,-y,-z
1/2+y,-x,-z
1/2+x,1/2+y,-z
-y,1/2+x,-z
-x,1/2+y,z
1/2+x,-y,z
-y,-x,z
1/2+y,1/2+x,z
loop_
_atom_site_type_symbol
_atom_site_label
_atom_site_fract_x
_atom_site_fract_y
_atom_site_fract_z
Si Si1 0.009193 0.142780 0.315244
Si Si2 0.649334 0.993532 0.946315
Si Si3 0.643553 0.643553 0.500000
Si Si4 0.750000 0.099806 0.500000
O O1 0.939676 0.060325 0.310724
O O2 0.959182 0.219228 0.391857
O O3 0.028231 0.167080 0.186204
O O4 0.095473 0.109587 0.387062
O O5 0.584770 0.084770 0.955473
O O6 0.750000 0.004531 0.000000
O O7 0.588107 0.911894 0.000000
O O8 0.750000 0.629478 0.500000
O O9 0.665303 0.165303 0.471093
#
# Coordination Sequence:
#
# PCOD9563091 Si02
#       4
#    16  16   8   8
#     4  10  21  39  61  88 119 157 200 248 311 364
#     4  10  24  43  64  93 127 168 218 263 311 375
#     4  11  23  36  54  86 121 155 196 244 300 363
#     4   9  18  34  59  90 118 148 195 252 308 367
#
# _framework density 18.788886999999999
#
# number of rings (size 3 to 8) (size 9 to 14) (size 15 to 20)
#    0.000    2.000    1.667    0.500    4.667    2.000 
#    0.000    3.333    0.000    0.000    0.000    0.000 
#    0.000    0.000    0.000    0.000    0.000    0.000 
#
# Total GULP energy -267418.782150 kJ/mol
# GULP energy per Si atom -5571.224628 kJ/mol
# Density = 1.874612 g / cm^3
# Si number density = 18.788887 Si / 1000 Ang^3
#
#
#
# Elastic Constant Matrix: (Units=GPa)
#
#
# Indices 1 2 3 4 5 6 
#
# 1 109.0858 33.0896 69.9211 0.0000 0.0000 0.0000
# 2 33.0896 109.0847 69.9216 0.0000 0.0000 0.0000
# 3 69.9211 69.9216 198.3947 0.0000 0.0000 0.0000
# 4 0.0000 0.0000 0.0000 34.2622 0.0000 0.0000
# 5 0.0000 0.0000 0.0000 0.0000 34.2621 0.0000
# 6 0.0000 0.0000 0.0000 0.0000 0.0000 -4.9536
#
#
#
# Elastic Compliance Matrix: (Units=1/GPa)
#
#
# Indices 1 2 3 4 5 6 
#
# 1 0.011962 -0.001197 -0.003794 0.000000 0.000000 0.000000
# 2 -0.001197 0.011962 -0.003794 0.000000 0.000000 0.000000
# 3 -0.003794 -0.003794 0.007715 0.000000 0.000000 0.000000
# 4 0.000000 0.000000 0.000000 0.029187 0.000000 0.000000
# 5 0.000000 0.000000 0.000000 0.000000 0.029187 0.000000
# 6 0.000000 0.000000 0.000000 0.000000 0.000000 -0.201875
#
#
# Mechanical properties :
#
#
# Convention : Reuss Voigt Hill
#
# Bulk Modulus (GPa) = 71.07696 84.71442 77.89569
# Shear Modulus (GPa) = -55.80181 28.95636 -13.42272
#
# Velocity S-wave (km/s) = -5.45562 3.93000 -2.67572
# Velocity P-wave (km/s) = 1.33182 8.11040 5.65707
#
# Compressibility (1/GPa) = 0.01406926
#
# Stress axis : x y z
#
# Youngs Moduli (GPa) = 83.59827 83.59687 129.62035
#
# Poissons Ratio (x) = 0.10003 0.49179
# Poissons Ratio (y) = 0.10003 0.49180
# Poissons Ratio (z) = 0.31718 0.31718
#
# Static dielectric constant tensor:
#      x y z
#    x 1.677340 0.000000 0.000000 
#    y 0.000000 1.677340 0.000000 
#    z 0.000000 0.000000 1.962230 
# 
# From -- ./inp_files/3466.got.cif
#   From: 2010.05.17/outbox.cif.g08.bks.cpg/sg125_2_cif.got.tgz:3466.got - 2010.05.20 11:54:10.
