data_PCOD9563313
_publ_section_title
;
Structure prediction by ZEFSAII (Michael W. Deem and Ramdas Pophale) SiO2 
 PCOD9563313
Probable space group: P 4/N N C
;
_chemical_formula_sum "Si O2"
_cell_formula_units_Z 96
_cell_length_a 23.882493
_cell_length_b 23.882493
_cell_length_c 8.966897
_cell_angle_alpha 90.000000
_cell_angle_beta 90.000000
_cell_angle_gamma 90.000000
_cell_volume 5114.480174
_symmetry_space_group_name_H-M "P 4/N N C"
_symmetry_group_IT_number 126
_space_group.IT_coordinate_system_code '2'
_symmetry_cell_setting 'tetragonal'
loop_
_space_group_symop_operation_xyz
x,y,z
1/2-y,x,z
1/2-x,1/2-y,z
y,1/2-x,z
x,1/2-y,1/2-z
1/2-x,y,1/2-z
y,x,1/2-z
1/2-y,1/2-x,1/2-z
-x,-y,-z
1/2+y,-x,-z
1/2+x,1/2+y,-z
-y,1/2+x,-z
-x,1/2+y,1/2+z
1/2+x,-y,1/2+z
-y,-x,1/2+z
1/2+y,1/2+x,1/2+z
loop_
_atom_site_type_symbol
_atom_site_label
_atom_site_fract_x
_atom_site_fract_y
_atom_site_fract_z
Si Si1 0.062772 0.885682 0.444223
Si Si2 0.232686 0.447438 0.916274
Si Si3 0.404432 0.345969 0.135554
Si Si4 0.865792 0.461153 0.114381
Si Si5 0.695212 0.005430 0.659244
Si Si6 0.439651 0.063931 0.910896
O O1 0.065205 0.860073 0.278430
O O2 0.119834 0.917925 0.484110
O O3 0.050994 0.844639 0.583999
O O4 0.004414 0.921546 0.432768
O O5 0.250000 0.432333 0.750000
O O6 0.186206 0.497262 0.907202
O O7 0.202731 0.400041 0.014288
O O8 0.283407 0.470607 0.014814
O O9 0.354371 0.354371 0.250000
O O10 0.461336 0.333920 0.228935
O O11 0.412078 0.403626 0.045682
O O12 0.922456 0.499112 0.104757
O O13 0.750000 0.026028 0.750000
O O14 0.415729 0.084272 0.750000
#
# Coordination Sequence:
#
# PCOD9563313 Si02
#       6
#    16  16  16  16  16  16
#     4  11  20  33  49  75 105 143 187 225 267 321
#     4  10  20  38  51  71 107 154 185 226 277 332
#     4  10  19  31  54  77 101 141 188 232 261 320
#     4  10  22  31  50  73 106 147 189 225 263 324
#     4  10  21  34  52  72 107 146 185 226 278 316
#     4   9  19  33  46  72 109 145 180 218 262 312
#
# _framework density 18.770235
#
# number of rings (size 3 to 8) (size 9 to 14) (size 15 to 20)
#    0.000    2.000    3.333    0.500    7.000    0.000 
#    0.000    0.000    0.000    0.000    0.000    0.000 
#    0.000   31.000    0.000   58.000    0.000    2.000 
#
# Total GULP energy -534653.031208 kJ/mol
# GULP energy per Si atom -5569.302408 kJ/mol
# Density = 1.872751 g / cm^3
# Si number density = 18.770235 Si / 1000 Ang^3
#
#
#
# Elastic Constant Matrix: (Units=GPa)
#
#
# Indices 1 2 3 4 5 6 
#
# 1 24.5944 22.2842 26.0401 0.0000 0.0000 0.0000
# 2 22.2842 24.5937 26.0401 0.0000 0.0000 0.0000
# 3 26.0401 26.0401 136.4946 0.0000 0.0000 0.0000
# 4 0.0000 0.0000 0.0000 28.8683 0.0000 0.0000
# 5 0.0000 0.0000 0.0000 0.0000 28.8685 0.0000
# 6 0.0000 0.0000 0.0000 0.0000 0.0000 12.3600
#
#
#
# Elastic Compliance Matrix: (Units=1/GPa)
#
#
# Indices 1 2 3 4 5 6 
#
# 1 0.229994 -0.202929 -0.005164 0.000000 0.000000 0.000000
# 2 -0.202929 0.230002 -0.005165 0.000000 0.000000 0.000000
# 3 -0.005164 -0.005165 0.009297 0.000000 0.000000 0.000000
# 4 0.000000 0.000000 0.000000 0.034640 0.000000 0.000000
# 5 0.000000 0.000000 0.000000 0.000000 0.034640 0.000000
# 6 0.000000 0.000000 0.000000 0.000000 0.000000 0.080906
#
#
# Mechanical properties :
#
#
# Convention : Reuss Voigt Hill
#
# Bulk Modulus (GPa) = 23.37642 37.15684 30.26663
# Shear Modulus (GPa) = 4.71586 21.44058 13.07822
#
# Velocity S-wave (km/s) = 1.58678 3.38341 2.64247
# Velocity P-wave (km/s) = 3.97972 5.92468 5.04678
#
# Compressibility (1/GPa) = 0.04277814
#
# Stress axis : x y z
#
# Youngs Moduli (GPa) = 4.34794 4.34779 107.56487
#
# Poissons Ratio (x) = 0.88229 0.55541
# Poissons Ratio (y) = 0.88232 0.55555
# Poissons Ratio (z) = 0.02245 0.02246
#
# Static dielectric constant tensor:
#      x y z
#    x 1.681660 0.000000 0.000000 
#    y 0.000000 1.681660 0.000000 
#    z 0.000000 0.000000 1.734840 
# 
# From -- ./inp_files/1838.got.cif
#   From: 2010.05.17/outbox.cif.g08.bks.cpg/sg126_1_cif.got.tgz:1838.got - 2010.05.20 11:58:20.
