data_PCOD9563144
_publ_section_title
;
Structure prediction by ZEFSAII (Michael W. Deem and Ramdas Pophale) SiO2 
 PCOD9563144
Probable space group: P 4/N B M
;
_chemical_formula_sum "Si O2"
_cell_formula_units_Z 42
_cell_length_a 11.949292
_cell_length_b 11.949292
_cell_length_c 16.430757
_cell_angle_alpha 90.000000
_cell_angle_beta 90.000000
_cell_angle_gamma 90.000000
_cell_volume 2346.075157
_symmetry_space_group_name_H-M "P 4/N B M"
_symmetry_group_IT_number 125
_space_group.IT_coordinate_system_code '2'
_symmetry_cell_setting 'tetragonal'
loop_
_space_group_symop_operation_xyz
x,y,z
1/2-y,x,z
1/2-x,1/2-y,z
y,1/2-x,z
x,1/2-y,-z
1/2-x,y,-z
y,x,-z
1/2-y,1/2-x,-z
-x,-y,-z
1/2+y,-x,-z
1/2+x,1/2+y,-z
-y,1/2+x,-z
-x,1/2+y,z
1/2+x,-y,z
-y,-x,z
1/2+y,1/2+x,z
loop_
_atom_site_type_symbol
_atom_site_label
_atom_site_fract_x
_atom_site_fract_y
_atom_site_fract_z
Si Si1 0.721163 0.932628 0.254795
Si Si2 0.660929 0.339072 0.658934
Si Si3 0.254145 0.562958 0.908347
Si Si4 0.750000 0.250000 0.500000
O O1 0.626419 0.839962 0.269441
O O2 0.695788 0.039763 0.309907
O O3 0.726139 0.975850 0.161823
O O4 0.750000 0.250000 0.695597
O O5 0.676467 0.323534 0.562117
O O6 0.372339 0.627662 0.894680
O O7 0.159689 0.659689 0.905956
O O8 0.250000 0.516041 0.000000
#
# Coordination Sequence:
#
# PCOD9563144 Si02
#       4
#    16   8  16   2
#     4  11  24  38  59  94 129 165 206 252 303 356
#     4  10  22  43  70  90 118 155 197 247 303 376
#     4   9  18  33  55  85 122 167 215 259 301 346
#     4   8  24  44  72 104 106 152 204 228 312 388
#
# _framework density 17.902241
#
# number of rings (size 3 to 8) (size 9 to 14) (size 15 to 20)
#    0.571    1.524    1.905    2.286    5.333    1.524 
#    0.000    9.524    0.000    2.286    0.000    0.000 
#    0.000    0.000    0.000    0.000    0.000    0.000 
#
# Total GULP energy -234258.159131 kJ/mol
# GULP energy per Si atom -5577.575217 kJ/mol
# Density = 1.786149 g / cm^3
# Si number density = 17.902241 Si / 1000 Ang^3
#
#
#
# Elastic Constant Matrix: (Units=GPa)
#
#
# Indices 1 2 3 4 5 6 
#
# 1 119.7347 67.2380 70.7791 0.0000 0.0000 0.0000
# 2 67.2380 119.7347 70.7791 0.0000 0.0000 0.0000
# 3 70.7791 70.7791 130.1962 0.0000 0.0000 0.0000
# 4 0.0000 0.0000 0.0000 -1.6880 0.0000 0.0000
# 5 0.0000 0.0000 0.0000 0.0000 -1.6880 0.0000
# 6 0.0000 0.0000 0.0000 0.0000 0.0000 4.2138
#
#
#
# Elastic Compliance Matrix: (Units=1/GPa)
#
#
# Indices 1 2 3 4 5 6 
#
# 1 0.014069 -0.004980 -0.004941 0.000000 0.000000 0.000000
# 2 -0.004980 0.014069 -0.004941 0.000000 0.000000 0.000000
# 3 -0.004941 -0.004941 0.013053 0.000000 0.000000 0.000000
# 4 0.000000 0.000000 0.000000 -0.592434 0.000000 0.000000
# 5 0.000000 0.000000 0.000000 0.000000 -0.592434 0.000000
# 6 0.000000 0.000000 0.000000 0.000000 0.000000 0.237314
#
#
# Mechanical properties :
#
#
# Convention : Reuss Voigt Hill
#
# Bulk Modulus (GPa) = 87.20784 87.47311 87.34047
# Shear Modulus (GPa) = -5.72859 10.89222 2.58181
#
# Velocity S-wave (km/s) = -1.79077 2.46931 1.20221
# Velocity P-wave (km/s) = 6.67408 7.55630 7.12885
#
# Compressibility (1/GPa) = 0.01146686
#
# Stress axis : x y z
#
# Youngs Moduli (GPa) = 71.07744 71.07744 76.60890
#
# Poissons Ratio (x) = 0.35394 0.37855
# Poissons Ratio (y) = 0.35394 0.37855
# Poissons Ratio (z) = 0.35122 0.35122
#
# Static dielectric constant tensor:
#      x y z
#    x 1.607300 0.000000 0.000000 
#    y 0.000000 1.607300 0.000000 
#    z 0.000000 0.000000 1.609090 
# 
# From -- ./inp_files/5176.got.cif
#   From: 2010.05.17/outbox.cif.g08.bks.cpg/sg125_3_cif.got.tgz:5176.got - 2010.05.20 11:54:10.
