data_PCOD9563798
_publ_section_title
;
Structure prediction by ZEFSAII (Michael W. Deem and Ramdas Pophale) SiO2 
 PCOD9563798
Probable space group: P 4/M B M
;
_chemical_formula_sum "Si O2"
_cell_formula_units_Z 96
_cell_length_a 24.918069
_cell_length_b 24.918069
_cell_length_c 9.042223
_cell_angle_alpha 90.000000
_cell_angle_beta 90.000000
_cell_angle_gamma 90.000000
_cell_volume 5614.408154
_symmetry_space_group_name_H-M "P 4/M B M"
_symmetry_group_IT_number 127
_symmetry_cell_setting 'tetragonal'
loop_
_space_group_symop_operation_xyz
x,y,z
-y,x,z
-x,-y,z
y,-x,z
1/2+x,1/2-y,-z
1/2-x,1/2+y,-z
1/2+y,1/2+x,-z
1/2-y,1/2-x,-z
-x,-y,-z
y,-x,-z
x,y,-z
-y,x,-z
1/2-x,1/2+y,z
1/2+x,1/2-y,z
1/2-y,1/2-x,z
1/2+y,1/2+x,z
loop_
_atom_site_type_symbol
_atom_site_label
_atom_site_fract_x
_atom_site_fract_y
_atom_site_fract_z
Si Si1 0.000704 0.660610 0.171059
Si Si2 0.197657 0.697657 0.678652
Si Si3 0.359078 0.308936 0.323099
Si Si4 0.909313 0.803099 0.176890
Si Si5 0.712849 0.471424 0.828340
Si Si6 0.885765 0.385765 0.178508
Si Si7 0.398368 0.810235 0.328416
O O1 0.949120 0.655279 0.273605
O O2 0.017597 0.723296 0.175755
O O3 0.053244 0.628262 0.217394
O O4 0.987407 0.647836 0.000000
O O5 0.194913 0.694913 0.500000
O O6 0.178418 0.757758 0.721867
O O7 0.155453 0.655453 0.746561
O O8 0.356584 0.312535 0.500000
O O9 0.339204 0.364216 0.251659
O O10 0.419730 0.298773 0.269493
O O11 0.897055 0.742603 0.229138
O O12 0.971811 0.813608 0.218195
O O13 0.906207 0.806607 0.000000
O O14 0.698498 0.460425 0.000000
O O15 0.880184 0.380184 0.000000
O O16 0.405303 0.794905 0.500000
O O17 0.344925 0.844925 0.314087
#
# Coordination Sequence:
#
# PCOD9563798 Si02
#       7
#    16   8  16  16  16   8  16
#     4   9  18  32  52  76 101 135 180 224 267 318
#     4  10  22  34  48  79 117 146 174 212 267 322
#     4  11  22  35  54  82 116 146 177 218 264 319
#     4  10  22  38  57  81 108 142 181 220 264 316
#     4   9  18  35  56  77 104 139 180 220 261 316
#     4  10  18  32  53  77 104 137 178 224 267 315
#     4  10  21  36  53  73 102 140 180 223 271 322
#
# _framework density 17.098865
#
# number of rings (size 3 to 8) (size 9 to 14) (size 15 to 20)
#    0.000    2.167    1.667    2.500    1.167    6.000 
#    0.000    0.417    0.000    3.000    0.000    3.500 
#    0.000    0.000    0.000    0.000    0.000    0.000 
#
# Total GULP energy -535409.342852 kJ/mol
# GULP energy per Si atom -5577.180655 kJ/mol
# Density = 1.705995 g / cm^3
# Si number density = 17.098865 Si / 1000 Ang^3
#
#
#
# Elastic Constant Matrix: (Units=GPa)
#
#
# Indices 1 2 3 4 5 6 
#
# 1 66.3883 37.4259 34.2416 0.0000 0.0000 0.0000
# 2 37.4259 66.3883 34.2416 0.0000 0.0000 0.0000
# 3 34.2416 34.2416 48.1932 0.0000 0.0000 0.0000
# 4 0.0000 0.0000 0.0000 25.3295 0.0000 0.0000
# 5 0.0000 0.0000 0.0000 0.0000 25.3295 0.0000
# 6 0.0000 0.0000 0.0000 0.0000 0.0000 20.2058
#
#
#
# Elastic Compliance Matrix: (Units=1/GPa)
#
#
# Indices 1 2 3 4 5 6 
#
# 1 0.026329 -0.008199 -0.012882 0.000000 0.000000 0.000000
# 2 -0.008199 0.026329 -0.012882 0.000000 0.000000 0.000000
# 3 -0.012882 -0.012882 0.039055 0.000000 0.000000 0.000000
# 4 0.000000 0.000000 0.000000 0.039480 0.000000 0.000000
# 5 0.000000 0.000000 0.000000 0.000000 0.039480 0.000000
# 6 0.000000 0.000000 0.000000 0.000000 0.000000 0.049491
#
#
# Mechanical properties :
#
#
# Convention : Reuss Voigt Hill
#
# Bulk Modulus (GPa) = 42.03682 43.64312 42.83997
# Shear Modulus (GPa) = 16.89097 19.17702 18.03400
#
# Velocity S-wave (km/s) = 3.14640 3.35257 3.25112
# Velocity P-wave (km/s) = 6.15124 6.36912 6.26113
#
# Compressibility (1/GPa) = 0.02378867
#
# Stress axis : x y z
#
# Youngs Moduli (GPa) = 37.98107 37.98107 25.60501
#
# Poissons Ratio (x) = 0.31139 0.32984
# Poissons Ratio (y) = 0.31139 0.32984
# Poissons Ratio (z) = 0.48926 0.48926
#
# Static dielectric constant tensor:
#      x y z
#    x 1.578070 0.000000 0.000000 
#    y 0.000000 1.578070 0.000000 
#    z 0.000000 0.000000 1.575840 
# 
# From -- ./inp_files/2096.got.cif
#   From: 2010.05.17/outbox.cif.g08.bks.cpg/sg127_2_cif.got.tgz:2096.got - 2010.05.20 12:03:00.
