data_PCOD9563741
_publ_section_title
;
Structure prediction by ZEFSAII (Michael W. Deem and Ramdas Pophale) SiO2 
 PCOD9563741
Probable space group: P 4/M B M
;
_chemical_formula_sum "Si O2"
_cell_formula_units_Z 56
_cell_length_a 16.318428
_cell_length_b 16.318428
_cell_length_c 13.242118
_cell_angle_alpha 90.000000
_cell_angle_beta 90.000000
_cell_angle_gamma 90.000000
_cell_volume 3526.258068
_symmetry_space_group_name_H-M "P 4/M B M"
_symmetry_group_IT_number 127
_symmetry_cell_setting 'tetragonal'
loop_
_space_group_symop_operation_xyz
x,y,z
-y,x,z
-x,-y,z
y,-x,z
1/2+x,1/2-y,-z
1/2-x,1/2+y,-z
1/2+y,1/2+x,-z
1/2-y,1/2-x,-z
-x,-y,-z
y,-x,-z
x,y,-z
-y,x,-z
1/2-x,1/2+y,z
1/2+x,1/2-y,z
1/2-y,1/2-x,z
1/2+y,1/2+x,z
loop_
_atom_site_type_symbol
_atom_site_label
_atom_site_fract_x
_atom_site_fract_y
_atom_site_fract_z
Si Si1 0.503978 0.863513 0.500000
Si Si2 0.504025 0.863152 0.885651
Si Si3 0.712124 0.072702 0.304291
Si Si4 0.931988 0.883309 0.620626
O O1 0.591638 0.908363 0.500000
O O2 0.484894 0.812036 0.600424
O O3 0.436423 0.936423 0.500000
O O4 0.588210 0.911791 0.863487
O O5 0.477670 0.801434 0.798480
O O6 0.433750 0.933750 0.885239
O O7 0.507751 0.830140 0.000000
O O8 0.648423 0.148423 0.304823
O O9 0.804716 0.101184 0.321441
O O10 0.923407 0.870960 0.500000
O O11 0.029015 0.891981 0.643507
#
# Coordination Sequence:
#
# PCOD9563741 Si02
#       4
#     8  16  16  16
#     4   9  16  24  36  61  96 124 139 164 222 288
#     4   8  14  25  42  65  93 126 159 183 214 273
#     4  10  17  27  46  69  94 119 147 191 238 273
#     4   9  18  33  50  64  86 124 163 190 220 274
#
# _framework density 15.880856
#
# number of rings (size 3 to 8) (size 9 to 14) (size 15 to 20)
#    0.000    3.000    1.429    2.571    0.000    3.429 
#    0.000    2.857    0.000    1.714    0.000    6.000 
#    0.000    0.000    0.000    0.000    0.000    0.000 
#
# Total GULP energy -311749.151285 kJ/mol
# GULP energy per Si atom -5566.949130 kJ/mol
# Density = 1.584471 g / cm^3
# Si number density = 15.880856 Si / 1000 Ang^3
#
#
#
# Elastic Constant Matrix: (Units=GPa)
#
#
# Indices 1 2 3 4 5 6 
#
# 1 44.0953 1.6754 18.6375 0.0000 0.0000 0.0000
# 2 1.6754 44.0952 18.6374 0.0000 0.0000 0.0000
# 3 18.6375 18.6374 73.3945 0.0000 0.0000 0.0000
# 4 0.0000 0.0000 0.0000 13.8363 0.0000 0.0000
# 5 0.0000 0.0000 0.0000 0.0000 13.8359 0.0000
# 6 0.0000 0.0000 0.0000 0.0000 0.0000 4.6897
#
#
#
# Elastic Compliance Matrix: (Units=1/GPa)
#
#
# Indices 1 2 3 4 5 6 
#
# 1 0.025559 0.001985 -0.006994 0.000000 0.000000 0.000000
# 2 0.001985 0.025559 -0.006994 0.000000 0.000000 0.000000
# 3 -0.006994 -0.006994 0.017177 0.000000 0.000000 0.000000
# 4 0.000000 0.000000 0.000000 0.072274 0.000000 0.000000
# 5 0.000000 0.000000 0.000000 0.000000 0.072276 0.000000
# 6 0.000000 0.000000 0.000000 0.000000 0.000000 0.213234
#
#
# Mechanical properties :
#
#
# Convention : Reuss Voigt Hill
#
# Bulk Modulus (GPa) = 22.57952 26.60953 24.59452
# Shear Modulus (GPa) = 10.75618 14.64803 12.70210
#
# Velocity S-wave (km/s) = 2.60533 3.04035 2.83121
# Velocity P-wave (km/s) = 4.82693 5.39602 5.11939
#
# Compressibility (1/GPa) = 0.04428792
#
# Stress axis : x y z
#
# Youngs Moduli (GPa) = 39.12510 39.12503 58.21642
#
# Poissons Ratio (x) = -0.07767 0.40719
# Poissons Ratio (y) = -0.07767 0.40719
# Poissons Ratio (z) = 0.27366 0.27366
#
# Static dielectric constant tensor:
#      x y z
#    x 1.541620 0.000000 0.000000 
#    y 0.000000 1.541620 0.000000 
#    z 0.000000 0.000000 1.528550 
# 
# From -- ./inp_files/2951.got.cif
#   From: 2010.05.17/outbox.cif.g08.bks.cpg/sg127_2_cif.got.tgz:2951.got - 2010.05.20 12:03:00.
