data_PCOD9563750
_publ_section_title
;
Structure prediction by ZEFSAII (Michael W. Deem and Ramdas Pophale) SiO2 
 PCOD9563750
Probable space group: P 4/M B M
;
_chemical_formula_sum "Si O2"
_cell_formula_units_Z 120
_cell_length_a 18.485110
_cell_length_b 18.485110
_cell_length_c 16.260333
_cell_angle_alpha 90.000000
_cell_angle_beta 90.000000
_cell_angle_gamma 90.000000
_cell_volume 5556.144269
_symmetry_space_group_name_H-M "P 4/M B M"
_symmetry_group_IT_number 127
_symmetry_cell_setting 'tetragonal'
loop_
_space_group_symop_operation_xyz
x,y,z
-y,x,z
-x,-y,z
y,-x,z
1/2+x,1/2-y,-z
1/2-x,1/2+y,-z
1/2+y,1/2+x,-z
1/2-y,1/2-x,-z
-x,-y,-z
y,-x,-z
x,y,-z
-y,x,-z
1/2-x,1/2+y,z
1/2+x,1/2-y,z
1/2-y,1/2-x,z
1/2+y,1/2+x,z
loop_
_atom_site_type_symbol
_atom_site_label
_atom_site_fract_x
_atom_site_fract_y
_atom_site_fract_z
Si Si1 0.201105 0.417276 0.671846
Si Si2 0.308254 0.691749 0.152167
Si Si3 0.915356 0.915350 0.000000
Si Si4 0.298896 0.082724 0.328154
Si Si5 0.811962 0.811962 0.594877
Si Si6 0.805593 0.581723 0.128402
Si Si7 0.694410 0.918275 0.871598
Si Si8 0.414115 0.585889 0.809633
O O1 0.133314 0.366687 0.647891
O O2 0.193150 0.500000 0.645048
O O3 0.272933 0.381042 0.635179
O O4 0.201916 0.417829 0.771906
O O5 0.250000 0.750000 0.191225
O O6 0.362549 0.743549 0.102096
O O7 0.256456 0.637451 0.102097
O O8 0.355184 0.644820 0.218070
O O9 0.898282 0.898274 0.093917
O O10 0.000004 0.900220 0.000000
O O11 0.366688 0.133313 0.352110
O O12 0.227068 0.118960 0.364820
O O13 0.298084 0.082172 0.228094
O O14 0.828409 0.828409 0.500000
O O15 0.750001 0.750000 0.597947
O O16 0.882339 0.617662 0.107431
O O17 0.796352 0.499999 0.099628
O O18 0.617666 0.882335 0.892570
O O19 0.400667 0.500002 0.792900
#
# Coordination Sequence:
#
# PCOD9563750 Si02
#       8
#    16  16   8  16  16  16  16  16
#     4   9  17  29  45  64  84 106 133 166 203 240
#     4  10  18  27  40  60  87 115 140 167 202 241
#     4   7  12  24  41  60  80 104 135 171 212 252
#     4   9  17  29  45  64  84 106 133 166 203 240
#     4   9  17  29  44  60  79 105 134 159 188 237
#     4   9  17  28  42  60  83 110 137 166 200 239
#     4   9  17  28  42  60  83 110 137 166 200 239
#     4   9  16  27  44  63  82 106 139 177 212 247
#
# _framework density 21.597712000000001
#
# number of rings (size 3 to 8) (size 9 to 14) (size 15 to 20)
#    0.000    3.000    0.000    2.400    0.000    4.267 
#    0.000    3.000    0.000    0.400    0.000    8.400 
#    0.000    0.000    0.000    0.000    0.000   80.000 
#
# Total GULP energy -668454.663779 kJ/mol
# GULP energy per Si atom -5570.455531 kJ/mol
# Density = 2.154855 g / cm^3
# Si number density = 21.597712 Si / 1000 Ang^3
#
#
#
# Elastic Constant Matrix: (Units=GPa)
#
#
# Indices 1 2 3 4 5 6 
#
# 1 166.6583 78.5719 19.3921 0.0000 0.0000 0.0000
# 2 78.5719 166.6583 19.3921 0.0000 0.0000 0.0000
# 3 19.3921 19.3921 62.3342 0.0000 0.0000 0.0000
# 4 0.0000 0.0000 0.0000 46.6750 0.0000 0.0000
# 5 0.0000 0.0000 0.0000 0.0000 46.6750 0.0000
# 6 0.0000 0.0000 0.0000 0.0000 0.0000 27.7012
#
#
#
# Elastic Compliance Matrix: (Units=1/GPa)
#
#
# Indices 1 2 3 4 5 6 
#
# 1 0.007821 -0.003532 -0.001334 0.000000 0.000000 0.000000
# 2 -0.003532 0.007821 -0.001334 0.000000 0.000000 0.000000
# 3 -0.001334 -0.001334 0.016873 0.000000 0.000000 0.000000
# 4 0.000000 0.000000 0.000000 0.021425 0.000000 0.000000
# 5 0.000000 0.000000 0.000000 0.000000 0.021425 0.000000
# 6 0.000000 0.000000 0.000000 0.000000 0.000000 0.036100
#
#
# Mechanical properties :
#
#
# Convention : Reuss Voigt Hill
#
# Bulk Modulus (GPa) = 49.71817 70.04036 59.87927
# Shear Modulus (GPa) = 38.29418 42.76323 40.52870
#
# Velocity S-wave (km/s) = 4.21535 4.45453 4.33659
# Velocity P-wave (km/s) = 6.83830 7.67835 7.27047
#
# Compressibility (1/GPa) = 0.02011337
#
# Stress axis : x y z
#
# Youngs Moduli (GPa) = 127.86656 127.86656 59.26720
#
# Poissons Ratio (x) = 0.45160 0.07908
# Poissons Ratio (y) = 0.45160 0.07908
# Poissons Ratio (z) = 0.17061 0.17061
#
# Static dielectric constant tensor:
#      x y z
#    x 1.837640 0.000000 0.000000 
#    y 0.000000 1.837640 0.000000 
#    z 0.000000 0.000000 2.115050 
# 
# From -- ./inp_files/5970.got.cif
#   From: 2010.05.17/outbox.cif.g08.bks.cpg/sg127_3_cif.got.tgz:5970.got - 2010.05.20 12:03:00.
