data_PCOD9563221
_publ_section_title
;
Structure prediction by ZEFSAII (Michael W. Deem and Ramdas Pophale) SiO2 
 PCOD9563221
Probable space group: P 4/N B M
;
_chemical_formula_sum "Si O2"
_cell_formula_units_Z 96
_cell_length_a 14.752839
_cell_length_b 14.752839
_cell_length_c 24.022447
_cell_angle_alpha 90.000000
_cell_angle_beta 90.000000
_cell_angle_gamma 90.000000
_cell_volume 5228.395711
_symmetry_space_group_name_H-M "P 4/N B M"
_symmetry_group_IT_number 125
_space_group.IT_coordinate_system_code '2'
_symmetry_cell_setting 'tetragonal'
loop_
_space_group_symop_operation_xyz
x,y,z
1/2-y,x,z
1/2-x,1/2-y,z
y,1/2-x,z
x,1/2-y,-z
1/2-x,y,-z
y,x,-z
1/2-y,1/2-x,-z
-x,-y,-z
1/2+y,-x,-z
1/2+x,1/2+y,-z
-y,1/2+x,-z
-x,1/2+y,z
1/2+x,-y,z
-y,-x,z
1/2+y,1/2+x,z
loop_
_atom_site_type_symbol
_atom_site_label
_atom_site_fract_x
_atom_site_fract_y
_atom_site_fract_z
Si Si1 0.632492 0.848704 0.437784
Si Si2 0.956435 0.896979 0.675437
Si Si3 0.674236 0.174236 0.204657
Si Si4 0.818890 0.882632 0.853058
Si Si5 0.482172 0.294376 0.738891
Si Si6 0.968400 0.838430 0.032079
Si Si7 0.328293 0.671708 0.070010
O O1 0.628412 0.739349 0.431941
O O2 0.614498 0.885503 0.500000
O O3 0.567697 0.882901 0.389241
O O4 0.957726 0.801445 0.709496
O O5 0.875348 0.961632 0.696581
O O6 0.050638 0.949363 0.683504
O O7 0.750000 0.250000 0.211663
O O8 0.582376 0.205821 0.235092
O O9 0.662139 0.162139 0.137583
O O10 0.712351 0.867714 0.859792
O O11 0.852787 0.940642 0.904078
O O12 0.824341 0.921054 0.791498
O O13 0.073680 0.812349 0.042012
O O14 0.927989 0.750000 0.000000
O O15 0.926045 0.926045 0.000000
O O16 0.250000 0.750000 0.061721
#
# Coordination Sequence:
#
# PCOD9563221 Si02
#       7
#    16  16   8  16  16  16   8
#     4   9  18  35  61  91 125 164 209 263 319 369
#     4  12  24  37  62  94 126 171 218 262 313 382
#     4  11  24  45  65  85 130 173 205 260 325 389
#     4  11  22  38  62  93 124 156 195 258 330 384
#     4  12  23  40  62  95 126 160 214 264 316 379
#     4  12  25  42  66  95 124 159 210 269 318 392
#     4  11  27  47  67  89 123 172 216 259 329 393
#
# _framework density 18.361273000000001
#
# number of rings (size 3 to 8) (size 9 to 14) (size 15 to 20)
#    0.000    0.833    7.500    1.250    1.167    0.833 
#    0.000    0.000    1.833    0.000    0.000    0.000 
#    0.000    2.667    0.000    0.000    0.000    0.000 
#
# Total GULP energy -534420.553242 kJ/mol
# GULP energy per Si atom -5566.880763 kJ/mol
# Density = 1.831948 g / cm^3
# Si number density = 18.361273 Si / 1000 Ang^3
#
#
#
# Elastic Constant Matrix: (Units=GPa)
#
#
# Indices 1 2 3 4 5 6 
#
# 1 82.9627 22.9236 41.2550 0.0000 0.0000 0.0000
# 2 22.9236 82.9626 41.2549 0.0000 0.0000 0.0000
# 3 41.2550 41.2549 128.8470 0.0000 0.0000 0.0000
# 4 0.0000 0.0000 0.0000 29.5778 0.0000 0.0000
# 5 0.0000 0.0000 0.0000 0.0000 29.5779 0.0000
# 6 0.0000 0.0000 0.0000 0.0000 0.0000 23.6100
#
#
#
# Elastic Compliance Matrix: (Units=1/GPa)
#
#
# Indices 1 2 3 4 5 6 
#
# 1 0.014620 -0.002036 -0.004029 0.000000 0.000000 0.000000
# 2 -0.002036 0.014620 -0.004029 0.000000 0.000000 0.000000
# 3 -0.004029 -0.004029 0.010341 0.000000 0.000000 0.000000
# 4 0.000000 0.000000 0.000000 0.033809 0.000000 0.000000
# 5 0.000000 0.000000 0.000000 0.000000 0.033809 0.000000
# 6 0.000000 0.000000 0.000000 0.000000 0.000000 0.042355
#
#
# Mechanical properties :
#
#
# Convention : Reuss Voigt Hill
#
# Bulk Modulus (GPa) = 51.56707 56.18214 53.87460
# Shear Modulus (GPa) = 28.37578 29.17572 28.77575
#
# Velocity S-wave (km/s) = 3.93544 3.99053 3.96308
# Velocity P-wave (km/s) = 6.98541 7.20396 7.09552
#
# Compressibility (1/GPa) = 0.01939222
#
# Stress axis : x y z
#
# Youngs Moduli (GPa) = 68.40055 68.40045 96.69982
#
# Poissons Ratio (x) = 0.13927 0.38962
# Poissons Ratio (y) = 0.13927 0.38962
# Poissons Ratio (z) = 0.27559 0.27559
#
# Static dielectric constant tensor:
#      x y z
#    x 1.733300 0.000000 0.000000 
#    y 0.000000 1.733300 0.000000 
#    z 0.000000 0.000000 1.705530 
# 
# From -- ./inp_files/5981.got.cif
#   From: 2010.05.17/outbox.cif.g08.bks.cpg/sg125_3_cif.got.tgz:5981.got - 2010.05.20 11:54:10.
