data_PCOD9563879
_publ_section_title
;
Structure prediction by ZEFSAII (Michael W. Deem and Ramdas Pophale) SiO2 
 PCOD9563879
Probable space group: P 4/M B M
;
_chemical_formula_sum "Si O2"
_cell_formula_units_Z 72
_cell_length_a 23.231714
_cell_length_b 23.231714
_cell_length_c 9.467259
_cell_angle_alpha 90.000000
_cell_angle_beta 90.000000
_cell_angle_gamma 90.000000
_cell_volume 5109.598358
_symmetry_space_group_name_H-M "P 4/M B M"
_symmetry_group_IT_number 127
_symmetry_cell_setting 'tetragonal'
loop_
_space_group_symop_operation_xyz
x,y,z
-y,x,z
-x,-y,z
y,-x,z
1/2+x,1/2-y,-z
1/2-x,1/2+y,-z
1/2+y,1/2+x,-z
1/2-y,1/2-x,-z
-x,-y,-z
y,-x,-z
x,y,-z
-y,x,-z
1/2-x,1/2+y,z
1/2+x,1/2-y,z
1/2-y,1/2-x,z
1/2+y,1/2+x,z
loop_
_atom_site_type_symbol
_atom_site_label
_atom_site_fract_x
_atom_site_fract_y
_atom_site_fract_z
Si Si1 0.335444 0.016958 0.668849
Si Si2 0.229999 0.632823 0.666113
Si Si3 0.288661 0.310393 0.162488
Si Si4 0.707296 0.110951 0.667248
Si Si5 0.548727 0.951274 0.167047
O O1 0.348577 0.019321 0.500000
O O2 0.309204 0.954499 0.700187
O O3 0.290969 0.068602 0.698707
O O4 0.393046 0.028057 0.756992
O O5 0.244628 0.636607 0.500000
O O6 0.175112 0.675112 0.688620
O O7 0.282034 0.657373 0.758285
O O8 0.239393 0.260608 0.165666
O O9 0.260149 0.363555 0.244431
O O10 0.301089 0.323827 0.000000
O O11 0.719980 0.115277 0.500000
O O12 0.652091 0.152091 0.694531
O O13 0.500000 0.000000 0.183048
O O14 0.558303 0.941698 0.000000
#
# Coordination Sequence:
#
# PCOD9563879 Si02
#       5
#    16  16  16  16   8
#     4  10  19  32  48  65  85 115 155 192 224 261
#     4   9  16  28  45  64  85 109 142 184 224 261
#     4   9  17  28  43  62  84 111 142 177 221 269
#     4   9  17  29  45  64  85 113 148 185 222 259
#     4  11  23  33  41  59  89 125 159 191 225 260
#
# _framework density 14.091127
#
# number of rings (size 3 to 8) (size 9 to 14) (size 15 to 20)
#    0.000    2.556    1.111    1.667    0.000    6.222 
#    0.000    2.222    0.000    0.000    0.000    0.000 
#    0.000    0.889    0.000   10.222    0.000    4.000 
#
# Total GULP energy -401326.448724 kJ/mol
# GULP energy per Si atom -5573.978455 kJ/mol
# Density = 1.405905 g / cm^3
# Si number density = 14.091127 Si / 1000 Ang^3
#
#
#
# Elastic Constant Matrix: (Units=GPa)
#
#
# Indices 1 2 3 4 5 6 
#
# 1 84.4640 77.3707 69.4532 0.0000 0.0000 0.0000
# 2 77.3707 84.4645 69.4533 0.0000 0.0000 0.0000
# 3 69.4532 69.4533 78.9591 0.0000 0.0000 0.0000
# 4 0.0000 0.0000 0.0000 12.5204 0.0000 0.0000
# 5 0.0000 0.0000 0.0000 0.0000 12.5205 0.0000
# 6 0.0000 0.0000 0.0000 0.0000 0.0000 19.5450
#
#
#
# Elastic Compliance Matrix: (Units=1/GPa)
#
#
# Indices 1 2 3 4 5 6 
#
# 1 0.083097 -0.057877 -0.022184 0.000000 0.000000 0.000000
# 2 -0.057877 0.083096 -0.022183 0.000000 0.000000 0.000000
# 3 -0.022184 -0.022183 0.051691 0.000000 0.000000 0.000000
# 4 0.000000 0.000000 0.000000 0.079870 0.000000 0.000000
# 5 0.000000 0.000000 0.000000 0.000000 0.079869 0.000000
# 6 0.000000 0.000000 0.000000 0.000000 0.000000 0.051164
#
#
# Mechanical properties :
#
#
# Convention : Reuss Voigt Hill
#
# Bulk Modulus (GPa) = 74.65006 75.60468 75.12737
# Shear Modulus (GPa) = 7.84018 11.02453 9.43236
#
# Velocity S-wave (km/s) = 2.36135 2.80013 2.59005
# Velocity P-wave (km/s) = 7.77987 8.01404 7.89782
#
# Compressibility (1/GPa) = 0.01339584
#
# Stress axis : x y z
#
# Youngs Moduli (GPa) = 12.03409 12.03426 19.34581
#
# Poissons Ratio (x) = 0.69650 0.42917
# Poissons Ratio (y) = 0.69649 0.42915
# Poissons Ratio (z) = 0.26697 0.26696
#
# Static dielectric constant tensor:
#      x y z
#    x 1.443700 0.000000 0.000000 
#    y 0.000000 1.443700 0.000000 
#    z 0.000000 0.000000 1.470710 
# 
# From -- ./inp_files/1565.got.cif
#   From: 2010.05.17/outbox.cif.g08.bks.cpg/sg127_1_cif.got.tgz:1565.got - 2010.05.20 12:03:00.
