data_PCOD9563038
_publ_section_title
;
Structure prediction by ZEFSAII (Michael W. Deem and Ramdas Pophale) SiO2 
 PCOD9563038
Probable space group: P 4/N B M
;
_chemical_formula_sum "Si O2"
_cell_formula_units_Z 96
_cell_length_a 15.571688
_cell_length_b 15.571688
_cell_length_c 20.711284
_cell_angle_alpha 90.000000
_cell_angle_beta 90.000000
_cell_angle_gamma 90.000000
_cell_volume 5022.019686
_symmetry_space_group_name_H-M "P 4/N B M"
_symmetry_group_IT_number 125
_space_group.IT_coordinate_system_code '2'
_symmetry_cell_setting 'tetragonal'
loop_
_space_group_symop_operation_xyz
x,y,z
1/2-y,x,z
1/2-x,1/2-y,z
y,1/2-x,z
x,1/2-y,-z
1/2-x,y,-z
y,x,-z
1/2-y,1/2-x,-z
-x,-y,-z
1/2+y,-x,-z
1/2+x,1/2+y,-z
-y,1/2+x,-z
-x,1/2+y,z
1/2+x,-y,z
-y,-x,z
1/2+y,1/2+x,z
loop_
_atom_site_type_symbol
_atom_site_label
_atom_site_fract_x
_atom_site_fract_y
_atom_site_fract_z
Si Si1 0.573876 0.215736 0.336970
Si Si2 0.168723 0.533876 0.456122
Si Si3 0.394168 0.753874 0.929614
Si Si4 0.543218 0.188123 0.798304
Si Si5 0.175489 0.371395 0.249067
Si Si6 0.432525 0.071417 0.365109
O O1 0.662465 0.162465 0.336703
O O2 0.571320 0.290950 0.389633
O O3 0.555555 0.252263 0.265247
O O4 0.499809 0.148910 0.359622
O O5 0.250000 0.511820 0.500000
O O6 0.107279 0.607279 0.486322
O O7 0.108351 0.455717 0.433143
O O8 0.321144 0.678857 0.931481
O O9 0.342393 0.842393 0.923546
O O10 0.447789 0.738427 0.865361
O O11 0.438029 0.750000 0.000000
O O12 0.617059 0.117059 0.795500
O O13 0.449314 0.145593 0.795349
O O14 0.137053 0.277447 0.239951
O O15 0.146375 0.402384 0.319708
O O16 0.487094 0.987094 0.343279
#
# Coordination Sequence:
#
# PCOD9563038 Si02
#       6
#    16  16  16  16  16  16
#     4  11  22  35  55  83 112 145 187 232 285 347
#     4  11  23  38  55  76 110 152 191 233 284 341
#     4   8  15  29  50  80 119 158 192 230 284 346
#     4  11  20  33  56  86 117 149 188 236 289 338
#     4  11  21  36  57  81 110 147 190 231 279 331
#     4  10  20  38  59  81 111 144 186 237 290 344
#
# _framework density 19.115814
#
# number of rings (size 3 to 8) (size 9 to 14) (size 15 to 20)
#    0.000    1.667    3.333    2.500    0.000    3.500 
#    0.000    2.500    0.000    1.000    0.000    5.833 
#    0.000    0.000    0.000    0.000    0.000    0.000 
#
# Total GULP energy -535487.050137 kJ/mol
# GULP energy per Si atom -5577.990106 kJ/mol
# Density = 1.907231 g / cm^3
# Si number density = 19.115814 Si / 1000 Ang^3
#
#
#
# Elastic Constant Matrix: (Units=GPa)
#
#
# Indices 1 2 3 4 5 6 
#
# 1 80.0934 21.9925 29.3836 0.0000 0.0000 0.0000
# 2 21.9925 80.0934 29.3836 0.0000 0.0000 0.0000
# 3 29.3836 29.3836 104.8806 0.0000 0.0000 0.0000
# 4 0.0000 0.0000 0.0000 17.6026 0.0000 0.0000
# 5 0.0000 0.0000 0.0000 0.0000 17.6026 0.0000
# 6 0.0000 0.0000 0.0000 0.0000 0.0000 23.5262
#
#
#
# Elastic Compliance Matrix: (Units=1/GPa)
#
#
# Indices 1 2 3 4 5 6 
#
# 1 0.014445 -0.002766 -0.003272 0.000000 0.000000 0.000000
# 2 -0.002766 0.014445 -0.003272 0.000000 0.000000 0.000000
# 3 -0.003272 -0.003272 0.011368 0.000000 0.000000 0.000000
# 4 0.000000 0.000000 0.000000 0.056810 0.000000 0.000000
# 5 0.000000 0.000000 0.000000 0.000000 0.056810 0.000000
# 6 0.000000 0.000000 0.000000 0.000000 0.000000 0.042506
#
#
# Mechanical properties :
#
#
# Convention : Reuss Voigt Hill
#
# Bulk Modulus (GPa) = 46.21434 47.39851 46.80643
# Shear Modulus (GPa) = 22.50051 24.03348 23.26699
#
# Velocity S-wave (km/s) = 3.43456 3.54963 3.49257
# Velocity P-wave (km/s) = 6.32113 6.45361 6.38771
#
# Compressibility (1/GPa) = 0.02163830
#
# Stress axis : x y z
#
# Youngs Moduli (GPa) = 69.22630 69.22630 87.96549
#
# Poissons Ratio (x) = 0.19148 0.28783
# Poissons Ratio (y) = 0.19148 0.28783
# Poissons Ratio (z) = 0.22652 0.22652
#
# Static dielectric constant tensor:
#      x y z
#    x 1.692550 0.000000 0.000000 
#    y 0.000000 1.692550 0.000000 
#    z 0.000000 0.000000 1.678780 
# 
# From -- ./inp_files/5903.got.cif
#   From: 2010.05.17/outbox.cif.g08.bks.cpg/sg125_3_cif.got.tgz:5903.got - 2010.05.20 11:54:10.
