data_PCOD9563995
_publ_section_title
;
Structure prediction by ZEFSAII (Michael W. Deem and Ramdas Pophale) SiO2 
 PCOD9563995
Probable space group: P 4/M B M
;
_chemical_formula_sum "Si O2"
_cell_formula_units_Z 96
_cell_length_a 27.795735
_cell_length_b 27.795735
_cell_length_c 9.072495
_cell_angle_alpha 90.000000
_cell_angle_beta 90.000000
_cell_angle_gamma 90.000000
_cell_volume 7009.435804
_symmetry_space_group_name_H-M "P 4/M B M"
_symmetry_group_IT_number 127
_symmetry_cell_setting 'tetragonal'
loop_
_space_group_symop_operation_xyz
x,y,z
-y,x,z
-x,-y,z
y,-x,z
1/2+x,1/2-y,-z
1/2-x,1/2+y,-z
1/2+y,1/2+x,-z
1/2-y,1/2-x,-z
-x,-y,-z
y,-x,-z
x,y,-z
-y,x,-z
1/2-x,1/2+y,z
1/2+x,1/2-y,z
1/2-y,1/2-x,z
1/2+y,1/2+x,z
loop_
_atom_site_type_symbol
_atom_site_label
_atom_site_fract_x
_atom_site_fract_y
_atom_site_fract_z
Si Si1 0.502178 0.829659 0.328621
Si Si2 0.998533 0.579535 0.838938
Si Si3 0.319109 0.899013 0.178386
Si Si4 0.759674 0.177184 0.168747
Si Si5 0.673503 0.744287 0.333536
Si Si6 0.896039 0.316028 0.176288
O O1 0.501881 0.817028 0.500000
O O2 0.503936 0.886717 0.299115
O O3 0.451503 0.816824 0.250734
O O4 0.551570 0.813362 0.250301
O O5 0.948405 0.551596 0.835803
O O6 0.039953 0.539953 0.839134
O O7 0.001675 0.605125 0.000000
O O8 0.365548 0.865548 0.220422
O O9 0.271241 0.868721 0.218407
O O10 0.320564 0.902803 0.000000
O O11 0.720071 0.220071 0.165687
O O12 0.803301 0.196055 0.267305
O O13 0.775617 0.169864 0.000000
O O14 0.655484 0.737682 0.500000
O O15 0.717150 0.782851 0.339904
O O16 0.634527 0.770212 0.231021
O O17 0.863989 0.363989 0.217367
O O18 0.900136 0.316544 0.000000
#
# Coordination Sequence:
#
# PCOD9563995 Si02
#       6
#    16  16  16  16  16  16
#     4  12  23  30  39  57  80 102 127 165 210 248
#     4   9  18  32  46  55  65  89 127 166 203 245
#     4   9  18  32  47  60  77 105 139 170 199 238
#     4   8  14  26  44  63  80 100 128 159 191 232
#     4   9  16  26  42  64  86 102 119 153 200 242
#     4  10  20  33  47  59  74 102 138 170 201 243
#
# _framework density 13.695824
#
# number of rings (size 3 to 8) (size 9 to 14) (size 15 to 20)
#    0.000    2.500    0.000    5.000    0.000    8.667 
#    0.000    2.500    0.000    0.000    0.000    0.000 
#    0.000    0.000    0.000    0.000    0.000    0.833 
#
# Total GULP energy -534500.560944 kJ/mol
# GULP energy per Si atom -5567.714176 kJ/mol
# Density = 1.366465 g / cm^3
# Si number density = 13.695824 Si / 1000 Ang^3
#
#
#
# Elastic Constant Matrix: (Units=GPa)
#
#
# Indices 1 2 3 4 5 6 
#
# 1 63.5283 45.9621 35.9611 0.0000 0.0000 0.0000
# 2 45.9621 63.5283 35.9611 0.0000 0.0000 0.0000
# 3 35.9611 35.9611 63.8639 0.0000 0.0000 0.0000
# 4 0.0000 0.0000 0.0000 8.6430 0.0000 0.0000
# 5 0.0000 0.0000 0.0000 0.0000 8.6430 0.0000
# 6 0.0000 0.0000 0.0000 0.0000 0.0000 19.0349
#
#
#
# Elastic Compliance Matrix: (Units=1/GPa)
#
#
# Indices 1 2 3 4 5 6 
#
# 1 0.035711 -0.021216 -0.008162 0.000000 0.000000 0.000000
# 2 -0.021216 0.035711 -0.008162 0.000000 0.000000 0.000000
# 3 -0.008162 -0.008162 0.024850 0.000000 0.000000 0.000000
# 4 0.000000 0.000000 0.000000 0.115700 0.000000 0.000000
# 5 0.000000 0.000000 0.000000 0.000000 0.115700 0.000000
# 6 0.000000 0.000000 0.000000 0.000000 0.000000 0.052535
#
#
# Mechanical properties :
#
#
# Convention : Reuss Voigt Hill
#
# Bulk Modulus (GPa) = 47.18756 47.40989 47.29872
# Shear Modulus (GPa) = 10.81431 12.13329 11.47380
#
# Velocity S-wave (km/s) = 2.81304 2.97966 2.89755
# Velocity P-wave (km/s) = 6.71414 6.82124 6.76790
#
# Compressibility (1/GPa) = 0.02119203
#
# Stress axis : x y z
#
# Youngs Moduli (GPa) = 28.00264 28.00264 40.24172
#
# Poissons Ratio (x) = 0.59412 0.32844
# Poissons Ratio (y) = 0.59412 0.32844
# Poissons Ratio (z) = 0.22855 0.22855
#
# Static dielectric constant tensor:
#      x y z
#    x 1.455130 0.000000 0.000000 
#    y 0.000000 1.455130 0.000000 
#    z 0.000000 0.000000 1.476540 
# 
# From -- ./inp_files/2217.got.cif
#   From: 2010.05.17/outbox.cif.g08.bks.cpg/sg127_2_cif.got.tgz:2217.got - 2010.05.20 12:03:00.
