data_PCOD9563714
_publ_section_title
;
Structure prediction by ZEFSAII (Michael W. Deem and Ramdas Pophale) SiO2 
 PCOD9563714
Probable space group: P 4/N N C
;
_chemical_formula_sum "Si O2"
_cell_formula_units_Z 116
_cell_length_a 17.653992
_cell_length_b 17.653992
_cell_length_c 19.213983
_cell_angle_alpha 90.000000
_cell_angle_beta 90.000000
_cell_angle_gamma 90.000000
_cell_volume 5988.295914
_symmetry_space_group_name_H-M "P 4/N N C"
_symmetry_group_IT_number 126
_space_group.IT_coordinate_system_code '2'
_symmetry_cell_setting 'tetragonal'
loop_
_space_group_symop_operation_xyz
x,y,z
1/2-y,x,z
1/2-x,1/2-y,z
y,1/2-x,z
x,1/2-y,1/2-z
1/2-x,y,1/2-z
y,x,1/2-z
1/2-y,1/2-x,1/2-z
-x,-y,-z
1/2+y,-x,-z
1/2+x,1/2+y,-z
-y,1/2+x,-z
-x,1/2+y,1/2+z
1/2+x,-y,1/2+z
-y,-x,1/2+z
1/2+y,1/2+x,1/2+z
loop_
_atom_site_type_symbol
_atom_site_label
_atom_site_fract_x
_atom_site_fract_y
_atom_site_fract_z
Si Si1 0.035431 0.178444 0.058247
Si Si2 0.249827 0.567873 0.832734
Si Si3 0.250379 0.122369 0.325164
Si Si4 0.086775 0.021809 0.019160
Si Si5 0.433224 0.222377 0.924591
Si Si6 0.364523 0.826026 0.582576
Si Si7 0.750000 0.750000 0.418208
Si Si8 0.130837 0.847093 0.577272
O O1 0.068152 0.240517 0.110387
O O2 0.083889 0.102298 0.057352
O O3 0.952870 0.154382 0.082995
O O4 0.037525 0.216812 0.982389
O O5 0.250000 0.577640 0.750000
O O6 0.261840 0.480496 0.854854
O O7 0.313948 0.619396 0.870531
O O8 0.173738 0.597579 0.870302
O O9 0.321549 0.178051 0.327988
O O10 0.250000 0.083047 0.250000
O O11 0.124186 0.954174 0.063005
O O12 0.140885 0.038525 0.953280
O O13 0.000000 0.000000 0.000000
O O14 0.342518 0.228681 0.919829
O O15 0.360101 0.738391 0.604148
O O16 0.345010 0.833761 0.500613
#
# Coordination Sequence:
#
# PCOD9563714 Si02
#       8
#    16  16  16  16  16  16   4  16
#     4  12  21  37  67 100 137 176 228 290 348 411
#     4  12  27  49  70  99 138 187 234 302 370 423
#     4   9  20  37  56  83 127 179 216 262 337 404
#     4  12  21  37  68 104 139 181 238 291 349 415
#     4  12  23  43  69 107 142 183 235 301 343 435
#     4  12  22  40  70 102 130 178 230 285 353 429
#     4  12  28  40  77 120 145 180 256 290 352 416
#     4  12  22  40  70 102 133 177 233 284 355 423
#
# _framework density 19.371120999999999
#
# number of rings (size 3 to 8) (size 9 to 14) (size 15 to 20)
#    0.000    0.414    8.276    1.655    0.000    1.103 
#    2.483    1.034    0.000    0.000    0.000    0.000 
#    0.000    0.000    0.000    0.000    0.000    0.000 
#
# Total GULP energy -646673.581802 kJ/mol
# GULP energy per Si atom -5574.772257 kJ/mol
# Density = 1.932703 g / cm^3
# Si number density = 19.371121 Si / 1000 Ang^3
#
#
#
# Elastic Constant Matrix: (Units=GPa)
#
#
# Indices 1 2 3 4 5 6 
#
# 1 126.3017 19.4499 36.7561 0.0000 0.0000 0.0000
# 2 19.4499 126.3017 36.7561 0.0000 0.0000 0.0000
# 3 36.7561 36.7561 115.1846 0.0000 0.0000 0.0000
# 4 0.0000 0.0000 0.0000 17.9418 0.0000 0.0000
# 5 0.0000 0.0000 0.0000 0.0000 17.9418 0.0000
# 6 0.0000 0.0000 0.0000 0.0000 0.0000 26.4947
#
#
#
# Elastic Compliance Matrix: (Units=1/GPa)
#
#
# Indices 1 2 3 4 5 6 
#
# 1 0.008768 -0.000591 -0.002609 0.000000 0.000000 0.000000
# 2 -0.000591 0.008768 -0.002609 0.000000 0.000000 0.000000
# 3 -0.002609 -0.002609 0.010347 0.000000 0.000000 0.000000
# 4 0.000000 0.000000 0.000000 0.055736 0.000000 0.000000
# 5 0.000000 0.000000 0.000000 0.000000 0.055736 0.000000
# 6 0.000000 0.000000 0.000000 0.000000 0.000000 0.037743
#
#
# Mechanical properties :
#
#
# Convention : Reuss Voigt Hill
#
# Bulk Modulus (GPa) = 61.48646 61.52361 61.50504
# Shear Modulus (GPa) = 25.75485 30.79738 28.27612
#
# Velocity S-wave (km/s) = 3.65025 3.99163 3.82475
# Velocity P-wave (km/s) = 7.04102 7.28516 7.16413
#
# Compressibility (1/GPa) = 0.01626374
#
# Stress axis : x y z
#
# Youngs Moduli (GPa) = 114.05233 114.05233 96.64599
#
# Poissons Ratio (x) = 0.06739 0.25218
# Poissons Ratio (y) = 0.06739 0.25218
# Poissons Ratio (z) = 0.29760 0.29760
#
# Static dielectric constant tensor:
#      x y z
#    x 1.735060 0.000000 0.000000 
#    y 0.000000 1.735060 0.000000 
#    z 0.000000 0.000000 1.662870 
# 
# From -- ./inp_files/4636.got.cif
#   From: 2010.05.17/outbox.cif.g08.bks.cpg/sg126_3_cif.got.tgz:4636.got - 2010.05.20 11:58:20.
