data_PCOD9563287
_publ_section_title
;
Structure prediction by ZEFSAII (Michael W. Deem and Ramdas Pophale) SiO2 
 PCOD9563287
Probable space group: P 4/N N C
;
_chemical_formula_sum "Si O2"
_cell_formula_units_Z 80
_cell_length_a 31.898155
_cell_length_b 31.898155
_cell_length_c 5.055058
_cell_angle_alpha 90.000000
_cell_angle_beta 90.000000
_cell_angle_gamma 90.000000
_cell_volume 5143.482553
_symmetry_space_group_name_H-M "P 4/N N C"
_symmetry_group_IT_number 126
_space_group.IT_coordinate_system_code '2'
_symmetry_cell_setting 'tetragonal'
loop_
_space_group_symop_operation_xyz
x,y,z
1/2-y,x,z
1/2-x,1/2-y,z
y,1/2-x,z
x,1/2-y,1/2-z
1/2-x,y,1/2-z
y,x,1/2-z
1/2-y,1/2-x,1/2-z
-x,-y,-z
1/2+y,-x,-z
1/2+x,1/2+y,-z
-y,1/2+x,-z
-x,1/2+y,1/2+z
1/2+x,-y,1/2+z
-y,-x,1/2+z
1/2+y,1/2+x,1/2+z
loop_
_atom_site_type_symbol
_atom_site_label
_atom_site_fract_x
_atom_site_fract_y
_atom_site_fract_z
Si Si1 0.481463 0.204796 0.809805
Si Si2 0.383576 0.447236 0.689904
Si Si3 0.115653 0.578722 0.303264
Si Si4 0.960924 0.204294 0.189531
Si Si5 0.511272 0.924428 0.810547
O O1 0.461596 0.250000 0.750000
O O2 0.453323 0.164933 0.747824
O O3 0.520715 0.202734 0.605946
O O4 0.500015 0.202158 0.104511
O O5 0.401343 0.401343 0.750000
O O6 0.395864 0.462698 0.397925
O O7 0.409696 0.476388 0.895520
O O8 0.111279 0.596730 0.595560
O O9 0.163285 0.566430 0.239989
O O10 0.086797 0.537043 0.272590
O O11 0.941289 0.250000 0.250000
O O12 0.528882 0.971119 0.750000
#
# Coordination Sequence:
#
# PCOD9563287 Si02
#       5
#    16  16  16  16  16
#     4  10  17  29  49  67  85 114 155 192 230 273
#     4  10  17  29  46  63  89 120 155 191 225 263
#     4  12  22  32  49  68  94 119 156 192 219 262
#     4  10  20  34  50  67  90 116 148 187 234 271
#     4  10  20  32  45  61  92 129 159 186 215 252
#
# _framework density 15.553663
#
# number of rings (size 3 to 8) (size 9 to 14) (size 15 to 20)
#    0.000    1.600    4.000    2.400    0.000    0.800 
#    0.000    0.000    0.000    0.000    0.000    0.000 
#    0.000    2.800    0.000    0.000    0.000   31.200 
#
# Total GULP energy -446418.135887 kJ/mol
# GULP energy per Si atom -5580.226699 kJ/mol
# Density = 1.551826 g / cm^3
# Si number density = 15.553663 Si / 1000 Ang^3
#
#
#
# Elastic Constant Matrix: (Units=GPa)
#
#
# Indices 1 2 3 4 5 6 
#
# 1 64.2604 19.5073 -5.2849 0.0000 0.0000 0.0000
# 2 19.5073 64.2588 -5.2852 0.0000 0.0000 0.0000
# 3 -5.2849 -5.2852 47.2428 0.0000 0.0000 0.0000
# 4 0.0000 0.0000 0.0000 16.7442 0.0000 0.0000
# 5 0.0000 0.0000 0.0000 0.0000 16.7449 0.0000
# 6 0.0000 0.0000 0.0000 0.0000 0.0000 12.4047
#
#
#
# Elastic Compliance Matrix: (Units=1/GPa)
#
#
# Indices 1 2 3 4 5 6 
#
# 1 0.017227 -0.005118 0.001355 0.000000 0.000000 0.000000
# 2 -0.005118 0.017227 0.001355 0.000000 0.000000 0.000000
# 3 0.001355 0.001355 0.021470 0.000000 0.000000 0.000000
# 4 0.000000 0.000000 0.000000 0.059722 0.000000 0.000000
# 5 0.000000 0.000000 0.000000 0.000000 0.059720 0.000000
# 6 0.000000 0.000000 0.000000 0.000000 0.000000 0.080615
#
#
# Mechanical properties :
#
#
# Convention : Reuss Voigt Hill
#
# Bulk Modulus (GPa) = 19.56702 21.51516 20.54109
# Shear Modulus (GPa) = 17.99634 20.30041 19.14837
#
# Velocity S-wave (km/s) = 3.40523 3.61665 3.51253
# Velocity P-wave (km/s) = 5.29797 5.59492 5.44847
#
# Compressibility (1/GPa) = 0.05110641
#
# Stress axis : x y z
#
# Youngs Moduli (GPa) = 58.04912 58.04762 46.57587
#
# Poissons Ratio (x) = 0.29710 -0.06309
# Poissons Ratio (y) = 0.29711 -0.06310
# Poissons Ratio (z) = -0.07863 -0.07864
#
# Static dielectric constant tensor:
#      x y z
#    x 1.520970 0.000000 0.000000 
#    y 0.000000 1.520970 0.000000 
#    z 0.000000 0.000000 1.536900 
# 
# From -- ./inp_files/644.got.cif
#   From: 2010.05.17/outbox.cif.g08.bks.cpg/sg126_1_cif.got.tgz:644.got - 2010.05.20 11:58:20.
