data_PCOD9563096
_publ_section_title
;
Structure prediction by ZEFSAII (Michael W. Deem and Ramdas Pophale) SiO2 
 PCOD9563096
Probable space group: P 4/N B M
;
_chemical_formula_sum "Si O2"
_cell_formula_units_Z 96
_cell_length_a 23.470441
_cell_length_b 23.470441
_cell_length_c 7.620111
_cell_angle_alpha 90.000000
_cell_angle_beta 90.000000
_cell_angle_gamma 90.000000
_cell_volume 4197.626543
_symmetry_space_group_name_H-M "P 4/N B M"
_symmetry_group_IT_number 125
_space_group.IT_coordinate_system_code '2'
_symmetry_cell_setting 'tetragonal'
loop_
_space_group_symop_operation_xyz
x,y,z
1/2-y,x,z
1/2-x,1/2-y,z
y,1/2-x,z
x,1/2-y,-z
1/2-x,y,-z
y,x,-z
1/2-y,1/2-x,-z
-x,-y,-z
1/2+y,-x,-z
1/2+x,1/2+y,-z
-y,1/2+x,-z
-x,1/2+y,z
1/2+x,-y,z
-y,-x,z
1/2+y,1/2+x,z
loop_
_atom_site_type_symbol
_atom_site_label
_atom_site_fract_x
_atom_site_fract_y
_atom_site_fract_z
Si Si1 0.626862 0.464873 0.716451
Si Si2 0.255235 0.080575 0.803252
Si Si3 0.702599 0.025960 0.610027
Si Si4 0.859549 0.872281 0.291382
Si Si5 0.089855 0.685634 0.032842
Si Si6 0.965140 0.553226 0.290239
O O1 0.592732 0.407269 0.673446
O O2 0.654252 0.485760 0.534644
O O3 0.580456 0.508865 0.788601
O O4 0.670505 0.451888 0.871044
O O5 0.205811 0.127474 0.769908
O O6 0.318563 0.105053 0.780397
O O7 0.236145 0.029826 0.675998
O O8 0.250000 0.059188 0.000000
O O9 0.750000 0.061198 0.500000
O O10 0.680953 0.058514 0.780346
O O11 0.864501 0.864501 0.500000
O O12 0.887033 0.934567 0.244963
O O13 0.141059 0.641059 0.027700
O O14 0.109182 0.750000 0.000000
O O15 0.957130 0.542871 0.500000
O O16 0.028344 0.528344 0.246355
#
# Coordination Sequence:
#
# PCOD9563096 Si02
#       6
#    16  16  16  16  16  16
#     4  10  21  39  65  99 138 177 224 285 350 420
#     4  12  27  44  68 102 143 182 236 296 351 426
#     4  12  22  39  68  99 130 180 232 284 342 415
#     4  11  23  44  69 101 135 186 238 289 358 423
#     4  11  24  42  65 100 137 180 234 287 352 422
#     4   9  18  35  65 100 136 176 222 282 352 417
#
# _framework density 22.870066999999999
#
# number of rings (size 3 to 8) (size 9 to 14) (size 15 to 20)
#    0.000    1.167    1.667    6.000    2.333    0.500 
#    0.000    2.500    0.000    2.000    0.000    0.000 
#    0.000    0.000    0.000    0.000    0.000    0.000 
#
# Total GULP energy -536829.228438 kJ/mol
# GULP energy per Si atom -5591.971130 kJ/mol
# Density = 2.281801 g / cm^3
# Si number density = 22.870067 Si / 1000 Ang^3
#
#
#
# Elastic Constant Matrix: (Units=GPa)
#
#
# Indices 1 2 3 4 5 6 
#
# 1 95.9742 39.3369 31.6818 0.0000 0.0000 0.0000
# 2 39.3369 95.9738 31.6815 0.0000 0.0000 0.0000
# 3 31.6818 31.6815 131.2407 0.0000 0.0000 0.0000
# 4 0.0000 0.0000 0.0000 27.2151 0.0000 0.0000
# 5 0.0000 0.0000 0.0000 0.0000 27.2151 0.0000
# 6 0.0000 0.0000 0.0000 0.0000 0.0000 40.5522
#
#
#
# Elastic Compliance Matrix: (Units=1/GPa)
#
#
# Indices 1 2 3 4 5 6 
#
# 1 0.012994 -0.004662 -0.002011 0.000000 0.000000 0.000000
# 2 -0.004662 0.012994 -0.002011 0.000000 0.000000 0.000000
# 3 -0.002011 -0.002011 0.008591 0.000000 0.000000 0.000000
# 4 0.000000 0.000000 0.000000 0.036744 0.000000 0.000000
# 5 0.000000 0.000000 0.000000 0.000000 0.036744 0.000000
# 6 0.000000 0.000000 0.000000 0.000000 0.000000 0.024660
#
#
# Mechanical properties :
#
#
# Convention : Reuss Voigt Hill
#
# Bulk Modulus (GPa) = 58.10710 58.73212 58.41961
# Shear Modulus (GPa) = 32.08549 33.69572 32.89060
#
# Velocity S-wave (km/s) = 3.74966 3.84259 3.79641
# Velocity P-wave (km/s) = 6.64900 6.73973 6.69452
#
# Compressibility (1/GPa) = 0.01720960
#
# Stress axis : x y z
#
# Youngs Moduli (GPa) = 76.95705 76.95679 116.40479
#
# Poissons Ratio (x) = 0.35877 0.23414
# Poissons Ratio (y) = 0.35877 0.23414
# Poissons Ratio (z) = 0.15479 0.15479
#
# Static dielectric constant tensor:
#      x y z
#    x 1.915640 0.000000 0.000000 
#    y 0.000000 1.915640 0.000000 
#    z 0.000000 0.000000 1.849500 
# 
# From -- ./inp_files/2869.got.cif
#   From: 2010.05.17/outbox.cif.g08.bks.cpg/sg125_2_cif.got.tgz:2869.got - 2010.05.20 11:54:10.
