data_PCOD9563439
_publ_section_title
;
Structure prediction by ZEFSAII (Michael W. Deem and Ramdas Pophale) SiO2 
 PCOD9563439
Probable space group: P 4/N N C
;
_chemical_formula_sum "Si O2"
_cell_formula_units_Z 96
_cell_length_a 13.508711
_cell_length_b 13.508711
_cell_length_c 29.677518
_cell_angle_alpha 90.000000
_cell_angle_beta 90.000000
_cell_angle_gamma 90.000000
_cell_volume 5415.709971
_symmetry_space_group_name_H-M "P 4/N N C"
_symmetry_group_IT_number 126
_space_group.IT_coordinate_system_code '2'
_symmetry_cell_setting 'tetragonal'
loop_
_space_group_symop_operation_xyz
x,y,z
1/2-y,x,z
1/2-x,1/2-y,z
y,1/2-x,z
x,1/2-y,1/2-z
1/2-x,y,1/2-z
y,x,1/2-z
1/2-y,1/2-x,1/2-z
-x,-y,-z
1/2+y,-x,-z
1/2+x,1/2+y,-z
-y,1/2+x,-z
-x,1/2+y,1/2+z
1/2+x,-y,1/2+z
-y,-x,1/2+z
1/2+y,1/2+x,1/2+z
loop_
_atom_site_type_symbol
_atom_site_label
_atom_site_fract_x
_atom_site_fract_y
_atom_site_fract_z
Si Si1 0.087596 0.228395 0.302865
Si Si2 0.633205 0.453611 0.874139
Si Si3 0.736759 0.590730 0.937396
Si Si4 0.477695 0.554646 0.426977
Si Si5 0.485678 0.345150 0.987471
Si Si6 0.633260 0.256789 0.918475
O O1 0.169427 0.143880 0.314385
O O2 0.068427 0.250000 0.250000
O O3 0.993460 0.188471 0.329909
O O4 0.709336 0.489331 0.913514
O O5 0.528313 0.503589 0.888491
O O6 0.619089 0.336694 0.878529
O O7 0.834608 0.649820 0.924123
O O8 0.753664 0.572959 0.990341
O O9 0.410626 0.514400 0.468726
O O10 0.584801 0.567471 0.451057
O O11 0.423668 0.653602 0.410484
O O12 0.581916 0.304447 0.962444
O O13 0.750000 0.250000 0.925528
#
# Coordination Sequence:
#
# PCOD9563439 Si02
#       6
#    16  16  16  16  16  16
#     4   9  19  36  61  92 114 137 170 218 287 368
#     4  11  22  37  55  80 112 147 185 244 291 342
#     4  11  20  30  48  73 101 138 184 235 286 330
#     4  10  22  37  47  72 109 151 198 243 279 330
#     4  10  21  35  49  67 105 151 199 249 281 311
#     4  11  25  33  52  76 106 154 202 237 291 334
#
# _framework density 17.726209000000001
#
# number of rings (size 3 to 8) (size 9 to 14) (size 15 to 20)
#    0.000    1.667    1.667    3.500    9.333    1.333 
#    0.000    0.000    0.000    5.000    0.000    0.000 
#    0.000    0.000    0.000    0.000   18.667    0.000 
#
# Total GULP energy -534678.308567 kJ/mol
# GULP energy per Si atom -5569.565714 kJ/mol
# Density = 1.768586 g / cm^3
# Si number density = 17.726209 Si / 1000 Ang^3
#
#
#
# Elastic Constant Matrix: (Units=GPa)
#
#
# Indices 1 2 3 4 5 6 
#
# 1 97.2637 43.5129 35.4979 0.0000 0.0000 0.0000
# 2 43.5129 97.2637 35.4979 0.0000 0.0000 0.0000
# 3 35.4979 35.4979 74.4602 0.0000 0.0000 0.0000
# 4 0.0000 0.0000 0.0000 23.3194 0.0000 0.0000
# 5 0.0000 0.0000 0.0000 0.0000 23.3194 0.0000
# 6 0.0000 0.0000 0.0000 0.0000 0.0000 28.7045
#
#
#
# Elastic Compliance Matrix: (Units=1/GPa)
#
#
# Indices 1 2 3 4 5 6 
#
# 1 0.013978 -0.004626 -0.004458 0.000000 0.000000 0.000000
# 2 -0.004626 0.013978 -0.004458 0.000000 0.000000 0.000000
# 3 -0.004458 -0.004458 0.017681 0.000000 0.000000 0.000000
# 4 0.000000 0.000000 0.000000 0.042883 0.000000 0.000000
# 5 0.000000 0.000000 0.000000 0.000000 0.042883 0.000000
# 6 0.000000 0.000000 0.000000 0.000000 0.000000 0.034838
#
#
# Mechanical properties :
#
#
# Convention : Reuss Voigt Hill
#
# Bulk Modulus (GPa) = 53.90493 55.33387 54.61940
# Shear Modulus (GPa) = 25.06136 25.36724 25.21430
#
# Velocity S-wave (km/s) = 3.76414 3.78704 3.77560
# Velocity P-wave (km/s) = 7.02619 7.09971 7.06304
#
# Compressibility (1/GPa) = 0.01855118
#
# Stress axis : x y z
#
# Youngs Moduli (GPa) = 71.54032 71.54032 56.55810
#
# Poissons Ratio (x) = 0.33096 0.25216
# Poissons Ratio (y) = 0.33096 0.25216
# Poissons Ratio (z) = 0.31895 0.31895
#
# Static dielectric constant tensor:
#      x y z
#    x 1.670910 0.000000 0.000000 
#    y 0.000000 1.670910 0.000000 
#    z 0.000000 0.000000 1.623120 
# 
# From -- ./inp_files/6595.got.cif
#   From: 2010.05.17/outbox.cif.g08.bks.cpg/sg126_4_cif.got.tgz:6595.got - 2010.05.20 11:58:20.
