data_PCOD9563088
_publ_section_title
;
Structure prediction by ZEFSAII (Michael W. Deem and Ramdas Pophale) SiO2 
 PCOD9563088
Probable space group: P 4/N B M
;
_chemical_formula_sum "Si O2"
_cell_formula_units_Z 64
_cell_length_a 13.561815
_cell_length_b 13.561815
_cell_length_c 18.390143
_cell_angle_alpha 90.000000
_cell_angle_beta 90.000000
_cell_angle_gamma 90.000000
_cell_volume 3382.367073
_symmetry_space_group_name_H-M "P 4/N B M"
_symmetry_group_IT_number 125
_space_group.IT_coordinate_system_code '2'
_symmetry_cell_setting 'tetragonal'
loop_
_space_group_symop_operation_xyz
x,y,z
1/2-y,x,z
1/2-x,1/2-y,z
y,1/2-x,z
x,1/2-y,-z
1/2-x,y,-z
y,x,-z
1/2-y,1/2-x,-z
-x,-y,-z
1/2+y,-x,-z
1/2+x,1/2+y,-z
-y,1/2+x,-z
-x,1/2+y,z
1/2+x,-y,z
-y,-x,z
1/2+y,1/2+x,z
loop_
_atom_site_type_symbol
_atom_site_label
_atom_site_fract_x
_atom_site_fract_y
_atom_site_fract_z
Si Si1 0.625452 0.961507 0.929079
Si Si2 0.486396 0.824259 0.856121
Si Si3 0.248671 0.914138 0.702103
Si Si4 0.253518 0.085161 0.414907
O O1 0.579021 0.897848 0.862960
O O2 0.557747 0.057747 0.938669
O O3 0.734778 0.994247 0.910763
O O4 0.605524 0.894477 0.000000
O O5 0.391122 0.891122 0.875650
O O6 0.467465 0.779307 0.776971
O O7 0.148377 0.851624 0.711796
O O8 0.334626 0.834626 0.686452
O O9 0.241869 0.992876 0.638046
O O10 0.347028 0.156967 0.402529
O O11 0.250000 0.056475 0.500000
#
# Coordination Sequence:
#
# PCOD9563088 Si02
#       4
#    16  16  16  16
#     4  10  21  38  61  89 118 154 204 250 293 359
#     4  10  22  39  59  86 123 160 194 248 308 354
#     4  10  22  38  58  87 120 158 203 245 295 361
#     4   9  20  39  61  87 121 159 200 246 297 357
#
# _framework density 18.921658999999998
#
# number of rings (size 3 to 8) (size 9 to 14) (size 15 to 20)
#    0.000    2.250    0.000    2.250    3.500    4.000 
#    0.000    6.250    0.000    9.000    0.000    0.000 
#    0.000    0.000    0.000    0.000    0.000    0.000 
#
# Total GULP energy -357274.351459 kJ/mol
# GULP energy per Si atom -5582.411742 kJ/mol
# Density = 1.887859 g / cm^3
# Si number density = 18.921659 Si / 1000 Ang^3
#
#
#
# Elastic Constant Matrix: (Units=GPa)
#
#
# Indices 1 2 3 4 5 6 
#
# 1 104.3436 34.5243 61.7005 0.0000 0.0000 0.0000
# 2 34.5243 104.3432 61.7003 0.0000 0.0000 0.0000
# 3 61.7005 61.7003 92.8807 0.0000 0.0000 0.0000
# 4 0.0000 0.0000 0.0000 36.4041 0.0000 0.0000
# 5 0.0000 0.0000 0.0000 0.0000 36.4040 0.0000
# 6 0.0000 0.0000 0.0000 0.0000 0.0000 15.0977
#
#
#
# Elastic Compliance Matrix: (Units=1/GPa)
#
#
# Indices 1 2 3 4 5 6 
#
# 1 0.015950 0.001627 -0.011676 0.000000 0.000000 0.000000
# 2 0.001627 0.015950 -0.011676 0.000000 0.000000 0.000000
# 3 -0.011676 -0.011676 0.026280 0.000000 0.000000 0.000000
# 4 0.000000 0.000000 0.000000 0.027469 0.000000 0.000000
# 5 0.000000 0.000000 0.000000 0.000000 0.027469 0.000000
# 6 0.000000 0.000000 0.000000 0.000000 0.000000 0.066235
#
#
# Mechanical properties :
#
#
# Convention : Reuss Voigt Hill
#
# Bulk Modulus (GPa) = 67.89698 68.60198 68.24948
# Shear Modulus (GPa) = 21.95741 27.15733 24.55737
#
# Velocity S-wave (km/s) = 3.41022 3.79258 3.60647
# Velocity P-wave (km/s) = 7.17406 7.45069 7.31368
#
# Compressibility (1/GPa) = 0.01472820
#
# Stress axis : x y z
#
# Youngs Moduli (GPa) = 62.69677 62.69662 38.05240
#
# Poissons Ratio (x) = -0.10201 0.44431
# Poissons Ratio (y) = -0.10201 0.44431
# Poissons Ratio (z) = 0.73207 0.73206
#
# Static dielectric constant tensor:
#      x y z
#    x 1.641780 0.000000 0.000000 
#    y 0.000000 1.641780 0.000000 
#    z 0.000000 0.000000 1.661370 
# 
# From -- ./inp_files/4607.got.cif
#   From: 2010.05.17/outbox.cif.g08.bks.cpg/sg125_3_cif.got.tgz:4607.got - 2010.05.20 11:54:10.
