data_PCOD9563851
_publ_section_title
;
Structure prediction by ZEFSAII (Michael W. Deem and Ramdas Pophale) SiO2 
 PCOD9563851
Probable space group: P 4/M B M
;
_chemical_formula_sum "Si O2"
_cell_formula_units_Z 72
_cell_length_a 26.027005
_cell_length_b 26.027005
_cell_length_c 7.700870
_cell_angle_alpha 90.000000
_cell_angle_beta 90.000000
_cell_angle_gamma 90.000000
_cell_volume 5216.607760
_symmetry_space_group_name_H-M "P 4/M B M"
_symmetry_group_IT_number 127
_symmetry_cell_setting 'tetragonal'
loop_
_space_group_symop_operation_xyz
x,y,z
-y,x,z
-x,-y,z
y,-x,z
1/2+x,1/2-y,-z
1/2-x,1/2+y,-z
1/2+y,1/2+x,-z
1/2-y,1/2-x,-z
-x,-y,-z
y,-x,-z
x,y,-z
-y,x,-z
1/2-x,1/2+y,z
1/2+x,1/2-y,z
1/2-y,1/2-x,z
1/2+y,1/2+x,z
loop_
_atom_site_type_symbol
_atom_site_label
_atom_site_fract_x
_atom_site_fract_y
_atom_site_fract_z
Si Si1 0.729791 0.688014 0.000000
Si Si2 0.488172 0.660307 0.201347
Si Si3 0.642050 0.775690 0.000000
Si Si4 0.282017 0.585521 0.294125
Si Si5 0.172282 0.868175 0.295663
Si Si6 0.989924 0.084193 0.500000
O O1 0.715865 0.655005 0.829827
O O2 0.785255 0.714746 0.000000
O O3 0.688310 0.734171 0.000000
O O4 0.526802 0.707483 0.238094
O O5 0.428411 0.666486 0.251710
O O6 0.511300 0.617832 0.328687
O O7 0.491306 0.646504 0.000000
O O8 0.609557 0.761670 0.171546
O O9 0.668886 0.831115 0.000000
O O10 0.271466 0.588282 0.500000
O O11 0.333531 0.620851 0.262616
O O12 0.183738 0.862896 0.500000
O O13 0.945062 0.043592 0.500000
#
# Coordination Sequence:
#
# PCOD9563851 Si02
#       6
#     8  16   8  16  16   8
#     4   9  18  31  46  66  87 106 138 183 227 273
#     4  12  21  31  49  66  84 114 152 190 228 275
#     4   9  18  31  46  66  87 106 138 183 227 273
#     4  10  19  31  47  65  86 114 146 183 227 269
#     4  10  19  31  47  65  86 114 146 183 227 269
#     4  11  24  36  44  60  86 114 150 198 240 271
#
# _framework density 13.802072000000001
#
# number of rings (size 3 to 8) (size 9 to 14) (size 15 to 20)
#    0.000    1.667    4.444    1.333    0.000    3.556 
#    0.000    5.556    0.000    0.000    0.000    0.000 
#    0.000    0.000    0.000    0.000    0.000    8.889 
#
# Total GULP energy -401256.202298 kJ/mol
# GULP energy per Si atom -5573.002810 kJ/mol
# Density = 1.377066 g / cm^3
# Si number density = 13.802072 Si / 1000 Ang^3
#
#
#
# Elastic Constant Matrix: (Units=GPa)
#
#
# Indices 1 2 3 4 5 6 
#
# 1 32.1676 14.6482 20.7601 0.0000 0.0000 0.0000
# 2 14.6482 32.1677 20.7601 0.0000 0.0000 0.0000
# 3 20.7601 20.7601 115.1598 0.0000 0.0000 0.0000
# 4 0.0000 0.0000 0.0000 16.6062 0.0000 0.0000
# 5 0.0000 0.0000 0.0000 0.0000 16.6057 0.0000
# 6 0.0000 0.0000 0.0000 0.0000 0.0000 45.5848
#
#
#
# Elastic Compliance Matrix: (Units=1/GPa)
#
#
# Indices 1 2 3 4 5 6 
#
# 1 0.041252 -0.015827 -0.004583 0.000000 0.000000 0.000000
# 2 -0.015827 0.041252 -0.004583 0.000000 0.000000 0.000000
# 3 -0.004583 -0.004583 0.010336 0.000000 0.000000 0.000000
# 4 0.000000 0.000000 0.000000 0.060218 0.000000 0.000000
# 5 0.000000 0.000000 0.000000 0.000000 0.060220 0.000000
# 6 0.000000 0.000000 0.000000 0.000000 0.000000 0.021937
#
#
# Mechanical properties :
#
#
# Convention : Reuss Voigt Hill
#
# Bulk Modulus (GPa) = 23.33570 32.42579 27.88074
# Shear Modulus (GPa) = 16.69512 23.98112 20.33812
#
# Velocity S-wave (km/s) = 3.48172 4.17286 3.84286
# Velocity P-wave (km/s) = 5.75389 6.83823 6.31936
#
# Compressibility (1/GPa) = 0.04285280
#
# Stress axis : x y z
#
# Youngs Moduli (GPa) = 24.24105 24.24111 96.74798
#
# Poissons Ratio (x) = 0.38366 0.44344
# Poissons Ratio (y) = 0.38366 0.44344
# Poissons Ratio (z) = 0.11111 0.11111
#
# Static dielectric constant tensor:
#      x y z
#    x 1.452820 0.000000 0.000000 
#    y 0.000000 1.452820 0.000000 
#    z 0.000000 0.000000 1.452110 
# 
# From -- ./inp_files/1798.got.cif
#   From: 2010.05.17/outbox.cif.g08.bks.cpg/sg127_1_cif.got.tgz:1798.got - 2010.05.20 12:03:00.
