data_PCOD9563083
_publ_section_title
;
Structure prediction by ZEFSAII (Michael W. Deem and Ramdas Pophale) SiO2 
 PCOD9563083
Probable space group: P 4/N B M
;
_chemical_formula_sum "Si O2"
_cell_formula_units_Z 56
_cell_length_a 13.484852
_cell_length_b 13.484852
_cell_length_c 16.279430
_cell_angle_alpha 90.000000
_cell_angle_beta 90.000000
_cell_angle_gamma 90.000000
_cell_volume 2960.271631
_symmetry_space_group_name_H-M "P 4/N B M"
_symmetry_group_IT_number 125
_space_group.IT_coordinate_system_code '2'
_symmetry_cell_setting 'tetragonal'
loop_
_space_group_symop_operation_xyz
x,y,z
1/2-y,x,z
1/2-x,1/2-y,z
y,1/2-x,z
x,1/2-y,-z
1/2-x,y,-z
y,x,-z
1/2-y,1/2-x,-z
-x,-y,-z
1/2+y,-x,-z
1/2+x,1/2+y,-z
-y,1/2+x,-z
-x,1/2+y,z
1/2+x,-y,z
-y,-x,z
1/2+y,1/2+x,z
loop_
_atom_site_type_symbol
_atom_site_label
_atom_site_fract_x
_atom_site_fract_y
_atom_site_fract_z
Si Si1 0.500712 0.832066 0.334011
Si Si2 0.917487 0.750000 0.500000
Si Si3 0.642065 0.974170 0.238043
Si Si4 0.349149 0.490499 0.052049
O O1 0.518485 0.774574 0.419611
O O2 0.599303 0.887486 0.297680
O O3 0.480465 0.744199 0.270392
O O4 0.413989 0.913989 0.340589
O O5 0.844918 0.844918 0.500000
O O6 0.659763 0.945108 0.143407
O O7 0.556017 0.056017 0.239336
O O8 0.403901 0.596100 0.060985
O O9 0.250000 0.500523 0.000000
O O10 0.420594 0.420594 0.000000
#
# Coordination Sequence:
#
# PCOD9563083 Si02
#       4
#    16   8  16  16
#     4  11  23  40  64  90 122 162 203 248 306 369
#     4  11  22  40  64  91 118 156 199 250 302 363
#     4  10  22  39  60  88 123 160 201 255 306 359
#     4  10  21  38  59  86 121 160 204 253 307 362
#
# _framework density 18.917183999999999
#
# number of rings (size 3 to 8) (size 9 to 14) (size 15 to 20)
#    0.000    1.571    2.857    1.714    0.000    6.857 
#    0.000    5.714    0.000    0.000    0.000    0.000 
#    0.000    0.000    0.000    0.000    0.000    0.000 
#
# Total GULP energy -312119.398720 kJ/mol
# GULP energy per Si atom -5573.560691 kJ/mol
# Density = 1.887413 g / cm^3
# Si number density = 18.917184 Si / 1000 Ang^3
#
#
#
# Elastic Constant Matrix: (Units=GPa)
#
#
# Indices 1 2 3 4 5 6 
#
# 1 65.0816 -1.8520 51.2250 0.0000 0.0000 0.0000
# 2 -1.8520 65.0816 51.2250 0.0000 0.0000 0.0000
# 3 51.2250 51.2250 168.0954 0.0000 0.0000 0.0000
# 4 0.0000 0.0000 0.0000 26.2870 0.0000 0.0000
# 5 0.0000 0.0000 0.0000 0.0000 26.2870 0.0000
# 6 0.0000 0.0000 0.0000 0.0000 0.0000 -44.3920
#
#
#
# Elastic Compliance Matrix: (Units=1/GPa)
#
#
# Indices 1 2 3 4 5 6 
#
# 1 0.023091 0.008150 -0.009520 0.000000 0.000000 0.000000
# 2 0.008150 0.023091 -0.009520 0.000000 0.000000 0.000000
# 3 -0.009520 -0.009520 0.011751 0.000000 0.000000 0.000000
# 4 0.000000 0.000000 0.000000 0.038042 0.000000 0.000000
# 5 0.000000 0.000000 0.000000 0.000000 0.038042 0.000000
# 6 0.000000 0.000000 0.000000 0.000000 0.000000 -0.022527
#
#
# Mechanical properties :
#
#
# Convention : Reuss Voigt Hill
#
# Bulk Modulus (GPa) = 27.66083 55.49495 41.57789
# Shear Modulus (GPa) = 34.40670 14.81376 24.61023
#
# Velocity S-wave (km/s) = 4.26937 2.80140 3.61078
# Velocity P-wave (km/s) = 6.24157 6.31373 6.27776
#
# Compressibility (1/GPa) = 0.03615220
#
# Stress axis : x y z
#
# Youngs Moduli (GPa) = 43.30763 43.30763 85.09613
#
# Poissons Ratio (x) = -0.35298 0.81014
# Poissons Ratio (y) = -0.35298 0.81014
# Poissons Ratio (z) = 0.41230 0.41230
#
# Static dielectric constant tensor:
#      x y z
#    x 1.655100 0.000000 0.000000 
#    y 0.000000 1.655100 0.000000 
#    z 0.000000 0.000000 1.707750 
# 
# From -- ./inp_files/5730.got.cif
#   From: 2010.05.17/outbox.cif.g08.bks.cpg/sg125_3_cif.got.tgz:5730.got - 2010.05.20 11:54:10.
