data_PCOD9563509
_publ_section_title
;
Structure prediction by ZEFSAII (Michael W. Deem and Ramdas Pophale) SiO2 
 PCOD9563509
Probable space group: P 4/N N C
;
_chemical_formula_sum "Si O2"
_cell_formula_units_Z 88
_cell_length_a 17.870264
_cell_length_b 17.870264
_cell_length_c 13.568395
_cell_angle_alpha 90.000000
_cell_angle_beta 90.000000
_cell_angle_gamma 90.000000
_cell_volume 4333.017221
_symmetry_space_group_name_H-M "P 4/N N C"
_symmetry_group_IT_number 126
_space_group.IT_coordinate_system_code '2'
_symmetry_cell_setting 'tetragonal'
loop_
_space_group_symop_operation_xyz
x,y,z
1/2-y,x,z
1/2-x,1/2-y,z
y,1/2-x,z
x,1/2-y,1/2-z
1/2-x,y,1/2-z
y,x,1/2-z
1/2-y,1/2-x,1/2-z
-x,-y,-z
1/2+y,-x,-z
1/2+x,1/2+y,-z
-y,1/2+x,-z
-x,1/2+y,1/2+z
1/2+x,-y,1/2+z
-y,-x,1/2+z
1/2+y,1/2+x,1/2+z
loop_
_atom_site_type_symbol
_atom_site_label
_atom_site_fract_x
_atom_site_fract_y
_atom_site_fract_z
Si Si1 0.750000 0.148830 0.750000
Si Si2 0.376544 0.865695 0.906133
Si Si3 0.425761 0.500070 0.845266
Si Si4 0.069726 0.464380 0.431867
Si Si5 0.386753 0.795016 0.121586
Si Si6 0.656532 0.680677 0.633737
O O1 0.803270 0.105291 0.824575
O O2 0.690057 0.191812 0.818842
O O3 0.447418 0.919946 0.909830
O O4 0.294507 0.899824 0.882853
O O5 0.373248 0.825220 0.011575
O O6 0.452354 0.452354 0.750000
O O7 0.493160 0.557374 0.875741
O O8 0.348539 0.547159 0.835258
O O9 0.423713 0.455458 0.949720
O O10 0.135449 0.416468 0.388667
O O11 0.735129 0.649125 0.593980
O O12 0.672539 0.672539 0.750000
#
# Coordination Sequence:
#
# PCOD9563509 Si02
#       6
#     8  16  16  16  16  16
#     4  12  23  34  58  84 124 169 206 261 310 380
#     4  11  22  37  58  91 125 165 218 257 321 385
#     4  10  22  41  59  85 127 165 212 268 314 379
#     4  10  22  39  62  92 124 168 208 266 322 385
#     4  11  22  38  60  87 124 169 214 270 311 382
#     4   9  19  38  66  99 128 155 200 264 330 389
#
# _framework density 20.309173000000001
#
# number of rings (size 3 to 8) (size 9 to 14) (size 15 to 20)
#    0.000    1.636    1.818    3.818    0.000    2.909 
#    9.818    0.000    0.000    0.000    0.000    1.273 
#    0.000    0.000    0.000    0.364    0.000    0.000 
#
# Total GULP energy -490370.091317 kJ/mol
# GULP energy per Si atom -5572.387401 kJ/mol
# Density = 2.026295 g / cm^3
# Si number density = 20.309173 Si / 1000 Ang^3
#
#
#
# Elastic Constant Matrix: (Units=GPa)
#
#
# Indices 1 2 3 4 5 6 
#
# 1 84.2063 71.8544 30.2628 0.0000 0.0000 0.0000
# 2 71.8544 84.2063 30.2628 0.0000 0.0000 0.0000
# 3 30.2628 30.2628 110.7905 0.0000 0.0000 0.0000
# 4 0.0000 0.0000 0.0000 23.6769 0.0000 0.0000
# 5 0.0000 0.0000 0.0000 0.0000 23.6769 0.0000
# 6 0.0000 0.0000 0.0000 0.0000 0.0000 13.3408
#
#
#
# Elastic Compliance Matrix: (Units=1/GPa)
#
#
# Indices 1 2 3 4 5 6 
#
# 1 0.044063 -0.036896 -0.001958 0.000000 0.000000 0.000000
# 2 -0.036896 0.044063 -0.001958 0.000000 0.000000 0.000000
# 3 -0.001958 -0.001958 0.010096 0.000000 0.000000 0.000000
# 4 0.000000 0.000000 0.000000 0.042235 0.000000 0.000000
# 5 0.000000 0.000000 0.000000 0.000000 0.042235 0.000000
# 6 0.000000 0.000000 0.000000 0.000000 0.000000 0.074958
#
#
# Mechanical properties :
#
#
# Convention : Reuss Voigt Hill
#
# Bulk Modulus (GPa) = 60.24532 60.44037 60.34284
# Shear Modulus (GPa) = 14.50087 21.92712 18.21400
#
# Velocity S-wave (km/s) = 2.67499 3.28939 2.99797
# Velocity P-wave (km/s) = 6.26652 6.65218 6.46223
#
# Compressibility (1/GPa) = 0.01659880
#
# Stress axis : x y z
#
# Youngs Moduli (GPa) = 22.69463 22.69463 99.05359
#
# Poissons Ratio (x) = 0.83735 0.19392
# Poissons Ratio (y) = 0.83735 0.19392
# Poissons Ratio (z) = 0.04443 0.04443
#
# Static dielectric constant tensor:
#      x y z
#    x 1.749990 0.000000 0.000000 
#    y 0.000000 1.749990 0.000000 
#    z 0.000000 0.000000 1.781840 
# 
# From -- ./inp_files/3727.got.cif
#   From: 2010.05.17/outbox.cif.g08.bks.cpg/sg126_2_cif.got.tgz:3727.got - 2010.05.20 11:58:20.
