data_PCOD9563788
_publ_section_title
;
Structure prediction by ZEFSAII (Michael W. Deem and Ramdas Pophale) SiO2 
 PCOD9563788
Probable space group: P 4/M B M
;
_chemical_formula_sum "Si O2"
_cell_formula_units_Z 88
_cell_length_a 17.292085
_cell_length_b 17.292085
_cell_length_c 14.243850
_cell_angle_alpha 90.000000
_cell_angle_beta 90.000000
_cell_angle_gamma 90.000000
_cell_volume 4259.141952
_symmetry_space_group_name_H-M "P 4/M B M"
_symmetry_group_IT_number 127
_symmetry_cell_setting 'tetragonal'
loop_
_space_group_symop_operation_xyz
x,y,z
-y,x,z
-x,-y,z
y,-x,z
1/2+x,1/2-y,-z
1/2-x,1/2+y,-z
1/2+y,1/2+x,-z
1/2-y,1/2-x,-z
-x,-y,-z
y,-x,-z
x,y,-z
-y,x,-z
1/2-x,1/2+y,z
1/2+x,1/2-y,z
1/2-y,1/2-x,z
1/2+y,1/2+x,z
loop_
_atom_site_type_symbol
_atom_site_label
_atom_site_fract_x
_atom_site_fract_y
_atom_site_fract_z
Si Si1 0.882978 0.051749 0.885985
Si Si2 0.417934 0.790226 0.164541
Si Si3 0.877737 0.262385 0.391770
Si Si4 0.628188 0.996162 0.000000
Si Si5 0.497785 0.878367 0.666932
Si Si6 0.393276 0.560912 0.384869
O O1 0.802472 0.082956 0.843272
O O2 0.961513 0.098981 0.861598
O O3 0.875601 0.055313 0.000000
O O4 0.336988 0.836988 0.146363
O O5 0.451591 0.824862 0.260925
O O6 0.481045 0.820490 0.089052
O O7 0.857605 0.246584 0.500000
O O8 0.807168 0.307168 0.345442
O O9 0.950198 0.320468 0.392624
O O10 0.899383 0.182293 0.346593
O O11 0.557905 0.057905 0.000000
O O12 0.587611 0.912390 0.000000
O O13 0.560900 0.939101 0.710829
O O14 0.434529 0.934529 0.619573
O O15 0.398189 0.471921 0.356662
O O16 0.391380 0.560556 0.500000
#
# Coordination Sequence:
#
# PCOD9563788 Si02
#       6
#    16  16  16   8  16  16
#     4   9  18  34  55  75 101 139 174 200 238 297
#     4  10  18  31  52  75 101 129 163 210 252 288
#     4   9  17  30  49  72  97 127 166 211 254 297
#     4   9  16  26  44  71  98 124 155 192 238 292
#     4   9  18  32  49  70 100 137 169 202 253 307
#     4   8  14  27  48  71  94 122 157 197 244 299
#
# _framework density 20.661439000000001
#
# number of rings (size 3 to 8) (size 9 to 14) (size 15 to 20)
#    0.000    3.000    0.909    1.636    0.000    2.545 
#    0.000    6.364    0.000    9.818    0.000    0.000 
#    0.000    0.000    0.000    0.000    0.000    0.000 
#
# Total GULP energy -490332.395009 kJ/mol
# GULP energy per Si atom -5571.959034 kJ/mol
# Density = 2.061441 g / cm^3
# Si number density = 20.661439 Si / 1000 Ang^3
#
#
#
# Elastic Constant Matrix: (Units=GPa)
#
#
# Indices 1 2 3 4 5 6 
#
# 1 -750.2668 978.9451 20.0771 0.0000 0.0000 0.0000
# 2 978.9451 -750.2674 20.0774 0.0000 0.0000 0.0000
# 3 20.0771 20.0774 28.2121 0.0000 0.0000 0.0000
# 4 0.0000 0.0000 0.0000 12.6393 0.0000 0.0000
# 5 0.0000 0.0000 0.0000 0.0000 12.6396 0.0000
# 6 0.0000 0.0000 0.0000 0.0000 0.0000 7.4308
#
#
#
# Elastic Compliance Matrix: (Units=1/GPa)
#
#
# Indices 1 2 3 4 5 6 
#
# 1 0.002210 0.002788 -0.003556 0.000000 0.000000 0.000000
# 2 0.002788 0.002210 -0.003556 0.000000 0.000000 0.000000
# 3 -0.003556 -0.003556 0.040508 0.000000 0.000000 0.000000
# 4 0.000000 0.000000 0.000000 0.079118 0.000000 0.000000
# 5 0.000000 0.000000 0.000000 0.000000 0.079116 0.000000
# 6 0.000000 0.000000 0.000000 0.000000 0.000000 0.134575
#
#
# Mechanical properties :
#
#
# Convention : Reuss Voigt Hill
#
# Bulk Modulus (GPa) = 27.56581 62.87521 45.22051
# Shear Modulus (GPa) = 13.94785 -159.55283 -72.80249
#
# Velocity S-wave (km/s) = 2.60102 -8.79717 -5.94243
# Velocity P-wave (km/s) = 4.73192 8.52582 5.01491
#
# Compressibility (1/GPa) = 0.03627682
#
# Stress axis : x y z
#
# Youngs Moduli (GPa) = 452.57449 452.57506 24.68663
#
# Poissons Ratio (x) = -1.26172 0.08780
# Poissons Ratio (y) = -1.26172 0.08780
# Poissons Ratio (z) = 1.60957 1.60957
#
# Static dielectric constant tensor:
#      x y z
#    x 1.739460 0.000000 0.000000 
#    y 0.000000 1.739460 0.000000 
#    z 0.000000 0.000000 1.787020 
# 
# From -- ./inp_files/4398.got.cif
#   From: 2010.05.17/outbox.cif.g08.bks.cpg/sg127_3_cif.got.tgz:4398.got - 2010.05.20 12:03:00.
