data_PCOD9563974
_publ_section_title
;
Structure prediction by ZEFSAII (Michael W. Deem and Ramdas Pophale) SiO2 
 PCOD9563974
Probable space group: P 4/M B M
;
_chemical_formula_sum "Si O2"
_cell_formula_units_Z 96
_cell_length_a 24.674125
_cell_length_b 24.674125
_cell_length_c 7.467637
_cell_angle_alpha 90.000000
_cell_angle_beta 90.000000
_cell_angle_gamma 90.000000
_cell_volume 4546.390337
_symmetry_space_group_name_H-M "P 4/M B M"
_symmetry_group_IT_number 127
_symmetry_cell_setting 'tetragonal'
loop_
_space_group_symop_operation_xyz
x,y,z
-y,x,z
-x,-y,z
y,-x,z
1/2+x,1/2-y,-z
1/2-x,1/2+y,-z
1/2+y,1/2+x,-z
1/2-y,1/2-x,-z
-x,-y,-z
y,-x,-z
x,y,-z
-y,x,-z
1/2-x,1/2+y,z
1/2+x,1/2-y,z
1/2-y,1/2-x,z
1/2+y,1/2+x,z
loop_
_atom_site_type_symbol
_atom_site_label
_atom_site_fract_x
_atom_site_fract_y
_atom_site_fract_z
Si Si1 0.726386 0.312426 0.289951
Si Si2 0.862599 0.723766 0.784132
Si Si3 0.999967 0.587320 0.218211
Si Si4 0.933716 0.198074 0.207840
Si Si5 0.985411 0.710118 0.219821
Si Si6 0.964467 0.079965 0.218531
O O1 0.735940 0.319516 0.500000
O O2 0.776261 0.276261 0.216056
O O3 0.672848 0.275788 0.266597
O O4 0.716866 0.371686 0.213989
O O5 0.828761 0.671240 0.721930
O O6 0.924282 0.723864 0.723418
O O7 0.863655 0.721843 0.000000
O O8 0.946468 0.553533 0.272032
O O9 0.999752 0.649190 0.277775
O O10 0.051762 0.551762 0.274268
O O11 0.999932 0.587665 0.000000
O O12 0.942220 0.137649 0.282938
O O13 0.972593 0.244566 0.283584
O O14 0.949649 0.193309 0.000000
O O15 0.986319 0.709400 0.000000
O O16 0.026852 0.069552 0.273054
O O17 0.962866 0.079412 0.000000
#
# Coordination Sequence:
#
# PCOD9563974 Si02
#       6
#    16  16  16  16  16  16
#     4  10  22  39  54  69  97 137 175 211 255 305
#     4   9  17  31  54  80 104 132 168 212 255 295
#     4   8  13  22  37  59  94 138 170 193 235 295
#     4  10  20  31  51  79 103 131 166 209 254 301
#     4   9  17  27  43  74 107 130 159 205 253 294
#     4   8  15  28  47  72 101 132 163 198 245 301
#
# _framework density 21.115652999999998
#
# number of rings (size 3 to 8) (size 9 to 14) (size 15 to 20)
#    0.000    3.000    0.000    2.000    2.333    3.667 
#    0.000    2.500    0.000    0.000    0.000    1.167 
#    0.000    0.000    0.000   11.500    0.000   10.333 
#
# Total GULP energy -535783.574583 kJ/mol
# GULP energy per Si atom -5581.078902 kJ/mol
# Density = 2.106759 g / cm^3
# Si number density = 21.115653 Si / 1000 Ang^3
#
#
#
# Elastic Constant Matrix: (Units=GPa)
#
#
# Indices 1 2 3 4 5 6 
#
# 1 74.4599 179.1241 -5.2144 0.0000 0.0000 0.0000
# 2 179.1241 74.4599 -5.2144 0.0000 0.0000 0.0000
# 3 -5.2144 -5.2144 57.2349 0.0000 0.0000 0.0000
# 4 0.0000 0.0000 0.0000 -41.1939 0.0000 0.0000
# 5 0.0000 0.0000 0.0000 0.0000 -41.1939 0.0000
# 6 0.0000 0.0000 0.0000 0.0000 0.0000 13.1286
#
#
#
# Elastic Compliance Matrix: (Units=1/GPa)
#
#
# Indices 1 2 3 4 5 6 
#
# 1 -0.002798 0.006756 0.000361 0.000000 0.000000 0.000000
# 2 0.006756 -0.002798 0.000361 0.000000 0.000000 0.000000
# 3 0.000361 0.000361 0.017538 0.000000 0.000000 0.000000
# 4 0.000000 0.000000 0.000000 -0.024275 0.000000 0.000000
# 5 0.000000 0.000000 0.000000 0.000000 -0.024275 0.000000
# 6 0.000000 0.000000 0.000000 0.000000 0.000000 0.076170
#
#
# Mechanical properties :
#
#
# Convention : Reuss Voigt Hill
#
# Bulk Modulus (GPa) = 37.17935 60.39390 48.78663
# Shear Modulus (GPa) = 148.93967 -11.35455 68.79256
#
# Velocity S-wave (km/s) = 8.40763 -2.32142 5.71399
# Velocity P-wave (km/s) = 10.57813 4.63446 8.16624
#
# Compressibility (1/GPa) = 0.02689665
#
# Stress axis : x y z
#
# Youngs Moduli (GPa) = -357.39406 -357.39406 57.02050
#
# Poissons Ratio (x) = 2.41467 -0.02056
# Poissons Ratio (y) = 2.41467 -0.02056
# Poissons Ratio (z) = 0.12889 0.12889
#
# Static dielectric constant tensor:
#      x y z
#    x 1.728530 0.000000 0.000000 
#    y 0.000000 1.728530 0.000000 
#    z 0.000000 0.000000 1.843860 
# 
# From -- ./inp_files/1991.got.cif
#   From: 2010.05.17/outbox.cif.g08.bks.cpg/sg127_1_cif.got.tgz:1991.got - 2010.05.20 12:03:00.
