data_PCOD9563499
_publ_section_title
;
Structure prediction by ZEFSAII (Michael W. Deem and Ramdas Pophale) SiO2 
 PCOD9563499
Probable space group: P 4/N N C
;
_chemical_formula_sum "Si O2"
_cell_formula_units_Z 88
_cell_length_a 14.188601
_cell_length_b 14.188601
_cell_length_c 22.288279
_cell_angle_alpha 90.000000
_cell_angle_beta 90.000000
_cell_angle_gamma 90.000000
_cell_volume 4486.996053
_symmetry_space_group_name_H-M "P 4/N N C"
_symmetry_group_IT_number 126
_space_group.IT_coordinate_system_code '2'
_symmetry_cell_setting 'tetragonal'
loop_
_space_group_symop_operation_xyz
x,y,z
1/2-y,x,z
1/2-x,1/2-y,z
y,1/2-x,z
x,1/2-y,1/2-z
1/2-x,y,1/2-z
y,x,1/2-z
1/2-y,1/2-x,1/2-z
-x,-y,-z
1/2+y,-x,-z
1/2+x,1/2+y,-z
-y,1/2+x,-z
-x,1/2+y,1/2+z
1/2+x,-y,1/2+z
-y,-x,1/2+z
1/2+y,1/2+x,1/2+z
loop_
_atom_site_type_symbol
_atom_site_label
_atom_site_fract_x
_atom_site_fract_y
_atom_site_fract_z
Si Si1 0.402163 0.998401 0.130432
Si Si2 0.344871 0.546571 0.966472
Si Si3 0.622777 0.843641 0.955436
Si Si4 0.209172 0.558474 0.309030
Si Si5 0.682140 0.157302 0.081936
Si Si6 0.960539 0.539462 0.750000
O O1 0.418615 0.101413 0.101903
O O2 0.465916 0.978178 0.189304
O O3 0.417647 0.927034 0.076439
O O4 0.295831 0.985641 0.154116
O O5 0.248102 0.567517 0.931281
O O6 0.367811 0.441118 0.987435
O O7 0.336545 0.607840 0.027451
O O8 0.623366 0.730777 0.955259
O O9 0.250000 0.611407 0.250000
O O10 0.157143 0.628228 0.354897
O O11 0.141878 0.481204 0.277856
O O12 0.750000 0.250000 0.080208
#
# Coordination Sequence:
#
# PCOD9563499 Si02
#       6
#    16  16  16  16  16   8
#     4  11  21  39  61  87 120 167 213 266 320 383
#     4  12  22  37  63  94 123 161 206 273 338 386
#     4  11  24  39  58  87 124 166 212 259 324 404
#     4  10  22  39  61  89 127 168 212 258 322 388
#     4  12  20  37  61  95 127 154 206 270 331 393
#     4  10  22  38  54  83 126 165 204 252 302 390
#
# _framework density 19.612231000000001
#
# number of rings (size 3 to 8) (size 9 to 14) (size 15 to 20)
#    0.000    0.909    3.636    4.909    0.000    1.818 
#    0.000    0.000    0.000   13.364    0.000    0.000 
#    0.000    0.000    0.000    0.000    0.000    0.000 
#
# Total GULP energy -490764.428241 kJ/mol
# GULP energy per Si atom -5576.868503 kJ/mol
# Density = 1.956759 g / cm^3
# Si number density = 19.612231 Si / 1000 Ang^3
#
#
#
# Elastic Constant Matrix: (Units=GPa)
#
#
# Indices 1 2 3 4 5 6 
#
# 1 62.0270 33.4056 61.0106 0.0000 0.0000 0.0000
# 2 33.4056 62.0277 61.0110 0.0000 0.0000 0.0000
# 3 61.0106 61.0110 174.2272 0.0000 0.0000 0.0000
# 4 0.0000 0.0000 0.0000 30.7930 0.0000 0.0000
# 5 0.0000 0.0000 0.0000 0.0000 30.7924 0.0000
# 6 0.0000 0.0000 0.0000 0.0000 0.0000 19.7982
#
#
#
# Elastic Compliance Matrix: (Units=1/GPa)
#
#
# Indices 1 2 3 4 5 6 
#
# 1 0.026956 -0.007982 -0.006644 0.000000 0.000000 0.000000
# 2 -0.007982 0.026956 -0.006644 0.000000 0.000000 0.000000
# 3 -0.006644 -0.006644 0.010393 0.000000 0.000000 0.000000
# 4 0.000000 0.000000 0.000000 0.032475 0.000000 0.000000
# 5 0.000000 0.000000 0.000000 0.000000 0.032475 0.000000
# 6 0.000000 0.000000 0.000000 0.000000 0.000000 0.050510
#
#
# Mechanical properties :
#
#
# Convention : Reuss Voigt Hill
#
# Bulk Modulus (GPa) = 45.94767 67.68180 56.81474
# Shear Modulus (GPa) = 21.78059 25.80036 23.79048
#
# Velocity S-wave (km/s) = 3.33612 3.63095 3.48665
# Velocity P-wave (km/s) = 6.19020 7.22242 6.72614
#
# Compressibility (1/GPa) = 0.02176389
#
# Stress axis : x y z
#
# Youngs Moduli (GPa) = 37.09691 37.09730 96.21814
#
# Poissons Ratio (x) = 0.29612 0.63931
# Poissons Ratio (y) = 0.29611 0.63930
# Poissons Ratio (z) = 0.24648 0.24649
#
# Static dielectric constant tensor:
#      x y z
#    x 1.734270 0.000000 0.000000 
#    y 0.000000 1.734270 0.000000 
#    z 0.000000 0.000000 1.715830 
# 
# From -- ./inp_files/5183.got.cif
#   From: 2010.05.17/outbox.cif.g08.bks.cpg/sg126_3_cif.got.tgz:5183.got - 2010.05.20 11:58:20.
