data_PCOD9563447
_publ_section_title
;
Structure prediction by ZEFSAII (Michael W. Deem and Ramdas Pophale) SiO2 
 PCOD9563447
Probable space group: P 4/N N C
;
_chemical_formula_sum "Si O2"
_cell_formula_units_Z 112
_cell_length_a 14.580115
_cell_length_b 14.580115
_cell_length_c 27.826438
_cell_angle_alpha 90.000000
_cell_angle_beta 90.000000
_cell_angle_gamma 90.000000
_cell_volume 5915.337328
_symmetry_space_group_name_H-M "P 4/N N C"
_symmetry_group_IT_number 126
_space_group.IT_coordinate_system_code '2'
_symmetry_cell_setting 'tetragonal'
loop_
_space_group_symop_operation_xyz
x,y,z
1/2-y,x,z
1/2-x,1/2-y,z
y,1/2-x,z
x,1/2-y,1/2-z
1/2-x,y,1/2-z
y,x,1/2-z
1/2-y,1/2-x,1/2-z
-x,-y,-z
1/2+y,-x,-z
1/2+x,1/2+y,-z
-y,1/2+x,-z
-x,1/2+y,1/2+z
1/2+x,-y,1/2+z
-y,-x,1/2+z
1/2+y,1/2+x,1/2+z
loop_
_atom_site_type_symbol
_atom_site_label
_atom_site_fract_x
_atom_site_fract_y
_atom_site_fract_z
Si Si1 0.597615 0.542551 0.467123
Si Si2 0.817495 0.885398 0.372869
Si Si3 0.705875 0.147229 0.701858
Si Si4 0.512104 0.848294 0.276644
Si Si5 0.242296 0.972811 0.107620
Si Si6 0.073081 0.430858 0.070208
Si Si7 0.122545 0.792281 0.986276
O O1 0.661784 0.581497 0.426254
O O2 0.504676 0.508822 0.440417
O O3 0.586797 0.605102 0.514794
O O4 0.645150 0.454846 0.491411
O O5 0.710448 0.868493 0.366491
O O6 0.848811 0.951502 0.330973
O O7 0.750000 0.250000 0.695289
O O8 0.750000 0.107189 0.750000
O O9 0.597783 0.148202 0.715282
O O10 0.732514 0.085322 0.656142
O O11 0.532848 0.750000 0.250000
O O12 0.568671 0.931330 0.250000
O O13 0.153035 0.035920 0.101348
O O14 0.337361 0.027445 0.096428
O O15 0.241319 0.905401 0.061946
O O16 0.212604 0.851475 0.976742
#
# Coordination Sequence:
#
# PCOD9563447 Si02
#       7
#    16  16  16  16  16  16  16
#     4  10  22  39  60  90 138 165 235 270 329 420
#     4  11  25  38  61  99 134 181 223 266 339 420
#     4  11  26  47  69 104 133 174 237 295 356 413
#     4  12  24  45  72  99 145 188 227 291 356 427
#     4  11  24  42  66  91 136 174 228 286 344 410
#     4  10  23  41  62  96 124 181 221 283 340 406
#     4  10  21  36  59  94 124 171 216 272 339 396
#
# _framework density 18.933831000000001
#
# number of rings (size 3 to 8) (size 9 to 14) (size 15 to 20)
#    0.000    1.286    4.286    0.857    6.000    3.857 
#    0.000    0.000    0.000    0.000    0.000    1.000 
#    0.000    0.000    0.000    0.000    0.000    0.000 
#
# Total GULP energy -624215.032352 kJ/mol
# GULP energy per Si atom -5573.348503 kJ/mol
# Density = 1.889074 g / cm^3
# Si number density = 18.933831 Si / 1000 Ang^3
#
#
#
# Elastic Constant Matrix: (Units=GPa)
#
#
# Indices 1 2 3 4 5 6 
#
# 1 96.6461 28.2940 45.0266 0.0000 0.0000 0.0000
# 2 28.2940 96.6460 45.0261 0.0000 0.0000 0.0000
# 3 45.0266 45.0261 105.0679 0.0000 0.0000 0.0000
# 4 0.0000 0.0000 0.0000 44.9419 0.0000 0.0000
# 5 0.0000 0.0000 0.0000 0.0000 44.9410 0.0000
# 6 0.0000 0.0000 0.0000 0.0000 0.0000 24.8693
#
#
#
# Elastic Compliance Matrix: (Units=1/GPa)
#
#
# Indices 1 2 3 4 5 6 
#
# 1 0.013106 -0.001525 -0.004963 0.000000 0.000000 0.000000
# 2 -0.001525 0.013106 -0.004963 0.000000 0.000000 0.000000
# 3 -0.004963 -0.004963 0.013771 0.000000 0.000000 0.000000
# 4 0.000000 0.000000 0.000000 0.022251 0.000000 0.000000
# 5 0.000000 0.000000 0.000000 0.000000 0.022251 0.000000
# 6 0.000000 0.000000 0.000000 0.000000 0.000000 0.040210
#
#
# Mechanical properties :
#
#
# Convention : Reuss Voigt Hill
#
# Bulk Modulus (GPa) = 58.54306 59.45037 58.99671
# Shear Modulus (GPa) = 32.61792 34.95133 33.78463
#
# Velocity S-wave (km/s) = 4.15508 4.30114 4.22874
# Velocity P-wave (km/s) = 7.34892 7.49223 7.42092
#
# Compressibility (1/GPa) = 0.01708145
#
# Stress axis : x y z
#
# Youngs Moduli (GPa) = 76.30334 76.30361 72.61440
#
# Poissons Ratio (x) = 0.11633 0.36039
# Poissons Ratio (y) = 0.11633 0.36038
# Poissons Ratio (z) = 0.37870 0.37869
#
# Static dielectric constant tensor:
#      x y z
#    x 1.713240 0.000000 0.000000 
#    y 0.000000 1.713240 0.000000 
#    z 0.000000 0.000000 1.652040 
# 
# From -- ./inp_files/5834.got.cif
#   From: 2010.05.17/outbox.cif.g08.bks.cpg/sg126_3_cif.got.tgz:5834.got - 2010.05.20 11:58:20.
