data_PCOD9563368
_publ_section_title
;
Structure prediction by ZEFSAII (Michael W. Deem and Ramdas Pophale) SiO2 
 PCOD9563368
Probable space group: P 4/N N C
;
_chemical_formula_sum "Si O2"
_cell_formula_units_Z 72
_cell_length_a 16.654087
_cell_length_b 16.654087
_cell_length_c 13.681009
_cell_angle_alpha 90.000000
_cell_angle_beta 90.000000
_cell_angle_gamma 90.000000
_cell_volume 3794.545692
_symmetry_space_group_name_H-M "P 4/N N C"
_symmetry_group_IT_number 126
_space_group.IT_coordinate_system_code '2'
_symmetry_cell_setting 'tetragonal'
loop_
_space_group_symop_operation_xyz
x,y,z
1/2-y,x,z
1/2-x,1/2-y,z
y,1/2-x,z
x,1/2-y,1/2-z
1/2-x,y,1/2-z
y,x,1/2-z
1/2-y,1/2-x,1/2-z
-x,-y,-z
1/2+y,-x,-z
1/2+x,1/2+y,-z
-y,1/2+x,-z
-x,1/2+y,1/2+z
1/2+x,-y,1/2+z
-y,-x,1/2+z
1/2+y,1/2+x,1/2+z
loop_
_atom_site_type_symbol
_atom_site_label
_atom_site_fract_x
_atom_site_fract_y
_atom_site_fract_z
Si Si1 0.872755 0.345372 0.768875
Si Si2 0.344482 0.155519 0.750000
Si Si3 0.634654 0.195231 0.464772
Si Si4 0.939893 0.419770 0.080962
Si Si5 0.525401 0.899549 0.107549
O O1 0.863332 0.250000 0.750000
O O2 0.806863 0.370541 0.848706
O O3 0.875470 0.402169 0.674282
O O4 0.957891 0.359781 0.823775
O O5 0.359604 0.250000 0.750000
O O6 0.389625 0.122791 0.845971
O O7 0.647895 0.282557 0.508548
O O8 0.566951 0.140523 0.514307
O O9 0.978000 0.503774 0.113100
O O10 0.002910 0.379779 0.005136
#
# Coordination Sequence:
#
# PCOD9563368 Si02
#       5
#    16   8  16  16  16
#     4  11  19  34  56  75 109 153 193 235 292 344
#     4  11  22  36  60  90 114 148 194 247 312 362
#     4  10  21  34  49  77 110 148 194 239 281 342
#     4  10  20  34  51  79 105 151 192 229 288 353
#     4  10  21  34  54  79 113 143 188 239 289 351
#
# _framework density 18.974602999999998
#
# number of rings (size 3 to 8) (size 9 to 14) (size 15 to 20)
#    0.000    1.667    4.444    0.667    0.000    0.889 
#    0.000    0.000    0.000    2.667    0.000    0.000 
#    0.000    0.000    0.000   89.333    0.000    0.000 
#
# Total GULP energy -401426.032354 kJ/mol
# GULP energy per Si atom -5575.361560 kJ/mol
# Density = 1.893142 g / cm^3
# Si number density = 18.974603 Si / 1000 Ang^3
#
#
#
# Elastic Constant Matrix: (Units=GPa)
#
#
# Indices 1 2 3 4 5 6 
#
# 1 30.4408 48.7523 31.1731 0.0000 0.0000 0.0000
# 2 48.7523 30.4440 31.1739 0.0000 0.0000 0.0000
# 3 31.1731 31.1739 163.0585 0.0000 0.0000 0.0000
# 4 0.0000 0.0000 0.0000 30.3929 0.0000 0.0000
# 5 0.0000 0.0000 0.0000 0.0000 30.3939 0.0000
# 6 0.0000 0.0000 0.0000 0.0000 0.0000 15.6820
#
#
#
# Elastic Compliance Matrix: (Units=1/GPa)
#
#
# Indices 1 2 3 4 5 6 
#
# 1 -0.019877 0.034740 -0.002842 0.000000 0.000000 0.000000
# 2 0.034740 -0.019874 -0.002842 0.000000 0.000000 0.000000
# 3 -0.002842 -0.002842 0.007219 0.000000 0.000000 0.000000
# 4 0.000000 0.000000 0.000000 0.032902 0.000000 0.000000
# 5 0.000000 0.000000 0.000000 0.000000 0.032901 0.000000
# 6 0.000000 0.000000 0.000000 0.000000 0.000000 0.063767
#
#
# Mechanical properties :
#
#
# Convention : Reuss Voigt Hill
#
# Bulk Modulus (GPa) = 39.09161 49.57132 44.33146
# Shear Modulus (GPa) = 105.36567 22.81669 64.09118
#
# Velocity S-wave (km/s) = 7.45992 3.47145 5.81813
# Velocity P-wave (km/s) = 9.73896 6.49998 8.27940
#
# Compressibility (1/GPa) = 0.02558094
#
# Stress axis : x y z
#
# Youngs Moduli (GPa) = -50.31013 -50.31608 138.51680
#
# Poissons Ratio (x) = 1.74797 0.39362
# Poissons Ratio (y) = 1.74777 0.39364
# Poissons Ratio (z) = -0.14296 -0.14299
#
# Static dielectric constant tensor:
#      x y z
#    x 1.682300 0.000000 0.000000 
#    y 0.000000 1.682300 0.000000 
#    z 0.000000 0.000000 1.740990 
# 
# From -- ./inp_files/2663.got.cif
#   From: 2010.05.17/outbox.cif.g08.bks.cpg/sg126_2_cif.got.tgz:2663.got - 2010.05.20 11:58:20.
