data_PCOD9563070
_publ_section_title
;
Structure prediction by ZEFSAII (Michael W. Deem and Ramdas Pophale) SiO2 
 PCOD9563070
Probable space group: P 4/N B M
;
_chemical_formula_sum "Si O2"
_cell_formula_units_Z 96
_cell_length_a 14.518415
_cell_length_b 14.518415
_cell_length_c 22.604434
_cell_angle_alpha 90.000000
_cell_angle_beta 90.000000
_cell_angle_gamma 90.000000
_cell_volume 4764.661473
_symmetry_space_group_name_H-M "P 4/N B M"
_symmetry_group_IT_number 125
_space_group.IT_coordinate_system_code '2'
_symmetry_cell_setting 'tetragonal'
loop_
_space_group_symop_operation_xyz
x,y,z
1/2-y,x,z
1/2-x,1/2-y,z
y,1/2-x,z
x,1/2-y,-z
1/2-x,y,-z
y,x,-z
1/2-y,1/2-x,-z
-x,-y,-z
1/2+y,-x,-z
1/2+x,1/2+y,-z
-y,1/2+x,-z
-x,1/2+y,z
1/2+x,-y,z
-y,-x,z
1/2+y,1/2+x,z
loop_
_atom_site_type_symbol
_atom_site_label
_atom_site_fract_x
_atom_site_fract_y
_atom_site_fract_z
Si Si1 0.504898 0.648215 0.473259
Si Si2 0.102761 0.747549 0.882598
Si Si3 0.397635 0.249274 0.071348
Si Si4 0.709839 0.065071 0.751806
Si Si5 0.980638 0.633898 0.666752
Si Si6 0.832682 0.624832 0.758277
O O1 0.498729 0.750000 0.500000
O O2 0.590106 0.590106 0.500000
O O3 0.413710 0.586291 0.485337
O O4 0.517033 0.653664 0.402528
O O5 0.160831 0.839170 0.897401
O O6 0.161228 0.661228 0.905646
O O7 0.099128 0.742267 0.811413
O O8 0.000426 0.748803 0.906316
O O9 0.339690 0.338761 0.090851
O O10 0.397705 0.250000 0.000000
O O11 0.645447 0.145447 0.727276
O O12 0.783564 0.028606 0.704234
O O13 0.645863 0.979775 0.774847
O O14 0.041540 0.541540 0.677262
O O15 0.875977 0.624825 0.691304
O O16 0.869668 0.724841 0.775978
#
# Coordination Sequence:
#
# PCOD9563070 Si02
#       6
#    16  16  16  16  16  16
#     4  10  24  43  63  89 120 154 198 252 309 372
#     4  10  22  39  59  88 126 164 206 257 309 366
#     4   9  20  40  64  90 123 164 210 259 310 365
#     4  10  21  37  58  82 115 155 194 240 293 353
#     4  10  21  37  59  84 110 148 192 237 294 358
#     4   9  19  34  53  79 110 142 182 229 282 345
#
# _framework density 20.148337000000001
#
# number of rings (size 3 to 8) (size 9 to 14) (size 15 to 20)
#    0.000    2.333    0.000    1.500    4.667    6.000 
#    0.000   10.833    0.000    0.000    0.000    0.000 
#    0.000    0.000    0.000    0.000    0.000    0.000 
#
# Total GULP energy -534670.956207 kJ/mol
# GULP energy per Si atom -5569.489127 kJ/mol
# Density = 2.010248 g / cm^3
# Si number density = 20.148337 Si / 1000 Ang^3
#
#
#
# Elastic Constant Matrix: (Units=GPa)
#
#
# Indices 1 2 3 4 5 6 
#
# 1 140.9037 75.2592 44.0422 0.0000 0.0000 0.0000
# 2 75.2592 140.9037 44.0422 0.0000 0.0000 0.0000
# 3 44.0422 44.0422 54.1416 0.0000 0.0000 0.0000
# 4 0.0000 0.0000 0.0000 28.0446 0.0000 0.0000
# 5 0.0000 0.0000 0.0000 0.0000 28.0446 0.0000
# 6 0.0000 0.0000 0.0000 0.0000 0.0000 14.8373
#
#
#
# Elastic Compliance Matrix: (Units=1/GPa)
#
#
# Indices 1 2 3 4 5 6 
#
# 1 0.011077 -0.004157 -0.005629 0.000000 0.000000 0.000000
# 2 -0.004157 0.011077 -0.005629 0.000000 0.000000 0.000000
# 3 -0.005629 -0.005629 0.027628 0.000000 0.000000 0.000000
# 4 0.000000 0.000000 0.000000 0.035658 0.000000 0.000000
# 5 0.000000 0.000000 0.000000 0.000000 0.035658 0.000000
# 6 0.000000 0.000000 0.000000 0.000000 0.000000 0.067398
#
#
# Mechanical properties :
#
#
# Convention : Reuss Voigt Hill
#
# Bulk Modulus (GPa) = 52.76582 73.62626 63.19604
# Shear Modulus (GPa) = 22.15899 25.69231 23.92565
#
# Velocity S-wave (km/s) = 3.31991 3.57481 3.44971
# Velocity P-wave (km/s) = 6.39854 7.32533 6.87756
#
# Compressibility (1/GPa) = 0.01895166
#
# Stress axis : x y z
#
# Youngs Moduli (GPa) = 90.27906 90.27906 36.19476
#
# Poissons Ratio (x) = 0.37527 0.20375
# Poissons Ratio (y) = 0.37527 0.20375
# Poissons Ratio (z) = 0.50819 0.50819
#
# Static dielectric constant tensor:
#      x y z
#    x 1.735540 0.000000 0.000000 
#    y 0.000000 1.735540 0.000000 
#    z 0.000000 0.000000 1.725670 
# 
# From -- ./inp_files/5924.got.cif
#   From: 2010.05.17/outbox.cif.g08.bks.cpg/sg125_3_cif.got.tgz:5924.got - 2010.05.20 11:54:10.
