data_PCOD9563056
_publ_section_title
;
Structure prediction by ZEFSAII (Michael W. Deem and Ramdas Pophale) SiO2 
 PCOD9563056
Probable space group: P 4/N B M
;
_chemical_formula_sum "Si O2"
_cell_formula_units_Z 96
_cell_length_a 14.531006
_cell_length_b 14.531006
_cell_length_c 23.441274
_cell_angle_alpha 90.000000
_cell_angle_beta 90.000000
_cell_angle_gamma 90.000000
_cell_volume 4949.628178
_symmetry_space_group_name_H-M "P 4/N B M"
_symmetry_group_IT_number 125
_space_group.IT_coordinate_system_code '2'
_symmetry_cell_setting 'tetragonal'
loop_
_space_group_symop_operation_xyz
x,y,z
1/2-y,x,z
1/2-x,1/2-y,z
y,1/2-x,z
x,1/2-y,-z
1/2-x,y,-z
y,x,-z
1/2-y,1/2-x,-z
-x,-y,-z
1/2+y,-x,-z
1/2+x,1/2+y,-z
-y,1/2+x,-z
-x,1/2+y,z
1/2+x,-y,z
-y,-x,z
1/2+y,1/2+x,z
loop_
_atom_site_type_symbol
_atom_site_label
_atom_site_fract_x
_atom_site_fract_y
_atom_site_fract_z
Si Si1 0.150526 0.000748 0.161202
Si Si2 0.744354 0.098051 0.436029
Si Si3 0.489748 0.146946 0.785997
Si Si4 0.004013 0.147333 0.975609
Si Si5 0.354864 0.009259 0.344953
Si Si6 0.641569 0.860052 0.439433
O O1 0.091041 0.908960 0.175778
O O2 0.092955 0.086171 0.187506
O O3 0.255225 0.996970 0.183146
O O4 0.150584 0.010129 0.092826
O O5 0.750000 0.056614 0.500000
O O6 0.820475 0.179526 0.438202
O O7 0.646023 0.146023 0.428184
O O8 0.774034 0.036307 0.382916
O O9 0.467392 0.168648 0.719721
O O10 0.580936 0.080936 0.789564
O O11 0.998757 0.250000 0.000000
O O12 0.091284 0.091284 0.000000
O O13 0.914271 0.085730 0.990988
O O14 0.432948 0.932948 0.341502
O O15 0.394037 0.092057 0.383139
O O16 0.628373 0.750158 0.438756
O O17 0.603804 0.896197 0.500000
#
# Coordination Sequence:
#
# PCOD9563056 Si02
#       6
#    16  16  16  16  16  16
#     4  10  22  41  64  90 125 167 202 246 306 354
#     4   8  15  29  48  73 106 139 174 225 293 358
#     4  10  23  41  59  87 125 163 212 256 292 362
#     4  10  21  38  63  94 128 164 201 248 303 355
#     4  10  21  35  55  82 108 140 186 241 291 342
#     4   9  20  37  54  72 101 141 182 229 287 352
#
# _framework density 19.395396000000002
#
# number of rings (size 3 to 8) (size 9 to 14) (size 15 to 20)
#    0.000    2.500    0.000    2.000    4.667    4.000 
#    0.000    5.833    0.000    0.000    0.000    0.000 
#    0.000    0.000    0.000    0.000    0.000    0.000 
#
# Total GULP energy -535366.882693 kJ/mol
# GULP energy per Si atom -5576.738361 kJ/mol
# Density = 1.935125 g / cm^3
# Si number density = 19.395396 Si / 1000 Ang^3
#
#
#
# Elastic Constant Matrix: (Units=GPa)
#
#
# Indices 1 2 3 4 5 6 
#
# 1 121.5568 49.0373 58.0654 0.0000 0.0000 0.0000
# 2 49.0373 121.5568 58.0654 0.0000 0.0000 0.0000
# 3 58.0654 58.0654 128.3023 0.0000 0.0000 0.0000
# 4 0.0000 0.0000 0.0000 30.1705 0.0000 0.0000
# 5 0.0000 0.0000 0.0000 0.0000 30.1707 0.0000
# 6 0.0000 0.0000 0.0000 0.0000 0.0000 2.7925
#
#
#
# Elastic Compliance Matrix: (Units=1/GPa)
#
#
# Indices 1 2 3 4 5 6 
#
# 1 0.011131 -0.002659 -0.003834 0.000000 0.000000 0.000000
# 2 -0.002659 0.011131 -0.003834 0.000000 0.000000 0.000000
# 3 -0.003834 -0.003834 0.011264 0.000000 0.000000 0.000000
# 4 0.000000 0.000000 0.000000 0.033145 0.000000 0.000000
# 5 0.000000 0.000000 0.000000 0.000000 0.033145 0.000000
# 6 0.000000 0.000000 0.000000 0.000000 0.000000 0.358107
#
#
# Mechanical properties :
#
#
# Convention : Reuss Voigt Hill
#
# Bulk Modulus (GPa) = 77.68884 77.97247 77.83065
# Shear Modulus (GPa) = 10.35482 26.37658 18.36570
#
# Velocity S-wave (km/s) = 2.31309 3.69174 3.08053
# Velocity P-wave (km/s) = 6.87576 7.64596 7.27107
#
# Compressibility (1/GPa) = 0.01287186
#
# Stress axis : x y z
#
# Youngs Moduli (GPa) = 89.84195 89.84197 88.77462
#
# Poissons Ratio (x) = 0.23887 0.34037
# Poissons Ratio (y) = 0.23887 0.34037
# Poissons Ratio (z) = 0.34446 0.34446
#
# Static dielectric constant tensor:
#      x y z
#    x 1.704620 0.000000 0.000000 
#    y 0.000000 1.704620 0.000000 
#    z 0.000000 0.000000 1.683620 
# 
# From -- ./inp_files/5951.got.cif
#   From: 2010.05.17/outbox.cif.g08.bks.cpg/sg125_3_cif.got.tgz:5951.got - 2010.05.20 11:54:10.
