data_PCOD9563977
_publ_section_title
;
Structure prediction by ZEFSAII (Michael W. Deem and Ramdas Pophale) SiO2 
 PCOD9563977
Probable space group: P 4/M B M
;
_chemical_formula_sum "Si O2"
_cell_formula_units_Z 88
_cell_length_a 27.017412
_cell_length_b 27.017412
_cell_length_c 9.147179
_cell_angle_alpha 90.000000
_cell_angle_beta 90.000000
_cell_angle_gamma 90.000000
_cell_volume 6676.896881
_symmetry_space_group_name_H-M "P 4/M B M"
_symmetry_group_IT_number 127
_symmetry_cell_setting 'tetragonal'
loop_
_space_group_symop_operation_xyz
x,y,z
-y,x,z
-x,-y,z
y,-x,z
1/2+x,1/2-y,-z
1/2-x,1/2+y,-z
1/2+y,1/2+x,-z
1/2-y,1/2-x,-z
-x,-y,-z
y,-x,-z
x,y,-z
-y,x,-z
1/2-x,1/2+y,z
1/2+x,1/2-y,z
1/2-y,1/2-x,z
1/2+y,1/2+x,z
loop_
_atom_site_type_symbol
_atom_site_label
_atom_site_fract_x
_atom_site_fract_y
_atom_site_fract_z
Si Si1 0.747503 0.837593 0.332053
Si Si2 0.267457 0.317788 0.831467
Si Si3 0.195118 0.387491 0.326415
Si Si4 0.958034 0.541967 0.172257
Si Si5 0.510126 0.143849 0.324555
Si Si6 0.675100 0.908899 0.826757
O O1 0.756196 0.851965 0.500000
O O2 0.705887 0.794114 0.332806
O O3 0.795539 0.813225 0.258480
O O4 0.722961 0.881424 0.239251
O O5 0.225006 0.274995 0.827483
O O6 0.241377 0.365210 0.760081
O O7 0.280553 0.325975 0.000000
O O8 0.204361 0.382890 0.500000
O O9 0.147564 0.352437 0.293616
O O10 0.180109 0.443592 0.293573
O O11 0.908537 0.523103 0.250855
O O12 0.000000 0.500000 0.183175
O O13 0.948723 0.551278 0.000000
O O14 0.506396 0.138129 0.500000
O O15 0.459412 0.163837 0.257218
O O16 0.628868 0.871133 0.806064
O O17 0.680461 0.917146 0.000000
#
# Coordination Sequence:
#
# PCOD9563977 Si02
#       6
#    16  16  16   8  16  16
#     4   9  16  27  43  61  79 101 127 158 197 242
#     4   9  16  25  40  62  82 100 123 154 196 243
#     4   9  17  30  43  57  78 102 130 165 204 245
#     4  11  23  35  45  57  75 101 137 181 225 261
#     4  11  21  33  46  60  77 103 138 176 214 253
#     4  10  20  32  44  59  80 104 133 172 213 251
#
# _framework density 13.179774999999999
#
# number of rings (size 3 to 8) (size 9 to 14) (size 15 to 20)
#    0.000    2.273    0.909    3.000    0.000    9.818 
#    0.000    0.000    0.000    0.000    0.000    0.000 
#    0.000    0.000    0.000    0.000    0.000    0.909 
#
# Total GULP energy -490687.188622 kJ/mol
# GULP energy per Si atom -5575.990780 kJ/mol
# Density = 1.314978 g / cm^3
# Si number density = 13.179775 Si / 1000 Ang^3
#
#
#
# Elastic Constant Matrix: (Units=GPa)
#
#
# Indices 1 2 3 4 5 6 
#
# 1 59.7952 59.4332 59.3750 0.0000 0.0000 0.0000
# 2 59.4332 59.7948 59.3751 0.0000 0.0000 0.0000
# 3 59.3750 59.3751 102.5152 0.0000 0.0000 0.0000
# 4 0.0000 0.0000 0.0000 18.7420 0.0000 0.0000
# 5 0.0000 0.0000 0.0000 0.0000 18.7420 0.0000
# 6 0.0000 0.0000 0.0000 0.0000 0.0000 18.8786
#
#
#
# Elastic Compliance Matrix: (Units=1/GPa)
#
#
# Indices 1 2 3 4 5 6 
#
# 1 1.392004 -1.372195 -0.011472 0.000000 0.000000 0.000000
# 2 -1.372195 1.392029 -0.011488 0.000000 0.000000 0.000000
# 3 -0.011472 -0.011488 0.023053 0.000000 0.000000 0.000000
# 4 0.000000 0.000000 0.000000 0.053356 0.000000 0.000000
# 5 0.000000 0.000000 0.000000 0.000000 0.053356 0.000000
# 6 0.000000 0.000000 0.000000 0.000000 0.000000 0.052970
#
#
# Mechanical properties :
#
#
# Convention : Reuss Voigt Hill
#
# Bulk Modulus (GPa) = 59.61280 64.27465 61.94373
# Shear Modulus (GPa) = 0.86765 14.20065 7.53415
#
# Velocity S-wave (km/s) = 0.81225 3.28603 2.39350
# Velocity P-wave (km/s) = 6.79767 7.95429 7.39862
#
# Compressibility (1/GPa) = 0.01677492
#
# Stress axis : x y z
#
# Youngs Moduli (GPa) = 0.71839 0.71838 43.37832
#
# Poissons Ratio (x) = 0.98575 0.49765
# Poissons Ratio (y) = 0.98577 0.49834
# Poissons Ratio (z) = 0.00824 0.00825
#
# Static dielectric constant tensor:
#      x y z
#    x 1.411360 0.000000 0.000000 
#    y 0.000000 1.411360 0.000000 
#    z 0.000000 0.000000 1.440520 
# 
# From -- ./inp_files/2175.got.cif
#   From: 2010.05.17/outbox.cif.g08.bks.cpg/sg127_2_cif.got.tgz:2175.got - 2010.05.20 12:03:00.
