data_PCOD9563578
_publ_section_title
;
Structure prediction by ZEFSAII (Michael W. Deem and Ramdas Pophale) SiO2 
 PCOD9563578
Probable space group: P 4/N N C
;
_chemical_formula_sum "Si O2"
_cell_formula_units_Z 112
_cell_length_a 13.782531
_cell_length_b 13.782531
_cell_length_c 33.915097
_cell_angle_alpha 90.000000
_cell_angle_beta 90.000000
_cell_angle_gamma 90.000000
_cell_volume 6442.449448
_symmetry_space_group_name_H-M "P 4/N N C"
_symmetry_group_IT_number 126
_space_group.IT_coordinate_system_code '2'
_symmetry_cell_setting 'tetragonal'
loop_
_space_group_symop_operation_xyz
x,y,z
1/2-y,x,z
1/2-x,1/2-y,z
y,1/2-x,z
x,1/2-y,1/2-z
1/2-x,y,1/2-z
y,x,1/2-z
1/2-y,1/2-x,1/2-z
-x,-y,-z
1/2+y,-x,-z
1/2+x,1/2+y,-z
-y,1/2+x,-z
-x,1/2+y,1/2+z
1/2+x,-y,1/2+z
-y,-x,1/2+z
1/2+y,1/2+x,1/2+z
loop_
_atom_site_type_symbol
_atom_site_label
_atom_site_fract_x
_atom_site_fract_y
_atom_site_fract_z
Si Si1 0.160379 0.878542 0.508308
Si Si2 0.289558 0.512946 0.625715
Si Si3 0.138249 0.008547 0.434082
Si Si4 0.356492 0.697260 0.589521
Si Si5 0.862315 0.635606 0.500120
Si Si6 0.913938 0.749086 0.294121
Si Si7 0.905207 0.543087 0.417356
O O1 0.276335 0.875046 0.508984
O O2 0.131505 0.958634 0.477550
O O3 0.125311 0.874989 0.552562
O O4 0.337115 0.620261 0.623989
O O5 0.255912 0.486654 0.669558
O O6 0.197458 0.501677 0.596467
O O7 0.366160 0.433937 0.609608
O O8 0.226059 0.946253 0.413505
O O9 0.042297 0.982291 0.410777
O O10 0.127512 0.116482 0.452425
O O11 0.250000 0.750000 0.583553
O O12 0.882724 0.748615 0.493258
O O13 0.906088 0.575244 0.463324
O O14 0.843660 0.842325 0.297136
O O15 0.957119 0.750000 0.250000
#
# Coordination Sequence:
#
# PCOD9563578 Si02
#       7
#    16  16  16  16  16  16  16
#     4   9  14  27  45  63  86 117 167 217 255 285
#     4  12  22  34  57  80 108 134 170 226 274 326
#     4  11  23  35  52  69  96 140 189 232 271 328
#     4  11  20  34  50  75  99 132 179 230 268 308
#     4  11  25  38  46  64 100 142 185 236 282 322
#     4   9  18  34  56  80 109 145 175 204 254 332
#     4  12  23  36  51  77 104 137 176 227 288 321
#
# _framework density 17.384692999999999
#
# number of rings (size 3 to 8) (size 9 to 14) (size 15 to 20)
#    0.000    1.286    7.143    1.714    6.000    0.286 
#    0.000    0.000    0.000    0.429    0.000    0.000 
#    0.000    0.000    0.000    0.000    0.000    0.000 
#
# Total GULP energy -623625.584174 kJ/mol
# GULP energy per Si atom -5568.085573 kJ/mol
# Density = 1.734512 g / cm^3
# Si number density = 17.384693 Si / 1000 Ang^3
#
#
#
# Elastic Constant Matrix: (Units=GPa)
#
#
# Indices 1 2 3 4 5 6 
#
# 1 58.3394 7.0476 25.1887 0.0000 0.0000 0.0000
# 2 7.0476 58.3394 25.1887 0.0000 0.0000 0.0000
# 3 25.1887 25.1887 76.0754 0.0000 0.0000 0.0000
# 4 0.0000 0.0000 0.0000 16.7529 0.0000 0.0000
# 5 0.0000 0.0000 0.0000 0.0000 16.7529 0.0000
# 6 0.0000 0.0000 0.0000 0.0000 0.0000 12.7650
#
#
#
# Elastic Compliance Matrix: (Units=1/GPa)
#
#
# Indices 1 2 3 4 5 6 
#
# 1 0.020014 0.000517 -0.006798 0.000000 0.000000 0.000000
# 2 0.000517 0.020014 -0.006798 0.000000 0.000000 0.000000
# 3 -0.006798 -0.006798 0.017646 0.000000 0.000000 0.000000
# 4 0.000000 0.000000 0.000000 0.059691 0.000000 0.000000
# 5 0.000000 0.000000 0.000000 0.000000 0.059691 0.000000
# 6 0.000000 0.000000 0.000000 0.000000 0.000000 0.078339
#
#
# Mechanical properties :
#
#
# Convention : Reuss Voigt Hill
#
# Bulk Modulus (GPa) = 31.72896 34.17825 32.95361
# Shear Modulus (GPa) = 17.11996 18.27614 17.69805
#
# Velocity S-wave (km/s) = 3.14151 3.24586 3.19411
# Velocity P-wave (km/s) = 5.60799 5.80949 5.70962
#
# Compressibility (1/GPa) = 0.03151694
#
# Stress axis : x y z
#
# Youngs Moduli (GPa) = 49.96603 49.96603 56.66881
#
# Poissons Ratio (x) = -0.02585 0.38522
# Poissons Ratio (y) = -0.02585 0.38522
# Poissons Ratio (z) = 0.33966 0.33966
#
# Static dielectric constant tensor:
#      x y z
#    x 1.706540 0.000000 0.000000 
#    y 0.000000 1.706540 0.000000 
#    z 0.000000 0.000000 1.600140 
# 
# From -- ./inp_files/6634.got.cif
#   From: 2010.05.17/outbox.cif.g08.bks.cpg/sg126_4_cif.got.tgz:6634.got - 2010.05.20 11:58:20.
