data_PCOD9563457
_publ_section_title
;
Structure prediction by ZEFSAII (Michael W. Deem and Ramdas Pophale) SiO2 
 PCOD9563457
Probable space group: P 4/N N C
;
_chemical_formula_sum "Si O2"
_cell_formula_units_Z 96
_cell_length_a 24.605339
_cell_length_b 24.605339
_cell_length_c 8.456708
_cell_angle_alpha 90.000000
_cell_angle_beta 90.000000
_cell_angle_gamma 90.000000
_cell_volume 5119.883052
_symmetry_space_group_name_H-M "P 4/N N C"
_symmetry_group_IT_number 126
_space_group.IT_coordinate_system_code '2'
_symmetry_cell_setting 'tetragonal'
loop_
_space_group_symop_operation_xyz
x,y,z
1/2-y,x,z
1/2-x,1/2-y,z
y,1/2-x,z
x,1/2-y,1/2-z
1/2-x,y,1/2-z
y,x,1/2-z
1/2-y,1/2-x,1/2-z
-x,-y,-z
1/2+y,-x,-z
1/2+x,1/2+y,-z
-y,1/2+x,-z
-x,1/2+y,1/2+z
1/2+x,-y,1/2+z
-y,-x,1/2+z
1/2+y,1/2+x,1/2+z
loop_
_atom_site_type_symbol
_atom_site_label
_atom_site_fract_x
_atom_site_fract_y
_atom_site_fract_z
Si Si1 0.403024 0.800794 0.072262
Si Si2 0.448777 0.031778 0.931847
Si Si3 0.638827 0.569630 0.865163
Si Si4 0.321230 0.883477 0.930810
Si Si5 0.734852 0.528599 0.064036
Si Si6 0.507670 0.156718 0.417037
O O1 0.370776 0.743228 0.062589
O O2 0.403475 0.825020 0.249932
O O3 0.466903 0.788735 0.043005
O O4 0.368302 0.840471 0.962962
O O5 0.458098 0.041903 0.750000
O O6 0.439941 0.088470 0.019781
O O7 0.394194 0.998939 0.967050
O O8 0.500000 0.000000 0.000000
O O9 0.620182 0.620182 0.750000
O O10 0.641861 0.516962 0.751352
O O11 0.692803 0.568800 0.974839
O O12 0.327583 0.929998 0.063705
O O13 0.750000 0.537333 0.250000
O O14 0.792293 0.527688 0.975226
#
# Coordination Sequence:
#
# PCOD9563457 Si02
#       6
#    16  16  16  16  16  16
#     4  10  22  38  54  80 109 151 215 267 329 383
#     4  11  23  37  56  84 124 167 205 253 313 379
#     4  10  23  39  58  90 120 157 210 259 313 383
#     4  10  22  38  55  78 110 149 212 267 325 379
#     4  11  20  40  62  85 122 162 209 265 315 390
#     4  10  21  38  57  87 116 156 210 252 316 371
#
# _framework density 18.750426999999998
#
# number of rings (size 3 to 8) (size 9 to 14) (size 15 to 20)
#    0.000    1.667    3.333    3.000    4.667    1.000 
#    0.000    1.667    0.000    0.000    0.000    0.000 
#    0.000   64.667    0.000   94.833    0.000    0.000 
#
# Total GULP energy -534970.133201 kJ/mol
# GULP energy per Si atom -5572.605554 kJ/mol
# Density = 1.870775 g / cm^3
# Si number density = 18.750427 Si / 1000 Ang^3
#
#
#
# Elastic Constant Matrix: (Units=GPa)
#
#
# Indices 1 2 3 4 5 6 
#
# 1 53.1585 42.1991 26.6561 0.0000 0.0000 0.0000
# 2 42.1991 53.1593 26.6565 0.0000 0.0000 0.0000
# 3 26.6561 26.6565 87.2605 0.0000 0.0000 0.0000
# 4 0.0000 0.0000 0.0000 31.7722 0.0000 0.0000
# 5 0.0000 0.0000 0.0000 0.0000 31.7719 0.0000
# 6 0.0000 0.0000 0.0000 0.0000 0.0000 28.0385
#
#
#
# Elastic Compliance Matrix: (Units=1/GPa)
#
#
# Indices 1 2 3 4 5 6 
#
# 1 0.051945 -0.039298 -0.003863 0.000000 0.000000 0.000000
# 2 -0.039298 0.051945 -0.003863 0.000000 0.000000 0.000000
# 3 -0.003863 -0.003863 0.013820 0.000000 0.000000 0.000000
# 4 0.000000 0.000000 0.000000 0.031474 0.000000 0.000000
# 5 0.000000 0.000000 0.000000 0.000000 0.031474 0.000000
# 6 0.000000 0.000000 0.000000 0.000000 0.000000 0.035665
#
#
# Mechanical properties :
#
#
# Convention : Reuss Voigt Hill
#
# Bulk Modulus (GPa) = 42.26468 42.73352 42.49910
# Shear Modulus (GPa) = 15.71043 24.85429 20.28236
#
# Velocity S-wave (km/s) = 2.89774 3.64474 3.29249
# Velocity P-wave (km/s) = 5.81252 6.36807 6.09663
#
# Compressibility (1/GPa) = 0.02366042
#
# Stress axis : x y z
#
# Youngs Moduli (GPa) = 19.25108 19.25131 72.35751
#
# Poissons Ratio (x) = 0.75654 0.27953
# Poissons Ratio (y) = 0.75653 0.27955
# Poissons Ratio (z) = 0.07437 0.07438
#
# Static dielectric constant tensor:
#      x y z
#    x 1.655910 0.000000 0.000000 
#    y 0.000000 1.655920 0.000000 
#    z 0.000000 0.000000 1.677370 
# 
# From -- ./inp_files/1765.got.cif
#   From: 2010.05.17/outbox.cif.g08.bks.cpg/sg126_1_cif.got.tgz:1765.got - 2010.05.20 11:58:20.
