data_PCOD9563652
_publ_section_title
;
Structure prediction by ZEFSAII (Michael W. Deem and Ramdas Pophale) SiO2 
 PCOD9563652
Probable space group: P 4/N N C
;
_chemical_formula_sum "Si O2"
_cell_formula_units_Z 88
_cell_length_a 16.136604
_cell_length_b 16.136604
_cell_length_c 13.612306
_cell_angle_alpha 90.000000
_cell_angle_beta 90.000000
_cell_angle_gamma 90.000000
_cell_volume 3544.508205
_symmetry_space_group_name_H-M "P 4/N N C"
_symmetry_group_IT_number 126
_space_group.IT_coordinate_system_code '2'
_symmetry_cell_setting 'tetragonal'
loop_
_space_group_symop_operation_xyz
x,y,z
1/2-y,x,z
1/2-x,1/2-y,z
y,1/2-x,z
x,1/2-y,1/2-z
1/2-x,y,1/2-z
y,x,1/2-z
1/2-y,1/2-x,1/2-z
-x,-y,-z
1/2+y,-x,-z
1/2+x,1/2+y,-z
-y,1/2+x,-z
-x,1/2+y,1/2+z
1/2+x,-y,1/2+z
-y,-x,1/2+z
1/2+y,1/2+x,1/2+z
loop_
_atom_site_type_symbol
_atom_site_label
_atom_site_fract_x
_atom_site_fract_y
_atom_site_fract_z
Si Si1 0.125210 0.198360 0.875637
Si Si2 0.652532 0.342661 0.735574
Si Si3 0.443121 0.592310 0.431311
Si Si4 0.503785 0.832677 0.867882
Si Si5 0.936813 0.844607 0.916298
Si Si6 0.933009 0.933009 0.250000
O O1 0.207590 0.145478 0.852640
O O2 0.056934 0.153207 0.810658
O O3 0.111705 0.192302 0.991542
O O4 0.616317 0.250000 0.750000
O O5 0.750000 0.335617 0.750000
O O6 0.630626 0.360641 0.623125
O O7 0.634828 0.425497 0.803088
O O8 0.481033 0.645625 0.518509
O O9 0.402389 0.507080 0.465507
O O10 0.502839 0.569167 0.339953
O O11 0.590983 0.881154 0.854920
O O12 0.523100 0.734069 0.860507
#
# Coordination Sequence:
#
# PCOD9563652 Si02
#       6
#    16  16  16  16  16   8
#     4  11  23  41  69 110 154 200 254 316 393 487
#     4  11  27  51  76 108 145 197 264 331 396 468
#     4  12  27  45  74 108 153 202 257 330 386 481
#     4  12  27  48  80 115 158 205 263 325 412 482
#     4  12  24  47  73 113 157 203 259 325 398 487
#     4  12  24  43  66 106 152 205 258 316 390 468
#
# _framework density 24.827138999999999
#
# number of rings (size 3 to 8) (size 9 to 14) (size 15 to 20)
#    0.000    0.364    5.455    2.182    5.091    2.545 
#    0.000    1.818    0.000    0.000    0.000    0.000 
#    0.000    0.000    0.000    0.000    0.000    0.000 
#
# Total GULP energy -491896.114501 kJ/mol
# GULP energy per Si atom -5589.728574 kJ/mol
# Density = 2.477063 g / cm^3
# Si number density = 24.827139 Si / 1000 Ang^3
#
#
#
# Elastic Constant Matrix: (Units=GPa)
#
#
# Indices 1 2 3 4 5 6 
#
# 1 116.0791 53.3302 39.4597 0.0000 0.0000 0.0000
# 2 53.3302 116.0791 39.4597 0.0000 0.0000 0.0000
# 3 39.4597 39.4597 141.3169 0.0000 0.0000 0.0000
# 4 0.0000 0.0000 0.0000 9.1515 0.0000 0.0000
# 5 0.0000 0.0000 0.0000 0.0000 9.1515 0.0000
# 6 0.0000 0.0000 0.0000 0.0000 0.0000 38.3376
#
#
#
# Elastic Compliance Matrix: (Units=1/GPa)
#
#
# Indices 1 2 3 4 5 6 
#
# 1 0.011361 -0.004576 -0.001895 0.000000 0.000000 0.000000
# 2 -0.004576 0.011361 -0.001895 0.000000 0.000000 0.000000
# 3 -0.001895 -0.001895 0.008134 0.000000 0.000000 0.000000
# 4 0.000000 0.000000 0.000000 0.109271 0.000000 0.000000
# 5 0.000000 0.000000 0.000000 0.000000 0.109271 0.000000
# 6 0.000000 0.000000 0.000000 0.000000 0.000000 0.026084
#
#
# Mechanical properties :
#
#
# Convention : Reuss Voigt Hill
#
# Bulk Modulus (GPa) = 70.78842 70.88602 70.83722
# Shear Modulus (GPa) = 16.83947 27.40984 22.12465
#
# Velocity S-wave (km/s) = 2.60718 3.32630 2.98845
# Velocity P-wave (km/s) = 6.13495 6.58530 6.36411
#
# Compressibility (1/GPa) = 0.01412660
#
# Stress axis : x y z
#
# Youngs Moduli (GPa) = 88.02022 88.02022 122.93464
#
# Poissons Ratio (x) = 0.40274 0.23293
# Poissons Ratio (y) = 0.40274 0.23293
# Poissons Ratio (z) = 0.16677 0.16677
#
# Static dielectric constant tensor:
#      x y z
#    x 2.022600 0.000000 0.000000 
#    y 0.000000 2.022600 0.000000 
#    z 0.000000 0.000000 1.979680 
# 
# From -- ./inp_files/3737.got.cif
#   From: 2010.05.17/outbox.cif.g08.bks.cpg/sg126_2_cif.got.tgz:3737.got - 2010.05.20 11:58:20.
