data_PCOD9563846
_publ_section_title
;
Structure prediction by ZEFSAII (Michael W. Deem and Ramdas Pophale) SiO2 
 PCOD9563846
Probable space group: P 4/M B M
;
_chemical_formula_sum "Si O2"
_cell_formula_units_Z 72
_cell_length_a 14.345054
_cell_length_b 14.345054
_cell_length_c 19.091711
_cell_angle_alpha 90.000000
_cell_angle_beta 90.000000
_cell_angle_gamma 90.000000
_cell_volume 3928.703253
_symmetry_space_group_name_H-M "P 4/M B M"
_symmetry_group_IT_number 127
_symmetry_cell_setting 'tetragonal'
loop_
_space_group_symop_operation_xyz
x,y,z
-y,x,z
-x,-y,z
y,-x,z
1/2+x,1/2-y,-z
1/2-x,1/2+y,-z
1/2+y,1/2+x,-z
1/2-y,1/2-x,-z
-x,-y,-z
y,-x,-z
x,y,-z
-y,x,-z
1/2-x,1/2+y,z
1/2+x,1/2-y,z
1/2-y,1/2-x,z
1/2+y,1/2+x,z
loop_
_atom_site_type_symbol
_atom_site_label
_atom_site_fract_x
_atom_site_fract_y
_atom_site_fract_z
Si Si1 0.835846 0.513925 0.000000
Si Si2 0.074793 0.138958 0.500000
Si Si3 0.165905 0.177674 0.000000
Si Si4 0.909449 0.251028 0.718788
Si Si5 0.248551 0.600057 0.876898
Si Si6 0.265621 0.390104 0.648032
O O1 0.753467 0.588092 0.000000
O O2 0.818925 0.457820 0.071569
O O3 0.930927 0.569074 0.000000
O O4 0.103504 0.194227 0.430478
O O5 0.963366 0.121673 0.500000
O O6 0.165394 0.118721 0.928866
O O7 0.264872 0.235128 0.000000
O O8 0.845197 0.345197 0.711945
O O9 0.938863 0.236521 0.800097
O O10 0.843459 0.166008 0.693362
O O11 0.005275 0.252509 0.675415
O O12 0.199265 0.699265 0.861818
O O13 0.172674 0.327327 0.650582
#
# Coordination Sequence:
#
# PCOD9563846 Si02
#       6
#     8   8   8  16  16  16
#     4  10  19  30  54  80 101 146 200 238 290 359
#     4  11  21  40  68  95 126 160 202 251 294 356
#     4   8  16  31  50  72 102 141 185 228 280 345
#     4  10  23  40  61  91 124 161 205 254 311 371
#     4   9  19  35  51  74 112 146 183 243 297 349
#     4  11  23  41  66  92 125 163 201 250 309 366
#
# _framework density 18.326657999999998
#
# number of rings (size 3 to 8) (size 9 to 14) (size 15 to 20)
#    0.000    2.111    2.222    1.333    3.111    2.667 
#    0.000    2.778    0.000    6.667    0.000    0.000 
#    0.000    0.000    0.000    0.000    0.000    0.000 
#
# Total GULP energy -401018.819815 kJ/mol
# GULP energy per Si atom -5569.705831 kJ/mol
# Density = 1.828495 g / cm^3
# Si number density = 18.326658 Si / 1000 Ang^3
#
#
#
# Elastic Constant Matrix: (Units=GPa)
#
#
# Indices 1 2 3 4 5 6 
#
# 1 121.4849 28.0620 40.4330 0.0000 0.0000 0.0000
# 2 28.0620 121.4911 40.4328 0.0000 0.0000 0.0000
# 3 40.4330 40.4328 147.9329 0.0000 0.0000 0.0000
# 4 0.0000 0.0000 0.0000 -11.0696 0.0000 0.0000
# 5 0.0000 0.0000 0.0000 0.0000 -11.0413 0.0000
# 6 0.0000 0.0000 0.0000 0.0000 0.0000 30.2275
#
#
#
# Elastic Compliance Matrix: (Units=1/GPa)
#
#
# Indices 1 2 3 4 5 6 
#
# 1 0.009275 -0.001429 -0.002145 0.000000 0.000000 0.000000
# 2 -0.001429 0.009275 -0.002144 0.000000 0.000000 0.000000
# 3 -0.002145 -0.002144 0.007932 0.000000 0.000000 0.000000
# 4 0.000000 0.000000 0.000000 -0.090338 0.000000 0.000000
# 5 0.000000 0.000000 0.000000 0.000000 -0.090569 0.000000
# 6 0.000000 0.000000 0.000000 0.000000 0.000000 0.033082
#
#
# Mechanical properties :
#
#
# Convention : Reuss Voigt Hill
#
# Bulk Modulus (GPa) = 66.46029 67.64052 67.05040
# Shear Modulus (GPa) = -47.66869 20.42206 -13.62332
#
# Velocity S-wave (km/s) = -5.10559 3.34179 -2.72942
# Velocity P-wave (km/s) = 1.25974 7.20267 5.17037
#
# Compressibility (1/GPa) = 0.01504658
#
# Stress axis : x y z
#
# Youngs Moduli (GPa) = 107.81365 107.81977 126.06976
#
# Poissons Ratio (x) = 0.15404 0.27037
# Poissons Ratio (y) = 0.15403 0.27035
# Poissons Ratio (z) = 0.23122 0.23122
#
# Static dielectric constant tensor:
#      x y z
#    x 1.633410 0.000000 0.000000 
#    y 0.000000 1.633410 0.000000 
#    z 0.000000 0.000000 1.650960 
# 
# From -- ./inp_files/4976.got.cif
#   From: 2010.05.17/outbox.cif.g08.bks.cpg/sg127_3_cif.got.tgz:4976.got - 2010.05.20 12:03:00.
