data_PCOD9563728
_publ_section_title
;
Structure prediction by ZEFSAII (Michael W. Deem and Ramdas Pophale) SiO2 
 PCOD9563728
Probable space group: P 4/N N C
;
_chemical_formula_sum "Si O2"
_cell_formula_units_Z 48
_cell_length_a 12.656406
_cell_length_b 12.656406
_cell_length_c 11.096723
_cell_angle_alpha 90.000000
_cell_angle_beta 90.000000
_cell_angle_gamma 90.000000
_cell_volume 1777.524278
_symmetry_space_group_name_H-M "P 4/N N C"
_symmetry_group_IT_number 126
_space_group.IT_coordinate_system_code '2'
_symmetry_cell_setting 'tetragonal'
loop_
_space_group_symop_operation_xyz
x,y,z
1/2-y,x,z
1/2-x,1/2-y,z
y,1/2-x,z
x,1/2-y,1/2-z
1/2-x,y,1/2-z
y,x,1/2-z
1/2-y,1/2-x,1/2-z
-x,-y,-z
1/2+y,-x,-z
1/2+x,1/2+y,-z
-y,1/2+x,-z
-x,1/2+y,1/2+z
1/2+x,-y,1/2+z
-y,-x,1/2+z
1/2+y,1/2+x,1/2+z
loop_
_atom_site_type_symbol
_atom_site_label
_atom_site_fract_x
_atom_site_fract_y
_atom_site_fract_z
Si Si1 0.884174 0.123348 0.124535
Si Si2 0.727128 0.579841 0.076264
Si Si3 0.448044 0.849383 0.882349
O O1 0.867750 0.248831 0.117243
O O2 0.949922 0.110813 0.247040
O O3 0.925548 0.089987 0.990933
O O4 0.964588 0.292938 0.867437
O O5 0.835685 0.636245 0.108162
O O6 0.705381 0.554103 0.934323
#
# Coordination Sequence:
#
# PCOD9563728 Si02
#       3
#    16  16  16
#     4   9  20  40  71 105 149 192 250 312 385 452
#     4   9  20  42  77 111 150 200 257 316 381 469
#     4   9  20  40  73 105 151 193 249 314 379 455
#
# _framework density 27.003851000000001
#
# number of rings (size 3 to 8) (size 9 to 14) (size 15 to 20)
#    2.000    1.000    0.000    0.000    0.000    3.333 
#    0.000   10.000   14.667   18.000    0.000   16.333 
#    0.000    0.000    0.000    0.000    0.000    0.000 
#
# Total GULP energy -267268.481222 kJ/mol
# GULP energy per Si atom -5568.093359 kJ/mol
# Density = 2.694239 g / cm^3
# Si number density = 27.003851 Si / 1000 Ang^3
#
#
#
# Elastic Constant Matrix: (Units=GPa)
#
#
# Indices 1 2 3 4 5 6 
#
# 1 130.0828 59.3818 35.3764 0.0000 0.0000 0.0000
# 2 59.3818 130.0828 35.3764 0.0000 0.0000 0.0000
# 3 35.3764 35.3764 231.0751 0.0000 0.0000 0.0000
# 4 0.0000 0.0000 0.0000 -9.2511 0.0000 0.0000
# 5 0.0000 0.0000 0.0000 0.0000 -9.2511 0.0000
# 6 0.0000 0.0000 0.0000 0.0000 0.0000 36.0729
#
#
#
# Elastic Compliance Matrix: (Units=1/GPa)
#
#
# Indices 1 2 3 4 5 6 
#
# 1 0.009871 -0.004273 -0.000857 0.000000 0.000000 0.000000
# 2 -0.004273 0.009871 -0.000857 0.000000 0.000000 0.000000
# 3 -0.000857 -0.000857 0.004590 0.000000 0.000000 0.000000
# 4 0.000000 0.000000 0.000000 -0.108095 0.000000 0.000000
# 5 0.000000 0.000000 0.000000 0.000000 -0.108095 0.000000
# 6 0.000000 0.000000 0.000000 0.000000 0.000000 0.027722
#
#
# Mechanical properties :
#
#
# Convention : Reuss Voigt Hill
#
# Bulk Modulus (GPa) = 80.91910 83.50111 82.21011
# Shear Modulus (GPa) = -33.77416 27.58787 -3.09315
#
# Velocity S-wave (km/s) = -3.54038 3.19976 -1.07142
# Velocity P-wave (km/s) = 3.64944 6.68134 5.38325
#
# Compressibility (1/GPa) = 0.01235802
#
# Stress axis : x y z
#
# Youngs Moduli (GPa) = 101.30609 101.30609 217.86436
#
# Poissons Ratio (x) = 0.43288 0.18672
# Poissons Ratio (y) = 0.43288 0.18672
# Poissons Ratio (z) = 0.08682 0.08682
#
# Static dielectric constant tensor:
#      x y z
#    x 2.124730 0.000000 0.000000 
#    y 0.000000 2.124730 0.000000 
#    z 0.000000 0.000000 2.210400 
# 
# From -- ./inp_files/2279.got.cif
#   From: 2010.05.17/outbox.cif.g08.bks.cpg/sg126_2_cif.got.tgz:2279.got - 2010.05.20 11:58:20.
