data_PCOD9563119
_publ_section_title
;
Structure prediction by ZEFSAII (Michael W. Deem and Ramdas Pophale) SiO2 
 PCOD9563119
Probable space group: P 4/N B M
;
_chemical_formula_sum "Si O2"
_cell_formula_units_Z 112
_cell_length_a 13.900108
_cell_length_b 13.900108
_cell_length_c 26.595619
_cell_angle_alpha 90.000000
_cell_angle_beta 90.000000
_cell_angle_gamma 90.000000
_cell_volume 5138.619398
_symmetry_space_group_name_H-M "P 4/N B M"
_symmetry_group_IT_number 125
_space_group.IT_coordinate_system_code '2'
_symmetry_cell_setting 'tetragonal'
loop_
_space_group_symop_operation_xyz
x,y,z
1/2-y,x,z
1/2-x,1/2-y,z
y,1/2-x,z
x,1/2-y,-z
1/2-x,y,-z
y,x,-z
1/2-y,1/2-x,-z
-x,-y,-z
1/2+y,-x,-z
1/2+x,1/2+y,-z
-y,1/2+x,-z
-x,1/2+y,z
1/2+x,-y,z
-y,-x,z
1/2+y,1/2+x,z
loop_
_atom_site_type_symbol
_atom_site_label
_atom_site_fract_x
_atom_site_fract_y
_atom_site_fract_z
Si Si1 0.063392 0.411033 0.418821
Si Si2 0.945799 0.610173 0.693561
Si Si3 0.528854 0.867542 0.208240
Si Si4 0.730779 0.034261 0.552381
Si Si5 0.587244 0.739630 0.056520
Si Si6 0.829518 0.491320 0.154104
Si Si7 0.597829 0.257342 0.334038
O O1 0.100344 0.405864 0.361401
O O2 0.128616 0.483649 0.448717
O O3 0.956934 0.456934 0.415820
O O4 0.051578 0.307862 0.442535
O O5 0.878131 0.590882 0.740589
O O6 0.030268 0.530268 0.698750
O O7 0.001822 0.711609 0.688877
O O8 0.499283 0.760412 0.192321
O O9 0.433970 0.933970 0.211901
O O10 0.597880 0.920970 0.167642
O O11 0.750000 0.086588 0.500000
O O12 0.739367 0.088087 0.605359
O O13 0.664337 0.652299 0.061357
O O14 0.509858 0.717722 0.099511
O O15 0.546809 0.750000 0.000000
O O16 0.894484 0.394484 0.157937
O O17 0.638294 0.361707 0.317962
O O18 0.680077 0.180077 0.321741
#
# Coordination Sequence:
#
# PCOD9563119 Si02
#       7
#    16  16  16  16  16  16  16
#     4  10  22  39  58  80 110 148 194 249 307 374
#     4   8  17  37  59  82 117 158 202 254 311 383
#     4  10  22  39  61  92 130 174 223 274 336 404
#     4  11  22  35  54  78 109 153 198 245 309 379
#     4   9  17  34  63  95 130 173 230 286 337 394
#     4  11  22  38  63  96 134 177 225 283 344 396
#     4   9  18  33  56  87 119 152 196 254 320 390
#
# _framework density 21.795739000000001
#
# number of rings (size 3 to 8) (size 9 to 14) (size 15 to 20)
#    0.000    2.286    1.429    2.571    0.000    6.000 
#    0.000    5.714    0.000    6.000    0.000    2.000 
#    0.000    0.000    0.000    0.000    0.000    0.000 
#
# Total GULP energy -625175.365542 kJ/mol
# GULP energy per Si atom -5581.922907 kJ/mol
# Density = 2.174613 g / cm^3
# Si number density = 21.795739 Si / 1000 Ang^3
#
#
#
# Elastic Constant Matrix: (Units=GPa)
#
#
# Indices 1 2 3 4 5 6 
#
# 1 98.1865 54.7654 46.4766 0.0000 0.0000 0.0000
# 2 54.7654 98.1865 46.4766 0.0000 0.0000 0.0000
# 3 46.4766 46.4766 156.9939 0.0000 0.0000 0.0000
# 4 0.0000 0.0000 0.0000 3.0700 0.0000 0.0000
# 5 0.0000 0.0000 0.0000 0.0000 3.0700 0.0000
# 6 0.0000 0.0000 0.0000 0.0000 0.0000 35.0795
#
#
#
# Elastic Compliance Matrix: (Units=1/GPa)
#
#
# Indices 1 2 3 4 5 6 
#
# 1 0.015501 -0.007529 -0.002360 0.000000 0.000000 0.000000
# 2 -0.007529 0.015501 -0.002360 0.000000 0.000000 0.000000
# 3 -0.002360 -0.002360 0.007767 0.000000 0.000000 0.000000
# 4 0.000000 0.000000 0.000000 0.325729 0.000000 0.000000
# 5 0.000000 0.000000 0.000000 0.000000 0.325729 0.000000
# 6 0.000000 0.000000 0.000000 0.000000 0.000000 0.028507
#
#
# Mechanical properties :
#
#
# Convention : Reuss Voigt Hill
#
# Bulk Modulus (GPa) = 70.07130 72.08935 71.08033
# Shear Modulus (GPa) = 6.68459 21.95381 14.31920
#
# Velocity S-wave (km/s) = 1.75316 3.17717 2.56593
# Velocity P-wave (km/s) = 6.02636 6.82686 6.43906
#
# Compressibility (1/GPa) = 0.01427118
#
# Stress axis : x y z
#
# Youngs Moduli (GPa) = 64.51078 64.51078 128.74875
#
# Poissons Ratio (x) = 0.48570 0.30386
# Poissons Ratio (y) = 0.48570 0.30386
# Poissons Ratio (z) = 0.15225 0.15225
#
# Static dielectric constant tensor:
#      x y z
#    x 1.793250 0.000000 0.000000 
#    y 0.000000 1.793250 0.000000 
#    z 0.000000 0.000000 1.851000 
# 
# From -- ./inp_files/6414.got.cif
#   From: 2010.05.17/outbox.cif.g08.bks.cpg/sg125_4_cif.got.tgz:6414.got - 2010.05.20 11:54:10.
