data_PCOD9563811
_publ_section_title
;
Structure prediction by ZEFSAII (Michael W. Deem and Ramdas Pophale) SiO2 
 PCOD9563811
Probable space group: P 4/M B M
;
_chemical_formula_sum "Si O2"
_cell_formula_units_Z 88
_cell_length_a 16.878875
_cell_length_b 16.878875
_cell_length_c 16.040535
_cell_angle_alpha 90.000000
_cell_angle_beta 90.000000
_cell_angle_gamma 90.000000
_cell_volume 4569.891017
_symmetry_space_group_name_H-M "P 4/M B M"
_symmetry_group_IT_number 127
_symmetry_cell_setting 'tetragonal'
loop_
_space_group_symop_operation_xyz
x,y,z
-y,x,z
-x,-y,z
y,-x,z
1/2+x,1/2-y,-z
1/2-x,1/2+y,-z
1/2+y,1/2+x,-z
1/2-y,1/2-x,-z
-x,-y,-z
y,-x,-z
x,y,-z
-y,x,-z
1/2-x,1/2+y,z
1/2+x,1/2-y,z
1/2-y,1/2-x,z
1/2+y,1/2+x,z
loop_
_atom_site_type_symbol
_atom_site_label
_atom_site_fract_x
_atom_site_fract_y
_atom_site_fract_z
Si Si1 0.632355 0.521912 0.697792
Si Si2 0.620754 0.120754 0.097527
Si Si3 0.291026 0.996695 0.596538
Si Si4 0.600433 0.100433 0.716721
Si Si5 0.803071 0.111102 0.848642
Si Si6 0.315656 0.184345 0.410524
Si Si7 0.091179 0.904858 0.000000
Si Si8 0.766108 0.733893 0.261327
O O1 0.562681 0.587918 0.689730
O O2 0.704529 0.527825 0.632227
O O3 0.671762 0.538775 0.788511
O O4 0.583583 0.083583 0.184326
O O5 0.604138 0.215320 0.110557
O O6 0.600224 0.100224 0.000000
O O7 0.301858 0.969526 0.500000
O O8 0.358157 0.966666 0.660973
O O9 0.298299 0.091393 0.596092
O O10 0.667981 0.167981 0.720793
O O11 0.867202 0.126263 0.918401
O O12 0.799101 0.188353 0.791221
O O13 0.287342 0.212659 0.500000
O O14 0.269279 0.230722 0.342144
O O15 0.998601 0.892335 0.000000
#
# Coordination Sequence:
#
# PCOD9563811 Si02
#       8
#    16   8  16   8  16   8   8   8
#     4  11  22  37  57  85 127 169 204 247 305 380
#     4  10  18  35  61  85 111 152 207 257 306 359
#     4  11  23  40  62  90 121 160 207 260 314 374
#     4  10  21  40  61  88 120 157 205 251 324 374
#     4  10  19  35  56  81 114 159 211 254 302 368
#     4  10  24  41  61  90 122 154 210 267 311 366
#     4  11  22  33  50  84 126 163 200 253 318 376
#     4  10  20  39  60  85 114 162 206 256 309 365
#
# _framework density 19.256477
#
# number of rings (size 3 to 8) (size 9 to 14) (size 15 to 20)
#    0.000    1.727    4.545    2.455    0.000    3.273 
#    0.000    2.273    0.000    0.000    2.364    0.636 
#    0.000    0.000    0.000    0.000    0.000    0.000 
#
# Total GULP energy -490609.202995 kJ/mol
# GULP energy per Si atom -5575.104579 kJ/mol
# Density = 1.921265 g / cm^3
# Si number density = 19.256477 Si / 1000 Ang^3
#
#
#
# Elastic Constant Matrix: (Units=GPa)
#
#
# Indices 1 2 3 4 5 6 
#
# 1 31.7339 21.3548 31.1652 0.0000 0.0000 0.0000
# 2 21.3548 31.7333 31.1649 0.0000 0.0000 0.0000
# 3 31.1652 31.1649 167.1225 0.0000 0.0000 0.0000
# 4 0.0000 0.0000 0.0000 32.9039 0.0000 0.0000
# 5 0.0000 0.0000 0.0000 0.0000 32.9041 0.0000
# 6 0.0000 0.0000 0.0000 0.0000 0.0000 34.2380
#
#
#
# Elastic Compliance Matrix: (Units=1/GPa)
#
#
# Indices 1 2 3 4 5 6 
#
# 1 0.060233 -0.036117 -0.004497 0.000000 0.000000 0.000000
# 2 -0.036117 0.060234 -0.004497 0.000000 0.000000 0.000000
# 3 -0.004497 -0.004497 0.007661 0.000000 0.000000 0.000000
# 4 0.000000 0.000000 0.000000 0.030392 0.000000 0.000000
# 5 0.000000 0.000000 0.000000 0.000000 0.030391 0.000000
# 6 0.000000 0.000000 0.000000 0.000000 0.000000 0.029207
#
#
# Mechanical properties :
#
#
# Convention : Reuss Voigt Hill
#
# Bulk Modulus (GPa) = 26.38164 44.21772 35.29968
# Shear Modulus (GPa) = 15.57754 29.80287 22.69020
#
# Velocity S-wave (km/s) = 2.84729 3.93832 3.43638
# Velocity P-wave (km/s) = 4.95372 6.61006 5.84090
#
# Compressibility (1/GPa) = 0.03790516
#
# Stress axis : x y z
#
# Youngs Moduli (GPa) = 16.60226 16.60198 130.53219
#
# Poissons Ratio (x) = 0.59961 0.58704
# Poissons Ratio (y) = 0.59962 0.58704
# Poissons Ratio (z) = 0.07467 0.07466
#
# Static dielectric constant tensor:
#      x y z
#    x 1.675800 0.000000 0.000000 
#    y 0.000000 1.675800 0.000000 
#    z 0.000000 0.000000 1.704930 
# 
# From -- ./inp_files/4468.got.cif
#   From: 2010.05.17/outbox.cif.g08.bks.cpg/sg127_3_cif.got.tgz:4468.got - 2010.05.20 12:03:00.
