data_PCOD9563438
_publ_section_title
;
Structure prediction by ZEFSAII (Michael W. Deem and Ramdas Pophale) SiO2 
 PCOD9563438
Probable space group: P 4/N N C
;
_chemical_formula_sum "Si O2"
_cell_formula_units_Z 112
_cell_length_a 14.936875
_cell_length_b 14.936875
_cell_length_c 24.370930
_cell_angle_alpha 90.000000
_cell_angle_beta 90.000000
_cell_angle_gamma 90.000000
_cell_volume 5437.403914
_symmetry_space_group_name_H-M "P 4/N N C"
_symmetry_group_IT_number 126
_space_group.IT_coordinate_system_code '2'
_symmetry_cell_setting 'tetragonal'
loop_
_space_group_symop_operation_xyz
x,y,z
1/2-y,x,z
1/2-x,1/2-y,z
y,1/2-x,z
x,1/2-y,1/2-z
1/2-x,y,1/2-z
y,x,1/2-z
1/2-y,1/2-x,1/2-z
-x,-y,-z
1/2+y,-x,-z
1/2+x,1/2+y,-z
-y,1/2+x,-z
-x,1/2+y,1/2+z
1/2+x,-y,1/2+z
-y,-x,1/2+z
1/2+y,1/2+x,1/2+z
loop_
_atom_site_type_symbol
_atom_site_label
_atom_site_fract_x
_atom_site_fract_y
_atom_site_fract_z
Si Si1 0.365332 0.344513 0.458921
Si Si2 0.231474 0.572508 0.879358
Si Si3 0.536693 0.953835 0.631041
Si Si4 0.116768 0.597605 0.295335
Si Si5 0.148907 0.851030 0.013776
Si Si6 0.607826 0.176565 0.328546
Si Si7 0.479503 0.381672 0.560369
O O1 0.262192 0.371651 0.453314
O O2 0.427093 0.388850 0.412833
O O3 0.398454 0.375457 0.518625
O O4 0.174586 0.558995 0.824745
O O5 0.165452 0.608792 0.926460
O O6 0.307166 0.646312 0.864226
O O7 0.290293 0.493141 0.905222
O O8 0.481524 0.864232 0.645232
O O9 0.464173 0.018056 0.601677
O O10 0.576983 0.003571 0.683881
O O11 0.217853 0.605417 0.319111
O O12 0.128059 0.612547 0.230872
O O13 0.255816 0.865835 0.016442
O O14 0.109677 0.932222 0.978738
#
# Coordination Sequence:
#
# PCOD9563438 Si02
#       7
#    16  16  16  16  16  16  16
#     4  11  25  41  58  81 118 160 203 245 294 355
#     4  10  21  34  59  87 122 158 186 234 304 365
#     4  11  23  39  62  83 115 156 204 248 300 347
#     4  11  22  37  61  87 118 160 196 248 304 353
#     4   9  19  30  51  87 121 156 183 224 287 360
#     4  10  23  39  58  88 121 150 203 252 297 357
#     4  10  23  36  58  87 121 155 195 248 287 366
#
# _framework density 20.598065999999999
#
# number of rings (size 3 to 8) (size 9 to 14) (size 15 to 20)
#    0.000    1.714    0.000    3.429   16.000    1.143 
#    0.000    0.000    0.000    0.000    0.000    6.000 
#    0.000    0.000    0.000    0.000    0.000    0.000 
#
# Total GULP energy -626471.692086 kJ/mol
# GULP energy per Si atom -5593.497251 kJ/mol
# Density = 2.055118 g / cm^3
# Si number density = 20.598066 Si / 1000 Ang^3
#
#
#
# Elastic Constant Matrix: (Units=GPa)
#
#
# Indices 1 2 3 4 5 6 
#
# 1 39.2807 25.2964 21.7153 0.0000 0.0000 0.0000
# 2 25.2964 39.2807 21.7153 0.0000 0.0000 0.0000
# 3 21.7153 21.7153 87.9918 0.0000 0.0000 0.0000
# 4 0.0000 0.0000 0.0000 28.0745 0.0000 0.0000
# 5 0.0000 0.0000 0.0000 0.0000 28.0745 0.0000
# 6 0.0000 0.0000 0.0000 0.0000 0.0000 12.3006
#
#
#
# Elastic Compliance Matrix: (Units=1/GPa)
#
#
# Indices 1 2 3 4 5 6 
#
# 1 0.045038 -0.026471 -0.004582 0.000000 0.000000 0.000000
# 2 -0.026471 0.045038 -0.004582 0.000000 0.000000 0.000000
# 3 -0.004582 -0.004582 0.013626 0.000000 0.000000 0.000000
# 4 0.000000 0.000000 0.000000 0.035620 0.000000 0.000000
# 5 0.000000 0.000000 0.000000 0.000000 0.035620 0.000000
# 6 0.000000 0.000000 0.000000 0.000000 0.000000 0.081297
#
#
# Mechanical properties :
#
#
# Convention : Reuss Voigt Hill
#
# Bulk Modulus (GPa) = 30.83384 33.77857 32.30621
# Shear Modulus (GPa) = 14.77899 20.21168 17.49534
#
# Velocity S-wave (km/s) = 2.68151 3.13588 2.91755
# Velocity P-wave (km/s) = 4.95874 5.43563 5.20266
#
# Compressibility (1/GPa) = 0.03243190
#
# Stress axis : x y z
#
# Youngs Moduli (GPa) = 22.20361 22.20361 73.38750
#
# Poissons Ratio (x) = 0.58775 0.33627
# Poissons Ratio (y) = 0.58775 0.33627
# Poissons Ratio (z) = 0.10174 0.10174
#
# Static dielectric constant tensor:
#      x y z
#    x 1.738460 0.000000 0.000000 
#    y 0.000000 1.738460 0.000000 
#    z 0.000000 0.000000 1.743590 
# 
# From -- ./inp_files/5858.got.cif
#   From: 2010.05.17/outbox.cif.g08.bks.cpg/sg126_3_cif.got.tgz:5858.got - 2010.05.20 11:58:20.
