data_PCOD9563265
_publ_section_title
;
Structure prediction by ZEFSAII (Michael W. Deem and Ramdas Pophale) SiO2 
 PCOD9563265
Probable space group: P 4/N B M
;
_chemical_formula_sum "Si O2"
_cell_formula_units_Z 50
_cell_length_a 17.339673
_cell_length_b 17.339673
_cell_length_c 7.982570
_cell_angle_alpha 90.000000
_cell_angle_beta 90.000000
_cell_angle_gamma 90.000000
_cell_volume 2400.073500
_symmetry_space_group_name_H-M "P 4/N B M"
_symmetry_group_IT_number 125
_space_group.IT_coordinate_system_code '2'
_symmetry_cell_setting 'tetragonal'
loop_
_space_group_symop_operation_xyz
x,y,z
1/2-y,x,z
1/2-x,1/2-y,z
y,1/2-x,z
x,1/2-y,-z
1/2-x,y,-z
y,x,-z
1/2-y,1/2-x,-z
-x,-y,-z
1/2+y,-x,-z
1/2+x,1/2+y,-z
-y,1/2+x,-z
-x,1/2+y,z
1/2+x,-y,z
-y,-x,z
1/2+y,1/2+x,z
loop_
_atom_site_type_symbol
_atom_site_label
_atom_site_fract_x
_atom_site_fract_y
_atom_site_fract_z
Si Si1 0.630560 0.369441 0.855866
Si Si2 0.750000 0.250000 0.000000
Si Si3 0.791931 0.531366 0.179702
Si Si4 0.952717 0.452717 0.856603
Si Si5 0.584811 0.863403 0.317359
O O1 0.666297 0.449135 0.778879
O O2 0.695339 0.304661 0.885659
O O3 0.602968 0.397033 0.039828
O O4 0.725291 0.562586 0.300458
O O5 0.853818 0.600188 0.186951
O O6 0.750000 0.521864 0.000000
O O7 0.906640 0.508213 0.736923
O O8 0.000000 0.500000 0.000000
O O9 0.613968 0.886033 0.500000
#
# Coordination Sequence:
#
# PCOD9563265 Si02
#       5
#     8   2  16   8  16
#     4  12  22  40  72 102 136 173 249 285 351 411
#     4  12  20  36  60 108 134 168 200 312 342 396
#     4  12  23  43  69  99 136 185 238 291 347 434
#     4  12  19  42  67  96 129 183 245 286 334 420
#     4  12  25  41  65 102 143 186 230 297 364 417
#
# _framework density 20.832694
#
# number of rings (size 3 to 8) (size 9 to 14) (size 15 to 20)
#    0.000    0.000    8.000    2.400    0.000    0.640 
#    0.000    3.200    0.000    1.920    0.000    2.240 
#    0.000    0.000    0.000    0.000    0.000    0.000 
#
# Total GULP energy -279168.527177 kJ/mol
# GULP energy per Si atom -5583.370544 kJ/mol
# Density = 2.078528 g / cm^3
# Si number density = 20.832694 Si / 1000 Ang^3
#
#
#
# Elastic Constant Matrix: (Units=GPa)
#
#
# Indices 1 2 3 4 5 6 
#
# 1 136.0805 91.2053 37.5610 0.0000 0.0000 0.0000
# 2 91.2053 136.0800 37.5604 0.0000 0.0000 0.0000
# 3 37.5610 37.5604 64.2750 0.0000 0.0000 0.0000
# 4 0.0000 0.0000 0.0000 21.4078 0.0000 0.0000
# 5 0.0000 0.0000 0.0000 0.0000 21.4098 0.0000
# 6 0.0000 0.0000 0.0000 0.0000 0.0000 54.9716
#
#
#
# Elastic Compliance Matrix: (Units=1/GPa)
#
#
# Indices 1 2 3 4 5 6 
#
# 1 0.013869 -0.008416 -0.003187 0.000000 0.000000 0.000000
# 2 -0.008416 0.013869 -0.003186 0.000000 0.000000 0.000000
# 3 -0.003187 -0.003186 0.019282 0.000000 0.000000 0.000000
# 4 0.000000 0.000000 0.000000 0.046712 0.000000 0.000000
# 5 0.000000 0.000000 0.000000 0.000000 0.046707 0.000000
# 6 0.000000 0.000000 0.000000 0.000000 0.000000 0.018191
#
#
# Mechanical properties :
#
#
# Convention : Reuss Voigt Hill
#
# Bulk Modulus (GPa) = 57.33264 74.34323 65.83793
# Shear Modulus (GPa) = 25.77032 30.89844 28.33438
#
# Velocity S-wave (km/s) = 3.52094 3.85537 3.69194
# Velocity P-wave (km/s) = 6.64150 7.45532 7.06015
#
# Compressibility (1/GPa) = 0.01744207
#
# Stress axis : x y z
#
# Youngs Moduli (GPa) = 72.10550 72.10566 51.86063
#
# Poissons Ratio (x) = 0.60681 0.16526
# Poissons Ratio (y) = 0.60681 0.16525
# Poissons Ratio (z) = 0.22978 0.22976
#
# Static dielectric constant tensor:
#      x y z
#    x 1.665090 0.000000 0.000000 
#    y 0.000000 1.665080 0.000000 
#    z 0.000000 0.000000 1.748600 
# 
# From -- ./inp_files/1998.got.cif
#   From: 2010.05.17/outbox.cif.g08.bks.cpg/sg125_1_cif.got.tgz:1998.got - 2010.05.20 11:54:10.
