data_PCOD9563856
_publ_section_title
;
Structure prediction by ZEFSAII (Michael W. Deem and Ramdas Pophale) SiO2 
 PCOD9563856
Probable space group: P 4/M B M
;
_chemical_formula_sum "Si O2"
_cell_formula_units_Z 104
_cell_length_a 27.464295
_cell_length_b 27.464295
_cell_length_c 8.032098
_cell_angle_alpha 90.000000
_cell_angle_beta 90.000000
_cell_angle_gamma 90.000000
_cell_volume 6058.511119
_symmetry_space_group_name_H-M "P 4/M B M"
_symmetry_group_IT_number 127
_symmetry_cell_setting 'tetragonal'
loop_
_space_group_symop_operation_xyz
x,y,z
-y,x,z
-x,-y,z
y,-x,z
1/2+x,1/2-y,-z
1/2-x,1/2+y,-z
1/2+y,1/2+x,-z
1/2-y,1/2-x,-z
-x,-y,-z
y,-x,-z
x,y,-z
-y,x,-z
1/2-x,1/2+y,z
1/2+x,1/2-y,z
1/2-y,1/2-x,z
1/2+y,1/2+x,z
loop_
_atom_site_type_symbol
_atom_site_label
_atom_site_fract_x
_atom_site_fract_y
_atom_site_fract_z
Si Si1 0.367862 0.422809 0.692198
Si Si2 0.634842 0.788670 0.799881
Si Si3 0.495210 0.291187 0.300103
Si Si4 0.816260 0.471457 0.698385
Si Si5 0.433192 0.454189 0.000000
Si Si6 0.578062 0.000288 0.200425
Si Si7 0.180582 0.111101 0.801997
O O1 0.381638 0.433943 0.500000
O O2 0.320408 0.455288 0.733418
O O3 0.406851 0.436978 0.832247
O O4 0.363914 0.364733 0.711771
O O5 0.680081 0.819920 0.735300
O O6 0.584325 0.815505 0.759018
O O7 0.630190 0.733089 0.740612
O O8 0.638423 0.786293 0.000000
O O9 0.488875 0.290980 0.500000
O O10 0.494402 0.235034 0.240819
O O11 0.447310 0.317674 0.227733
O O12 0.814586 0.471144 0.500000
O O13 0.865943 0.497311 0.749992
O O14 0.487735 0.434626 0.000000
O O15 0.547612 0.047612 0.257635
O O16 0.547015 0.952986 0.257990
O O17 0.576389 0.999995 0.000000
O O18 0.176150 0.119426 0.000000
#
# Coordination Sequence:
#
# PCOD9563856 Si02
#       7
#    16  16  16  16   8  16  16
#     4  11  22  37  56  76 106 143 175 217 268 314
#     4   9  18  32  50  74 105 137 167 207 262 315
#     4   9  20  35  51  73 101 135 170 208 261 316
#     4  10  19  31  48  74 104 132 170 216 257 306
#     4  11  24  38  54  80 107 134 176 217 255 318
#     4   9  18  32  48  68  99 138 175 210 255 313
#     4  10  19  32  53  78 102 133 174 217 258 308
#
# _framework density 17.165932999999999
#
# number of rings (size 3 to 8) (size 9 to 14) (size 15 to 20)
#    0.000    2.231    0.769    2.769    1.077    5.846 
#    0.000    1.538    0.000    0.923    0.000    4.308 
#    0.000    0.000    0.000    0.000    0.000    0.000 
#
# Total GULP energy -579940.310728 kJ/mol
# GULP energy per Si atom -5576.349142 kJ/mol
# Density = 1.712686 g / cm^3
# Si number density = 17.165933 Si / 1000 Ang^3
#
#
#
# Elastic Constant Matrix: (Units=GPa)
#
#
# Indices 1 2 3 4 5 6 
#
# 1 118.2642 54.3551 19.2303 0.0000 0.0000 0.0000
# 2 54.3551 118.2642 19.2303 0.0000 0.0000 0.0000
# 3 19.2303 19.2303 37.3153 0.0000 0.0000 0.0000
# 4 0.0000 0.0000 0.0000 16.8635 0.0000 0.0000
# 5 0.0000 0.0000 0.0000 0.0000 16.8635 0.0000
# 6 0.0000 0.0000 0.0000 0.0000 0.0000 29.8567
#
#
#
# Elastic Compliance Matrix: (Units=1/GPa)
#
#
# Indices 1 2 3 4 5 6 
#
# 1 0.011096 -0.004551 -0.003373 0.000000 0.000000 0.000000
# 2 -0.004551 0.011096 -0.003373 0.000000 0.000000 0.000000
# 3 -0.003373 -0.003373 0.030275 0.000000 0.000000 0.000000
# 4 0.000000 0.000000 0.000000 0.059300 0.000000 0.000000
# 5 0.000000 0.000000 0.000000 0.000000 0.059300 0.000000
# 6 0.000000 0.000000 0.000000 0.000000 0.000000 0.033493
#
#
# Mechanical properties :
#
#
# Convention : Reuss Voigt Hill
#
# Bulk Modulus (GPa) = 33.47488 51.05278 42.26383
# Shear Modulus (GPa) = 21.08719 24.78526 22.93623
#
# Velocity S-wave (km/s) = 3.50870 3.80394 3.65930
# Velocity P-wave (km/s) = 5.99648 7.00704 6.52136
#
# Compressibility (1/GPa) = 0.02987314
#
# Stress axis : x y z
#
# Youngs Moduli (GPa) = 90.12354 90.12354 33.03072
#
# Poissons Ratio (x) = 0.41018 0.11140
# Poissons Ratio (y) = 0.41018 0.11140
# Poissons Ratio (z) = 0.30396 0.30396
#
# Static dielectric constant tensor:
#      x y z
#    x 1.589520 0.000000 0.000000 
#    y 0.000000 1.589520 0.000000 
#    z 0.000000 0.000000 1.606500 
# 
# From -- ./inp_files/2323.got.cif
#   From: 2010.05.17/outbox.cif.g08.bks.cpg/sg127_2_cif.got.tgz:2323.got - 2010.05.20 12:03:00.
