data_PCOD9563044
_publ_section_title
;
Structure prediction by ZEFSAII (Michael W. Deem and Ramdas Pophale) SiO2 
 PCOD9563044
Probable space group: P 4/N B M
;
_chemical_formula_sum "Si O2"
_cell_formula_units_Z 104
_cell_length_a 18.088916
_cell_length_b 18.088916
_cell_length_c 17.490892
_cell_angle_alpha 90.000000
_cell_angle_beta 90.000000
_cell_angle_gamma 90.000000
_cell_volume 5723.175217
_symmetry_space_group_name_H-M "P 4/N B M"
_symmetry_group_IT_number 125
_space_group.IT_coordinate_system_code '2'
_symmetry_cell_setting 'tetragonal'
loop_
_space_group_symop_operation_xyz
x,y,z
1/2-y,x,z
1/2-x,1/2-y,z
y,1/2-x,z
x,1/2-y,-z
1/2-x,y,-z
y,x,-z
1/2-y,1/2-x,-z
-x,-y,-z
1/2+y,-x,-z
1/2+x,1/2+y,-z
-y,1/2+x,-z
-x,1/2+y,z
1/2+x,-y,z
-y,-x,z
1/2+y,1/2+x,z
loop_
_atom_site_type_symbol
_atom_site_label
_atom_site_fract_x
_atom_site_fract_y
_atom_site_fract_z
Si Si1 0.581462 0.418539 0.774420
Si Si2 0.171291 0.443735 0.962709
Si Si3 0.091564 0.471101 0.419843
Si Si4 0.055510 0.944491 0.046537
Si Si5 0.786191 0.867929 0.811447
Si Si6 0.257965 0.934988 0.412957
Si Si7 0.156783 0.453260 0.675165
Si Si8 0.190943 0.809058 0.302268
O O1 0.558012 0.441989 0.860303
O O2 0.511743 0.386021 0.728651
O O3 0.644878 0.355123 0.761550
O O4 0.135102 0.523776 0.975010
O O5 0.185299 0.425624 0.874232
O O6 0.250000 0.436649 0.000000
O O7 0.116383 0.383618 0.000000
O O8 0.067886 0.432115 0.500000
O O9 0.161671 0.525589 0.413927
O O10 0.099479 0.403823 0.362052
O O11 0.020624 0.520624 0.398955
O O12 0.000000 0.000000 0.000000
O O13 0.703285 0.838710 0.821949
O O14 0.791243 0.905331 0.729076
O O15 0.250000 0.908230 0.500000
O O16 0.236096 0.868560 0.355136
O O17 0.200328 0.999625 0.388773
O O18 0.250000 0.750000 0.271717
#
# Coordination Sequence:
#
# PCOD9563044 Si02
#       8
#     8  16  16   8  16  16  16   8
#     4  10  20  38  64  86 117 157 198 251 303 357
#     4  11  21  36  63  92 122 153 193 241 302 361
#     4  11  22  36  59  84 118 157 211 261 306 364
#     4  10  22  40  64  92 126 159 193 246 298 365
#     4  11  22  35  58  87 121 154 191 247 307 366
#     4  11  23  37  58  84 118 161 208 262 319 360
#     4  11  21  39  57  85 117 159 202 251 308 369
#     4  10  24  38  59  87 124 160 209 265 319 369
#
# _framework density 18.171731000000001
#
# number of rings (size 3 to 8) (size 9 to 14) (size 15 to 20)
#    0.000    1.231    5.385    1.385    2.154    0.154 
#    0.000    0.000    1.692    0.000    0.000    0.000 
#    0.000    0.000    0.000    0.000    0.000    0.000 
#
# Total GULP energy -579394.951615 kJ/mol
# GULP energy per Si atom -5571.105304 kJ/mol
# Density = 1.813037 g / cm^3
# Si number density = 18.171731 Si / 1000 Ang^3
#
#
#
# Elastic Constant Matrix: (Units=GPa)
#
#
# Indices 1 2 3 4 5 6 
#
# 1 69.7026 30.0773 11.5703 0.0000 0.0000 0.0000
# 2 30.0773 69.7029 11.5704 0.0000 0.0000 0.0000
# 3 11.5703 11.5704 64.2385 0.0000 0.0000 0.0000
# 4 0.0000 0.0000 0.0000 20.3007 0.0000 0.0000
# 5 0.0000 0.0000 0.0000 0.0000 20.3008 0.0000
# 6 0.0000 0.0000 0.0000 0.0000 0.0000 32.0511
#
#
#
# Elastic Compliance Matrix: (Units=1/GPa)
#
#
# Indices 1 2 3 4 5 6 
#
# 1 0.017848 -0.007389 -0.001884 0.000000 0.000000 0.000000
# 2 -0.007389 0.017848 -0.001884 0.000000 0.000000 0.000000
# 3 -0.001884 -0.001884 0.016246 0.000000 0.000000 0.000000
# 4 0.000000 0.000000 0.000000 0.049259 0.000000 0.000000
# 5 0.000000 0.000000 0.000000 0.000000 0.049259 0.000000
# 6 0.000000 0.000000 0.000000 0.000000 0.000000 0.031200
#
#
# Mechanical properties :
#
#
# Convention : Reuss Voigt Hill
#
# Bulk Modulus (GPa) = 33.75166 34.45337 34.10251
# Shear Modulus (GPa) = 23.38105 24.55891 23.96998
#
# Velocity S-wave (km/s) = 3.59091 3.68025 3.63586
# Velocity P-wave (km/s) = 5.98389 6.08769 6.03601
#
# Compressibility (1/GPa) = 0.02962817
#
# Stress axis : x y z
#
# Youngs Moduli (GPa) = 56.02977 56.02997 61.55516
#
# Poissons Ratio (x) = 0.41399 0.11596
# Poissons Ratio (y) = 0.41399 0.11596
# Poissons Ratio (z) = 0.10555 0.10555
#
# Static dielectric constant tensor:
#      x y z
#    x 1.621880 0.000000 0.000000 
#    y 0.000000 1.621880 0.000000 
#    z 0.000000 0.000000 1.675920 
# 
# From -- ./inp_files/5536.got.cif
#   From: 2010.05.17/outbox.cif.g08.bks.cpg/sg125_3_cif.got.tgz:5536.got - 2010.05.20 11:54:10.
