data_PCOD9563607
_publ_section_title
;
Structure prediction by ZEFSAII (Michael W. Deem and Ramdas Pophale) SiO2 
 PCOD9563607
Probable space group: P 4/N N C
;
_chemical_formula_sum "Si O2"
_cell_formula_units_Z 116
_cell_length_a 17.484785
_cell_length_b 17.484785
_cell_length_c 19.811338
_cell_angle_alpha 90.000000
_cell_angle_beta 90.000000
_cell_angle_gamma 90.000000
_cell_volume 6056.676816
_symmetry_space_group_name_H-M "P 4/N N C"
_symmetry_group_IT_number 126
_space_group.IT_coordinate_system_code '2'
_symmetry_cell_setting 'tetragonal'
loop_
_space_group_symop_operation_xyz
x,y,z
1/2-y,x,z
1/2-x,1/2-y,z
y,1/2-x,z
x,1/2-y,1/2-z
1/2-x,y,1/2-z
y,x,1/2-z
1/2-y,1/2-x,1/2-z
-x,-y,-z
1/2+y,-x,-z
1/2+x,1/2+y,-z
-y,1/2+x,-z
-x,1/2+y,1/2+z
1/2+x,-y,1/2+z
-y,-x,1/2+z
1/2+y,1/2+x,1/2+z
loop_
_atom_site_type_symbol
_atom_site_label
_atom_site_fract_x
_atom_site_fract_y
_atom_site_fract_z
Si Si1 0.297276 0.367541 0.588476
Si Si2 0.250000 0.750000 0.250000
Si Si3 0.205414 0.130575 0.428116
Si Si4 0.822920 0.353883 0.014350
Si Si5 0.120633 0.817413 0.658251
Si Si6 0.667753 0.945492 0.218633
Si Si7 0.663366 0.039841 0.892200
Si Si8 0.573812 0.046932 0.759520
O O1 0.209125 0.345937 0.602656
O O2 0.301379 0.382393 0.508894
O O3 0.324654 0.433035 0.638582
O O4 0.300421 0.804206 0.297549
O O5 0.293638 0.154621 0.412817
O O6 0.179902 0.050792 0.395778
O O7 0.854888 0.360962 0.090085
O O8 0.849835 0.270057 0.986874
O O9 0.851014 0.420854 0.964728
O O10 0.084074 0.738066 0.634549
O O11 0.060848 0.858147 0.707248
O O12 0.750000 0.959695 0.250000
O O13 0.631629 0.868372 0.250000
O O14 0.611013 0.012559 0.239013
O O15 0.599047 0.055628 0.836655
O O16 0.534452 0.965549 0.750000
#
# Coordination Sequence:
#
# PCOD9563607 Si02
#       8
#    16   4  16  16  16  16  16  16
#     4   9  17  34  60  89 122 161 209 254 297 361
#     4  12  20  40  74  96 120 162 232 268 312 368
#     4   9  21  40  66  96 121 157 214 270 315 374
#     4   9  20  38  64  97 128 154 213 266 297 374
#     4  11  23  41  68  94 120 169 213 258 320 376
#     4  11  22  35  56  88 127 172 206 243 297 371
#     4  11  22  44  67  93 120 170 206 260 332 378
#     4  11  27  43  57  88 133 164 208 260 318 387
#
# _framework density 19.152417
#
# number of rings (size 3 to 8) (size 9 to 14) (size 15 to 20)
#    0.000    1.793    2.759    2.483    4.828    0.138 
#    2.483    0.690    0.000    0.000    0.000    0.000 
#    0.000    0.000    0.000    0.000    0.000    0.000 
#
# Total GULP energy -647517.952661 kJ/mol
# GULP energy per Si atom -5582.051316 kJ/mol
# Density = 1.910883 g / cm^3
# Si number density = 19.152417 Si / 1000 Ang^3
#
#
#
# Elastic Constant Matrix: (Units=GPa)
#
#
# Indices 1 2 3 4 5 6 
#
# 1 57.9645 16.8179 34.8023 0.0000 0.0000 0.0000
# 2 16.8179 57.9652 34.8024 0.0000 0.0000 0.0000
# 3 34.8023 34.8024 94.8204 0.0000 0.0000 0.0000
# 4 0.0000 0.0000 0.0000 8.0362 0.0000 0.0000
# 5 0.0000 0.0000 0.0000 0.0000 8.0174 0.0000
# 6 0.0000 0.0000 0.0000 0.0000 0.0000 27.5586
#
#
#
# Elastic Compliance Matrix: (Units=1/GPa)
#
#
# Indices 1 2 3 4 5 6 
#
# 1 0.022307 -0.001996 -0.007455 0.000000 0.000000 0.000000
# 2 -0.001996 0.022307 -0.007455 0.000000 0.000000 0.000000
# 3 -0.007455 -0.007455 0.016018 0.000000 0.000000 0.000000
# 4 0.000000 0.000000 0.000000 0.124437 0.000000 0.000000
# 5 0.000000 0.000000 0.000000 0.000000 0.124729 0.000000
# 6 0.000000 0.000000 0.000000 0.000000 0.000000 0.036286
#
#
# Mechanical properties :
#
#
# Convention : Reuss Voigt Hill
#
# Bulk Modulus (GPa) = 37.28430 42.62170 39.95300
# Shear Modulus (GPa) = 12.85890 17.01095 14.93493
#
# Velocity S-wave (km/s) = 2.59395 2.98348 2.79551
# Velocity P-wave (km/s) = 5.33674 5.84555 5.59693
#
# Compressibility (1/GPa) = 0.02682094
#
# Stress axis : x y z
#
# Youngs Moduli (GPa) = 44.82902 44.82962 62.42788
#
# Poissons Ratio (x) = 0.08949 0.46538
# Poissons Ratio (y) = 0.08949 0.46538
# Poissons Ratio (z) = 0.33419 0.33419
#
# Static dielectric constant tensor:
#      x y z
#    x 1.682540 0.000000 0.000000 
#    y 0.000000 1.682540 0.000000 
#    z 0.000000 0.000000 1.671280 
# 
# From -- ./inp_files/4624.got.cif
#   From: 2010.05.17/outbox.cif.g08.bks.cpg/sg126_3_cif.got.tgz:4624.got - 2010.05.20 11:58:20.
