data_PCOD9563071
_publ_section_title
;
Structure prediction by ZEFSAII (Michael W. Deem and Ramdas Pophale) SiO2 
 PCOD9563071
Probable space group: P 4/N B M
;
_chemical_formula_sum "Si O2"
_cell_formula_units_Z 56
_cell_length_a 18.179160
_cell_length_b 18.179160
_cell_length_c 8.206231
_cell_angle_alpha 90.000000
_cell_angle_beta 90.000000
_cell_angle_gamma 90.000000
_cell_volume 2712.010471
_symmetry_space_group_name_H-M "P 4/N B M"
_symmetry_group_IT_number 125
_space_group.IT_coordinate_system_code '2'
_symmetry_cell_setting 'tetragonal'
loop_
_space_group_symop_operation_xyz
x,y,z
1/2-y,x,z
1/2-x,1/2-y,z
y,1/2-x,z
x,1/2-y,-z
1/2-x,y,-z
y,x,-z
1/2-y,1/2-x,-z
-x,-y,-z
1/2+y,-x,-z
1/2+x,1/2+y,-z
-y,1/2+x,-z
-x,1/2+y,z
1/2+x,-y,z
-y,-x,z
1/2+y,1/2+x,z
loop_
_atom_site_type_symbol
_atom_site_label
_atom_site_fract_x
_atom_site_fract_y
_atom_site_fract_z
Si Si1 0.959669 0.572687 0.312632
Si Si2 0.798729 0.078617 0.338857
Si Si3 0.750000 0.126334 0.000000
Si Si4 0.672934 0.837947 0.194822
O O1 0.945140 0.554861 0.500000
O O2 0.883079 0.598166 0.238472
O O3 0.002815 0.502815 0.237835
O O4 0.015157 0.641401 0.311862
O O5 0.750000 0.067137 0.500000
O O6 0.845382 0.154619 0.359761
O O7 0.753356 0.083272 0.170338
O O8 0.678868 0.178868 0.004039
O O9 0.649248 0.756343 0.254726
O O10 0.670603 0.829398 0.000000
#
# Coordination Sequence:
#
# PCOD9563071 Si02
#       4
#    16  16   8  16
#     4  10  23  40  56  84 123 160 201 249 309 380
#     4  10  21  37  59  88 123 162 204 253 306 364
#     4   9  18  34  58  88 118 153 204 254 302 365
#     4   9  20  39  64  92 118 151 202 262 316 369
#
# _framework density 20.648886999999998
#
# number of rings (size 3 to 8) (size 9 to 14) (size 15 to 20)
#    0.000    2.429    0.000    1.714    4.000    4.286 
#    0.000    1.429    0.000    0.000    0.000    0.000 
#    0.000    0.000    0.000    0.000    0.000    0.000 
#
# Total GULP energy -312492.565629 kJ/mol
# GULP energy per Si atom -5580.224386 kJ/mol
# Density = 2.060189 g / cm^3
# Si number density = 20.648887 Si / 1000 Ang^3
#
#
#
# Elastic Constant Matrix: (Units=GPa)
#
#
# Indices 1 2 3 4 5 6 
#
# 1 69.6490 38.8288 13.5514 0.0000 0.0000 0.0000
# 2 38.8288 69.6475 13.5509 0.0000 0.0000 0.0000
# 3 13.5514 13.5509 79.7199 0.0000 0.0000 0.0000
# 4 0.0000 0.0000 0.0000 17.6209 0.0000 0.0000
# 5 0.0000 0.0000 0.0000 0.0000 17.6196 0.0000
# 6 0.0000 0.0000 0.0000 0.0000 0.0000 17.9864
#
#
#
# Elastic Compliance Matrix: (Units=1/GPa)
#
#
# Indices 1 2 3 4 5 6 
#
# 1 0.021037 -0.011410 -0.001637 0.000000 0.000000 0.000000
# 2 -0.011410 0.021037 -0.001636 0.000000 0.000000 0.000000
# 3 -0.001637 -0.001636 0.013100 0.000000 0.000000 0.000000
# 4 0.000000 0.000000 0.000000 0.056751 0.000000 0.000000
# 5 0.000000 0.000000 0.000000 0.000000 0.056755 0.000000
# 6 0.000000 0.000000 0.000000 0.000000 0.000000 0.055597
#
#
# Mechanical properties :
#
#
# Convention : Reuss Voigt Hill
#
# Bulk Modulus (GPa) = 38.74607 38.98650 38.86629
# Shear Modulus (GPa) = 19.06603 20.85109 19.95856
#
# Velocity S-wave (km/s) = 3.04195 3.18117 3.11234
# Velocity P-wave (km/s) = 5.58059 5.69340 5.63728
#
# Compressibility (1/GPa) = 0.02580907
#
# Stress axis : x y z
#
# Youngs Moduli (GPa) = 47.53525 47.53436 76.33429
#
# Poissons Ratio (x) = 0.54236 0.12493
# Poissons Ratio (y) = 0.54237 0.12492
# Poissons Ratio (z) = 0.07780 0.07779
#
# Static dielectric constant tensor:
#      x y z
#    x 1.931010 0.000000 0.000000 
#    y 0.000000 1.931060 0.000000 
#    z 0.000000 0.000000 1.716690 
# 
# From -- ./inp_files/2056.got.cif
#   From: 2010.05.17/outbox.cif.g08.bks.cpg/sg125_2_cif.got.tgz:2056.got - 2010.05.20 11:54:10.
