data_PCOD9563442
_publ_section_title
;
Structure prediction by ZEFSAII (Michael W. Deem and Ramdas Pophale) SiO2 
 PCOD9563442
Probable space group: P 4/N N C
;
_chemical_formula_sum "Si O2"
_cell_formula_units_Z 104
_cell_length_a 18.029069
_cell_length_b 18.029069
_cell_length_c 16.529138
_cell_angle_alpha 90.000000
_cell_angle_beta 90.000000
_cell_angle_gamma 90.000000
_cell_volume 5372.752158
_symmetry_space_group_name_H-M "P 4/N N C"
_symmetry_group_IT_number 126
_space_group.IT_coordinate_system_code '2'
_symmetry_cell_setting 'tetragonal'
loop_
_space_group_symop_operation_xyz
x,y,z
1/2-y,x,z
1/2-x,1/2-y,z
y,1/2-x,z
x,1/2-y,1/2-z
1/2-x,y,1/2-z
y,x,1/2-z
1/2-y,1/2-x,1/2-z
-x,-y,-z
1/2+y,-x,-z
1/2+x,1/2+y,-z
-y,1/2+x,-z
-x,1/2+y,1/2+z
1/2+x,-y,1/2+z
-y,-x,1/2+z
1/2+y,1/2+x,1/2+z
loop_
_atom_site_type_symbol
_atom_site_label
_atom_site_fract_x
_atom_site_fract_y
_atom_site_fract_z
Si Si1 0.694345 0.348017 0.015804
Si Si2 0.025768 0.042439 0.154439
Si Si3 0.390141 0.813763 0.186818
Si Si4 0.122503 0.038538 0.873924
Si Si5 0.464292 0.704228 0.831076
Si Si6 0.009102 0.660796 0.951237
Si Si7 0.838925 0.661076 0.250000
O O1 0.722377 0.381948 0.098854
O O2 0.767605 0.336116 0.964251
O O3 0.639201 0.406264 0.976820
O O4 0.026007 0.026007 0.250000
O O5 0.009311 0.129720 0.148475
O O6 0.102004 0.023455 0.110631
O O7 0.961263 0.991577 0.115783
O O8 0.375057 0.750000 0.250000
O O9 0.474661 0.843237 0.185540
O O10 0.332706 0.882791 0.188276
O O11 0.129801 0.116344 0.827922
O O12 0.160083 0.034335 0.962964
O O13 0.484789 0.750000 0.750000
O O14 0.479845 0.761599 0.904378
O O15 0.851442 0.750000 0.250000
#
# Coordination Sequence:
#
# PCOD9563442 Si02
#       7
#    16  16  16  16  16  16   8
#     4  10  21  36  55  86 133 171 207 256 315 391
#     4  11  22  41  67  92 126 170 224 273 323 399
#     4  10  22  37  59  91 128 174 216 251 320 402
#     4  10  23  43  64  94 127 171 219 267 329 401
#     4  11  23  38  61  94 126 167 221 270 328 391
#     4  11  23  42  63  95 130 170 215 275 329 389
#     4  11  24  44  68  96 128 164 212 277 336 382
#
# _framework density 19.356932
#
# number of rings (size 3 to 8) (size 9 to 14) (size 15 to 20)
#    0.000    1.462    3.846    0.923    2.154    1.538 
#    5.538    0.000    0.000    1.385    0.000    0.000 
#    0.000    0.000    0.000    0.000    0.000    0.000 
#
# Total GULP energy -579347.998576 kJ/mol
# GULP energy per Si atom -5570.653832 kJ/mol
# Density = 1.931287 g / cm^3
# Si number density = 19.356932 Si / 1000 Ang^3
#
#
#
# Elastic Constant Matrix: (Units=GPa)
#
#
# Indices 1 2 3 4 5 6 
#
# 1 102.3448 46.9222 41.9509 0.0000 0.0000 0.0000
# 2 46.9222 102.3465 41.9511 0.0000 0.0000 0.0000
# 3 41.9509 41.9511 99.6852 0.0000 0.0000 0.0000
# 4 0.0000 0.0000 0.0000 22.9759 0.0000 0.0000
# 5 0.0000 0.0000 0.0000 0.0000 22.9757 0.0000
# 6 0.0000 0.0000 0.0000 0.0000 0.0000 10.5378
#
#
#
# Elastic Compliance Matrix: (Units=1/GPa)
#
#
# Indices 1 2 3 4 5 6 
#
# 1 0.013409 -0.004634 -0.003693 0.000000 0.000000 0.000000
# 2 -0.004634 0.013409 -0.003693 0.000000 0.000000 0.000000
# 3 -0.003693 -0.003693 0.013140 0.000000 0.000000 0.000000
# 4 0.000000 0.000000 0.000000 0.043524 0.000000 0.000000
# 5 0.000000 0.000000 0.000000 0.000000 0.043524 0.000000
# 6 0.000000 0.000000 0.000000 0.000000 0.000000 0.094897
#
#
# Mechanical properties :
#
#
# Convention : Reuss Voigt Hill
#
# Bulk Modulus (GPa) = 62.82008 62.89165 62.85587
# Shear Modulus (GPa) = 19.90066 22.86802 21.38434
#
# Velocity S-wave (km/s) = 3.20986 3.44086 3.32737
# Velocity P-wave (km/s) = 6.80159 6.95321 6.87781
#
# Compressibility (1/GPa) = 0.01591848
#
# Stress axis : x y z
#
# Youngs Moduli (GPa) = 74.57612 74.57740 76.10499
#
# Poissons Ratio (x) = 0.34559 0.28105
# Poissons Ratio (y) = 0.34558 0.28104
# Poissons Ratio (z) = 0.27540 0.27540
#
# Static dielectric constant tensor:
#      x y z
#    x 1.704590 0.000000 0.000000 
#    y 0.000000 1.704590 0.000000 
#    z 0.000000 0.000000 1.711610 
# 
# From -- ./inp_files/4563.got.cif
#   From: 2010.05.17/outbox.cif.g08.bks.cpg/sg126_3_cif.got.tgz:4563.got - 2010.05.20 11:58:20.
