data_PCOD9563930
_publ_section_title
;
Structure prediction by ZEFSAII (Michael W. Deem and Ramdas Pophale) SiO2 
 PCOD9563930
Probable space group: P 4/M B M
;
_chemical_formula_sum "Si O2"
_cell_formula_units_Z 96
_cell_length_a 25.010048
_cell_length_b 25.010048
_cell_length_c 9.154875
_cell_angle_alpha 90.000000
_cell_angle_beta 90.000000
_cell_angle_gamma 90.000000
_cell_volume 5726.397208
_symmetry_space_group_name_H-M "P 4/M B M"
_symmetry_group_IT_number 127
_symmetry_cell_setting 'tetragonal'
loop_
_space_group_symop_operation_xyz
x,y,z
-y,x,z
-x,-y,z
y,-x,z
1/2+x,1/2-y,-z
1/2-x,1/2+y,-z
1/2+y,1/2+x,-z
1/2-y,1/2-x,-z
-x,-y,-z
y,-x,-z
x,y,-z
-y,x,-z
1/2-x,1/2+y,z
1/2+x,1/2-y,z
1/2-y,1/2-x,z
1/2+y,1/2+x,z
loop_
_atom_site_type_symbol
_atom_site_label
_atom_site_fract_x
_atom_site_fract_y
_atom_site_fract_z
Si Si1 0.972311 0.209911 0.669652
Si Si2 0.622069 0.877932 0.173632
Si Si3 0.173816 0.412044 0.828402
Si Si4 0.199909 0.918706 0.826914
Si Si5 0.204358 0.704358 0.323526
Si Si6 0.649146 0.683607 0.676217
Si Si7 0.981849 0.338631 0.668398
O O1 0.979078 0.194106 0.500000
O O2 0.912747 0.193910 0.717912
O O3 0.974504 0.274394 0.675177
O O4 0.022422 0.188576 0.761799
O O5 0.663381 0.836620 0.248557
O O6 0.563348 0.863693 0.230907
O O7 0.625880 0.874121 0.000000
O O8 0.142701 0.357300 0.800470
O O9 0.236913 0.408087 0.800921
O O10 0.150486 0.459351 0.730082
O O11 0.167185 0.425821 0.000000
O O12 0.169046 0.870754 0.748906
O O13 0.190291 0.918248 0.000000
O O14 0.199137 0.699137 0.500000
O O15 0.185793 0.764658 0.284444
O O16 0.651269 0.679225 0.500000
O O17 0.975555 0.355135 0.500000
#
# Coordination Sequence:
#
# PCOD9563930 Si02
#       7
#    16   8  16  16   8  16  16
#     4   9  18  35  57  76 102 141 182 221 262 312
#     4  12  22  32  51  79 108 140 174 215 273 331
#     4   9  19  36  53  72 105 143 178 219 267 317
#     4  10  21  34  53  81 112 144 177 214 262 321
#     4  10  20  36  54  79 113 144 178 221 267 309
#     4  10  20  35  56  81 111 143 178 221 266 312
#     4  10  19  34  54  75 101 135 181 226 265 314
#
# _framework density 16.764468000000001
#
# number of rings (size 3 to 8) (size 9 to 14) (size 15 to 20)
#    0.000    2.167    1.667    1.750    1.167    3.000 
#    0.000    0.417    0.000    3.000    0.000    3.500 
#    0.000    0.000    0.000    0.000    0.000    0.000 
#
# Total GULP energy -535461.981725 kJ/mol
# GULP energy per Si atom -5577.728976 kJ/mol
# Density = 1.672631 g / cm^3
# Si number density = 16.764468 Si / 1000 Ang^3
#
#
#
# Elastic Constant Matrix: (Units=GPa)
#
#
# Indices 1 2 3 4 5 6 
#
# 1 86.5003 62.7830 44.0368 0.0000 0.0000 0.0000
# 2 62.7830 86.5001 44.0365 0.0000 0.0000 0.0000
# 3 44.0368 44.0365 50.2677 0.0000 0.0000 0.0000
# 4 0.0000 0.0000 0.0000 24.6953 0.0000 0.0000
# 5 0.0000 0.0000 0.0000 0.0000 24.6951 0.0000
# 6 0.0000 0.0000 0.0000 0.0000 0.0000 20.7731
#
#
#
# Elastic Compliance Matrix: (Units=1/GPa)
#
#
# Indices 1 2 3 4 5 6 
#
# 1 0.028014 -0.014149 -0.012146 0.000000 0.000000 0.000000
# 2 -0.014149 0.028014 -0.012146 0.000000 0.000000 0.000000
# 3 -0.012146 -0.012146 0.041174 0.000000 0.000000 0.000000
# 4 0.000000 0.000000 0.000000 0.040494 0.000000 0.000000
# 5 0.000000 0.000000 0.000000 0.000000 0.040494 0.000000
# 6 0.000000 0.000000 0.000000 0.000000 0.000000 0.048139
#
#
# Mechanical properties :
#
#
# Convention : Reuss Voigt Hill
#
# Bulk Modulus (GPa) = 49.21365 58.33119 53.77242
# Shear Modulus (GPa) = 16.12987 18.86016 17.49501
#
# Velocity S-wave (km/s) = 3.10521 3.35775 3.23395
# Velocity P-wave (km/s) = 6.50201 7.06419 6.78892
#
# Compressibility (1/GPa) = 0.02031957
#
# Stress axis : x y z
#
# Youngs Moduli (GPa) = 35.69647 35.69668 24.28711
#
# Poissons Ratio (x) = 0.50509 0.29499
# Poissons Ratio (y) = 0.50509 0.29498
# Poissons Ratio (z) = 0.43357 0.43356
#
# Static dielectric constant tensor:
#      x y z
#    x 1.548750 0.000000 0.000000 
#    y 0.000000 1.548750 0.000000 
#    z 0.000000 0.000000 1.559920 
# 
# From -- ./inp_files/2065.got.cif
#   From: 2010.05.17/outbox.cif.g08.bks.cpg/sg127_2_cif.got.tgz:2065.got - 2010.05.20 12:03:00.
