data_PCOD9563465
_publ_section_title
;
Structure prediction by ZEFSAII (Michael W. Deem and Ramdas Pophale) SiO2 
 PCOD9563465
Probable space group: P 4/N N C
;
_chemical_formula_sum "Si O2"
_cell_formula_units_Z 64
_cell_length_a 24.252301
_cell_length_b 24.252301
_cell_length_c 4.940548
_cell_angle_alpha 90.000000
_cell_angle_beta 90.000000
_cell_angle_gamma 90.000000
_cell_volume 2905.902392
_symmetry_space_group_name_H-M "P 4/N N C"
_symmetry_group_IT_number 126
_space_group.IT_coordinate_system_code '2'
_symmetry_cell_setting 'tetragonal'
loop_
_space_group_symop_operation_xyz
x,y,z
1/2-y,x,z
1/2-x,1/2-y,z
y,1/2-x,z
x,1/2-y,1/2-z
1/2-x,y,1/2-z
y,x,1/2-z
1/2-y,1/2-x,1/2-z
-x,-y,-z
1/2+y,-x,-z
1/2+x,1/2+y,-z
-y,1/2+x,-z
-x,1/2+y,1/2+z
1/2+x,-y,1/2+z
-y,-x,1/2+z
1/2+y,1/2+x,1/2+z
loop_
_atom_site_type_symbol
_atom_site_label
_atom_site_fract_x
_atom_site_fract_y
_atom_site_fract_z
Si Si1 0.635342 0.312711 0.164581
Si Si2 0.750000 0.841541 0.750000
Si Si3 0.927068 0.870365 0.995694
Si Si4 0.404615 0.544241 0.269862
Si Si5 0.750000 0.918317 0.250000
O O1 0.627455 0.250000 0.250000
O O2 0.679395 0.341894 0.363444
O O3 0.580014 0.348639 0.199534
O O4 0.699202 0.800799 0.750000
O O5 0.735848 0.879721 0.499094
O O6 0.904348 0.904348 0.250000
O O7 0.941304 0.808539 0.122681
O O8 0.882905 0.882905 0.750000
O O9 0.983329 0.893176 0.869136
O O10 0.448964 0.573699 0.466203
#
# Coordination Sequence:
#
# PCOD9563465 Si02
#       5
#    16   8  16  16   8
#     4  10  21  39  62  94 134 177 220 269 324 392
#     4  11  22  38  64  88 122 174 212 256 327 398
#     4  12  26  45  69 101 133 176 228 279 342 408
#     4  10  23  45  67  97 134 177 226 278 339 395
#     4  12  24  43  62  94 134 164 209 282 330 398
#
# _framework density 22.024138000000001
#
# number of rings (size 3 to 8) (size 9 to 14) (size 15 to 20)
#    0.000    1.125    0.000    6.750    0.000    5.500 
#   20.250    0.000    0.000    0.000    0.000    0.000 
#    0.000    0.000    0.000    0.000    0.000    0.000 
#
# Total GULP energy -356886.957688 kJ/mol
# GULP energy per Si atom -5576.358714 kJ/mol
# Density = 2.197401 g / cm^3
# Si number density = 22.024138 Si / 1000 Ang^3
#
#
#
# Elastic Constant Matrix: (Units=GPa)
#
#
# Indices 1 2 3 4 5 6 
#
# 1 107.1726 43.2873 11.1433 0.0000 0.0000 0.0000
# 2 43.2873 107.1721 11.1434 0.0000 0.0000 0.0000
# 3 11.1433 11.1434 98.8589 0.0000 0.0000 0.0000
# 4 0.0000 0.0000 0.0000 31.1273 0.0000 0.0000
# 5 0.0000 0.0000 0.0000 0.0000 31.1275 0.0000
# 6 0.0000 0.0000 0.0000 0.0000 0.0000 11.4046
#
#
#
# Elastic Compliance Matrix: (Units=1/GPa)
#
#
# Indices 1 2 3 4 5 6 
#
# 1 0.011206 -0.004447 -0.000762 0.000000 0.000000 0.000000
# 2 -0.004447 0.011206 -0.000762 0.000000 0.000000 0.000000
# 3 -0.000762 -0.000762 0.010287 0.000000 0.000000 0.000000
# 4 0.000000 0.000000 0.000000 0.032126 0.000000 0.000000
# 5 0.000000 0.000000 0.000000 0.000000 0.032126 0.000000
# 6 0.000000 0.000000 0.000000 0.000000 0.000000 0.087684
#
#
# Mechanical properties :
#
#
# Convention : Reuss Voigt Hill
#
# Bulk Modulus (GPa) = 48.17433 49.37239 48.77336
# Shear Modulus (GPa) = 24.57045 31.24052 27.90548
#
# Velocity S-wave (km/s) = 3.34371 3.77034 3.56341
# Velocity P-wave (km/s) = 6.06861 6.43584 6.25492
#
# Compressibility (1/GPa) = 0.02075794
#
# Stress axis : x y z
#
# Youngs Moduli (GPa) = 89.23712 89.23666 97.20828
#
# Poissons Ratio (x) = 0.39683 0.07406
# Poissons Ratio (y) = 0.39684 0.07406
# Poissons Ratio (z) = 0.06799 0.06799
#
# Static dielectric constant tensor:
#      x y z
#    x 1.826610 0.000000 0.000000 
#    y 0.000000 1.826620 0.000000 
#    z 0.000000 0.000000 1.707120 
# 
# From -- ./inp_files/491.got.cif
#   From: 2010.05.17/outbox.cif.g08.bks.cpg/sg126_1_cif.got.tgz:491.got - 2010.05.20 11:58:20.
