data_PCOD9563190
_publ_section_title
;
Structure prediction by ZEFSAII (Michael W. Deem and Ramdas Pophale) SiO2 
 PCOD9563190
Probable space group: P 4/N B M
;
_chemical_formula_sum "Si O2"
_cell_formula_units_Z 96
_cell_length_a 14.074954
_cell_length_b 14.074954
_cell_length_c 23.987212
_cell_angle_alpha 90.000000
_cell_angle_beta 90.000000
_cell_angle_gamma 90.000000
_cell_volume 4751.970564
_symmetry_space_group_name_H-M "P 4/N B M"
_symmetry_group_IT_number 125
_space_group.IT_coordinate_system_code '2'
_symmetry_cell_setting 'tetragonal'
loop_
_space_group_symop_operation_xyz
x,y,z
1/2-y,x,z
1/2-x,1/2-y,z
y,1/2-x,z
x,1/2-y,-z
1/2-x,y,-z
y,x,-z
1/2-y,1/2-x,-z
-x,-y,-z
1/2+y,-x,-z
1/2+x,1/2+y,-z
-y,1/2+x,-z
-x,1/2+y,z
1/2+x,-y,z
-y,-x,z
1/2+y,1/2+x,z
loop_
_atom_site_type_symbol
_atom_site_label
_atom_site_fract_x
_atom_site_fract_y
_atom_site_fract_z
Si Si1 0.828011 0.889683 0.761348
Si Si2 0.797621 0.045735 0.556581
Si Si3 0.203480 0.952244 0.160297
Si Si4 0.668776 0.331225 0.239018
Si Si5 0.331260 0.831260 0.365695
Si Si6 0.171568 0.388972 0.634881
Si Si7 0.091028 0.251143 0.934786
O O1 0.714402 0.872765 0.768217
O O2 0.846581 0.922381 0.698075
O O3 0.855559 0.967848 0.806012
O O4 0.750000 0.010358 0.500000
O O5 0.865698 0.134303 0.542499
O O6 0.717699 0.085033 0.599288
O O7 0.855771 0.964968 0.588813
O O8 0.135259 0.864742 0.145436
O O9 0.282847 0.914118 0.203288
O O10 0.247140 0.003068 0.106632
O O11 0.750000 0.250000 0.243586
O O12 0.641732 0.358269 0.302345
O O13 0.250000 0.750000 0.361830
O O14 0.126822 0.285125 0.628922
O O15 0.158392 0.159229 0.924895
O O16 0.064319 0.250000 0.000000
#
# Coordination Sequence:
#
# PCOD9563190 Si02
#       7
#    16  16  16   8   8  16  16
#     4   9  18  36  60  82 110 150 194 236 285 346
#     4  11  21  36  58  83 110 142 189 238 283 348
#     4  11  21  35  55  86 123 150 190 238 288 347
#     4   9  20  36  52  75 114 160 186 220 287 358
#     4   9  18  34  58  77 106 150 190 234 283 338
#     4   9  20  39  59  80 111 151 189 232 292 349
#     4   9  19  40  65  85 112 157 206 243 283 335
#
# _framework density 20.202145999999999
#
# number of rings (size 3 to 8) (size 9 to 14) (size 15 to 20)
#    0.000    2.333    0.833    3.500    0.000    4.000 
#    9.000    2.500    0.000    0.000    0.000    0.000 
#    0.000    0.000    0.000    0.000    0.000    0.000 
#
# Total GULP energy -536071.160996 kJ/mol
# GULP energy per Si atom -5584.074594 kJ/mol
# Density = 2.015617 g / cm^3
# Si number density = 20.202146 Si / 1000 Ang^3
#
#
#
# Elastic Constant Matrix: (Units=GPa)
#
#
# Indices 1 2 3 4 5 6 
#
# 1 46.1723 -8.8511 30.4948 0.0000 0.0000 0.0000
# 2 -8.8511 46.1723 30.4948 0.0000 0.0000 0.0000
# 3 30.4948 30.4948 111.9755 0.0000 0.0000 0.0000
# 4 0.0000 0.0000 0.0000 26.2611 0.0000 0.0000
# 5 0.0000 0.0000 0.0000 0.0000 26.2611 0.0000
# 6 0.0000 0.0000 0.0000 0.0000 0.0000 5.9536
#
#
#
# Elastic Compliance Matrix: (Units=1/GPa)
#
#
# Indices 1 2 3 4 5 6 
#
# 1 0.033228 0.015054 -0.013149 0.000000 0.000000 0.000000
# 2 0.015054 0.033228 -0.013149 0.000000 0.000000 0.000000
# 3 -0.013149 -0.013149 0.016092 0.000000 0.000000 0.000000
# 4 0.000000 0.000000 0.000000 0.038079 0.000000 0.000000
# 5 0.000000 0.000000 0.000000 0.000000 0.038079 0.000000
# 6 0.000000 0.000000 0.000000 0.000000 0.000000 0.167967
#
#
# Mechanical properties :
#
#
# Convention : Reuss Voigt Hill
#
# Bulk Modulus (GPa) = 16.64978 34.28855 25.46916
# Shear Modulus (GPa) = 13.54348 21.84058 17.69203
#
# Velocity S-wave (km/s) = 2.59201 3.29158 2.96252
# Velocity P-wave (km/s) = 4.14940 5.60853 4.93321
#
# Compressibility (1/GPa) = 0.06006086
#
# Stress axis : x y z
#
# Youngs Moduli (GPa) = 30.09508 30.09508 62.14162
#
# Poissons Ratio (x) = -0.45305 0.81709
# Poissons Ratio (y) = -0.45305 0.81709
# Poissons Ratio (z) = 0.39571 0.39571
#
# Static dielectric constant tensor:
#      x y z
#    x 1.720870 0.000000 0.000000 
#    y 0.000000 1.720870 0.000000 
#    z 0.000000 0.000000 1.710470 
# 
# From -- ./inp_files/6197.got.cif
#   From: 2010.05.17/outbox.cif.g08.bks.cpg/sg125_4_cif.got.tgz:6197.got - 2010.05.20 11:54:10.
