data_PCOD9563686
_publ_section_title
;
Structure prediction by ZEFSAII (Michael W. Deem and Ramdas Pophale) SiO2 
 PCOD9563686
Probable space group: P 4/N N C
;
_chemical_formula_sum "Si O2"
_cell_formula_units_Z 72
_cell_length_a 17.898414
_cell_length_b 17.898414
_cell_length_c 10.753818
_cell_angle_alpha 90.000000
_cell_angle_beta 90.000000
_cell_angle_gamma 90.000000
_cell_volume 3445.020264
_symmetry_space_group_name_H-M "P 4/N N C"
_symmetry_group_IT_number 126
_space_group.IT_coordinate_system_code '2'
_symmetry_cell_setting 'tetragonal'
loop_
_space_group_symop_operation_xyz
x,y,z
1/2-y,x,z
1/2-x,1/2-y,z
y,1/2-x,z
x,1/2-y,1/2-z
1/2-x,y,1/2-z
y,x,1/2-z
1/2-y,1/2-x,1/2-z
-x,-y,-z
1/2+y,-x,-z
1/2+x,1/2+y,-z
-y,1/2+x,-z
-x,1/2+y,1/2+z
1/2+x,-y,1/2+z
-y,-x,1/2+z
1/2+y,1/2+x,1/2+z
loop_
_atom_site_type_symbol
_atom_site_label
_atom_site_fract_x
_atom_site_fract_y
_atom_site_fract_z
Si Si1 0.351681 0.179816 0.079925
Si Si2 0.566847 0.671839 0.321448
Si Si3 0.934828 0.934828 0.750000
Si Si4 0.905715 0.108256 0.709180
Si Si5 0.823032 0.349367 0.026675
O O1 0.349759 0.268274 0.110050
O O2 0.407835 0.121747 0.142733
O O3 0.379164 0.179787 0.938866
O O4 0.570870 0.750000 0.250000
O O5 0.602318 0.602318 0.250000
O O6 0.479867 0.651868 0.336322
O O7 0.022843 0.923506 0.761077
O O8 0.852919 0.102588 0.588432
O O9 0.872906 0.148307 0.835139
O O10 0.848967 0.266133 0.987513
#
# Coordination Sequence:
#
# PCOD9563686 Si02
#       5
#    16  16   8  16  16
#     4  11  25  45  69  99 138 185 236 284 340 411
#     4  12  24  42  71 104 136 175 226 283 343 409
#     4  12  28  43  66  98 143 182 230 280 346 414
#     4  12  27  45  70 104 141 181 227 289 350 410
#     4  11  25  47  73 102 135 181 234 284 342 416
#
# _framework density 20.899733000000001
#
# number of rings (size 3 to 8) (size 9 to 14) (size 15 to 20)
#    0.000    0.444    3.333    4.667    3.111   10.000 
#    0.000    0.000    0.000    0.000    0.000    0.000 
#    0.000    0.000    0.000    0.000    0.000    0.000 
#
# Total GULP energy -401772.137906 kJ/mol
# GULP energy per Si atom -5580.168582 kJ/mol
# Density = 2.085216 g / cm^3
# Si number density = 20.899733 Si / 1000 Ang^3
#
#
#
# Elastic Constant Matrix: (Units=GPa)
#
#
# Indices 1 2 3 4 5 6 
#
# 1 74.7400 28.5257 6.1691 0.0000 0.0000 0.0000
# 2 28.5257 74.7400 6.1691 0.0000 0.0000 0.0000
# 3 6.1691 6.1691 62.2921 0.0000 0.0000 0.0000
# 4 0.0000 0.0000 0.0000 34.3305 0.0000 0.0000
# 5 0.0000 0.0000 0.0000 0.0000 34.3305 0.0000
# 6 0.0000 0.0000 0.0000 0.0000 0.0000 37.0363
#
#
#
# Elastic Compliance Matrix: (Units=1/GPa)
#
#
# Indices 1 2 3 4 5 6 
#
# 1 0.015719 -0.005919 -0.000971 0.000000 0.000000 0.000000
# 2 -0.005919 0.015719 -0.000971 0.000000 0.000000 0.000000
# 3 -0.000971 -0.000971 0.016246 0.000000 0.000000 0.000000
# 4 0.000000 0.000000 0.000000 0.029129 0.000000 0.000000
# 5 0.000000 0.000000 0.000000 0.000000 0.029129 0.000000
# 6 0.000000 0.000000 0.000000 0.000000 0.000000 0.027001
#
#
# Mechanical properties :
#
#
# Convention : Reuss Voigt Hill
#
# Bulk Modulus (GPa) = 31.28618 32.61110 31.94864
# Shear Modulus (GPa) = 31.38407 32.53334 31.95870
#
# Velocity S-wave (km/s) = 3.87932 3.94971 3.91467
# Velocity P-wave (km/s) = 5.92179 6.03637 5.97935
#
# Compressibility (1/GPa) = 0.03196300
#
# Stress axis : x y z
#
# Youngs Moduli (GPa) = 63.61714 63.61714 61.55497
#
# Poissons Ratio (x) = 0.37657 0.05974
# Poissons Ratio (y) = 0.37657 0.05974
# Poissons Ratio (z) = 0.06174 0.06174
#
# Static dielectric constant tensor:
#      x y z
#    x 1.836880 0.000000 0.000000 
#    y 0.000000 1.836880 0.000000 
#    z 0.000000 0.000000 1.920450 
# 
# From -- ./inp_files/2668.got.cif
#   From: 2010.05.17/outbox.cif.g08.bks.cpg/sg126_2_cif.got.tgz:2668.got - 2010.05.20 11:58:20.
