data_PCOD9563007
_publ_section_title
;
Structure prediction by ZEFSAII (Michael W. Deem and Ramdas Pophale) SiO2 
 PCOD9563007
Probable space group: P 4/N B M
;
_chemical_formula_sum "Si O2"
_cell_formula_units_Z 112
_cell_length_a 15.707331
_cell_length_b 15.707331
_cell_length_c 23.027914
_cell_angle_alpha 90.000000
_cell_angle_beta 90.000000
_cell_angle_gamma 90.000000
_cell_volume 5681.452633
_symmetry_space_group_name_H-M "P 4/N B M"
_symmetry_group_IT_number 125
_space_group.IT_coordinate_system_code '2'
_symmetry_cell_setting 'tetragonal'
loop_
_space_group_symop_operation_xyz
x,y,z
1/2-y,x,z
1/2-x,1/2-y,z
y,1/2-x,z
x,1/2-y,-z
1/2-x,y,-z
y,x,-z
1/2-y,1/2-x,-z
-x,-y,-z
1/2+y,-x,-z
1/2+x,1/2+y,-z
-y,1/2+x,-z
-x,1/2+y,z
1/2+x,-y,z
-y,-x,z
1/2+y,1/2+x,z
loop_
_atom_site_type_symbol
_atom_site_label
_atom_site_fract_x
_atom_site_fract_y
_atom_site_fract_z
Si Si1 0.133889 0.164197 0.741668
Si Si2 0.568961 0.291253 0.364771
Si Si3 0.929065 0.928509 0.373881
Si Si4 0.031832 0.667372 0.539304
Si Si5 0.229347 0.111020 0.067993
Si Si6 0.613695 0.251869 0.241323
Si Si7 0.359298 0.499939 0.159112
O O1 0.232743 0.135649 0.745046
O O2 0.093514 0.131225 0.680859
O O3 0.077981 0.128084 0.795269
O O4 0.654788 0.345213 0.371217
O O5 0.490935 0.350060 0.383979
O O6 0.572403 0.207466 0.402387
O O7 0.558019 0.274564 0.296752
O O8 0.950642 0.879812 0.433486
O O9 0.010404 0.989597 0.360406
O O10 0.017345 0.750000 0.500000
O O11 0.097850 0.597850 0.513675
O O12 0.317550 0.157907 0.083044
O O13 0.191874 0.031992 0.102710
O O14 0.250000 0.093886 0.000000
O O15 0.665012 0.334989 0.221562
O O16 0.683890 0.183890 0.262593
O O17 0.561607 0.206006 0.192201
O O18 0.445548 0.554453 0.148260
#
# Coordination Sequence:
#
# PCOD9563007 Si02
#       7
#    16  16  16  16  16  16  16
#     4  11  22  36  57  84 115 151 189 227 274 338
#     4  10  20  35  56  79 104 136 176 223 273 326
#     4  10  21  37  56  79 108 141 178 225 284 341
#     4  11  23  37  54  76 103 136 176 224 275 332
#     4   9  19  39  63  82 107 149 198 240 280 330
#     4   9  18  33  54  80 112 151 187 219 266 331
#     4  11  21  34  55  86 121 149 183 233 283 328
#
# _framework density 19.713267999999999
#
# number of rings (size 3 to 8) (size 9 to 14) (size 15 to 20)
#    0.000    1.857    0.000    5.143    0.000    5.571 
#    0.000    8.571    0.000    0.000    0.000    1.000 
#    0.000    0.000    0.000    0.000    0.000    0.000 
#
# Total GULP energy -624970.873750 kJ/mol
# GULP energy per Si atom -5580.097087 kJ/mol
# Density = 1.966840 g / cm^3
# Si number density = 19.713268 Si / 1000 Ang^3
#
#
#
# Elastic Constant Matrix: (Units=GPa)
#
#
# Indices 1 2 3 4 5 6 
#
# 1 93.4102 52.1458 48.3133 0.0000 0.0000 0.0000
# 2 52.1458 93.4102 48.3133 0.0000 0.0000 0.0000
# 3 48.3133 48.3133 70.1078 0.0000 0.0000 0.0000
# 4 0.0000 0.0000 0.0000 30.7891 0.0000 0.0000
# 5 0.0000 0.0000 0.0000 0.0000 30.7891 0.0000
# 6 0.0000 0.0000 0.0000 0.0000 0.0000 26.1390
#
#
#
# Elastic Compliance Matrix: (Units=1/GPa)
#
#
# Indices 1 2 3 4 5 6 
#
# 1 0.018449 -0.005785 -0.008727 0.000000 0.000000 0.000000
# 2 -0.005785 0.018449 -0.008727 0.000000 0.000000 0.000000
# 3 -0.008727 -0.008727 0.026291 0.000000 0.000000 0.000000
# 4 0.000000 0.000000 0.000000 0.032479 0.000000 0.000000
# 5 0.000000 0.000000 0.000000 0.000000 0.032479 0.000000
# 6 0.000000 0.000000 0.000000 0.000000 0.000000 0.038257
#
#
# Mechanical properties :
#
#
# Convention : Reuss Voigt Hill
#
# Bulk Modulus (GPa) = 59.83956 61.60810 60.72383
# Shear Modulus (GPa) = 22.88838 24.75384 23.82111
#
# Velocity S-wave (km/s) = 3.41114 3.54742 3.47995
# Velocity P-wave (km/s) = 6.77756 6.93534 6.85690
#
# Compressibility (1/GPa) = 0.01671135
#
# Stress axis : x y z
#
# Youngs Moduli (GPa) = 54.20450 54.20450 38.03533
#
# Poissons Ratio (x) = 0.31359 0.33192
# Poissons Ratio (y) = 0.31359 0.33192
# Poissons Ratio (z) = 0.47303 0.47303
#
# Static dielectric constant tensor:
#      x y z
#    x 1.726310 0.000000 0.000000 
#    y 0.000000 1.726310 0.000000 
#    z 0.000000 0.000000 1.721080 
# 
# From -- ./inp_files/6239.got.cif
#   From: 2010.05.17/outbox.cif.g08.bks.cpg/sg125_4_cif.got.tgz:6239.got - 2010.05.20 11:54:10.
