data_PCOD9563098
_publ_section_title
;
Structure prediction by ZEFSAII (Michael W. Deem and Ramdas Pophale) SiO2 
 PCOD9563098
Probable space group: P 4/N B M
;
_chemical_formula_sum "Si O2"
_cell_formula_units_Z 40
_cell_length_a 14.309477
_cell_length_b 14.309477
_cell_length_c 7.889700
_cell_angle_alpha 90.000000
_cell_angle_beta 90.000000
_cell_angle_gamma 90.000000
_cell_volume 1615.503903
_symmetry_space_group_name_H-M "P 4/N B M"
_symmetry_group_IT_number 125
_space_group.IT_coordinate_system_code '2'
_symmetry_cell_setting 'tetragonal'
loop_
_space_group_symop_operation_xyz
x,y,z
1/2-y,x,z
1/2-x,1/2-y,z
y,1/2-x,z
x,1/2-y,-z
1/2-x,y,-z
y,x,-z
1/2-y,1/2-x,-z
-x,-y,-z
1/2+y,-x,-z
1/2+x,1/2+y,-z
-y,1/2+x,-z
-x,1/2+y,z
1/2+x,-y,z
-y,-x,z
1/2+y,1/2+x,z
loop_
_atom_site_type_symbol
_atom_site_label
_atom_site_fract_x
_atom_site_fract_y
_atom_site_fract_z
Si Si1 0.380667 0.038646 0.658673
Si Si2 0.256462 0.902047 0.202360
Si Si3 0.860796 0.639205 0.000000
O O1 0.393408 0.106593 0.500000
O O2 0.401848 0.093006 0.832280
O O3 0.455445 0.955445 0.640610
O O4 0.280987 0.988343 0.689834
O O5 0.180864 0.819137 0.230032
O O6 0.357242 0.857242 0.243484
O O7 0.250000 0.920935 0.000000
O O8 0.874803 0.750000 0.000000
#
# Coordination Sequence:
#
# PCOD9563098 Si02
#       3
#    16  16   8
#     4  10  21  39  67 101 135 174 221 277 346 423
#     4   8  14  28  56  94 133 175 224 278 336 399
#     4  11  25  44  66  90 123 173 226 280 340 405
#
# _framework density 24.760073999999999
#
# number of rings (size 3 to 8) (size 9 to 14) (size 15 to 20)
#    0.000    2.600    0.000    3.000    0.000    1.600 
#    0.000    4.000    0.000    7.200    0.000   11.200 
#    0.000    0.000    0.000    0.000    0.000    0.000 
#
# Total GULP energy -223981.091567 kJ/mol
# GULP energy per Si atom -5599.527289 kJ/mol
# Density = 2.470372 g / cm^3
# Si number density = 24.760074 Si / 1000 Ang^3
#
#
#
# Elastic Constant Matrix: (Units=GPa)
#
#
# Indices 1 2 3 4 5 6 
#
# 1 107.1879 49.9964 58.0913 0.0000 0.0000 0.0000
# 2 49.9964 107.1892 58.0920 0.0000 0.0000 0.0000
# 3 58.0913 58.0920 188.4176 0.0000 0.0000 0.0000
# 4 0.0000 0.0000 0.0000 29.6934 0.0000 0.0000
# 5 0.0000 0.0000 0.0000 0.0000 29.6939 0.0000
# 6 0.0000 0.0000 0.0000 0.0000 0.0000 10.9318
#
#
#
# Elastic Compliance Matrix: (Units=1/GPa)
#
#
# Indices 1 2 3 4 5 6 
#
# 1 0.012862 -0.004623 -0.002540 0.000000 0.000000 0.000000
# 2 -0.004623 0.012862 -0.002540 0.000000 0.000000 0.000000
# 3 -0.002540 -0.002540 0.006874 0.000000 0.000000 0.000000
# 4 0.000000 0.000000 0.000000 0.033677 0.000000 0.000000
# 5 0.000000 0.000000 0.000000 0.000000 0.033677 0.000000
# 6 0.000000 0.000000 0.000000 0.000000 0.000000 0.091477
#
#
# Mechanical properties :
#
#
# Convention : Reuss Voigt Hill
#
# Bulk Modulus (GPa) = 75.80595 81.68380 78.74487
# Shear Modulus (GPa) = 23.23060 29.83815 26.53437
#
# Velocity S-wave (km/s) = 3.06637 3.47521 3.27717
# Velocity P-wave (km/s) = 6.57416 7.01174 6.79647
#
# Compressibility (1/GPa) = 0.01319158
#
# Stress axis : x y z
#
# Youngs Moduli (GPa) = 77.74623 77.74701 145.47915
#
# Poissons Ratio (x) = 0.35940 0.36957
# Poissons Ratio (y) = 0.35939 0.36958
# Poissons Ratio (z) = 0.19751 0.19751
#
# Static dielectric constant tensor:
#      x y z
#    x 1.980600 0.000000 0.000000 
#    y 0.000000 1.980590 0.000000 
#    z 0.000000 0.000000 1.931950 
# 
# From -- ./inp_files/1558.got.cif
#   From: 2010.05.17/outbox.cif.g08.bks.cpg/sg125_1_cif.got.tgz:1558.got - 2010.05.20 11:54:10.
