data_PCOD9563323
_publ_section_title
;
Structure prediction by ZEFSAII (Michael W. Deem and Ramdas Pophale) SiO2 
 PCOD9563323
Probable space group: P 4/N N C
;
_chemical_formula_sum "Si O2"
_cell_formula_units_Z 80
_cell_length_a 14.353055
_cell_length_b 14.353055
_cell_length_c 18.904616
_cell_angle_alpha 90.000000
_cell_angle_beta 90.000000
_cell_angle_gamma 90.000000
_cell_volume 3894.543493
_symmetry_space_group_name_H-M "P 4/N N C"
_symmetry_group_IT_number 126
_space_group.IT_coordinate_system_code '2'
_symmetry_cell_setting 'tetragonal'
loop_
_space_group_symop_operation_xyz
x,y,z
1/2-y,x,z
1/2-x,1/2-y,z
y,1/2-x,z
x,1/2-y,1/2-z
1/2-x,y,1/2-z
y,x,1/2-z
1/2-y,1/2-x,1/2-z
-x,-y,-z
1/2+y,-x,-z
1/2+x,1/2+y,-z
-y,1/2+x,-z
-x,1/2+y,1/2+z
1/2+x,-y,1/2+z
-y,-x,1/2+z
1/2+y,1/2+x,1/2+z
loop_
_atom_site_type_symbol
_atom_site_label
_atom_site_fract_x
_atom_site_fract_y
_atom_site_fract_z
Si Si1 0.910486 0.950626 0.533501
Si Si2 0.890735 0.228908 0.025794
Si Si3 0.028893 0.537851 0.173035
Si Si4 0.218314 0.642197 0.176617
Si Si5 0.845038 0.870007 0.095078
O O1 0.894132 0.857895 0.488696
O O2 0.823612 0.015261 0.510960
O O3 0.000000 0.000000 0.500000
O O4 0.929631 0.960918 0.617338
O O5 0.896997 0.265109 0.105761
O O6 0.809879 0.148977 0.023373
O O7 0.003337 0.496664 0.250000
O O8 0.939704 0.589054 0.138774
O O9 0.109354 0.617258 0.174668
O O10 0.250000 0.750000 0.176950
O O11 0.250000 0.598576 0.250000
O O12 0.735741 0.875835 0.111238
#
# Coordination Sequence:
#
# PCOD9563323 Si02
#       5
#    16  16  16  16  16
#     4   9  21  37  59  88 121 163 213 262 328 386
#     4  10  19  33  57  87 119 159 200 267 326 383
#     4  10  23  43  62  95 134 177 216 276 340 410
#     4  10  21  36  55  90 130 167 214 262 332 404
#     4  10  23  41  65  95 124 173 224 269 326 401
#
# _framework density 20.541561000000002
#
# number of rings (size 3 to 8) (size 9 to 14) (size 15 to 20)
#    0.000    2.200    2.000    0.000    8.400    7.200 
#    3.600    1.000    0.000    0.000    0.000    1.400 
#    0.000    0.000    0.000    0.000    0.000    0.000 
#
# Total GULP energy -445740.175749 kJ/mol
# GULP energy per Si atom -5571.752197 kJ/mol
# Density = 2.049481 g / cm^3
# Si number density = 20.541561 Si / 1000 Ang^3
#
#
#
# Elastic Constant Matrix: (Units=GPa)
#
#
# Indices 1 2 3 4 5 6 
#
# 1 59.1002 9.4235 19.2379 0.0000 0.0000 0.0000
# 2 9.4235 59.1006 19.2382 0.0000 0.0000 0.0000
# 3 19.2379 19.2382 117.4704 0.0000 0.0000 0.0000
# 4 0.0000 0.0000 0.0000 10.7639 0.0000 0.0000
# 5 0.0000 0.0000 0.0000 0.0000 10.7644 0.0000
# 6 0.0000 0.0000 0.0000 0.0000 0.0000 29.9735
#
#
#
# Elastic Compliance Matrix: (Units=1/GPa)
#
#
# Indices 1 2 3 4 5 6 
#
# 1 0.018101 -0.002029 -0.002632 0.000000 0.000000 0.000000
# 2 -0.002029 0.018101 -0.002632 0.000000 0.000000 0.000000
# 3 -0.002632 -0.002632 0.009375 0.000000 0.000000 0.000000
# 4 0.000000 0.000000 0.000000 0.092903 0.000000 0.000000
# 5 0.000000 0.000000 0.000000 0.000000 0.092899 0.000000
# 6 0.000000 0.000000 0.000000 0.000000 0.000000 0.033363
#
#
# Mechanical properties :
#
#
# Convention : Reuss Voigt Hill
#
# Bulk Modulus (GPa) = 32.26896 36.83004 34.54950
# Shear Modulus (GPa) = 17.26176 22.81847 20.04011
#
# Velocity S-wave (km/s) = 2.90200 3.33655 3.12683
# Velocity P-wave (km/s) = 5.19346 5.72816 5.46735
#
# Compressibility (1/GPa) = 0.03098953
#
# Stress axis : x y z
#
# Youngs Moduli (GPa) = 55.24639 55.24666 106.66824
#
# Poissons Ratio (x) = 0.11212 0.28075
# Poissons Ratio (y) = 0.11212 0.28075
# Poissons Ratio (z) = 0.14541 0.14541
#
# Static dielectric constant tensor:
#      x y z
#    x 1.793940 0.000000 0.000000 
#    y 0.000000 1.793940 0.000000 
#    z 0.000000 0.000000 1.789370 
# 
# From -- ./inp_files/5104.got.cif
#   From: 2010.05.17/outbox.cif.g08.bks.cpg/sg126_3_cif.got.tgz:5104.got - 2010.05.20 11:58:20.
