data_PCOD9563006
_publ_section_title
;
Structure prediction by ZEFSAII (Michael W. Deem and Ramdas Pophale) SiO2 
 PCOD9563006
Probable space group: P 4/N B M
;
_chemical_formula_sum "Si O2"
_cell_formula_units_Z 48
_cell_length_a 13.448609
_cell_length_b 13.448609
_cell_length_c 13.789229
_cell_angle_alpha 90.000000
_cell_angle_beta 90.000000
_cell_angle_gamma 90.000000
_cell_volume 2493.990062
_symmetry_space_group_name_H-M "P 4/N B M"
_symmetry_group_IT_number 125
_space_group.IT_coordinate_system_code '2'
_symmetry_cell_setting 'tetragonal'
loop_
_space_group_symop_operation_xyz
x,y,z
1/2-y,x,z
1/2-x,1/2-y,z
y,1/2-x,z
x,1/2-y,-z
1/2-x,y,-z
y,x,-z
1/2-y,1/2-x,-z
-x,-y,-z
1/2+y,-x,-z
1/2+x,1/2+y,-z
-y,1/2+x,-z
-x,1/2+y,z
1/2+x,-y,z
-y,-x,z
1/2+y,1/2+x,z
loop_
_atom_site_type_symbol
_atom_site_label
_atom_site_fract_x
_atom_site_fract_y
_atom_site_fract_z
Si Si1 0.990515 0.174498 0.303030
Si Si2 0.754608 0.083937 0.893340
Si Si3 0.371854 0.463327 0.407800
O O1 0.890761 0.109240 0.319745
O O2 0.982379 0.223423 0.197311
O O3 0.003656 0.262137 0.380589
O O4 0.080794 0.098300 0.318404
O O5 0.859629 0.140372 0.876997
O O6 0.671980 0.171980 0.898224
O O7 0.750000 0.035928 0.000000
O O8 0.392244 0.392244 0.500000
O O9 0.439775 0.560226 0.424324
#
# Coordination Sequence:
#
# PCOD9563006 Si02
#       3
#    16  16  16
#     4  10  20  35  55  78 108 146 182 221 274 325
#     4   8  14  27  50  79 108 140 182 227 266 313
#     4  10  21  36  54  80 111 141 183 231 267 318
#
# _framework density 19.246267
#
# number of rings (size 3 to 8) (size 9 to 14) (size 15 to 20)
#    0.000    2.667    0.000    3.000    0.000    2.667 
#    0.000    5.000    0.000   20.000    0.000    2.333 
#    0.000    0.000    0.000    0.000    0.000    0.000 
#
# Total GULP energy -267541.880398 kJ/mol
# GULP energy per Si atom -5573.789175 kJ/mol
# Density = 1.920246 g / cm^3
# Si number density = 19.246267 Si / 1000 Ang^3
#
#
#
# Elastic Constant Matrix: (Units=GPa)
#
#
# Indices 1 2 3 4 5 6 
#
# 1 69.1433 33.3460 40.4812 0.0000 0.0000 0.0000
# 2 33.3460 69.1433 40.4812 0.0000 0.0000 0.0000
# 3 40.4812 40.4812 120.0802 0.0000 0.0000 0.0000
# 4 0.0000 0.0000 0.0000 23.3925 0.0000 0.0000
# 5 0.0000 0.0000 0.0000 0.0000 23.3925 0.0000
# 6 0.0000 0.0000 0.0000 0.0000 0.0000 13.2066
#
#
#
# Elastic Compliance Matrix: (Units=1/GPa)
#
#
# Indices 1 2 3 4 5 6 
#
# 1 0.020617 -0.007318 -0.004483 0.000000 0.000000 0.000000
# 2 -0.007318 0.020617 -0.004483 0.000000 0.000000 0.000000
# 3 -0.004483 -0.004483 0.011351 0.000000 0.000000 0.000000
# 4 0.000000 0.000000 0.000000 0.042749 0.000000 0.000000
# 5 0.000000 0.000000 0.000000 0.000000 0.042749 0.000000
# 6 0.000000 0.000000 0.000000 0.000000 0.000000 0.075720
#
#
# Mechanical properties :
#
#
# Convention : Reuss Voigt Hill
#
# Bulk Modulus (GPa) = 49.96259 54.10930 52.03595
# Shear Modulus (GPa) = 19.75951 21.60220 20.68085
#
# Velocity S-wave (km/s) = 3.20764 3.35387 3.28157
# Velocity P-wave (km/s) = 6.30354 6.57063 6.43847
#
# Compressibility (1/GPa) = 0.02001498
#
# Stress axis : x y z
#
# Youngs Moduli (GPa) = 48.50396 48.50396 88.10164
#
# Poissons Ratio (x) = 0.35496 0.39498
# Poissons Ratio (y) = 0.35496 0.39498
# Poissons Ratio (z) = 0.21745 0.21745
#
# Static dielectric constant tensor:
#      x y z
#    x 1.661120 0.000000 0.000000 
#    y 0.000000 1.661120 0.000000 
#    z 0.000000 0.000000 1.735890 
# 
# From -- ./inp_files/3348.got.cif
#   From: 2010.05.17/outbox.cif.g08.bks.cpg/sg125_2_cif.got.tgz:3348.got - 2010.05.20 11:54:10.
