data_PCOD9563968
_publ_section_title
;
Structure prediction by ZEFSAII (Michael W. Deem and Ramdas Pophale) SiO2 
 PCOD9563968
Probable space group: P 4/M B M
;
_chemical_formula_sum "Si O2"
_cell_formula_units_Z 50
_cell_length_a 17.760934
_cell_length_b 17.760934
_cell_length_c 9.012045
_cell_angle_alpha 90.000000
_cell_angle_beta 90.000000
_cell_angle_gamma 90.000000
_cell_volume 2842.856594
_symmetry_space_group_name_H-M "P 4/M B M"
_symmetry_group_IT_number 127
_symmetry_cell_setting 'tetragonal'
loop_
_space_group_symop_operation_xyz
x,y,z
-y,x,z
-x,-y,z
y,-x,z
1/2+x,1/2-y,-z
1/2-x,1/2+y,-z
1/2+y,1/2+x,-z
1/2-y,1/2-x,-z
-x,-y,-z
y,-x,-z
x,y,-z
-y,x,-z
1/2-x,1/2+y,z
1/2+x,1/2-y,z
1/2-y,1/2-x,z
1/2+y,1/2+x,z
loop_
_atom_site_type_symbol
_atom_site_label
_atom_site_fract_x
_atom_site_fract_y
_atom_site_fract_z
Si Si1 0.168361 0.068161 0.000000
Si Si2 0.500000 0.500000 0.000000
Si Si3 0.622884 0.532413 0.500000
Si Si4 0.746769 0.519997 0.253299
Si Si5 0.743626 0.636567 0.000000
Si Si6 0.872588 0.499797 0.500000
O O1 0.216720 0.045355 0.144579
O O2 0.147649 0.154802 0.000000
O O3 0.091124 0.020319 0.000000
O O4 0.551902 0.588199 0.500000
O O5 0.676226 0.541768 0.358012
O O6 0.765860 0.588486 0.144279
O O7 0.816812 0.499861 0.358161
O O8 0.784942 0.715059 0.000000
O O9 0.926026 0.573975 0.500000
O O10 0.928395 0.428395 0.500000
#
# Coordination Sequence:
#
# PCOD9563968 Si02
#       6
#     8   2   8  16   8   8
#     4  11  22  35  62  91 121 157 190 237 292 350
#     4  12  20  36  64  90 128 156 204 226 288 376
#     4  10  20  30  52  82 116 147 182 219 272 345
#     4  10  21  37  55  85 114 146 192 237 290 345
#     4  11  22  37  57  82 116 154 188 233 295 354
#     4  10  22  42  64  80 106 153 204 256 302 343
#
# _framework density 17.587942999999999
#
# number of rings (size 3 to 8) (size 9 to 14) (size 15 to 20)
#    0.000    1.600    3.200    2.880    0.000    1.280 
#    0.000    2.400    0.000   14.400    0.000    0.000 
#    0.000    0.000    0.000    0.000    0.000    0.000 
#
# Total GULP energy -278582.954521 kJ/mol
# GULP energy per Si atom -5571.659090 kJ/mol
# Density = 1.754791 g / cm^3
# Si number density = 17.587943 Si / 1000 Ang^3
#
#
#
# Elastic Constant Matrix: (Units=GPa)
#
#
# Indices 1 2 3 4 5 6 
#
# 1 117.0332 50.5627 49.4393 0.0000 0.0000 0.0000
# 2 50.5627 117.0264 49.4367 0.0000 0.0000 0.0000
# 3 49.4393 49.4367 129.5373 0.0000 0.0000 0.0000
# 4 0.0000 0.0000 0.0000 2.0403 0.0000 0.0000
# 5 0.0000 0.0000 0.0000 0.0000 2.0452 0.0000
# 6 0.0000 0.0000 0.0000 0.0000 0.0000 34.5365
#
#
#
# Elastic Compliance Matrix: (Units=1/GPa)
#
#
# Indices 1 2 3 4 5 6 
#
# 1 0.011373 -0.003672 -0.002939 0.000000 0.000000 0.000000
# 2 -0.003672 0.011373 -0.002939 0.000000 0.000000 0.000000
# 3 -0.002939 -0.002939 0.009963 0.000000 0.000000 0.000000
# 4 0.000000 0.000000 0.000000 0.490126 0.000000 0.000000
# 5 0.000000 0.000000 0.000000 0.000000 0.488938 0.000000
# 6 0.000000 0.000000 0.000000 0.000000 0.000000 0.028955
#
#
# Mechanical properties :
#
#
# Convention : Reuss Voigt Hill
#
# Bulk Modulus (GPa) = 73.48250 73.60828 73.54539
# Shear Modulus (GPa) = 4.69764 22.00161 13.34963
#
# Velocity S-wave (km/s) = 1.63608 3.54071 2.75802
# Velocity P-wave (km/s) = 6.74090 7.65885 7.21449
#
# Compressibility (1/GPa) = 0.01360868
#
# Stress axis : x y z
#
# Youngs Moduli (GPa) = 87.93031 87.92595 100.36992
#
# Poissons Ratio (x) = 0.32287 0.29499
# Poissons Ratio (y) = 0.32289 0.29499
# Poissons Ratio (z) = 0.25843 0.25841
#
# Static dielectric constant tensor:
#      x y z
#    x 1.566560 0.000000 0.000000 
#    y 0.000000 1.566560 0.000000 
#    z 0.000000 0.000000 1.591550 
# 
# From -- ./inp_files/1026.got.cif
#   From: 2010.05.17/outbox.cif.g08.bks.cpg/sg127_1_cif.got.tgz:1026.got - 2010.05.20 12:03:00.
