data_PCOD9563834
_publ_section_title
;
Structure prediction by ZEFSAII (Michael W. Deem and Ramdas Pophale) SiO2 
 PCOD9563834
Probable space group: P 4/M B M
;
_chemical_formula_sum "Si O2"
_cell_formula_units_Z 72
_cell_length_a 22.203084
_cell_length_b 22.203084
_cell_length_c 7.386433
_cell_angle_alpha 90.000000
_cell_angle_beta 90.000000
_cell_angle_gamma 90.000000
_cell_volume 3641.341131
_symmetry_space_group_name_H-M "P 4/M B M"
_symmetry_group_IT_number 127
_symmetry_cell_setting 'tetragonal'
loop_
_space_group_symop_operation_xyz
x,y,z
-y,x,z
-x,-y,z
y,-x,z
1/2+x,1/2-y,-z
1/2-x,1/2+y,-z
1/2+y,1/2+x,-z
1/2-y,1/2-x,-z
-x,-y,-z
y,-x,-z
x,y,-z
-y,x,-z
1/2-x,1/2+y,z
1/2+x,1/2-y,z
1/2-y,1/2-x,z
1/2+y,1/2+x,z
loop_
_atom_site_type_symbol
_atom_site_label
_atom_site_fract_x
_atom_site_fract_y
_atom_site_fract_z
Si Si1 0.656587 0.250515 0.217581
Si Si2 0.549830 0.049830 0.721720
Si Si3 0.376710 0.388855 0.706052
Si Si4 0.185889 0.468275 0.709165
Si Si5 0.510272 0.686219 0.276865
O O1 0.716874 0.216874 0.270743
O O2 0.651533 0.317124 0.292250
O O3 0.600076 0.210706 0.282079
O O4 0.652887 0.253130 0.000000
O O5 0.552059 0.052059 0.500000
O O6 0.532337 0.117781 0.783810
O O7 0.500000 0.000000 0.771627
O O8 0.395012 0.403016 0.500000
O O9 0.431409 0.350578 0.783899
O O10 0.351842 0.451683 0.783665
O O11 0.179844 0.486884 0.500000
O O12 0.243931 0.504923 0.783881
O O13 0.508727 0.688708 0.500000
#
# Coordination Sequence:
#
# PCOD9563834 Si02
#       5
#    16   8  16  16  16
#     4  10  19  30  46  68  91 116 155 201 238 273
#     4   9  16  26  45  73  99 125 157 191 231 280
#     4   9  17  30  47  68  94 122 155 191 235 285
#     4   9  16  29  49  70  94 123 155 191 234 280
#     4   8  15  27  45  69  93 119 153 193 231 276
#
# _framework density 19.772936000000001
#
# number of rings (size 3 to 8) (size 9 to 14) (size 15 to 20)
#    0.000    3.000    1.111    2.000    0.000    1.778 
#    0.000    7.778    0.000    5.333    0.000    6.222 
#    0.000    0.000    0.000    0.000    0.000    0.000 
#
# Total GULP energy -400995.341122 kJ/mol
# GULP energy per Si atom -5569.379738 kJ/mol
# Density = 1.972793 g / cm^3
# Si number density = 19.772936 Si / 1000 Ang^3
#
#
#
# Elastic Constant Matrix: (Units=GPa)
#
#
# Indices 1 2 3 4 5 6 
#
# 1 148.3906 110.1451 -1.9720 0.0000 0.0000 0.0000
# 2 110.1451 148.3906 -1.9720 0.0000 0.0000 0.0000
# 3 -1.9720 -1.9720 67.5519 0.0000 0.0000 0.0000
# 4 0.0000 0.0000 0.0000 674.2629 0.0000 0.0000
# 5 0.0000 0.0000 0.0000 0.0000 674.2629 0.0000
# 6 0.0000 0.0000 0.0000 0.0000 0.0000 29.1991
#
#
#
# Elastic Compliance Matrix: (Units=1/GPa)
#
#
# Indices 1 2 3 4 5 6 
#
# 1 0.015008 -0.011139 0.000113 0.000000 0.000000 0.000000
# 2 -0.011139 0.015008 0.000113 0.000000 0.000000 0.000000
# 3 0.000113 0.000113 0.014810 0.000000 0.000000 0.000000
# 4 0.000000 0.000000 0.000000 0.001483 0.000000 0.000000
# 5 0.000000 0.000000 0.000000 0.000000 0.001483 0.000000
# 6 0.000000 0.000000 0.000000 0.000000 0.000000 0.034248
#
#
# Mechanical properties :
#
#
# Convention : Reuss Voigt Hill
#
# Bulk Modulus (GPa) = 43.47599 64.08170 53.77884
# Shear Modulus (GPa) = 44.82984 292.75376 168.79180
#
# Velocity S-wave (km/s) = 4.76671 12.18110 9.24935
# Velocity P-wave (km/s) = 7.23400 15.17624 11.88800
#
# Compressibility (1/GPa) = 0.02300120
#
# Stress axis : x y z
#
# Youngs Moduli (GPa) = 66.62989 66.62989 67.52183
#
# Poissons Ratio (x) = 0.74216 -0.00763
# Poissons Ratio (y) = 0.74216 -0.00763
# Poissons Ratio (z) = -0.00753 -0.00753
#
# Static dielectric constant tensor:
#      x y z
#    x 1.679290 0.000000 0.000000 
#    y 0.000000 1.679290 0.000000 
#    z 0.000000 0.000000 1.760200 
# 
# From -- ./inp_files/1600.got.cif
#   From: 2010.05.17/outbox.cif.g08.bks.cpg/sg127_1_cif.got.tgz:1600.got - 2010.05.20 12:03:00.
