data_PCOD9563764
_publ_section_title
;
Structure prediction by ZEFSAII (Michael W. Deem and Ramdas Pophale) SiO2 
 PCOD9563764
Probable space group: P 4/M B M
;
_chemical_formula_sum "Si O2"
_cell_formula_units_Z 88
_cell_length_a 15.490435
_cell_length_b 15.490435
_cell_length_c 21.858419
_cell_angle_alpha 90.000000
_cell_angle_beta 90.000000
_cell_angle_gamma 90.000000
_cell_volume 5245.005815
_symmetry_space_group_name_H-M "P 4/M B M"
_symmetry_group_IT_number 127
_symmetry_cell_setting 'tetragonal'
loop_
_space_group_symop_operation_xyz
x,y,z
-y,x,z
-x,-y,z
y,-x,z
1/2+x,1/2-y,-z
1/2-x,1/2+y,-z
1/2+y,1/2+x,-z
1/2-y,1/2-x,-z
-x,-y,-z
y,-x,-z
x,y,-z
-y,x,-z
1/2-x,1/2+y,z
1/2+x,1/2-y,z
1/2-y,1/2-x,z
1/2+y,1/2+x,z
loop_
_atom_site_type_symbol
_atom_site_label
_atom_site_fract_x
_atom_site_fract_y
_atom_site_fract_z
Si Si1 0.093987 0.260257 0.819569
Si Si2 0.676777 0.675218 0.297174
Si Si3 0.538779 0.816110 0.273550
Si Si4 0.577751 0.217004 0.616034
Si Si5 0.996302 0.353812 0.500000
Si Si6 0.136497 0.951384 0.070902
O O1 0.168894 0.331107 0.827466
O O2 0.124318 0.194703 0.765715
O O3 0.074568 0.208862 0.880997
O O4 0.009436 0.304672 0.790632
O O5 0.752969 0.747032 0.300420
O O6 0.589247 0.728534 0.292205
O O7 0.693368 0.612735 0.355222
O O8 0.606902 0.893099 0.272351
O O9 0.467893 0.828453 0.326061
O O10 0.661777 0.161777 0.597900
O O11 0.513126 0.205490 0.559458
O O12 0.905424 0.405424 0.500000
O O13 0.069228 0.430773 0.500000
O O14 0.050381 0.893842 0.079924
O O15 0.163298 0.941760 0.000000
#
# Coordination Sequence:
#
# PCOD9563764 Si02
#       6
#    16  16  16  16   8  16
#     4  10  19  30  47  71  98 125 153 191 241 294
#     4   8  16  29  43  63  90 119 151 188 231 276
#     4  10  18  29  47  68  92 121 155 195 235 283
#     4   9  17  29  44  63  89 120 153 192 238 286
#     4   9  16  26  42  64  90 119 151 189 236 291
#     4   9  18  33  52  72  94 123 162 204 240 280
#
# _framework density 16.777864000000001
#
# number of rings (size 3 to 8) (size 9 to 14) (size 15 to 20)
#    0.000    2.818    0.000    3.818    0.000    2.545 
#    0.000    0.909    0.000    9.818    0.000    1.273 
#    0.000    5.818    0.000    0.000    0.000    0.000 
#
# Total GULP energy -489874.110583 kJ/mol
# GULP energy per Si atom -5566.751257 kJ/mol
# Density = 1.673968 g / cm^3
# Si number density = 16.777864 Si / 1000 Ang^3
#
#
#
# Elastic Constant Matrix: (Units=GPa)
#
#
# Indices 1 2 3 4 5 6 
#
# 1 45.2731 17.6507 37.2434 0.0000 0.0000 0.0000
# 2 17.6507 45.2730 37.2434 0.0000 0.0000 0.0000
# 3 37.2434 37.2434 114.9671 0.0000 0.0000 0.0000
# 4 0.0000 0.0000 0.0000 22.0470 0.0000 0.0000
# 5 0.0000 0.0000 0.0000 0.0000 22.0470 0.0000
# 6 0.0000 0.0000 0.0000 0.0000 0.0000 25.0812
#
#
#
# Elastic Compliance Matrix: (Units=1/GPa)
#
#
# Indices 1 2 3 4 5 6 
#
# 1 0.030990 -0.005213 -0.008350 0.000000 0.000000 0.000000
# 2 -0.005213 0.030990 -0.008350 0.000000 0.000000 0.000000
# 3 -0.008350 -0.008350 0.014108 0.000000 0.000000 0.000000
# 4 0.000000 0.000000 0.000000 0.045358 0.000000 0.000000
# 5 0.000000 0.000000 0.000000 0.000000 0.045358 0.000000
# 6 0.000000 0.000000 0.000000 0.000000 0.000000 0.039871
#
#
# Mechanical properties :
#
#
# Convention : Reuss Voigt Hill
#
# Bulk Modulus (GPa) = 30.99727 43.30979 37.15353
# Shear Modulus (GPa) = 19.13839 21.39341 20.26590
#
# Velocity S-wave (km/s) = 3.38108 3.57472 3.47925
# Velocity P-wave (km/s) = 5.81012 6.55041 6.19134
#
# Compressibility (1/GPa) = 0.03226091
#
# Stress axis : x y z
#
# Youngs Moduli (GPa) = 32.26857 32.26854 70.87976
#
# Poissons Ratio (x) = 0.16821 0.59188
# Poissons Ratio (y) = 0.16821 0.59188
# Poissons Ratio (z) = 0.26946 0.26946
#
# Static dielectric constant tensor:
#      x y z
#    x 1.587700 0.000000 0.000000 
#    y 0.000000 1.587700 0.000000 
#    z 0.000000 0.000000 1.560610 
# 
# From -- ./inp_files/5702.got.cif
#   From: 2010.05.17/outbox.cif.g08.bks.cpg/sg127_3_cif.got.tgz:5702.got - 2010.05.20 12:03:00.
