data_PCOD9563341
_publ_section_title
;
Structure prediction by ZEFSAII (Michael W. Deem and Ramdas Pophale) SiO2 
 PCOD9563341
Probable space group: P 4/N N C
;
_chemical_formula_sum "Si O2"
_cell_formula_units_Z 112
_cell_length_a 14.139769
_cell_length_b 14.139769
_cell_length_c 25.186976
_cell_angle_alpha 90.000000
_cell_angle_beta 90.000000
_cell_angle_gamma 90.000000
_cell_volume 5035.709370
_symmetry_space_group_name_H-M "P 4/N N C"
_symmetry_group_IT_number 126
_space_group.IT_coordinate_system_code '2'
_symmetry_cell_setting 'tetragonal'
loop_
_space_group_symop_operation_xyz
x,y,z
1/2-y,x,z
1/2-x,1/2-y,z
y,1/2-x,z
x,1/2-y,1/2-z
1/2-x,y,1/2-z
y,x,1/2-z
1/2-y,1/2-x,1/2-z
-x,-y,-z
1/2+y,-x,-z
1/2+x,1/2+y,-z
-y,1/2+x,-z
-x,1/2+y,1/2+z
1/2+x,-y,1/2+z
-y,-x,1/2+z
1/2+y,1/2+x,1/2+z
loop_
_atom_site_type_symbol
_atom_site_label
_atom_site_fract_x
_atom_site_fract_y
_atom_site_fract_z
Si Si1 0.065490 0.613226 0.803193
Si Si2 0.057589 0.413990 0.621542
Si Si3 0.813536 0.607238 0.022541
Si Si4 0.844644 0.207457 0.142513
Si Si5 0.477624 0.830399 0.208544
Si Si6 0.606760 0.001641 0.929370
Si Si7 0.871614 0.651156 0.845012
O O1 0.100089 0.542006 0.849369
O O2 0.110207 0.715530 0.816853
O O3 0.093173 0.568076 0.747847
O O4 0.952741 0.614339 0.807235
O O5 0.086413 0.327328 0.584861
O O6 0.128685 0.444348 0.668722
O O7 0.046224 0.503681 0.581358
O O8 0.870548 0.704248 0.010918
O O9 0.855045 0.521718 0.987521
O O10 0.750000 0.250000 0.116600
O O11 0.807516 0.114195 0.173038
O O12 0.927708 0.176354 0.102551
O O13 0.509448 0.750000 0.250000
O O14 0.604105 0.898620 0.900852
O O15 0.876097 0.763213 0.838533
#
# Coordination Sequence:
#
# PCOD9563341 Si02
#       7
#    16  16  16  16  16  16  16
#     4  11  22  39  64  99 135 183 230 287 344 411
#     4  10  25  42  66  99 134 172 228 290 346 406
#     4  11  25  44  72  98 128 176 229 286 353 427
#     4  11  22  39  66  99 138 181 236 284 341 418
#     4  11  23  41  68  96 132 187 232 281 345 417
#     4  10  21  41  67 101 136 177 225 284 353 417
#     4  10  19  35  62  96 140 183 226 282 340 411
#
# _framework density 22.241156
#
# number of rings (size 3 to 8) (size 9 to 14) (size 15 to 20)
#    0.000    1.429    2.857    2.143    4.000    1.143 
#    2.571    0.000    0.000    0.000    0.000    0.000 
#    0.000    0.000    0.000    0.000    0.000    0.000 
#
# Total GULP energy -625575.131003 kJ/mol
# GULP energy per Si atom -5585.492241 kJ/mol
# Density = 2.219053 g / cm^3
# Si number density = 22.241156 Si / 1000 Ang^3
#
#
#
# Elastic Constant Matrix: (Units=GPa)
#
#
# Indices 1 2 3 4 5 6 
#
# 1 78.7876 16.4829 29.6339 0.0000 0.0000 0.0000
# 2 16.4829 78.7876 29.6339 0.0000 0.0000 0.0000
# 3 29.6339 29.6339 79.4723 0.0000 0.0000 0.0000
# 4 0.0000 0.0000 0.0000 28.6455 0.0000 0.0000
# 5 0.0000 0.0000 0.0000 0.0000 28.6455 0.0000
# 6 0.0000 0.0000 0.0000 0.0000 0.0000 17.4618
#
#
#
# Elastic Compliance Matrix: (Units=1/GPa)
#
#
# Indices 1 2 3 4 5 6 
#
# 1 0.014858 -0.001192 -0.005096 0.000000 0.000000 0.000000
# 2 -0.001192 0.014858 -0.005096 0.000000 0.000000 0.000000
# 3 -0.005096 -0.005096 0.016383 0.000000 0.000000 0.000000
# 4 0.000000 0.000000 0.000000 0.034910 0.000000 0.000000
# 5 0.000000 0.000000 0.000000 0.000000 0.034910 0.000000
# 6 0.000000 0.000000 0.000000 0.000000 0.000000 0.057268
#
#
# Mechanical properties :
#
#
# Convention : Reuss Voigt Hill
#
# Bulk Modulus (GPa) = 42.85858 43.17210 43.01534
# Shear Modulus (GPa) = 24.54199 25.70368 25.12284
#
# Velocity S-wave (km/s) = 3.32542 3.40322 3.36455
# Velocity P-wave (km/s) = 5.83578 5.90725 5.87162
#
# Compressibility (1/GPa) = 0.02333255
#
# Stress axis : x y z
#
# Youngs Moduli (GPa) = 67.30192 67.30192 61.03708
#
# Poissons Ratio (x) = 0.08021 0.31105
# Poissons Ratio (y) = 0.08021 0.31105
# Poissons Ratio (z) = 0.34298 0.34298
#
# Static dielectric constant tensor:
#      x y z
#    x 1.873350 0.000000 0.000000 
#    y 0.000000 1.873350 0.000000 
#    z 0.000000 0.000000 1.815940 
# 
# From -- ./inp_files/5821.got.cif
#   From: 2010.05.17/outbox.cif.g08.bks.cpg/sg126_3_cif.got.tgz:5821.got - 2010.05.20 11:58:20.
