data_PCOD9563455
_publ_section_title
;
Structure prediction by ZEFSAII (Michael W. Deem and Ramdas Pophale) SiO2 
 PCOD9563455
Probable space group: P 4/N N C
;
_chemical_formula_sum "Si O2"
_cell_formula_units_Z 112
_cell_length_a 14.961014
_cell_length_b 14.961014
_cell_length_c 25.421785
_cell_angle_alpha 90.000000
_cell_angle_beta 90.000000
_cell_angle_gamma 90.000000
_cell_volume 5690.207452
_symmetry_space_group_name_H-M "P 4/N N C"
_symmetry_group_IT_number 126
_space_group.IT_coordinate_system_code '2'
_symmetry_cell_setting 'tetragonal'
loop_
_space_group_symop_operation_xyz
x,y,z
1/2-y,x,z
1/2-x,1/2-y,z
y,1/2-x,z
x,1/2-y,1/2-z
1/2-x,y,1/2-z
y,x,1/2-z
1/2-y,1/2-x,1/2-z
-x,-y,-z
1/2+y,-x,-z
1/2+x,1/2+y,-z
-y,1/2+x,-z
-x,1/2+y,1/2+z
1/2+x,-y,1/2+z
-y,-x,1/2+z
1/2+y,1/2+x,1/2+z
loop_
_atom_site_type_symbol
_atom_site_label
_atom_site_fract_x
_atom_site_fract_y
_atom_site_fract_z
Si Si1 0.946083 0.080242 0.137008
Si Si2 0.412009 0.944163 0.516143
Si Si3 0.018358 0.280576 0.507926
Si Si4 0.884588 0.811633 0.900870
Si Si5 0.401066 0.018790 0.798852
Si Si6 0.348830 0.854570 0.236399
Si Si7 0.604337 0.782987 0.377232
O O1 0.907545 0.062242 0.079230
O O2 0.876849 0.126976 0.176365
O O3 0.033121 0.143016 0.129494
O O4 0.971439 0.985419 0.162661
O O5 0.432596 0.845353 0.494725
O O6 0.500000 0.000000 0.500000
O O7 0.320916 0.988788 0.496991
O O8 0.086394 0.312820 0.462473
O O9 0.062986 0.289348 0.564854
O O10 0.792710 0.864406 0.890054
O O11 0.412834 0.087166 0.750000
O O12 0.311451 0.035942 0.831926
O O13 0.402061 0.922327 0.772347
O O14 0.353749 0.750000 0.250000
O O15 0.250000 0.886613 0.250000
O O16 0.646605 0.685443 0.371465
#
# Coordination Sequence:
#
# PCOD9563455 Si02
#       7
#    16  16  16  16  16  16  16
#     4  10  22  41  64  93 123 169 213 262 331 382
#     4  11  23  41  63  95 134 175 217 268 326 390
#     4  11  22  39  62  90 135 172 217 257 314 392
#     4  10  21  37  63  95 128 165 210 263 318 385
#     4  10  23  39  64  87 122 162 202 264 325 377
#     4  10  24  44  64  90 120 164 220 270 319 385
#     4  11  23  37  61  94 125 165 210 256 319 386
#
# _framework density 19.682938
#
# number of rings (size 3 to 8) (size 9 to 14) (size 15 to 20)
#    0.000    1.571    0.000    5.143    8.000    1.429 
#    2.571    0.714    0.000    0.000    0.000    0.000 
#    0.000    0.000    0.000    0.000    0.000    0.000 
#
# Total GULP energy -625993.552645 kJ/mol
# GULP energy per Si atom -5589.228149 kJ/mol
# Density = 1.963814 g / cm^3
# Si number density = 19.682938 Si / 1000 Ang^3
#
#
#
# Elastic Constant Matrix: (Units=GPa)
#
#
# Indices 1 2 3 4 5 6 
#
# 1 84.7992 31.2326 23.8586 0.0000 0.0000 0.0000
# 2 31.2326 84.7988 23.8589 0.0000 0.0000 0.0000
# 3 23.8586 23.8589 76.8594 0.0000 0.0000 0.0000
# 4 0.0000 0.0000 0.0000 22.0473 0.0000 0.0000
# 5 0.0000 0.0000 0.0000 0.0000 22.0468 0.0000
# 6 0.0000 0.0000 0.0000 0.0000 0.0000 31.7704
#
#
#
# Elastic Compliance Matrix: (Units=1/GPa)
#
#
# Indices 1 2 3 4 5 6 
#
# 1 0.014274 -0.004394 -0.003067 0.000000 0.000000 0.000000
# 2 -0.004394 0.014274 -0.003067 0.000000 0.000000 0.000000
# 3 -0.003067 -0.003067 0.014915 0.000000 0.000000 0.000000
# 4 0.000000 0.000000 0.000000 0.045357 0.000000 0.000000
# 5 0.000000 0.000000 0.000000 0.000000 0.045358 0.000000
# 6 0.000000 0.000000 0.000000 0.000000 0.000000 0.031476
#
#
# Mechanical properties :
#
#
# Convention : Reuss Voigt Hill
#
# Bulk Modulus (GPa) = 44.62966 44.92861 44.77914
# Shear Modulus (GPa) = 25.74947 26.34005 26.04476
#
# Velocity S-wave (km/s) = 3.62085 3.66213 3.64155
# Velocity P-wave (km/s) = 6.34068 6.38415 6.36245
#
# Compressibility (1/GPa) = 0.02240662
#
# Stress axis : x y z
#
# Youngs Moduli (GPa) = 70.05771 70.05726 67.04755
#
# Poissons Ratio (x) = 0.30786 0.20562
# Poissons Ratio (y) = 0.30786 0.20563
# Poissons Ratio (z) = 0.21485 0.21486
#
# Static dielectric constant tensor:
#      x y z
#    x 1.703100 0.000000 0.000000 
#    y 0.000000 1.703100 0.000000 
#    z 0.000000 0.000000 1.677120 
# 
# From -- ./inp_files/5809.got.cif
#   From: 2010.05.17/outbox.cif.g08.bks.cpg/sg126_3_cif.got.tgz:5809.got - 2010.05.20 11:58:20.
