data_PCOD9563738
_publ_section_title
;
Structure prediction by ZEFSAII (Michael W. Deem and Ramdas Pophale) SiO2 
 PCOD9563738
Probable space group: P 4/M B M
;
_chemical_formula_sum "Si O2"
_cell_formula_units_Z 72
_cell_length_a 24.064415
_cell_length_b 24.064415
_cell_length_c 7.400627
_cell_angle_alpha 90.000000
_cell_angle_beta 90.000000
_cell_angle_gamma 90.000000
_cell_volume 4285.674006
_symmetry_space_group_name_H-M "P 4/M B M"
_symmetry_group_IT_number 127
_symmetry_cell_setting 'tetragonal'
loop_
_space_group_symop_operation_xyz
x,y,z
-y,x,z
-x,-y,z
y,-x,z
1/2+x,1/2-y,-z
1/2-x,1/2+y,-z
1/2+y,1/2+x,-z
1/2-y,1/2-x,-z
-x,-y,-z
y,-x,-z
x,y,-z
-y,x,-z
1/2-x,1/2+y,z
1/2+x,1/2-y,z
1/2-y,1/2-x,z
1/2+y,1/2+x,z
loop_
_atom_site_type_symbol
_atom_site_label
_atom_site_fract_x
_atom_site_fract_y
_atom_site_fract_z
Si Si1 0.327013 0.983289 0.712815
Si Si2 0.197608 0.606455 0.721626
Si Si3 0.309628 0.285661 0.287877
Si Si4 0.722304 0.130631 0.721389
Si Si5 0.455087 0.955087 0.215799
O O1 0.314649 0.985570 0.500000
O O2 0.292506 0.930873 0.785141
O O3 0.392516 0.970576 0.729749
O O4 0.312110 0.043974 0.785394
O O5 0.198164 0.606853 0.500000
O O6 0.146383 0.646383 0.774153
O O7 0.254788 0.635787 0.783757
O O8 0.320001 0.295923 0.500000
O O9 0.261677 0.238324 0.276704
O O10 0.279649 0.340807 0.215762
O O11 0.723305 0.130563 0.500000
O O12 0.671738 0.171738 0.771966
O O13 0.500000 0.000000 0.284416
O O14 0.456671 0.956671 0.000000
#
# Coordination Sequence:
#
# PCOD9563738 Si02
#       5
#    16  16  16  16   8
#     4  10  17  26  41  58  73  91 126 165 190 209
#     4   8  13  20  31  50  73  94 115 147 187 218
#     4   7  10  17  29  46  71  94 109 134 185 234
#     4   8  12  19  32  51  72  91 111 144 189 224
#     4  11  23  33  37  47  73 109 137 153 181 222
#
# _framework density 16.800159000000001
#
# number of rings (size 3 to 8) (size 9 to 14) (size 15 to 20)
#    0.000    3.444    1.111    3.667    0.000    1.778 
#    0.000    0.000    0.000    0.000    0.000    1.556 
#    0.000    0.889    0.000   12.444    0.000    0.000 
#
# Total GULP energy -400943.649290 kJ/mol
# GULP energy per Si atom -5568.661796 kJ/mol
# Density = 1.676192 g / cm^3
# Si number density = 16.800159 Si / 1000 Ang^3
#
#
#
# Elastic Constant Matrix: (Units=GPa)
#
#
# Indices 1 2 3 4 5 6 
#
# 1 124.8464 108.2079 3.2902 0.0000 0.0000 0.0000
# 2 108.2079 124.8464 3.2902 0.0000 0.0000 0.0000
# 3 3.2902 3.2902 53.4834 0.0000 0.0000 0.0000
# 4 0.0000 0.0000 0.0000 -24.5992 0.0000 0.0000
# 5 0.0000 0.0000 0.0000 0.0000 -24.5992 0.0000
# 6 0.0000 0.0000 0.0000 0.0000 0.0000 31.7140
#
#
#
# Elastic Compliance Matrix: (Units=1/GPa)
#
#
# Indices 1 2 3 4 5 6 
#
# 1 0.032200 -0.027902 -0.000264 0.000000 0.000000 0.000000
# 2 -0.027902 0.032200 -0.000264 0.000000 0.000000 0.000000
# 3 -0.000264 -0.000264 0.018730 0.000000 0.000000 0.000000
# 4 0.000000 0.000000 0.000000 -0.040652 0.000000 0.000000
# 5 0.000000 0.000000 0.000000 0.000000 -0.040652 0.000000
# 6 0.000000 0.000000 0.000000 0.000000 0.000000 0.031532
#
#
# Mechanical properties :
#
#
# Convention : Reuss Voigt Hill
#
# Bulk Modulus (GPa) = 38.06791 59.19477 48.63134
# Shear Modulus (GPa) = 50.51756 9.06232 29.78994
#
# Velocity S-wave (km/s) = 5.48953 2.32506 4.21550
# Velocity P-wave (km/s) = 7.93022 6.52066 7.25973
#
# Compressibility (1/GPa) = 0.02626884
#
# Stress axis : x y z
#
# Youngs Moduli (GPa) = 31.05591 31.05591 53.39049
#
# Poissons Ratio (x) = 0.86651 0.01412
# Poissons Ratio (y) = 0.86651 0.01412
# Poissons Ratio (z) = 0.00821 0.00821
#
# Static dielectric constant tensor:
#      x y z
#    x 1.582390 0.000000 0.000000 
#    y 0.000000 1.582390 0.000000 
#    z 0.000000 0.000000 1.617840 
# 
# From -- ./inp_files/1736.got.cif
#   From: 2010.05.17/outbox.cif.g08.bks.cpg/sg127_1_cif.got.tgz:1736.got - 2010.05.20 12:03:00.
