data_PCOD9563086
_publ_section_title
;
Structure prediction by ZEFSAII (Michael W. Deem and Ramdas Pophale) SiO2 
 PCOD9563086
Probable space group: P 4/N B M
;
_chemical_formula_sum "Si O2"
_cell_formula_units_Z 64
_cell_length_a 12.036816
_cell_length_b 12.036816
_cell_length_c 18.573309
_cell_angle_alpha 90.000000
_cell_angle_beta 90.000000
_cell_angle_gamma 90.000000
_cell_volume 2690.992749
_symmetry_space_group_name_H-M "P 4/N B M"
_symmetry_group_IT_number 125
_space_group.IT_coordinate_system_code '2'
_symmetry_cell_setting 'tetragonal'
loop_
_space_group_symop_operation_xyz
x,y,z
1/2-y,x,z
1/2-x,1/2-y,z
y,1/2-x,z
x,1/2-y,-z
1/2-x,y,-z
y,x,-z
1/2-y,1/2-x,-z
-x,-y,-z
1/2+y,-x,-z
1/2+x,1/2+y,-z
-y,1/2+x,-z
-x,1/2+y,z
1/2+x,-y,z
-y,-x,z
1/2+y,1/2+x,z
loop_
_atom_site_type_symbol
_atom_site_label
_atom_site_fract_x
_atom_site_fract_y
_atom_site_fract_z
Si Si1 0.984928 0.665318 0.447910
Si Si2 0.976222 0.838458 0.949308
Si Si3 0.466988 0.147655 0.788685
Si Si4 0.320629 0.493608 0.312276
O O1 0.048774 0.750000 0.500000
O O2 0.888800 0.611200 0.500000
O O3 0.063784 0.563784 0.424763
O O4 0.957831 0.745196 0.380471
O O5 0.941806 0.806662 0.868282
O O6 0.036749 0.750000 0.000000
O O7 0.875312 0.875312 0.000000
O O8 0.057609 0.942392 0.941752
O O9 0.542382 0.235093 0.745779
O O10 0.534452 0.034452 0.797558
O O11 0.370060 0.109357 0.734037
O O12 0.417615 0.582386 0.331428
#
# Coordination Sequence:
#
# PCOD9563086 Si02
#       4
#    16  16  16  16
#     4  11  24  42  65  94 128 165 208 258 313 379
#     4  10  21  38  60  88 125 169 216 268 326 383
#     4  10  22  39  61  92 128 166 215 273 323 378
#     4  11  23  41  65  93 129 171 213 261 322 385
#
# _framework density 23.783042999999999
#
# number of rings (size 3 to 8) (size 9 to 14) (size 15 to 20)
#    0.000    1.500    0.000    4.500    0.000   11.500 
#    0.000    7.500    0.000    0.000    0.000    0.000 
#    0.000    0.000    0.000    0.000    0.000    0.000 
#
# Total GULP energy -356429.242845 kJ/mol
# GULP energy per Si atom -5569.206919 kJ/mol
# Density = 2.372891 g / cm^3
# Si number density = 23.783043 Si / 1000 Ang^3
#
#
#
# Elastic Constant Matrix: (Units=GPa)
#
#
# Indices 1 2 3 4 5 6 
#
# 1 86.3159 29.9499 70.8206 0.0000 0.0000 0.0000
# 2 29.9499 86.3156 70.8208 0.0000 0.0000 0.0000
# 3 70.8206 70.8208 239.1503 0.0000 0.0000 0.0000
# 4 0.0000 0.0000 0.0000 24.1303 0.0000 0.0000
# 5 0.0000 0.0000 0.0000 0.0000 24.1303 0.0000
# 6 0.0000 0.0000 0.0000 0.0000 0.0000 10.5212
#
#
#
# Elastic Compliance Matrix: (Units=1/GPa)
#
#
# Indices 1 2 3 4 5 6 
#
# 1 0.015598 -0.002143 -0.003985 0.000000 0.000000 0.000000
# 2 -0.002143 0.015598 -0.003985 0.000000 0.000000 0.000000
# 3 -0.003985 -0.003985 0.006541 0.000000 0.000000 0.000000
# 4 0.000000 0.000000 0.000000 0.041442 0.000000 0.000000
# 5 0.000000 0.000000 0.000000 0.000000 0.041442 0.000000
# 6 0.000000 0.000000 0.000000 0.000000 0.000000 0.095046
#
#
# Mechanical properties :
#
#
# Convention : Reuss Voigt Hill
#
# Bulk Modulus (GPa) = 57.09855 83.88495 70.49175
# Shear Modulus (GPa) = 20.68429 27.76907 24.22668
#
# Velocity S-wave (km/s) = 2.95228 3.42072 3.19510
# Velocity P-wave (km/s) = 5.97340 7.13788 6.58144
#
# Compressibility (1/GPa) = 0.01751358
#
# Stress axis : x y z
#
# Youngs Moduli (GPa) = 64.11010 64.10971 152.87252
#
# Poissons Ratio (x) = 0.13739 0.60912
# Poissons Ratio (y) = 0.13739 0.60913
# Poissons Ratio (z) = 0.25545 0.25545
#
# Static dielectric constant tensor:
#      x y z
#    x 2.032020 0.000000 0.000000 
#    y 0.000000 2.032020 0.000000 
#    z 0.000000 0.000000 1.956130 
# 
# From -- ./inp_files/5739.got.cif
#   From: 2010.05.17/outbox.cif.g08.bks.cpg/sg125_3_cif.got.tgz:5739.got - 2010.05.20 11:54:10.
