data_PCOD9563200
_publ_section_title
;
Structure prediction by ZEFSAII (Michael W. Deem and Ramdas Pophale) SiO2 
 PCOD9563200
Probable space group: P 4/N B M
;
_chemical_formula_sum "Si O2"
_cell_formula_units_Z 80
_cell_length_a 13.872461
_cell_length_b 13.872461
_cell_length_c 23.968680
_cell_angle_alpha 90.000000
_cell_angle_beta 90.000000
_cell_angle_gamma 90.000000
_cell_volume 4612.656798
_symmetry_space_group_name_H-M "P 4/N B M"
_symmetry_group_IT_number 125
_space_group.IT_coordinate_system_code '2'
_symmetry_cell_setting 'tetragonal'
loop_
_space_group_symop_operation_xyz
x,y,z
1/2-y,x,z
1/2-x,1/2-y,z
y,1/2-x,z
x,1/2-y,-z
1/2-x,y,-z
y,x,-z
1/2-y,1/2-x,-z
-x,-y,-z
1/2+y,-x,-z
1/2+x,1/2+y,-z
-y,1/2+x,-z
-x,1/2+y,z
1/2+x,-y,z
-y,-x,z
1/2+y,1/2+x,z
loop_
_atom_site_type_symbol
_atom_site_label
_atom_site_fract_x
_atom_site_fract_y
_atom_site_fract_z
Si Si1 0.125497 0.144151 0.061008
Si Si2 0.906615 0.705669 0.653058
Si Si3 0.010504 0.152429 0.532607
Si Si4 0.658178 0.999700 0.232107
Si Si5 0.360313 0.486334 0.826822
O O1 0.239200 0.120733 0.064396
O O2 0.060390 0.115424 0.112978
O O3 0.101357 0.101357 0.000000
O O4 0.864608 0.813770 0.656460
O O5 0.956228 0.682392 0.594346
O O6 0.978204 0.689971 0.704789
O O7 0.986020 0.250000 0.500000
O O8 0.097065 0.097065 0.500000
O O9 0.921751 0.078250 0.534689
O O10 0.598691 0.098691 0.226803
O O11 0.749238 0.992973 0.190689
O O12 0.584839 0.914284 0.215740
O O13 0.410114 0.589887 0.823535
#
# Coordination Sequence:
#
# PCOD9563200 Si02
#       5
#    16  16  16  16  16
#     4   9  17  31  55  85 115 147 190 243 296 338
#     4  11  21  36  63  91 116 151 196 250 302 346
#     4  11  23  40  62  87 120 157 195 243 298 359
#     4  11  23  39  58  85 121 154 195 245 292 352
#     4  11  22  36  59  85 113 157 199 237 293 352
#
# _framework density 17.343585000000001
#
# number of rings (size 3 to 8) (size 9 to 14) (size 15 to 20)
#    0.000    1.400    6.000    1.200    0.000    1.600 
#    0.000    1.000    0.000    2.400    0.000    0.000 
#    0.000    0.000    0.000    0.000    0.000    0.000 
#
# Total GULP energy -446068.403595 kJ/mol
# GULP energy per Si atom -5575.855045 kJ/mol
# Density = 1.730411 g / cm^3
# Si number density = 17.343585 Si / 1000 Ang^3
#
#
#
# Elastic Constant Matrix: (Units=GPa)
#
#
# Indices 1 2 3 4 5 6 
#
# 1 69.3122 34.5768 30.2409 0.0000 0.0000 0.0000
# 2 34.5768 69.3122 30.2409 0.0000 0.0000 0.0000
# 3 30.2409 30.2409 128.9325 0.0000 0.0000 0.0000
# 4 0.0000 0.0000 0.0000 14.6782 0.0000 0.0000
# 5 0.0000 0.0000 0.0000 0.0000 14.6782 0.0000
# 6 0.0000 0.0000 0.0000 0.0000 0.0000 7.9163
#
#
#
# Elastic Compliance Matrix: (Units=1/GPa)
#
#
# Indices 1 2 3 4 5 6 
#
# 1 0.019968 -0.008821 -0.002615 0.000000 0.000000 0.000000
# 2 -0.008821 0.019968 -0.002615 0.000000 0.000000 0.000000
# 3 -0.002615 -0.002615 0.008983 0.000000 0.000000 0.000000
# 4 0.000000 0.000000 0.000000 0.068128 0.000000 0.000000
# 5 0.000000 0.000000 0.000000 0.000000 0.068128 0.000000
# 6 0.000000 0.000000 0.000000 0.000000 0.000000 0.126322
#
#
# Mechanical properties :
#
#
# Convention : Reuss Voigt Hill
#
# Bulk Modulus (GPa) = 48.03197 50.85264 49.44231
# Shear Modulus (GPa) = 14.42845 18.95444 16.69144
#
# Velocity S-wave (km/s) = 2.88743 3.30946 3.10562
# Velocity P-wave (km/s) = 6.23465 6.63232 6.43656
#
# Compressibility (1/GPa) = 0.02081947
#
# Stress axis : x y z
#
# Youngs Moduli (GPa) = 50.07894 50.07894 111.32695
#
# Poissons Ratio (x) = 0.44173 0.29109
# Poissons Ratio (y) = 0.44173 0.29109
# Poissons Ratio (z) = 0.13094 0.13094
#
# Static dielectric constant tensor:
#      x y z
#    x 1.567690 0.000000 0.000000 
#    y 0.000000 1.567690 0.000000 
#    z 0.000000 0.000000 1.615770 
# 
# From -- ./inp_files/5796.got.cif
#   From: 2010.05.17/outbox.cif.g08.bks.cpg/sg125_3_cif.got.tgz:5796.got - 2010.05.20 11:54:10.
