data_PCOD9563807
_publ_section_title
;
Structure prediction by ZEFSAII (Michael W. Deem and Ramdas Pophale) SiO2 
 PCOD9563807
Probable space group: P 4/M B M
;
_chemical_formula_sum "Si O2"
_cell_formula_units_Z 96
_cell_length_a 25.205376
_cell_length_b 25.205376
_cell_length_c 7.771150
_cell_angle_alpha 90.000000
_cell_angle_beta 90.000000
_cell_angle_gamma 90.000000
_cell_volume 4937.096917
_symmetry_space_group_name_H-M "P 4/M B M"
_symmetry_group_IT_number 127
_symmetry_cell_setting 'tetragonal'
loop_
_space_group_symop_operation_xyz
x,y,z
-y,x,z
-x,-y,z
y,-x,z
1/2+x,1/2-y,-z
1/2-x,1/2+y,-z
1/2+y,1/2+x,-z
1/2-y,1/2-x,-z
-x,-y,-z
y,-x,-z
x,y,-z
-y,x,-z
1/2-x,1/2+y,z
1/2+x,1/2-y,z
1/2-y,1/2-x,z
1/2+y,1/2+x,z
loop_
_atom_site_type_symbol
_atom_site_label
_atom_site_fract_x
_atom_site_fract_y
_atom_site_fract_z
Si Si1 0.385315 0.885315 0.799663
Si Si2 0.353114 0.577188 0.294877
Si Si3 0.226165 0.980845 0.710314
Si Si4 0.053971 0.931320 0.000000
Si Si5 0.200738 0.299263 0.290017
Si Si6 0.456837 0.043164 0.201428
Si Si7 0.155521 0.497975 0.695678
Si Si8 0.303715 0.360612 0.292270
O O1 0.341043 0.841043 0.782369
O O2 0.437621 0.864100 0.709446
O O3 0.397205 0.897205 0.000000
O O4 0.363745 0.573186 0.500000
O O5 0.313226 0.529420 0.247791
O O6 0.404017 0.571892 0.175240
O O7 0.337166 0.638038 0.256727
O O8 0.228148 0.978061 0.500000
O O9 0.285343 0.995942 0.775070
O O10 0.207320 0.921708 0.768497
O O11 0.991072 0.928183 0.000000
O O12 0.198954 0.301047 0.500000
O O13 0.257992 0.320474 0.234054
O O14 0.469889 0.104367 0.240929
O O15 0.500000 0.000000 0.278575
O O16 0.462442 0.037559 0.000000
O O17 0.163360 0.514980 0.500000
O O18 0.300067 0.364002 0.500000
#
# Coordination Sequence:
#
# PCOD9563807 Si02
#       8
#     8  16  16   8   8   8  16  16
#     4  12  22  33  49  85 121 148 187 243 308 356
#     4  10  21  40  61  87 123 159 196 246 305 365
#     4   9  18  34  58  86 112 146 195 242 290 358
#     4  11  24  40  60  91 120 152 201 243 290 362
#     4  10  18  34  56  82 111 148 197 249 299 355
#     4  11  23  37  52  79 118 148 185 243 298 354
#     4  11  21  36  58  81 110 153 198 239 290 357
#     4   9  17  32  58  86 113 149 193 243 301 353
#
# _framework density 19.444624999999998
#
# number of rings (size 3 to 8) (size 9 to 14) (size 15 to 20)
#    0.000    1.833    2.500    2.500    0.000    2.333 
#    4.500    1.667    0.000    4.000    0.000    0.000 
#    0.000    0.000    0.000    0.000    0.000    0.000 
#
# Total GULP energy -535063.078523 kJ/mol
# GULP energy per Si atom -5573.573735 kJ/mol
# Density = 1.940037 g / cm^3
# Si number density = 19.444625 Si / 1000 Ang^3
#
#
#
# Elastic Constant Matrix: (Units=GPa)
#
#
# Indices 1 2 3 4 5 6 
#
# 1 112.3102 28.3591 5.9726 0.0000 0.0000 0.0000
# 2 28.3591 112.3088 5.9717 0.0000 0.0000 0.0000
# 3 5.9726 5.9717 32.5221 0.0000 0.0000 0.0000
# 4 0.0000 0.0000 0.0000 12.1675 0.0000 0.0000
# 5 0.0000 0.0000 0.0000 0.0000 12.1690 0.0000
# 6 0.0000 0.0000 0.0000 0.0000 0.0000 37.7605
#
#
#
# Elastic Compliance Matrix: (Units=1/GPa)
#
#
# Indices 1 2 3 4 5 6 
#
# 1 0.009567 -0.002345 -0.001326 0.000000 0.000000 0.000000
# 2 -0.002345 0.009567 -0.001326 0.000000 0.000000 0.000000
# 3 -0.001326 -0.001326 0.031235 0.000000 0.000000 0.000000
# 4 0.000000 0.000000 0.000000 0.082186 0.000000 0.000000
# 5 0.000000 0.000000 0.000000 0.000000 0.082176 0.000000
# 6 0.000000 0.000000 0.000000 0.000000 0.000000 0.026483
#
#
# Mechanical properties :
#
#
# Convention : Reuss Voigt Hill
#
# Bulk Modulus (GPa) = 24.76844 37.52753 31.14798
# Shear Modulus (GPa) = 18.89172 26.87525 22.88349
#
# Velocity S-wave (km/s) = 3.12038 3.72175 3.43425
# Velocity P-wave (km/s) = 5.07424 6.14900 5.63729
#
# Compressibility (1/GPa) = 0.04037396
#
# Stress axis : x y z
#
# Youngs Moduli (GPa) = 104.53029 104.52928 32.01498
#
# Poissons Ratio (x) = 0.24514 0.04246
# Poissons Ratio (y) = 0.24514 0.04245
# Poissons Ratio (z) = 0.13863 0.13860
#
# Static dielectric constant tensor:
#      x y z
#    x 1.690810 0.000000 0.000000 
#    y 0.000000 1.690810 0.000000 
#    z 0.000000 0.000000 1.707540 
# 
# From -- ./inp_files/2159.got.cif
#   From: 2010.05.17/outbox.cif.g08.bks.cpg/sg127_2_cif.got.tgz:2159.got - 2010.05.20 12:03:00.
