data_PCOD9563614
_publ_section_title
;
Structure prediction by ZEFSAII (Michael W. Deem and Ramdas Pophale) SiO2 
 PCOD9563614
Probable space group: P 4/N N C
;
_chemical_formula_sum "Si O2"
_cell_formula_units_Z 96
_cell_length_a 14.067211
_cell_length_b 14.067211
_cell_length_c 23.664637
_cell_angle_alpha 90.000000
_cell_angle_beta 90.000000
_cell_angle_gamma 90.000000
_cell_volume 4682.910422
_symmetry_space_group_name_H-M "P 4/N N C"
_symmetry_group_IT_number 126
_space_group.IT_coordinate_system_code '2'
_symmetry_cell_setting 'tetragonal'
loop_
_space_group_symop_operation_xyz
x,y,z
1/2-y,x,z
1/2-x,1/2-y,z
y,1/2-x,z
x,1/2-y,1/2-z
1/2-x,y,1/2-z
y,x,1/2-z
1/2-y,1/2-x,1/2-z
-x,-y,-z
1/2+y,-x,-z
1/2+x,1/2+y,-z
-y,1/2+x,-z
-x,1/2+y,1/2+z
1/2+x,-y,1/2+z
-y,-x,1/2+z
1/2+y,1/2+x,1/2+z
loop_
_atom_site_type_symbol
_atom_site_label
_atom_site_fract_x
_atom_site_fract_y
_atom_site_fract_z
Si Si1 0.574633 0.432706 0.100551
Si Si2 0.173015 0.888415 0.008294
Si Si3 0.305027 0.073354 0.295517
Si Si4 0.297939 0.393103 0.410414
Si Si5 0.262759 0.637410 0.817032
Si Si6 0.429063 0.919368 0.872952
O O1 0.490874 0.355770 0.085887
O O2 0.640442 0.394985 0.151683
O O3 0.522750 0.530413 0.114925
O O4 0.635322 0.447982 0.044202
O O5 0.141702 0.925289 0.069309
O O6 0.284514 0.872948 0.000862
O O7 0.250000 0.007338 0.250000
O O8 0.354749 0.145252 0.250000
O O9 0.230747 0.110234 0.343323
O O10 0.375491 0.006866 0.330198
O O11 0.192576 0.365423 0.432438
O O12 0.250000 0.750000 0.828101
O O13 0.250000 0.621871 0.750000
O O14 0.174849 0.585309 0.846998
#
# Coordination Sequence:
#
# PCOD9563614 Si02
#       6
#    16  16  16  16  16  16
#     4  12  25  45  70 102 137 182 234 289 344 414
#     4  11  23  44  74 100 134 181 232 290 354 414
#     4  12  23  35  59  92 140 186 219 264 337 428
#     4  11  22  37  57  95 142 182 217 264 337 423
#     4  11  26  43  69 100 144 185 230 282 344 408
#     4  12  26  44  66 102 135 176 235 290 343 409
#
# _framework density 20.500073
#
# number of rings (size 3 to 8) (size 9 to 14) (size 15 to 20)
#    0.000    0.500    5.000    3.500    7.000    0.167 
#    0.000    0.000    0.000    0.500    0.000    1.167 
#    0.000    0.000    0.000    0.000    0.000    0.000 
#
# Total GULP energy -535533.722990 kJ/mol
# GULP energy per Si atom -5578.476281 kJ/mol
# Density = 2.045341 g / cm^3
# Si number density = 20.500073 Si / 1000 Ang^3
#
#
#
# Elastic Constant Matrix: (Units=GPa)
#
#
# Indices 1 2 3 4 5 6 
#
# 1 91.6854 38.0883 24.2501 0.0000 0.0000 0.0000
# 2 38.0883 91.6848 24.2498 0.0000 0.0000 0.0000
# 3 24.2501 24.2498 85.5565 0.0000 0.0000 0.0000
# 4 0.0000 0.0000 0.0000 5.7611 0.0000 0.0000
# 5 0.0000 0.0000 0.0000 0.0000 5.7546 0.0000
# 6 0.0000 0.0000 0.0000 0.0000 0.0000 28.2896
#
#
#
# Elastic Compliance Matrix: (Units=1/GPa)
#
#
# Indices 1 2 3 4 5 6 
#
# 1 0.013638 -0.005020 -0.002443 0.000000 0.000000 0.000000
# 2 -0.005020 0.013638 -0.002443 0.000000 0.000000 0.000000
# 3 -0.002443 -0.002443 0.013073 0.000000 0.000000 0.000000
# 4 0.000000 0.000000 0.000000 0.173578 0.000000 0.000000
# 5 0.000000 0.000000 0.000000 0.000000 0.173773 0.000000
# 6 0.000000 0.000000 0.000000 0.000000 0.000000 0.035349
#
#
# Mechanical properties :
#
#
# Convention : Reuss Voigt Hill
#
# Bulk Modulus (GPa) = 48.68802 49.12255 48.90528
# Shear Modulus (GPa) = 11.11837 20.11697 15.61767
#
# Velocity S-wave (km/s) = 2.33138 3.13599 2.76313
# Velocity P-wave (km/s) = 5.57215 6.09317 5.83848
#
# Compressibility (1/GPa) = 0.02053893
#
# Stress axis : x y z
#
# Youngs Moduli (GPa) = 73.32328 73.32291 76.49361
#
# Poissons Ratio (x) = 0.36805 0.18687
# Poissons Ratio (y) = 0.36805 0.18686
# Poissons Ratio (z) = 0.17912 0.17912
#
# Static dielectric constant tensor:
#      x y z
#    x 1.806840 0.000000 0.000000 
#    y 0.000000 1.806840 0.000000 
#    z 0.000000 0.000000 1.761120 
# 
# From -- ./inp_files/5255.got.cif
#   From: 2010.05.17/outbox.cif.g08.bks.cpg/sg126_3_cif.got.tgz:5255.got - 2010.05.20 11:58:20.
