data_PCOD9563412
_publ_section_title
;
Structure prediction by ZEFSAII (Michael W. Deem and Ramdas Pophale) SiO2 
 PCOD9563412
Probable space group: P 4/N N C
;
_chemical_formula_sum "Si O2"
_cell_formula_units_Z 88
_cell_length_a 11.614296
_cell_length_b 11.614296
_cell_length_c 29.713124
_cell_angle_alpha 90.000000
_cell_angle_beta 90.000000
_cell_angle_gamma 90.000000
_cell_volume 4008.058907
_symmetry_space_group_name_H-M "P 4/N N C"
_symmetry_group_IT_number 126
_space_group.IT_coordinate_system_code '2'
_symmetry_cell_setting 'tetragonal'
loop_
_space_group_symop_operation_xyz
x,y,z
1/2-y,x,z
1/2-x,1/2-y,z
y,1/2-x,z
x,1/2-y,1/2-z
1/2-x,y,1/2-z
y,x,1/2-z
1/2-y,1/2-x,1/2-z
-x,-y,-z
1/2+y,-x,-z
1/2+x,1/2+y,-z
-y,1/2+x,-z
-x,1/2+y,1/2+z
1/2+x,-y,1/2+z
-y,-x,1/2+z
1/2+y,1/2+x,1/2+z
loop_
_atom_site_type_symbol
_atom_site_label
_atom_site_fract_x
_atom_site_fract_y
_atom_site_fract_z
Si Si1 0.173894 0.073512 0.466898
Si Si2 0.664680 0.076246 0.052977
Si Si3 0.028946 0.866261 0.223401
Si Si4 0.750000 0.250000 0.821785
Si Si5 0.410560 0.146032 0.629206
Si Si6 0.171536 0.614824 0.091500
O O1 0.307897 0.106260 0.472836
O O2 0.144782 0.978637 0.504666
O O3 0.147454 0.017923 0.418248
O O4 0.800294 0.086949 0.064745
O O5 0.627293 0.204595 0.066215
O O6 0.609314 0.989787 0.088445
O O7 0.988307 0.750000 0.250000
O O8 0.159833 0.826589 0.207747
O O9 0.967177 0.882311 0.176109
O O10 0.980542 0.980542 0.250000
O O11 0.814841 0.336090 0.857597
O O12 0.400766 0.283305 0.626982
#
# Coordination Sequence:
#
# PCOD9563412 Si02
#       6
#    16  16  16   8  16  16
#     4  11  24  39  55  87 127 171 228 285 333 399
#     4  10  20  38  60  87 123 169 215 272 338 400
#     4  12  23  39  68  97 134 179 218 285 365 444
#     4  10  23  48  61  98 138 176 230 293 347 438
#     4  11  21  34  57  93 133 170 210 262 341 433
#     4  10  21  38  63  85 123 168 223 280 331 408
#
# _framework density 21.955767000000002
#
# number of rings (size 3 to 8) (size 9 to 14) (size 15 to 20)
#    0.000    1.455    5.455    2.455    0.000    8.909 
#    3.273    0.000    0.000    0.000    0.000    0.000 
#    0.000    1.455    0.000    0.000    0.000    0.000 
#
# Total GULP energy -490785.581454 kJ/mol
# GULP energy per Si atom -5577.108880 kJ/mol
# Density = 2.190579 g / cm^3
# Si number density = 21.955767 Si / 1000 Ang^3
#
#
#
# Elastic Constant Matrix: (Units=GPa)
#
#
# Indices 1 2 3 4 5 6 
#
# 1 144.9100 -1.9496 43.9724 0.0000 0.0000 0.0000
# 2 -1.9496 144.9100 43.9724 0.0000 0.0000 0.0000
# 3 43.9724 43.9724 108.6506 0.0000 0.0000 0.0000
# 4 0.0000 0.0000 0.0000 30.7938 0.0000 0.0000
# 5 0.0000 0.0000 0.0000 0.0000 30.7938 0.0000
# 6 0.0000 0.0000 0.0000 0.0000 0.0000 11.3658
#
#
#
# Elastic Compliance Matrix: (Units=1/GPa)
#
#
# Indices 1 2 3 4 5 6 
#
# 1 0.008061 0.001252 -0.003769 0.000000 0.000000 0.000000
# 2 0.001252 0.008061 -0.003769 0.000000 0.000000 0.000000
# 3 -0.003769 -0.003769 0.012255 0.000000 0.000000 0.000000
# 4 0.000000 0.000000 0.000000 0.032474 0.000000 0.000000
# 5 0.000000 0.000000 0.000000 0.000000 0.032474 0.000000
# 6 0.000000 0.000000 0.000000 0.000000 0.000000 0.087983
#
#
# Mechanical properties :
#
#
# Convention : Reuss Voigt Hill
#
# Bulk Modulus (GPa) = 63.27200 63.38454 63.32827
# Shear Modulus (GPa) = 25.10664 35.42236 30.26450
#
# Velocity S-wave (km/s) = 3.38525 4.02101 3.71675
# Velocity P-wave (km/s) = 6.64533 7.10563 6.87933
#
# Compressibility (1/GPa) = 0.01580478
#
# Stress axis : x y z
#
# Youngs Moduli (GPa) = 124.04641 124.04641 81.60014
#
# Poissons Ratio (x) = -0.15534 0.30758
# Poissons Ratio (y) = -0.15534 0.30758
# Poissons Ratio (z) = 0.46758 0.46758
#
# Static dielectric constant tensor:
#      x y z
#    x 1.900740 0.000000 0.000000 
#    y 0.000000 1.900740 0.000000 
#    z 0.000000 0.000000 1.811650 
# 
# From -- ./inp_files/6548.got.cif
#   From: 2010.05.17/outbox.cif.g08.bks.cpg/sg126_4_cif.got.tgz:6548.got - 2010.05.20 11:58:20.
