data_PCOD9563777
_publ_section_title
;
Structure prediction by ZEFSAII (Michael W. Deem and Ramdas Pophale) SiO2 
 PCOD9563777
Probable space group: P 4/M B M
;
_chemical_formula_sum "Si O2"
_cell_formula_units_Z 128
_cell_length_a 20.170161
_cell_length_b 20.170161
_cell_length_c 19.216166
_cell_angle_alpha 90.000000
_cell_angle_beta 90.000000
_cell_angle_gamma 90.000000
_cell_volume 7817.816480
_symmetry_space_group_name_H-M "P 4/M B M"
_symmetry_group_IT_number 127
_symmetry_cell_setting 'tetragonal'
loop_
_space_group_symop_operation_xyz
x,y,z
-y,x,z
-x,-y,z
y,-x,z
1/2+x,1/2-y,-z
1/2-x,1/2+y,-z
1/2+y,1/2+x,-z
1/2-y,1/2-x,-z
-x,-y,-z
y,-x,-z
x,y,-z
-y,x,-z
1/2-x,1/2+y,z
1/2+x,1/2-y,z
1/2-y,1/2-x,z
1/2+y,1/2+x,z
loop_
_atom_site_type_symbol
_atom_site_label
_atom_site_fract_x
_atom_site_fract_y
_atom_site_fract_z
Si Si1 0.546569 0.841533 0.851168
Si Si2 0.245933 0.141344 0.210138
Si Si3 0.641026 0.747962 0.373981
Si Si4 0.109413 0.497083 0.703925
Si Si5 0.711090 0.997481 0.422585
Si Si6 0.863855 0.748109 0.631500
Si Si7 0.921162 0.691587 0.076515
Si Si8 0.245712 0.859397 0.793726
O O1 0.601251 0.898750 0.861171
O O2 0.583247 0.771786 0.838519
O O3 0.509493 0.857285 0.778385
O O4 0.493456 0.838659 0.911664
O O5 0.300917 0.199084 0.202782
O O6 0.248659 0.123500 0.291715
O O7 0.176187 0.175228 0.194923
O O8 0.686360 0.813640 0.388480
O O9 0.571435 0.748626 0.413969
O O10 0.690176 0.685348 0.384533
O O11 0.073822 0.426179 0.703950
O O12 0.157490 0.503886 0.638961
O O13 0.053182 0.553182 0.697577
O O14 0.681691 0.997901 0.500000
O O15 0.747745 0.067902 0.410953
O O16 0.817873 0.682128 0.620644
O O17 0.883082 0.751330 0.713754
O O18 0.867018 0.632983 0.079804
O O19 0.907717 0.738196 0.142947
O O20 0.915199 0.722894 0.000000
O O21 0.301731 0.801731 0.796262
#
# Coordination Sequence:
#
# PCOD9563777 Si02
#       8
#    16  16  16  16  16  16  16  16
#     4  10  18  30  49  69  93 127 167 205 238 282
#     4   8  14  28  51  72  88 112 156 209 248 280
#     4   9  18  35  54  73  98 129 166 210 259 309
#     4  10  20  32  46  66  95 133 172 205 242 294
#     4  12  23  32  47  72 101 131 166 211 262 309
#     4   9  19  35  55  75  97 128 171 216 254 301
#     4  10  20  31  43  65 101 137 164 193 235 289
#     4   8  15  30  51  71  88 117 161 204 246 286
#
# _framework density 16.372857
#
# number of rings (size 3 to 8) (size 9 to 14) (size 15 to 20)
#    0.000    2.500    1.250    3.375    0.000    4.500 
#    0.000    3.125    0.000    2.625    0.000    0.875 
#    0.000    0.500    0.000    1.125    0.000    0.125 
#
# Total GULP energy -713077.063403 kJ/mol
# GULP energy per Si atom -5570.914558 kJ/mol
# Density = 1.633559 g / cm^3
# Si number density = 16.372857 Si / 1000 Ang^3
#
#
#
# Elastic Constant Matrix: (Units=GPa)
#
#
# Indices 1 2 3 4 5 6 
#
# 1 56.4493 23.8029 25.2854 0.0000 0.0000 0.0000
# 2 23.8029 56.4493 25.2854 0.0000 0.0000 0.0000
# 3 25.2854 25.2854 56.5433 0.0000 0.0000 0.0000
# 4 0.0000 0.0000 0.0000 9.3056 0.0000 0.0000
# 5 0.0000 0.0000 0.0000 0.0000 9.3056 0.0000
# 6 0.0000 0.0000 0.0000 0.0000 0.0000 14.5665
#
#
#
# Elastic Compliance Matrix: (Units=1/GPa)
#
#
# Indices 1 2 3 4 5 6 
#
# 1 0.023991 -0.006641 -0.007759 0.000000 0.000000 0.000000
# 2 -0.006641 0.023991 -0.007759 0.000000 0.000000 0.000000
# 3 -0.007759 -0.007759 0.024625 0.000000 0.000000 0.000000
# 4 0.000000 0.000000 0.000000 0.107462 0.000000 0.000000
# 5 0.000000 0.000000 0.000000 0.000000 0.107462 0.000000
# 6 0.000000 0.000000 0.000000 0.000000 0.000000 0.068651
#
#
# Mechanical properties :
#
#
# Convention : Reuss Voigt Hill
#
# Bulk Modulus (GPa) = 35.34838 35.35437 35.35138
# Shear Modulus (GPa) = 12.19731 12.97341 12.58536
#
# Velocity S-wave (km/s) = 2.73238 2.81797 2.77550
# Velocity P-wave (km/s) = 5.62059 5.67698 5.64885
#
# Compressibility (1/GPa) = 0.02828984
#
# Stress axis : x y z
#
# Youngs Moduli (GPa) = 41.68312 41.68312 40.60969
#
# Poissons Ratio (x) = 0.27681 0.31507
# Poissons Ratio (y) = 0.27681 0.31507
# Poissons Ratio (z) = 0.32340 0.32340
#
# Static dielectric constant tensor:
#      x y z
#    x 1.567910 0.000000 0.000000 
#    y 0.000000 1.567910 0.000000 
#    z 0.000000 0.000000 1.548860 
# 
# From -- ./inp_files/5409.got.cif
#   From: 2010.05.17/outbox.cif.g08.bks.cpg/sg127_3_cif.got.tgz:5409.got - 2010.05.20 12:03:00.
