data_PCOD9563207
_publ_section_title
;
Structure prediction by ZEFSAII (Michael W. Deem and Ramdas Pophale) SiO2 
 PCOD9563207
Probable space group: P 4/N B M
;
_chemical_formula_sum "Si O2"
_cell_formula_units_Z 72
_cell_length_a 18.867432
_cell_length_b 18.867432
_cell_length_c 10.932844
_cell_angle_alpha 90.000000
_cell_angle_beta 90.000000
_cell_angle_gamma 90.000000
_cell_volume 3891.873701
_symmetry_space_group_name_H-M "P 4/N B M"
_symmetry_group_IT_number 125
_space_group.IT_coordinate_system_code '2'
_symmetry_cell_setting 'tetragonal'
loop_
_space_group_symop_operation_xyz
x,y,z
1/2-y,x,z
1/2-x,1/2-y,z
y,1/2-x,z
x,1/2-y,-z
1/2-x,y,-z
y,x,-z
1/2-y,1/2-x,-z
-x,-y,-z
1/2+y,-x,-z
1/2+x,1/2+y,-z
-y,1/2+x,-z
-x,1/2+y,z
1/2+x,-y,z
-y,-x,z
1/2+y,1/2+x,z
loop_
_atom_site_type_symbol
_atom_site_label
_atom_site_fract_x
_atom_site_fract_y
_atom_site_fract_z
Si Si1 0.084048 0.084048 0.644648
Si Si2 0.834711 0.665289 0.860813
Si Si3 0.169515 0.830486 0.854663
Si Si4 0.418341 0.918341 0.697981
Si Si5 0.081658 0.581658 0.302018
Si Si6 0.833059 0.333059 0.500001
Si Si7 0.669515 0.169515 0.145337
O O1 0.099043 0.099043 0.500000
O O2 0.127359 0.127360 0.746811
O O3 0.000421 0.095877 0.669727
O O4 0.095877 0.000421 0.669727
O O5 0.846661 0.750000 0.852696
O O6 0.856921 0.643080 0.000000
O O7 0.110518 0.889483 0.825936
O O8 0.152264 0.750001 0.810375
O O9 0.173955 0.826046 0.000000
O O10 0.369963 0.869963 0.613129
O O11 0.389482 0.889482 0.825934
O O12 0.130037 0.630037 0.386868
O O13 0.845859 0.250000 0.500000
#
# Coordination Sequence:
#
# PCOD9563207 Si02
#       7
#    16  16   8   8   8   8   8
#     4  11  23  41  60  84 122 161 197 241 300 354
#     4   9  21  43  66  88 116 149 193 251 306 358
#     4   9  19  36  57  84 119 155 196 248 297 347
#     4  11  21  39  56  79 121 160 192 239 288 348
#     4  11  21  39  56  79 121 160 192 239 288 348
#     4  11  22  35  56  84 112 151 196 233 278 338
#     4   9  19  36  57  84 119 155 196 248 297 347
#
# _framework density 18.500088000000002
#
# number of rings (size 3 to 8) (size 9 to 14) (size 15 to 20)
#    0.000    1.889    2.222    3.333    0.000    8.000 
#    0.000    7.778    0.000    0.000    0.000    0.000 
#    0.000    0.000    0.000    0.000    0.000    0.000 
#
# Total GULP energy -401256.092082 kJ/mol
# GULP energy per Si atom -5573.001279 kJ/mol
# Density = 1.845798 g / cm^3
# Si number density = 18.500088 Si / 1000 Ang^3
#
#
#
# Elastic Constant Matrix: (Units=GPa)
#
#
# Indices 1 2 3 4 5 6 
#
# 1 89.6202 75.6604 64.6767 0.0000 0.0000 0.0000
# 2 75.6604 89.6201 64.6766 0.0000 0.0000 0.0000
# 3 64.6767 64.6766 143.6759 0.0000 0.0000 0.0000
# 4 0.0000 0.0000 0.0000 48.2147 0.0000 0.0000
# 5 0.0000 0.0000 0.0000 0.0000 48.2145 0.0000
# 6 0.0000 0.0000 0.0000 0.0000 0.0000 36.9486
#
#
#
# Elastic Compliance Matrix: (Units=1/GPa)
#
#
# Indices 1 2 3 4 5 6 
#
# 1 0.040488 -0.031147 -0.004205 0.000000 0.000000 0.000000
# 2 -0.031147 0.040488 -0.004205 0.000000 0.000000 0.000000
# 3 -0.004205 -0.004205 0.010746 0.000000 0.000000 0.000000
# 4 0.000000 0.000000 0.000000 0.020741 0.000000 0.000000
# 5 0.000000 0.000000 0.000000 0.000000 0.020741 0.000000
# 6 0.000000 0.000000 0.000000 0.000000 0.000000 0.027065
#
#
# Mechanical properties :
#
#
# Convention : Reuss Voigt Hill
#
# Bulk Modulus (GPa) = 79.31228 81.43817 80.37523
# Shear Modulus (GPa) = 20.52676 34.53573 27.53124
#
# Velocity S-wave (km/s) = 3.33460 4.32532 3.86186
# Velocity P-wave (km/s) = 7.60200 8.31027 7.96401
#
# Compressibility (1/GPa) = 0.01260839
#
# Stress axis : x y z
#
# Youngs Moduli (GPa) = 24.69865 24.69863 93.05818
#
# Poissons Ratio (x) = 0.76928 0.39132
# Poissons Ratio (y) = 0.76928 0.39131
# Poissons Ratio (z) = 0.10386 0.10386
#
# Static dielectric constant tensor:
#      x y z
#    x 1.619270 0.000000 0.000000 
#    y 0.000000 1.619270 0.000000 
#    z 0.000000 0.000000 1.960900 
# 
# From -- ./inp_files/3900.got.cif
#   From: 2010.05.17/outbox.cif.g08.bks.cpg/sg125_2_cif.got.tgz:3900.got - 2010.05.20 11:54:10.
