data_PCOD9563635
_publ_section_title
;
Structure prediction by ZEFSAII (Michael W. Deem and Ramdas Pophale) SiO2 
 PCOD9563635
Probable space group: P 4/N N C
;
_chemical_formula_sum "Si O2"
_cell_formula_units_Z 48
_cell_length_a 8.896142
_cell_length_b 8.896142
_cell_length_c 29.056441
_cell_angle_alpha 90.000000
_cell_angle_beta 90.000000
_cell_angle_gamma 90.000000
_cell_volume 2299.565749
_symmetry_space_group_name_H-M "P 4/N N C"
_symmetry_group_IT_number 126
_space_group.IT_coordinate_system_code '2'
_symmetry_cell_setting 'tetragonal'
loop_
_space_group_symop_operation_xyz
x,y,z
1/2-y,x,z
1/2-x,1/2-y,z
y,1/2-x,z
x,1/2-y,1/2-z
1/2-x,y,1/2-z
y,x,1/2-z
1/2-y,1/2-x,1/2-z
-x,-y,-z
1/2+y,-x,-z
1/2+x,1/2+y,-z
-y,1/2+x,-z
-x,1/2+y,1/2+z
1/2+x,-y,1/2+z
-y,-x,1/2+z
1/2+y,1/2+x,1/2+z
loop_
_atom_site_type_symbol
_atom_site_label
_atom_site_fract_x
_atom_site_fract_y
_atom_site_fract_z
Si Si1 0.068160 0.074896 0.545463
Si Si2 0.939248 0.582318 0.635968
Si Si3 0.634837 0.132405 0.284405
O O1 0.246161 0.045093 0.545387
O O2 0.000000 0.000000 0.500000
O O3 0.990628 0.008841 0.590804
O O4 0.952900 0.763292 0.636410
O O5 0.032511 0.539922 0.681694
O O6 0.750000 0.250000 0.309802
O O7 0.548659 0.250000 0.250000
O O8 0.750000 0.451801 0.250000
#
# Coordination Sequence:
#
# PCOD9563635 Si02
#       3
#    16  16  16
#     4  11  26  45  67  95 129 170 222 280 346 421
#     4  11  23  37  64 100 133 174 229 283 345 410
#     4   6  17  36  56  84 129 180 217 270 321 394
#
# _framework density 20.873508000000001
#
# number of rings (size 3 to 8) (size 9 to 14) (size 15 to 20)
#    2.000    0.667    0.000    2.000    4.667    7.333 
#    0.000    1.667    0.000    0.000    0.000    0.000 
#    0.000    0.000    0.000    0.000    0.000    0.000 
#
# Total GULP energy -267397.379356 kJ/mol
# GULP energy per Si atom -5570.778737 kJ/mol
# Density = 2.082600 g / cm^3
# Si number density = 20.873508 Si / 1000 Ang^3
#
#
#
# Elastic Constant Matrix: (Units=GPa)
#
#
# Indices 1 2 3 4 5 6 
#
# 1 91.1113 63.5139 71.0592 0.0000 0.0000 0.0000
# 2 63.5139 91.1113 71.0592 0.0000 0.0000 0.0000
# 3 71.0592 71.0592 171.4665 0.0000 0.0000 0.0000
# 4 0.0000 0.0000 0.0000 49.3905 0.0000 0.0000
# 5 0.0000 0.0000 0.0000 0.0000 49.3905 0.0000
# 6 0.0000 0.0000 0.0000 0.0000 0.0000 28.2465
#
#
#
# Elastic Compliance Matrix: (Units=1/GPa)
#
#
# Indices 1 2 3 4 5 6 
#
# 1 0.023341 -0.012895 -0.004329 0.000000 0.000000 0.000000
# 2 -0.012895 0.023341 -0.004329 0.000000 0.000000 0.000000
# 3 -0.004329 -0.004329 0.009420 0.000000 0.000000 0.000000
# 4 0.000000 0.000000 0.000000 0.020247 0.000000 0.000000
# 5 0.000000 0.000000 0.000000 0.000000 0.020247 0.000000
# 6 0.000000 0.000000 0.000000 0.000000 0.000000 0.035403
#
#
# Mechanical properties :
#
#
# Convention : Reuss Voigt Hill
#
# Bulk Modulus (GPa) = 76.94594 84.99483 80.97039
# Shear Modulus (GPa) = 27.86515 35.27594 31.57054
#
# Velocity S-wave (km/s) = 3.65766 4.11540 3.89327
# Velocity P-wave (km/s) = 7.40142 7.96175 7.68669
#
# Compressibility (1/GPa) = 0.01299614
#
# Stress axis : x y z
#
# Youngs Moduli (GPa) = 42.84350 42.84350 106.15485
#
# Poissons Ratio (x) = 0.55245 0.45956
# Poissons Ratio (y) = 0.55245 0.45956
# Poissons Ratio (z) = 0.18547 0.18547
#
# Static dielectric constant tensor:
#      x y z
#    x 1.778940 0.000000 0.000000 
#    y 0.000000 1.778940 0.000000 
#    z 0.000000 0.000000 1.780400 
# 
# From -- ./inp_files/6336.got.cif
#   From: 2010.05.17/outbox.cif.g08.bks.cpg/sg126_4_cif.got.tgz:6336.got - 2010.05.20 11:58:20.
