data_PCOD9563595
_publ_section_title
;
Structure prediction by ZEFSAII (Michael W. Deem and Ramdas Pophale) SiO2 
 PCOD9563595
Probable space group: P 4/N N C
;
_chemical_formula_sum "Si O2"
_cell_formula_units_Z 92
_cell_length_a 14.333937
_cell_length_b 14.333937
_cell_length_c 24.362916
_cell_angle_alpha 90.000000
_cell_angle_beta 90.000000
_cell_angle_gamma 90.000000
_cell_volume 5005.647355
_symmetry_space_group_name_H-M "P 4/N N C"
_symmetry_group_IT_number 126
_space_group.IT_coordinate_system_code '2'
_symmetry_cell_setting 'tetragonal'
loop_
_space_group_symop_operation_xyz
x,y,z
1/2-y,x,z
1/2-x,1/2-y,z
y,1/2-x,z
x,1/2-y,1/2-z
1/2-x,y,1/2-z
y,x,1/2-z
1/2-y,1/2-x,1/2-z
-x,-y,-z
1/2+y,-x,-z
1/2+x,1/2+y,-z
-y,1/2+x,-z
-x,1/2+y,1/2+z
1/2+x,-y,1/2+z
-y,-x,1/2+z
1/2+y,1/2+x,1/2+z
loop_
_atom_site_type_symbol
_atom_site_label
_atom_site_fract_x
_atom_site_fract_y
_atom_site_fract_z
Si Si1 0.489442 0.576227 0.333252
Si Si2 0.291775 0.603769 0.014282
Si Si3 0.734287 0.974055 0.416651
Si Si4 0.083831 0.915307 0.118873
Si Si5 0.361138 0.361138 0.750000
Si Si6 0.750000 0.750000 0.088318
Si Si7 0.856562 0.359731 0.240254
O O1 0.478919 0.663173 0.373661
O O2 0.495663 0.481173 0.367751
O O3 0.588574 0.593481 0.302157
O O4 0.414489 0.580867 0.284508
O O5 0.334676 0.580781 0.073703
O O6 0.186885 0.645957 0.013113
O O7 0.293141 0.512759 0.976345
O O8 0.730441 0.863587 0.411515
O O9 0.836435 0.013675 0.403676
O O10 0.121782 0.884322 0.177887
O O11 0.250000 0.376219 0.750000
O O12 0.860629 0.250000 0.250000
O O13 0.750000 0.392329 0.250000
#
# Coordination Sequence:
#
# PCOD9563595 Si02
#       7
#    16  16  16  16   8   4  16
#     4  12  21  36  55  84 124 154 200 240 301 369
#     4   9  22  41  62  87 116 159 209 252 303 356
#     4  11  23  37  60  87 120 164 199 244 303 369
#     4  11  21  39  60  85 121 158 201 250 303 362
#     4  11  22  30  50  82 120 160 189 224 290 374
#     4  12  24  40  56  93 128 160 193 252 308 370
#     4  11  23  35  56  86 119 161 202 249 301 356
#
# _framework density 18.379242000000001
#
# number of rings (size 3 to 8) (size 9 to 14) (size 15 to 20)
#    0.000    1.130    5.217    1.565    2.435    2.087 
#    0.000    0.000    0.000    0.000    0.000    0.000 
#    0.000    1.391    0.000    0.000    0.000    0.000 
#
# Total GULP energy -512717.841030 kJ/mol
# GULP energy per Si atom -5573.020011 kJ/mol
# Density = 1.833741 g / cm^3
# Si number density = 18.379242 Si / 1000 Ang^3
#
#
#
# Elastic Constant Matrix: (Units=GPa)
#
#
# Indices 1 2 3 4 5 6 
#
# 1 69.9904 6.4885 37.8481 0.0000 0.0000 0.0000
# 2 6.4885 69.9904 37.8481 0.0000 0.0000 0.0000
# 3 37.8481 37.8481 123.5862 0.0000 0.0000 0.0000
# 4 0.0000 0.0000 0.0000 17.7313 0.0000 0.0000
# 5 0.0000 0.0000 0.0000 0.0000 17.7313 0.0000
# 6 0.0000 0.0000 0.0000 0.0000 0.0000 8.4359
#
#
#
# Elastic Compliance Matrix: (Units=1/GPa)
#
#
# Indices 1 2 3 4 5 6 
#
# 1 0.017255 0.001508 -0.005746 0.000000 0.000000 0.000000
# 2 0.001508 0.017255 -0.005746 0.000000 0.000000 0.000000
# 3 -0.005746 -0.005746 0.011611 0.000000 0.000000 0.000000
# 4 0.000000 0.000000 0.000000 0.056397 0.000000 0.000000
# 5 0.000000 0.000000 0.000000 0.000000 0.056397 0.000000
# 6 0.000000 0.000000 0.000000 0.000000 0.000000 0.118541
#
#
# Mechanical properties :
#
#
# Convention : Reuss Voigt Hill
#
# Bulk Modulus (GPa) = 38.23770 47.54850 42.89310
# Shear Modulus (GPa) = 16.33219 20.87186 18.60202
#
# Velocity S-wave (km/s) = 2.98421 3.37355 3.18484
# Velocity P-wave (km/s) = 5.72049 6.41104 6.07558
#
# Compressibility (1/GPa) = 0.02615220
#
# Stress axis : x y z
#
# Youngs Moduli (GPa) = 57.95370 57.95370 86.12542
#
# Poissons Ratio (x) = -0.08737 0.49488
# Poissons Ratio (y) = -0.08737 0.49488
# Poissons Ratio (z) = 0.33301 0.33301
#
# Static dielectric constant tensor:
#      x y z
#    x 1.659430 0.000000 0.000000 
#    y 0.000000 1.659430 0.000000 
#    z 0.000000 0.000000 1.651320 
# 
# From -- ./inp_files/5277.got.cif
#   From: 2010.05.17/outbox.cif.g08.bks.cpg/sg126_3_cif.got.tgz:5277.got - 2010.05.20 11:58:20.
