data_PCOD9563082
_publ_section_title
;
Structure prediction by ZEFSAII (Michael W. Deem and Ramdas Pophale) SiO2 
 PCOD9563082
Probable space group: P 4/N B M
;
_chemical_formula_sum "Si O2"
_cell_formula_units_Z 96
_cell_length_a 15.638896
_cell_length_b 15.638896
_cell_length_c 20.266708
_cell_angle_alpha 90.000000
_cell_angle_beta 90.000000
_cell_angle_gamma 90.000000
_cell_volume 4956.731489
_symmetry_space_group_name_H-M "P 4/N B M"
_symmetry_group_IT_number 125
_space_group.IT_coordinate_system_code '2'
_symmetry_cell_setting 'tetragonal'
loop_
_space_group_symop_operation_xyz
x,y,z
1/2-y,x,z
1/2-x,1/2-y,z
y,1/2-x,z
x,1/2-y,-z
1/2-x,y,-z
y,x,-z
1/2-y,1/2-x,-z
-x,-y,-z
1/2+y,-x,-z
1/2+x,1/2+y,-z
-y,1/2+x,-z
-x,1/2+y,z
1/2+x,-y,z
-y,-x,z
1/2+y,1/2+x,z
loop_
_atom_site_type_symbol
_atom_site_label
_atom_site_fract_x
_atom_site_fract_y
_atom_site_fract_z
Si Si1 0.132406 0.164917 0.401545
Si Si2 0.993806 0.748225 0.795204
Si Si3 0.572277 0.923946 0.267724
Si Si4 0.539171 0.317735 0.444816
Si Si5 0.747713 0.894023 0.076925
Si Si6 0.743650 0.113306 0.317617
O O1 0.231285 0.138292 0.401808
O O2 0.093655 0.111439 0.340165
O O3 0.057751 0.153656 0.455213
O O4 0.956008 0.839010 0.771594
O O5 0.953536 0.662281 0.763559
O O6 0.972599 0.744151 0.872559
O O7 0.084348 0.748019 0.758145
O O8 0.498360 0.998360 0.266746
O O9 0.565826 0.250000 0.500000
O O10 0.603077 0.396924 0.445080
O O11 0.545816 0.271372 0.372954
O O12 0.666541 0.830881 0.088241
O O13 0.750000 0.918768 0.000000
O O14 0.811979 0.188022 0.326540
O O15 0.650265 0.150265 0.332190
#
# Coordination Sequence:
#
# PCOD9563082 Si02
#       6
#    16  16  16  16  16  16
#     4  11  23  41  64  91 125 162 203 260 327 386
#     4  12  21  35  61  91 128 162 201 257 320 368
#     4  12  23  36  59  93 127 165 211 254 308 377
#     4  11  23  42  66  92 124 165 212 264 316 375
#     4   9  18  33  56  88 123 159 200 246 308 384
#     4  10  21  38  59  84 116 160 214 262 304 359
#
# _framework density 19.367602999999999
#
# number of rings (size 3 to 8) (size 9 to 14) (size 15 to 20)
#    0.000    1.167    5.000    2.500    0.000    1.833 
#    0.000    4.167    0.000    5.000    0.000    1.167 
#    0.000    0.000    0.000    0.000    0.000    0.000 
#
# Total GULP energy -534678.216091 kJ/mol
# GULP energy per Si atom -5569.564751 kJ/mol
# Density = 1.932352 g / cm^3
# Si number density = 19.367603 Si / 1000 Ang^3
#
#
#
# Elastic Constant Matrix: (Units=GPa)
#
#
# Indices 1 2 3 4 5 6 
#
# 1 106.0218 61.6097 36.9221 0.0000 0.0000 0.0000
# 2 61.6097 106.0218 36.9221 0.0000 0.0000 0.0000
# 3 36.9221 36.9221 59.3977 0.0000 0.0000 0.0000
# 4 0.0000 0.0000 0.0000 17.4146 0.0000 0.0000
# 5 0.0000 0.0000 0.0000 0.0000 17.4146 0.0000
# 6 0.0000 0.0000 0.0000 0.0000 0.0000 20.9189
#
#
#
# Elastic Compliance Matrix: (Units=1/GPa)
#
#
# Indices 1 2 3 4 5 6 
#
# 1 0.015366 -0.007151 -0.005106 0.000000 0.000000 0.000000
# 2 -0.007151 0.015366 -0.005106 0.000000 0.000000 0.000000
# 3 -0.005106 -0.005106 0.023184 0.000000 0.000000 0.000000
# 4 0.000000 0.000000 0.000000 0.057423 0.000000 0.000000
# 5 0.000000 0.000000 0.000000 0.000000 0.057423 0.000000
# 6 0.000000 0.000000 0.000000 0.000000 0.000000 0.047804
#
#
# Mechanical properties :
#
#
# Convention : Reuss Voigt Hill
#
# Bulk Modulus (GPa) = 52.11562 60.26102 56.18832
# Shear Modulus (GPa) = 19.40325 20.21544 19.80934
#
# Velocity S-wave (km/s) = 3.16862 3.23426 3.20161
# Velocity P-wave (km/s) = 6.35248 6.71782 6.53770
#
# Compressibility (1/GPa) = 0.01918810
#
# Stress axis : x y z
#
# Youngs Moduli (GPa) = 65.08018 65.08018 43.13292
#
# Poissons Ratio (x) = 0.46537 0.22026
# Poissons Ratio (y) = 0.46537 0.22026
# Poissons Ratio (z) = 0.33233 0.33233
#
# Static dielectric constant tensor:
#      x y z
#    x 1.731320 0.000000 0.000000 
#    y 0.000000 1.731320 0.000000 
#    z 0.000000 0.000000 1.709010 
# 
# From -- ./inp_files/5919.got.cif
#   From: 2010.05.17/outbox.cif.g08.bks.cpg/sg125_3_cif.got.tgz:5919.got - 2010.05.20 11:54:10.
