data_PCOD9563448
_publ_section_title
;
Structure prediction by ZEFSAII (Michael W. Deem and Ramdas Pophale) SiO2 
 PCOD9563448
Probable space group: P 4/N N C
;
_chemical_formula_sum "Si O2"
_cell_formula_units_Z 112
_cell_length_a 14.399176
_cell_length_b 14.399176
_cell_length_c 23.210318
_cell_angle_alpha 90.000000
_cell_angle_beta 90.000000
_cell_angle_gamma 90.000000
_cell_volume 4812.340748
_symmetry_space_group_name_H-M "P 4/N N C"
_symmetry_group_IT_number 126
_space_group.IT_coordinate_system_code '2'
_symmetry_cell_setting 'tetragonal'
loop_
_space_group_symop_operation_xyz
x,y,z
1/2-y,x,z
1/2-x,1/2-y,z
y,1/2-x,z
x,1/2-y,1/2-z
1/2-x,y,1/2-z
y,x,1/2-z
1/2-y,1/2-x,1/2-z
-x,-y,-z
1/2+y,-x,-z
1/2+x,1/2+y,-z
-y,1/2+x,-z
-x,1/2+y,1/2+z
1/2+x,-y,1/2+z
-y,-x,1/2+z
1/2+y,1/2+x,1/2+z
loop_
_atom_site_type_symbol
_atom_site_label
_atom_site_fract_x
_atom_site_fract_y
_atom_site_fract_z
Si Si1 0.291459 0.845019 0.074349
Si Si2 0.140808 0.509790 0.746533
Si Si3 0.077374 0.963096 0.880957
Si Si4 0.304769 0.894835 0.305466
Si Si5 0.770077 0.896387 0.833764
Si Si6 0.821701 0.545222 0.944166
Si Si7 0.148591 0.365999 0.933739
O O1 0.250000 0.750000 0.053433
O O2 0.402081 0.843715 0.086330
O O3 0.238683 0.858777 0.135448
O O4 0.280518 0.942433 0.039908
O O5 0.250000 0.494516 0.750000
O O6 0.086001 0.414000 0.750000
O O7 0.101529 0.549542 0.685899
O O8 0.120164 0.586463 0.795144
O O9 0.985639 0.908409 0.902826
O O10 0.077680 0.070069 0.899414
O O11 0.250000 0.856430 0.250000
O O12 0.287414 0.004004 0.308997
O O13 0.673870 0.849732 0.816166
O O14 0.754174 0.906313 0.903130
O O15 0.854461 0.602474 0.999240
O O16 0.124137 0.258100 0.921124
#
# Coordination Sequence:
#
# PCOD9563448 Si02
#       7
#    16  16  16  16  16  16  16
#     4   9  19  38  66  99 143 182 234 292 375 447
#     4  12  28  46  72 104 143 198 257 318 383 450
#     4  10  23  44  67 104 140 189 244 309 373 452
#     4  11  22  37  63  95 141 190 240 295 357 450
#     4  10  21  36  60  98 145 185 227 288 358 441
#     4   9  20  40  69 100 142 180 238 295 373 461
#     4  11  24  44  73 101 135 190 248 308 388 465
#
# _framework density 23.273498
#
# number of rings (size 3 to 8) (size 9 to 14) (size 15 to 20)
#    0.857    0.857    1.429    2.143    6.000    1.286 
#    0.000    2.143    0.000    0.000    0.000    0.000 
#    0.000    0.000    0.000    0.000    0.000    0.000 
#
# Total GULP energy -625332.199916 kJ/mol
# GULP energy per Si atom -5583.323214 kJ/mol
# Density = 2.322053 g / cm^3
# Si number density = 23.273498 Si / 1000 Ang^3
#
#
#
# Elastic Constant Matrix: (Units=GPa)
#
#
# Indices 1 2 3 4 5 6 
#
# 1 133.4136 44.9582 22.1731 0.0000 0.0000 0.0000
# 2 44.9582 133.4158 22.1716 0.0000 0.0000 0.0000
# 3 22.1731 22.1716 59.2952 0.0000 0.0000 0.0000
# 4 0.0000 0.0000 0.0000 41.4311 0.0000 0.0000
# 5 0.0000 0.0000 0.0000 0.0000 41.4292 0.0000
# 6 0.0000 0.0000 0.0000 0.0000 0.0000 40.2809
#
#
#
# Elastic Compliance Matrix: (Units=1/GPa)
#
#
# Indices 1 2 3 4 5 6 
#
# 1 0.008743 -0.002562 -0.002311 0.000000 0.000000 0.000000
# 2 -0.002562 0.008743 -0.002311 0.000000 0.000000 0.000000
# 3 -0.002311 -0.002311 0.018593 0.000000 0.000000 0.000000
# 4 0.000000 0.000000 0.000000 0.024136 0.000000 0.000000
# 5 0.000000 0.000000 0.000000 0.000000 0.024138 0.000000
# 6 0.000000 0.000000 0.000000 0.000000 0.000000 0.024826
#
#
# Mechanical properties :
#
#
# Convention : Reuss Voigt Hill
#
# Bulk Modulus (GPa) = 46.06160 56.08115 51.07138
# Shear Modulus (GPa) = 38.23087 40.41637 39.32362
#
# Velocity S-wave (km/s) = 4.05739 4.17175 4.11497
# Velocity P-wave (km/s) = 6.46408 6.88139 6.67600
#
# Compressibility (1/GPa) = 0.02171006
#
# Stress axis : x y z
#
# Youngs Moduli (GPa) = 114.37692 114.38003 53.78295
#
# Poissons Ratio (x) = 0.29305 0.12431
# Poissons Ratio (y) = 0.29304 0.12429
# Poissons Ratio (z) = 0.26437 0.26433
#
# Static dielectric constant tensor:
#      x y z
#    x 1.866280 0.000000 0.000000 
#    y 0.000000 1.866280 0.000000 
#    z 0.000000 0.000000 1.936610 
# 
# From -- ./inp_files/5815.got.cif
#   From: 2010.05.17/outbox.cif.g08.bks.cpg/sg126_3_cif.got.tgz:5815.got - 2010.05.20 11:58:20.
