data_PCOD9563976
_publ_section_title
;
Structure prediction by ZEFSAII (Michael W. Deem and Ramdas Pophale) SiO2 
 PCOD9563976
Probable space group: P 4/M B M
;
_chemical_formula_sum "Si O2"
_cell_formula_units_Z 96
_cell_length_a 27.851428
_cell_length_b 27.851428
_cell_length_c 9.111114
_cell_angle_alpha 90.000000
_cell_angle_beta 90.000000
_cell_angle_gamma 90.000000
_cell_volume 7067.509731
_symmetry_space_group_name_H-M "P 4/M B M"
_symmetry_group_IT_number 127
_symmetry_cell_setting 'tetragonal'
loop_
_space_group_symop_operation_xyz
x,y,z
-y,x,z
-x,-y,z
y,-x,z
1/2+x,1/2-y,-z
1/2-x,1/2+y,-z
1/2+y,1/2+x,-z
1/2-y,1/2-x,-z
-x,-y,-z
y,-x,-z
x,y,-z
-y,x,-z
1/2-x,1/2+y,z
1/2+x,1/2-y,z
1/2-y,1/2-x,z
1/2+y,1/2+x,z
loop_
_atom_site_type_symbol
_atom_site_label
_atom_site_fract_x
_atom_site_fract_y
_atom_site_fract_z
Si Si1 0.606013 0.814365 0.675827
Si Si2 0.243494 0.825748 0.667939
Si Si3 0.323988 0.258080 0.167469
Si Si4 0.001409 0.420431 0.339332
Si Si5 0.994600 0.329551 0.828766
Si Si6 0.104675 0.316242 0.177243
O O1 0.604868 0.812529 0.500000
O O2 0.637158 0.862843 0.715500
O O3 0.635460 0.769529 0.741153
O O4 0.552501 0.813078 0.741071
O O5 0.232345 0.838729 0.500000
O O6 0.282252 0.782252 0.663315
O O7 0.197622 0.804652 0.752735
O O8 0.271263 0.867706 0.752784
O O9 0.280223 0.219778 0.160723
O O10 0.338965 0.267847 0.000000
O O11 0.998807 0.395188 0.500000
O O12 0.050982 0.449018 0.332575
O O13 0.959658 0.459658 0.339607
O O14 0.995282 0.386214 0.203071
O O15 0.048593 0.315308 0.779271
O O16 0.989277 0.318069 0.000000
O O17 0.135618 0.364383 0.218929
O O18 0.106464 0.313815 0.000000
#
# Coordination Sequence:
#
# PCOD9563976 Si02
#       6
#    16  16  16  16  16  16
#     4  10  20  32  44  58  78 104 134 168 205 245
#     4   9  16  26  42  63  82  99 123 156 194 237
#     4   9  16  27  44  63  81 100 123 155 196 239
#     4   9  18  31  43  53  67  91 125 165 208 249
#     4  11  21  30  41  57  77 101 131 167 205 243
#     4   9  18  31  43  56  77 104 133 166 204 243
#
# _framework density 13.583284000000001
#
# number of rings (size 3 to 8) (size 9 to 14) (size 15 to 20)
#    0.000    2.500    0.000    3.500    0.000    9.667 
#    0.000    2.500    0.000    0.000    0.000    0.000 
#    0.000    0.000    0.000    0.000    0.000    0.833 
#
# Total GULP energy -534474.617156 kJ/mol
# GULP energy per Si atom -5567.443929 kJ/mol
# Density = 1.355237 g / cm^3
# Si number density = 13.583284 Si / 1000 Ang^3
#
#
#
# Elastic Constant Matrix: (Units=GPa)
#
#
# Indices 1 2 3 4 5 6 
#
# 1 68.7622 50.2669 38.2974 0.0000 0.0000 0.0000
# 2 50.2669 68.7622 38.2974 0.0000 0.0000 0.0000
# 3 38.2974 38.2974 55.1457 0.0000 0.0000 0.0000
# 4 0.0000 0.0000 0.0000 17.4365 0.0000 0.0000
# 5 0.0000 0.0000 0.0000 0.0000 17.4365 0.0000
# 6 0.0000 0.0000 0.0000 0.0000 0.0000 13.8710
#
#
#
# Elastic Compliance Matrix: (Units=1/GPa)
#
#
# Indices 1 2 3 4 5 6 
#
# 1 0.034628 -0.019439 -0.010549 0.000000 0.000000 0.000000
# 2 -0.019439 0.034628 -0.010549 0.000000 0.000000 0.000000
# 3 -0.010549 -0.010549 0.032785 0.000000 0.000000 0.000000
# 4 0.000000 0.000000 0.000000 0.057351 0.000000 0.000000
# 5 0.000000 0.000000 0.000000 0.000000 0.057351 0.000000
# 6 0.000000 0.000000 0.000000 0.000000 0.000000 0.072093
#
#
# Mechanical properties :
#
#
# Convention : Reuss Voigt Hill
#
# Bulk Modulus (GPa) = 47.68841 49.59928 48.64385
# Shear Modulus (GPa) = 13.26614 14.13605 13.70109
#
# Velocity S-wave (km/s) = 3.12853 3.22948 3.17941
# Velocity P-wave (km/s) = 6.94512 7.10635 7.02620
#
# Compressibility (1/GPa) = 0.02096946
#
# Stress axis : x y z
#
# Youngs Moduli (GPa) = 28.87797 28.87797 30.50148
#
# Poissons Ratio (x) = 0.56136 0.32175
# Poissons Ratio (y) = 0.56136 0.32175
# Poissons Ratio (z) = 0.30462 0.30462
#
# Static dielectric constant tensor:
#      x y z
#    x 1.440930 0.000000 0.000000 
#    y 0.000000 1.440930 0.000000 
#    z 0.000000 0.000000 1.466790 
# 
# From -- ./inp_files/2176.got.cif
#   From: 2010.05.17/outbox.cif.g08.bks.cpg/sg127_2_cif.got.tgz:2176.got - 2010.05.20 12:03:00.
