data_PCOD9563413
_publ_section_title
;
Structure prediction by ZEFSAII (Michael W. Deem and Ramdas Pophale) SiO2 
 PCOD9563413
Probable space group: P 4/N N C
;
_chemical_formula_sum "Si O2"
_cell_formula_units_Z 108
_cell_length_a 15.683594
_cell_length_b 15.683594
_cell_length_c 22.229699
_cell_angle_alpha 90.000000
_cell_angle_beta 90.000000
_cell_angle_gamma 90.000000
_cell_volume 5467.952896
_symmetry_space_group_name_H-M "P 4/N N C"
_symmetry_group_IT_number 126
_space_group.IT_coordinate_system_code '2'
_symmetry_cell_setting 'tetragonal'
loop_
_space_group_symop_operation_xyz
x,y,z
1/2-y,x,z
1/2-x,1/2-y,z
y,1/2-x,z
x,1/2-y,1/2-z
1/2-x,y,1/2-z
y,x,1/2-z
1/2-y,1/2-x,1/2-z
-x,-y,-z
1/2+y,-x,-z
1/2+x,1/2+y,-z
-y,1/2+x,-z
-x,1/2+y,1/2+z
1/2+x,-y,1/2+z
-y,-x,1/2+z
1/2+y,1/2+x,1/2+z
loop_
_atom_site_type_symbol
_atom_site_label
_atom_site_fract_x
_atom_site_fract_y
_atom_site_fract_z
Si Si1 0.529432 0.093333 0.888798
Si Si2 0.244816 0.045241 0.557621
Si Si3 0.146816 0.146816 0.250000
Si Si4 0.334207 0.462594 0.425802
Si Si5 0.660771 0.543694 0.868829
Si Si6 0.445694 0.608678 0.135003
Si Si7 0.510470 0.653542 0.259141
Si Si8 0.750000 0.750000 0.082508
O O1 0.488826 0.159252 0.935397
O O2 0.532089 0.138953 0.823765
O O3 0.615855 0.049719 0.911439
O O4 0.463371 0.016782 0.877824
O O5 0.209409 0.040043 0.490378
O O6 0.240076 0.143414 0.580270
O O7 0.187715 0.979471 0.596735
O O8 0.250000 0.135970 0.250000
O O9 0.124727 0.085430 0.193173
O O10 0.260913 0.444873 0.376913
O O11 0.402210 0.386640 0.420168
O O12 0.639861 0.444039 0.877010
O O13 0.447011 0.633423 0.204790
O O14 0.540922 0.750000 0.250000
O O15 0.589734 0.589734 0.250000
#
# Coordination Sequence:
#
# PCOD9563413 Si02
#       8
#    16  16   8  16  16  16  16   4
#     4  10  23  42  63  94 131 173 216 267 331 395
#     4  12  23  42  67  95 132 170 223 268 331 398
#     4  11  22  40  64  98 130 159 214 282 336 381
#     4  11  26  41  67  95 131 172 220 272 333 394
#     4  11  24  42  64  96 130 171 218 272 337 391
#     4  10  23  38  65  93 130 175 211 263 332 396
#     4  10  20  38  61  92 126 166 212 265 322 393
#     4  12  24  40  64 101 132 169 208 276 332 378
#
# _framework density 19.751449999999998
#
# number of rings (size 3 to 8) (size 9 to 14) (size 15 to 20)
#    0.000    1.259    4.444    0.889    7.259    1.630 
#    0.000    0.741    0.000    0.889    0.000    0.000 
#    0.000    0.000    0.000    0.000    0.000    0.000 
#
# Total GULP energy -601359.994688 kJ/mol
# GULP energy per Si atom -5568.148099 kJ/mol
# Density = 1.970649 g / cm^3
# Si number density = 19.751450 Si / 1000 Ang^3
#
#
#
# Elastic Constant Matrix: (Units=GPa)
#
#
# Indices 1 2 3 4 5 6 
#
# 1 63.5734 35.9908 13.2438 0.0000 0.0000 0.0000
# 2 35.9908 63.5734 13.2438 0.0000 0.0000 0.0000
# 3 13.2438 13.2438 60.0376 0.0000 0.0000 0.0000
# 4 0.0000 0.0000 0.0000 16.4933 0.0000 0.0000
# 5 0.0000 0.0000 0.0000 0.0000 16.4933 0.0000
# 6 0.0000 0.0000 0.0000 0.0000 0.0000 29.6378
#
#
#
# Elastic Compliance Matrix: (Units=1/GPa)
#
#
# Indices 1 2 3 4 5 6 
#
# 1 0.023462 -0.012792 -0.002354 0.000000 0.000000 0.000000
# 2 -0.012792 0.023462 -0.002354 0.000000 0.000000 0.000000
# 3 -0.002354 -0.002354 0.017695 0.000000 0.000000 0.000000
# 4 0.000000 0.000000 0.000000 0.060631 0.000000 0.000000
# 5 0.000000 0.000000 0.000000 0.000000 0.060631 0.000000
# 6 0.000000 0.000000 0.000000 0.000000 0.000000 0.033741
#
#
# Mechanical properties :
#
#
# Convention : Reuss Voigt Hill
#
# Bulk Modulus (GPa) = 33.76127 34.68233 34.22180
# Shear Modulus (GPa) = 18.90399 20.83860 19.87130
#
# Velocity S-wave (km/s) = 3.09705 3.25166 3.17530
# Velocity P-wave (km/s) = 5.46984 5.62985 5.55042
#
# Compressibility (1/GPa) = 0.02961974
#
# Stress axis : x y z
#
# Youngs Moduli (GPa) = 42.62151 42.62151 56.51430
#
# Poissons Ratio (x) = 0.54523 0.13302
# Poissons Ratio (y) = 0.54523 0.13302
# Poissons Ratio (z) = 0.10032 0.10032
#
# Static dielectric constant tensor:
#      x y z
#    x 1.699210 0.000000 0.000000 
#    y 0.000000 1.699210 0.000000 
#    z 0.000000 0.000000 1.739090 
# 
# From -- ./inp_files/5883.got.cif
#   From: 2010.05.17/outbox.cif.g08.bks.cpg/sg126_3_cif.got.tgz:5883.got - 2010.05.20 11:58:20.
