data_PCOD9563523
_publ_section_title
;
Structure prediction by ZEFSAII (Michael W. Deem and Ramdas Pophale) SiO2 
 PCOD9563523
Probable space group: P 4/N N C
;
_chemical_formula_sum "Si O2"
_cell_formula_units_Z 104
_cell_length_a 18.035964
_cell_length_b 18.035964
_cell_length_c 16.351209
_cell_angle_alpha 90.000000
_cell_angle_beta 90.000000
_cell_angle_gamma 90.000000
_cell_volume 5318.982841
_symmetry_space_group_name_H-M "P 4/N N C"
_symmetry_group_IT_number 126
_space_group.IT_coordinate_system_code '2'
_symmetry_cell_setting 'tetragonal'
loop_
_space_group_symop_operation_xyz
x,y,z
1/2-y,x,z
1/2-x,1/2-y,z
y,1/2-x,z
x,1/2-y,1/2-z
1/2-x,y,1/2-z
y,x,1/2-z
1/2-y,1/2-x,1/2-z
-x,-y,-z
1/2+y,-x,-z
1/2+x,1/2+y,-z
-y,1/2+x,-z
-x,1/2+y,1/2+z
1/2+x,-y,1/2+z
-y,-x,1/2+z
1/2+y,1/2+x,1/2+z
loop_
_atom_site_type_symbol
_atom_site_label
_atom_site_fract_x
_atom_site_fract_y
_atom_site_fract_z
Si Si1 0.596959 0.001994 0.564531
Si Si2 0.734525 0.480302 0.035988
Si Si3 0.017869 0.908538 0.205307
Si Si4 0.750000 0.250000 0.750000
Si Si5 0.750000 0.750000 0.388157
Si Si6 0.342005 0.876307 0.662841
Si Si7 0.521931 0.387363 0.056745
Si Si8 0.283295 0.405373 0.659157
O O1 0.558794 0.921555 0.575218
O O2 0.683071 0.002429 0.542059
O O3 0.572364 0.054226 0.639288
O O4 0.563065 0.042157 0.484094
O O5 0.706304 0.409242 0.087457
O O6 0.730719 0.545854 0.101828
O O7 0.818496 0.476426 0.004537
O O8 0.063526 0.853952 0.265111
O O9 0.952982 0.858500 0.167226
O O10 0.975998 0.975998 0.250000
O O11 0.696077 0.301743 0.696464
O O12 0.701209 0.673994 0.379817
O O13 0.425929 0.863996 0.631596
O O14 0.250000 0.394373 0.750000
#
# Coordination Sequence:
#
# PCOD9563523 Si02
#       8
#    16  16  16   4   4  16  16  16
#     4  10  23  40  63  92 122 169 219 269 319 386
#     4  11  24  40  64  90 130 164 212 265 327 387
#     4  12  22  41  69  90 125 167 225 270 314 389
#     4  12  28  40  62  92 140 158 216 268 332 400
#     4  12  29  36  52  96 128 160 197 242 313 384
#     4  11  25  42  63  93 121 172 213 263 323 390
#     4  10  22  41  61  90 124 166 216 262 323 383
#     4  12  23  39  59  89 129 167 200 249 319 382
#
# _framework density 19.552610999999999
#
# number of rings (size 3 to 8) (size 9 to 14) (size 15 to 20)
#    0.000    0.923    4.615    2.538    4.308    1.231 
#    0.000    0.000    0.000    0.000    0.000    0.000 
#    0.000    0.000    0.000    0.000    0.000    0.000 
#
# Total GULP energy -579605.466518 kJ/mol
# GULP energy per Si atom -5573.129486 kJ/mol
# Density = 1.950811 g / cm^3
# Si number density = 19.552611 Si / 1000 Ang^3
#
#
#
# Elastic Constant Matrix: (Units=GPa)
#
#
# Indices 1 2 3 4 5 6 
#
# 1 88.9897 42.5126 23.3051 0.0000 0.0000 0.0000
# 2 42.5126 88.9897 23.3051 0.0000 0.0000 0.0000
# 3 23.3051 23.3051 45.0435 0.0000 0.0000 0.0000
# 4 0.0000 0.0000 0.0000 17.9742 0.0000 0.0000
# 5 0.0000 0.0000 0.0000 0.0000 17.9742 0.0000
# 6 0.0000 0.0000 0.0000 0.0000 0.0000 26.9559
#
#
#
# Elastic Compliance Matrix: (Units=1/GPa)
#
#
# Indices 1 2 3 4 5 6 
#
# 1 0.015414 -0.006102 -0.004818 0.000000 0.000000 0.000000
# 2 -0.006102 0.015414 -0.004818 0.000000 0.000000 0.000000
# 3 -0.004818 -0.004818 0.027186 0.000000 0.000000 0.000000
# 4 0.000000 0.000000 0.000000 0.055635 0.000000 0.000000
# 5 0.000000 0.000000 0.000000 0.000000 0.055635 0.000000
# 6 0.000000 0.000000 0.000000 0.000000 0.000000 0.037098
#
#
# Mechanical properties :
#
#
# Convention : Reuss Voigt Hill
#
# Bulk Modulus (GPa) = 37.68101 44.58539 41.13320
# Shear Modulus (GPa) = 20.26715 21.50754 20.88734
#
# Velocity S-wave (km/s) = 3.22303 3.32020 3.27198
# Velocity P-wave (km/s) = 5.75882 6.12785 5.94620
#
# Compressibility (1/GPa) = 0.02653857
#
# Stress axis : x y z
#
# Youngs Moduli (GPa) = 64.87579 64.87579 36.78309
#
# Poissons Ratio (x) = 0.39587 0.17722
# Poissons Ratio (y) = 0.39587 0.17722
# Poissons Ratio (z) = 0.31257 0.31257
#
# Static dielectric constant tensor:
#      x y z
#    x 1.732520 0.000000 0.000000 
#    y 0.000000 1.732520 0.000000 
#    z 0.000000 0.000000 1.745130 
# 
# From -- ./inp_files/4586.got.cif
#   From: 2010.05.17/outbox.cif.g08.bks.cpg/sg126_3_cif.got.tgz:4586.got - 2010.05.20 11:58:20.
