data_PCOD9563506
_publ_section_title
;
Structure prediction by ZEFSAII (Michael W. Deem and Ramdas Pophale) SiO2 
 PCOD9563506
Probable space group: P 4/N N C
;
_chemical_formula_sum "Si O2"
_cell_formula_units_Z 108
_cell_length_a 15.999289
_cell_length_b 15.999289
_cell_length_c 18.356724
_cell_angle_alpha 90.000000
_cell_angle_beta 90.000000
_cell_angle_gamma 90.000000
_cell_volume 4698.903701
_symmetry_space_group_name_H-M "P 4/N N C"
_symmetry_group_IT_number 126
_space_group.IT_coordinate_system_code '2'
_symmetry_cell_setting 'tetragonal'
loop_
_space_group_symop_operation_xyz
x,y,z
1/2-y,x,z
1/2-x,1/2-y,z
y,1/2-x,z
x,1/2-y,1/2-z
1/2-x,y,1/2-z
y,x,1/2-z
1/2-y,1/2-x,1/2-z
-x,-y,-z
1/2+y,-x,-z
1/2+x,1/2+y,-z
-y,1/2+x,-z
-x,1/2+y,1/2+z
1/2+x,-y,1/2+z
-y,-x,1/2+z
1/2+y,1/2+x,1/2+z
loop_
_atom_site_type_symbol
_atom_site_label
_atom_site_fract_x
_atom_site_fract_y
_atom_site_fract_z
Si Si1 0.568778 0.207859 0.176080
Si Si2 0.250000 0.750000 0.838851
Si Si3 0.568236 0.699553 0.909839
Si Si4 0.751460 0.551673 0.428865
Si Si5 0.750000 0.750000 0.863316
Si Si6 0.218180 0.866736 0.961990
Si Si7 0.403903 0.103558 0.664462
Si Si8 0.956196 0.972414 0.833842
O O1 0.533649 0.250000 0.250000
O O2 0.668343 0.204301 0.190757
O O3 0.520854 0.260231 0.113400
O O4 0.541329 0.114768 0.158356
O O5 0.204617 0.821413 0.885590
O O6 0.760558 0.646525 0.866957
O O7 0.558834 0.602559 0.889433
O O8 0.716641 0.587362 0.505109
O O9 0.791250 0.463646 0.452831
O O10 0.676325 0.540488 0.371451
O O11 0.821240 0.602586 0.385173
O O12 0.313769 0.840270 0.983456
O O13 0.384295 0.115706 0.750000
O O14 0.454001 0.016242 0.658849
O O15 0.944225 0.944225 0.750000
#
# Coordination Sequence:
#
# PCOD9563506 Si02
#       8
#    16   8  16  16   4  16  16  16
#     4  12  24  42  69 105 153 205 254 314 389 459
#     4  10  22  38  66 102 140 198 256 308 373 472
#     4  12  25  44  71 107 146 196 258 317 376 474
#     4  12  26  46  75 105 143 195 252 326 382 452
#     4  12  24  44  69  96 145 192 236 310 376 452
#     4   9  20  41  66 103 148 192 240 309 387 459
#     4  11  28  49  74 104 144 197 254 318 391 462
#     4  11  25  47  70 107 154 198 249 313 383 470
#
# _framework density 22.984086000000001
#
# number of rings (size 3 to 8) (size 9 to 14) (size 15 to 20)
#    0.000    1.037    2.963    4.222    4.148    0.889 
#    0.000    5.926    0.000    0.000    0.000    0.000 
#    0.000    0.000    0.000    0.000    0.000    0.000 
#
# Total GULP energy -601738.388095 kJ/mol
# GULP energy per Si atom -5571.651742 kJ/mol
# Density = 2.293177 g / cm^3
# Si number density = 22.984086 Si / 1000 Ang^3
#
#
#
# Elastic Constant Matrix: (Units=GPa)
#
#
# Indices 1 2 3 4 5 6 
#
# 1 102.0639 1.1799 25.3633 0.0000 0.0000 0.0000
# 2 1.1799 102.0636 25.3633 0.0000 0.0000 0.0000
# 3 25.3633 25.3633 112.4743 0.0000 0.0000 0.0000
# 4 0.0000 0.0000 0.0000 37.7799 0.0000 0.0000
# 5 0.0000 0.0000 0.0000 0.0000 37.7794 0.0000
# 6 0.0000 0.0000 0.0000 0.0000 0.0000 18.9061
#
#
#
# Elastic Compliance Matrix: (Units=1/GPa)
#
#
# Indices 1 2 3 4 5 6 
#
# 1 0.010403 0.000490 -0.002456 0.000000 0.000000 0.000000
# 2 0.000490 0.010403 -0.002456 0.000000 0.000000 0.000000
# 3 -0.002456 -0.002456 0.009999 0.000000 0.000000 0.000000
# 4 0.000000 0.000000 0.000000 0.026469 0.000000 0.000000
# 5 0.000000 0.000000 0.000000 0.000000 0.026469 0.000000
# 6 0.000000 0.000000 0.000000 0.000000 0.000000 0.052893
#
#
# Mechanical properties :
#
#
# Convention : Reuss Voigt Hill
#
# Bulk Modulus (GPa) = 45.53983 46.71274 46.12628
# Shear Modulus (GPa) = 32.72253 36.53944 34.63099
#
# Velocity S-wave (km/s) = 3.77729 3.99152 3.88588
# Velocity P-wave (km/s) = 6.23543 6.45066 6.34396
#
# Compressibility (1/GPa) = 0.02195880
#
# Stress axis : x y z
#
# Youngs Moduli (GPa) = 96.13053 96.13017 100.01258
#
# Poissons Ratio (x) = -0.04712 0.24566
# Poissons Ratio (y) = -0.04712 0.24566
# Poissons Ratio (z) = 0.23613 0.23613
#
# Static dielectric constant tensor:
#      x y z
#    x 1.917990 0.000000 0.000000 
#    y 0.000000 1.917990 0.000000 
#    z 0.000000 0.000000 2.004830 
# 
# From -- ./inp_files/6256.got.cif
#   From: 2010.05.17/outbox.cif.g08.bks.cpg/sg126_4_cif.got.tgz:6256.got - 2010.05.20 11:58:20.
