data_PCOD9563598
_publ_section_title
;
Structure prediction by ZEFSAII (Michael W. Deem and Ramdas Pophale) SiO2 
 PCOD9563598
Probable space group: P 4/N N C
;
_chemical_formula_sum "Si O2"
_cell_formula_units_Z 72
_cell_length_a 16.604010
_cell_length_b 16.604010
_cell_length_c 10.939223
_cell_angle_alpha 90.000000
_cell_angle_beta 90.000000
_cell_angle_gamma 90.000000
_cell_volume 3015.868826
_symmetry_space_group_name_H-M "P 4/N N C"
_symmetry_group_IT_number 126
_space_group.IT_coordinate_system_code '2'
_symmetry_cell_setting 'tetragonal'
loop_
_space_group_symop_operation_xyz
x,y,z
1/2-y,x,z
1/2-x,1/2-y,z
y,1/2-x,z
x,1/2-y,1/2-z
1/2-x,y,1/2-z
y,x,1/2-z
1/2-y,1/2-x,1/2-z
-x,-y,-z
1/2+y,-x,-z
1/2+x,1/2+y,-z
-y,1/2+x,-z
-x,1/2+y,1/2+z
1/2+x,-y,1/2+z
-y,-x,1/2+z
1/2+y,1/2+x,1/2+z
loop_
_atom_site_type_symbol
_atom_site_label
_atom_site_fract_x
_atom_site_fract_y
_atom_site_fract_z
Si Si1 0.465988 0.157852 0.293650
Si Si2 0.200957 0.369885 0.000708
Si Si3 0.155960 0.664447 0.471917
Si Si4 0.427416 0.871685 0.217479
Si Si5 0.069167 0.250000 0.750000
O O1 0.479679 0.250000 0.250000
O O2 0.383145 0.116856 0.250000
O O3 0.450744 0.167432 0.438958
O O4 0.535824 0.096772 0.254042
O O5 0.149095 0.292701 0.037920
O O6 0.211125 0.379864 0.857554
O O7 0.148330 0.749273 0.542485
O O8 0.115498 0.668932 0.338109
O O9 0.131157 0.602205 0.576598
O O10 0.511783 0.824829 0.210750
#
# Coordination Sequence:
#
# PCOD9563598 Si02
#       5
#    16  16  16  16   8
#     4  12  26  46  75 108 147 193 255 328 384 445
#     4  11  25  49  79 106 141 196 262 320 381 455
#     4  11  21  40  66  98 138 197 251 295 347 441
#     4  12  26  43  70 107 154 196 245 304 385 456
#     4  12  26  47  71 114 156 202 240 318 382 480
#
# _framework density 23.873718
#
# number of rings (size 3 to 8) (size 9 to 14) (size 15 to 20)
#    0.000    0.444    4.444    4.000    3.111    4.667 
#    0.000    3.333    0.000    0.000    0.000    0.000 
#    0.000    0.000    0.000    0.000    0.000    0.000 
#
# Total GULP energy -401312.468432 kJ/mol
# GULP energy per Si atom -5573.784284 kJ/mol
# Density = 2.381938 g / cm^3
# Si number density = 23.873718 Si / 1000 Ang^3
#
#
#
# Elastic Constant Matrix: (Units=GPa)
#
#
# Indices 1 2 3 4 5 6 
#
# 1 57.1648 34.0222 -1.9805 0.0000 0.0000 0.0000
# 2 34.0222 57.1613 -1.9793 0.0000 0.0000 0.0000
# 3 -1.9805 -1.9793 82.1128 0.0000 0.0000 0.0000
# 4 0.0000 0.0000 0.0000 17.5450 0.0000 0.0000
# 5 0.0000 0.0000 0.0000 0.0000 17.5460 0.0000
# 6 0.0000 0.0000 0.0000 0.0000 0.0000 5.9297
#
#
#
# Elastic Compliance Matrix: (Units=1/GPa)
#
#
# Indices 1 2 3 4 5 6 
#
# 1 0.027095 -0.016118 0.000265 0.000000 0.000000 0.000000
# 2 -0.016118 0.027097 0.000264 0.000000 0.000000 0.000000
# 3 0.000265 0.000264 0.012191 0.000000 0.000000 0.000000
# 4 0.000000 0.000000 0.000000 0.056996 0.000000 0.000000
# 5 0.000000 0.000000 0.000000 0.000000 0.056993 0.000000
# 6 0.000000 0.000000 0.000000 0.000000 0.000000 0.168642
#
#
# Mechanical properties :
#
#
# Convention : Reuss Voigt Hill
#
# Bulk Modulus (GPa) = 28.40401 28.50710 28.45556
# Shear Modulus (GPa) = 12.75750 19.29593 16.02672
#
# Velocity S-wave (km/s) = 2.31416 2.84606 2.59378
# Velocity P-wave (km/s) = 4.36622 4.77145 4.57333
#
# Compressibility (1/GPa) = 0.03520629
#
# Stress axis : x y z
#
# Youngs Moduli (GPa) = 36.90709 36.90487 82.02687
#
# Poissons Ratio (x) = 0.59482 -0.02174
# Poissons Ratio (y) = 0.59486 -0.02169
# Poissons Ratio (z) = -0.00978 -0.00976
#
# Static dielectric constant tensor:
#      x y z
#    x 1.943340 0.000000 0.000000 
#    y 0.000000 1.943350 0.000000 
#    z 0.000000 0.000000 1.954930 
# 
# From -- ./inp_files/2680.got.cif
#   From: 2010.05.17/outbox.cif.g08.bks.cpg/sg126_2_cif.got.tgz:2680.got - 2010.05.20 11:58:20.
