data_PCOD9563619
_publ_section_title
;
Structure prediction by ZEFSAII (Michael W. Deem and Ramdas Pophale) SiO2 
 PCOD9563619
Probable space group: P 4/N N C
;
_chemical_formula_sum "Si O2"
_cell_formula_units_Z 128
_cell_length_a 22.628721
_cell_length_b 22.628721
_cell_length_c 12.961823
_cell_angle_alpha 90.000000
_cell_angle_beta 90.000000
_cell_angle_gamma 90.000000
_cell_volume 6637.218306
_symmetry_space_group_name_H-M "P 4/N N C"
_symmetry_group_IT_number 126
_space_group.IT_coordinate_system_code '2'
_symmetry_cell_setting 'tetragonal'
loop_
_space_group_symop_operation_xyz
x,y,z
1/2-y,x,z
1/2-x,1/2-y,z
y,1/2-x,z
x,1/2-y,1/2-z
1/2-x,y,1/2-z
y,x,1/2-z
1/2-y,1/2-x,1/2-z
-x,-y,-z
1/2+y,-x,-z
1/2+x,1/2+y,-z
-y,1/2+x,-z
-x,1/2+y,1/2+z
1/2+x,-y,1/2+z
-y,-x,1/2+z
1/2+y,1/2+x,1/2+z
loop_
_atom_site_type_symbol
_atom_site_label
_atom_site_fract_x
_atom_site_fract_y
_atom_site_fract_z
Si Si1 0.944214 0.572079 0.049493
Si Si2 0.651442 0.756080 0.034678
Si Si3 0.967234 0.894016 0.676925
Si Si4 0.065351 0.932607 0.333028
Si Si5 0.540891 0.186244 0.716647
Si Si6 0.481452 0.843748 0.506894
Si Si7 0.240050 0.049476 0.130582
Si Si8 0.589554 0.822846 0.191786
O O1 0.926745 0.636432 0.091875
O O2 0.999467 0.555253 0.122139
O O3 0.963487 0.572381 0.930896
O O4 0.886339 0.531437 0.044402
O O5 0.689680 0.697080 0.032588
O O6 0.607595 0.758831 0.939184
O O7 0.614921 0.763542 0.140318
O O8 0.909989 0.909989 0.750000
O O9 0.975330 0.826585 0.639716
O O10 0.020656 0.917091 0.745713
O O11 0.066817 0.868296 0.281181
O O12 0.112888 0.941834 0.423766
O O13 0.563501 0.250000 0.750000
O O14 0.549845 0.181062 0.594392
O O15 0.470911 0.183842 0.745797
O O16 0.508582 0.791341 0.578766
O O17 0.250000 0.063998 0.250000
O O18 0.638900 0.861101 0.250000
#
# Coordination Sequence:
#
# PCOD9563619 Si02
#       8
#    16  16  16  16  16  16  16  16
#     4  11  22  39  62  93 129 167 218 273 342 397
#     4  11  26  42  59  86 122 178 245 295 324 370
#     4  12  24  40  64  97 133 173 221 283 336 405
#     4  11  25  40  67 100 134 173 217 279 344 417
#     4  11  26  42  64  99 135 172 214 266 346 411
#     4  12  23  42  66  95 133 177 219 278 331 413
#     4  12  25  42  66  90 129 176 232 275 343 400
#     4  11  22  38  64  85 125 174 220 278 328 388
#
# _framework density 19.285187000000001
#
# number of rings (size 3 to 8) (size 9 to 14) (size 15 to 20)
#    0.000    0.625    5.000    2.625    7.000    0.000 
#    0.000    1.250    0.000    0.000    0.000    1.750 
#    0.000    0.000    0.000    0.000    0.000    0.000 
#
# Total GULP energy -715285.511344 kJ/mol
# GULP energy per Si atom -5588.168057 kJ/mol
# Density = 1.924129 g / cm^3
# Si number density = 19.285187 Si / 1000 Ang^3
#
#
#
# Elastic Constant Matrix: (Units=GPa)
#
#
# Indices 1 2 3 4 5 6 
#
# 1 85.7399 44.3563 35.5372 0.0000 0.0000 0.0000
# 2 44.3563 85.7401 35.5375 0.0000 0.0000 0.0000
# 3 35.5372 35.5375 136.7029 0.0000 0.0000 0.0000
# 4 0.0000 0.0000 0.0000 17.3282 0.0000 0.0000
# 5 0.0000 0.0000 0.0000 0.0000 17.3275 0.0000
# 6 0.0000 0.0000 0.0000 0.0000 0.0000 26.1434
#
#
#
# Elastic Compliance Matrix: (Units=1/GPa)
#
#
# Indices 1 2 3 4 5 6 
#
# 1 0.016562 -0.007603 -0.002329 0.000000 0.000000 0.000000
# 2 -0.007603 0.016562 -0.002329 0.000000 0.000000 0.000000
# 3 -0.002329 -0.002329 0.008526 0.000000 0.000000 0.000000
# 4 0.000000 0.000000 0.000000 0.057709 0.000000 0.000000
# 5 0.000000 0.000000 0.000000 0.000000 0.057712 0.000000
# 6 0.000000 0.000000 0.000000 0.000000 0.000000 0.038251
#
#
# Mechanical properties :
#
#
# Convention : Reuss Voigt Hill
#
# Bulk Modulus (GPa) = 58.38369 59.89388 59.13878
# Shear Modulus (GPa) = 22.16792 25.00995 23.58894
#
# Velocity S-wave (km/s) = 3.39408 3.60508 3.50117
# Velocity P-wave (km/s) = 6.76012 6.96083 6.86121
#
# Compressibility (1/GPa) = 0.01712807
#
# Stress axis : x y z
#
# Youngs Moduli (GPa) = 60.38080 60.38083 117.28801
#
# Poissons Ratio (x) = 0.45905 0.27316
# Poissons Ratio (y) = 0.45905 0.27316
# Poissons Ratio (z) = 0.14062 0.14063
#
# Static dielectric constant tensor:
#      x y z
#    x 1.706810 0.000000 0.000000 
#    y 0.000000 1.706810 0.000000 
#    z 0.000000 0.000000 1.693600 
# 
# From -- ./inp_files/3089.got.cif
#   From: 2010.05.17/outbox.cif.g08.bks.cpg/sg126_2_cif.got.tgz:3089.got - 2010.05.20 11:58:20.
