data_PCOD9563627
_publ_section_title
;
Structure prediction by ZEFSAII (Michael W. Deem and Ramdas Pophale) SiO2 
 PCOD9563627
Probable space group: P 4/N N C
;
_chemical_formula_sum "Si O2"
_cell_formula_units_Z 48
_cell_length_a 9.848250
_cell_length_b 9.848250
_cell_length_c 26.825558
_cell_angle_alpha 90.000000
_cell_angle_beta 90.000000
_cell_angle_gamma 90.000000
_cell_volume 2601.757972
_symmetry_space_group_name_H-M "P 4/N N C"
_symmetry_group_IT_number 126
_space_group.IT_coordinate_system_code '2'
_symmetry_cell_setting 'tetragonal'
loop_
_space_group_symop_operation_xyz
x,y,z
1/2-y,x,z
1/2-x,1/2-y,z
y,1/2-x,z
x,1/2-y,1/2-z
1/2-x,y,1/2-z
y,x,1/2-z
1/2-y,1/2-x,1/2-z
-x,-y,-z
1/2+y,-x,-z
1/2+x,1/2+y,-z
-y,1/2+x,-z
-x,1/2+y,1/2+z
1/2+x,-y,1/2+z
-y,-x,1/2+z
1/2+y,1/2+x,1/2+z
loop_
_atom_site_type_symbol
_atom_site_label
_atom_site_fract_x
_atom_site_fract_y
_atom_site_fract_z
Si Si1 0.968263 0.676782 0.627932
Si Si2 0.089869 0.622186 0.519533
Si Si3 0.889303 0.097556 0.728750
O O1 0.916186 0.832496 0.633078
O O2 0.036294 0.661958 0.573903
O O3 0.075258 0.628799 0.669823
O O4 0.079874 0.752699 0.483340
O O5 0.000000 0.500000 0.500000
O O6 0.896888 0.250000 0.750000
O O7 0.750000 0.034791 0.750000
O O8 0.014841 0.014841 0.750000
#
# Coordination Sequence:
#
# PCOD9563627 Si02
#       3
#    16  16  16
#     4  11  22  40  71  97 129 180 225 270 333 401
#     4  11  24  41  65  98 134 173 220 276 332 391
#     4  11  24  41  66  99 132 167 218 277 328 391
#
# _framework density 18.449062999999999
#
# number of rings (size 3 to 8) (size 9 to 14) (size 15 to 20)
#    0.000    1.000    6.667    0.000    0.000    9.333 
#    0.000    0.000    0.000    4.000    0.000    0.000 
#    0.000    0.000    0.000    0.000    0.000    0.000 
#
# Total GULP energy -267918.583917 kJ/mol
# GULP energy per Si atom -5581.637165 kJ/mol
# Density = 1.840707 g / cm^3
# Si number density = 18.449063 Si / 1000 Ang^3
#
#
#
# Elastic Constant Matrix: (Units=GPa)
#
#
# Indices 1 2 3 4 5 6 
#
# 1 106.9913 66.7679 41.4903 0.0000 0.0000 0.0000
# 2 66.7679 106.9913 41.4903 0.0000 0.0000 0.0000
# 3 41.4903 41.4903 129.9681 0.0000 0.0000 0.0000
# 4 0.0000 0.0000 0.0000 34.4066 0.0000 0.0000
# 5 0.0000 0.0000 0.0000 0.0000 34.4066 0.0000
# 6 0.0000 0.0000 0.0000 0.0000 0.0000 33.8892
#
#
#
# Elastic Compliance Matrix: (Units=1/GPa)
#
#
# Indices 1 2 3 4 5 6 
#
# 1 0.015826 -0.009035 -0.002168 0.000000 0.000000 0.000000
# 2 -0.009035 0.015826 -0.002168 0.000000 0.000000 0.000000
# 3 -0.002168 -0.002168 0.009078 0.000000 0.000000 0.000000
# 4 0.000000 0.000000 0.000000 0.029064 0.000000 0.000000
# 5 0.000000 0.000000 0.000000 0.000000 0.029064 0.000000
# 6 0.000000 0.000000 0.000000 0.000000 0.000000 0.029508
#
#
# Mechanical properties :
#
#
# Convention : Reuss Voigt Hill
#
# Bulk Modulus (GPa) = 71.48981 71.49421 71.49201
# Shear Modulus (GPa) = 31.29493 33.48729 32.39111
#
# Velocity S-wave (km/s) = 4.12307 4.26505 4.19466
# Velocity P-wave (km/s) = 7.84221 7.94295 7.89274
#
# Compressibility (1/GPa) = 0.01398801
#
# Stress axis : x y z
#
# Youngs Moduli (GPa) = 63.18823 63.18823 110.15394
#
# Poissons Ratio (x) = 0.57093 0.23878
# Poissons Ratio (y) = 0.57093 0.23878
# Poissons Ratio (z) = 0.13697 0.13697
#
# Static dielectric constant tensor:
#      x y z
#    x 1.639980 0.000000 0.000000 
#    y 0.000000 1.639980 0.000000 
#    z 0.000000 0.000000 1.647300 
# 
# From -- ./inp_files/6315.got.cif
#   From: 2010.05.17/outbox.cif.g08.bks.cpg/sg126_4_cif.got.tgz:6315.got - 2010.05.20 11:58:20.
