data_PCOD9563380
_publ_section_title
;
Structure prediction by ZEFSAII (Michael W. Deem and Ramdas Pophale) SiO2 
 PCOD9563380
Probable space group: P 4/N N C
;
_chemical_formula_sum "Si O2"
_cell_formula_units_Z 88
_cell_length_a 14.572930
_cell_length_b 14.572930
_cell_length_c 21.522481
_cell_angle_alpha 90.000000
_cell_angle_beta 90.000000
_cell_angle_gamma 90.000000
_cell_volume 4570.735505
_symmetry_space_group_name_H-M "P 4/N N C"
_symmetry_group_IT_number 126
_space_group.IT_coordinate_system_code '2'
_symmetry_cell_setting 'tetragonal'
loop_
_space_group_symop_operation_xyz
x,y,z
1/2-y,x,z
1/2-x,1/2-y,z
y,1/2-x,z
x,1/2-y,1/2-z
1/2-x,y,1/2-z
y,x,1/2-z
1/2-y,1/2-x,1/2-z
-x,-y,-z
1/2+y,-x,-z
1/2+x,1/2+y,-z
-y,1/2+x,-z
-x,1/2+y,1/2+z
1/2+x,-y,1/2+z
-y,-x,1/2+z
1/2+y,1/2+x,1/2+z
loop_
_atom_site_type_symbol
_atom_site_label
_atom_site_fract_x
_atom_site_fract_y
_atom_site_fract_z
Si Si1 0.934634 0.460888 0.375001
Si Si2 0.325267 0.878965 0.518918
Si Si3 0.389526 0.306927 0.325889
Si Si4 0.460286 0.039715 0.250000
Si Si5 0.858410 0.646955 0.417854
Si Si6 0.880768 0.934464 0.951467
O O1 0.853003 0.403885 0.409484
O O2 0.917995 0.568822 0.386107
O O3 0.960690 0.453496 0.302447
O O4 0.022843 0.431590 0.415765
O O5 0.369209 0.783388 0.495030
O O6 0.363749 0.965166 0.480156
O O7 0.297191 0.364956 0.311749
O O8 0.465243 0.365766 0.290165
O O9 0.411661 0.307804 0.398584
O O10 0.875326 0.752392 0.402480
O O11 0.874688 0.634672 0.491357
#
# Coordination Sequence:
#
# PCOD9563380 Si02
#       6
#    16  16  16   8  16  16
#     4  10  23  37  59  82 120 156 201 238 303 359
#     4  10  22  37  59  87 119 157 199 249 304 356
#     4  10  20  35  59  88 120 154 191 243 297 362
#     4  10  22  39  54  83 114 162 198 228 290 360
#     4  10  20  34  58  88 117 147 188 252 313 356
#     4  10  21  32  59  88 121 149 191 237 315 358
#
# _framework density 19.252918000000001
#
# number of rings (size 3 to 8) (size 9 to 14) (size 15 to 20)
#    0.000    2.000    0.000    3.818   15.273    2.182 
#    0.000    0.909    0.000    1.091    0.000   10.182 
#    0.000    0.000    0.000    0.000    0.000    0.000 
#
# Total GULP energy -490805.271887 kJ/mol
# GULP energy per Si atom -5577.332635 kJ/mol
# Density = 1.920910 g / cm^3
# Si number density = 19.252918 Si / 1000 Ang^3
#
#
#
# Elastic Constant Matrix: (Units=GPa)
#
#
# Indices 1 2 3 4 5 6 
#
# 1 41.9876 3.8857 20.1629 0.0000 0.0000 0.0000
# 2 3.8857 41.9878 20.1629 0.0000 0.0000 0.0000
# 3 20.1629 20.1629 119.9786 0.0000 0.0000 0.0000
# 4 0.0000 0.0000 0.0000 25.4937 0.0000 0.0000
# 5 0.0000 0.0000 0.0000 0.0000 25.4938 0.0000
# 6 0.0000 0.0000 0.0000 0.0000 0.0000 31.0796
#
#
#
# Elastic Compliance Matrix: (Units=1/GPa)
#
#
# Indices 1 2 3 4 5 6 
#
# 1 0.025912 -0.000334 -0.004298 0.000000 0.000000 0.000000
# 2 -0.000334 0.025911 -0.004298 0.000000 0.000000 0.000000
# 3 -0.004298 -0.004298 0.009780 0.000000 0.000000 0.000000
# 4 0.000000 0.000000 0.000000 0.039225 0.000000 0.000000
# 5 0.000000 0.000000 0.000000 0.000000 0.039225 0.000000
# 6 0.000000 0.000000 0.000000 0.000000 0.000000 0.032175
#
#
# Mechanical properties :
#
#
# Convention : Reuss Voigt Hill
#
# Bulk Modulus (GPa) = 22.86171 32.48633 27.67402
# Shear Modulus (GPa) = 24.42951 27.06292 25.74621
#
# Velocity S-wave (km/s) = 3.56599 3.75327 3.66083
# Velocity P-wave (km/s) = 5.37171 5.97435 5.68102
#
# Compressibility (1/GPa) = 0.04374127
#
# Stress axis : x y z
#
# Youngs Moduli (GPa) = 38.59273 38.59296 102.25411
#
# Poissons Ratio (x) = 0.01288 0.43953
# Poissons Ratio (y) = 0.01288 0.43953
# Poissons Ratio (z) = 0.16589 0.16589
#
# Static dielectric constant tensor:
#      x y z
#    x 1.694130 0.000000 0.000000 
#    y 0.000000 1.694130 0.000000 
#    z 0.000000 0.000000 1.723750 
# 
# From -- ./inp_files/5151.got.cif
#   From: 2010.05.17/outbox.cif.g08.bks.cpg/sg126_3_cif.got.tgz:5151.got - 2010.05.20 11:58:20.
