data_PCOD9563129
_publ_section_title
;
Structure prediction by ZEFSAII (Michael W. Deem and Ramdas Pophale) SiO2 
 PCOD9563129
Probable space group: P 4/N B M
;
_chemical_formula_sum "Si O2"
_cell_formula_units_Z 64
_cell_length_a 12.378080
_cell_length_b 12.378080
_cell_length_c 19.319241
_cell_angle_alpha 90.000000
_cell_angle_beta 90.000000
_cell_angle_gamma 90.000000
_cell_volume 2960.033530
_symmetry_space_group_name_H-M "P 4/N B M"
_symmetry_group_IT_number 125
_space_group.IT_coordinate_system_code '2'
_symmetry_cell_setting 'tetragonal'
loop_
_space_group_symop_operation_xyz
x,y,z
1/2-y,x,z
1/2-x,1/2-y,z
y,1/2-x,z
x,1/2-y,-z
1/2-x,y,-z
y,x,-z
1/2-y,1/2-x,-z
-x,-y,-z
1/2+y,-x,-z
1/2+x,1/2+y,-z
-y,1/2+x,-z
-x,1/2+y,z
1/2+x,-y,z
-y,-x,z
1/2+y,1/2+x,z
loop_
_atom_site_type_symbol
_atom_site_label
_atom_site_fract_x
_atom_site_fract_y
_atom_site_fract_z
Si Si1 0.742837 0.072785 0.172311
Si Si2 0.839429 0.982503 0.547554
Si Si3 0.425776 0.224523 0.298538
Si Si4 0.019365 0.340434 0.953368
O O1 0.838953 0.161048 0.175919
O O2 0.637189 0.137189 0.145715
O O3 0.717030 0.026125 0.247477
O O4 0.783059 0.976931 0.121408
O O5 0.750000 0.038898 0.500000
O O6 0.883723 0.883723 0.500000
O O7 0.787160 0.951711 0.620430
O O8 0.940643 0.059357 0.561680
O O9 0.368633 0.338682 0.284387
O O10 0.945001 0.445001 0.944065
O O11 0.961428 0.250000 0.000000
O O12 0.121006 0.378995 0.000000
#
# Coordination Sequence:
#
# PCOD9563129 Si02
#       4
#    16  16  16  16
#     4  10  23  42  65  95 133 175 218 268 331 401
#     4  11  23  41  67  96 128 171 217 268 330 395
#     4  11  24  41  66  96 130 173 221 273 331 390
#     4  10  22  40  64  94 124 164 212 262 319 383
#
# _framework density 21.621376999999999
#
# number of rings (size 3 to 8) (size 9 to 14) (size 15 to 20)
#    0.000    1.500    2.500    1.500    3.500    5.000 
#    0.000    0.000    0.000    0.000    0.000    0.000 
#    0.000    0.000    0.000    0.000    0.000    0.000 
#
# Total GULP energy -357101.303954 kJ/mol
# GULP energy per Si atom -5579.707874 kJ/mol
# Density = 2.157217 g / cm^3
# Si number density = 21.621377 Si / 1000 Ang^3
#
#
#
# Elastic Constant Matrix: (Units=GPa)
#
#
# Indices 1 2 3 4 5 6 
#
# 1 61.4632 19.2421 36.8462 0.0000 0.0000 0.0000
# 2 19.2421 61.4633 36.8464 0.0000 0.0000 0.0000
# 3 36.8462 36.8464 140.7949 0.0000 0.0000 0.0000
# 4 0.0000 0.0000 0.0000 31.8094 0.0000 0.0000
# 5 0.0000 0.0000 0.0000 0.0000 31.8090 0.0000
# 6 0.0000 0.0000 0.0000 0.0000 0.0000 -15.9704
#
#
#
# Elastic Compliance Matrix: (Units=1/GPa)
#
#
# Indices 1 2 3 4 5 6 
#
# 1 0.019983 -0.003702 -0.004261 0.000000 0.000000 0.000000
# 2 -0.003702 0.019983 -0.004261 0.000000 0.000000 0.000000
# 3 -0.004261 -0.004261 0.009333 0.000000 0.000000 0.000000
# 4 0.000000 0.000000 0.000000 0.031437 0.000000 0.000000
# 5 0.000000 0.000000 0.000000 0.000000 0.031438 0.000000
# 6 0.000000 0.000000 0.000000 0.000000 0.000000 -0.062616
#
#
# Mechanical properties :
#
#
# Convention : Reuss Voigt Hill
#
# Bulk Modulus (GPa) = 40.23826 49.95453 45.09640
# Shear Modulus (GPa) = 60.76150 20.91538 40.83844
#
# Velocity S-wave (km/s) = 5.30693 3.11359 4.35075
# Velocity P-wave (km/s) = 7.49681 6.00669 6.79274
#
# Compressibility (1/GPa) = 0.02485197
#
# Stress axis : x y z
#
# Youngs Moduli (GPa) = 50.04225 50.04233 107.15028
#
# Poissons Ratio (x) = 0.18524 0.45655
# Poissons Ratio (y) = 0.18524 0.45655
# Poissons Ratio (z) = 0.21322 0.21322
#
# Static dielectric constant tensor:
#      x y z
#    x 1.817480 0.000000 0.000000 
#    y 0.000000 1.817480 0.000000 
#    z 0.000000 0.000000 1.787760 
# 
# From -- ./inp_files/5721.got.cif
#   From: 2010.05.17/outbox.cif.g08.bks.cpg/sg125_3_cif.got.tgz:5721.got - 2010.05.20 11:54:10.
