data_PCOD9563665
_publ_section_title
;
Structure prediction by ZEFSAII (Michael W. Deem and Ramdas Pophale) SiO2 
 PCOD9563665
Probable space group: P 4/N N C
;
_chemical_formula_sum "Si O2"
_cell_formula_units_Z 40
_cell_length_a 7.956041
_cell_length_b 7.956041
_cell_length_c 28.871347
_cell_angle_alpha 90.000000
_cell_angle_beta 90.000000
_cell_angle_gamma 90.000000
_cell_volume 1827.515510
_symmetry_space_group_name_H-M "P 4/N N C"
_symmetry_group_IT_number 126
_space_group.IT_coordinate_system_code '2'
_symmetry_cell_setting 'tetragonal'
loop_
_space_group_symop_operation_xyz
x,y,z
1/2-y,x,z
1/2-x,1/2-y,z
y,1/2-x,z
x,1/2-y,1/2-z
1/2-x,y,1/2-z
y,x,1/2-z
1/2-y,1/2-x,1/2-z
-x,-y,-z
1/2+y,-x,-z
1/2+x,1/2+y,-z
-y,1/2+x,-z
-x,1/2+y,1/2+z
1/2+x,-y,1/2+z
-y,-x,1/2+z
1/2+y,1/2+x,1/2+z
loop_
_atom_site_type_symbol
_atom_site_label
_atom_site_fract_x
_atom_site_fract_y
_atom_site_fract_z
Si Si1 0.483290 0.655872 0.328321
Si Si2 0.655354 0.483715 0.577122
Si Si3 0.250000 0.750000 0.750000
Si Si4 0.250000 0.750000 0.000000
O O1 0.650918 0.544189 0.327136
O O2 0.387329 0.609888 0.375258
O O3 0.365045 0.638397 0.283852
O O4 0.848931 0.543268 0.575364
O O5 0.633156 0.359931 0.533821
#
# Coordination Sequence:
#
# PCOD9563665 Si02
#       4
#    16  16   4   4
#     4  11  24  43  67  95 132 178 222 268 328 396
#     4  11  24  42  65  95 133 176 223 278 335 391
#     4  12  22  38  64  96 128 162 214 270 312 380
#     4  12  22  40  64  94 132 176 226 276 328 402
#
# _framework density 21.887642
#
# number of rings (size 3 to 8) (size 9 to 14) (size 15 to 20)
#    0.000    0.800    0.000    8.400    0.000    1.600 
#    0.000    4.000    0.000    2.400    0.000    0.000 
#    0.000    0.000    0.000    0.000    0.000    0.000 
#
# Total GULP energy -224019.009095 kJ/mol
# GULP energy per Si atom -5600.475227 kJ/mol
# Density = 2.183782 g / cm^3
# Si number density = 21.887642 Si / 1000 Ang^3
#
#
#
# Elastic Constant Matrix: (Units=GPa)
#
#
# Indices 1 2 3 4 5 6 
#
# 1 99.5984 26.2537 59.5506 0.0000 0.0000 0.0000
# 2 26.2537 99.5984 59.5506 0.0000 0.0000 0.0000
# 3 59.5506 59.5506 204.5633 0.0000 0.0000 0.0000
# 4 0.0000 0.0000 0.0000 31.8025 0.0000 0.0000
# 5 0.0000 0.0000 0.0000 0.0000 31.8025 0.0000
# 6 0.0000 0.0000 0.0000 0.0000 0.0000 33.8249
#
#
#
# Elastic Compliance Matrix: (Units=1/GPa)
#
#
# Indices 1 2 3 4 5 6 
#
# 1 0.012301 -0.001333 -0.003193 0.000000 0.000000 0.000000
# 2 -0.001333 0.012301 -0.003193 0.000000 0.000000 0.000000
# 3 -0.003193 -0.003193 0.006747 0.000000 0.000000 0.000000
# 4 0.000000 0.000000 0.000000 0.031444 0.000000 0.000000
# 5 0.000000 0.000000 0.000000 0.000000 0.031444 0.000000
# 6 0.000000 0.000000 0.000000 0.000000 0.000000 0.029564
#
#
# Mechanical properties :
#
#
# Convention : Reuss Voigt Hill
#
# Bulk Modulus (GPa) = 62.84928 77.16334 70.00631
# Shear Modulus (GPa) = 34.59188 36.71296 35.65242
#
# Velocity S-wave (km/s) = 3.97977 4.09997 4.04032
# Velocity P-wave (km/s) = 7.06364 7.59894 7.33617
#
# Compressibility (1/GPa) = 0.01591108
#
# Stress axis : x y z
#
# Youngs Moduli (GPa) = 81.29578 81.29578 148.20699
#
# Poissons Ratio (x) = 0.10841 0.47318
# Poissons Ratio (y) = 0.10841 0.47318
# Poissons Ratio (z) = 0.25955 0.25955
#
# Static dielectric constant tensor:
#      x y z
#    x 1.818020 0.000000 0.000000 
#    y 0.000000 1.818020 0.000000 
#    z 0.000000 0.000000 1.757210 
# 
# From -- ./inp_files/5565.got.cif
#   From: 2010.05.17/outbox.cif.g08.bks.cpg/sg126_3_cif.got.tgz:5565.got - 2010.05.20 11:58:20.
