data_PCOD9563639
_publ_section_title
;
Structure prediction by ZEFSAII (Michael W. Deem and Ramdas Pophale) SiO2 
 PCOD9563639
Probable space group: P 4/N N C
;
_chemical_formula_sum "Si O2"
_cell_formula_units_Z 48
_cell_length_a 10.227423
_cell_length_b 10.227423
_cell_length_c 24.347724
_cell_angle_alpha 90.000000
_cell_angle_beta 90.000000
_cell_angle_gamma 90.000000
_cell_volume 2546.776343
_symmetry_space_group_name_H-M "P 4/N N C"
_symmetry_group_IT_number 126
_space_group.IT_coordinate_system_code '2'
_symmetry_cell_setting 'tetragonal'
loop_
_space_group_symop_operation_xyz
x,y,z
1/2-y,x,z
1/2-x,1/2-y,z
y,1/2-x,z
x,1/2-y,1/2-z
1/2-x,y,1/2-z
y,x,1/2-z
1/2-y,1/2-x,1/2-z
-x,-y,-z
1/2+y,-x,-z
1/2+x,1/2+y,-z
-y,1/2+x,-z
-x,1/2+y,1/2+z
1/2+x,-y,1/2+z
-y,-x,1/2+z
1/2+y,1/2+x,1/2+z
loop_
_atom_site_type_symbol
_atom_site_label
_atom_site_fract_x
_atom_site_fract_y
_atom_site_fract_z
Si Si1 0.248733 0.028999 0.311159
Si Si2 0.780043 0.400595 0.925697
Si Si3 0.950231 0.667285 0.025733
O O1 0.374382 0.123934 0.315143
O O2 0.250000 0.969234 0.250000
O O3 0.243504 0.933663 0.362503
O O4 0.750000 0.250000 0.937679
O O5 0.932536 0.402938 0.942385
O O6 0.692151 0.496293 0.963462
O O7 0.912582 0.818325 0.038075
#
# Coordination Sequence:
#
# PCOD9563639 Si02
#       3
#    16  16  16
#     4   9  20  39  62  86 113 149 193 243 293 337
#     4  12  22  35  58  87 118 153 190 238 292 350
#     4  11  23  38  56  84 120 156 193 238 288 344
#
# _framework density 18.847356000000001
#
# number of rings (size 3 to 8) (size 9 to 14) (size 15 to 20)
#    0.000    1.333    3.333    4.000    4.667    3.333 
#    0.000    0.000    0.000    0.000    0.000    0.000 
#    0.000    0.000    0.000    0.000    0.000    0.000 
#
# Total GULP energy -267656.008707 kJ/mol
# GULP energy per Si atom -5576.166848 kJ/mol
# Density = 1.880446 g / cm^3
# Si number density = 18.847356 Si / 1000 Ang^3
#
#
#
# Elastic Constant Matrix: (Units=GPa)
#
#
# Indices 1 2 3 4 5 6 
#
# 1 60.5622 26.3579 18.8468 0.0000 0.0000 0.0000
# 2 26.3579 60.5622 18.8468 0.0000 0.0000 0.0000
# 3 18.8468 18.8468 126.9849 0.0000 0.0000 0.0000
# 4 0.0000 0.0000 0.0000 26.9664 0.0000 0.0000
# 5 0.0000 0.0000 0.0000 0.0000 26.9664 0.0000
# 6 0.0000 0.0000 0.0000 0.0000 0.0000 28.3810
#
#
#
# Elastic Compliance Matrix: (Units=1/GPa)
#
#
# Indices 1 2 3 4 5 6 
#
# 1 0.020766 -0.008470 -0.001825 0.000000 0.000000 0.000000
# 2 -0.008470 0.020766 -0.001825 0.000000 0.000000 0.000000
# 3 -0.001825 -0.001825 0.008417 0.000000 0.000000 0.000000
# 4 0.000000 0.000000 0.000000 0.037083 0.000000 0.000000
# 5 0.000000 0.000000 0.000000 0.000000 0.037083 0.000000
# 6 0.000000 0.000000 0.000000 0.000000 0.000000 0.035235
#
#
# Mechanical properties :
#
#
# Convention : Reuss Voigt Hill
#
# Bulk Modulus (GPa) = 38.89656 41.80139 40.34897
# Shear Modulus (GPa) = 26.02000 28.73326 27.37663
#
# Velocity S-wave (km/s) = 3.71963 3.90875 3.81536
# Velocity P-wave (km/s) = 6.25540 6.52673 6.39250
#
# Compressibility (1/GPa) = 0.02570921
#
# Stress axis : x y z
#
# Youngs Moduli (GPa) = 48.15523 48.15523 118.81186
#
# Poissons Ratio (x) = 0.40787 0.21683
# Poissons Ratio (y) = 0.40787 0.21683
# Poissons Ratio (z) = 0.08788 0.08788
#
# Static dielectric constant tensor:
#      x y z
#    x 1.700020 0.000000 0.000000 
#    y 0.000000 1.700020 0.000000 
#    z 0.000000 0.000000 1.650140 
# 
# From -- ./inp_files/4152.got.cif
#   From: 2010.05.17/outbox.cif.g08.bks.cpg/sg126_3_cif.got.tgz:4152.got - 2010.05.20 11:58:20.
