data_PCOD9563926
_publ_section_title
;
Structure prediction by ZEFSAII (Michael W. Deem and Ramdas Pophale) SiO2 
 PCOD9563926
Probable space group: P 4/M B M
;
_chemical_formula_sum "Si O2"
_cell_formula_units_Z 72
_cell_length_a 20.740882
_cell_length_b 20.740882
_cell_length_c 10.503199
_cell_angle_alpha 90.000000
_cell_angle_beta 90.000000
_cell_angle_gamma 90.000000
_cell_volume 4518.310114
_symmetry_space_group_name_H-M "P 4/M B M"
_symmetry_group_IT_number 127
_symmetry_cell_setting 'tetragonal'
loop_
_space_group_symop_operation_xyz
x,y,z
-y,x,z
-x,-y,z
y,-x,z
1/2+x,1/2-y,-z
1/2-x,1/2+y,-z
1/2+y,1/2+x,-z
1/2-y,1/2-x,-z
-x,-y,-z
y,-x,-z
x,y,-z
-y,x,-z
1/2-x,1/2+y,z
1/2+x,1/2-y,z
1/2-y,1/2-x,z
1/2+y,1/2+x,z
loop_
_atom_site_type_symbol
_atom_site_label
_atom_site_fract_x
_atom_site_fract_y
_atom_site_fract_z
Si Si1 0.698485 0.308202 0.500000
Si Si2 0.702993 0.091614 0.500000
Si Si3 0.192751 0.197357 0.000000
Si Si4 0.197346 0.412943 0.000000
Si Si5 0.445947 0.054054 0.354391
Si Si6 0.314795 0.997822 0.253551
Si Si7 0.863151 0.251994 0.246008
O O1 0.752689 0.252689 0.500000
O O2 0.632384 0.268797 0.500000
O O3 0.712224 0.348406 0.626431
O O4 0.642227 0.142227 0.500000
O O5 0.700335 0.047358 0.374747
O O6 0.124847 0.234328 0.000000
O O7 0.208854 0.156469 0.125243
O O8 0.245307 0.254694 0.000000
O O9 0.190577 0.456181 0.874167
O O10 0.140864 0.359137 0.000000
O O11 0.426661 0.073340 0.500000
O O12 0.386255 0.024289 0.280197
O O13 0.500000 0.000000 0.365262
O O14 0.272539 0.062589 0.243789
O O15 0.815574 0.315574 0.245499
#
# Coordination Sequence:
#
# PCOD9563926 Si02
#       7
#     8   8   8   8   8  16  16
#     4   9  19  32  53  74  99 132 179 223 270 309
#     4  11  21  35  52  77 108 148 179 219 260 312
#     4   9  19  36  55  68  99 136 173 219 282 315
#     4  11  23  37  52  77 106 144 177 223 264 312
#     4  11  22  35  49  73 111 163 185 209 241 298
#     4  12  22  34  54  77 110 141 189 216 255 312
#     4  10  19  34  52  75 100 135 175 222 266 305
#
# _framework density 15.935161000000001
#
# number of rings (size 3 to 8) (size 9 to 14) (size 15 to 20)
#    0.000    1.444    2.222    4.667    0.000    4.000 
#    0.000    1.111    0.000    0.000    0.000    0.000 
#    0.000   62.222    0.000    0.000    0.000    0.000 
#
# Total GULP energy -401881.520608 kJ/mol
# GULP energy per Si atom -5581.687786 kJ/mol
# Density = 1.589889 g / cm^3
# Si number density = 15.935161 Si / 1000 Ang^3
#
#
#
# Elastic Constant Matrix: (Units=GPa)
#
#
# Indices 1 2 3 4 5 6 
#
# 1 69.2667 113.5504 80.9938 0.0000 0.0000 0.0000
# 2 113.5504 69.2647 80.9933 0.0000 0.0000 0.0000
# 3 80.9938 80.9933 189.7490 0.0000 0.0000 0.0000
# 4 0.0000 0.0000 0.0000 22.3157 0.0000 0.0000
# 5 0.0000 0.0000 0.0000 0.0000 22.3133 0.0000
# 6 0.0000 0.0000 0.0000 0.0000 0.0000 41.3092
#
#
#
# Elastic Compliance Matrix: (Units=1/GPa)
#
#
# Indices 1 2 3 4 5 6 
#
# 1 -0.006892 0.015689 -0.003755 0.000000 0.000000 0.000000
# 2 0.015689 -0.006892 -0.003755 0.000000 0.000000 0.000000
# 3 -0.003755 -0.003755 0.008476 0.000000 0.000000 0.000000
# 4 0.000000 0.000000 0.000000 0.044811 0.000000 0.000000
# 5 0.000000 0.000000 0.000000 0.000000 0.044816 0.000000
# 6 0.000000 0.000000 0.000000 0.000000 0.000000 0.024208
#
#
# Mechanical properties :
#
#
# Convention : Reuss Voigt Hill
#
# Bulk Modulus (GPa) = 90.49791 97.70615 94.10203
# Shear Modulus (GPa) = 52.16355 20.70384 36.43369
#
# Velocity S-wave (km/s) = 5.72765 3.60843 4.78679
# Velocity P-wave (km/s) = 10.03274 8.87744 9.47272
#
# Compressibility (1/GPa) = 0.01104998
#
# Stress axis : x y z
#
# Youngs Moduli (GPa) = -145.09969 -145.09293 117.98348
#
# Poissons Ratio (x) = 2.27639 0.44304
# Poissons Ratio (y) = 2.27649 0.44303
# Poissons Ratio (z) = -0.54486 -0.54482
#
# Static dielectric constant tensor:
#      x y z
#    x 1.523090 0.000000 0.000000 
#    y 0.000000 1.523090 0.000000 
#    z 0.000000 0.000000 1.532850 
# 
# From -- ./inp_files/1704.got.cif
#   From: 2010.05.17/outbox.cif.g08.bks.cpg/sg127_1_cif.got.tgz:1704.got - 2010.05.20 12:03:00.
