data_PCOD9563156
_publ_section_title
;
Structure prediction by ZEFSAII (Michael W. Deem and Ramdas Pophale) SiO2 
 PCOD9563156
Probable space group: P 4/N B M
;
_chemical_formula_sum "Si O2"
_cell_formula_units_Z 96
_cell_length_a 14.552765
_cell_length_b 14.552765
_cell_length_c 22.650895
_cell_angle_alpha 90.000000
_cell_angle_beta 90.000000
_cell_angle_gamma 90.000000
_cell_volume 4797.073797
_symmetry_space_group_name_H-M "P 4/N B M"
_symmetry_group_IT_number 125
_space_group.IT_coordinate_system_code '2'
_symmetry_cell_setting 'tetragonal'
loop_
_space_group_symop_operation_xyz
x,y,z
1/2-y,x,z
1/2-x,1/2-y,z
y,1/2-x,z
x,1/2-y,-z
1/2-x,y,-z
y,x,-z
1/2-y,1/2-x,-z
-x,-y,-z
1/2+y,-x,-z
1/2+x,1/2+y,-z
-y,1/2+x,-z
-x,1/2+y,z
1/2+x,-y,z
-y,-x,z
1/2+y,1/2+x,z
loop_
_atom_site_type_symbol
_atom_site_label
_atom_site_fract_x
_atom_site_fract_y
_atom_site_fract_z
Si Si1 0.675058 0.616133 0.858267
Si Si2 0.765736 0.025272 0.436006
Si Si3 0.758225 0.105607 0.309717
Si Si4 0.036358 0.120255 0.733983
Si Si5 0.995155 0.647472 0.971863
Si Si6 0.586308 0.564112 0.603413
O O1 0.783953 0.630455 0.868524
O O2 0.641872 0.591641 0.792529
O O3 0.649757 0.534917 0.903304
O O4 0.750000 0.067691 0.500000
O O5 0.685229 0.951055 0.424858
O O6 0.862504 0.974156 0.430716
O O7 0.760178 0.091474 0.379983
O O8 0.857336 0.142665 0.290069
O O9 0.683971 0.183971 0.296421
O O10 0.715563 0.015971 0.281238
O O11 0.088804 0.094949 0.672999
O O12 0.960602 0.039399 0.743189
O O13 0.088421 0.588421 0.980349
O O14 0.000273 0.750000 0.000000
O O15 0.911945 0.588056 0.000000
O O16 0.533378 0.466623 0.602033
#
# Coordination Sequence:
#
# PCOD9563156 Si02
#       6
#    16  16  16  16  16  16
#     4  11  23  38  63  97 130 169 219 270 316 371
#     4  11  22  36  56  80 109 147 192 245 306 375
#     4   9  19  36  56  79 109 149 196 249 314 377
#     4   9  20  39  58  83 120 158 204 260 315 380
#     4  11  23  43  71 101 137 183 225 266 321 383
#     4  10  23  40  58  81 113 154 194 245 309 370
#
# _framework density 20.0122
#
# number of rings (size 3 to 8) (size 9 to 14) (size 15 to 20)
#    0.000    1.833    1.667    3.000    4.667    4.000 
#    0.000    3.333    0.000    2.000    0.000    0.000 
#    0.000    0.000    0.000    0.000    0.000    0.000 
#
# Total GULP energy -535643.936287 kJ/mol
# GULP energy per Si atom -5579.624336 kJ/mol
# Density = 1.996665 g / cm^3
# Si number density = 20.012200 Si / 1000 Ang^3
#
#
#
# Elastic Constant Matrix: (Units=GPa)
#
#
# Indices 1 2 3 4 5 6 
#
# 1 70.6853 25.7160 10.1104 0.0000 0.0000 0.0000
# 2 25.7160 70.6850 10.1102 0.0000 0.0000 0.0000
# 3 10.1104 10.1102 68.5961 0.0000 0.0000 0.0000
# 4 0.0000 0.0000 0.0000 -23.7460 0.0000 0.0000
# 5 0.0000 0.0000 0.0000 0.0000 -23.7434 0.0000
# 6 0.0000 0.0000 0.0000 0.0000 0.0000 14.9472
#
#
#
# Elastic Compliance Matrix: (Units=1/GPa)
#
#
# Indices 1 2 3 4 5 6 
#
# 1 0.016471 -0.005767 -0.001578 0.000000 0.000000 0.000000
# 2 -0.005767 0.016471 -0.001578 0.000000 0.000000 0.000000
# 3 -0.001578 -0.001578 0.015043 0.000000 0.000000 0.000000
# 4 0.000000 0.000000 0.000000 -0.042112 0.000000 0.000000
# 5 0.000000 0.000000 0.000000 0.000000 -0.042117 0.000000
# 6 0.000000 0.000000 0.000000 0.000000 0.000000 0.066902
#
#
# Mechanical properties :
#
#
# Convention : Reuss Voigt Hill
#
# Bulk Modulus (GPa) = 33.17752 33.53775 33.35764
# Shear Modulus (GPa) = 85.39917 4.42688 44.91302
#
# Velocity S-wave (km/s) = 6.53959 1.48892 4.74253
# Velocity P-wave (km/s) = 8.58116 4.44420 6.83327
#
# Compressibility (1/GPa) = 0.03014089
#
# Stress axis : x y z
#
# Youngs Moduli (GPa) = 60.71339 60.71322 66.47543
#
# Poissons Ratio (x) = 0.35011 0.10488
# Poissons Ratio (y) = 0.35011 0.10488
# Poissons Ratio (z) = 0.09579 0.09579
#
# Static dielectric constant tensor:
#      x y z
#    x 1.729750 0.000000 0.000000 
#    y 0.000000 1.729750 0.000000 
#    z 0.000000 0.000000 1.703260 
# 
# From -- ./inp_files/5932.got.cif
#   From: 2010.05.17/outbox.cif.g08.bks.cpg/sg125_3_cif.got.tgz:5932.got - 2010.05.20 11:54:10.
