data_PCOD9563251
_publ_section_title
;
Structure prediction by ZEFSAII (Michael W. Deem and Ramdas Pophale) SiO2 
 PCOD9563251
Probable space group: P 4/N B M
;
_chemical_formula_sum "Si O2"
_cell_formula_units_Z 88
_cell_length_a 11.275342
_cell_length_b 11.275342
_cell_length_c 30.387085
_cell_angle_alpha 90.000000
_cell_angle_beta 90.000000
_cell_angle_gamma 90.000000
_cell_volume 3863.211524
_symmetry_space_group_name_H-M "P 4/N B M"
_symmetry_group_IT_number 125
_space_group.IT_coordinate_system_code '2'
_symmetry_cell_setting 'tetragonal'
loop_
_space_group_symop_operation_xyz
x,y,z
1/2-y,x,z
1/2-x,1/2-y,z
y,1/2-x,z
x,1/2-y,-z
1/2-x,y,-z
y,x,-z
1/2-y,1/2-x,-z
-x,-y,-z
1/2+y,-x,-z
1/2+x,1/2+y,-z
-y,1/2+x,-z
-x,1/2+y,z
1/2+x,-y,z
-y,-x,z
1/2+y,1/2+x,z
loop_
_atom_site_type_symbol
_atom_site_label
_atom_site_fract_x
_atom_site_fract_y
_atom_site_fract_z
Si Si1 0.751051 0.950223 0.547842
Si Si2 0.859259 0.359259 0.792984
Si Si3 0.558346 0.243567 0.356915
Si Si4 0.268732 0.443337 0.858017
Si Si5 0.245671 0.551207 0.951552
Si Si6 0.232018 0.440810 0.269177
O O1 0.636522 0.864704 0.549017
O O2 0.750000 0.012157 0.500000
O O3 0.752903 0.024519 0.592039
O O4 0.789516 0.437151 0.831088
O O5 0.788210 0.435673 0.754845
O O6 0.656482 0.343519 0.349841
O O7 0.616673 0.116673 0.346712
O O8 0.456535 0.267396 0.321811
O O9 0.146756 0.375834 0.847203
O O10 0.267793 0.469261 0.909964
O O11 0.347482 0.652519 0.952170
O O12 0.121276 0.621276 0.945823
O O13 0.250000 0.494178 0.000000
O O14 0.124492 0.353513 0.256602
#
# Coordination Sequence:
#
# PCOD9563251 Si02
#       6
#    16   8  16  16  16  16
#     4   9  19  37  62  92 126 169 220 274 340 414
#     4  12  24  46  71  94 130 175 216 270 343 390
#     4  11  24  41  61  94 132 172 225 277 335 406
#     4  11  25  44  66 102 140 174 224 277 334 403
#     4   9  19  39  67 101 137 178 228 274 329 404
#     4  11  25  46  71 100 130 172 227 280 336 402
#
# _framework density 22.778974999999999
#
# number of rings (size 3 to 8) (size 9 to 14) (size 15 to 20)
#    0.000    1.636    1.818    3.273    2.545    6.545 
#    0.000    6.364    0.000    0.000    0.000    0.000 
#    0.000    0.000    0.000    0.000    0.000    0.000 
#
# Total GULP energy -490097.539786 kJ/mol
# GULP energy per Si atom -5569.290225 kJ/mol
# Density = 2.272713 g / cm^3
# Si number density = 22.778975 Si / 1000 Ang^3
#
#
#
# Elastic Constant Matrix: (Units=GPa)
#
#
# Indices 1 2 3 4 5 6 
#
# 1 45.6807 28.8728 28.1800 0.0000 0.0000 0.0000
# 2 28.8728 45.6807 28.1800 0.0000 0.0000 0.0000
# 3 28.1800 28.1800 181.6567 0.0000 0.0000 0.0000
# 4 0.0000 0.0000 0.0000 54.2269 0.0000 0.0000
# 5 0.0000 0.0000 0.0000 0.0000 54.2269 0.0000
# 6 0.0000 0.0000 0.0000 0.0000 0.0000 13.3262
#
#
#
# Elastic Compliance Matrix: (Units=1/GPa)
#
#
# Indices 1 2 3 4 5 6 
#
# 1 0.037346 -0.022150 -0.002357 0.000000 0.000000 0.000000
# 2 -0.022150 0.037346 -0.002357 0.000000 0.000000 0.000000
# 3 -0.002357 -0.002357 0.006236 0.000000 0.000000 0.000000
# 4 0.000000 0.000000 0.000000 0.018441 0.000000 0.000000
# 5 0.000000 0.000000 0.000000 0.000000 0.018441 0.000000
# 6 0.000000 0.000000 0.000000 0.000000 0.000000 0.075040
#
#
# Mechanical properties :
#
#
# Convention : Reuss Voigt Hill
#
# Bulk Modulus (GPa) = 36.76773 49.27597 43.02185
# Shear Modulus (GPa) = 19.55838 36.87501 28.21670
#
# Velocity S-wave (km/s) = 2.93339 4.02782 3.52336
# Velocity P-wave (km/s) = 5.25825 6.58105 5.95649
#
# Compressibility (1/GPa) = 0.02719776
#
# Stress axis : x y z
#
# Youngs Moduli (GPa) = 26.77692 26.77692 160.35354
#
# Poissons Ratio (x) = 0.59312 0.37798
# Poissons Ratio (y) = 0.59312 0.37798
# Poissons Ratio (z) = 0.06312 0.06312
#
# Static dielectric constant tensor:
#      x y z
#    x 1.852980 0.000000 0.000000 
#    y 0.000000 1.852980 0.000000 
#    z 0.000000 0.000000 1.837010 
# 
# From -- ./inp_files/6543.got.cif
#   From: 2010.05.17/outbox.cif.g08.bks.cpg/sg125_4_cif.got.tgz:6543.got - 2010.05.20 11:54:10.
