data_PCOD9563185
_publ_section_title
;
Structure prediction by ZEFSAII (Michael W. Deem and Ramdas Pophale) SiO2 
 PCOD9563185
Probable space group: P 4/N B M
;
_chemical_formula_sum "Si O2"
_cell_formula_units_Z 56
_cell_length_a 15.427533
_cell_length_b 15.427533
_cell_length_c 11.589279
_cell_angle_alpha 90.000000
_cell_angle_beta 90.000000
_cell_angle_gamma 90.000000
_cell_volume 2758.350092
_symmetry_space_group_name_H-M "P 4/N B M"
_symmetry_group_IT_number 125
_space_group.IT_coordinate_system_code '2'
_symmetry_cell_setting 'tetragonal'
loop_
_space_group_symop_operation_xyz
x,y,z
1/2-y,x,z
1/2-x,1/2-y,z
y,1/2-x,z
x,1/2-y,-z
1/2-x,y,-z
y,x,-z
1/2-y,1/2-x,-z
-x,-y,-z
1/2+y,-x,-z
1/2+x,1/2+y,-z
-y,1/2+x,-z
-x,1/2+y,z
1/2+x,-y,z
-y,-x,z
1/2+y,1/2+x,z
loop_
_atom_site_type_symbol
_atom_site_label
_atom_site_fract_x
_atom_site_fract_y
_atom_site_fract_z
Si Si1 0.592855 0.272384 0.134731
Si Si2 0.006800 0.647855 0.687549
Si Si3 0.600365 0.750000 0.500000
Si Si4 0.586465 0.556173 0.124473
O O1 0.678639 0.321362 0.174636
O O2 0.565142 0.195692 0.216904
O O3 0.514486 0.340331 0.139655
O O4 0.603243 0.250000 0.000000
O O5 0.066946 0.566946 0.641188
O O6 0.967213 0.717596 0.599163
O O7 0.925136 0.613179 0.762423
O O8 0.667079 0.667079 0.500000
O O9 0.494534 0.505467 0.117421
O O10 0.600349 0.600349 0.000000
#
# Coordination Sequence:
#
# PCOD9563185 Si02
#       4
#    16  16   8  16
#     4  11  21  34  56  89 129 164 199 254 322 384
#     4  11  23  40  64  92 123 167 219 262 320 393
#     4  11  26  48  70  91 124 166 216 279 330 372
#     4   9  17  33  56  85 121 161 206 256 315 394
#
# _framework density 20.301991999999998
#
# number of rings (size 3 to 8) (size 9 to 14) (size 15 to 20)
#    0.000    1.571    2.857    2.571    0.000    3.714 
#    0.000    0.000    0.000    0.000    0.000    0.000 
#    0.000    0.000    0.000    0.000    0.000    0.000 
#
# Total GULP energy -311849.707516 kJ/mol
# GULP energy per Si atom -5568.744777 kJ/mol
# Density = 2.025578 g / cm^3
# Si number density = 20.301992 Si / 1000 Ang^3
#
#
#
# Elastic Constant Matrix: (Units=GPa)
#
#
# Indices 1 2 3 4 5 6 
#
# 1 89.5627 37.9716 38.9215 0.0000 0.0000 0.0000
# 2 37.9716 89.5627 38.9215 0.0000 0.0000 0.0000
# 3 38.9215 38.9215 99.0944 0.0000 0.0000 0.0000
# 4 0.0000 0.0000 0.0000 18.7275 0.0000 0.0000
# 5 0.0000 0.0000 0.0000 0.0000 18.7275 0.0000
# 6 0.0000 0.0000 0.0000 0.0000 0.0000 43.8103
#
#
#
# Elastic Compliance Matrix: (Units=1/GPa)
#
#
# Indices 1 2 3 4 5 6 
#
# 1 0.014848 -0.004535 -0.004051 0.000000 0.000000 0.000000
# 2 -0.004535 0.014848 -0.004051 0.000000 0.000000 0.000000
# 3 -0.004051 -0.004051 0.013274 0.000000 0.000000 0.000000
# 4 0.000000 0.000000 0.000000 0.053398 0.000000 0.000000
# 5 0.000000 0.000000 0.000000 0.000000 0.053398 0.000000
# 6 0.000000 0.000000 0.000000 0.000000 0.000000 0.022826
#
#
# Mechanical properties :
#
#
# Convention : Reuss Voigt Hill
#
# Bulk Modulus (GPa) = 56.50629 56.64987 56.57808
# Shear Modulus (GPa) = 24.53829 27.08006 25.80918
#
# Velocity S-wave (km/s) = 3.48036 3.65617 3.56935
# Velocity P-wave (km/s) = 6.63655 6.76665 6.70192
#
# Compressibility (1/GPa) = 0.01769715
#
# Stress axis : x y z
#
# Youngs Moduli (GPa) = 67.34743 67.34743 75.33803
#
# Poissons Ratio (x) = 0.30541 0.30518
# Poissons Ratio (y) = 0.30541 0.30518
# Poissons Ratio (z) = 0.27282 0.27282
#
# Static dielectric constant tensor:
#      x y z
#    x 1.744370 0.000000 0.000000 
#    y 0.000000 1.744370 0.000000 
#    z 0.000000 0.000000 1.759880 
# 
# From -- ./inp_files/3504.got.cif
#   From: 2010.05.17/outbox.cif.g08.bks.cpg/sg125_2_cif.got.tgz:3504.got - 2010.05.20 11:54:10.
