data_PCOD9563424
_publ_section_title
;
Structure prediction by ZEFSAII (Michael W. Deem and Ramdas Pophale) SiO2 
 PCOD9563424
Probable space group: P 4/N N C
;
_chemical_formula_sum "Si O2"
_cell_formula_units_Z 72
_cell_length_a 17.838523
_cell_length_b 17.838523
_cell_length_c 11.623651
_cell_angle_alpha 90.000000
_cell_angle_beta 90.000000
_cell_angle_gamma 90.000000
_cell_volume 3698.795726
_symmetry_space_group_name_H-M "P 4/N N C"
_symmetry_group_IT_number 126
_space_group.IT_coordinate_system_code '2'
_symmetry_cell_setting 'tetragonal'
loop_
_space_group_symop_operation_xyz
x,y,z
1/2-y,x,z
1/2-x,1/2-y,z
y,1/2-x,z
x,1/2-y,1/2-z
1/2-x,y,1/2-z
y,x,1/2-z
1/2-y,1/2-x,1/2-z
-x,-y,-z
1/2+y,-x,-z
1/2+x,1/2+y,-z
-y,1/2+x,-z
-x,1/2+y,1/2+z
1/2+x,-y,1/2+z
-y,-x,1/2+z
1/2+y,1/2+x,1/2+z
loop_
_atom_site_type_symbol
_atom_site_label
_atom_site_fract_x
_atom_site_fract_y
_atom_site_fract_z
Si Si1 0.376051 0.250000 0.250000
Si Si2 0.761010 0.367581 0.016795
Si Si3 0.937650 0.250000 0.750000
Si Si4 0.970619 0.529382 0.750000
Si Si5 0.326816 0.019665 0.088844
Si Si6 0.964827 0.614380 0.344598
O O1 0.321913 0.321913 0.250000
O O2 0.429808 0.260182 0.140172
O O3 0.726509 0.391792 0.138496
O O4 0.824983 0.306552 0.045799
O O5 0.795448 0.438242 0.949018
O O6 0.986339 0.319018 0.706776
O O7 0.891579 0.518471 0.813844
O O8 0.986505 0.462328 0.658718
O O9 0.362971 0.055345 0.973672
O O10 0.900747 0.599254 0.250000
#
# Coordination Sequence:
#
# PCOD9563424 Si02
#       6
#     8  16   8   8  16  16
#     4  11  26  46  64  93 130 168 222 281 334 396
#     4  10  23  39  62  93 134 176 214 263 324 404
#     4  10  20  41  58  89 130 168 210 268 332 377
#     4  10  20  40  65 102 129 168 226 272 322 402
#     4  11  22  41  67  96 131 181 218 275 341 391
#     4   9  22  37  65  97 133 166 221 278 322 401
#
# _framework density 19.465795
#
# number of rings (size 3 to 8) (size 9 to 14) (size 15 to 20)
#    0.667    1.222    1.111    2.000    0.000   10.667 
#    0.000    0.000    0.000    0.333    0.000    0.000 
#    0.000    0.000    0.000    0.000    0.000    0.000 
#
# Total GULP energy -401240.837746 kJ/mol
# GULP energy per Si atom -5572.789413 kJ/mol
# Density = 1.942149 g / cm^3
# Si number density = 19.465795 Si / 1000 Ang^3
#
#
#
# Elastic Constant Matrix: (Units=GPa)
#
#
# Indices 1 2 3 4 5 6 
#
# 1 8.2493 99.4371 31.9034 0.0000 0.0000 0.0000
# 2 99.4371 8.2007 31.8998 0.0000 0.0000 0.0000
# 3 31.9034 31.8998 114.3515 0.0000 0.0000 0.0000
# 4 0.0000 0.0000 0.0000 12.1453 0.0000 0.0000
# 5 0.0000 0.0000 0.0000 0.0000 12.1467 0.0000
# 6 0.0000 0.0000 0.0000 0.0000 0.0000 24.4152
#
#
#
# Elastic Compliance Matrix: (Units=1/GPa)
#
#
# Indices 1 2 3 4 5 6 
#
# 1 0.000085 0.011046 -0.003105 0.000000 0.000000 0.000000
# 2 0.011046 0.000079 -0.003104 0.000000 0.000000 0.000000
# 3 -0.003105 -0.003104 0.010477 0.000000 0.000000 0.000000
# 4 0.000000 0.000000 0.000000 0.082336 0.000000 0.000000
# 5 0.000000 0.000000 0.000000 0.000000 0.082327 0.000000
# 6 0.000000 0.000000 0.000000 0.000000 0.000000 0.040958
#
#
# Mechanical properties :
#
#
# Convention : Reuss Voigt Hill
#
# Bulk Modulus (GPa) = 49.22381 50.80911 50.01646
# Shear Modulus (GPa) = 23.43443 7.57885 15.50664
#
# Velocity S-wave (km/s) = 3.47346 1.97532 2.82549
# Velocity P-wave (km/s) = 6.43652 5.60008 6.03281
#
# Compressibility (1/GPa) = 0.02031537
#
# Stress axis : x y z
#
# Youngs Moduli (GPa) = 11740.92479 12579.59272 95.44586
#
# Poissons Ratio (x) = -138.95147 0.29637
# Poissons Ratio (y) = -129.68772 0.29625
# Poissons Ratio (z) = 36.45700 39.04557
#
# Static dielectric constant tensor:
#      x y z
#    x 1.677300 0.000000 0.000000 
#    y 0.000000 1.677310 0.000000 
#    z 0.000000 0.000000 1.735660 
# 
# From -- ./inp_files/2699.got.cif
#   From: 2010.05.17/outbox.cif.g08.bks.cpg/sg126_2_cif.got.tgz:2699.got - 2010.05.20 11:58:20.
