data_PCOD9563552
_publ_section_title
;
Structure prediction by ZEFSAII (Michael W. Deem and Ramdas Pophale) SiO2 
 PCOD9563552
Probable space group: P 4/N N C
;
_chemical_formula_sum "Si O2"
_cell_formula_units_Z 108
_cell_length_a 13.537522
_cell_length_b 13.537522
_cell_length_c 21.116680
_cell_angle_alpha 90.000000
_cell_angle_beta 90.000000
_cell_angle_gamma 90.000000
_cell_volume 3869.937842
_symmetry_space_group_name_H-M "P 4/N N C"
_symmetry_group_IT_number 126
_space_group.IT_coordinate_system_code '2'
_symmetry_cell_setting 'tetragonal'
loop_
_space_group_symop_operation_xyz
x,y,z
1/2-y,x,z
1/2-x,1/2-y,z
y,1/2-x,z
x,1/2-y,1/2-z
1/2-x,y,1/2-z
y,x,1/2-z
1/2-y,1/2-x,1/2-z
-x,-y,-z
1/2+y,-x,-z
1/2+x,1/2+y,-z
-y,1/2+x,-z
-x,1/2+y,1/2+z
1/2+x,-y,1/2+z
-y,-x,1/2+z
1/2+y,1/2+x,1/2+z
loop_
_atom_site_type_symbol
_atom_site_label
_atom_site_fract_x
_atom_site_fract_y
_atom_site_fract_z
Si Si1 0.523580 0.205711 0.624642
Si Si2 0.250000 0.086659 0.750000
Si Si3 0.926902 0.497880 0.398739
Si Si4 0.087535 0.380124 0.054127
Si Si5 0.866984 0.553563 0.815196
Si Si6 0.250000 0.250000 0.002445
Si Si7 0.881142 0.229043 0.322892
Si Si8 0.233051 0.616866 0.461563
O O1 0.458119 0.112958 0.601131
O O2 0.642603 0.188358 0.516579
O O3 0.626471 0.869125 0.625325
O O4 0.468234 0.949257 0.667155
O O5 0.344419 0.155582 0.750000
O O6 0.251153 0.024484 0.812159
O O7 0.003481 0.441099 0.445971
O O8 0.186067 0.510185 0.451470
O O9 0.811263 0.481356 0.412833
O O10 0.171742 0.342379 0.008544
O O11 0.765647 0.492952 0.816213
O O12 0.896107 0.603894 0.750000
O O13 0.846359 0.250000 0.250000
O O14 0.854536 0.278910 0.391969
O O15 0.848041 0.379084 0.154719
#
# Coordination Sequence:
#
# PCOD9563552 Si02
#       8
#    16   8  16  16  16   4  16  16
#     4  12  24  43  72 117 171 226 299 379 450 549
#     4  11  24  40  63 106 162 242 301 356 449 536
#     4  10  25  41  70 109 168 221 296 366 458 532
#     4  10  24  49  79 120 162 235 288 370 458 547
#     4  10  23  47  78 125 183 220 291 382 465 558
#     4  12  24  52  89 116 164 224 321 364 452 578
#     4  12  26  49  85 133 174 238 304 382 473 561
#     4  11  26  54  87 130 184 235 308 389 471 557
#
# _framework density 27.907423999999999
#
# number of rings (size 3 to 8) (size 9 to 14) (size 15 to 20)
#    0.889    0.222    2.963    2.667    4.148    3.259 
#    0.000    3.333    0.000    0.000    0.000    0.000 
#    0.000    0.000    0.000    0.074    0.000    0.000 
#
# Total GULP energy -602258.853837 kJ/mol
# GULP energy per Si atom -5576.470869 kJ/mol
# Density = 2.784391 g / cm^3
# Si number density = 27.907424 Si / 1000 Ang^3
#
#
#
# Elastic Constant Matrix: (Units=GPa)
#
#
# Indices 1 2 3 4 5 6 
#
# 1 194.5470 86.0243 40.4238 0.0000 0.0000 0.0000
# 2 86.0243 194.5477 40.4240 0.0000 0.0000 0.0000
# 3 40.4238 40.4240 190.3235 0.0000 0.0000 0.0000
# 4 0.0000 0.0000 0.0000 28.3535 0.0000 0.0000
# 5 0.0000 0.0000 0.0000 0.0000 28.3531 0.0000
# 6 0.0000 0.0000 0.0000 0.0000 0.0000 88.5679
#
#
#
# Elastic Compliance Matrix: (Units=1/GPa)
#
#
# Indices 1 2 3 4 5 6 
#
# 1 0.006506 -0.002709 -0.000806 0.000000 0.000000 0.000000
# 2 -0.002709 0.006506 -0.000806 0.000000 0.000000 0.000000
# 3 -0.000806 -0.000806 0.005597 0.000000 0.000000 0.000000
# 4 0.000000 0.000000 0.000000 0.035269 0.000000 0.000000
# 5 0.000000 0.000000 0.000000 0.000000 0.035269 0.000000
# 6 0.000000 0.000000 0.000000 0.000000 0.000000 0.011291
#
#
# Mechanical properties :
#
#
# Convention : Reuss Voigt Hill
#
# Bulk Modulus (GPa) = 100.35812 101.46249 100.91030
# Shear Modulus (GPa) = 44.48312 56.55797 50.52054
#
# Velocity S-wave (km/s) = 3.99677 4.50669 4.25937
# Velocity P-wave (km/s) = 7.57219 7.96970 7.77348
#
# Compressibility (1/GPa) = 0.00996432
#
# Stress axis : x y z
#
# Youngs Moduli (GPa) = 153.71415 153.71467 178.67520
#
# Poissons Ratio (x) = 0.41642 0.14408
# Poissons Ratio (y) = 0.41642 0.14408
# Poissons Ratio (z) = 0.12395 0.12395
#
# Static dielectric constant tensor:
#      x y z
#    x 2.210340 0.000000 0.000000 
#    y 0.000000 2.210340 0.000000 
#    z 0.000000 0.000000 2.238730 
# 
# From -- ./inp_files/6260.got.cif
#   From: 2010.05.17/outbox.cif.g08.bks.cpg/sg126_4_cif.got.tgz:6260.got - 2010.05.20 11:58:20.
