data_PCOD9563919
_publ_section_title
;
Structure prediction by ZEFSAII (Michael W. Deem and Ramdas Pophale) SiO2 
 PCOD9563919
Probable space group: P 4/M B M
;
_chemical_formula_sum "Si O2"
_cell_formula_units_Z 96
_cell_length_a 15.645926
_cell_length_b 15.645926
_cell_length_c 21.565229
_cell_angle_alpha 90.000000
_cell_angle_beta 90.000000
_cell_angle_gamma 90.000000
_cell_volume 5279.060242
_symmetry_space_group_name_H-M "P 4/M B M"
_symmetry_group_IT_number 127
_symmetry_cell_setting 'tetragonal'
loop_
_space_group_symop_operation_xyz
x,y,z
-y,x,z
-x,-y,z
y,-x,z
1/2+x,1/2-y,-z
1/2-x,1/2+y,-z
1/2+y,1/2+x,-z
1/2-y,1/2-x,-z
-x,-y,-z
y,-x,-z
x,y,-z
-y,x,-z
1/2-x,1/2+y,z
1/2+x,1/2-y,z
1/2-y,1/2-x,z
1/2+y,1/2+x,z
loop_
_atom_site_type_symbol
_atom_site_label
_atom_site_fract_x
_atom_site_fract_y
_atom_site_fract_z
Si Si1 0.359184 0.004304 0.676414
Si Si2 0.486013 0.242492 0.194254
Si Si3 0.905118 0.737862 0.570375
Si Si4 0.641911 0.003130 0.067830
Si Si5 0.166613 0.186996 0.771583
Si Si6 0.611963 0.590425 0.351619
O O1 0.430648 0.930648 0.682652
O O2 0.297361 0.971844 0.621733
O O3 0.408304 0.091697 0.660378
O O4 0.315540 0.014149 0.743422
O O5 0.484790 0.194369 0.129137
O O6 0.577037 0.289456 0.196885
O O7 0.400293 0.297518 0.199855
O O8 0.935913 0.726729 0.500000
O O9 0.820229 0.679771 0.577210
O O10 0.888647 0.837060 0.585719
O O11 0.593844 0.093844 0.073863
O O12 0.567942 0.932059 0.065869
O O13 0.685920 0.000822 0.000000
O O14 0.236401 0.263600 0.774420
O O15 0.139913 0.164620 0.701175
O O16 0.512722 0.614499 0.345431
#
# Coordination Sequence:
#
# PCOD9563919 Si02
#       6
#    16  16  16  16  16  16
#     4  10  19  33  56  83 112 148 194 255 315 368
#     4  12  23  37  58  90 124 159 207 252 300 366
#     4  10  21  38  58  82 115 152 193 247 309 372
#     4   9  18  35  60  89 124 164 206 259 316 365
#     4  12  23  37  61  89 121 160 199 251 309 354
#     4  11  22  39  60  84 115 152 200 248 293 350
#
# _framework density 18.185054000000001
#
# number of rings (size 3 to 8) (size 9 to 14) (size 15 to 20)
#    0.000    1.333    3.333    4.000    0.000    2.667 
#    0.000    4.167    0.000    3.000    0.000    1.167 
#    0.000    0.000    0.000    0.000    0.000    0.000 
#
# Total GULP energy -535487.168482 kJ/mol
# GULP energy per Si atom -5577.991338 kJ/mol
# Density = 1.814366 g / cm^3
# Si number density = 18.185054 Si / 1000 Ang^3
#
#
#
# Elastic Constant Matrix: (Units=GPa)
#
#
# Indices 1 2 3 4 5 6 
#
# 1 104.1959 51.2762 44.8111 0.0000 0.0000 0.0000
# 2 51.2762 104.1959 44.8111 0.0000 0.0000 0.0000
# 3 44.8111 44.8111 131.9270 0.0000 0.0000 0.0000
# 4 0.0000 0.0000 0.0000 16.0916 0.0000 0.0000
# 5 0.0000 0.0000 0.0000 0.0000 16.0916 0.0000
# 6 0.0000 0.0000 0.0000 0.0000 0.0000 14.8083
#
#
#
# Elastic Compliance Matrix: (Units=1/GPa)
#
#
# Indices 1 2 3 4 5 6 
#
# 1 0.013447 -0.005449 -0.002717 0.000000 0.000000 0.000000
# 2 -0.005449 0.013447 -0.002717 0.000000 0.000000 0.000000
# 3 -0.002717 -0.002717 0.009425 0.000000 0.000000 0.000000
# 4 0.000000 0.000000 0.000000 0.062144 0.000000 0.000000
# 5 0.000000 0.000000 0.000000 0.000000 0.062144 0.000000
# 6 0.000000 0.000000 0.000000 0.000000 0.000000 0.067530
#
#
# Mechanical properties :
#
#
# Convention : Reuss Voigt Hill
#
# Bulk Modulus (GPa) = 68.70536 69.12396 68.91466
# Shear Modulus (GPa) = 19.62673 22.69301 21.15987
#
# Velocity S-wave (km/s) = 3.28880 3.53639 3.41484
# Velocity P-wave (km/s) = 7.23083 7.40058 7.31620
#
# Compressibility (1/GPa) = 0.01455491
#
# Stress axis : x y z
#
# Youngs Moduli (GPa) = 74.36436 74.36436 106.09552
#
# Poissons Ratio (x) = 0.40523 0.28823
# Poissons Ratio (y) = 0.40523 0.28823
# Poissons Ratio (z) = 0.20202 0.20202
#
# Static dielectric constant tensor:
#      x y z
#    x 1.665320 0.000000 0.000000 
#    y 0.000000 1.665320 0.000000 
#    z 0.000000 0.000000 1.628590 
# 
# From -- ./inp_files/5765.got.cif
#   From: 2010.05.17/outbox.cif.g08.bks.cpg/sg127_3_cif.got.tgz:5765.got - 2010.05.20 12:03:00.
