data_PCOD9563022
_publ_section_title
;
Structure prediction by ZEFSAII (Michael W. Deem and Ramdas Pophale) SiO2 
 PCOD9563022
Probable space group: P 4/N B M
;
_chemical_formula_sum "Si O2"
_cell_formula_units_Z 56
_cell_length_a 23.464779
_cell_length_b 23.464779
_cell_length_c 5.135269
_cell_angle_alpha 90.000000
_cell_angle_beta 90.000000
_cell_angle_gamma 90.000000
_cell_volume 2827.457818
_symmetry_space_group_name_H-M "P 4/N B M"
_symmetry_group_IT_number 125
_space_group.IT_coordinate_system_code '2'
_symmetry_cell_setting 'tetragonal'
loop_
_space_group_symop_operation_xyz
x,y,z
1/2-y,x,z
1/2-x,1/2-y,z
y,1/2-x,z
x,1/2-y,-z
1/2-x,y,-z
y,x,-z
1/2-y,1/2-x,-z
-x,-y,-z
1/2+y,-x,-z
1/2+x,1/2+y,-z
-y,1/2+x,-z
-x,1/2+y,z
1/2+x,-y,z
-y,-x,z
1/2+y,1/2+x,z
loop_
_atom_site_type_symbol
_atom_site_label
_atom_site_fract_x
_atom_site_fract_y
_atom_site_fract_z
Si Si1 0.250000 0.509824 0.500000
Si Si2 0.049347 0.135291 0.525323
Si Si3 0.983682 0.106212 0.045060
Si Si4 0.103019 0.693748 0.879163
O O1 0.198441 0.467262 0.428869
O O2 0.280160 0.554266 0.304698
O O3 0.113899 0.113899 0.500000
O O4 0.026410 0.125664 0.817463
O O5 0.014233 0.097238 0.318423
O O6 0.949557 0.050444 0.959144
O O7 0.934963 0.155242 0.074780
O O8 0.150182 0.650182 0.766615
O O9 0.131380 0.750000 0.000000
#
# Coordination Sequence:
#
# PCOD9563022 Si02
#       4
#     8  16  16  16
#     4  10  22  40  56  82 122 148 194 248 292 338
#     4  11  22  36  59  84 111 153 191 231 296 353
#     4  10  21  36  56  84 116 146 186 240 294 347
#     4  10  20  36  57  78 109 155 196 242 293 338
#
# _framework density 19.805776999999999
#
# number of rings (size 3 to 8) (size 9 to 14) (size 15 to 20)
#    0.000    1.714    2.857    1.714    0.000    6.000 
#    0.000    0.000    0.000    0.429    0.000    0.000 
#    0.000    5.143    0.000    0.000    0.000    0.857 
#
# Total GULP energy -311788.374172 kJ/mol
# GULP energy per Si atom -5567.649539 kJ/mol
# Density = 1.976070 g / cm^3
# Si number density = 19.805777 Si / 1000 Ang^3
#
#
#
# Elastic Constant Matrix: (Units=GPa)
#
#
# Indices 1 2 3 4 5 6 
#
# 1 87.8691 72.6664 6.8040 0.0000 0.0000 0.0000
# 2 72.6664 87.8691 6.8040 0.0000 0.0000 0.0000
# 3 6.8040 6.8040 57.6370 0.0000 0.0000 0.0000
# 4 0.0000 0.0000 0.0000 19.5156 0.0000 0.0000
# 5 0.0000 0.0000 0.0000 0.0000 19.5156 0.0000
# 6 0.0000 0.0000 0.0000 0.0000 0.0000 47.8562
#
#
#
# Elastic Compliance Matrix: (Units=1/GPa)
#
#
# Indices 1 2 3 4 5 6 
#
# 1 0.036035 -0.029743 -0.000743 0.000000 0.000000 0.000000
# 2 -0.029743 0.036035 -0.000743 0.000000 0.000000 0.000000
# 3 -0.000743 -0.000743 0.017525 0.000000 0.000000 0.000000
# 4 0.000000 0.000000 0.000000 0.051241 0.000000 0.000000
# 5 0.000000 0.000000 0.000000 0.000000 0.051241 0.000000
# 6 0.000000 0.000000 0.000000 0.000000 0.000000 0.020896
#
#
# Mechanical properties :
#
#
# Convention : Reuss Voigt Hill
#
# Bulk Modulus (GPa) = 36.84807 45.10265 40.97536
# Shear Modulus (GPa) = 17.57616 27.18422 22.38019
#
# Velocity S-wave (km/s) = 2.98220 3.70880 3.36517
# Velocity P-wave (km/s) = 5.52296 6.41578 5.98604
#
# Compressibility (1/GPa) = 0.02713846
#
# Stress axis : x y z
#
# Youngs Moduli (GPa) = 27.75078 27.75078 57.06026
#
# Poissons Ratio (x) = 0.82539 0.04238
# Poissons Ratio (y) = 0.82539 0.04238
# Poissons Ratio (z) = 0.02061 0.02061
#
# Static dielectric constant tensor:
#      x y z
#    x 1.764180 0.000000 0.000000 
#    y 0.000000 1.764180 0.000000 
#    z 0.000000 0.000000 1.754990 
# 
# From -- ./inp_files/862.got.cif
#   From: 2010.05.17/outbox.cif.g08.bks.cpg/sg125_1_cif.got.tgz:862.got - 2010.05.20 11:54:10.
