data_PCOD9563356
_publ_section_title
;
Structure prediction by ZEFSAII (Michael W. Deem and Ramdas Pophale) SiO2 
 PCOD9563356
Probable space group: P 4/N N C
;
_chemical_formula_sum "Si O2"
_cell_formula_units_Z 64
_cell_length_a 25.178135
_cell_length_b 25.178135
_cell_length_c 5.199151
_cell_angle_alpha 90.000000
_cell_angle_beta 90.000000
_cell_angle_gamma 90.000000
_cell_volume 3295.941893
_symmetry_space_group_name_H-M "P 4/N N C"
_symmetry_group_IT_number 126
_space_group.IT_coordinate_system_code '2'
_symmetry_cell_setting 'tetragonal'
loop_
_space_group_symop_operation_xyz
x,y,z
1/2-y,x,z
1/2-x,1/2-y,z
y,1/2-x,z
x,1/2-y,1/2-z
1/2-x,y,1/2-z
y,x,1/2-z
1/2-y,1/2-x,1/2-z
-x,-y,-z
1/2+y,-x,-z
1/2+x,1/2+y,-z
-y,1/2+x,-z
-x,1/2+y,1/2+z
1/2+x,-y,1/2+z
-y,-x,1/2+z
1/2+y,1/2+x,1/2+z
loop_
_atom_site_type_symbol
_atom_site_label
_atom_site_fract_x
_atom_site_fract_y
_atom_site_fract_z
Si Si1 0.104501 0.559533 0.188925
Si Si2 0.306701 0.651170 0.330072
Si Si3 0.602299 0.809356 0.289702
Si Si4 0.810257 0.531407 0.711475
O O1 0.064646 0.572729 0.422503
O O2 0.148590 0.606177 0.177050
O O3 0.140843 0.508156 0.237559
O O4 0.250000 0.628859 0.250000
O O5 0.307302 0.676898 0.609724
O O6 0.624528 0.750000 0.250000
O O7 0.646099 0.853902 0.250000
O O8 0.577130 0.813397 0.572575
O O9 0.556112 0.814419 0.073396
O O10 0.750000 0.508287 0.750000
#
# Coordination Sequence:
#
# PCOD9563356 Si02
#       4
#    16  16  16  16
#     4  10  20  34  53  76 103 137 182 235 278 314
#     4  10  20  31  44  64  91 125 166 214 269 326
#     4  10  21  37  60  89 117 147 179 216 268 328
#     4  10  20  36  59  83 111 149 190 230 274 329
#
# _framework density 19.417815999999998
#
# number of rings (size 3 to 8) (size 9 to 14) (size 15 to 20)
#    0.000    2.000    0.000    3.750    0.000    1.750 
#    0.000    7.500    0.000   19.500    0.000    0.000 
#    0.000    0.000    0.000    0.000    0.000    0.000 
#
# Total GULP energy -357068.929873 kJ/mol
# GULP energy per Si atom -5579.202029 kJ/mol
# Density = 1.937362 g / cm^3
# Si number density = 19.417816 Si / 1000 Ang^3
#
#
#
# Elastic Constant Matrix: (Units=GPa)
#
#
# Indices 1 2 3 4 5 6 
#
# 1 34.8321 19.3239 -10.0464 0.0000 0.0000 0.0000
# 2 19.3239 34.8188 -10.0526 0.0000 0.0000 0.0000
# 3 -10.0464 -10.0526 65.3455 0.0000 0.0000 0.0000
# 4 0.0000 0.0000 0.0000 16.2298 0.0000 0.0000
# 5 0.0000 0.0000 0.0000 0.0000 16.2316 0.0000
# 6 0.0000 0.0000 0.0000 0.0000 0.0000 42.0018
#
#
#
# Elastic Compliance Matrix: (Units=1/GPa)
#
#
# Indices 1 2 3 4 5 6 
#
# 1 0.042038 -0.022462 0.003008 0.000000 0.000000 0.000000
# 2 -0.022462 0.042057 0.003017 0.000000 0.000000 0.000000
# 3 0.003008 0.003017 0.016230 0.000000 0.000000 0.000000
# 4 0.000000 0.000000 0.000000 0.061615 0.000000 0.000000
# 5 0.000000 0.000000 0.000000 0.000000 0.061608 0.000000
# 6 0.000000 0.000000 0.000000 0.000000 0.000000 0.023809
#
#
# Mechanical properties :
#
#
# Convention : Reuss Voigt Hill
#
# Bulk Modulus (GPa) = 14.82605 14.82735 14.82670
# Shear Modulus (GPa) = 16.51715 23.94407 20.23061
#
# Velocity S-wave (km/s) = 2.91970 3.51536 3.23128
# Velocity P-wave (km/s) = 4.36097 4.91218 4.64476
#
# Compressibility (1/GPa) = 0.06744887
#
# Stress axis : x y z
#
# Youngs Moduli (GPa) = 23.78801 23.77717 61.61531
#
# Poissons Ratio (x) = 0.53409 -0.18531
# Poissons Ratio (y) = 0.53433 -0.18587
# Poissons Ratio (z) = -0.07154 -0.07173
#
# Static dielectric constant tensor:
#      x y z
#    x 1.668090 0.000000 0.000000 
#    y 0.000000 1.668100 0.000000 
#    z 0.000000 0.000000 1.675260 
# 
# From -- ./inp_files/442.got.cif
#   From: 2010.05.17/outbox.cif.g08.bks.cpg/sg126_1_cif.got.tgz:442.got - 2010.05.20 11:58:20.
