data_PCOD9563992
_publ_section_title
;
Structure prediction by ZEFSAII (Michael W. Deem and Ramdas Pophale) SiO2 
 PCOD9563992
Probable space group: P 4/M B M
;
_chemical_formula_sum "Si O2"
_cell_formula_units_Z 112
_cell_length_a 20.449967
_cell_length_b 20.449967
_cell_length_c 15.456739
_cell_angle_alpha 90.000000
_cell_angle_beta 90.000000
_cell_angle_gamma 90.000000
_cell_volume 6464.026030
_symmetry_space_group_name_H-M "P 4/M B M"
_symmetry_group_IT_number 127
_symmetry_cell_setting 'tetragonal'
loop_
_space_group_symop_operation_xyz
x,y,z
-y,x,z
-x,-y,z
y,-x,z
1/2+x,1/2-y,-z
1/2-x,1/2+y,-z
1/2+y,1/2+x,-z
1/2-y,1/2-x,-z
-x,-y,-z
y,-x,-z
x,y,-z
-y,x,-z
1/2-x,1/2+y,z
1/2+x,1/2-y,z
1/2-y,1/2-x,z
1/2+y,1/2+x,z
loop_
_atom_site_type_symbol
_atom_site_label
_atom_site_fract_x
_atom_site_fract_y
_atom_site_fract_z
Si Si1 0.603204 0.520147 0.605003
Si Si2 0.273808 0.401855 0.603145
Si Si3 0.805999 0.417525 0.746258
Si Si4 0.352305 0.260170 0.098448
Si Si5 0.675068 0.067977 0.251224
Si Si6 0.747128 0.134850 0.901353
Si Si7 0.153562 0.765316 0.402700
O O1 0.549859 0.574806 0.632382
O O2 0.602716 0.520457 0.500000
O O3 0.675539 0.541102 0.630072
O O4 0.260416 0.405485 0.500000
O O5 0.210493 0.406527 0.662063
O O6 0.312342 0.333969 0.618612
O O7 0.865608 0.365608 0.746557
O O8 0.762883 0.404340 0.831735
O O9 0.832364 0.490586 0.742629
O O10 0.760211 0.398961 0.665134
O O11 0.295669 0.204331 0.099658
O O12 0.314512 0.327450 0.120131
O O13 0.376865 0.264142 0.000000
O O14 0.608395 0.108395 0.238523
O O15 0.723253 0.085161 0.171220
O O16 0.691680 0.191680 0.901791
O O17 0.751046 0.109381 0.000000
O O18 0.126088 0.770668 0.500000
O O19 0.211377 0.711377 0.403008
#
# Coordination Sequence:
#
# PCOD9563992 Si02
#       7
#    16  16  16  16  16  16  16
#     4   8  15  28  45  68  99 131 158 187 235 305
#     4  10  20  32  52  76 102 131 163 208 261 311
#     4  10  21  35  51  72 101 138 178 217 254 300
#     4   8  14  28  53  80 101 123 156 203 258 309
#     4  11  23  35  49  73 103 136 178 221 259 303
#     4   8  15  31  54  76  98 124 155 200 259 310
#     4   9  18  33  52  72  94 124 166 215 266 312
#
# _framework density 17.326663
#
# number of rings (size 3 to 8) (size 9 to 14) (size 15 to 20)
#    0.000    2.857    0.000    2.571    2.000    4.571 
#    0.000    0.000    0.000    0.000    0.000    7.000 
#    0.000    0.000    0.000    8.714    0.000    1.286 
#
# Total GULP energy -624341.561857 kJ/mol
# GULP energy per Si atom -5574.478231 kJ/mol
# Density = 1.728723 g / cm^3
# Si number density = 17.326663 Si / 1000 Ang^3
#
#
#
# Elastic Constant Matrix: (Units=GPa)
#
#
# Indices 1 2 3 4 5 6 
#
# 1 100.7191 -17.0366 38.8611 0.0000 0.0000 0.0000
# 2 -17.0366 100.7191 38.8611 0.0000 0.0000 0.0000
# 3 38.8611 38.8611 72.4958 0.0000 0.0000 0.0000
# 4 0.0000 0.0000 0.0000 5.1767 0.0000 0.0000
# 5 0.0000 0.0000 0.0000 0.0000 5.1767 0.0000
# 6 0.0000 0.0000 0.0000 0.0000 0.0000 10.5850
#
#
#
# Elastic Compliance Matrix: (Units=1/GPa)
#
#
# Indices 1 2 3 4 5 6 
#
# 1 0.016145 0.007653 -0.012757 0.000000 0.000000 0.000000
# 2 0.007653 0.016145 -0.012757 0.000000 0.000000 0.000000
# 3 -0.012757 -0.012757 0.027471 0.000000 0.000000 0.000000
# 4 0.000000 0.000000 0.000000 0.193174 0.000000 0.000000
# 5 0.000000 0.000000 0.000000 0.000000 0.193174 0.000000
# 6 0.000000 0.000000 0.000000 0.000000 0.000000 0.094474
#
#
# Mechanical properties :
#
#
# Convention : Reuss Voigt Hill
#
# Bulk Modulus (GPa) = 41.59868 43.92280 42.76074
# Shear Modulus (GPa) = 8.55698 18.40423 13.48061
#
# Velocity S-wave (km/s) = 2.22471 3.26266 2.79234
# Velocity P-wave (km/s) = 5.53712 6.29271 5.92697
#
# Compressibility (1/GPa) = 0.02403922
#
# Stress axis : x y z
#
# Youngs Moduli (GPa) = 61.93783 61.93783 36.40263
#
# Poissons Ratio (x) = -0.47401 0.46439
# Poissons Ratio (y) = -0.47401 0.46439
# Poissons Ratio (z) = 0.79014 0.79014
#
# Static dielectric constant tensor:
#      x y z
#    x 1.590670 0.000000 0.000000 
#    y 0.000000 1.590670 0.000000 
#    z 0.000000 0.000000 1.595360 
# 
# From -- ./inp_files/5339.got.cif
#   From: 2010.05.17/outbox.cif.g08.bks.cpg/sg127_3_cif.got.tgz:5339.got - 2010.05.20 12:03:00.
