data_PCOD9563117
_publ_section_title
;
Structure prediction by ZEFSAII (Michael W. Deem and Ramdas Pophale) SiO2 
 PCOD9563117
Probable space group: P 4/N B M
;
_chemical_formula_sum "Si O2"
_cell_formula_units_Z 88
_cell_length_a 13.155834
_cell_length_b 13.155834
_cell_length_c 27.722033
_cell_angle_alpha 90.000000
_cell_angle_beta 90.000000
_cell_angle_gamma 90.000000
_cell_volume 4798.017703
_symmetry_space_group_name_H-M "P 4/N B M"
_symmetry_group_IT_number 125
_space_group.IT_coordinate_system_code '2'
_symmetry_cell_setting 'tetragonal'
loop_
_space_group_symop_operation_xyz
x,y,z
1/2-y,x,z
1/2-x,1/2-y,z
y,1/2-x,z
x,1/2-y,-z
1/2-x,y,-z
y,x,-z
1/2-y,1/2-x,-z
-x,-y,-z
1/2+y,-x,-z
1/2+x,1/2+y,-z
-y,1/2+x,-z
-x,1/2+y,z
1/2+x,-y,z
-y,-x,z
1/2+y,1/2+x,z
loop_
_atom_site_type_symbol
_atom_site_label
_atom_site_fract_x
_atom_site_fract_y
_atom_site_fract_z
Si Si1 0.626701 0.961440 0.454891
Si Si2 0.420662 0.750000 0.000000
Si Si3 0.763561 0.578402 0.806389
Si Si4 0.321322 0.514292 0.602608
Si Si5 0.238459 0.077484 0.912832
Si Si6 0.077941 0.265150 0.701279
O O1 0.615030 0.884971 0.500000
O O2 0.572791 0.903439 0.410522
O O3 0.559232 0.059232 0.467926
O O4 0.734474 0.999168 0.437034
O O5 0.493679 0.763790 0.046014
O O6 0.347419 0.652582 0.005818
O O7 0.854471 0.660824 0.806153
O O8 0.766414 0.528753 0.859054
O O9 0.768774 0.525889 0.754200
O O10 0.379749 0.620252 0.598852
O O11 0.277790 0.494732 0.655756
O O12 0.341000 0.146125 0.917055
O O13 0.144256 0.161780 0.698633
#
# Coordination Sequence:
#
# PCOD9563117 Si02
#       6
#    16   8  16  16  16  16
#     4  10  22  39  56  79 110 141 181 230 272 320
#     4  11  24  37  48  68 104 147 186 225 270 328
#     4   7  12  24  47  77 107 135 166 220 276 317
#     4  11  21  34  55  82 112 147 184 224 271 323
#     4   9  17  32  55  82 106 132 175 229 282 327
#     4   9  15  28  51  79 111 142 180 223 267 311
#
# _framework density 18.340907000000001
#
# number of rings (size 3 to 8) (size 9 to 14) (size 15 to 20)
#    0.000    2.636    1.818    3.273    0.000    2.909 
#    0.000    1.818    0.000   10.909    0.000    0.000 
#    0.000    0.000    0.000    0.000    0.000    0.000 
#
# Total GULP energy -490056.558226 kJ/mol
# GULP energy per Si atom -5568.824525 kJ/mol
# Density = 1.829916 g / cm^3
# Si number density = 18.340907 Si / 1000 Ang^3
#
#
#
# Elastic Constant Matrix: (Units=GPa)
#
#
# Indices 1 2 3 4 5 6 
#
# 1 64.7485 35.9958 47.6549 0.0000 0.0000 0.0000
# 2 35.9958 64.7480 47.6546 0.0000 0.0000 0.0000
# 3 47.6549 47.6546 180.1044 0.0000 0.0000 0.0000
# 4 0.0000 0.0000 0.0000 11.6310 0.0000 0.0000
# 5 0.0000 0.0000 0.0000 0.0000 11.6309 0.0000
# 6 0.0000 0.0000 0.0000 0.0000 0.0000 13.5524
#
#
#
# Elastic Compliance Matrix: (Units=1/GPa)
#
#
# Indices 1 2 3 4 5 6 
#
# 1 0.024010 -0.010770 -0.003503 0.000000 0.000000 0.000000
# 2 -0.010770 0.024010 -0.003503 0.000000 0.000000 0.000000
# 3 -0.003503 -0.003503 0.007406 0.000000 0.000000 0.000000
# 4 0.000000 0.000000 0.000000 0.085977 0.000000 0.000000
# 5 0.000000 0.000000 0.000000 0.000000 0.085978 0.000000
# 6 0.000000 0.000000 0.000000 0.000000 0.000000 0.073788
#
#
# Mechanical properties :
#
#
# Convention : Reuss Voigt Hill
#
# Bulk Modulus (GPa) = 50.31740 63.57907 56.94824
# Shear Modulus (GPa) = 14.56253 19.24921 16.90587
#
# Velocity S-wave (km/s) = 2.82084 3.24315 3.03934
# Velocity P-wave (km/s) = 6.17281 6.98316 6.59045
#
# Compressibility (1/GPa) = 0.01987384
#
# Stress axis : x y z
#
# Youngs Moduli (GPa) = 41.64927 41.64895 135.02032
#
# Poissons Ratio (x) = 0.44854 0.47303
# Poissons Ratio (y) = 0.44854 0.47303
# Poissons Ratio (z) = 0.14591 0.14591
#
# Static dielectric constant tensor:
#      x y z
#    x 1.622760 0.000000 0.000000 
#    y 0.000000 1.622760 0.000000 
#    z 0.000000 0.000000 1.687000 
# 
# From -- ./inp_files/6533.got.cif
#   From: 2010.05.17/outbox.cif.g08.bks.cpg/sg125_4_cif.got.tgz:6533.got - 2010.05.20 11:54:10.
