data_PCOD9563168
_publ_section_title
;
Structure prediction by ZEFSAII (Michael W. Deem and Ramdas Pophale) SiO2 
 PCOD9563168
Probable space group: P 4/N B M
;
_chemical_formula_sum "Si O2"
_cell_formula_units_Z 80
_cell_length_a 19.895990
_cell_length_b 19.895990
_cell_length_c 16.116447
_cell_angle_alpha 90.000000
_cell_angle_beta 90.000000
_cell_angle_gamma 90.000000
_cell_volume 6379.702283
_symmetry_space_group_name_H-M "P 4/N B M"
_symmetry_group_IT_number 125
_space_group.IT_coordinate_system_code '2'
_symmetry_cell_setting 'tetragonal'
loop_
_space_group_symop_operation_xyz
x,y,z
1/2-y,x,z
1/2-x,1/2-y,z
y,1/2-x,z
x,1/2-y,-z
1/2-x,y,-z
y,x,-z
1/2-y,1/2-x,-z
-x,-y,-z
1/2+y,-x,-z
1/2+x,1/2+y,-z
-y,1/2+x,-z
-x,1/2+y,z
1/2+x,-y,z
-y,-x,z
1/2+y,1/2+x,z
loop_
_atom_site_type_symbol
_atom_site_label
_atom_site_fract_x
_atom_site_fract_y
_atom_site_fract_z
Si Si1 0.750000 0.363620 0.500000
Si Si2 0.864125 0.250001 0.317331
Si Si3 0.888834 0.000460 0.099351
Si Si4 0.499540 0.888833 0.900650
Si Si5 0.750000 0.137532 0.000000
Si Si6 0.959057 0.250000 0.840527
O O1 0.814132 0.314132 0.500000
O O2 0.750000 0.396942 0.590498
O O3 0.814494 0.185507 0.310350
O O4 0.814495 0.314495 0.310351
O O5 0.917640 0.250000 0.244303
O O6 0.932374 0.067627 0.118121
O O7 0.818893 0.000144 0.147422
O O8 0.875985 0.001044 0.000001
O O9 0.937637 0.937636 0.116703
O O10 0.432373 0.932373 0.881881
O O11 0.499856 0.818892 0.852580
O O12 0.750001 0.093130 0.082390
O O13 0.685086 0.185086 0.000001
#
# Coordination Sequence:
#
# PCOD9563168 Si02
#       6
#     8  16  16  16   8  16
#     4   7  12  24  36  48  74 108 132 151 176 220
#     4   9  16  24  36  56  81 105 128 153 187 235
#     4   9  17  28  39  52  75 107 137 160 187 232
#     4   9  17  28  39  52  75 107 137 160 187 232
#     4  11  20  24  30  54  88 105 112 140 190 235
#     4  12  18  25  40  57  75 102 132 164 196 224
#
# _framework density 12.539771
#
# number of rings (size 3 to 8) (size 9 to 14) (size 15 to 20)
#    0.000    2.400    2.000    6.000    0.000    1.600 
#    0.000    0.000    0.000    0.600    0.000    4.200 
#    0.000    8.000    0.000    0.000    0.000    2.000 
#
# Total GULP energy -445598.065301 kJ/mol
# GULP energy per Si atom -5569.975816 kJ/mol
# Density = 1.251123 g / cm^3
# Si number density = 12.539771 Si / 1000 Ang^3
#
#
#
# Elastic Constant Matrix: (Units=GPa)
#
#
# Indices 1 2 3 4 5 6 
#
# 1 64.1819 30.1242 27.6730 0.0000 0.0000 0.0000
# 2 30.1242 64.1819 27.6730 0.0000 0.0000 0.0000
# 3 27.6730 27.6730 87.2818 0.0000 0.0000 0.0000
# 4 0.0000 0.0000 0.0000 8.5241 0.0000 0.0000
# 5 0.0000 0.0000 0.0000 0.0000 8.5241 0.0000
# 6 0.0000 0.0000 0.0000 0.0000 0.0000 6.7223
#
#
#
# Elastic Compliance Matrix: (Units=1/GPa)
#
#
# Indices 1 2 3 4 5 6 
#
# 1 0.021195 -0.008167 -0.004131 0.000000 0.000000 0.000000
# 2 -0.008167 0.021195 -0.004131 0.000000 0.000000 0.000000
# 3 -0.004131 -0.004131 0.014076 0.000000 0.000000 0.000000
# 4 0.000000 0.000000 0.000000 0.117314 0.000000 0.000000
# 5 0.000000 0.000000 0.000000 0.000000 0.117314 0.000000
# 6 0.000000 0.000000 0.000000 0.000000 0.000000 0.148758
#
#
# Mechanical properties :
#
#
# Convention : Reuss Voigt Hill
#
# Bulk Modulus (GPa) = 42.35501 42.95401 42.65451
# Shear Modulus (GPa) = 10.40414 13.43249 11.91831
#
# Velocity S-wave (km/s) = 2.88356 3.27646 3.08627
# Velocity P-wave (km/s) = 6.70346 6.97439 6.84027
#
# Compressibility (1/GPa) = 0.02360996
#
# Stress axis : x y z
#
# Youngs Moduli (GPa) = 47.18121 47.18121 71.04115
#
# Poissons Ratio (x) = 0.38533 0.29344
# Poissons Ratio (y) = 0.38533 0.29344
# Poissons Ratio (z) = 0.19488 0.19488
#
# Static dielectric constant tensor:
#      x y z
#    x 1.410440 0.000000 0.000000 
#    y 0.000000 1.410440 0.000000 
#    z 0.000000 0.000000 1.407300 
# 
# From -- ./inp_files/4978.got.cif
#   From: 2010.05.17/outbox.cif.g08.bks.cpg/sg125_3_cif.got.tgz:4978.got - 2010.05.20 11:54:10.
