data_PCOD9563696
_publ_section_title
;
Structure prediction by ZEFSAII (Michael W. Deem and Ramdas Pophale) SiO2 
 PCOD9563696
Probable space group: P 4/N N C
;
_chemical_formula_sum "Si O2"
_cell_formula_units_Z 52
_cell_length_a 13.418092
_cell_length_b 13.418092
_cell_length_c 13.607389
_cell_angle_alpha 90.000000
_cell_angle_beta 90.000000
_cell_angle_gamma 90.000000
_cell_volume 2449.944978
_symmetry_space_group_name_H-M "P 4/N N C"
_symmetry_group_IT_number 126
_space_group.IT_coordinate_system_code '2'
_symmetry_cell_setting 'tetragonal'
loop_
_space_group_symop_operation_xyz
x,y,z
1/2-y,x,z
1/2-x,1/2-y,z
y,1/2-x,z
x,1/2-y,1/2-z
1/2-x,y,1/2-z
y,x,1/2-z
1/2-y,1/2-x,1/2-z
-x,-y,-z
1/2+y,-x,-z
1/2+x,1/2+y,-z
-y,1/2+x,-z
-x,1/2+y,1/2+z
1/2+x,-y,1/2+z
-y,-x,1/2+z
1/2+y,1/2+x,1/2+z
loop_
_atom_site_type_symbol
_atom_site_label
_atom_site_fract_x
_atom_site_fract_y
_atom_site_fract_z
Si Si1 0.510652 0.653480 0.189193
Si Si2 0.695929 0.412033 0.848724
Si Si3 0.250000 0.750000 0.000000
Si Si4 0.914613 0.775201 0.976220
O O1 0.474392 0.750000 0.250000
O O2 0.599884 0.599884 0.250000
O O3 0.421057 0.574449 0.174571
O O4 0.543804 0.699264 0.084499
O O5 0.750000 0.378811 0.750000
O O6 0.763108 0.499812 0.895067
O O7 0.695105 0.327379 0.930830
O O8 0.830462 0.858807 0.965301
#
# Coordination Sequence:
#
# PCOD9563696 Si02
#       4
#    16  16   4  16
#     4  12  25  44  78 112 145 191 251 311 368 431
#     4  12  28  45  71 108 152 194 243 306 378 454
#     4  12  22  48  72 102 148 192 246 296 376 438
#     4  11  26  48  74 105 144 193 249 311 370 439
#
# _framework density 21.224965999999998
#
# number of rings (size 3 to 8) (size 9 to 14) (size 15 to 20)
#    0.000    0.308    6.154    2.308    4.308    1.538 
#    0.000    1.538    0.000    0.000    0.000    0.000 
#    0.000    0.000    0.000    0.000    0.000    0.000 
#
# Total GULP energy -290250.286609 kJ/mol
# GULP energy per Si atom -5581.736281 kJ/mol
# Density = 2.117666 g / cm^3
# Si number density = 21.224966 Si / 1000 Ang^3
#
#
#
# Elastic Constant Matrix: (Units=GPa)
#
#
# Indices 1 2 3 4 5 6 
#
# 1 81.5921 12.9291 37.0259 0.0000 0.0000 0.0000
# 2 12.9291 81.5921 37.0259 0.0000 0.0000 0.0000
# 3 37.0259 37.0259 109.6420 0.0000 0.0000 0.0000
# 4 0.0000 0.0000 0.0000 -24.3178 0.0000 0.0000
# 5 0.0000 0.0000 0.0000 0.0000 -24.3178 0.0000
# 6 0.0000 0.0000 0.0000 0.0000 0.0000 130.7922
#
#
#
# Elastic Compliance Matrix: (Units=1/GPa)
#
#
# Indices 1 2 3 4 5 6 
#
# 1 0.014475 -0.000089 -0.004858 0.000000 0.000000 0.000000
# 2 -0.000089 0.014475 -0.004858 0.000000 0.000000 0.000000
# 3 -0.004858 -0.004858 0.012402 0.000000 0.000000 0.000000
# 4 0.000000 0.000000 0.000000 -0.041122 0.000000 0.000000
# 5 0.000000 0.000000 0.000000 0.000000 -0.041122 0.000000
# 6 0.000000 0.000000 0.000000 0.000000 0.000000 0.007646
#
#
# Mechanical properties :
#
#
# Convention : Reuss Voigt Hill
#
# Bulk Modulus (GPa) = 45.99630 49.64313 47.81971
# Shear Modulus (GPa) = -782.44380 28.82100 -376.81140
#
# Velocity S-wave (km/s) = -19.22091 3.68894 -13.33857
# Velocity P-wave (km/s) = 21.69962 6.44858 14.65075
#
# Compressibility (1/GPa) = 0.02174088
#
# Stress axis : x y z
#
# Youngs Moduli (GPa) = 69.08589 69.08589 80.63436
#
# Poissons Ratio (x) = 0.00616 0.39172
# Poissons Ratio (y) = 0.00616 0.39172
# Poissons Ratio (z) = 0.33562 0.33562
#
# Static dielectric constant tensor:
#      x y z
#    x 1.773990 0.000000 0.000000 
#    y 0.000000 1.773990 0.000000 
#    z 0.000000 0.000000 1.734220 
# 
# From -- ./inp_files/2377.got.cif
#   From: 2010.05.17/outbox.cif.g08.bks.cpg/sg126_2_cif.got.tgz:2377.got - 2010.05.20 11:58:20.
