data_PCOD9563013
_publ_section_title
;
Structure prediction by ZEFSAII (Michael W. Deem and Ramdas Pophale) SiO2 
 PCOD9563013
Probable space group: P 4/N B M
;
_chemical_formula_sum "Si O2"
_cell_formula_units_Z 96
_cell_length_a 14.248155
_cell_length_b 14.248155
_cell_length_c 24.711569
_cell_angle_alpha 90.000000
_cell_angle_beta 90.000000
_cell_angle_gamma 90.000000
_cell_volume 5016.693668
_symmetry_space_group_name_H-M "P 4/N B M"
_symmetry_group_IT_number 125
_space_group.IT_coordinate_system_code '2'
_symmetry_cell_setting 'tetragonal'
loop_
_space_group_symop_operation_xyz
x,y,z
1/2-y,x,z
1/2-x,1/2-y,z
y,1/2-x,z
x,1/2-y,-z
1/2-x,y,-z
y,x,-z
1/2-y,1/2-x,-z
-x,-y,-z
1/2+y,-x,-z
1/2+x,1/2+y,-z
-y,1/2+x,-z
-x,1/2+y,z
1/2+x,-y,z
-y,-x,z
1/2+y,1/2+x,z
loop_
_atom_site_type_symbol
_atom_site_label
_atom_site_fract_x
_atom_site_fract_y
_atom_site_fract_z
Si Si1 0.504347 0.647609 0.526744
Si Si2 0.618475 0.966391 0.149702
Si Si3 0.491615 0.350651 0.969947
Si Si4 0.672562 0.615540 0.370037
Si Si5 0.251047 0.605907 0.213229
Si Si6 0.887542 0.958150 0.255591
O O1 0.501416 0.750000 0.500000
O O2 0.588312 0.588312 0.500000
O O3 0.408605 0.591396 0.517166
O O4 0.531735 0.644798 0.590113
O O5 0.517696 0.017696 0.141469
O O6 0.690740 0.042721 0.172741
O O7 0.657305 0.946487 0.090264
O O8 0.600052 0.894085 0.199068
O O9 0.591080 0.408921 0.966481
O O10 0.501526 0.250000 0.000000
O O11 0.419474 0.419474 0.000000
O O12 0.783172 0.627630 0.381193
O O13 0.641467 0.597755 0.308404
O O14 0.326397 0.673604 0.241877
O O15 0.175044 0.675044 0.185987
O O16 0.191780 0.537315 0.250025
O O17 0.987357 0.012644 0.261548
#
# Coordination Sequence:
#
# PCOD9563013 Si02
#       6
#    16  16  16  16  16  16
#     4  11  23  42  68  96 128 171 216 260 315 372
#     4   9  19  35  55  82 113 150 194 245 307 369
#     4  10  23  41  62  88 120 158 205 256 310 378
#     4  11  22  37  60  90 124 162 214 265 306 369
#     4   9  18  33  55  82 110 146 192 239 297 365
#     4  10  20  35  57  85 121 158 196 249 314 377
#
# _framework density 19.136109999999999
#
# number of rings (size 3 to 8) (size 9 to 14) (size 15 to 20)
#    0.000    2.000    1.667    1.500    2.333    1.333 
#    0.000    3.333    0.000    2.000    0.000    0.000 
#    0.000    0.000    0.000    0.000    0.000    0.000 
#
# Total GULP energy -534536.063161 kJ/mol
# GULP energy per Si atom -5568.083991 kJ/mol
# Density = 1.909255 g / cm^3
# Si number density = 19.136110 Si / 1000 Ang^3
#
#
#
# Elastic Constant Matrix: (Units=GPa)
#
#
# Indices 1 2 3 4 5 6 
#
# 1 100.0531 22.5502 30.4572 0.0000 0.0000 0.0000
# 2 22.5502 100.0531 30.4572 0.0000 0.0000 0.0000
# 3 30.4572 30.4572 95.9162 0.0000 0.0000 0.0000
# 4 0.0000 0.0000 0.0000 21.9807 0.0000 0.0000
# 5 0.0000 0.0000 0.0000 0.0000 21.9807 0.0000
# 6 0.0000 0.0000 0.0000 0.0000 0.0000 14.7073
#
#
#
# Elastic Compliance Matrix: (Units=1/GPa)
#
#
# Indices 1 2 3 4 5 6 
#
# 1 0.011293 -0.001609 -0.003075 0.000000 0.000000 0.000000
# 2 -0.001609 0.011293 -0.003075 0.000000 0.000000 0.000000
# 3 -0.003075 -0.003075 0.012379 0.000000 0.000000 0.000000
# 4 0.000000 0.000000 0.000000 0.045494 0.000000 0.000000
# 5 0.000000 0.000000 0.000000 0.000000 0.045494 0.000000
# 6 0.000000 0.000000 0.000000 0.000000 0.000000 0.067994
#
#
# Mechanical properties :
#
#
# Convention : Reuss Voigt Hill
#
# Bulk Modulus (GPa) = 51.42264 51.43904 51.43084
# Shear Modulus (GPa) = 23.15357 25.90426 24.52892
#
# Velocity S-wave (km/s) = 3.48219 3.68324 3.58413
# Velocity P-wave (km/s) = 6.56490 6.71024 6.63797
#
# Compressibility (1/GPa) = 0.01944669
#
# Stress axis : x y z
#
# Youngs Moduli (GPa) = 88.54660 88.54660 80.78387
#
# Poissons Ratio (x) = 0.14249 0.24842
# Poissons Ratio (y) = 0.14249 0.24842
# Poissons Ratio (z) = 0.27229 0.27229
#
# Static dielectric constant tensor:
#      x y z
#    x 1.694850 0.000000 0.000000 
#    y 0.000000 1.694850 0.000000 
#    z 0.000000 0.000000 1.723570 
# 
# From -- ./inp_files/5907.got.cif
#   From: 2010.05.17/outbox.cif.g08.bks.cpg/sg125_3_cif.got.tgz:5907.got - 2010.05.20 11:54:10.
