data_PCOD9563609
_publ_section_title
;
Structure prediction by ZEFSAII (Michael W. Deem and Ramdas Pophale) SiO2 
 PCOD9563609
Probable space group: P 4/N N C
;
_chemical_formula_sum "Si O2"
_cell_formula_units_Z 88
_cell_length_a 11.389894
_cell_length_b 11.389894
_cell_length_c 30.838372
_cell_angle_alpha 90.000000
_cell_angle_beta 90.000000
_cell_angle_gamma 90.000000
_cell_volume 4000.652296
_symmetry_space_group_name_H-M "P 4/N N C"
_symmetry_group_IT_number 126
_space_group.IT_coordinate_system_code '2'
_symmetry_cell_setting 'tetragonal'
loop_
_space_group_symop_operation_xyz
x,y,z
1/2-y,x,z
1/2-x,1/2-y,z
y,1/2-x,z
x,1/2-y,1/2-z
1/2-x,y,1/2-z
y,x,1/2-z
1/2-y,1/2-x,1/2-z
-x,-y,-z
1/2+y,-x,-z
1/2+x,1/2+y,-z
-y,1/2+x,-z
-x,1/2+y,1/2+z
1/2+x,-y,1/2+z
-y,-x,1/2+z
1/2+y,1/2+x,1/2+z
loop_
_atom_site_type_symbol
_atom_site_label
_atom_site_fract_x
_atom_site_fract_y
_atom_site_fract_z
Si Si1 0.253650 0.061546 0.609069
Si Si2 0.529819 0.676365 0.016082
Si Si3 0.433242 0.315831 0.353078
Si Si4 0.651869 0.992578 0.546216
Si Si5 0.750000 0.552163 0.250000
Si Si6 0.375795 0.692867 0.172833
O O1 0.365135 0.138198 0.623731
O O2 0.256875 0.062762 0.556989
O O3 0.241817 0.932698 0.628252
O O4 0.461574 0.572407 0.040545
O O5 0.625536 0.620799 0.983659
O O6 0.449209 0.742381 0.980582
O O7 0.318918 0.395891 0.343401
O O8 0.460034 0.322802 0.404692
O O9 0.552252 0.358332 0.329996
O O10 0.862608 0.637393 0.250000
O O11 0.765442 0.467981 0.208787
O O12 0.250000 0.750000 0.180483
#
# Coordination Sequence:
#
# PCOD9563609 Si02
#       6
#    16  16  16  16   8  16
#     4  11  23  40  67 102 139 190 254 319 373 426
#     4  11  22  35  57  87 132 191 254 313 360 413
#     4  11  25  44  71 104 149 205 250 297 362 445
#     4  11  22  37  58  88 136 193 254 308 362 421
#     4  11  27  56  90 120 147 181 226 290 376 461
#     4  12  28  47  78 113 150 187 230 302 374 449
#
# _framework density 21.996411999999999
#
# number of rings (size 3 to 8) (size 9 to 14) (size 15 to 20)
#    0.000    0.818    5.455    1.364    5.091    3.636 
#    0.000    0.000    0.000    0.000    0.000    0.000 
#    0.000    0.000    0.000    0.000    0.000    0.000 
#
# Total GULP energy -491556.956513 kJ/mol
# GULP energy per Si atom -5585.874506 kJ/mol
# Density = 2.194635 g / cm^3
# Si number density = 21.996412 Si / 1000 Ang^3
#
#
#
# Elastic Constant Matrix: (Units=GPa)
#
#
# Indices 1 2 3 4 5 6 
#
# 1 107.0823 47.2500 37.8708 0.0000 0.0000 0.0000
# 2 47.2500 107.0824 37.8706 0.0000 0.0000 0.0000
# 3 37.8708 37.8706 81.2092 0.0000 0.0000 0.0000
# 4 0.0000 0.0000 0.0000 34.6134 0.0000 0.0000
# 5 0.0000 0.0000 0.0000 0.0000 34.6136 0.0000
# 6 0.0000 0.0000 0.0000 0.0000 0.0000 22.8025
#
#
#
# Elastic Compliance Matrix: (Units=1/GPa)
#
#
# Indices 1 2 3 4 5 6 
#
# 1 0.012558 -0.004155 -0.003918 0.000000 0.000000 0.000000
# 2 -0.004155 0.012558 -0.003918 0.000000 0.000000 0.000000
# 3 -0.003918 -0.003918 0.015968 0.000000 0.000000 0.000000
# 4 0.000000 0.000000 0.000000 0.028891 0.000000 0.000000
# 5 0.000000 0.000000 0.000000 0.000000 0.028890 0.000000
# 6 0.000000 0.000000 0.000000 0.000000 0.000000 0.043855
#
#
# Mechanical properties :
#
#
# Convention : Reuss Voigt Hill
#
# Bulk Modulus (GPa) = 58.47974 60.15074 59.31524
# Shear Modulus (GPa) = 29.00159 29.89810 29.44984
#
# Velocity S-wave (km/s) = 3.63501 3.69077 3.66300
# Velocity P-wave (km/s) = 6.65293 6.75037 6.70183
#
# Compressibility (1/GPa) = 0.01709994
#
# Stress axis : x y z
#
# Youngs Moduli (GPa) = 79.63072 79.63095 62.62353
#
# Poissons Ratio (x) = 0.33090 0.24539
# Poissons Ratio (y) = 0.33090 0.24538
# Poissons Ratio (z) = 0.31203 0.31202
#
# Static dielectric constant tensor:
#      x y z
#    x 1.917810 0.000000 0.000000 
#    y 0.000000 1.917810 0.000000 
#    z 0.000000 0.000000 1.828400 
# 
# From -- ./inp_files/6565.got.cif
#   From: 2010.05.17/outbox.cif.g08.bks.cpg/sg126_4_cif.got.tgz:6565.got - 2010.05.20 11:58:20.
