data_PCOD9563403
_publ_section_title
;
Structure prediction by ZEFSAII (Michael W. Deem and Ramdas Pophale) SiO2 
 PCOD9563403
Probable space group: P 4/N N C
;
_chemical_formula_sum "Si O2"
_cell_formula_units_Z 96
_cell_length_a 14.817162
_cell_length_b 14.817162
_cell_length_c 21.570894
_cell_angle_alpha 90.000000
_cell_angle_beta 90.000000
_cell_angle_gamma 90.000000
_cell_volume 4735.852886
_symmetry_space_group_name_H-M "P 4/N N C"
_symmetry_group_IT_number 126
_space_group.IT_coordinate_system_code '2'
_symmetry_cell_setting 'tetragonal'
loop_
_space_group_symop_operation_xyz
x,y,z
1/2-y,x,z
1/2-x,1/2-y,z
y,1/2-x,z
x,1/2-y,1/2-z
1/2-x,y,1/2-z
y,x,1/2-z
1/2-y,1/2-x,1/2-z
-x,-y,-z
1/2+y,-x,-z
1/2+x,1/2+y,-z
-y,1/2+x,-z
-x,1/2+y,1/2+z
1/2+x,-y,1/2+z
-y,-x,1/2+z
1/2+y,1/2+x,1/2+z
loop_
_atom_site_type_symbol
_atom_site_label
_atom_site_fract_x
_atom_site_fract_y
_atom_site_fract_z
Si Si1 0.440309 0.911688 0.998816
Si Si2 0.146853 0.931071 0.244297
Si Si3 0.892064 0.798347 0.526184
Si Si4 0.113052 0.190596 0.325950
Si Si5 0.872949 0.344037 0.376401
Si Si6 0.130354 0.838966 0.126048
O O1 0.513653 0.830289 0.002333
O O2 0.377435 0.911775 0.058882
O O3 0.383436 0.909929 0.935406
O O4 0.500000 0.000000 0.000000
O O5 0.250000 0.894126 0.250000
O O6 0.117902 0.925474 0.315922
O O7 0.095212 0.872583 0.192965
O O8 0.155648 0.027786 0.211534
O O9 0.804231 0.861097 0.511656
O O10 0.904420 0.810644 0.600409
O O11 0.204714 0.136237 0.313333
O O12 0.870372 0.235424 0.376625
O O13 0.768595 0.373195 0.374142
#
# Coordination Sequence:
#
# PCOD9563403 Si02
#       6
#    16  16  16  16  16  16
#     4  12  25  37  62  92 120 156 205 257 302 362
#     4  10  20  37  59  87 115 158 208 252 295 370
#     4   9  20  38  62  88 124 165 200 240 300 373
#     4   9  18  35  58  88 127 172 205 239 306 387
#     4  10  23  40  62  90 121 161 205 256 309 361
#     4  10  21  43  64  84 119 167 205 250 312 365
#
# _framework density 20.270900999999999
#
# number of rings (size 3 to 8) (size 9 to 14) (size 15 to 20)
#    0.000    2.000    1.667    2.500    4.667    5.333 
#    6.000    0.833    0.000    0.000    0.000    0.000 
#    0.000    0.000    0.000    0.000    0.000    0.167 
#
# Total GULP energy -536443.589275 kJ/mol
# GULP energy per Si atom -5587.954055 kJ/mol
# Density = 2.022476 g / cm^3
# Si number density = 20.270901 Si / 1000 Ang^3
#
#
#
# Elastic Constant Matrix: (Units=GPa)
#
#
# Indices 1 2 3 4 5 6 
#
# 1 58.4412 8.8436 24.1360 0.0000 0.0000 0.0000
# 2 8.8436 58.4412 24.1360 0.0000 0.0000 0.0000
# 3 24.1360 24.1360 126.2065 0.0000 0.0000 0.0000
# 4 0.0000 0.0000 0.0000 25.1252 0.0000 0.0000
# 5 0.0000 0.0000 0.0000 0.0000 25.1252 0.0000
# 6 0.0000 0.0000 0.0000 0.0000 0.0000 22.9819
#
#
#
# Elastic Compliance Matrix: (Units=1/GPa)
#
#
# Indices 1 2 3 4 5 6 
#
# 1 0.018694 -0.001468 -0.003294 0.000000 0.000000 0.000000
# 2 -0.001468 0.018694 -0.003294 0.000000 0.000000 0.000000
# 3 -0.003294 -0.003294 0.009184 0.000000 0.000000 0.000000
# 4 0.000000 0.000000 0.000000 0.039801 0.000000 0.000000
# 5 0.000000 0.000000 0.000000 0.000000 0.039801 0.000000
# 6 0.000000 0.000000 0.000000 0.000000 0.000000 0.043513
#
#
# Mechanical properties :
#
#
# Convention : Reuss Voigt Hill
#
# Bulk Modulus (GPa) = 32.83245 39.70224 36.26735
# Shear Modulus (GPa) = 25.51652 27.04468 26.28060
#
# Velocity S-wave (km/s) = 3.55177 3.65658 3.60456
# Velocity P-wave (km/s) = 5.74910 6.12011 5.93750
#
# Compressibility (1/GPa) = 0.03045767
#
# Stress axis : x y z
#
# Youngs Moduli (GPa) = 53.49327 53.49327 108.89056
#
# Poissons Ratio (x) = 0.07855 0.35871
# Poissons Ratio (y) = 0.07855 0.35871
# Poissons Ratio (z) = 0.17622 0.17622
#
# Static dielectric constant tensor:
#      x y z
#    x 1.757930 0.000000 0.000000 
#    y 0.000000 1.757930 0.000000 
#    z 0.000000 0.000000 1.796080 
# 
# From -- ./inp_files/5247.got.cif
#   From: 2010.05.17/outbox.cif.g08.bks.cpg/sg126_3_cif.got.tgz:5247.got - 2010.05.20 11:58:20.
