data_PCOD9563087
_publ_section_title
;
Structure prediction by ZEFSAII (Michael W. Deem and Ramdas Pophale) SiO2 
 PCOD9563087
Probable space group: P 4/N B M
;
_chemical_formula_sum "Si O2"
_cell_formula_units_Z 72
_cell_length_a 20.307364
_cell_length_b 20.307364
_cell_length_c 9.398462
_cell_angle_alpha 90.000000
_cell_angle_beta 90.000000
_cell_angle_gamma 90.000000
_cell_volume 3875.822652
_symmetry_space_group_name_H-M "P 4/N B M"
_symmetry_group_IT_number 125
_space_group.IT_coordinate_system_code '2'
_symmetry_cell_setting 'tetragonal'
loop_
_space_group_symop_operation_xyz
x,y,z
1/2-y,x,z
1/2-x,1/2-y,z
y,1/2-x,z
x,1/2-y,-z
1/2-x,y,-z
y,x,-z
1/2-y,1/2-x,-z
-x,-y,-z
1/2+y,-x,-z
1/2+x,1/2+y,-z
-y,1/2+x,-z
-x,1/2+y,z
1/2+x,-y,z
-y,-x,z
1/2+y,1/2+x,z
loop_
_atom_site_type_symbol
_atom_site_label
_atom_site_fract_x
_atom_site_fract_y
_atom_site_fract_z
Si Si1 0.251035 0.495529 0.836294
Si Si2 0.006952 0.614747 0.332746
Si Si3 0.778134 0.641727 0.287180
Si Si4 0.814071 0.079880 0.591512
Si Si5 0.617398 0.617398 0.500000
O O1 0.325643 0.503713 0.778454
O O2 0.225475 0.420266 0.817986
O O3 0.207773 0.539786 0.729852
O O4 0.250000 0.515092 0.000000
O O5 0.053429 0.553429 0.291896
O O6 0.035937 0.644042 0.480582
O O7 0.932111 0.599243 0.373314
O O8 0.826232 0.705337 0.275038
O O9 0.809739 0.611824 0.432799
O O10 0.750000 0.099319 0.500000
O O11 0.857553 0.142448 0.630339
#
# Coordination Sequence:
#
# PCOD9563087 Si02
#       5
#    16  16  16  16   8
#     4  11  23  40  60  86 129 168 202 250 308 376
#     4  10  21  38  61  88 116 152 202 257 304 359
#     4  11  23  37  59  89 121 162 206 254 307 358
#     4   9  19  37  61  88 115 150 198 253 310 362
#     4  12  19  37  64  88 116 152 210 264 306 360
#
# _framework density 18.576701
#
# number of rings (size 3 to 8) (size 9 to 14) (size 15 to 20)
#    0.000    1.556    4.444    1.000    0.000    2.889 
#    0.000    1.111    0.000    1.333    0.000    3.111 
#    0.000    0.000    0.000    0.000    0.000    0.000 
#
# Total GULP energy -401018.283158 kJ/mol
# GULP energy per Si atom -5569.698377 kJ/mol
# Density = 1.853442 g / cm^3
# Si number density = 18.576701 Si / 1000 Ang^3
#
#
#
# Elastic Constant Matrix: (Units=GPa)
#
#
# Indices 1 2 3 4 5 6 
#
# 1 89.3550 60.8028 36.3622 0.0000 0.0000 0.0000
# 2 60.8028 89.3550 36.3622 0.0000 0.0000 0.0000
# 3 36.3622 36.3622 112.5016 0.0000 0.0000 0.0000
# 4 0.0000 0.0000 0.0000 9.9526 0.0000 0.0000
# 5 0.0000 0.0000 0.0000 0.0000 9.9526 0.0000
# 6 0.0000 0.0000 0.0000 0.0000 0.0000 30.9843
#
#
#
# Elastic Compliance Matrix: (Units=1/GPa)
#
#
# Indices 1 2 3 4 5 6 
#
# 1 0.021460 -0.013564 -0.002552 0.000000 0.000000 0.000000
# 2 -0.013564 0.021460 -0.002552 0.000000 0.000000 0.000000
# 3 -0.002552 -0.002552 0.010538 0.000000 0.000000 0.000000
# 4 0.000000 0.000000 0.000000 0.100476 0.000000 0.000000
# 5 0.000000 0.000000 0.000000 0.000000 0.100476 0.000000
# 6 0.000000 0.000000 0.000000 0.000000 0.000000 0.032274
#
#
# Mechanical properties :
#
#
# Convention : Reuss Voigt Hill
#
# Bulk Modulus (GPa) = 62.02795 62.02957 62.02876
# Shear Modulus (GPa) = 15.17940 20.69020 17.93480
#
# Velocity S-wave (km/s) = 2.86163 3.34094 3.11053
# Velocity P-wave (km/s) = 6.66193 6.95313 6.80909
#
# Compressibility (1/GPa) = 0.01612176
#
# Stress axis : x y z
#
# Youngs Moduli (GPa) = 46.59921 46.59921 94.89066
#
# Poissons Ratio (x) = 0.63207 0.24216
# Poissons Ratio (y) = 0.63207 0.24216
# Poissons Ratio (z) = 0.11892 0.11892
#
# Static dielectric constant tensor:
#      x y z
#    x 1.665470 0.000000 0.000000 
#    y 0.000000 1.665470 0.000000 
#    z 0.000000 0.000000 1.643110 
# 
# From -- ./inp_files/2582.got.cif
#   From: 2010.05.17/outbox.cif.g08.bks.cpg/sg125_2_cif.got.tgz:2582.got - 2010.05.20 11:54:10.
