data_PCOD9563316
_publ_section_title
;
Structure prediction by ZEFSAII (Michael W. Deem and Ramdas Pophale) SiO2 
 PCOD9563316
Probable space group: P 4/N N C
;
_chemical_formula_sum "Si O2"
_cell_formula_units_Z 112
_cell_length_a 14.112508
_cell_length_b 14.112508
_cell_length_c 28.018491
_cell_angle_alpha 90.000000
_cell_angle_beta 90.000000
_cell_angle_gamma 90.000000
_cell_volume 5580.243418
_symmetry_space_group_name_H-M "P 4/N N C"
_symmetry_group_IT_number 126
_space_group.IT_coordinate_system_code '2'
_symmetry_cell_setting 'tetragonal'
loop_
_space_group_symop_operation_xyz
x,y,z
1/2-y,x,z
1/2-x,1/2-y,z
y,1/2-x,z
x,1/2-y,1/2-z
1/2-x,y,1/2-z
y,x,1/2-z
1/2-y,1/2-x,1/2-z
-x,-y,-z
1/2+y,-x,-z
1/2+x,1/2+y,-z
-y,1/2+x,-z
-x,1/2+y,1/2+z
1/2+x,-y,1/2+z
-y,-x,1/2+z
1/2+y,1/2+x,1/2+z
loop_
_atom_site_type_symbol
_atom_site_label
_atom_site_fract_x
_atom_site_fract_y
_atom_site_fract_z
Si Si1 0.821575 0.019196 0.417401
Si Si2 0.143057 0.360069 0.443390
Si Si3 0.918696 0.566597 0.842359
Si Si4 0.994342 0.890432 0.402875
Si Si5 0.740853 0.034599 0.696445
Si Si6 0.047371 0.641122 0.525973
Si Si7 0.274897 0.858887 0.397153
O O1 0.889645 0.929020 0.412801
O O2 0.721227 0.999475 0.391950
O O3 0.820081 0.051951 0.472941
O O4 0.869836 0.112359 0.395321
O O5 0.122936 0.250330 0.455529
O O6 0.126368 0.382573 0.388164
O O7 0.056493 0.407563 0.469650
O O8 0.962144 0.468304 0.865269
O O9 0.825976 0.540144 0.811980
O O10 0.987290 0.638015 0.813838
O O11 0.057731 0.891203 0.451088
O O12 0.750000 0.071297 0.750000
O O13 0.759119 0.111731 0.655153
O O14 0.074052 0.725555 0.563476
O O15 0.250000 0.750000 0.408472
#
# Coordination Sequence:
#
# PCOD9563316 Si02
#       7
#    16  16  16  16  16  16  16
#     4  12  25  40  63  92 128 177 225 274 329 385
#     4  10  19  32  54  82 123 168 201 246 310 374
#     4  11  20  41  60  92 125 163 208 257 320 397
#     4  11  24  42  62  87 128 176 222 281 330 381
#     4  12  24  40  65  93 127 168 204 261 328 400
#     4  11  23  37  62  90 127 168 221 268 326 388
#     4  12  23  42  63  92 128 162 218 269 322 391
#
# _framework density 20.070810000000002
#
# number of rings (size 3 to 8) (size 9 to 14) (size 15 to 20)
#    0.000    0.714    7.143    1.714    4.000    0.857 
#    0.000    0.714    0.000    0.000    0.000    0.000 
#    0.000    0.000    0.000    0.000    0.000    0.000 
#
# Total GULP energy -624408.818345 kJ/mol
# GULP energy per Si atom -5575.078735 kJ/mol
# Density = 2.002513 g / cm^3
# Si number density = 20.070810 Si / 1000 Ang^3
#
#
#
# Elastic Constant Matrix: (Units=GPa)
#
#
# Indices 1 2 3 4 5 6 
#
# 1 87.3219 23.7388 16.4980 0.0000 0.0000 0.0000
# 2 23.7388 87.3219 16.4980 0.0000 0.0000 0.0000
# 3 16.4980 16.4980 88.5612 0.0000 0.0000 0.0000
# 4 0.0000 0.0000 0.0000 9.0993 0.0000 0.0000
# 5 0.0000 0.0000 0.0000 0.0000 9.0993 0.0000
# 6 0.0000 0.0000 0.0000 0.0000 0.0000 27.7517
#
#
#
# Elastic Compliance Matrix: (Units=1/GPa)
#
#
# Indices 1 2 3 4 5 6 
#
# 1 0.012630 -0.003098 -0.001776 0.000000 0.000000 0.000000
# 2 -0.003098 0.012630 -0.001776 0.000000 0.000000 0.000000
# 3 -0.001776 -0.001776 0.011953 0.000000 0.000000 0.000000
# 4 0.000000 0.000000 0.000000 0.109898 0.000000 0.000000
# 5 0.000000 0.000000 0.000000 0.000000 0.109898 0.000000
# 6 0.000000 0.000000 0.000000 0.000000 0.000000 0.036034
#
#
# Mechanical properties :
#
#
# Convention : Reuss Voigt Hill
#
# Bulk Modulus (GPa) = 41.81669 41.85271 41.83470
# Shear Modulus (GPa) = 15.90773 22.95476 19.43124
#
# Velocity S-wave (km/s) = 2.81833 3.38552 3.11486
# Velocity P-wave (km/s) = 5.60986 6.01499 5.81595
#
# Compressibility (1/GPa) = 0.02391390
#
# Stress axis : x y z
#
# Youngs Moduli (GPa) = 79.17951 79.17951 83.65966
#
# Poissons Ratio (x) = 0.24529 0.14855
# Poissons Ratio (y) = 0.24529 0.14855
# Poissons Ratio (z) = 0.14059 0.14059
#
# Static dielectric constant tensor:
#      x y z
#    x 1.747670 0.000000 0.000000 
#    y 0.000000 1.747670 0.000000 
#    z 0.000000 0.000000 1.707260 
# 
# From -- ./inp_files/6205.got.cif
#   From: 2010.05.17/outbox.cif.g08.bks.cpg/sg126_4_cif.got.tgz:6205.got - 2010.05.20 11:58:20.
