data_PCOD9563210
_publ_section_title
;
Structure prediction by ZEFSAII (Michael W. Deem and Ramdas Pophale) SiO2 
 PCOD9563210
Probable space group: P 4/N B M
;
_chemical_formula_sum "Si O2"
_cell_formula_units_Z 96
_cell_length_a 15.775086
_cell_length_b 15.775086
_cell_length_c 21.090594
_cell_angle_alpha 90.000000
_cell_angle_beta 90.000000
_cell_angle_gamma 90.000000
_cell_volume 5248.464724
_symmetry_space_group_name_H-M "P 4/N B M"
_symmetry_group_IT_number 125
_space_group.IT_coordinate_system_code '2'
_symmetry_cell_setting 'tetragonal'
loop_
_space_group_symop_operation_xyz
x,y,z
1/2-y,x,z
1/2-x,1/2-y,z
y,1/2-x,z
x,1/2-y,-z
1/2-x,y,-z
y,x,-z
1/2-y,1/2-x,-z
-x,-y,-z
1/2+y,-x,-z
1/2+x,1/2+y,-z
-y,1/2+x,-z
-x,1/2+y,z
1/2+x,-y,z
-y,-x,z
1/2+y,1/2+x,z
loop_
_atom_site_type_symbol
_atom_site_label
_atom_site_fract_x
_atom_site_fract_y
_atom_site_fract_z
Si Si1 0.648239 0.845051 0.424729
Si Si2 0.880470 0.810296 0.776998
Si Si3 0.558108 0.581613 0.892074
Si Si4 0.253772 0.891273 0.570613
Si Si5 0.498131 0.140002 0.659437
Si Si6 0.021817 0.842661 0.020448
O O1 0.635674 0.745442 0.407692
O O2 0.643505 0.856496 0.500000
O O3 0.573878 0.893369 0.389268
O O4 0.789454 0.858329 0.773311
O O5 0.923058 0.846812 0.840952
O O6 0.945067 0.832871 0.720707
O O7 0.492249 0.507752 0.869684
O O8 0.518511 0.618090 0.956708
O O9 0.644407 0.539375 0.919291
O O10 0.250000 0.932296 0.500000
O O11 0.184223 0.815777 0.566621
O O12 0.343773 0.843773 0.581522
O O13 0.218125 0.953153 0.624548
O O14 0.568253 0.068253 0.672612
O O15 0.103596 0.896405 0.036784
O O16 0.043483 0.750000 0.000000
#
# Coordination Sequence:
#
# PCOD9563210 Si02
#       6
#    16  16  16  16  16  16
#     4   9  19  36  55  72  99 137 169 204 257 316
#     4  11  23  39  57  74 102 144 184 220 270 333
#     4   9  18  34  56  81 109 140 180 230 270 301
#     4   8  16  33  55  78 105 136 169 212 270 327
#     4  11  22  35  55  81 107 134 173 224 269 322
#     4   9  17  30  52  83 116 147 179 217 262 311
#
# _framework density 18.291063000000001
#
# number of rings (size 3 to 8) (size 9 to 14) (size 15 to 20)
#    0.000    2.500    0.000    4.500    2.333    1.833 
#    0.000    4.167    0.000    5.000    0.000    2.333 
#    0.000    0.000    0.000    0.000    0.000    0.000 
#
# Total GULP energy -534788.444170 kJ/mol
# GULP energy per Si atom -5570.712960 kJ/mol
# Density = 1.824943 g / cm^3
# Si number density = 18.291063 Si / 1000 Ang^3
#
#
#
# Elastic Constant Matrix: (Units=GPa)
#
#
# Indices 1 2 3 4 5 6 
#
# 1 81.5535 27.4833 46.0416 0.0000 0.0000 0.0000
# 2 27.4833 81.5533 46.0419 0.0000 0.0000 0.0000
# 3 46.0416 46.0419 93.8640 0.0000 0.0000 0.0000
# 4 0.0000 0.0000 0.0000 30.1166 0.0000 0.0000
# 5 0.0000 0.0000 0.0000 0.0000 30.1166 0.0000
# 6 0.0000 0.0000 0.0000 0.0000 0.0000 14.3587
#
#
#
# Elastic Compliance Matrix: (Units=1/GPa)
#
#
# Indices 1 2 3 4 5 6 
#
# 1 0.017076 -0.001419 -0.007680 0.000000 0.000000 0.000000
# 2 -0.001419 0.017076 -0.007680 0.000000 0.000000 0.000000
# 3 -0.007680 -0.007680 0.018188 0.000000 0.000000 0.000000
# 4 0.000000 0.000000 0.000000 0.033204 0.000000 0.000000
# 5 0.000000 0.000000 0.000000 0.000000 0.033204 0.000000
# 6 0.000000 0.000000 0.000000 0.000000 0.000000 0.069644
#
#
# Mechanical properties :
#
#
# Convention : Reuss Voigt Hill
#
# Bulk Modulus (GPa) = 53.24207 55.12270 54.18238
# Shear Modulus (GPa) = 21.90955 24.07864 22.99410
#
# Velocity S-wave (km/s) = 3.46472 3.63218 3.54944
# Velocity P-wave (km/s) = 6.72139 6.91319 6.81797
#
# Compressibility (1/GPa) = 0.01878214
#
# Stress axis : x y z
#
# Youngs Moduli (GPa) = 58.56240 58.56194 54.98086
#
# Poissons Ratio (x) = 0.08308 0.42226
# Poissons Ratio (y) = 0.08308 0.42226
# Poissons Ratio (z) = 0.44976 0.44977
#
# Static dielectric constant tensor:
#      x y z
#    x 1.660370 0.000000 0.000000 
#    y 0.000000 1.660370 0.000000 
#    z 0.000000 0.000000 1.653190 
# 
# From -- ./inp_files/5943.got.cif
#   From: 2010.05.17/outbox.cif.g08.bks.cpg/sg125_3_cif.got.tgz:5943.got - 2010.05.20 11:54:10.
