data_PCOD9563900
_publ_section_title
;
Structure prediction by ZEFSAII (Michael W. Deem and Ramdas Pophale) SiO2 
 PCOD9563900
Probable space group: P 4/M B M
;
_chemical_formula_sum "Si O2"
_cell_formula_units_Z 56
_cell_length_a 17.569779
_cell_length_b 17.569779
_cell_length_c 8.093304
_cell_angle_alpha 90.000000
_cell_angle_beta 90.000000
_cell_angle_gamma 90.000000
_cell_volume 2498.379750
_symmetry_space_group_name_H-M "P 4/M B M"
_symmetry_group_IT_number 127
_symmetry_cell_setting 'tetragonal'
loop_
_space_group_symop_operation_xyz
x,y,z
-y,x,z
-x,-y,z
y,-x,z
1/2+x,1/2-y,-z
1/2-x,1/2+y,-z
1/2+y,1/2+x,-z
1/2-y,1/2-x,-z
-x,-y,-z
y,-x,-z
x,y,-z
-y,x,-z
1/2-x,1/2+y,z
1/2+x,1/2-y,z
1/2-y,1/2-x,z
1/2+y,1/2+x,z
loop_
_atom_site_type_symbol
_atom_site_label
_atom_site_fract_x
_atom_site_fract_y
_atom_site_fract_z
Si Si1 0.690534 0.309511 0.304332
Si Si2 0.503752 0.128210 0.500000
Si Si3 0.054749 0.108817 0.801129
Si Si4 0.564431 0.806864 0.181328
O O1 0.700636 0.319570 0.500000
O O2 0.730381 0.230381 0.256773
O O3 0.602956 0.320688 0.260854
O O4 0.738623 0.376449 0.216298
O O5 0.583110 0.083110 0.500000
O O6 0.490108 0.177827 0.335807
O O7 0.437009 0.062992 0.500000
O O8 0.968250 0.098254 0.745451
O O9 0.054108 0.109240 0.000000
O O10 0.618528 0.881473 0.173687
O O11 0.528859 0.795607 0.000000
#
# Coordination Sequence:
#
# PCOD9563900 Si02
#       4
#    16   8  16  16
#     4  10  19  32  53  82 114 147 189 240 289 344
#     4   9  16  26  40  62  94 129 172 228 283 338
#     4   9  19  36  57  84 118 152 189 239 297 354
#     4   9  16  27  44  67  97 134 177 226 279 331
#
# _framework density 22.414525999999999
#
# number of rings (size 3 to 8) (size 9 to 14) (size 15 to 20)
#    0.000    2.714    1.429    1.714    0.000    3.429 
#    0.000    4.286    0.000    1.714    0.000    4.000 
#    0.000    0.000    0.000    0.000    0.000    0.000 
#
# Total GULP energy -312792.035959 kJ/mol
# GULP energy per Si atom -5585.572071 kJ/mol
# Density = 2.236351 g / cm^3
# Si number density = 22.414526 Si / 1000 Ang^3
#
#
#
# Elastic Constant Matrix: (Units=GPa)
#
#
# Indices 1 2 3 4 5 6 
#
# 1 61.4795 57.5834 17.4177 0.0000 0.0000 0.0000
# 2 57.5834 61.4793 17.4175 0.0000 0.0000 0.0000
# 3 17.4177 17.4175 103.0572 0.0000 0.0000 0.0000
# 4 0.0000 0.0000 0.0000 11.1462 0.0000 0.0000
# 5 0.0000 0.0000 0.0000 0.0000 11.1469 0.0000
# 6 0.0000 0.0000 0.0000 0.0000 0.0000 16.4192
#
#
#
# Elastic Compliance Matrix: (Units=1/GPa)
#
#
# Indices 1 2 3 4 5 6 
#
# 1 0.132755 -0.123919 -0.001493 0.000000 0.000000 0.000000
# 2 -0.123919 0.132755 -0.001493 0.000000 0.000000 0.000000
# 3 -0.001493 -0.001493 0.010208 0.000000 0.000000 0.000000
# 4 0.000000 0.000000 0.000000 0.089717 0.000000 0.000000
# 5 0.000000 0.000000 0.000000 0.000000 0.089711 0.000000
# 6 0.000000 0.000000 0.000000 0.000000 0.000000 0.060904
#
#
# Mechanical properties :
#
#
# Convention : Reuss Voigt Hill
#
# Bulk Modulus (GPa) = 45.64863 45.65036 45.64949
# Shear Modulus (GPa) = 6.43364 16.64895 11.54129
#
# Velocity S-wave (km/s) = 1.69603 2.72835 2.27161
# Velocity P-wave (km/s) = 4.92394 5.50779 5.22403
#
# Compressibility (1/GPa) = 0.02190646
#
# Stress axis : x y z
#
# Youngs Moduli (GPa) = 7.53266 7.53265 97.96117
#
# Poissons Ratio (x) = 0.93344 0.14630
# Poissons Ratio (y) = 0.93344 0.14628
# Poissons Ratio (z) = 0.01125 0.01125
#
# Static dielectric constant tensor:
#      x y z
#    x 1.827910 0.000000 0.000000 
#    y 0.000000 1.827910 0.000000 
#    z 0.000000 0.000000 1.803510 
# 
# From -- ./inp_files/1071.got.cif
#   From: 2010.05.17/outbox.cif.g08.bks.cpg/sg127_1_cif.got.tgz:1071.got - 2010.05.20 12:03:00.
