data_PCOD9563938
_publ_section_title
;
Structure prediction by ZEFSAII (Michael W. Deem and Ramdas Pophale) SiO2 
 PCOD9563938
Probable space group: P 4/M B M
;
_chemical_formula_sum "Si O2"
_cell_formula_units_Z 120
_cell_length_a 27.086410
_cell_length_b 27.086410
_cell_length_c 7.746246
_cell_angle_alpha 90.000000
_cell_angle_beta 90.000000
_cell_angle_gamma 90.000000
_cell_volume 5683.216241
_symmetry_space_group_name_H-M "P 4/M B M"
_symmetry_group_IT_number 127
_symmetry_cell_setting 'tetragonal'
loop_
_space_group_symop_operation_xyz
x,y,z
-y,x,z
-x,-y,z
y,-x,z
1/2+x,1/2-y,-z
1/2-x,1/2+y,-z
1/2+y,1/2+x,-z
1/2-y,1/2-x,-z
-x,-y,-z
y,-x,-z
x,y,-z
-y,x,-z
1/2-x,1/2+y,z
1/2+x,1/2-y,z
1/2-y,1/2-x,z
1/2+y,1/2+x,z
loop_
_atom_site_type_symbol
_atom_site_label
_atom_site_fract_x
_atom_site_fract_y
_atom_site_fract_z
Si Si1 0.651435 0.019135 0.804565
Si Si2 0.699461 0.666690 0.296513
Si Si3 0.903610 0.890170 0.209326
Si Si4 0.655351 0.767469 0.290484
Si Si5 0.149504 0.010007 0.211225
Si Si6 0.461115 0.961115 0.297517
Si Si7 0.741971 0.958861 0.205160
Si Si8 0.881183 0.701679 0.295819
O O1 0.595875 0.025998 0.739927
O O2 0.677878 0.072208 0.796249
O O3 0.691936 0.982856 0.719743
O O4 0.645189 0.001925 0.000000
O O5 0.710633 0.672516 0.500000
O O6 0.650171 0.635324 0.272619
O O7 0.688513 0.721318 0.228807
O O8 0.745625 0.636253 0.224759
O O9 0.957969 0.873438 0.266827
O O10 0.884691 0.943979 0.264341
O O11 0.903265 0.889532 0.000000
O O12 0.654400 0.766057 0.500000
O O13 0.681881 0.818119 0.237479
O O14 0.599744 0.759970 0.229393
O O15 0.205934 0.019251 0.271476
O O16 0.150437 0.009927 0.000000
O O17 0.465432 0.965432 0.500000
O O18 0.500000 0.000000 0.216708
O O19 0.742304 0.969594 0.000000
O O20 0.894254 0.705797 0.500000
O O21 0.835353 0.664648 0.282661
#
# Coordination Sequence:
#
# PCOD9563938 Si02
#       8
#    16  16  16  16  16   8  16  16
#     4  11  23  39  62  90 122 155 195 249 303 355
#     4  10  20  35  55  83 115 151 191 233 287 347
#     4  10  19  34  56  79 111 151 193 240 288 339
#     4  10  21  37  57  82 113 149 192 239 285 342
#     4   9  18  33  55  83 113 150 193 239 285 334
#     4  11  25  45  67  89 119 159 205 253 301 359
#     4  10  21  38  57  83 119 155 193 240 294 346
#     4  10  20  35  57  84 117 152 188 235 292 354
#
# _framework density 21.114805
#
# number of rings (size 3 to 8) (size 9 to 14) (size 15 to 20)
#    0.000    1.933    2.000    1.800    0.000    5.867 
#    0.000    5.333    0.000    2.400    0.000    0.933 
#    0.000    0.000    0.000    0.000    0.000    0.000 
#
# Total GULP energy -670025.683683 kJ/mol
# GULP energy per Si atom -5583.547364 kJ/mol
# Density = 2.106675 g / cm^3
# Si number density = 21.114805 Si / 1000 Ang^3
#
#
#
# Elastic Constant Matrix: (Units=GPa)
#
#
# Indices 1 2 3 4 5 6 
#
# 1 630.5079 -438.8841 3.9637 0.0000 0.0000 0.0000
# 2 -438.8841 630.5079 3.9637 0.0000 0.0000 0.0000
# 3 3.9637 3.9637 26.3635 0.0000 0.0000 0.0000
# 4 0.0000 0.0000 0.0000 46.8636 0.0000 0.0000
# 5 0.0000 0.0000 0.0000 0.0000 46.8636 0.0000
# 6 0.0000 0.0000 0.0000 0.0000 0.0000 12.1695
#
#
#
# Elastic Compliance Matrix: (Units=1/GPa)
#
#
# Indices 1 2 3 4 5 6 
#
# 1 0.003093 0.002158 -0.000790 0.000000 0.000000 0.000000
# 2 0.002158 0.003093 -0.000790 0.000000 0.000000 0.000000
# 3 -0.000790 -0.000790 0.038169 0.000000 0.000000 0.000000
# 4 0.000000 0.000000 0.000000 0.021339 0.000000 0.000000
# 5 0.000000 0.000000 0.000000 0.000000 0.021339 0.000000
# 6 0.000000 0.000000 0.000000 0.000000 0.000000 0.082172
#
#
# Mechanical properties :
#
#
# Convention : Reuss Voigt Hill
#
# Bulk Modulus (GPa) = 21.97175 47.27400 34.62287
# Shear Modulus (GPa) = 27.28998 135.73507 81.51252
#
# Velocity S-wave (km/s) = 3.59898 8.02645 6.21999
# Velocity P-wave (km/s) = 5.26295 10.40846 8.24726
#
# Compressibility (1/GPa) = 0.04551300
#
# Stress axis : x y z
#
# Youngs Moduli (GPa) = 323.29334 323.29334 26.19953
#
# Poissons Ratio (x) = -0.69768 0.02068
# Poissons Ratio (y) = -0.69768 0.02068
# Poissons Ratio (z) = 0.25525 0.25525
#
# Static dielectric constant tensor:
#      x y z
#    x 1.756720 0.000000 0.000000 
#    y 0.000000 1.756720 0.000000 
#    z 0.000000 0.000000 1.894610 
# 
# From -- ./inp_files/2361.got.cif
#   From: 2010.05.17/outbox.cif.g08.bks.cpg/sg127_2_cif.got.tgz:2361.got - 2010.05.20 12:03:00.
