data_PCOD9563680
_publ_section_title
;
Structure prediction by ZEFSAII (Michael W. Deem and Ramdas Pophale) SiO2 
 PCOD9563680
Probable space group: P 4/N N C
;
_chemical_formula_sum "Si O2"
_cell_formula_units_Z 48
_cell_length_a 13.186854
_cell_length_b 13.186854
_cell_length_c 14.136183
_cell_angle_alpha 90.000000
_cell_angle_beta 90.000000
_cell_angle_gamma 90.000000
_cell_volume 2458.184944
_symmetry_space_group_name_H-M "P 4/N N C"
_symmetry_group_IT_number 126
_space_group.IT_coordinate_system_code '2'
_symmetry_cell_setting 'tetragonal'
loop_
_space_group_symop_operation_xyz
x,y,z
1/2-y,x,z
1/2-x,1/2-y,z
y,1/2-x,z
x,1/2-y,1/2-z
1/2-x,y,1/2-z
y,x,1/2-z
1/2-y,1/2-x,1/2-z
-x,-y,-z
1/2+y,-x,-z
1/2+x,1/2+y,-z
-y,1/2+x,-z
-x,1/2+y,1/2+z
1/2+x,-y,1/2+z
-y,-x,1/2+z
1/2+y,1/2+x,1/2+z
loop_
_atom_site_type_symbol
_atom_site_label
_atom_site_fract_x
_atom_site_fract_y
_atom_site_fract_z
Si Si1 0.938719 0.396771 0.984380
Si Si2 0.128059 0.746283 0.859131
Si Si3 0.767468 0.579093 0.354474
O O1 0.842117 0.413773 0.917185
O O2 0.000057 0.306298 0.931274
O O3 0.906386 0.353807 0.085967
O O4 0.000000 0.500000 0.000000
O O5 0.250000 0.750000 0.865000
O O6 0.097534 0.750000 0.750000
O O7 0.856111 0.664365 0.362112
O O8 0.750000 0.531019 0.250000
#
# Coordination Sequence:
#
# PCOD9563680 Si02
#       3
#    16  16  16
#     4  12  23  40  67  93 127 171 220 261 322 396
#     4  11  25  43  63  91 131 166 208 266 323 380
#     4   9  20  36  59  92 129 165 212 269 319 373
#
# _framework density 19.526603000000001
#
# number of rings (size 3 to 8) (size 9 to 14) (size 15 to 20)
#    0.000    1.333    3.333    3.000    4.667    4.000 
#    0.000    0.000    0.000    0.000    0.000    2.333 
#    0.000    0.000    0.000    0.000    0.000    0.000 
#
# Total GULP energy -267920.328752 kJ/mol
# GULP energy per Si atom -5581.673516 kJ/mol
# Density = 1.948216 g / cm^3
# Si number density = 19.526603 Si / 1000 Ang^3
#
#
#
# Elastic Constant Matrix: (Units=GPa)
#
#
# Indices 1 2 3 4 5 6 
#
# 1 87.1307 37.2634 72.3676 0.0000 0.0000 0.0000
# 2 37.2634 87.1307 72.3676 0.0000 0.0000 0.0000
# 3 72.3676 72.3676 179.8939 0.0000 0.0000 0.0000
# 4 0.0000 0.0000 0.0000 22.6358 0.0000 0.0000
# 5 0.0000 0.0000 0.0000 0.0000 22.6358 0.0000
# 6 0.0000 0.0000 0.0000 0.0000 0.0000 35.9548
#
#
#
# Elastic Compliance Matrix: (Units=1/GPa)
#
#
# Indices 1 2 3 4 5 6 
#
# 1 0.017583 -0.002470 -0.006079 0.000000 0.000000 0.000000
# 2 -0.002470 0.017583 -0.006079 0.000000 0.000000 0.000000
# 3 -0.006079 -0.006079 0.010450 0.000000 0.000000 0.000000
# 4 0.000000 0.000000 0.000000 0.044178 0.000000 0.000000
# 5 0.000000 0.000000 0.000000 0.000000 0.044178 0.000000
# 6 0.000000 0.000000 0.000000 0.000000 0.000000 0.027813
#
#
# Mechanical properties :
#
#
# Convention : Reuss Voigt Hill
#
# Bulk Modulus (GPa) = 61.13455 79.79475 70.46465
# Shear Modulus (GPa) = 25.44590 27.72237 26.58414
#
# Velocity S-wave (km/s) = 3.61382 3.77201 3.69376
# Velocity P-wave (km/s) = 6.98493 7.74106 7.37270
#
# Compressibility (1/GPa) = 0.01635736
#
# Stress axis : x y z
#
# Youngs Moduli (GPa) = 56.87340 56.87340 95.69254
#
# Poissons Ratio (x) = 0.14050 0.58176
# Poissons Ratio (y) = 0.14050 0.58176
# Poissons Ratio (z) = 0.34576 0.34576
#
# Static dielectric constant tensor:
#      x y z
#    x 1.696930 0.000000 0.000000 
#    y 0.000000 1.696930 0.000000 
#    z 0.000000 0.000000 1.693410 
# 
# From -- ./inp_files/2203.got.cif
#   From: 2010.05.17/outbox.cif.g08.bks.cpg/sg126_2_cif.got.tgz:2203.got - 2010.05.20 11:58:20.
