data_PCOD9563284
_publ_section_title
;
Structure prediction by ZEFSAII (Michael W. Deem and Ramdas Pophale) SiO2 
 PCOD9563284
Probable space group: P 4/N N C
;
_chemical_formula_sum "Si O2"
_cell_formula_units_Z 60
_cell_length_a 16.944418
_cell_length_b 16.944418
_cell_length_c 11.006675
_cell_angle_alpha 90.000000
_cell_angle_beta 90.000000
_cell_angle_gamma 90.000000
_cell_volume 3160.162796
_symmetry_space_group_name_H-M "P 4/N N C"
_symmetry_group_IT_number 126
_space_group.IT_coordinate_system_code '2'
_symmetry_cell_setting 'tetragonal'
loop_
_space_group_symop_operation_xyz
x,y,z
1/2-y,x,z
1/2-x,1/2-y,z
y,1/2-x,z
x,1/2-y,1/2-z
1/2-x,y,1/2-z
y,x,1/2-z
1/2-y,1/2-x,1/2-z
-x,-y,-z
1/2+y,-x,-z
1/2+x,1/2+y,-z
-y,1/2+x,-z
-x,1/2+y,1/2+z
1/2+x,-y,1/2+z
-y,-x,1/2+z
1/2+y,1/2+x,1/2+z
loop_
_atom_site_type_symbol
_atom_site_label
_atom_site_fract_x
_atom_site_fract_y
_atom_site_fract_z
Si Si1 0.477529 0.250000 0.250000
Si Si2 0.750000 0.250000 0.250000
Si Si3 0.830321 0.108655 0.601879
Si Si4 0.274804 0.120401 0.487976
Si Si5 0.777517 0.458539 0.387525
O O1 0.536888 0.184335 0.305069
O O2 0.422944 0.280858 0.357964
O O3 0.688112 0.206847 0.339491
O O4 0.785073 0.081734 0.480461
O O5 0.919239 0.137586 0.584258
O O6 0.338710 0.189298 0.497709
O O7 0.281714 0.051045 0.585171
O O8 0.750000 0.445277 0.250000
#
# Coordination Sequence:
#
# PCOD9563284 Si02
#       5
#     8   4  16  16  16
#     4   9  20  36  64  95 124 152 202 263 318 358
#     4  10  16  34  58  86 120 166 204 244 288 356
#     4  10  20  34  57  92 126 163 204 245 302 376
#     4  10  22  42  68  90 114 159 219 266 304 359
#     4  11  23  37  59  89 130 162 204 248 307 368
#
# _framework density 18.986362
#
# number of rings (size 3 to 8) (size 9 to 14) (size 15 to 20)
#    0.000    1.867    1.333    2.400    7.467    2.133 
#    0.000    6.667   11.733    0.000    0.000    0.000 
#    0.000    0.000    0.000    0.000    0.000    0.000 
#
# Total GULP energy -334771.394618 kJ/mol
# GULP energy per Si atom -5579.523244 kJ/mol
# Density = 1.894315 g / cm^3
# Si number density = 18.986362 Si / 1000 Ang^3
#
#
#
# Elastic Constant Matrix: (Units=GPa)
#
#
# Indices 1 2 3 4 5 6 
#
# 1 125.0962 67.8446 43.9699 0.0000 0.0000 0.0000
# 2 67.8446 125.0962 43.9699 0.0000 0.0000 0.0000
# 3 43.9699 43.9699 107.0109 0.0000 0.0000 0.0000
# 4 0.0000 0.0000 0.0000 14.7179 0.0000 0.0000
# 5 0.0000 0.0000 0.0000 0.0000 14.7179 0.0000
# 6 0.0000 0.0000 0.0000 0.0000 0.0000 8.4409
#
#
#
# Elastic Compliance Matrix: (Units=1/GPa)
#
#
# Indices 1 2 3 4 5 6 
#
# 1 0.011922 -0.005545 -0.002620 0.000000 0.000000 0.000000
# 2 -0.005545 0.011922 -0.002620 0.000000 0.000000 0.000000
# 3 -0.002620 -0.002620 0.011498 0.000000 0.000000 0.000000
# 4 0.000000 0.000000 0.000000 0.067944 0.000000 0.000000
# 5 0.000000 0.000000 0.000000 0.000000 0.067944 0.000000
# 6 0.000000 0.000000 0.000000 0.000000 0.000000 0.118471
#
#
# Mechanical properties :
#
#
# Convention : Reuss Voigt Hill
#
# Bulk Modulus (GPa) = 72.61490 74.30802 73.46146
# Shear Modulus (GPa) = 15.82962 21.00326 18.41644
#
# Velocity S-wave (km/s) = 2.89058 3.32961 3.11783
# Velocity P-wave (km/s) = 7.03345 7.34876 7.19283
#
# Compressibility (1/GPa) = 0.01377128
#
# Stress axis : x y z
#
# Youngs Moduli (GPa) = 83.87838 83.87838 86.97004
#
# Poissons Ratio (x) = 0.46509 0.22789
# Poissons Ratio (y) = 0.46509 0.22789
# Poissons Ratio (z) = 0.21979 0.21979
#
# Static dielectric constant tensor:
#      x y z
#    x 1.676600 0.000000 0.000000 
#    y 0.000000 1.676600 0.000000 
#    z 0.000000 0.000000 1.677580 
# 
# From -- ./inp_files/2612.got.cif
#   From: 2010.05.17/outbox.cif.g08.bks.cpg/sg126_2_cif.got.tgz:2612.got - 2010.05.20 11:58:20.
