data_PCOD9563009
_publ_section_title
;
Structure prediction by ZEFSAII (Michael W. Deem and Ramdas Pophale) SiO2 
 PCOD9563009
Probable space group: P 4/N B M
;
_chemical_formula_sum "Si O2"
_cell_formula_units_Z 96
_cell_length_a 14.412095
_cell_length_b 14.412095
_cell_length_c 23.351968
_cell_angle_alpha 90.000000
_cell_angle_beta 90.000000
_cell_angle_gamma 90.000000
_cell_volume 4850.401832
_symmetry_space_group_name_H-M "P 4/N B M"
_symmetry_group_IT_number 125
_space_group.IT_coordinate_system_code '2'
_symmetry_cell_setting 'tetragonal'
loop_
_space_group_symop_operation_xyz
x,y,z
1/2-y,x,z
1/2-x,1/2-y,z
y,1/2-x,z
x,1/2-y,-z
1/2-x,y,-z
y,x,-z
1/2-y,1/2-x,-z
-x,-y,-z
1/2+y,-x,-z
1/2+x,1/2+y,-z
-y,1/2+x,-z
-x,1/2+y,z
1/2+x,-y,z
-y,-x,z
1/2+y,1/2+x,z
loop_
_atom_site_type_symbol
_atom_site_label
_atom_site_fract_x
_atom_site_fract_y
_atom_site_fract_z
Si Si1 0.635933 0.521615 0.234304
Si Si2 0.244511 0.600542 0.838710
Si Si3 0.866562 0.853204 0.877696
Si Si4 0.684115 0.891301 0.644010
Si Si5 0.669505 0.480458 0.044250
Si Si6 0.851576 0.994323 0.471245
O O1 0.554086 0.445915 0.239938
O O2 0.728832 0.471075 0.210714
O O3 0.612424 0.591345 0.182188
O O4 0.658486 0.570787 0.293492
O O5 0.315115 0.684886 0.827668
O O6 0.141661 0.641661 0.839535
O O7 0.278036 0.562640 0.900027
O O8 0.758706 0.873870 0.880760
O O9 0.930721 0.885078 0.930302
O O10 0.631430 0.793205 0.637466
O O11 0.657985 0.964157 0.594870
O O12 0.597604 0.402397 0.023102
O O13 0.750000 0.504281 0.000000
O O14 0.750000 0.001026 0.500000
O O15 0.911737 0.911737 0.500000
O O16 0.912006 0.087995 0.477411
#
# Coordination Sequence:
#
# PCOD9563009 Si02
#       6
#    16  16  16  16  16  16
#     4  10  20  36  57  85 119 150 192 249 305 366
#     4   8  15  30  51  74 105 147 188 229 289 362
#     4  10  21  39  59  78 108 150 195 242 299 361
#     4  11  22  38  63  91 122 165 215 261 308 368
#     4  10  20  35  56  82 111 143 186 240 297 362
#     4  11  23  42  68  98 133 173 220 271 325 384
#
# _framework density 19.792173999999999
#
# number of rings (size 3 to 8) (size 9 to 14) (size 15 to 20)
#    0.000    2.000    1.667    3.500    0.000    3.167 
#    0.000   15.833    0.000    2.000    0.000    0.000 
#    0.000    0.000    0.000    0.000    0.000    0.000 
#
# Total GULP energy -535939.143289 kJ/mol
# GULP energy per Si atom -5582.699409 kJ/mol
# Density = 1.974713 g / cm^3
# Si number density = 19.792174 Si / 1000 Ang^3
#
#
#
# Elastic Constant Matrix: (Units=GPa)
#
#
# Indices 1 2 3 4 5 6 
#
# 1 89.1413 39.2694 23.1766 0.0000 0.0000 0.0000
# 2 39.2694 89.1413 23.1766 0.0000 0.0000 0.0000
# 3 23.1766 23.1766 103.7585 0.0000 0.0000 0.0000
# 4 0.0000 0.0000 0.0000 23.2383 0.0000 0.0000
# 5 0.0000 0.0000 0.0000 0.0000 23.2383 0.0000
# 6 0.0000 0.0000 0.0000 0.0000 0.0000 19.7187
#
#
#
# Elastic Compliance Matrix: (Units=1/GPa)
#
#
# Indices 1 2 3 4 5 6 
#
# 1 0.014261 -0.005790 -0.001892 0.000000 0.000000 0.000000
# 2 -0.005790 0.014261 -0.001892 0.000000 0.000000 0.000000
# 3 -0.001892 -0.001892 0.010483 0.000000 0.000000 0.000000
# 4 0.000000 0.000000 0.000000 0.043032 0.000000 0.000000
# 5 0.000000 0.000000 0.000000 0.000000 0.043032 0.000000
# 6 0.000000 0.000000 0.000000 0.000000 0.000000 0.050713
#
#
# Mechanical properties :
#
#
# Convention : Reuss Voigt Hill
#
# Bulk Modulus (GPa) = 50.36314 50.36513 50.36414
# Shear Modulus (GPa) = 24.80764 26.33362 25.57063
#
# Velocity S-wave (km/s) = 3.54419 3.65157 3.59828
# Velocity P-wave (km/s) = 6.49997 6.57882 6.53951
#
# Compressibility (1/GPa) = 0.01985579
#
# Stress axis : x y z
#
# Youngs Moduli (GPa) = 70.12157 70.12157 95.39231
#
# Poissons Ratio (x) = 0.40604 0.18049
# Poissons Ratio (y) = 0.40604 0.18049
# Poissons Ratio (z) = 0.13267 0.13267
#
# Static dielectric constant tensor:
#      x y z
#    x 1.731600 0.000000 0.000000 
#    y 0.000000 1.731600 0.000000 
#    z 0.000000 0.000000 1.665300 
# 
# From -- ./inp_files/5918.got.cif
#   From: 2010.05.17/outbox.cif.g08.bks.cpg/sg125_3_cif.got.tgz:5918.got - 2010.05.20 11:54:10.
