data_PCOD9563602
_publ_section_title
;
Structure prediction by ZEFSAII (Michael W. Deem and Ramdas Pophale) SiO2 
 PCOD9563602
Probable space group: P 4/N N C
;
_chemical_formula_sum "Si O2"
_cell_formula_units_Z 96
_cell_length_a 22.521184
_cell_length_b 22.521184
_cell_length_c 10.251573
_cell_angle_alpha 90.000000
_cell_angle_beta 90.000000
_cell_angle_gamma 90.000000
_cell_volume 5199.636051
_symmetry_space_group_name_H-M "P 4/N N C"
_symmetry_group_IT_number 126
_space_group.IT_coordinate_system_code '2'
_symmetry_cell_setting 'tetragonal'
loop_
_space_group_symop_operation_xyz
x,y,z
1/2-y,x,z
1/2-x,1/2-y,z
y,1/2-x,z
x,1/2-y,1/2-z
1/2-x,y,1/2-z
y,x,1/2-z
1/2-y,1/2-x,1/2-z
-x,-y,-z
1/2+y,-x,-z
1/2+x,1/2+y,-z
-y,1/2+x,-z
-x,1/2+y,1/2+z
1/2+x,-y,1/2+z
-y,-x,1/2+z
1/2+y,1/2+x,1/2+z
loop_
_atom_site_type_symbol
_atom_site_label
_atom_site_fract_x
_atom_site_fract_y
_atom_site_fract_z
Si Si1 0.399301 0.008397 0.493798
Si Si2 0.175345 0.799444 0.950046
Si Si3 0.899294 0.006920 0.502391
Si Si4 0.179394 0.506161 0.743245
Si Si5 0.840839 0.137530 0.302080
Si Si6 0.678283 0.024894 0.740848
O O1 0.436304 0.945168 0.496020
O O2 0.359106 0.017770 0.622256
O O3 0.353577 0.011565 0.373546
O O4 0.450392 0.057505 0.482075
O O5 0.186348 0.816886 0.803246
O O6 0.229680 0.824170 0.035250
O O7 0.124635 0.822086 0.047782
O O8 0.859231 0.996463 0.374047
O O9 0.854960 0.011649 0.624239
O O10 0.250000 0.490032 0.750000
O O11 0.174699 0.577142 0.726996
O O12 0.908239 0.158884 0.295459
O O13 0.750000 0.020440 0.750000
#
# Coordination Sequence:
#
# PCOD9563602 Si02
#       6
#    16  16  16  16  16  16
#     4  11  22  41  63  86 116 157 206 250 304 357
#     4  11  22  34  46  62  91 142 200 244 277 318
#     4  11  22  41  63  86 116 157 206 250 304 357
#     4  12  23  38  59  88 121 155 201 248 301 350
#     4  12  22  37  49  76 108 152 188 232 296 335
#     4  12  23  38  59  88 121 155 201 248 301 350
#
# _framework density 18.462831000000001
#
# number of rings (size 3 to 8) (size 9 to 14) (size 15 to 20)
#    0.000    0.500    3.333    7.000    0.000    4.000 
#    0.000    0.000    0.000    0.000    0.000    0.000 
#    0.000   46.667    0.000    0.000    0.000    0.000 
#
# Total GULP energy -535034.457648 kJ/mol
# GULP energy per Si atom -5573.275601 kJ/mol
# Density = 1.842081 g / cm^3
# Si number density = 18.462831 Si / 1000 Ang^3
#
#
#
# Elastic Constant Matrix: (Units=GPa)
#
#
# Indices 1 2 3 4 5 6 
#
# 1 73.3322 11.6216 31.6253 0.0000 0.0000 0.0000
# 2 11.6216 73.3322 31.6253 0.0000 0.0000 0.0000
# 3 31.6253 31.6253 152.9906 0.0000 0.0000 0.0000
# 4 0.0000 0.0000 0.0000 19.7269 0.0000 0.0000
# 5 0.0000 0.0000 0.0000 0.0000 19.7269 0.0000
# 6 0.0000 0.0000 0.0000 0.0000 0.0000 23.2760
#
#
#
# Elastic Compliance Matrix: (Units=1/GPa)
#
#
# Indices 1 2 3 4 5 6 
#
# 1 0.015058 -0.001146 -0.002876 0.000000 0.000000 0.000000
# 2 -0.001146 0.015058 -0.002876 0.000000 0.000000 0.000000
# 3 -0.002876 -0.002876 0.007725 0.000000 0.000000 0.000000
# 4 0.000000 0.000000 0.000000 0.050692 0.000000 0.000000
# 5 0.000000 0.000000 0.000000 0.000000 0.050692 0.000000
# 6 0.000000 0.000000 0.000000 0.000000 0.000000 0.042963
#
#
# Mechanical properties :
#
#
# Convention : Reuss Voigt Hill
#
# Bulk Modulus (GPa) = 41.58624 49.93325 45.75975
# Shear Modulus (GPa) = 24.50971 27.53147 26.02059
#
# Velocity S-wave (km/s) = 3.64746 3.86577 3.75820
# Velocity P-wave (km/s) = 6.34916 6.85781 6.60838
#
# Compressibility (1/GPa) = 0.02404641
#
# Stress axis : x y z
#
# Youngs Moduli (GPa) = 66.40782 66.40782 129.44462
#
# Poissons Ratio (x) = 0.07612 0.37226
# Poissons Ratio (y) = 0.07612 0.37226
# Poissons Ratio (z) = 0.19098 0.19098
#
# Static dielectric constant tensor:
#      x y z
#    x 1.841740 0.000000 0.000000 
#    y 0.000000 1.841740 0.000000 
#    z 0.000000 0.000000 1.728270 
# 
# From -- ./inp_files/1737.got.cif
#   From: 2010.05.17/outbox.cif.g08.bks.cpg/sg126_1_cif.got.tgz:1737.got - 2010.05.20 11:58:20.
