data_PCOD9563350
_publ_section_title
;
Structure prediction by ZEFSAII (Michael W. Deem and Ramdas Pophale) SiO2 
 PCOD9563350
Probable space group: P 4/N N C
;
_chemical_formula_sum "Si O2"
_cell_formula_units_Z 120
_cell_length_a 21.051165
_cell_length_b 21.051165
_cell_length_c 14.492866
_cell_angle_alpha 90.000000
_cell_angle_beta 90.000000
_cell_angle_gamma 90.000000
_cell_volume 6422.536001
_symmetry_space_group_name_H-M "P 4/N N C"
_symmetry_group_IT_number 126
_space_group.IT_coordinate_system_code '2'
_symmetry_cell_setting 'tetragonal'
loop_
_space_group_symop_operation_xyz
x,y,z
1/2-y,x,z
1/2-x,1/2-y,z
y,1/2-x,z
x,1/2-y,1/2-z
1/2-x,y,1/2-z
y,x,1/2-z
1/2-y,1/2-x,1/2-z
-x,-y,-z
1/2+y,-x,-z
1/2+x,1/2+y,-z
-y,1/2+x,-z
-x,1/2+y,1/2+z
1/2+x,-y,1/2+z
-y,-x,1/2+z
1/2+y,1/2+x,1/2+z
loop_
_atom_site_type_symbol
_atom_site_label
_atom_site_fract_x
_atom_site_fract_y
_atom_site_fract_z
Si Si1 0.683334 0.973707 0.851130
Si Si2 0.041609 0.873240 0.666099
Si Si3 0.067087 0.794845 0.333996
Si Si4 0.510857 0.419468 0.722843
Si Si5 0.182507 0.784836 0.838632
Si Si6 0.970559 0.544450 0.580600
Si Si7 0.921552 0.237579 0.456528
Si Si8 0.250000 0.359137 0.250000
O O1 0.620667 0.963970 0.915277
O O2 0.723119 0.910506 0.825538
O O3 0.661390 0.010745 0.756088
O O4 0.727704 0.020897 0.906681
O O5 0.081696 0.935423 0.697376
O O6 0.081380 0.829723 0.596692
O O7 0.983515 0.902646 0.608426
O O8 0.047670 0.750000 0.250000
O O9 0.021650 0.855762 0.332881
O O10 0.140941 0.813168 0.317130
O O11 0.067593 0.765774 0.435430
O O12 0.439505 0.439505 0.750000
O O13 0.531684 0.479518 0.662248
O O14 0.250000 0.750000 0.849039
O O15 0.151190 0.750000 0.750000
O O16 0.141845 0.775067 0.929786
O O17 0.000000 0.500000 0.500000
O O18 0.189706 0.310295 0.250000
#
# Coordination Sequence:
#
# PCOD9563350 Si02
#       8
#    16  16  16  16  16  16  16   8
#     4  11  21  39  61  93 129 171 209 266 329 401
#     4  10  19  37  61  87 121 155 203 258 312 382
#     4  12  26  41  57  83 123 157 214 269 315 382
#     4   9  20  38  61  82 113 159 200 256 325 372
#     4  11  23  41  58  82 118 169 213 260 316 381
#     4  10  20  35  60  92 123 161 206 251 309 385
#     4  12  25  36  61  87 119 164 218 261 322 389
#     4  11  22  38  66  98 135 174 206 260 343 426
#
# _framework density 18.684208999999999
#
# number of rings (size 3 to 8) (size 9 to 14) (size 15 to 20)
#    0.000    1.267    2.667    6.000    1.867    2.133 
#    0.000    0.000    0.000    0.000    0.000    0.000 
#    0.000    0.267    0.000    0.133    0.000    0.000 
#
# Total GULP energy -668718.855473 kJ/mol
# GULP energy per Si atom -5572.657129 kJ/mol
# Density = 1.864168 g / cm^3
# Si number density = 18.684209 Si / 1000 Ang^3
#
#
#
# Elastic Constant Matrix: (Units=GPa)
#
#
# Indices 1 2 3 4 5 6 
#
# 1 65.9497 26.4187 27.2808 0.0000 0.0000 0.0000
# 2 26.4187 65.9494 27.2808 0.0000 0.0000 0.0000
# 3 27.2808 27.2808 101.1562 0.0000 0.0000 0.0000
# 4 0.0000 0.0000 0.0000 21.3540 0.0000 0.0000
# 5 0.0000 0.0000 0.0000 0.0000 21.3541 0.0000
# 6 0.0000 0.0000 0.0000 0.0000 0.0000 25.3988
#
#
#
# Elastic Compliance Matrix: (Units=1/GPa)
#
#
# Indices 1 2 3 4 5 6 
#
# 1 0.019087 -0.006210 -0.003473 0.000000 0.000000 0.000000
# 2 -0.006210 0.019087 -0.003473 0.000000 0.000000 0.000000
# 3 -0.003473 -0.003473 0.011759 0.000000 0.000000 0.000000
# 4 0.000000 0.000000 0.000000 0.046830 0.000000 0.000000
# 5 0.000000 0.000000 0.000000 0.000000 0.046829 0.000000
# 6 0.000000 0.000000 0.000000 0.000000 0.000000 0.039372
#
#
# Mechanical properties :
#
#
# Convention : Reuss Voigt Hill
#
# Bulk Modulus (GPa) = 42.33266 43.89067 43.11167
# Shear Modulus (GPa) = 23.02561 23.75970 23.39266
#
# Velocity S-wave (km/s) = 3.51430 3.56988 3.54220
# Velocity P-wave (km/s) = 6.25885 6.36662 6.31297
#
# Compressibility (1/GPa) = 0.02362242
#
# Stress axis : x y z
#
# Youngs Moduli (GPa) = 52.39123 52.39092 85.04146
#
# Poissons Ratio (x) = 0.32532 0.29535
# Poissons Ratio (y) = 0.32532 0.29535
# Poissons Ratio (z) = 0.18195 0.18195
#
# Static dielectric constant tensor:
#      x y z
#    x 1.718670 0.000000 0.000000 
#    y 0.000000 1.718700 0.000000 
#    z 0.000000 0.000000 1.491180 
# 
# From -- ./inp_files/3950.got.cif
#   From: 2010.05.17/outbox.cif.g08.bks.cpg/sg126_2_cif.got.tgz:3950.got - 2010.05.20 11:58:20.
