data_PCOD9563894
_publ_section_title
;
Structure prediction by ZEFSAII (Michael W. Deem and Ramdas Pophale) SiO2 
 PCOD9563894
Probable space group: P 4/M B M
;
_chemical_formula_sum "Si O2"
_cell_formula_units_Z 112
_cell_length_a 14.410145
_cell_length_b 14.410145
_cell_length_c 27.776315
_cell_angle_alpha 90.000000
_cell_angle_beta 90.000000
_cell_angle_gamma 90.000000
_cell_volume 5767.815110
_symmetry_space_group_name_H-M "P 4/M B M"
_symmetry_group_IT_number 127
_symmetry_cell_setting 'tetragonal'
loop_
_space_group_symop_operation_xyz
x,y,z
-y,x,z
-x,-y,z
y,-x,z
1/2+x,1/2-y,-z
1/2-x,1/2+y,-z
1/2+y,1/2+x,-z
1/2-y,1/2-x,-z
-x,-y,-z
y,-x,-z
x,y,-z
-y,x,-z
1/2-x,1/2+y,z
1/2+x,1/2-y,z
1/2-y,1/2-x,z
1/2+y,1/2+x,z
loop_
_atom_site_type_symbol
_atom_site_label
_atom_site_fract_x
_atom_site_fract_y
_atom_site_fract_z
Si Si1 0.781717 0.431758 0.637439
Si Si2 0.399835 0.383270 0.694700
Si Si3 0.758904 0.589064 0.057250
Si Si4 0.007681 0.350261 0.736891
Si Si5 0.844337 0.997018 0.555878
Si Si6 0.780620 0.876813 0.210738
Si Si7 0.385384 0.270772 0.899896
O O1 0.866132 0.366132 0.622433
O O2 0.700163 0.367006 0.660809
O O3 0.816802 0.494573 0.682082
O O4 0.738503 0.487374 0.593272
O O5 0.510749 0.376864 0.685771
O O6 0.371456 0.360084 0.749249
O O7 0.848474 0.651527 0.072509
O O8 0.669347 0.652978 0.068739
O O9 0.749506 0.489602 0.082802
O O10 0.765617 0.574408 0.000000
O O11 0.933264 0.433264 0.742009
O O12 0.970079 0.274206 0.773596
O O13 0.108575 0.391426 0.746231
O O14 0.815284 0.996589 0.500000
O O15 0.913156 0.909116 0.563486
O O16 0.709231 0.790770 0.216814
O O17 0.806379 0.883207 0.155202
O O18 0.323136 0.176865 0.901522
#
# Coordination Sequence:
#
# PCOD9563894 Si02
#       7
#    16  16  16  16  16  16  16
#     4  10  19  32  51  75 105 137 173 217 265 313
#     4  10  20  33  51  73 102 139 177 216 259 317
#     4  10  22  40  62  88 117 152 194 241 295 352
#     4   8  15  30  50  71 100 138 175 208 248 310
#     4   9  18  34  55  75  98 131 172 220 271 321
#     4   9  19  35  53  77 107 138 174 221 274 322
#     4  10  22  39  60  86 120 155 193 246 299 352
#
# _framework density 19.418096999999999
#
# number of rings (size 3 to 8) (size 9 to 14) (size 15 to 20)
#    0.000    2.571    0.000    3.000    2.000    3.429 
#    0.000   12.143    0.000    1.286    0.000    2.000 
#    0.000    0.000    0.000    0.000    0.000    0.000 
#
# Total GULP energy -624647.553572 kJ/mol
# GULP energy per Si atom -5577.210300 kJ/mol
# Density = 1.937390 g / cm^3
# Si number density = 19.418097 Si / 1000 Ang^3
#
#
#
# Elastic Constant Matrix: (Units=GPa)
#
#
# Indices 1 2 3 4 5 6 
#
# 1 47.1326 -0.5117 -7.9227 0.0000 0.0000 0.0000
# 2 -0.5117 47.1326 -7.9227 0.0000 0.0000 0.0000
# 3 -7.9227 -7.9227 47.1757 0.0000 0.0000 0.0000
# 4 0.0000 0.0000 0.0000 16.2655 0.0000 0.0000
# 5 0.0000 0.0000 0.0000 0.0000 16.2655 0.0000
# 6 0.0000 0.0000 0.0000 0.0000 0.0000 5.2817
#
#
#
# Elastic Compliance Matrix: (Units=1/GPa)
#
#
# Indices 1 2 3 4 5 6 
#
# 1 0.021868 0.000880 0.003820 0.000000 0.000000 0.000000
# 2 0.000880 0.021868 0.003820 0.000000 0.000000 0.000000
# 3 0.003820 0.003820 0.022481 0.000000 0.000000 0.000000
# 4 0.000000 0.000000 0.000000 0.061480 0.000000 0.000000
# 5 0.000000 0.000000 0.000000 0.000000 0.061480 0.000000
# 6 0.000000 0.000000 0.000000 0.000000 0.000000 0.189334
#
#
# Mechanical properties :
#
#
# Convention : Reuss Voigt Hill
#
# Bulk Modulus (GPa) = 12.01086 12.08073 12.04579
# Shear Modulus (GPa) = 12.84610 18.08239 15.46425
#
# Velocity S-wave (km/s) = 2.57486 3.05489 2.82509
# Velocity P-wave (km/s) = 3.87797 4.32181 4.10589
#
# Compressibility (1/GPa) = 0.08325799
#
# Stress axis : x y z
#
# Youngs Moduli (GPa) = 45.72794 45.72794 44.48292
#
# Poissons Ratio (x) = -0.04022 -0.16994
# Poissons Ratio (y) = -0.04022 -0.16994
# Poissons Ratio (z) = -0.17470 -0.17470
#
# Static dielectric constant tensor:
#      x y z
#    x 1.705010 0.000000 0.000000 
#    y 0.000000 1.705010 0.000000 
#    z 0.000000 0.000000 1.677120 
# 
# From -- ./inp_files/6187.got.cif
#   From: 2010.05.17/outbox.cif.g08.bks.cpg/sg127_4_cif.got.tgz:6187.got - 2010.05.20 12:03:00.
