data_PCOD9563922
_publ_section_title
;
Structure prediction by ZEFSAII (Michael W. Deem and Ramdas Pophale) SiO2 
 PCOD9563922
Probable space group: P 4/M B M
;
_chemical_formula_sum "Si O2"
_cell_formula_units_Z 96
_cell_length_a 17.786541
_cell_length_b 17.786541
_cell_length_c 18.225389
_cell_angle_alpha 90.000000
_cell_angle_beta 90.000000
_cell_angle_gamma 90.000000
_cell_volume 5765.803032
_symmetry_space_group_name_H-M "P 4/M B M"
_symmetry_group_IT_number 127
_symmetry_cell_setting 'tetragonal'
loop_
_space_group_symop_operation_xyz
x,y,z
-y,x,z
-x,-y,z
y,-x,z
1/2+x,1/2-y,-z
1/2-x,1/2+y,-z
1/2+y,1/2+x,-z
1/2-y,1/2-x,-z
-x,-y,-z
y,-x,-z
x,y,-z
-y,x,-z
1/2-x,1/2+y,z
1/2+x,1/2-y,z
1/2-y,1/2-x,z
1/2+y,1/2+x,z
loop_
_atom_site_type_symbol
_atom_site_label
_atom_site_fract_x
_atom_site_fract_y
_atom_site_fract_z
Si Si1 0.876385 0.997963 0.588182
Si Si2 0.480282 0.227957 0.317884
Si Si3 0.233299 0.392437 0.195450
Si Si4 0.562487 0.937514 0.144275
Si Si5 0.062771 0.562771 0.322471
Si Si6 0.477447 0.228031 0.086657
Si Si7 0.231444 0.142459 0.197526
O O1 0.869063 0.997859 0.500000
O O2 0.795437 0.995268 0.625890
O O3 0.928396 0.925885 0.608361
O O4 0.550987 0.220266 0.262919
O O5 0.461559 0.145474 0.349217
O O6 0.410069 0.252133 0.267004
O O7 0.161207 0.338794 0.186172
O O8 0.246582 0.443087 0.123847
O O9 0.305039 0.340111 0.209009
O O10 0.568490 0.931511 0.232889
O O11 0.538577 0.858206 0.110347
O O12 0.500000 0.000000 0.128167
O O13 0.000000 0.500000 0.338710
O O14 0.412394 0.274763 0.127758
O O15 0.476432 0.236481 0.000000
O O16 0.302044 0.197957 0.185925
#
# Coordination Sequence:
#
# PCOD9563922 Si02
#       7
#    16  16  16   8   8  16  16
#     4   9  19  36  59  87 115 143 179 224 269 310
#     4  11  18  34  56  83 106 143 176 216 264 319
#     4  10  21  33  51  75 104 133 173 222 265 315
#     4  11  19  32  51  73 100 130 175 219 267 316
#     4  11  20  33  57  81 111 145 181 221 269 322
#     4  11  21  33  48  70  99 135 173 218 271 320
#     4  10  19  34  50  73 101 134 173 215 262 317
#
# _framework density 16.649892999999999
#
# number of rings (size 3 to 8) (size 9 to 14) (size 15 to 20)
#    0.000    1.667    5.000    2.750    0.000    2.333 
#    0.000    2.083    0.000    7.000    0.000    4.667 
#    0.000    0.000    0.000    0.000    0.000    0.000 
#
# Total GULP energy -535734.172835 kJ/mol
# GULP energy per Si atom -5580.564300 kJ/mol
# Density = 1.661200 g / cm^3
# Si number density = 16.649893 Si / 1000 Ang^3
#
#
#
# Elastic Constant Matrix: (Units=GPa)
#
#
# Indices 1 2 3 4 5 6 
#
# 1 96.5376 34.1944 16.1161 0.0000 0.0000 0.0000
# 2 34.1944 96.5376 16.1161 0.0000 0.0000 0.0000
# 3 16.1161 16.1161 33.5024 0.0000 0.0000 0.0000
# 4 0.0000 0.0000 0.0000 18.7995 0.0000 0.0000
# 5 0.0000 0.0000 0.0000 0.0000 18.7995 0.0000
# 6 0.0000 0.0000 0.0000 0.0000 0.0000 23.4406
#
#
#
# Elastic Compliance Matrix: (Units=1/GPa)
#
#
# Indices 1 2 3 4 5 6 
#
# 1 0.012359 -0.003681 -0.004175 0.000000 0.000000 0.000000
# 2 -0.003681 0.012359 -0.004175 0.000000 0.000000 0.000000
# 3 -0.004175 -0.004175 0.033865 0.000000 0.000000 0.000000
# 4 0.000000 0.000000 0.000000 0.053193 0.000000 0.000000
# 5 0.000000 0.000000 0.000000 0.000000 0.053193 0.000000
# 6 0.000000 0.000000 0.000000 0.000000 0.000000 0.042661
#
#
# Mechanical properties :
#
#
# Convention : Reuss Voigt Hill
#
# Bulk Modulus (GPa) = 28.96606 39.93675 34.45141
# Shear Modulus (GPa) = 20.55930 22.88466 21.72198
#
# Velocity S-wave (km/s) = 3.51778 3.71140 3.61589
# Velocity P-wave (km/s) = 5.82535 6.51185 6.17814
#
# Compressibility (1/GPa) = 0.03452316
#
# Stress axis : x y z
#
# Youngs Moduli (GPa) = 80.91012 80.91012 29.52888
#
# Poissons Ratio (x) = 0.29782 0.12328
# Poissons Ratio (y) = 0.29782 0.12328
# Poissons Ratio (z) = 0.33778 0.33778
#
# Static dielectric constant tensor:
#      x y z
#    x 1.564940 0.000000 0.000000 
#    y 0.000000 1.564940 0.000000 
#    z 0.000000 0.000000 1.536100 
# 
# From -- ./inp_files/5150.got.cif
#   From: 2010.05.17/outbox.cif.g08.bks.cpg/sg127_3_cif.got.tgz:5150.got - 2010.05.20 12:03:00.
