data_PCOD9563773
_publ_section_title
;
Structure prediction by ZEFSAII (Michael W. Deem and Ramdas Pophale) SiO2 
 PCOD9563773
Probable space group: P 4/M B M
;
_chemical_formula_sum "Si O2"
_cell_formula_units_Z 64
_cell_length_a 25.962928
_cell_length_b 25.962928
_cell_length_c 5.431059
_cell_angle_alpha 90.000000
_cell_angle_beta 90.000000
_cell_angle_gamma 90.000000
_cell_volume 3660.933657
_symmetry_space_group_name_H-M "P 4/M B M"
_symmetry_group_IT_number 127
_symmetry_cell_setting 'tetragonal'
loop_
_space_group_symop_operation_xyz
x,y,z
-y,x,z
-x,-y,z
y,-x,z
1/2+x,1/2-y,-z
1/2-x,1/2+y,-z
1/2+y,1/2+x,-z
1/2-y,1/2-x,-z
-x,-y,-z
y,-x,-z
x,y,-z
-y,x,-z
1/2-x,1/2+y,z
1/2+x,1/2-y,z
1/2-y,1/2-x,z
1/2+y,1/2+x,z
loop_
_atom_site_type_symbol
_atom_site_label
_atom_site_fract_x
_atom_site_fract_y
_atom_site_fract_z
Si Si1 0.959380 0.663831 0.000000
Si Si2 0.272754 0.075168 0.500000
Si Si3 0.269423 0.685710 0.500000
Si Si4 0.936888 0.781866 0.000000
Si Si5 0.815795 0.766983 0.000000
Si Si6 0.073813 0.660347 0.000000
Si Si7 0.280595 0.463301 0.500000
Si Si8 0.596687 0.174565 0.500000
O O1 0.929166 0.653128 0.251248
O O2 0.015453 0.639397 0.000000
O O3 0.966395 0.726495 0.000000
O O4 0.235654 0.124479 0.500000
O O5 0.306406 0.078904 0.250415
O O6 0.244631 0.019791 0.500000
O O7 0.213035 0.713035 0.500000
O O8 0.296509 0.705346 0.750176
O O9 0.952974 0.809779 0.751752
O O10 0.877055 0.767111 0.000000
O O11 0.789358 0.710643 0.000000
O O12 0.116345 0.616345 0.000000
O O13 0.234493 0.419804 0.500000
O O14 0.655978 0.155978 0.500000
#
# Coordination Sequence:
#
# PCOD9563773 Si02
#       8
#     8   8   8   8   8   8   8   8
#     4  10  19  34  45  72  94 118 168 213 251 317
#     4  12  20  37  53  76 103 132 173 222 264 304
#     4  10  21  35  50  74 104 134 171 209 258 321
#     4  10  18  32  51  67 100 129 161 216 253 289
#     4  10  21  35  50  74 104 134 171 209 258 321
#     4  12  21  33  54  75  97 127 169 223 267 307
#     4  10  19  32  50  76  97 123 176 215 249 317
#     4  10  18  30  48  65  91 116 149 210 258 297
#
# _framework density 17.481877999999998
#
# number of rings (size 3 to 8) (size 9 to 14) (size 15 to 20)
#    0.000    1.500    5.000    3.000    0.000    5.000 
#    0.000    1.250    0.000    2.250    0.000    0.000 
#    0.000    0.000    0.000    0.000    0.000   43.750 
#
# Total GULP energy -356916.531142 kJ/mol
# GULP energy per Si atom -5576.820799 kJ/mol
# Density = 1.744209 g / cm^3
# Si number density = 17.481878 Si / 1000 Ang^3
#
#
#
# Elastic Constant Matrix: (Units=GPa)
#
#
# Indices 1 2 3 4 5 6 
#
# 1 33.5071 12.4814 18.9724 0.0000 0.0000 0.0000
# 2 12.4814 33.5103 18.9739 0.0000 0.0000 0.0000
# 3 18.9724 18.9739 186.8705 0.0000 0.0000 0.0000
# 4 0.0000 0.0000 0.0000 22.4692 0.0000 0.0000
# 5 0.0000 0.0000 0.0000 0.0000 22.4695 0.0000
# 6 0.0000 0.0000 0.0000 0.0000 0.0000 16.2107
#
#
#
# Elastic Compliance Matrix: (Units=1/GPa)
#
#
# Indices 1 2 3 4 5 6 
#
# 1 0.035646 -0.011913 -0.002409 0.000000 0.000000 0.000000
# 2 -0.011913 0.035643 -0.002410 0.000000 0.000000 0.000000
# 3 -0.002409 -0.002410 0.005841 0.000000 0.000000 0.000000
# 4 0.000000 0.000000 0.000000 0.044505 0.000000 0.000000
# 5 0.000000 0.000000 0.000000 0.000000 0.044505 0.000000
# 6 0.000000 0.000000 0.000000 0.000000 0.000000 0.061688
#
#
# Mechanical properties :
#
#
# Convention : Reuss Voigt Hill
#
# Bulk Modulus (GPa) = 22.90097 39.41592 31.15844
# Shear Modulus (GPa) = 18.12600 25.79387 21.95994
#
# Velocity S-wave (km/s) = 3.22350 3.84534 3.54807
# Velocity P-wave (km/s) = 5.19451 6.50471 5.88618
#
# Compressibility (1/GPa) = 0.04366628
#
# Stress axis : x y z
#
# Youngs Moduli (GPa) = 28.05347 28.05601 171.21579
#
# Poissons Ratio (x) = 0.33422 0.41254
# Poissons Ratio (y) = 0.33419 0.41255
# Poissons Ratio (z) = 0.06759 0.06760
#
# Static dielectric constant tensor:
#      x y z
#    x 1.591420 0.000000 0.000000 
#    y 0.000000 1.591420 0.000000 
#    z 0.000000 0.000000 1.705980 
# 
# From -- ./inp_files/342.got.cif
#   From: 2010.05.17/outbox.cif.g08.bks.cpg/sg127_1_cif.got.tgz:342.got - 2010.05.20 12:03:00.
