data_PCOD9563274
_publ_section_title
;
Structure prediction by ZEFSAII (Michael W. Deem and Ramdas Pophale) SiO2 
 PCOD9563274
Probable space group: P 4/N B M
;
_chemical_formula_sum "Si O2"
_cell_formula_units_Z 96
_cell_length_a 15.000000
_cell_length_b 15.000000
_cell_length_c 21.000000
_cell_angle_alpha 90.000000
_cell_angle_beta 90.000000
_cell_angle_gamma 90.000000
_cell_volume 4725.000000
_symmetry_space_group_name_H-M "P 4/N B M"
_symmetry_group_IT_number 125
_space_group.IT_coordinate_system_code '2'
_symmetry_cell_setting 'tetragonal'
loop_
_space_group_symop_operation_xyz
x,y,z
1/2-y,x,z
1/2-x,1/2-y,z
y,1/2-x,z
x,1/2-y,-z
1/2-x,y,-z
y,x,-z
1/2-y,1/2-x,-z
-x,-y,-z
1/2+y,-x,-z
1/2+x,1/2+y,-z
-y,1/2+x,-z
-x,1/2+y,z
1/2+x,-y,z
-y,-x,z
1/2+y,1/2+x,z
loop_
_atom_site_type_symbol
_atom_site_label
_atom_site_fract_x
_atom_site_fract_y
_atom_site_fract_z
Si Si1 0.819917 0.319917 0.733355
Si Si2 0.380401 0.619600 0.867590
Si Si3 0.754117 0.004330 0.696119
Si Si4 0.356695 0.143306 0.500000
Si Si5 0.230151 0.995768 0.074001
Si Si6 0.245890 0.105892 0.813325
Si Si7 0.928678 0.922310 0.633454
Si Si8 0.479969 0.520032 0.074425
O O1 0.750000 0.250000 0.761211
O O2 0.868522 0.368522 0.792267
O O3 0.768341 0.392257 0.691315
O O4 0.288143 0.586388 0.898999
O O5 0.455344 0.544657 0.885161
O O6 0.753391 0.980925 0.770797
O O7 0.846505 0.972769 0.666653
O O8 0.672364 0.949398 0.666076
O O9 0.371267 0.250000 0.500000
O O10 0.400448 0.100532 0.438036
O O11 0.263466 0.080477 0.113518
O O12 0.124803 0.993627 0.086158
O O13 0.250000 0.002868 0.000000
O O14 0.332796 0.162728 0.797463
O O15 0.015333 0.984668 0.636910
O O16 0.500000 0.500000 0.000000
#
# Coordination Sequence:
#
# PCOD9563274 Si02
#       8
#     8   8  16   8  16  16  16   8
#     4  12  28  50  68 102 146 190 243 294 356 434
#     4  12  26  46  69 104 135 176 235 298 356 431
#     4  12  24  44  73 102 141 191 236 293 355 420
#     4  11  23  42  74 110 149 191 234 296 358 414
#     4  12  25  43  68  93 130 179 227 291 362 429
#     4  11  24  39  63  98 131 170 226 283 348 425
#     4  12  25  44  74 107 148 196 241 290 352 421
#     4  12  26  45  69  94 130 175 228 288 361 444
#
# _framework density 20.317460000000001
#
# number of rings (size 3 to 8) (size 9 to 14) (size 15 to 20)
#    0.000    0.250    7.500    1.750    1.167    0.333 
#    1.500    1.667    0.000    0.000    0.000    1.167 
#    0.000    0.000    0.000    0.000    0.000    0.000 
#
# Total GULP energy -536479.298552 kJ/mol
# GULP energy per Si atom -5588.326027 kJ/mol
# Density = 2.027122 g / cm^3
# Si number density = 20.317460 Si / 1000 Ang^3
#
#
#
# Elastic Constant Matrix: (Units=GPa)
#
#
# Indices 1 2 3 4 5 6 
#
# 1 81.1947 17.4090 4.3154 0.0000 0.0000 0.0000
# 2 17.4090 81.1952 4.3154 0.0000 0.0000 0.0000
# 3 4.3154 4.3154 75.4118 0.0000 0.0000 0.0000
# 4 0.0000 0.0000 0.0000 15.5981 0.0000 0.0000
# 5 0.0000 0.0000 0.0000 0.0000 15.5977 0.0000
# 6 0.0000 0.0000 0.0000 0.0000 0.0000-2104.5750
#
#
#
# Elastic Compliance Matrix: (Units=1/GPa)
#
#
# Indices 1 2 3 4 5 6 
#
# 1 0.012935 -0.002742 -0.000583 0.000000 0.000000 0.000000
# 2 -0.002742 0.012935 -0.000583 0.000000 0.000000 0.000000
# 3 -0.000583 -0.000583 0.013327 0.000000 0.000000 0.000000
# 4 0.000000 0.000000 0.000000 0.064110 0.000000 0.000000
# 5 0.000000 0.000000 0.000000 0.000000 0.064112 0.000000
# 6 0.000000 0.000000 0.000000 0.000000 0.000000 -0.000475
#
#
# Mechanical properties :
#
#
# Convention : Reuss Voigt Hill
#
# Bulk Modulus (GPa) = 31.86795 32.20902 32.03848
# Shear Modulus (GPa) = 26.99463 -400.55836 -186.78186
#
# Velocity S-wave (km/s) = 3.64901 -14.05624 -9.59850
# Velocity P-wave (km/s) = 5.78556 15.73372 10.34594
#
# Compressibility (1/GPa) = 0.03137949
#
# Stress axis : x y z
#
# Youngs Moduli (GPa) = 77.30922 77.30972 75.03406
#
# Poissons Ratio (x) = 0.21201 0.04376
# Poissons Ratio (y) = 0.21201 0.04376
# Poissons Ratio (z) = 0.04509 0.04509
#
# Static dielectric constant tensor:
#      x y z
#    x 1.732120 0.000000 0.000000 
#    y 0.000000 1.732120 0.000000 
#    z 0.000000 0.000000 1.702380 
# 
# From -- ./inp_files/5990.got.cif
#   From: 2010.05.17/outbox.ucp.g08.bks.cvg/sg125_3_cif.got.tgz:5990.got - 2010.06.11 11:36:31.
