data_PCOD9563020
_publ_section_title
;
Structure prediction by ZEFSAII (Michael W. Deem and Ramdas Pophale) SiO2 
 PCOD9563020
Probable space group: P 4/N B M
;
_chemical_formula_sum "Si O2"
_cell_formula_units_Z 56
_cell_length_a 13.961929
_cell_length_b 13.961929
_cell_length_c 12.855801
_cell_angle_alpha 90.000000
_cell_angle_beta 90.000000
_cell_angle_gamma 90.000000
_cell_volume 2506.051500
_symmetry_space_group_name_H-M "P 4/N B M"
_symmetry_group_IT_number 125
_space_group.IT_coordinate_system_code '2'
_symmetry_cell_setting 'tetragonal'
loop_
_space_group_symop_operation_xyz
x,y,z
1/2-y,x,z
1/2-x,1/2-y,z
y,1/2-x,z
x,1/2-y,-z
1/2-x,y,-z
y,x,-z
1/2-y,1/2-x,-z
-x,-y,-z
1/2+y,-x,-z
1/2+x,1/2+y,-z
-y,1/2+x,-z
-x,1/2+y,z
1/2+x,-y,z
-y,-x,z
1/2+y,1/2+x,z
loop_
_atom_site_type_symbol
_atom_site_label
_atom_site_fract_x
_atom_site_fract_y
_atom_site_fract_z
Si Si1 0.800513 0.037437 0.889671
Si Si2 0.168251 0.668251 0.257742
Si Si3 0.859726 0.359726 0.511549
Si Si4 0.152932 0.122815 0.256794
Si Si5 0.522295 0.477706 0.620372
O O1 0.885297 0.114704 0.897009
O O2 0.722837 0.086474 0.810071
O O3 0.845652 0.936802 0.851387
O O4 0.750000 0.026075 0.000000
O O5 0.250000 0.750000 0.282602
O O6 0.123358 0.623358 0.364074
O O7 0.883679 0.250000 0.500000
O O8 0.898510 0.398510 0.402523
O O9 0.267542 0.123254 0.274566
O O10 0.079966 0.061569 0.325381
O O11 0.500000 0.500000 0.500000
#
# Coordination Sequence:
#
# PCOD9563020 Si02
#       5
#    16   8   8  16   8
#     4  11  22  43  75 115 152 200 260 330 398 462
#     4  10  20  35  66 104 155 190 244 322 384 447
#     4  11  22  38  64 107 145 183 240 312 372 439
#     4  11  28  53  77 112 161 206 255 321 395 478
#     4  12  29  46  81 108 150 206 267 305 385 473
#
# _framework density 22.345911000000001
#
# number of rings (size 3 to 8) (size 9 to 14) (size 15 to 20)
#    0.000    1.000    4.286    1.714    8.000    1.143 
#    0.000    4.286    0.000    0.000    0.000    0.000 
#    0.000    0.000    0.000    0.000    0.000    0.000 
#
# Total GULP energy -312027.242101 kJ/mol
# GULP energy per Si atom -5571.915038 kJ/mol
# Density = 2.229505 g / cm^3
# Si number density = 22.345911 Si / 1000 Ang^3
#
#
#
# Elastic Constant Matrix: (Units=GPa)
#
#
# Indices 1 2 3 4 5 6 
#
# 1 137.3388 43.9577 52.3596 0.0000 0.0000 0.0000
# 2 43.9577 137.3388 52.3596 0.0000 0.0000 0.0000
# 3 52.3596 52.3596 136.4485 0.0000 0.0000 0.0000
# 4 0.0000 0.0000 0.0000 37.4365 0.0000 0.0000
# 5 0.0000 0.0000 0.0000 0.0000 37.4365 0.0000
# 6 0.0000 0.0000 0.0000 0.0000 0.0000 17.8307
#
#
#
# Elastic Compliance Matrix: (Units=1/GPa)
#
#
# Indices 1 2 3 4 5 6 
#
# 1 0.008898 -0.001811 -0.002719 0.000000 0.000000 0.000000
# 2 -0.001811 0.008898 -0.002719 0.000000 0.000000 0.000000
# 3 -0.002719 -0.002719 0.009416 0.000000 0.000000 0.000000
# 4 0.000000 0.000000 0.000000 0.026712 0.000000 0.000000
# 5 0.000000 0.000000 0.000000 0.000000 0.026712 0.000000
# 6 0.000000 0.000000 0.000000 0.000000 0.000000 0.056083
#
#
# Mechanical properties :
#
#
# Convention : Reuss Voigt Hill
#
# Bulk Modulus (GPa) = 78.66877 78.72000 78.69439
# Shear Modulus (GPa) = 32.16373 36.03736 34.10054
#
# Velocity S-wave (km/s) = 3.79800 4.02021 3.91068
# Velocity P-wave (km/s) = 7.38339 7.54015 7.46218
#
# Compressibility (1/GPa) = 0.01271152
#
# Stress axis : x y z
#
# Youngs Moduli (GPa) = 112.38886 112.38886 106.20490
#
# Poissons Ratio (x) = 0.20355 0.28881
# Poissons Ratio (y) = 0.20355 0.28881
# Poissons Ratio (z) = 0.30562 0.30562
#
# Static dielectric constant tensor:
#      x y z
#    x 1.805200 0.000000 0.000000 
#    y 0.000000 1.805200 0.000000 
#    z 0.000000 0.000000 1.822930 
# 
# From -- ./inp_files/3563.got.cif
#   From: 2010.05.17/outbox.cif.g08.bks.cpg/sg125_2_cif.got.tgz:3563.got - 2010.05.20 11:54:10.
