data_PCOD9563725
_publ_section_title
;
Structure prediction by ZEFSAII (Michael W. Deem and Ramdas Pophale) SiO2 
 PCOD9563725
Probable space group: P 4/N N C
;
_chemical_formula_sum "Si O2"
_cell_formula_units_Z 68
_cell_length_a 11.459940
_cell_length_b 11.459940
_cell_length_c 26.780203
_cell_angle_alpha 90.000000
_cell_angle_beta 90.000000
_cell_angle_gamma 90.000000
_cell_volume 3517.050080
_symmetry_space_group_name_H-M "P 4/N N C"
_symmetry_group_IT_number 126
_space_group.IT_coordinate_system_code '2'
_symmetry_cell_setting 'tetragonal'
loop_
_space_group_symop_operation_xyz
x,y,z
1/2-y,x,z
1/2-x,1/2-y,z
y,1/2-x,z
x,1/2-y,1/2-z
1/2-x,y,1/2-z
y,x,1/2-z
1/2-y,1/2-x,1/2-z
-x,-y,-z
1/2+y,-x,-z
1/2+x,1/2+y,-z
-y,1/2+x,-z
-x,1/2+y,1/2+z
1/2+x,-y,1/2+z
-y,-x,1/2+z
1/2+y,1/2+x,1/2+z
loop_
_atom_site_type_symbol
_atom_site_label
_atom_site_fract_x
_atom_site_fract_y
_atom_site_fract_z
Si Si1 0.002138 0.644809 0.715153
Si Si2 0.343547 0.843600 0.624076
Si Si3 0.750000 0.750000 0.815551
Si Si4 0.256711 0.055646 0.059312
Si Si5 0.943684 0.760119 0.441054
O O1 0.048904 0.750000 0.750000
O O2 0.960325 0.539676 0.750000
O O3 0.883512 0.697332 0.690554
O O4 0.088902 0.608002 0.671866
O O5 0.250000 0.750000 0.641250
O O6 0.439647 0.776987 0.590164
O O7 0.281113 0.942448 0.591303
O O8 0.365767 0.142622 0.070291
O O9 0.247403 0.029509 0.000296
O O10 0.856534 0.868895 0.431412
#
# Coordination Sequence:
#
# PCOD9563725 Si02
#       5
#    16  16   4  16  16
#     4   9  20  39  61  90 125 158 200 267 327 377
#     4  12  27  35  63 100 125 164 219 265 316 377
#     4   8  17  36  68  92 112 152 204 264 348 372
#     4   9  22  40  63  91 125 167 210 264 327 389
#     4   9  22  44  61  84 130 179 213 250 308 383
#
# _framework density 19.334385999999999
#
# number of rings (size 3 to 8) (size 9 to 14) (size 15 to 20)
#    0.000    2.353    0.000    3.529   13.176    2.353 
#    0.000    0.000    0.000    0.000    0.000    1.647 
#    0.000    0.000    0.000    0.000    0.000    0.000 
#
# Total GULP energy -378663.203346 kJ/mol
# GULP energy per Si atom -5568.576520 kJ/mol
# Density = 1.929038 g / cm^3
# Si number density = 19.334386 Si / 1000 Ang^3
#
#
#
# Elastic Constant Matrix: (Units=GPa)
#
#
# Indices 1 2 3 4 5 6 
#
# 1 52.4293 16.1201 32.9761 0.0000 0.0000 0.0000
# 2 16.1201 52.4295 32.9760 0.0000 0.0000 0.0000
# 3 32.9761 32.9760 76.7477 0.0000 0.0000 0.0000
# 4 0.0000 0.0000 0.0000 52.8576 0.0000 0.0000
# 5 0.0000 0.0000 0.0000 0.0000 52.8686 0.0000
# 6 0.0000 0.0000 0.0000 0.0000 0.0000 9.2278
#
#
#
# Elastic Compliance Matrix: (Units=1/GPa)
#
#
# Indices 1 2 3 4 5 6 
#
# 1 0.026205 -0.001336 -0.010685 0.000000 0.000000 0.000000
# 2 -0.001336 0.026205 -0.010685 0.000000 0.000000 0.000000
# 3 -0.010685 -0.010685 0.022212 0.000000 0.000000 0.000000
# 4 0.000000 0.000000 0.000000 0.018919 0.000000 0.000000
# 5 0.000000 0.000000 0.000000 0.000000 0.018915 0.000000
# 6 0.000000 0.000000 0.000000 0.000000 0.000000 0.108368
#
#
# Mechanical properties :
#
#
# Convention : Reuss Voigt Hill
#
# Bulk Modulus (GPa) = 34.23733 38.41676 36.32704
# Shear Modulus (GPa) = 18.11782 29.62642 23.87212
#
# Velocity S-wave (km/s) = 3.06449 3.91873 3.51764
# Velocity P-wave (km/s) = 5.50163 6.35516 5.94374
#
# Compressibility (1/GPa) = 0.02920789
#
# Stress axis : x y z
#
# Youngs Moduli (GPa) = 38.16098 38.16134 45.02121
#
# Poissons Ratio (x) = 0.05100 0.48106
# Poissons Ratio (y) = 0.05100 0.48105
# Poissons Ratio (z) = 0.40776 0.40775
#
# Static dielectric constant tensor:
#      x y z
#    x 1.650820 0.000000 0.000000 
#    y 0.000000 1.650820 0.000000 
#    z 0.000000 0.000000 1.726990 
# 
# From -- ./inp_files/6142.got.cif
#   From: 2010.05.17/outbox.cif.g08.bks.cpg/sg126_4_cif.got.tgz:6142.got - 2010.05.20 11:58:20.
