data_PCOD9563505
_publ_section_title
;
Structure prediction by ZEFSAII (Michael W. Deem and Ramdas Pophale) SiO2 
 PCOD9563505
Probable space group: P 4/N N C
;
_chemical_formula_sum "Si O2"
_cell_formula_units_Z 96
_cell_length_a 18.918039
_cell_length_b 18.918039
_cell_length_c 13.121515
_cell_angle_alpha 90.000000
_cell_angle_beta 90.000000
_cell_angle_gamma 90.000000
_cell_volume 4696.087866
_symmetry_space_group_name_H-M "P 4/N N C"
_symmetry_group_IT_number 126
_space_group.IT_coordinate_system_code '2'
_symmetry_cell_setting 'tetragonal'
loop_
_space_group_symop_operation_xyz
x,y,z
1/2-y,x,z
1/2-x,1/2-y,z
y,1/2-x,z
x,1/2-y,1/2-z
1/2-x,y,1/2-z
y,x,1/2-z
1/2-y,1/2-x,1/2-z
-x,-y,-z
1/2+y,-x,-z
1/2+x,1/2+y,-z
-y,1/2+x,-z
-x,1/2+y,1/2+z
1/2+x,-y,1/2+z
-y,-x,1/2+z
1/2+y,1/2+x,1/2+z
loop_
_atom_site_type_symbol
_atom_site_label
_atom_site_fract_x
_atom_site_fract_y
_atom_site_fract_z
Si Si1 0.665317 0.665317 0.750000
Si Si2 0.480816 0.626184 0.517700
Si Si3 0.750000 0.363183 0.750000
Si Si4 0.542571 0.600659 0.879676
Si Si5 0.543310 0.225500 0.449823
Si Si6 0.114427 0.667637 0.367656
Si Si7 0.083242 0.525584 0.714681
O O1 0.750000 0.654042 0.750000
O O2 0.613876 0.636432 0.838966
O O3 0.528568 0.565867 0.567155
O O4 0.505006 0.704883 0.548011
O O5 0.402216 0.625566 0.563307
O O6 0.480289 0.613871 0.398052
O O7 0.723915 0.412103 0.655320
O O8 0.815075 0.321687 0.698839
O O9 0.503867 0.655507 0.953487
O O10 0.482607 0.581563 0.795251
O O11 0.592440 0.226499 0.550737
O O12 0.053715 0.643330 0.289770
O O13 0.046726 0.453275 0.750000
#
# Coordination Sequence:
#
# PCOD9563505 Si02
#       7
#     8  16   8  16  16  16  16
#     4  11  24  36  54  88 130 170 210 252 317 410
#     4  11  23  38  58  93 127 163 213 266 317 385
#     4  10  22  38  64  93 123 166 210 268 322 396
#     4  12  20  37  60  92 122 166 208 261 330 380
#     4  11  24  38  63  92 131 168 210 267 326 394
#     4  11  20  38  60  91 123 160 210 259 326 386
#     4  12  21  35  62  93 120 157 202 271 323 373
#
# _framework density 20.442547999999999
#
# number of rings (size 3 to 8) (size 9 to 14) (size 15 to 20)
#    0.000    0.750    5.833    2.500    3.500    0.667 
#    0.000    0.000    0.000   30.000    0.000    0.000 
#    0.000    1.333    0.000    0.000    0.000    0.000 
#
# Total GULP energy -536164.497463 kJ/mol
# GULP energy per Si atom -5585.046849 kJ/mol
# Density = 2.039602 g / cm^3
# Si number density = 20.442548 Si / 1000 Ang^3
#
#
#
# Elastic Constant Matrix: (Units=GPa)
#
#
# Indices 1 2 3 4 5 6 
#
# 1 72.8836 20.8296 26.3101 0.0000 0.0000 0.0000
# 2 20.8296 72.8842 26.3095 0.0000 0.0000 0.0000
# 3 26.3101 26.3095 133.1841 0.0000 0.0000 0.0000
# 4 0.0000 0.0000 0.0000 39.0550 0.0000 0.0000
# 5 0.0000 0.0000 0.0000 0.0000 39.0550 0.0000
# 6 0.0000 0.0000 0.0000 0.0000 0.0000 22.3296
#
#
#
# Elastic Compliance Matrix: (Units=1/GPa)
#
#
# Indices 1 2 3 4 5 6 
#
# 1 0.015607 -0.003604 -0.002371 0.000000 0.000000 0.000000
# 2 -0.003604 0.015606 -0.002371 0.000000 0.000000 0.000000
# 3 -0.002371 -0.002371 0.008445 0.000000 0.000000 0.000000
# 4 0.000000 0.000000 0.000000 0.025605 0.000000 0.000000
# 5 0.000000 0.000000 0.000000 0.000000 0.025605 0.000000
# 6 0.000000 0.000000 0.000000 0.000000 0.000000 0.044784
#
#
# Mechanical properties :
#
#
# Convention : Reuss Voigt Hill
#
# Bulk Modulus (GPa) = 43.54352 47.31671 45.43012
# Shear Modulus (GPa) = 31.25020 33.78809 32.51915
#
# Velocity S-wave (km/s) = 3.91408 4.06991 3.99276
# Velocity P-wave (km/s) = 6.46323 6.72919 6.59755
#
# Compressibility (1/GPa) = 0.02296553
#
# Stress axis : x y z
#
# Youngs Moduli (GPa) = 64.07584 64.07666 118.41126
#
# Poissons Ratio (x) = 0.23095 0.28075
# Poissons Ratio (y) = 0.23095 0.28074
# Poissons Ratio (z) = 0.15192 0.15192
#
# Static dielectric constant tensor:
#      x y z
#    x 1.765050 0.000000 0.000000 
#    y 0.000000 1.765050 0.000000 
#    z 0.000000 0.000000 1.750050 
# 
# From -- ./inp_files/2937.got.cif
#   From: 2010.05.17/outbox.cif.g08.bks.cpg/sg126_2_cif.got.tgz:2937.got - 2010.05.20 11:58:20.
