data_PCOD9563572
_publ_section_title
;
Structure prediction by ZEFSAII (Michael W. Deem and Ramdas Pophale) SiO2 
 PCOD9563572
Probable space group: P 4/N N C
;
_chemical_formula_sum "Si O2"
_cell_formula_units_Z 60
_cell_length_a 17.287195
_cell_length_b 17.287195
_cell_length_c 8.321554
_cell_angle_alpha 90.000000
_cell_angle_beta 90.000000
_cell_angle_gamma 90.000000
_cell_volume 2486.872372
_symmetry_space_group_name_H-M "P 4/N N C"
_symmetry_group_IT_number 126
_space_group.IT_coordinate_system_code '2'
_symmetry_cell_setting 'tetragonal'
loop_
_space_group_symop_operation_xyz
x,y,z
1/2-y,x,z
1/2-x,1/2-y,z
y,1/2-x,z
x,1/2-y,1/2-z
1/2-x,y,1/2-z
y,x,1/2-z
1/2-y,1/2-x,1/2-z
-x,-y,-z
1/2+y,-x,-z
1/2+x,1/2+y,-z
-y,1/2+x,-z
-x,1/2+y,1/2+z
1/2+x,-y,1/2+z
-y,-x,1/2+z
1/2+y,1/2+x,1/2+z
loop_
_atom_site_type_symbol
_atom_site_label
_atom_site_fract_x
_atom_site_fract_y
_atom_site_fract_z
Si Si1 0.709938 0.965346 0.080047
Si Si2 0.455326 0.929545 0.305739
Si Si3 0.403945 0.820284 0.034567
Si Si4 0.250000 0.379168 0.250000
Si Si5 0.250000 0.750000 0.500000
O O1 0.750000 0.937279 0.250000
O O2 0.617075 0.978555 0.092145
O O3 0.740790 0.923172 0.920542
O O4 0.739824 0.052389 0.052456
O O5 0.368341 0.920079 0.372996
O O6 0.487801 0.012200 0.250000
O O7 0.449458 0.876872 0.150762
O O8 0.315721 0.801935 0.083318
O O9 0.175163 0.324837 0.250000
#
# Coordination Sequence:
#
# PCOD9563572 Si02
#       5
#    16  16  16   8   4
#     4  10  25  46  70 107 147 194 243 300 384 447
#     4  11  25  45  70 105 145 198 252 303 384 462
#     4  11  25  43  71 107 144 196 243 310 382 455
#     4  11  28  48  76 109 136 188 254 313 380 434
#     4  12  24  46  72 102 160 174 256 314 370 480
#
# _framework density 24.126691999999998
#
# number of rings (size 3 to 8) (size 9 to 14) (size 15 to 20)
#    0.000    1.200    2.667    0.800   11.200    3.200 
#    0.000    1.333    0.000    0.000    0.000    0.000 
#    0.000    0.000    0.000    0.000    0.000    0.000 
#
# Total GULP energy -334243.288368 kJ/mol
# GULP energy per Si atom -5570.721473 kJ/mol
# Density = 2.407178 g / cm^3
# Si number density = 24.126692 Si / 1000 Ang^3
#
#
#
# Elastic Constant Matrix: (Units=GPa)
#
#
# Indices 1 2 3 4 5 6 
#
# 1 63.4249 28.1805 23.0033 0.0000 0.0000 0.0000
# 2 28.1805 63.4175 23.0010 0.0000 0.0000 0.0000
# 3 23.0033 23.0010 109.1009 0.0000 0.0000 0.0000
# 4 0.0000 0.0000 0.0000 17.9665 0.0000 0.0000
# 5 0.0000 0.0000 0.0000 0.0000 17.9657 0.0000
# 6 0.0000 0.0000 0.0000 0.0000 0.0000 39.2911
#
#
#
# Elastic Compliance Matrix: (Units=1/GPa)
#
#
# Indices 1 2 3 4 5 6 
#
# 1 0.020292 -0.008083 -0.002574 0.000000 0.000000 0.000000
# 2 -0.008083 0.020294 -0.002574 0.000000 0.000000 0.000000
# 3 -0.002574 -0.002574 0.010251 0.000000 0.000000 0.000000
# 4 0.000000 0.000000 0.000000 0.055659 0.000000 0.000000
# 5 0.000000 0.000000 0.000000 0.000000 0.055662 0.000000
# 6 0.000000 0.000000 0.000000 0.000000 0.000000 0.025451
#
#
# Mechanical properties :
#
#
# Convention : Reuss Voigt Hill
#
# Bulk Modulus (GPa) = 41.02772 42.70143 41.86457
# Shear Modulus (GPa) = 22.50255 25.82856 24.16556
#
# Velocity S-wave (km/s) = 3.05730 3.27546 3.16826
# Velocity P-wave (km/s) = 5.43183 5.66057 5.54738
#
# Compressibility (1/GPa) = 0.02437377
#
# Stress axis : x y z
#
# Youngs Moduli (GPa) = 49.28087 49.27546 97.54875
#
# Poissons Ratio (x) = 0.39831 0.25112
# Poissons Ratio (y) = 0.39835 0.25110
# Poissons Ratio (z) = 0.12686 0.12684
#
# Static dielectric constant tensor:
#      x y z
#    x 1.965520 0.000000 0.000000 
#    y 0.000000 1.965520 0.000000 
#    z 0.000000 0.000000 2.146350 
# 
# From -- ./inp_files/1310.got.cif
#   From: 2010.05.17/outbox.cif.g08.bks.cpg/sg126_1_cif.got.tgz:1310.got - 2010.05.20 11:58:20.
