data_PCOD9563742
_publ_section_title
;
Structure prediction by ZEFSAII (Michael W. Deem and Ramdas Pophale) SiO2 
 PCOD9563742
Probable space group: P 4/M B M
;
_chemical_formula_sum "Si O2"
_cell_formula_units_Z 96
_cell_length_a 23.794482
_cell_length_b 23.794482
_cell_length_c 7.266420
_cell_angle_alpha 90.000000
_cell_angle_beta 90.000000
_cell_angle_gamma 90.000000
_cell_volume 4114.082591
_symmetry_space_group_name_H-M "P 4/M B M"
_symmetry_group_IT_number 127
_symmetry_cell_setting 'tetragonal'
loop_
_space_group_symop_operation_xyz
x,y,z
-y,x,z
-x,-y,z
y,-x,z
1/2+x,1/2-y,-z
1/2-x,1/2+y,-z
1/2+y,1/2+x,-z
1/2-y,1/2-x,-z
-x,-y,-z
y,-x,-z
x,y,-z
-y,x,-z
1/2-x,1/2+y,z
1/2+x,1/2-y,z
1/2-y,1/2-x,z
1/2+y,1/2+x,z
loop_
_atom_site_type_symbol
_atom_site_label
_atom_site_fract_x
_atom_site_fract_y
_atom_site_fract_z
Si Si1 0.998029 0.285227 0.795494
Si Si2 0.625548 0.212301 0.720659
Si Si3 0.886387 0.122921 0.775746
Si Si4 0.996442 0.836826 0.224429
Si Si5 0.090657 0.498077 0.223818
Si Si6 0.281751 0.694053 0.789349
O O1 0.065472 0.280936 0.806861
O O2 0.984749 0.225118 0.710241
O O3 0.990069 0.346462 0.708866
O O4 0.972128 0.286661 0.000000
O O5 0.621086 0.217334 0.500000
O O6 0.652306 0.152306 0.765272
O O7 0.670051 0.258047 0.786906
O O8 0.952169 0.122361 0.727815
O O9 0.857380 0.181356 0.711476
O O10 0.855359 0.065741 0.714751
O O11 0.882332 0.123995 0.000000
O O12 0.994024 0.833950 0.000000
O O13 0.048764 0.548764 0.269096
O O14 0.058867 0.441134 0.284873
O O15 0.094137 0.494793 0.000000
O O16 0.226307 0.726307 0.711034
O O17 0.267307 0.679605 0.000000
#
# Coordination Sequence:
#
# PCOD9563742 Si02
#       6
#    16  16  16  16  16  16
#     4  10  17  28  46  68  90 121 157 188 228 277
#     4  10  19  28  42  68  97 120 146 187 234 275
#     4   9  16  28  43  66  95 120 152 189 226 272
#     4   9  17  27  43  66  93 121 152 192 232 274
#     4   8  14  24  39  62  90 117 148 186 222 261
#     4   9  16  28  47  68  92 121 150 184 229 279
#
# _framework density 23.334484
#
# number of rings (size 3 to 8) (size 9 to 14) (size 15 to 20)
#    0.000    2.833    1.667    1.500    0.000    2.000 
#    0.000    2.500    0.000    6.500    0.000    2.333 
#    0.000    1.333    0.000    0.000    0.000    0.000 
#
# Total GULP energy -535213.398794 kJ/mol
# GULP energy per Si atom -5575.139571 kJ/mol
# Density = 2.328137 g / cm^3
# Si number density = 23.334484 Si / 1000 Ang^3
#
#
#
# Elastic Constant Matrix: (Units=GPa)
#
#
# Indices 1 2 3 4 5 6 
#
# 1 106.3440 68.0179 1.7833 0.0000 0.0000 0.0000
# 2 68.0179 106.3440 1.7833 0.0000 0.0000 0.0000
# 3 1.7833 1.7833 106.2141 0.0000 0.0000 0.0000
# 4 0.0000 0.0000 0.0000 38.0883 0.0000 0.0000
# 5 0.0000 0.0000 0.0000 0.0000 38.0883 0.0000
# 6 0.0000 0.0000 0.0000 0.0000 0.0000 32.1057
#
#
#
# Elastic Compliance Matrix: (Units=1/GPa)
#
#
# Indices 1 2 3 4 5 6 
#
# 1 0.015915 -0.010177 -0.000096 0.000000 0.000000 0.000000
# 2 -0.010177 0.015915 -0.000096 0.000000 0.000000 0.000000
# 3 -0.000096 -0.000096 0.009418 0.000000 0.000000 0.000000
# 4 0.000000 0.000000 0.000000 0.026255 0.000000 0.000000
# 5 0.000000 0.000000 0.000000 0.000000 0.026255 0.000000
# 6 0.000000 0.000000 0.000000 0.000000 0.000000 0.031147
#
#
# Mechanical properties :
#
#
# Convention : Reuss Voigt Hill
#
# Bulk Modulus (GPa) = 48.76334 51.34124 50.05229
# Shear Modulus (GPa) = 32.79124 38.14428 35.46776
#
# Velocity S-wave (km/s) = 3.75276 4.04750 3.90291
# Velocity P-wave (km/s) = 6.30242 6.62518 6.46582
#
# Compressibility (1/GPa) = 0.02050721
#
# Stress axis : x y z
#
# Youngs Moduli (GPa) = 62.83560 62.83560 106.17763
#
# Poissons Ratio (x) = 0.63950 0.01023
# Poissons Ratio (y) = 0.63950 0.01023
# Poissons Ratio (z) = 0.00605 0.00605
#
# Static dielectric constant tensor:
#      x y z
#    x 1.880370 0.000000 0.000000 
#    y 0.000000 1.880370 0.000000 
#    z 0.000000 0.000000 1.898740 
# 
# From -- ./inp_files/1967.got.cif
#   From: 2010.05.17/outbox.cif.g08.bks.cpg/sg127_1_cif.got.tgz:1967.got - 2010.05.20 12:03:00.
