data_PCOD9563620
_publ_section_title
;
Structure prediction by ZEFSAII (Michael W. Deem and Ramdas Pophale) SiO2 
 PCOD9563620
Probable space group: P 4/N N C
;
_chemical_formula_sum "Si O2"
_cell_formula_units_Z 72
_cell_length_a 20.121336
_cell_length_b 20.121336
_cell_length_c 9.437807
_cell_angle_alpha 90.000000
_cell_angle_beta 90.000000
_cell_angle_gamma 90.000000
_cell_volume 3821.067577
_symmetry_space_group_name_H-M "P 4/N N C"
_symmetry_group_IT_number 126
_space_group.IT_coordinate_system_code '2'
_symmetry_cell_setting 'tetragonal'
loop_
_space_group_symop_operation_xyz
x,y,z
1/2-y,x,z
1/2-x,1/2-y,z
y,1/2-x,z
x,1/2-y,1/2-z
1/2-x,y,1/2-z
y,x,1/2-z
1/2-y,1/2-x,1/2-z
-x,-y,-z
1/2+y,-x,-z
1/2+x,1/2+y,-z
-y,1/2+x,-z
-x,1/2+y,1/2+z
1/2+x,-y,1/2+z
-y,-x,1/2+z
1/2+y,1/2+x,1/2+z
loop_
_atom_site_type_symbol
_atom_site_label
_atom_site_fract_x
_atom_site_fract_y
_atom_site_fract_z
Si Si1 0.507800 0.936793 0.104644
Si Si2 0.304256 0.656591 0.514956
Si Si3 0.362329 0.250000 0.250000
Si Si4 0.143994 0.054395 0.140894
Si Si5 0.092835 0.866176 0.766620
O O1 0.540646 0.959355 0.250000
O O2 0.436177 0.907960 0.148977
O O3 0.552388 0.886399 0.015115
O O4 0.500000 0.000000 0.000000
O O5 0.226954 0.668274 0.545511
O O6 0.349476 0.637002 0.648456
O O7 0.311471 0.605145 0.386971
O O8 0.310909 0.310909 0.250000
O O9 0.414346 0.217748 0.139289
O O10 0.095490 0.095490 0.250000
O O11 0.142825 0.978688 0.194796
#
# Coordination Sequence:
#
# PCOD9563620 Si02
#       5
#    16  16   8  16  16
#     4  12  20  37  61  99 139 166 205 271 347 396
#     4  11  25  41  55  79 123 175 220 263 310 374
#     4   9  22  44  68  94 125 164 222 278 323 398
#     4  11  22  38  65  97 126 168 212 268 340 394
#     4  12  21  36  62  88 124 169 218 263 319 391
#
# _framework density 18.842901000000001
#
# number of rings (size 3 to 8) (size 9 to 14) (size 15 to 20)
#    0.000    0.778    6.667    1.333    3.111    1.778 
#    0.000    0.000    0.000    0.000    0.000    6.222 
#    0.000    0.000    0.000    0.000    0.000    0.000 
#
# Total GULP energy -401189.486518 kJ/mol
# GULP energy per Si atom -5572.076202 kJ/mol
# Density = 1.880001 g / cm^3
# Si number density = 18.842901 Si / 1000 Ang^3
#
#
#
# Elastic Constant Matrix: (Units=GPa)
#
#
# Indices 1 2 3 4 5 6 
#
# 1 -133.9173 237.6925 39.1953 0.0000 0.0000 0.0000
# 2 237.6925 -133.9107 39.1960 0.0000 0.0000 0.0000
# 3 39.1953 39.1960 117.9173 0.0000 0.0000 0.0000
# 4 0.0000 0.0000 0.0000 36.0342 0.0000 0.0000
# 5 0.0000 0.0000 0.0000 0.0000 36.0341 0.0000
# 6 0.0000 0.0000 0.0000 0.0000 0.0000 40.8672
#
#
#
# Elastic Compliance Matrix: (Units=1/GPa)
#
#
# Indices 1 2 3 4 5 6 
#
# 1 0.005088 0.007779 -0.004277 0.000000 0.000000 0.000000
# 2 0.007779 0.005088 -0.004277 0.000000 0.000000 0.000000
# 3 -0.004277 -0.004277 0.011324 0.000000 0.000000 0.000000
# 4 0.000000 0.000000 0.000000 0.027751 0.000000 0.000000
# 5 0.000000 0.000000 0.000000 0.000000 0.027752 0.000000
# 6 0.000000 0.000000 0.000000 0.000000 0.000000 0.024470
#
#
# Mechanical properties :
#
#
# Convention : Reuss Voigt Hill
#
# Bulk Modulus (GPa) = 50.12666 53.58411 51.85539
# Shear Modulus (GPa) = 45.59080 -8.47921 18.55579
#
# Velocity S-wave (km/s) = 4.92420 -2.12361 3.14150
# Velocity P-wave (km/s) = 7.68053 4.74195 6.38265
#
# Compressibility (1/GPa) = 0.01994946
#
# Stress axis : x y z
#
# Youngs Moduli (GPa) = 196.55514 196.54689 88.31001
#
# Poissons Ratio (x) = -1.52889 0.37768
# Poissons Ratio (y) = -1.52895 0.37769
# Poissons Ratio (z) = 0.84063 0.84060
#
# Static dielectric constant tensor:
#      x y z
#    x 1.699460 0.000000 0.000000 
#    y 0.000000 1.699460 0.000000 
#    z 0.000000 0.000000 1.636840 
# 
# From -- ./inp_files/1555.got.cif
#   From: 2010.05.17/outbox.cif.g08.bks.cpg/sg126_1_cif.got.tgz:1555.got - 2010.05.20 11:58:20.
