data_PCOD9563314
_publ_section_title
;
Structure prediction by ZEFSAII (Michael W. Deem and Ramdas Pophale) SiO2 
 PCOD9563314
Probable space group: P 4/N N C
;
_chemical_formula_sum "Si O2"
_cell_formula_units_Z 116
_cell_length_a 17.881573
_cell_length_b 17.881573
_cell_length_c 16.618227
_cell_angle_alpha 90.000000
_cell_angle_beta 90.000000
_cell_angle_gamma 90.000000
_cell_volume 5313.688934
_symmetry_space_group_name_H-M "P 4/N N C"
_symmetry_group_IT_number 126
_space_group.IT_coordinate_system_code '2'
_symmetry_cell_setting 'tetragonal'
loop_
_space_group_symop_operation_xyz
x,y,z
1/2-y,x,z
1/2-x,1/2-y,z
y,1/2-x,z
x,1/2-y,1/2-z
1/2-x,y,1/2-z
y,x,1/2-z
1/2-y,1/2-x,1/2-z
-x,-y,-z
1/2+y,-x,-z
1/2+x,1/2+y,-z
-y,1/2+x,-z
-x,1/2+y,1/2+z
1/2+x,-y,1/2+z
-y,-x,1/2+z
1/2+y,1/2+x,1/2+z
loop_
_atom_site_type_symbol
_atom_site_label
_atom_site_fract_x
_atom_site_fract_y
_atom_site_fract_z
Si Si1 0.755972 0.628466 0.652145
Si Si2 0.961979 0.499712 0.161411
Si Si3 0.758638 0.457131 0.845842
Si Si4 0.418812 0.581902 0.912495
Si Si5 0.626349 0.130185 0.589826
Si Si6 0.113349 0.172787 0.834999
Si Si7 0.040573 0.762739 0.340584
Si Si8 0.750000 0.750000 0.409463
O O1 0.825859 0.681036 0.626687
O O2 0.750000 0.627856 0.750000
O O3 0.762249 0.542112 0.626734
O O4 0.995882 0.504119 0.250000
O O5 0.918861 0.423134 0.151102
O O6 0.902522 0.566673 0.151879
O O7 0.024856 0.512899 0.095416
O O8 0.750000 0.452931 0.750000
O O9 0.843637 0.443484 0.868000
O O10 0.710088 0.392485 0.888405
O O11 0.348144 0.546301 0.866243
O O12 0.394497 0.602454 0.001618
O O13 0.594551 0.213371 0.602638
O O14 0.158746 0.158746 0.750000
O O15 0.175555 0.195802 0.898702
O O16 0.045138 0.233016 0.838214
O O17 0.068866 0.750000 0.250000
#
# Coordination Sequence:
#
# PCOD9563314 Si02
#       8
#    16  16  16  16  16  16  16   4
#     4   8  16  33  59  94 129 159 197 259 323 378
#     4  10  21  40  63  89 123 169 224 268 319 390
#     4  11  23  39  64  97 125 164 221 264 320 402
#     4  12  24  41  63  92 129 173 211 271 337 387
#     4  11  25  42  61  93 128 168 214 272 332 393
#     4  10  19  31  55  92 123 160 209 264 319 376
#     4  11  22  41  64  87 124 169 217 270 321 391
#     4  12  17  24  48  88 128 148 188 256 321 378
#
# _framework density 21.830409
#
# number of rings (size 3 to 8) (size 9 to 14) (size 15 to 20)
#    0.000    1.517    0.000    8.069    1.931    0.552 
#    0.000    2.759    0.000    0.000    3.586    0.000 
#    0.000    0.000    0.000    0.000    0.000    0.000 
#
# Total GULP energy -647172.299064 kJ/mol
# GULP energy per Si atom -5579.071544 kJ/mol
# Density = 2.178072 g / cm^3
# Si number density = 21.830409 Si / 1000 Ang^3
#
#
#
# Elastic Constant Matrix: (Units=GPa)
#
#
# Indices 1 2 3 4 5 6 
#
# 1 56.7867 6.4213 -13.2104 0.0000 0.0000 0.0000
# 2 6.4213 56.7873 -13.2102 0.0000 0.0000 0.0000
# 3 -13.2104 -13.2102 45.9789 0.0000 0.0000 0.0000
# 4 0.0000 0.0000 0.0000 15.9012 0.0000 0.0000
# 5 0.0000 0.0000 0.0000 0.0000 15.9015 0.0000
# 6 0.0000 0.0000 0.0000 0.0000 0.0000 16.6733
#
#
#
# Elastic Compliance Matrix: (Units=1/GPa)
#
#
# Indices 1 2 3 4 5 6 
#
# 1 0.018918 -0.000937 0.005166 0.000000 0.000000 0.000000
# 2 -0.000937 0.018917 0.005166 0.000000 0.000000 0.000000
# 3 0.005166 0.005166 0.024718 0.000000 0.000000 0.000000
# 4 0.000000 0.000000 0.000000 0.062888 0.000000 0.000000
# 5 0.000000 0.000000 0.000000 0.000000 0.062887 0.000000
# 6 0.000000 0.000000 0.000000 0.000000 0.000000 0.059976
#
#
# Mechanical properties :
#
#
# Convention : Reuss Voigt Hill
#
# Bulk Modulus (GPa) = 12.29391 13.28381 12.78886
# Shear Modulus (GPa) = 19.48339 21.66535 20.57437
#
# Velocity S-wave (km/s) = 2.99070 3.15372 3.07329
# Velocity P-wave (km/s) = 4.19159 4.39994 4.29703
#
# Compressibility (1/GPa) = 0.08134108
#
# Stress axis : x y z
#
# Youngs Moduli (GPa) = 52.86102 52.86171 40.45710
#
# Poissons Ratio (x) = 0.04955 -0.20900
# Poissons Ratio (y) = 0.04955 -0.20899
# Poissons Ratio (z) = -0.27308 -0.27307
#
# Static dielectric constant tensor:
#      x y z
#    x 1.796160 0.000000 0.000000 
#    y 0.000000 1.796160 0.000000 
#    z 0.000000 0.000000 1.811220 
# 
# From -- ./inp_files/4626.got.cif
#   From: 2010.05.17/outbox.cif.g08.bks.cpg/sg126_3_cif.got.tgz:4626.got - 2010.05.20 11:58:20.
