data_PCOD9563887
_publ_section_title
;
Structure prediction by ZEFSAII (Michael W. Deem and Ramdas Pophale) SiO2 
 PCOD9563887
Probable space group: P 4/M B M
;
_chemical_formula_sum "Si O2"
_cell_formula_units_Z 96
_cell_length_a 14.665712
_cell_length_b 14.665712
_cell_length_c 24.073825
_cell_angle_alpha 90.000000
_cell_angle_beta 90.000000
_cell_angle_gamma 90.000000
_cell_volume 5177.873114
_symmetry_space_group_name_H-M "P 4/M B M"
_symmetry_group_IT_number 127
_symmetry_cell_setting 'tetragonal'
loop_
_space_group_symop_operation_xyz
x,y,z
-y,x,z
-x,-y,z
y,-x,z
1/2+x,1/2-y,-z
1/2-x,1/2+y,-z
1/2+y,1/2+x,-z
1/2-y,1/2-x,-z
-x,-y,-z
y,-x,-z
x,y,-z
-y,x,-z
1/2-x,1/2+y,z
1/2+x,1/2-y,z
1/2-y,1/2-x,z
1/2+y,1/2+x,z
loop_
_atom_site_type_symbol
_atom_site_label
_atom_site_fract_x
_atom_site_fract_y
_atom_site_fract_z
Si Si1 0.214870 0.136157 0.657658
Si Si2 0.359076 0.561220 0.228432
Si Si3 0.716632 0.637644 0.559784
Si Si4 0.036508 0.674041 0.561781
Si Si5 0.098378 0.251354 0.066698
Si Si6 0.106169 0.759994 0.883875
O O1 0.273816 0.226185 0.673890
O O2 0.183949 0.083691 0.711924
O O3 0.131241 0.161879 0.616716
O O4 0.275879 0.079528 0.614394
O O5 0.384093 0.454520 0.223193
O O6 0.291204 0.591428 0.179640
O O7 0.670482 0.620790 0.500000
O O8 0.762182 0.737819 0.559271
O O9 0.798886 0.567233 0.562819
O O10 0.067723 0.706716 0.500000
O O11 0.071306 0.571306 0.564861
O O12 0.158826 0.341175 0.082348
O O13 0.158020 0.164519 0.087530
O O14 0.995193 0.251459 0.090238
O O15 0.093634 0.248166 0.000000
O O16 0.169393 0.669393 0.888561
#
# Coordination Sequence:
#
# PCOD9563887 Si02
#       6
#    16  16  16  16  16  16
#     4  10  19  32  50  72  98 134 178 224 280 346
#     4  11  22  37  56  79 108 144 192 245 293 348
#     4   9  17  29  46  69  97 129 168 218 277 341
#     4   9  17  29  46  68  95 127 166 216 274 338
#     4  10  22  40  65  98 131 165 206 247 293 354
#     4  11  22  40  63  90 127 167 204 249 302 353
#
# _framework density 18.540430000000001
#
# number of rings (size 3 to 8) (size 9 to 14) (size 15 to 20)
#    0.000    2.000    1.667    2.500    0.000    4.000 
#    0.000    3.333    0.000    0.000    0.000    9.333 
#    0.000    0.000    0.000    0.000    0.000    0.000 
#
# Total GULP energy -534486.891687 kJ/mol
# GULP energy per Si atom -5567.571788 kJ/mol
# Density = 1.849823 g / cm^3
# Si number density = 18.540430 Si / 1000 Ang^3
#
#
#
# Elastic Constant Matrix: (Units=GPa)
#
#
# Indices 1 2 3 4 5 6 
#
# 1 111.3614 56.9984 53.2276 0.0000 0.0000 0.0000
# 2 56.9984 111.3614 53.2276 0.0000 0.0000 0.0000
# 3 53.2276 53.2276 135.8969 0.0000 0.0000 0.0000
# 4 0.0000 0.0000 0.0000 69.8693 0.0000 0.0000
# 5 0.0000 0.0000 0.0000 0.0000 69.8693 0.0000
# 6 0.0000 0.0000 0.0000 0.0000 0.0000 26.1662
#
#
#
# Elastic Compliance Matrix: (Units=1/GPa)
#
#
# Indices 1 2 3 4 5 6 
#
# 1 0.013145 -0.005250 -0.003092 0.000000 0.000000 0.000000
# 2 -0.005250 0.013145 -0.003092 0.000000 0.000000 0.000000
# 3 -0.003092 -0.003092 0.009781 0.000000 0.000000 0.000000
# 4 0.000000 0.000000 0.000000 0.014312 0.000000 0.000000
# 5 0.000000 0.000000 0.000000 0.000000 0.014312 0.000000
# 6 0.000000 0.000000 0.000000 0.000000 0.000000 0.038217
#
#
# Mechanical properties :
#
#
# Convention : Reuss Voigt Hill
#
# Bulk Modulus (GPa) = 75.74801 76.16965 75.95883
# Shear Modulus (GPa) = 38.40769 46.19203 42.29986
#
# Velocity S-wave (km/s) = 4.55638 4.99683 4.78168
# Velocity P-wave (km/s) = 8.28403 8.62921 8.45838
#
# Compressibility (1/GPa) = 0.01320167
#
# Stress axis : x y z
#
# Youngs Moduli (GPa) = 76.07523 76.07523 102.24074
#
# Poissons Ratio (x) = 0.39939 0.31615
# Poissons Ratio (y) = 0.39939 0.31615
# Poissons Ratio (z) = 0.23524 0.23524
#
# Static dielectric constant tensor:
#      x y z
#    x 1.658190 0.000000 0.000000 
#    y 0.000000 1.658190 0.000000 
#    z 0.000000 0.000000 1.632650 
# 
# From -- ./inp_files/5757.got.cif
#   From: 2010.05.17/outbox.cif.g08.bks.cpg/sg127_3_cif.got.tgz:5757.got - 2010.05.20 12:03:00.
