data_PCOD9563036
_publ_section_title
;
Structure prediction by ZEFSAII (Michael W. Deem and Ramdas Pophale) SiO2 
 PCOD9563036
Probable space group: P 4/N B M
;
_chemical_formula_sum "Si O2"
_cell_formula_units_Z 40
_cell_length_a 17.509982
_cell_length_b 17.509982
_cell_length_c 5.356992
_cell_angle_alpha 90.000000
_cell_angle_beta 90.000000
_cell_angle_gamma 90.000000
_cell_volume 1642.450906
_symmetry_space_group_name_H-M "P 4/N B M"
_symmetry_group_IT_number 125
_space_group.IT_coordinate_system_code '2'
_symmetry_cell_setting 'tetragonal'
loop_
_space_group_symop_operation_xyz
x,y,z
1/2-y,x,z
1/2-x,1/2-y,z
y,1/2-x,z
x,1/2-y,-z
1/2-x,y,-z
y,x,-z
1/2-y,1/2-x,-z
-x,-y,-z
1/2+y,-x,-z
1/2+x,1/2+y,-z
-y,1/2+x,-z
-x,1/2+y,z
1/2+x,-y,z
-y,-x,z
1/2+y,1/2+x,z
loop_
_atom_site_type_symbol
_atom_site_label
_atom_site_fract_x
_atom_site_fract_y
_atom_site_fract_z
Si Si1 0.146202 0.093650 0.751050
Si Si2 0.886279 0.386279 0.234928
Si Si3 0.531670 0.250000 0.000000
Si Si4 0.956480 0.456480 0.736636
O O1 0.143933 0.143933 0.500000
O O2 0.067426 0.044754 0.737479
O O3 0.143873 0.143873 0.000000
O O4 0.206848 0.026797 0.809751
O O5 0.913668 0.300430 0.177366
O O6 0.914875 0.414875 0.503671
O O7 0.925500 0.425500 0.995701
#
# Coordination Sequence:
#
# PCOD9563036 Si02
#       4
#    16   8   8   8
#     4  11  22  37  63  93 129 168 213 278 328 383
#     4  10  22  38  64  88 132 174 206 266 309 400
#     4  10  24  43  62  97 132 174 224 260 334 392
#     4  10  20  37  60  93 122 161 212 271 337 364
#
# _framework density 24.353849
#
# number of rings (size 3 to 8) (size 9 to 14) (size 15 to 20)
#    0.000    1.600    0.000    6.000    0.000   14.800 
#    0.000    0.000    0.000   10.200    0.000    8.400 
#    0.000    0.000    0.000    0.000    0.000    0.000 
#
# Total GULP energy -223122.653379 kJ/mol
# GULP energy per Si atom -5578.066334 kJ/mol
# Density = 2.429842 g / cm^3
# Si number density = 24.353849 Si / 1000 Ang^3
#
#
#
# Elastic Constant Matrix: (Units=GPa)
#
#
# Indices 1 2 3 4 5 6 
#
# 1 28.7909 86.5699 46.2173 0.0000 0.0000 0.0000
# 2 86.5699 28.7909 46.2173 0.0000 0.0000 0.0000
# 3 46.2173 46.2173 229.1322 0.0000 0.0000 0.0000
# 4 0.0000 0.0000 0.0000 26.1049 0.0000 0.0000
# 5 0.0000 0.0000 0.0000 0.0000 26.1049 0.0000
# 6 0.0000 0.0000 0.0000 0.0000 0.0000 60.9404
#
#
#
# Elastic Compliance Matrix: (Units=1/GPa)
#
#
# Indices 1 2 3 4 5 6 
#
# 1 -0.003484 0.013823 -0.002086 0.000000 0.000000 0.000000
# 2 0.013823 -0.003484 -0.002086 0.000000 0.000000 0.000000
# 3 -0.002086 -0.002086 0.005206 0.000000 0.000000 0.000000
# 4 0.000000 0.000000 0.000000 0.038307 0.000000 0.000000
# 5 0.000000 0.000000 0.000000 0.000000 0.038307 0.000000
# 6 0.000000 0.000000 0.000000 0.000000 0.000000 0.016409
#
#
# Mechanical properties :
#
#
# Convention : Reuss Voigt Hill
#
# Bulk Modulus (GPa) = 57.00439 71.63591 64.32015
# Shear Modulus (GPa) = 64.26402 29.81068 47.03735
#
# Velocity S-wave (km/s) = 5.14246 3.50246 4.39955
# Velocity P-wave (km/s) = 7.66273 6.77014 7.23022
#
# Compressibility (1/GPa) = 0.01754251
#
# Stress axis : x y z
#
# Youngs Moduli (GPa) = -287.03418 -287.03418 192.09985
#
# Poissons Ratio (x) = 3.96780 0.40063
# Poissons Ratio (y) = 3.96780 0.40063
# Poissons Ratio (z) = -0.59862 -0.59862
#
# Static dielectric constant tensor:
#      x y z
#    x 2.031930 0.000000 0.000000 
#    y 0.000000 2.031930 0.000000 
#    z 0.000000 0.000000 1.973740 
# 
# From -- ./inp_files/457.got.cif
#   From: 2010.05.17/outbox.cif.g08.bks.cpg/sg125_1_cif.got.tgz:457.got - 2010.05.20 11:54:10.
