data_PCOD9563498
_publ_section_title
;
Structure prediction by ZEFSAII (Michael W. Deem and Ramdas Pophale) SiO2 
 PCOD9563498
Probable space group: P 4/N N C
;
_chemical_formula_sum "Si O2"
_cell_formula_units_Z 68
_cell_length_a 11.510829
_cell_length_b 11.510829
_cell_length_c 23.110645
_cell_angle_alpha 90.000000
_cell_angle_beta 90.000000
_cell_angle_gamma 90.000000
_cell_volume 3062.141610
_symmetry_space_group_name_H-M "P 4/N N C"
_symmetry_group_IT_number 126
_space_group.IT_coordinate_system_code '2'
_symmetry_cell_setting 'tetragonal'
loop_
_space_group_symop_operation_xyz
x,y,z
1/2-y,x,z
1/2-x,1/2-y,z
y,1/2-x,z
x,1/2-y,1/2-z
1/2-x,y,1/2-z
y,x,1/2-z
1/2-y,1/2-x,1/2-z
-x,-y,-z
1/2+y,-x,-z
1/2+x,1/2+y,-z
-y,1/2+x,-z
-x,1/2+y,1/2+z
1/2+x,-y,1/2+z
-y,-x,1/2+z
1/2+y,1/2+x,1/2+z
loop_
_atom_site_type_symbol
_atom_site_label
_atom_site_fract_x
_atom_site_fract_y
_atom_site_fract_z
Si Si1 0.378785 0.750478 0.651416
Si Si2 0.125588 0.563507 0.744647
Si Si3 0.250000 0.750000 0.000000
Si Si4 0.880827 0.614264 0.058234
Si Si5 0.979292 0.126522 0.445708
O O1 0.250000 0.750000 0.621864
O O2 0.388446 0.870993 0.683983
O O3 0.374258 0.657124 0.703343
O O4 0.479007 0.715747 0.607418
O O5 0.250000 0.503723 0.750000
O O6 0.023211 0.476790 0.750000
O O7 0.137265 0.669353 0.979676
O O8 0.908304 0.746878 0.075184
O O9 0.912890 0.618938 0.989376
O O10 0.954102 0.503254 0.078252
#
# Coordination Sequence:
#
# PCOD9563498 Si02
#       5
#    16  16   4  16  16
#     4   9  19  37  62  85 116 161 217 255 296 370
#     4   9  19  38  60  90 123 155 197 263 318 372
#     4  12  20  36  60  90 108 160 220 264 272 378
#     4  10  22  38  52  80 127 163 194 253 321 362
#     4  11  21  37  61  84 115 168 211 256 301 372
#
# _framework density 22.206682000000001
#
# number of rings (size 3 to 8) (size 9 to 14) (size 15 to 20)
#    0.000    2.118    3.529    1.412    0.000    2.118 
#    8.471    0.000    0.000    5.647    0.000    0.000 
#    0.000    0.000    0.000    0.000    0.000    0.000 
#
# Total GULP energy -378864.391384 kJ/mol
# GULP energy per Si atom -5571.535167 kJ/mol
# Density = 2.215614 g / cm^3
# Si number density = 22.206682 Si / 1000 Ang^3
#
#
#
# Elastic Constant Matrix: (Units=GPa)
#
#
# Indices 1 2 3 4 5 6 
#
# 1 70.8116 24.1901 -1.3681 0.0000 0.0000 0.0000
# 2 24.1901 70.8069 -1.3696 0.0000 0.0000 0.0000
# 3 -1.3681 -1.3696 8.6889 0.0000 0.0000 0.0000
# 4 0.0000 0.0000 0.0000 15.1533 0.0000 0.0000
# 5 0.0000 0.0000 0.0000 0.0000 15.1528 0.0000
# 6 0.0000 0.0000 0.0000 0.0000 0.0000 52.2767
#
#
#
# Elastic Compliance Matrix: (Units=1/GPa)
#
#
# Indices 1 2 3 4 5 6 
#
# 1 0.016012 -0.005438 0.001664 0.000000 0.000000 0.000000
# 2 -0.005438 0.016013 0.001668 0.000000 0.000000 0.000000
# 3 0.001664 0.001668 0.115614 0.000000 0.000000 0.000000
# 4 0.000000 0.000000 0.000000 0.065992 0.000000 0.000000
# 5 0.000000 0.000000 0.000000 0.000000 0.065994 0.000000
# 6 0.000000 0.000000 0.000000 0.000000 0.000000 0.019129
#
#
# Mechanical properties :
#
#
# Convention : Reuss Voigt Hill
#
# Bulk Modulus (GPa) = 6.97223 21.46802 14.22012
# Shear Modulus (GPa) = 14.25413 25.10691 19.68052
#
# Velocity S-wave (km/s) = 2.53629 3.36609 2.98021
# Velocity P-wave (km/s) = 3.42397 4.97954 4.27313
#
# Compressibility (1/GPa) = 0.14342624
#
# Stress axis : x y z
#
# Youngs Moduli (GPa) = 62.45392 62.44929 8.64948
#
# Poissons Ratio (x) = 0.33960 -0.01439
# Poissons Ratio (y) = 0.33962 -0.01442
# Poissons Ratio (z) = -0.10392 -0.10415
#
# Static dielectric constant tensor:
#      x y z
#    x 1.824780 0.000000 0.000000 
#    y 0.000000 1.824790 0.000000 
#    z 0.000000 0.000000 2.009770 
# 
# From -- ./inp_files/6132.got.cif
#   From: 2010.05.17/outbox.cif.g08.bks.cpg/sg126_4_cif.got.tgz:6132.got - 2010.05.20 11:58:20.
