data_PCOD9563570
_publ_section_title
;
Structure prediction by ZEFSAII (Michael W. Deem and Ramdas Pophale) SiO2 
 PCOD9563570
Probable space group: P 4/N N C
;
_chemical_formula_sum "Si O2"
_cell_formula_units_Z 72
_cell_length_a 11.718389
_cell_length_b 11.718389
_cell_length_c 27.372970
_cell_angle_alpha 90.000000
_cell_angle_beta 90.000000
_cell_angle_gamma 90.000000
_cell_volume 3758.873780
_symmetry_space_group_name_H-M "P 4/N N C"
_symmetry_group_IT_number 126
_space_group.IT_coordinate_system_code '2'
_symmetry_cell_setting 'tetragonal'
loop_
_space_group_symop_operation_xyz
x,y,z
1/2-y,x,z
1/2-x,1/2-y,z
y,1/2-x,z
x,1/2-y,1/2-z
1/2-x,y,1/2-z
y,x,1/2-z
1/2-y,1/2-x,1/2-z
-x,-y,-z
1/2+y,-x,-z
1/2+x,1/2+y,-z
-y,1/2+x,-z
-x,1/2+y,1/2+z
1/2+x,-y,1/2+z
-y,-x,1/2+z
1/2+y,1/2+x,1/2+z
loop_
_atom_site_type_symbol
_atom_site_label
_atom_site_fract_x
_atom_site_fract_y
_atom_site_fract_z
Si Si1 0.009215 0.608147 0.593945
Si Si2 0.267329 0.879874 0.917222
Si Si3 0.076040 0.165937 0.986697
Si Si4 0.334657 0.959131 0.349784
Si Si5 0.444297 0.250000 0.250000
O O1 0.964100 0.617989 0.538948
O O2 0.942046 0.534929 0.634086
O O3 0.141108 0.573610 0.591435
O O4 0.002232 0.737338 0.612641
O O5 0.250000 0.750000 0.938106
O O6 0.331057 0.863922 0.865622
O O7 0.342275 0.966928 0.949967
O O8 0.199093 0.105499 0.981557
O O9 0.279520 0.979750 0.297174
O O10 0.358524 0.358524 0.250000
#
# Coordination Sequence:
#
# PCOD9563570 Si02
#       5
#    16  16  16  16   8
#     4  11  22  37  59  89 126 162 204 252 306 361
#     4  10  25  38  55  86 126 170 200 242 306 373
#     4  11  23  38  60  88 120 171 216 251 292 355
#     4  11  22  40  62  89 123 156 200 260 313 368
#     4  11  22  38  69  94 112 147 202 263 318 374
#
# _framework density 19.154675000000001
#
# number of rings (size 3 to 8) (size 9 to 14) (size 15 to 20)
#    0.000    1.222    4.444    1.333    6.222    2.222 
#    0.000    5.000    0.000    0.000    0.000    0.000 
#    0.000    0.000    4.000    0.000    0.000    0.000 
#
# Total GULP energy -401117.675669 kJ/mol
# GULP energy per Si atom -5571.078829 kJ/mol
# Density = 1.911108 g / cm^3
# Si number density = 19.154675 Si / 1000 Ang^3
#
#
#
# Elastic Constant Matrix: (Units=GPa)
#
#
# Indices 1 2 3 4 5 6 
#
# 1 81.0928 39.7688 46.2003 0.0000 0.0000 0.0000
# 2 39.7688 81.0928 46.2003 0.0000 0.0000 0.0000
# 3 46.2003 46.2003 131.9654 0.0000 0.0000 0.0000
# 4 0.0000 0.0000 0.0000 28.5547 0.0000 0.0000
# 5 0.0000 0.0000 0.0000 0.0000 28.5547 0.0000
# 6 0.0000 0.0000 0.0000 0.0000 0.0000 9.2422
#
#
#
# Elastic Compliance Matrix: (Units=1/GPa)
#
#
# Indices 1 2 3 4 5 6 
#
# 1 0.017748 -0.006451 -0.003955 0.000000 0.000000 0.000000
# 2 -0.006451 0.017748 -0.003955 0.000000 0.000000 0.000000
# 3 -0.003955 -0.003955 0.010347 0.000000 0.000000 0.000000
# 4 0.000000 0.000000 0.000000 0.035021 0.000000 0.000000
# 5 0.000000 0.000000 0.000000 0.000000 0.035021 0.000000
# 6 0.000000 0.000000 0.000000 0.000000 0.000000 0.108200
#
#
# Mechanical properties :
#
#
# Convention : Reuss Voigt Hill
#
# Bulk Modulus (GPa) = 58.40565 62.05444 60.23005
# Shear Modulus (GPa) = 19.34127 24.06906 21.70516
#
# Velocity S-wave (km/s) = 3.18109 3.54865 3.36988
# Velocity P-wave (km/s) = 6.63703 7.01836 6.83036
#
# Compressibility (1/GPa) = 0.01712163
#
# Stress axis : x y z
#
# Youngs Moduli (GPa) = 56.34297 56.34297 96.64448
#
# Poissons Ratio (x) = 0.36345 0.38226
# Poissons Ratio (y) = 0.36345 0.38226
# Poissons Ratio (z) = 0.22285 0.22285
#
# Static dielectric constant tensor:
#      x y z
#    x 1.715720 0.000000 0.000000 
#    y 0.000000 1.715720 0.000000 
#    z 0.000000 0.000000 1.671910 
# 
# From -- ./inp_files/6152.got.cif
#   From: 2010.05.17/outbox.cif.g08.bks.cpg/sg126_4_cif.got.tgz:6152.got - 2010.05.20 11:58:20.
