data_PCOD9563739
_publ_section_title
;
Structure prediction by ZEFSAII (Michael W. Deem and Ramdas Pophale) SiO2 
 PCOD9563739
Probable space group: P 4/M B M
;
_chemical_formula_sum "Si O2"
_cell_formula_units_Z 72
_cell_length_a 23.826574
_cell_length_b 23.826574
_cell_length_c 8.607235
_cell_angle_alpha 90.000000
_cell_angle_beta 90.000000
_cell_angle_gamma 90.000000
_cell_volume 4886.375756
_symmetry_space_group_name_H-M "P 4/M B M"
_symmetry_group_IT_number 127
_symmetry_cell_setting 'tetragonal'
loop_
_space_group_symop_operation_xyz
x,y,z
-y,x,z
-x,-y,z
y,-x,z
1/2+x,1/2-y,-z
1/2-x,1/2+y,-z
1/2+y,1/2+x,-z
1/2-y,1/2-x,-z
-x,-y,-z
y,-x,-z
x,y,-z
-y,x,-z
1/2-x,1/2+y,z
1/2+x,1/2-y,z
1/2-y,1/2-x,z
1/2+y,1/2+x,z
loop_
_atom_site_type_symbol
_atom_site_label
_atom_site_fract_x
_atom_site_fract_y
_atom_site_fract_z
Si Si1 0.289977 0.306352 0.679592
Si Si2 0.545744 0.954257 0.689620
Si Si3 0.700550 0.108548 0.310019
Si Si4 0.628423 0.779539 0.815318
Si Si5 0.327771 0.016731 0.687560
O O1 0.306244 0.314782 0.500000
O O2 0.240412 0.259589 0.681692
O O3 0.258550 0.361837 0.740537
O O4 0.341302 0.278383 0.769210
O O5 0.545612 0.954388 0.500000
O O6 0.608410 0.970592 0.739775
O O7 0.500000 0.000000 0.739952
O O8 0.701352 0.109553 0.500000
O O9 0.648323 0.148323 0.263256
O O10 0.691651 0.044804 0.259579
O O11 0.670005 0.829996 0.759787
O O12 0.567664 0.789225 0.743237
O O13 0.624773 0.783331 0.000000
O O14 0.328157 0.016240 0.500000
#
# Coordination Sequence:
#
# PCOD9563739 Si02
#       5
#    16   8  16  16  16
#     4   8  14  26  44  61  77 100 133 172 215 255
#     4   9  16  24  37  59  83 111 147 179 199 228
#     4   8  14  25  42  64  85 105 134 176 215 246
#     4  10  19  29  40  56  81 110 141 177 212 244
#     4  10  17  26  42  62  84 110 142 174 207 245
#
# _framework density 14.734847
#
# number of rings (size 3 to 8) (size 9 to 14) (size 15 to 20)
#    0.000    3.000    1.111    2.667    0.000    3.556 
#    0.000    1.111    0.000    4.667    0.000    0.000 
#    0.000    0.889    0.000   10.222    0.000    4.000 
#
# Total GULP energy -400901.419589 kJ/mol
# GULP energy per Si atom -5568.075272 kJ/mol
# Density = 1.470131 g / cm^3
# Si number density = 14.734847 Si / 1000 Ang^3
#
#
#
# Elastic Constant Matrix: (Units=GPa)
#
#
# Indices 1 2 3 4 5 6 
#
# 1 95.3288 80.2720 14.6235 0.0000 0.0000 0.0000
# 2 80.2720 95.3287 14.6235 0.0000 0.0000 0.0000
# 3 14.6235 14.6235 5.4070 0.0000 0.0000 0.0000
# 4 0.0000 0.0000 0.0000 2.9035 0.0000 0.0000
# 5 0.0000 0.0000 0.0000 0.0000 2.9035 0.0000
# 6 0.0000 0.0000 0.0000 0.0000 0.0000 25.1527
#
#
#
# Elastic Compliance Matrix: (Units=1/GPa)
#
#
# Indices 1 2 3 4 5 6 
#
# 1 0.038389 -0.028026 -0.028026 0.000000 0.000000 0.000000
# 2 -0.028026 0.038389 -0.028026 0.000000 0.000000 0.000000
# 3 -0.028026 -0.028026 0.336542 0.000000 0.000000 0.000000
# 4 0.000000 0.000000 0.000000 0.344417 0.000000 0.000000
# 5 0.000000 0.000000 0.000000 0.000000 0.344407 0.000000
# 6 0.000000 0.000000 0.000000 0.000000 0.000000 0.039757
#
#
# Mechanical properties :
#
#
# Convention : Reuss Voigt Hill
#
# Bulk Modulus (GPa) = 4.07893 46.12252 25.10073
# Shear Modulus (GPa) = 3.59252 11.96164 7.77708
#
# Velocity S-wave (km/s) = 1.56314 2.85229 2.29989
# Velocity P-wave (km/s) = 2.45603 6.49746 4.91168
#
# Compressibility (1/GPa) = 0.24516212
#
# Stress axis : x y z
#
# Youngs Moduli (GPa) = 26.04911 26.04905 2.97140
#
# Poissons Ratio (x) = 0.73006 0.08328
# Poissons Ratio (y) = 0.73006 0.08328
# Poissons Ratio (z) = 0.73005 0.73006
#
# Static dielectric constant tensor:
#      x y z
#    x 1.485960 0.000000 0.000000 
#    y 0.000000 1.485960 0.000000 
#    z 0.000000 0.000000 1.493980 
# 
# From -- ./inp_files/1745.got.cif
#   From: 2010.05.17/outbox.cif.g08.bks.cpg/sg127_1_cif.got.tgz:1745.got - 2010.05.20 12:03:00.
