data_PCOD9563902
_publ_section_title
;
Structure prediction by ZEFSAII (Michael W. Deem and Ramdas Pophale) SiO2 
 PCOD9563902
Probable space group: P 4/M B M
;
_chemical_formula_sum "Si O2"
_cell_formula_units_Z 104
_cell_length_a 15.657018
_cell_length_b 15.657018
_cell_length_c 21.013627
_cell_angle_alpha 90.000000
_cell_angle_beta 90.000000
_cell_angle_gamma 90.000000
_cell_volume 5151.327019
_symmetry_space_group_name_H-M "P 4/M B M"
_symmetry_group_IT_number 127
_symmetry_cell_setting 'tetragonal'
loop_
_space_group_symop_operation_xyz
x,y,z
-y,x,z
-x,-y,z
y,-x,z
1/2+x,1/2-y,-z
1/2-x,1/2+y,-z
1/2+y,1/2+x,-z
1/2-y,1/2-x,-z
-x,-y,-z
y,-x,-z
x,y,-z
-y,x,-z
1/2-x,1/2+y,z
1/2+x,1/2-y,z
1/2-y,1/2-x,z
1/2+y,1/2+x,z
loop_
_atom_site_type_symbol
_atom_site_label
_atom_site_fract_x
_atom_site_fract_y
_atom_site_fract_z
Si Si1 0.142553 0.495455 0.000000
Si Si2 0.683033 0.675054 0.702482
Si Si3 0.875622 0.228620 0.569421
Si Si4 0.001698 0.363036 0.390821
Si Si5 0.929073 0.285742 0.124775
Si Si6 0.322669 0.961935 0.250867
Si Si7 0.572200 0.622939 0.815363
O O1 0.195855 0.512980 0.936371
O O2 0.094935 0.405066 0.000000
O O3 0.067380 0.567380 0.000000
O O4 0.736860 0.763141 0.711303
O O5 0.650323 0.672331 0.630099
O O6 0.747447 0.600143 0.723708
O O7 0.603285 0.664349 0.749182
O O8 0.872427 0.186949 0.500000
O O9 0.804789 0.304789 0.569653
O O10 0.967164 0.275779 0.578916
O O11 0.936298 0.436298 0.412795
O O12 0.096917 0.403084 0.401100
O O13 0.989950 0.350782 0.315015
O O14 0.849775 0.349775 0.122948
O O15 0.899071 0.188141 0.130208
O O16 0.981798 0.302565 0.189635
O O17 0.400711 0.900711 0.232070
O O18 0.470784 0.611691 0.819474
#
# Coordination Sequence:
#
# PCOD9563902 Si02
#       7
#     8  16  16  16  16  16  16
#     4   9  20  38  62  97 138 174 203 240 302 376
#     4  10  20  36  59  86 116 152 205 266 314 371
#     4   9  18  32  51  76 110 155 198 242 308 382
#     4   9  17  29  48  79 114 145 186 247 315 377
#     4  11  21  38  64  93 128 167 205 250 311 376
#     4  10  19  32  55  89 121 152 199 255 310 367
#     4  11  23  40  62  88 119 158 209 262 313 361
#
# _framework density 20.188973000000001
#
# number of rings (size 3 to 8) (size 9 to 14) (size 15 to 20)
#    0.000    2.077    1.538    2.308    0.000    3.077 
#    0.000    3.077    0.000    4.615    0.000    1.077 
#    0.000    0.000    0.000    0.000    0.000    0.000 
#
# Total GULP energy -580118.042617 kJ/mol
# GULP energy per Si atom -5578.058102 kJ/mol
# Density = 2.014302 g / cm^3
# Si number density = 20.188973 Si / 1000 Ang^3
#
#
#
# Elastic Constant Matrix: (Units=GPa)
#
#
# Indices 1 2 3 4 5 6 
#
# 1 80.8685 24.9220 42.7499 0.0000 0.0000 0.0000
# 2 24.9220 80.8684 42.7498 0.0000 0.0000 0.0000
# 3 42.7499 42.7498 101.7009 0.0000 0.0000 0.0000
# 4 0.0000 0.0000 0.0000 7.2746 0.0000 0.0000
# 5 0.0000 0.0000 0.0000 0.0000 7.2741 0.0000
# 6 0.0000 0.0000 0.0000 0.0000 0.0000 12.9400
#
#
#
# Elastic Compliance Matrix: (Units=1/GPa)
#
#
# Indices 1 2 3 4 5 6 
#
# 1 0.016095 -0.001779 -0.006018 0.000000 0.000000 0.000000
# 2 -0.001779 0.016095 -0.006018 0.000000 0.000000 0.000000
# 3 -0.006018 -0.006018 0.014892 0.000000 0.000000 0.000000
# 4 0.000000 0.000000 0.000000 0.137464 0.000000 0.000000
# 5 0.000000 0.000000 0.000000 0.000000 0.137473 0.000000
# 6 0.000000 0.000000 0.000000 0.000000 0.000000 0.077280
#
#
# Mechanical properties :
#
#
# Convention : Reuss Voigt Hill
#
# Bulk Modulus (GPa) = 51.40561 53.80904 52.60732
# Shear Modulus (GPa) = 11.53633 15.69882 13.61758
#
# Velocity S-wave (km/s) = 2.39303 2.79156 2.59994
# Velocity P-wave (km/s) = 5.75786 6.09106 5.92680
#
# Compressibility (1/GPa) = 0.01945313
#
# Stress axis : x y z
#
# Youngs Moduli (GPa) = 62.13023 62.13017 67.15049
#
# Poissons Ratio (x) = 0.11053 0.40410
# Poissons Ratio (y) = 0.11053 0.40410
# Poissons Ratio (z) = 0.37389 0.37389
#
# Static dielectric constant tensor:
#      x y z
#    x 1.765580 0.000000 0.000000 
#    y 0.000000 1.765580 0.000000 
#    z 0.000000 0.000000 1.697740 
# 
# From -- ./inp_files/5210.got.cif
#   From: 2010.05.17/outbox.cif.g08.bks.cpg/sg127_3_cif.got.tgz:5210.got - 2010.05.20 12:03:00.
