data_PCOD9563360
_publ_section_title
;
Structure prediction by ZEFSAII (Michael W. Deem and Ramdas Pophale) SiO2 
 PCOD9563360
Probable space group: P 4/N N C
;
_chemical_formula_sum "Si O2"
_cell_formula_units_Z 112
_cell_length_a 14.466649
_cell_length_b 14.466649
_cell_length_c 28.494731
_cell_angle_alpha 90.000000
_cell_angle_beta 90.000000
_cell_angle_gamma 90.000000
_cell_volume 5963.489382
_symmetry_space_group_name_H-M "P 4/N N C"
_symmetry_group_IT_number 126
_space_group.IT_coordinate_system_code '2'
_symmetry_cell_setting 'tetragonal'
loop_
_space_group_symop_operation_xyz
x,y,z
1/2-y,x,z
1/2-x,1/2-y,z
y,1/2-x,z
x,1/2-y,1/2-z
1/2-x,y,1/2-z
y,x,1/2-z
1/2-y,1/2-x,1/2-z
-x,-y,-z
1/2+y,-x,-z
1/2+x,1/2+y,-z
-y,1/2+x,-z
-x,1/2+y,1/2+z
1/2+x,-y,1/2+z
-y,-x,1/2+z
1/2+y,1/2+x,1/2+z
loop_
_atom_site_type_symbol
_atom_site_label
_atom_site_fract_x
_atom_site_fract_y
_atom_site_fract_z
Si Si1 0.774323 0.902927 0.048561
Si Si2 0.723181 0.024579 0.130596
Si Si3 0.554400 0.670729 0.218739
Si Si4 0.325727 0.563555 0.132343
Si Si5 0.167302 0.679779 0.685038
Si Si6 0.785394 0.900921 0.939320
Si Si7 0.029443 0.892611 0.733831
O O1 0.675558 0.851867 0.055894
O O2 0.773648 0.986961 0.084806
O O3 0.785335 0.929881 0.994067
O O4 0.633059 0.088845 0.120935
O O5 0.787206 0.088403 0.163469
O O6 0.698620 0.937883 0.164787
O O7 0.508731 0.750000 0.250000
O O8 0.641344 0.641344 0.250000
O O9 0.483540 0.586468 0.218651
O O10 0.233204 0.622260 0.141008
O O11 0.310959 0.484624 0.094467
O O12 0.339067 0.522892 0.184988
O O13 0.250000 0.750000 0.700501
O O14 0.092432 0.654591 0.725535
O O15 0.683652 0.856998 0.931604
O O16 0.930140 0.930140 0.750000
#
# Coordination Sequence:
#
# PCOD9563360 Si02
#       7
#    16  16  16  16  16  16  16
#     4   9  20  40  63  85 113 154 197 239 292 355
#     4  10  21  36  58  85 119 151 197 239 289 345
#     4  10  20  32  47  74 112 154 187 228 276 333
#     4  10  22  36  59  88 112 149 198 236 295 356
#     4  10  21  38  59  83 118 165 194 230 295 369
#     4   9  20  43  65  81 111 151 192 243 306 358
#     4  10  21  34  54  84 115 147 195 246 281 338
#
# _framework density 18.780951000000002
#
# number of rings (size 3 to 8) (size 9 to 14) (size 15 to 20)
#    0.000    2.286    1.429    1.286    4.000    4.143 
#    2.571    1.429    0.000    0.000    0.000    0.000 
#    0.000    0.000    0.000    0.000    0.000    0.000 
#
# Total GULP energy -623849.536409 kJ/mol
# GULP energy per Si atom -5570.085147 kJ/mol
# Density = 1.873821 g / cm^3
# Si number density = 18.780951 Si / 1000 Ang^3
#
#
#
# Elastic Constant Matrix: (Units=GPa)
#
#
# Indices 1 2 3 4 5 6 
#
# 1 69.1925 21.5520 57.3575 0.0000 0.0000 0.0000
# 2 21.5520 69.1925 57.3575 0.0000 0.0000 0.0000
# 3 57.3575 57.3575 130.7954 0.0000 0.0000 0.0000
# 4 0.0000 0.0000 0.0000 9.1074 0.0000 0.0000
# 5 0.0000 0.0000 0.0000 0.0000 9.1074 0.0000
# 6 0.0000 0.0000 0.0000 0.0000 0.0000 13.8485
#
#
#
# Elastic Compliance Matrix: (Units=1/GPa)
#
#
# Indices 1 2 3 4 5 6 
#
# 1 0.022860 0.001869 -0.010844 0.000000 0.000000 0.000000
# 2 0.001869 0.022860 -0.010844 0.000000 0.000000 0.000000
# 3 -0.010844 -0.010844 0.017157 0.000000 0.000000 0.000000
# 4 0.000000 0.000000 0.000000 0.109800 0.000000 0.000000
# 5 0.000000 0.000000 0.000000 0.000000 0.109800 0.000000
# 6 0.000000 0.000000 0.000000 0.000000 0.000000 0.072210
#
#
# Mechanical properties :
#
#
# Convention : Reuss Voigt Hill
#
# Bulk Modulus (GPa) = 43.03477 60.19049 51.61263
# Shear Modulus (GPa) = 12.43561 15.27357 13.85459
#
# Velocity S-wave (km/s) = 2.57600 2.85484 2.71900
# Velocity P-wave (km/s) = 5.64017 6.55630 6.11542
#
# Compressibility (1/GPa) = 0.02323703
#
# Stress axis : x y z
#
# Youngs Moduli (GPa) = 43.74522 43.74522 58.28679
#
# Poissons Ratio (x) = -0.08176 0.63208
# Poissons Ratio (y) = -0.08176 0.63208
# Poissons Ratio (z) = 0.47438 0.47438
#
# Static dielectric constant tensor:
#      x y z
#    x 1.827690 0.000000 0.000000 
#    y 0.000000 1.827690 0.000000 
#    z 0.000000 0.000000 1.642570 
# 
# From -- ./inp_files/5851.got.cif
#   From: 2010.05.17/outbox.cif.g08.bks.cpg/sg126_3_cif.got.tgz:5851.got - 2010.05.20 11:58:20.
