data_PCOD9563024
_publ_section_title
;
Structure prediction by ZEFSAII (Michael W. Deem and Ramdas Pophale) SiO2 
 PCOD9563024
Probable space group: P 4/N B M
;
_chemical_formula_sum "Si O2"
_cell_formula_units_Z 96
_cell_length_a 22.870946
_cell_length_b 22.870946
_cell_length_c 9.897881
_cell_angle_alpha 90.000000
_cell_angle_beta 90.000000
_cell_angle_gamma 90.000000
_cell_volume 5177.385285
_symmetry_space_group_name_H-M "P 4/N B M"
_symmetry_group_IT_number 125
_space_group.IT_coordinate_system_code '2'
_symmetry_cell_setting 'tetragonal'
loop_
_space_group_symop_operation_xyz
x,y,z
1/2-y,x,z
1/2-x,1/2-y,z
y,1/2-x,z
x,1/2-y,-z
1/2-x,y,-z
y,x,-z
1/2-y,1/2-x,-z
-x,-y,-z
1/2+y,-x,-z
1/2+x,1/2+y,-z
-y,1/2+x,-z
-x,1/2+y,z
1/2+x,-y,z
-y,-x,z
1/2+y,1/2+x,z
loop_
_atom_site_type_symbol
_atom_site_label
_atom_site_fract_x
_atom_site_fract_y
_atom_site_fract_z
Si Si1 0.028837 0.874241 0.280933
Si Si2 0.397720 0.099679 0.836166
Si Si3 0.416802 0.818297 0.468243
Si Si4 0.681003 0.820168 0.346286
Si Si5 0.183374 0.590246 0.960033
Si Si6 0.530866 0.374331 0.211599
O O1 0.065000 0.935001 0.275012
O O2 0.036153 0.847633 0.429780
O O3 0.063975 0.829080 0.186219
O O4 0.964641 0.882776 0.221248
O O5 0.352571 0.144250 0.767649
O O6 0.462176 0.116956 0.785042
O O7 0.397950 0.102050 0.000000
O O8 0.407916 0.750000 0.500000
O O9 0.357535 0.857535 0.481815
O O10 0.442779 0.829127 0.319623
O O11 0.670455 0.750674 0.334289
O O12 0.662973 0.837028 0.500000
O O13 0.153502 0.653502 0.968288
O O14 0.250000 0.591453 0.000000
O O15 0.148360 0.549497 0.064665
O O16 0.564772 0.435229 0.236725
#
# Coordination Sequence:
#
# PCOD9563024 Si02
#       6
#    16  16  16  16  16  16
#     4  10  22  39  59  85 121 158 196 247 300 350
#     4  12  24  39  62  94 118 158 203 240 297 367
#     4  10  22  40  61  89 124 162 204 252 303 354
#     4   9  22  45  65  84 117 155 192 241 296 351
#     4  10  20  36  57  83 118 158 200 248 301 354
#     4  10  22  39  59  85 121 158 196 247 300 350
#
# _framework density 18.542178
#
# number of rings (size 3 to 8) (size 9 to 14) (size 15 to 20)
#    0.000    1.833    1.667    2.000    2.333    4.333 
#    0.000    3.333    0.000    6.000    0.000    0.000 
#    0.000    0.000    0.000    0.000    0.000    0.000 
#
# Total GULP energy -535905.102758 kJ/mol
# GULP energy per Si atom -5582.344820 kJ/mol
# Density = 1.849998 g / cm^3
# Si number density = 18.542178 Si / 1000 Ang^3
#
#
#
# Elastic Constant Matrix: (Units=GPa)
#
#
# Indices 1 2 3 4 5 6 
#
# 1 78.6813 42.2239 9.2726 0.0000 0.0000 0.0000
# 2 42.2239 78.6834 9.2732 0.0000 0.0000 0.0000
# 3 9.2726 9.2732 58.8868 0.0000 0.0000 0.0000
# 4 0.0000 0.0000 0.0000 23.1428 0.0000 0.0000
# 5 0.0000 0.0000 0.0000 0.0000 23.1431 0.0000
# 6 0.0000 0.0000 0.0000 0.0000 0.0000 10.3408
#
#
#
# Elastic Compliance Matrix: (Units=1/GPa)
#
#
# Indices 1 2 3 4 5 6 
#
# 1 0.017952 -0.009476 -0.001335 0.000000 0.000000 0.000000
# 2 -0.009476 0.017952 -0.001335 0.000000 0.000000 0.000000
# 3 -0.001335 -0.001335 0.017402 0.000000 0.000000 0.000000
# 4 0.000000 0.000000 0.000000 0.043210 0.000000 0.000000
# 5 0.000000 0.000000 0.000000 0.000000 0.043209 0.000000
# 6 0.000000 0.000000 0.000000 0.000000 0.000000 0.096704
#
#
# Mechanical properties :
#
#
# Convention : Reuss Voigt Hill
#
# Bulk Modulus (GPa) = 34.46536 37.53233 35.99885
# Shear Modulus (GPa) = 18.49163 21.69079 20.09121
#
# Velocity S-wave (km/s) = 3.16139 3.42396 3.29529
# Velocity P-wave (km/s) = 5.65276 5.99307 5.82540
#
# Compressibility (1/GPa) = 0.02901464
#
# Stress axis : x y z
#
# Youngs Moduli (GPa) = 55.70324 55.70466 57.46441
#
# Poissons Ratio (x) = 0.52788 0.07669
# Poissons Ratio (y) = 0.52787 0.07670
# Poissons Ratio (z) = 0.07434 0.07435
#
# Static dielectric constant tensor:
#      x y z
#    x 1.623030 0.000000 0.000000 
#    y 0.000000 1.623030 0.000000 
#    z 0.000000 0.000000 1.631490 
# 
# From -- ./inp_files/2909.got.cif
#   From: 2010.05.17/outbox.cif.g08.bks.cpg/sg125_2_cif.got.tgz:2909.got - 2010.05.20 11:54:10.
