data_PCOD9563634
_publ_section_title
;
Structure prediction by ZEFSAII (Michael W. Deem and Ramdas Pophale) SiO2 
 PCOD9563634
Probable space group: P 4/N N C
;
_chemical_formula_sum "Si O2"
_cell_formula_units_Z 96
_cell_length_a 14.384488
_cell_length_b 14.384488
_cell_length_c 23.516126
_cell_angle_alpha 90.000000
_cell_angle_beta 90.000000
_cell_angle_gamma 90.000000
_cell_volume 4865.803820
_symmetry_space_group_name_H-M "P 4/N N C"
_symmetry_group_IT_number 126
_space_group.IT_coordinate_system_code '2'
_symmetry_cell_setting 'tetragonal'
loop_
_space_group_symop_operation_xyz
x,y,z
1/2-y,x,z
1/2-x,1/2-y,z
y,1/2-x,z
x,1/2-y,1/2-z
1/2-x,y,1/2-z
y,x,1/2-z
1/2-y,1/2-x,1/2-z
-x,-y,-z
1/2+y,-x,-z
1/2+x,1/2+y,-z
-y,1/2+x,-z
-x,1/2+y,1/2+z
1/2+x,-y,1/2+z
-y,-x,1/2+z
1/2+y,1/2+x,1/2+z
loop_
_atom_site_type_symbol
_atom_site_label
_atom_site_fract_x
_atom_site_fract_y
_atom_site_fract_z
Si Si1 0.086350 0.935091 0.380940
Si Si2 0.449516 0.594990 0.107034
Si Si3 0.749546 0.141593 0.317843
Si Si4 0.625455 0.155507 0.000736
Si Si5 0.108065 0.195194 0.963354
Si Si6 0.103395 0.204992 0.099471
O O1 0.096638 0.844444 0.342407
O O2 0.085840 0.896735 0.445844
O O3 0.171823 0.006984 0.373835
O O4 0.995218 0.997008 0.371274
O O5 0.404994 0.659846 0.154686
O O6 0.373714 0.572218 0.057989
O O7 0.524902 0.655758 0.072830
O O8 0.750000 0.250000 0.335472
O O9 0.750000 0.135625 0.250000
O O10 0.627095 0.266126 0.992734
O O11 0.198848 0.133879 0.950097
O O12 0.092281 0.193898 0.031138
O O13 0.191069 0.137672 0.113588
#
# Coordination Sequence:
#
# PCOD9563634 Si02
#       6
#    16  16  16  16  16  16
#     4  12  24  37  67  98 129 177 221 276 335 394
#     4  12  23  36  63  96 127 163 224 275 323 399
#     4  11  27  51  69  88 128 175 224 281 337 390
#     4  11  23  37  58  95 144 177 214 269 338 399
#     4   9  18  32  50  81 131 176 202 244 315 386
#     4   9  20  35  55  92 142 178 208 256 325 406
#
# _framework density 19.729526
#
# number of rings (size 3 to 8) (size 9 to 14) (size 15 to 20)
#    0.000    1.333    3.333    3.500    4.667    0.667 
#    0.000    0.000    0.000    0.000    0.000    1.167 
#    0.000    0.000    0.000    0.000    0.000    0.000 
#
# Total GULP energy -537131.810433 kJ/mol
# GULP energy per Si atom -5595.123025 kJ/mol
# Density = 1.968462 g / cm^3
# Si number density = 19.729526 Si / 1000 Ang^3
#
#
#
# Elastic Constant Matrix: (Units=GPa)
#
#
# Indices 1 2 3 4 5 6 
#
# 1 91.2311 53.9619 28.0808 0.0000 0.0000 0.0000
# 2 53.9619 91.2311 28.0808 0.0000 0.0000 0.0000
# 3 28.0808 28.0808 39.1221 0.0000 0.0000 0.0000
# 4 0.0000 0.0000 0.0000 12.1546 0.0000 0.0000
# 5 0.0000 0.0000 0.0000 0.0000 12.1546 0.0000
# 6 0.0000 0.0000 0.0000 0.0000 0.0000 41.4261
#
#
#
# Elastic Compliance Matrix: (Units=1/GPa)
#
#
# Indices 1 2 3 4 5 6 
#
# 1 0.018183 -0.008649 -0.006844 0.000000 0.000000 0.000000
# 2 -0.008649 0.018183 -0.006844 0.000000 0.000000 0.000000
# 3 -0.006844 -0.006844 0.035385 0.000000 0.000000 0.000000
# 4 0.000000 0.000000 0.000000 0.082274 0.000000 0.000000
# 5 0.000000 0.000000 0.000000 0.000000 0.082274 0.000000
# 6 0.000000 0.000000 0.000000 0.000000 0.000000 0.024139
#
#
# Mechanical properties :
#
#
# Convention : Reuss Voigt Hill
#
# Bulk Modulus (GPa) = 36.92780 49.09237 43.01008
# Shear Modulus (GPa) = 15.91663 20.57777 18.24720
#
# Velocity S-wave (km/s) = 2.84340 3.23304 3.04446
# Velocity P-wave (km/s) = 5.43485 6.23486 5.84855
#
# Compressibility (1/GPa) = 0.02707987
#
# Stress axis : x y z
#
# Youngs Moduli (GPa) = 54.99586 54.99586 28.26024
#
# Poissons Ratio (x) = 0.47564 0.19340
# Poissons Ratio (y) = 0.47564 0.19340
# Poissons Ratio (z) = 0.37637 0.37637
#
# Static dielectric constant tensor:
#      x y z
#    x 1.727910 0.000000 0.000000 
#    y 0.000000 1.727910 0.000000 
#    z 0.000000 0.000000 1.644510 
# 
# From -- ./inp_files/5239.got.cif
#   From: 2010.05.17/outbox.cif.g08.bks.cpg/sg126_3_cif.got.tgz:5239.got - 2010.05.20 11:58:20.
