data_PCOD9563683
_publ_section_title
;
Structure prediction by ZEFSAII (Michael W. Deem and Ramdas Pophale) SiO2 
 PCOD9563683
Probable space group: P 4/N N C
;
_chemical_formula_sum "Si O2"
_cell_formula_units_Z 40
_cell_length_a 18.269561
_cell_length_b 18.269561
_cell_length_c 4.877247
_cell_angle_alpha 90.000000
_cell_angle_beta 90.000000
_cell_angle_gamma 90.000000
_cell_volume 1627.912185
_symmetry_space_group_name_H-M "P 4/N N C"
_symmetry_group_IT_number 126
_space_group.IT_coordinate_system_code '2'
_symmetry_cell_setting 'tetragonal'
loop_
_space_group_symop_operation_xyz
x,y,z
1/2-y,x,z
1/2-x,1/2-y,z
y,1/2-x,z
x,1/2-y,1/2-z
1/2-x,y,1/2-z
y,x,1/2-z
1/2-y,1/2-x,1/2-z
-x,-y,-z
1/2+y,-x,-z
1/2+x,1/2+y,-z
-y,1/2+x,-z
-x,1/2+y,1/2+z
1/2+x,-y,1/2+z
-y,-x,1/2+z
1/2+y,1/2+x,1/2+z
loop_
_atom_site_type_symbol
_atom_site_label
_atom_site_fract_x
_atom_site_fract_y
_atom_site_fract_z
Si Si1 0.665441 0.950177 0.652603
Si Si2 0.458187 0.458187 0.750000
Si Si3 0.170602 0.892414 0.377998
O O1 0.750000 0.938450 0.750000
O O2 0.618792 0.881209 0.750000
O O3 0.628236 0.962327 0.349791
O O4 0.647178 0.026374 0.800622
O O5 0.500000 0.500000 0.500000
O O6 0.250000 0.881267 0.250000
O O7 0.162361 0.878397 0.697333
#
# Coordination Sequence:
#
# PCOD9563683 Si02
#       3
#    16   8  16
#     4  11  27  48  76 114 158 208 275 344 418 506
#     4  12  24  46  80 117 151 208 270 338 426 512
#     4  11  25  43  69 105 146 193 250 316 394 484
#
# _framework density 24.571352000000001
#
# number of rings (size 3 to 8) (size 9 to 14) (size 15 to 20)
#    0.000    0.800    2.000    3.600    5.600    4.400 
#    0.000    0.000    0.000    2.400    0.000    0.000 
#    0.000    0.000    0.000    0.000    0.000    0.000 
#
# Total GULP energy -222867.549117 kJ/mol
# GULP energy per Si atom -5571.688728 kJ/mol
# Density = 2.451543 g / cm^3
# Si number density = 24.571352 Si / 1000 Ang^3
#
#
#
# Elastic Constant Matrix: (Units=GPa)
#
#
# Indices 1 2 3 4 5 6 
#
# 1 180.8124 42.9004 42.8852 0.0000 0.0000 0.0000
# 2 42.9004 180.8122 42.8842 0.0000 0.0000 0.0000
# 3 42.8852 42.8842 173.9505 0.0000 0.0000 0.0000
# 4 0.0000 0.0000 0.0000 40.4791 0.0000 0.0000
# 5 0.0000 0.0000 0.0000 0.0000 40.4776 0.0000
# 6 0.0000 0.0000 0.0000 0.0000 0.0000 35.3288
#
#
#
# Elastic Compliance Matrix: (Units=1/GPa)
#
#
# Indices 1 2 3 4 5 6 
#
# 1 0.006094 -0.001157 -0.001217 0.000000 0.000000 0.000000
# 2 -0.001157 0.006094 -0.001217 0.000000 0.000000 0.000000
# 3 -0.001217 -0.001217 0.006349 0.000000 0.000000 0.000000
# 4 0.000000 0.000000 0.000000 0.024704 0.000000 0.000000
# 5 0.000000 0.000000 0.000000 0.000000 0.024705 0.000000
# 6 0.000000 0.000000 0.000000 0.000000 0.000000 0.028305
#
#
# Mechanical properties :
#
#
# Convention : Reuss Voigt Hill
#
# Bulk Modulus (GPa) = 88.07538 88.10165 88.08851
# Shear Modulus (GPa) = 46.63384 50.38413 48.50898
#
# Velocity S-wave (km/s) = 4.36121 4.53318 4.44803
# Velocity P-wave (km/s) = 7.82833 7.95820 7.89353
#
# Compressibility (1/GPa) = 0.01135391
#
# Stress axis : x y z
#
# Youngs Moduli (GPa) = 164.10063 164.10093 157.50889
#
# Poissons Ratio (x) = 0.18990 0.19170
# Poissons Ratio (y) = 0.18990 0.19169
# Poissons Ratio (z) = 0.19972 0.19971
#
# Static dielectric constant tensor:
#      x y z
#    x 2.055600 0.000000 0.000000 
#    y 0.000000 2.055610 0.000000 
#    z 0.000000 0.000000 2.037990 
# 
# From -- ./inp_files/177.got.cif
#   From: 2010.05.17/outbox.cif.g08.bks.cpg/sg126_1_cif.got.tgz:177.got - 2010.05.20 11:58:20.
