data_PCOD9563209
_publ_section_title
;
Structure prediction by ZEFSAII (Michael W. Deem and Ramdas Pophale) SiO2 
 PCOD9563209
Probable space group: P 4/N B M
;
_chemical_formula_sum "Si O2"
_cell_formula_units_Z 48
_cell_length_a 22.673876
_cell_length_b 22.673876
_cell_length_c 4.872462
_cell_angle_alpha 90.000000
_cell_angle_beta 90.000000
_cell_angle_gamma 90.000000
_cell_volume 2504.955385
_symmetry_space_group_name_H-M "P 4/N B M"
_symmetry_group_IT_number 125
_space_group.IT_coordinate_system_code '2'
_symmetry_cell_setting 'tetragonal'
loop_
_space_group_symop_operation_xyz
x,y,z
1/2-y,x,z
1/2-x,1/2-y,z
y,1/2-x,z
x,1/2-y,-z
1/2-x,y,-z
y,x,-z
1/2-y,1/2-x,-z
-x,-y,-z
1/2+y,-x,-z
1/2+x,1/2+y,-z
-y,1/2+x,-z
-x,1/2+y,z
1/2+x,-y,z
-y,-x,z
1/2+y,1/2+x,z
loop_
_atom_site_type_symbol
_atom_site_label
_atom_site_fract_x
_atom_site_fract_y
_atom_site_fract_z
Si Si1 0.877454 0.286654 0.243635
Si Si2 0.098585 0.000936 0.431941
Si Si3 0.181047 0.503696 0.041575
O O1 0.901484 0.250000 0.500000
O O2 0.832445 0.332445 0.367589
O O3 0.929978 0.316526 0.077514
O O4 0.847323 0.250000 0.000000
O O5 0.049773 0.049773 0.500000
O O6 0.150151 0.996322 0.662069
O O7 0.132738 0.023318 0.162000
O O8 0.060444 0.939557 0.405363
O O9 0.250000 0.483284 0.000000
#
# Coordination Sequence:
#
# PCOD9563209 Si02
#       3
#    16  16  16
#     4  11  22  34  49  69  97 139 185 229 272 311
#     4  11  22  37  59  85 114 147 184 230 280 331
#     4  11  22  37  55  79 111 145 182 223 274 335
#
# _framework density 19.162018
#
# number of rings (size 3 to 8) (size 9 to 14) (size 15 to 20)
#    0.000    1.000    0.000   10.000    0.000    4.667 
#    0.000    0.000    0.000    0.000    0.000    0.000 
#    0.000   46.667    0.000    0.000    0.000    0.000 
#
# Total GULP energy -267427.229427 kJ/mol
# GULP energy per Si atom -5571.400613 kJ/mol
# Density = 1.911840 g / cm^3
# Si number density = 19.162018 Si / 1000 Ang^3
#
#
#
# Elastic Constant Matrix: (Units=GPa)
#
#
# Indices 1 2 3 4 5 6 
#
# 1 75.6573 21.3659 4.2285 0.0000 0.0000 0.0000
# 2 21.3659 75.6573 4.2285 0.0000 0.0000 0.0000
# 3 4.2285 4.2285 75.8355 0.0000 0.0000 0.0000
# 4 0.0000 0.0000 0.0000 31.5801 0.0000 0.0000
# 5 0.0000 0.0000 0.0000 0.0000 31.5801 0.0000
# 6 0.0000 0.0000 0.0000 0.0000 0.0000 30.4167
#
#
#
# Elastic Compliance Matrix: (Units=1/GPa)
#
#
# Indices 1 2 3 4 5 6 
#
# 1 0.014388 -0.004031 -0.000578 0.000000 0.000000 0.000000
# 2 -0.004031 0.014388 -0.000578 0.000000 0.000000 0.000000
# 3 -0.000578 -0.000578 0.013251 0.000000 0.000000 0.000000
# 4 0.000000 0.000000 0.000000 0.031666 0.000000 0.000000
# 5 0.000000 0.000000 0.000000 0.000000 0.031666 0.000000
# 6 0.000000 0.000000 0.000000 0.000000 0.000000 0.032877
#
#
# Mechanical properties :
#
#
# Convention : Reuss Voigt Hill
#
# Bulk Modulus (GPa) = 31.59048 31.86623 31.72836
# Shear Modulus (GPa) = 31.41522 31.87052 31.64287
#
# Velocity S-wave (km/s) = 4.05341 4.08268 4.06807
# Velocity P-wave (km/s) = 6.19908 6.23621 6.21767
#
# Compressibility (1/GPa) = 0.03165511
#
# Stress axis : x y z
#
# Youngs Moduli (GPa) = 69.50171 69.50171 75.46687
#
# Poissons Ratio (x) = 0.28016 0.04358
# Poissons Ratio (y) = 0.28016 0.04358
# Poissons Ratio (z) = 0.04014 0.04014
#
# Static dielectric constant tensor:
#      x y z
#    x 1.748780 0.000000 0.000000 
#    y 0.000000 1.748780 0.000000 
#    z 0.000000 0.000000 1.812750 
# 
# From -- ./inp_files/650.got.cif
#   From: 2010.05.17/outbox.cif.g08.bks.cpg/sg125_1_cif.got.tgz:650.got - 2010.05.20 11:54:10.
