data_PCOD9563334
_publ_section_title
;
Structure prediction by ZEFSAII (Michael W. Deem and Ramdas Pophale) SiO2 
 PCOD9563334
Probable space group: P 4/N N C
;
_chemical_formula_sum "Si O2"
_cell_formula_units_Z 64
_cell_length_a 13.891793
_cell_length_b 13.891793
_cell_length_c 14.041459
_cell_angle_alpha 90.000000
_cell_angle_beta 90.000000
_cell_angle_gamma 90.000000
_cell_volume 2709.747616
_symmetry_space_group_name_H-M "P 4/N N C"
_symmetry_group_IT_number 126
_space_group.IT_coordinate_system_code '2'
_symmetry_cell_setting 'tetragonal'
loop_
_space_group_symop_operation_xyz
x,y,z
1/2-y,x,z
1/2-x,1/2-y,z
y,1/2-x,z
x,1/2-y,1/2-z
1/2-x,y,1/2-z
y,x,1/2-z
1/2-y,1/2-x,1/2-z
-x,-y,-z
1/2+y,-x,-z
1/2+x,1/2+y,-z
-y,1/2+x,-z
-x,1/2+y,1/2+z
1/2+x,-y,1/2+z
-y,-x,1/2+z
1/2+y,1/2+x,1/2+z
loop_
_atom_site_type_symbol
_atom_site_label
_atom_site_fract_x
_atom_site_fract_y
_atom_site_fract_z
Si Si1 0.383020 0.573113 0.677024
Si Si2 0.683895 0.607785 0.438972
Si Si3 0.979696 0.270415 0.078394
Si Si4 0.327833 0.606813 0.878966
O O1 0.370039 0.478540 0.613434
O O2 0.472995 0.641917 0.653106
O O3 0.371972 0.551510 0.788291
O O4 0.283134 0.628479 0.648344
O O5 0.794329 0.630500 0.412940
O O6 0.704851 0.571691 0.548364
O O7 0.896558 0.196883 0.107348
O O8 0.946746 0.321311 0.979664
#
# Coordination Sequence:
#
# PCOD9563334 Si02
#       4
#    16  16  16  16
#     4  10  21  36  61  95 128 165 219 265 322 395
#     4  10  23  43  67  93 132 180 221 273 340 395
#     4  11  19  36  62  91 129 165 213 267 326 385
#     4  10  19  34  59  97 129 163 204 267 329 386
#
# _framework density 23.618435999999999
#
# number of rings (size 3 to 8) (size 9 to 14) (size 15 to 20)
#    0.000    1.750    5.000    1.500    0.000    3.000 
#    0.000   20.000    0.000   28.500    0.000    7.000 
#    0.000    0.000    0.000    0.000    0.000    0.000 
#
# Total GULP energy -356612.620240 kJ/mol
# GULP energy per Si atom -5572.072191 kJ/mol
# Density = 2.356468 g / cm^3
# Si number density = 23.618436 Si / 1000 Ang^3
#
#
#
# Elastic Constant Matrix: (Units=GPa)
#
#
# Indices 1 2 3 4 5 6 
#
# 1 48.1715 -2.2253 4.3989 0.0000 0.0000 0.0000
# 2 -2.2253 48.1715 4.3989 0.0000 0.0000 0.0000
# 3 4.3989 4.3989 57.2257 0.0000 0.0000 0.0000
# 4 0.0000 0.0000 0.0000 16.1179 0.0000 0.0000
# 5 0.0000 0.0000 0.0000 0.0000 16.1179 0.0000
# 6 0.0000 0.0000 0.0000 0.0000 0.0000 -1.8546
#
#
#
# Elastic Compliance Matrix: (Units=1/GPa)
#
#
# Indices 1 2 3 4 5 6 
#
# 1 0.020966 0.001124 -0.001698 0.000000 0.000000 0.000000
# 2 0.001124 0.020966 -0.001698 0.000000 0.000000 0.000000
# 3 -0.001698 -0.001698 0.017736 0.000000 0.000000 0.000000
# 4 0.000000 0.000000 0.000000 0.062043 0.000000 0.000000
# 5 0.000000 0.000000 0.000000 0.000000 0.062043 0.000000
# 6 0.000000 0.000000 0.000000 0.000000 0.000000 -0.539214
#
#
# Mechanical properties :
#
#
# Convention : Reuss Voigt Hill
#
# Bulk Modulus (GPa) = 18.14122 18.52375 18.33249
# Shear Modulus (GPa) = -15.03576 15.87599 0.42011
#
# Velocity S-wave (km/s) = -2.52585 2.59547 0.42221
# Velocity P-wave (km/s) = 0.89941 4.10389 2.83134
#
# Compressibility (1/GPa) = 0.05512308
#
# Stress axis : x y z
#
# Youngs Moduli (GPa) = 47.69597 47.69597 56.38339
#
# Poissons Ratio (x) = -0.05359 0.09574
# Poissons Ratio (y) = -0.05359 0.09574
# Poissons Ratio (z) = 0.08099 0.08099
#
# Static dielectric constant tensor:
#      x y z
#    x 1.963010 0.000000 0.000000 
#    y 0.000000 1.963010 0.000000 
#    z 0.000000 0.000000 1.908450 
# 
# From -- ./inp_files/3448.got.cif
#   From: 2010.05.17/outbox.cif.g08.bks.cpg/sg126_2_cif.got.tgz:3448.got - 2010.05.20 11:58:20.
