data_PCOD9563043
_publ_section_title
;
Structure prediction by ZEFSAII (Michael W. Deem and Ramdas Pophale) SiO2 
 PCOD9563043
Probable space group: P 4/N B M
;
_chemical_formula_sum "Si O2"
_cell_formula_units_Z 112
_cell_length_a 14.723737
_cell_length_b 14.723737
_cell_length_c 25.985264
_cell_angle_alpha 90.000000
_cell_angle_beta 90.000000
_cell_angle_gamma 90.000000
_cell_volume 5633.304618
_symmetry_space_group_name_H-M "P 4/N B M"
_symmetry_group_IT_number 125
_space_group.IT_coordinate_system_code '2'
_symmetry_cell_setting 'tetragonal'
loop_
_space_group_symop_operation_xyz
x,y,z
1/2-y,x,z
1/2-x,1/2-y,z
y,1/2-x,z
x,1/2-y,-z
1/2-x,y,-z
y,x,-z
1/2-y,1/2-x,-z
-x,-y,-z
1/2+y,-x,-z
1/2+x,1/2+y,-z
-y,1/2+x,-z
-x,1/2+y,z
1/2+x,-y,z
-y,-x,z
1/2+y,1/2+x,z
loop_
_atom_site_type_symbol
_atom_site_label
_atom_site_fract_x
_atom_site_fract_y
_atom_site_fract_z
Si Si1 0.144185 0.141279 0.238756
Si Si2 0.613209 0.961155 0.657609
Si Si3 0.648046 0.506605 0.024821
Si Si4 0.759362 0.396239 0.201082
Si Si5 0.601396 0.257934 0.678527
Si Si6 0.524428 0.629208 0.855944
Si Si7 0.643046 0.859819 0.443809
O O1 0.250847 0.128071 0.241431
O O2 0.094445 0.104284 0.289416
O O3 0.104779 0.108331 0.184116
O O4 0.600268 0.902291 0.606731
O O5 0.539055 0.039055 0.659560
O O6 0.711185 0.012688 0.654968
O O7 0.588279 0.411722 0.021640
O O8 0.652340 0.537491 0.084519
O O9 0.750000 0.499019 0.000000
O O10 0.584458 0.584458 0.000000
O O11 0.682754 0.317247 0.200630
O O12 0.851609 0.351609 0.180879
O O13 0.771715 0.419067 0.260956
O O14 0.716567 0.474630 0.168120
O O15 0.649254 0.350747 0.658936
O O16 0.680812 0.180812 0.675594
O O17 0.455115 0.544886 0.853811
O O18 0.627415 0.751219 0.442109
O O19 0.608586 0.891415 0.500000
#
# Coordination Sequence:
#
# PCOD9563043 Si02
#       7
#    16  16  16  16  16  16  16
#     4  11  24  39  56  81 116 156 197 238 293 366
#     4  11  20  34  58  86 120 153 190 243 295 345
#     4  10  24  44  66  94 128 167 216 276 337 398
#     4   8  13  25  48  78 111 148 187 225 278 350
#     4   8  14  26  45  72 110 150 182 216 272 346
#     4  10  20  38  62  87 117 150 195 257 313 365
#     4   9  19  38  62  83 109 152 200 241 287 342
#
# _framework density 19.881758000000001
#
# number of rings (size 3 to 8) (size 9 to 14) (size 15 to 20)
#    0.000    2.429    1.429    2.571    2.000    2.286 
#    0.000    6.429    0.000    0.857    0.000    0.000 
#    0.000    0.000    0.000    0.000    0.000    0.000 
#
# Total GULP energy -624587.238413 kJ/mol
# GULP energy per Si atom -5576.671772 kJ/mol
# Density = 1.983651 g / cm^3
# Si number density = 19.881758 Si / 1000 Ang^3
#
#
#
# Elastic Constant Matrix: (Units=GPa)
#
#
# Indices 1 2 3 4 5 6 
#
# 1 72.7524 18.0727 48.6297 0.0000 0.0000 0.0000
# 2 18.0727 72.7523 48.6297 0.0000 0.0000 0.0000
# 3 48.6297 48.6297 145.9035 0.0000 0.0000 0.0000
# 4 0.0000 0.0000 0.0000 20.1996 0.0000 0.0000
# 5 0.0000 0.0000 0.0000 0.0000 20.1998 0.0000
# 6 0.0000 0.0000 0.0000 0.0000 0.0000 20.2398
#
#
#
# Elastic Compliance Matrix: (Units=1/GPa)
#
#
# Indices 1 2 3 4 5 6 
#
# 1 0.017705 -0.000584 -0.005706 0.000000 0.000000 0.000000
# 2 -0.000584 0.017705 -0.005706 0.000000 0.000000 0.000000
# 3 -0.005706 -0.005706 0.010658 0.000000 0.000000 0.000000
# 4 0.000000 0.000000 0.000000 0.049506 0.000000 0.000000
# 5 0.000000 0.000000 0.000000 0.000000 0.049505 0.000000
# 6 0.000000 0.000000 0.000000 0.000000 0.000000 0.049408
#
#
# Mechanical properties :
#
#
# Convention : Reuss Voigt Hill
#
# Bulk Modulus (GPa) = 45.30247 58.00806 51.65526
# Shear Modulus (GPa) = 22.13988 23.86624 23.00306
#
# Velocity S-wave (km/s) = 3.34065 3.46845 3.40515
# Velocity P-wave (km/s) = 6.14128 6.72905 6.44187
#
# Compressibility (1/GPa) = 0.02207385
#
# Stress axis : x y z
#
# Youngs Moduli (GPa) = 56.48261 56.48250 93.82863
#
# Poissons Ratio (x) = 0.03297 0.53542
# Poissons Ratio (y) = 0.03297 0.53542
# Poissons Ratio (z) = 0.32231 0.32231
#
# Static dielectric constant tensor:
#      x y z
#    x 1.739800 0.000000 0.000000 
#    y 0.000000 1.739800 0.000000 
#    z 0.000000 0.000000 1.703160 
# 
# From -- ./inp_files/6246.got.cif
#   From: 2010.05.17/outbox.cif.g08.bks.cpg/sg125_4_cif.got.tgz:6246.got - 2010.05.20 11:54:10.
