data_PCOD9563253
_publ_section_title
;
Structure prediction by ZEFSAII (Michael W. Deem and Ramdas Pophale) SiO2 
 PCOD9563253
Probable space group: P 4/N B M
;
_chemical_formula_sum "Si O2"
_cell_formula_units_Z 60
_cell_length_a 12.162479
_cell_length_b 12.162479
_cell_length_c 18.014470
_cell_angle_alpha 90.000000
_cell_angle_beta 90.000000
_cell_angle_gamma 90.000000
_cell_volume 2664.806605
_symmetry_space_group_name_H-M "P 4/N B M"
_symmetry_group_IT_number 125
_space_group.IT_coordinate_system_code '2'
_symmetry_cell_setting 'tetragonal'
loop_
_space_group_symop_operation_xyz
x,y,z
1/2-y,x,z
1/2-x,1/2-y,z
y,1/2-x,z
x,1/2-y,-z
1/2-x,y,-z
y,x,-z
1/2-y,1/2-x,-z
-x,-y,-z
1/2+y,-x,-z
1/2+x,1/2+y,-z
-y,1/2+x,-z
-x,1/2+y,z
1/2+x,-y,z
-y,-x,z
1/2+y,1/2+x,z
loop_
_atom_site_type_symbol
_atom_site_label
_atom_site_fract_x
_atom_site_fract_y
_atom_site_fract_z
Si Si1 0.428521 0.299630 0.639775
Si Si2 0.072853 0.750000 0.500000
Si Si3 0.250000 0.750000 0.222986
Si Si4 0.772636 0.931120 0.086552
Si Si5 0.093329 0.593329 0.184142
Si Si6 0.418758 0.918758 0.756151
O O1 0.323454 0.380154 0.643957
O O2 0.496524 0.301883 0.563349
O O3 0.508854 0.338481 0.704506
O O4 0.154276 0.845725 0.529868
O O5 0.158920 0.658920 0.248963
O O6 0.340344 0.659657 0.195153
O O7 0.660062 0.866982 0.102989
O O8 0.817544 0.032059 0.132673
O O9 0.750000 0.958727 0.000000
O O10 0.004134 0.504134 0.208788
#
# Coordination Sequence:
#
# PCOD9563253 Si02
#       6
#    16   8   4  16   8   8
#     4  11  25  43  67  99 133 176 235 294 361 436
#     4  11  24  41  70 106 134 177 228 299 372 436
#     4  12  28  42  63  95 128 170 240 280 340 434
#     4   9  20  39  64  95 132 174 220 276 343 418
#     4  12  24  42  67  99 135 184 229 292 357 431
#     4  12  26  46  67  93 138 188 234 300 362 436
#
# _framework density 22.515705000000001
#
# number of rings (size 3 to 8) (size 9 to 14) (size 15 to 20)
#    0.000    1.200    1.333    4.800    3.733    5.333 
#    0.000    2.667    0.000    0.000    0.000    0.000 
#    0.000    0.000    0.000    0.000    0.000    0.000 
#
# Total GULP energy -334151.609876 kJ/mol
# GULP energy per Si atom -5569.193498 kJ/mol
# Density = 2.246446 g / cm^3
# Si number density = 22.515705 Si / 1000 Ang^3
#
#
#
# Elastic Constant Matrix: (Units=GPa)
#
#
# Indices 1 2 3 4 5 6 
#
# 1 122.8108 99.5580 66.3532 0.0000 0.0000 0.0000
# 2 99.5580 122.8108 66.3532 0.0000 0.0000 0.0000
# 3 66.3532 66.3532 65.1795 0.0000 0.0000 0.0000
# 4 0.0000 0.0000 0.0000 -86.2623 0.0000 0.0000
# 5 0.0000 0.0000 0.0000 0.0000 -86.2623 0.0000
# 6 0.0000 0.0000 0.0000 0.0000 0.0000 32.0423
#
#
#
# Elastic Compliance Matrix: (Units=1/GPa)
#
#
# Indices 1 2 3 4 5 6 
#
# 1 0.027232 -0.015774 -0.011665 0.000000 0.000000 0.000000
# 2 -0.015774 0.027232 -0.011665 0.000000 0.000000 0.000000
# 3 -0.011665 -0.011665 0.039092 0.000000 0.000000 0.000000
# 4 0.000000 0.000000 0.000000 -0.011593 0.000000 0.000000
# 5 0.000000 0.000000 0.000000 0.000000 -0.011593 0.000000
# 6 0.000000 0.000000 0.000000 0.000000 0.000000 0.031209
#
#
# Mechanical properties :
#
#
# Convention : Reuss Voigt Hill
#
# Bulk Modulus (GPa) = 65.14800 86.14775 75.64787
# Shear Modulus (GPa) = 27.04144 -22.86069 2.09037
#
# Velocity S-wave (km/s) = 3.46931 -3.18987 0.96458
# Velocity P-wave (km/s) = 6.71159 4.97767 5.90858
#
# Compressibility (1/GPa) = 0.01534967
#
# Stress axis : x y z
#
# Youngs Moduli (GPa) = 36.72161 36.72161 25.58097
#
# Poissons Ratio (x) = 0.57923 0.29839
# Poissons Ratio (y) = 0.57923 0.29839
# Poissons Ratio (z) = 0.42834 0.42834
#
# Static dielectric constant tensor:
#      x y z
#    x 1.679410 0.000000 0.000000 
#    y 0.000000 1.679410 0.000000 
#    z 0.000000 0.000000 1.825100 
# 
# From -- ./inp_files/5771.got.cif
#   From: 2010.05.17/outbox.cif.g08.bks.cpg/sg125_3_cif.got.tgz:5771.got - 2010.05.20 11:54:10.
