data_PCOD9563748
_publ_section_title
;
Structure prediction by ZEFSAII (Michael W. Deem and Ramdas Pophale) SiO2 
 PCOD9563748
Probable space group: P 4/M B M
;
_chemical_formula_sum "Si O2"
_cell_formula_units_Z 64
_cell_length_a 18.006427
_cell_length_b 18.006427
_cell_length_c 11.815464
_cell_angle_alpha 90.000000
_cell_angle_beta 90.000000
_cell_angle_gamma 90.000000
_cell_volume 3830.944592
_symmetry_space_group_name_H-M "P 4/M B M"
_symmetry_group_IT_number 127
_symmetry_cell_setting 'tetragonal'
loop_
_space_group_symop_operation_xyz
x,y,z
-y,x,z
-x,-y,z
y,-x,z
1/2+x,1/2-y,-z
1/2-x,1/2+y,-z
1/2+y,1/2+x,-z
1/2-y,1/2-x,-z
-x,-y,-z
y,-x,-z
x,y,-z
-y,x,-z
1/2-x,1/2+y,z
1/2+x,1/2-y,z
1/2-y,1/2-x,z
1/2+y,1/2+x,z
loop_
_atom_site_type_symbol
_atom_site_label
_atom_site_fract_x
_atom_site_fract_y
_atom_site_fract_z
Si Si1 0.071765 0.695678 0.364833
Si Si2 0.180346 0.800545 0.253527
Si Si3 0.467556 0.727203 0.000000
Si Si4 0.363456 0.323717 0.000000
Si Si5 0.794083 0.579130 0.236643
O O1 0.069958 0.700301 0.500000
O O2 0.127590 0.627590 0.333666
O O3 0.106002 0.771800 0.312985
O O4 0.990254 0.684690 0.313962
O O5 0.241888 0.741888 0.292371
O O6 0.217759 0.880082 0.276800
O O7 0.170307 0.794478 0.117811
O O8 0.550607 0.696962 0.000000
O O9 0.410446 0.658134 0.000000
O O10 0.450335 0.775809 0.110963
O O11 0.858570 0.641431 0.233124
#
# Coordination Sequence:
#
# PCOD9563748 Si02
#       5
#    16  16   8   8  16
#     4  10  21  36  54  77 105 139 180 220 257 305
#     4   9  18  33  54  77 101 135 177 216 255 307
#     4  10  19  32  53  81 106 135 171 212 261 319
#     4  10  17  30  53  78 105 132 166 213 265 313
#     4  10  20  35  55  79 107 138 173 216 264 313
#
# _framework density 16.706064000000001
#
# number of rings (size 3 to 8) (size 9 to 14) (size 15 to 20)
#    0.000    2.250    2.500    0.750    0.000    5.250 
#    0.000    4.375    0.000    2.250    0.000    1.750 
#    0.000    0.000    0.000    0.000    0.000    0.000 
#
# Total GULP energy -356356.833511 kJ/mol
# GULP energy per Si atom -5568.075524 kJ/mol
# Density = 1.666804 g / cm^3
# Si number density = 16.706064 Si / 1000 Ang^3
#
#
#
# Elastic Constant Matrix: (Units=GPa)
#
#
# Indices 1 2 3 4 5 6 
#
# 1 81.7630 48.0178 31.1408 0.0000 0.0000 0.0000
# 2 48.0178 81.7630 31.1408 0.0000 0.0000 0.0000
# 3 31.1408 31.1408 56.9581 0.0000 0.0000 0.0000
# 4 0.0000 0.0000 0.0000 23.4826 0.0000 0.0000
# 5 0.0000 0.0000 0.0000 0.0000 23.4826 0.0000
# 6 0.0000 0.0000 0.0000 0.0000 0.0000 16.9508
#
#
#
# Elastic Compliance Matrix: (Units=1/GPa)
#
#
# Indices 1 2 3 4 5 6 
#
# 1 0.020040 -0.009594 -0.005711 0.000000 0.000000 0.000000
# 2 -0.009594 0.020040 -0.005711 0.000000 0.000000 0.000000
# 3 -0.005711 -0.005711 0.023802 0.000000 0.000000 0.000000
# 4 0.000000 0.000000 0.000000 0.042585 0.000000 0.000000
# 5 0.000000 0.000000 0.000000 0.000000 0.042585 0.000000
# 6 0.000000 0.000000 0.000000 0.000000 0.000000 0.058994
#
#
# Mechanical properties :
#
#
# Convention : Reuss Voigt Hill
#
# Bulk Modulus (GPa) = 45.76843 49.00920 47.38881
# Shear Modulus (GPa) = 19.42795 20.12885 19.77840
#
# Velocity S-wave (km/s) = 3.41387 3.47491 3.44453
# Velocity P-wave (km/s) = 6.55707 6.74536 6.65188
#
# Compressibility (1/GPa) = 0.02184912
#
# Stress axis : x y z
#
# Youngs Moduli (GPa) = 49.90021 49.90021 42.01366
#
# Poissons Ratio (x) = 0.47874 0.23995
# Poissons Ratio (y) = 0.47874 0.23995
# Poissons Ratio (z) = 0.28499 0.28499
#
# Static dielectric constant tensor:
#      x y z
#    x 1.567680 0.000000 0.000000 
#    y 0.000000 1.567680 0.000000 
#    z 0.000000 0.000000 1.557480 
# 
# From -- ./inp_files/3077.got.cif
#   From: 2010.05.17/outbox.cif.g08.bks.cpg/sg127_2_cif.got.tgz:3077.got - 2010.05.20 12:03:00.
