data_PCOD9563025
_publ_section_title
;
Structure prediction by ZEFSAII (Michael W. Deem and Ramdas Pophale) SiO2 
 PCOD9563025
Probable space group: P 4/N B M
;
_chemical_formula_sum "Si O2"
_cell_formula_units_Z 128
_cell_length_a 23.781779
_cell_length_b 23.781779
_cell_length_c 12.635949
_cell_angle_alpha 90.000000
_cell_angle_beta 90.000000
_cell_angle_gamma 90.000000
_cell_volume 7146.551741
_symmetry_space_group_name_H-M "P 4/N B M"
_symmetry_group_IT_number 125
_space_group.IT_coordinate_system_code '2'
_symmetry_cell_setting 'tetragonal'
loop_
_space_group_symop_operation_xyz
x,y,z
1/2-y,x,z
1/2-x,1/2-y,z
y,1/2-x,z
x,1/2-y,-z
1/2-x,y,-z
y,x,-z
1/2-y,1/2-x,-z
-x,-y,-z
1/2+y,-x,-z
1/2+x,1/2+y,-z
-y,1/2+x,-z
-x,1/2+y,z
1/2+x,-y,z
-y,-x,z
1/2+y,1/2+x,z
loop_
_atom_site_type_symbol
_atom_site_label
_atom_site_fract_x
_atom_site_fract_y
_atom_site_fract_z
Si Si1 0.395529 0.400460 0.200481
Si Si2 0.199000 0.892989 0.267825
Si Si3 0.811815 0.996642 0.875992
Si Si4 0.942101 0.349137 0.476532
Si Si5 0.315457 0.182641 0.878801
Si Si6 0.476006 0.068157 0.388237
Si Si7 0.177089 0.583006 0.292175
Si Si8 0.488064 0.182587 0.881121
O O1 0.361146 0.452854 0.151314
O O2 0.347519 0.352922 0.209048
O O3 0.424610 0.426237 0.304288
O O4 0.441172 0.365466 0.132915
O O5 0.159177 0.840824 0.238862
O O6 0.186135 0.908781 0.389673
O O7 0.265532 0.884520 0.264167
O O8 0.185170 0.947458 0.195580
O O9 0.748467 0.970702 0.862043
O O10 0.817913 0.010712 0.999596
O O11 0.906224 0.406224 0.494416
O O12 0.945124 0.320436 0.590686
O O13 0.997650 0.371274 0.417935
O O14 0.326212 0.248891 0.870820
O O15 0.333254 0.166747 0.000000
O O16 0.455146 0.044855 0.500000
O O17 0.475184 0.975184 0.651824
O O18 0.125931 0.625931 0.291038
O O19 0.170019 0.535288 0.205059
#
# Coordination Sequence:
#
# PCOD9563025 Si02
#       8
#    16  16  16  16  16  16  16  16
#     4  12  20  32  58  84 107 141 189 230 271 323
#     4  10  20  36  58  82 109 142 180 223 273 329
#     4  10  21  37  54  79 114 150 180 224 275 327
#     4   9  17  34  55  77 106 139 176 220 273 322
#     4   9  18  33  55  83 114 147 181 221 269 319
#     4  10  21  36  54  77 108 144 185 230 274 326
#     4  10  21  37  58  82 109 142 178 224 278 328
#     4  10  22  36  53  80 115 147 182 224 276 323
#
# _framework density 17.910736
#
# number of rings (size 3 to 8) (size 9 to 14) (size 15 to 20)
#    0.000    2.000    1.250    3.375    0.000    4.250 
#    0.000    0.000    0.000    6.375    0.000    4.375 
#    0.000    0.000    0.000    0.000    0.000    0.000 
#
# Total GULP energy -713098.511961 kJ/mol
# GULP energy per Si atom -5571.082125 kJ/mol
# Density = 1.786997 g / cm^3
# Si number density = 17.910736 Si / 1000 Ang^3
#
#
#
# Elastic Constant Matrix: (Units=GPa)
#
#
# Indices 1 2 3 4 5 6 
#
# 1 63.1746 33.0602 42.9456 0.0000 0.0000 0.0000
# 2 33.0602 63.1752 42.9456 0.0000 0.0000 0.0000
# 3 42.9456 42.9456 105.2288 0.0000 0.0000 0.0000
# 4 0.0000 0.0000 0.0000 24.5441 0.0000 0.0000
# 5 0.0000 0.0000 0.0000 0.0000 24.5443 0.0000
# 6 0.0000 0.0000 0.0000 0.0000 0.0000 34.8387
#
#
#
# Elastic Compliance Matrix: (Units=1/GPa)
#
#
# Indices 1 2 3 4 5 6 
#
# 1 0.024776 -0.008431 -0.006671 0.000000 0.000000 0.000000
# 2 -0.008431 0.024775 -0.006671 0.000000 0.000000 0.000000
# 3 -0.006671 -0.006671 0.014948 0.000000 0.000000 0.000000
# 4 0.000000 0.000000 0.000000 0.040743 0.000000 0.000000
# 5 0.000000 0.000000 0.000000 0.000000 0.040743 0.000000
# 6 0.000000 0.000000 0.000000 0.000000 0.000000 0.028704
#
#
# Mechanical properties :
#
#
# Convention : Reuss Voigt Hill
#
# Bulk Modulus (GPa) = 47.72100 52.16460 49.94280
# Shear Modulus (GPa) = 22.20079 24.29391 23.24735
#
# Velocity S-wave (km/s) = 3.52451 3.68691 3.60662
# Velocity P-wave (km/s) = 6.57758 6.87840 6.72967
#
# Compressibility (1/GPa) = 0.02095513
#
# Stress axis : x y z
#
# Youngs Moduli (GPa) = 40.36208 40.36258 66.89922
#
# Poissons Ratio (x) = 0.34029 0.44626
# Poissons Ratio (y) = 0.34028 0.44625
# Poissons Ratio (z) = 0.26924 0.26924
#
# Static dielectric constant tensor:
#      x y z
#    x 1.641220 0.000000 0.000000 
#    y 0.000000 1.641220 0.000000 
#    z 0.000000 0.000000 1.607690 
# 
# From -- ./inp_files/4366.got.cif
#   From: 2010.05.17/outbox.cif.g08.bks.cpg/sg125_3_cif.got.tgz:4366.got - 2010.05.20 11:54:10.
