data_PCOD9563806
_publ_section_title
;
Structure prediction by ZEFSAII (Michael W. Deem and Ramdas Pophale) SiO2 
 PCOD9563806
Probable space group: P 4/M B M
;
_chemical_formula_sum "Si O2"
_cell_formula_units_Z 96
_cell_length_a 20.641243
_cell_length_b 20.641243
_cell_length_c 13.694523
_cell_angle_alpha 90.000000
_cell_angle_beta 90.000000
_cell_angle_gamma 90.000000
_cell_volume 5834.700967
_symmetry_space_group_name_H-M "P 4/M B M"
_symmetry_group_IT_number 127
_symmetry_cell_setting 'tetragonal'
loop_
_space_group_symop_operation_xyz
x,y,z
-y,x,z
-x,-y,z
y,-x,z
1/2+x,1/2-y,-z
1/2-x,1/2+y,-z
1/2+y,1/2+x,-z
1/2-y,1/2-x,-z
-x,-y,-z
y,-x,-z
x,y,-z
-y,x,-z
1/2-x,1/2+y,z
1/2+x,1/2-y,z
1/2-y,1/2-x,z
1/2+y,1/2+x,z
loop_
_atom_site_type_symbol
_atom_site_label
_atom_site_fract_x
_atom_site_fract_y
_atom_site_fract_z
Si Si1 0.949977 0.776414 0.754584
Si Si2 0.785941 0.177748 0.883066
Si Si3 0.653765 0.043711 0.386696
Si Si4 0.034980 0.102892 0.386338
Si Si5 0.054658 0.554658 0.310258
Si Si6 0.241398 0.075905 0.886425
Si Si7 0.105609 0.605609 0.890168
O O1 0.888211 0.773884 0.825529
O O2 0.949047 0.714069 0.684531
O O3 0.948196 0.840238 0.687533
O O4 0.015824 0.775361 0.817816
O O5 0.732736 0.232736 0.858391
O O6 0.857945 0.204117 0.860698
O O7 0.782371 0.167466 0.000000
O O8 0.673098 0.044413 0.500000
O O9 0.601863 0.101863 0.371685
O O10 0.616725 0.976701 0.362056
O O11 0.041730 0.122993 0.500000
O O12 0.960875 0.079134 0.372108
O O13 0.070215 0.570215 0.198151
O O14 0.000000 0.500000 0.315665
O O15 0.317933 0.091778 0.880875
O O16 0.226864 0.060293 0.000000
O O17 0.085523 0.585523 0.000000
#
# Coordination Sequence:
#
# PCOD9563806 Si02
#       7
#    16  16  16  16   8  16   8
#     4  12  20  32  55  83 104 128 177 226 262 296
#     4  10  21  37  54  75 107 144 175 210 262 322
#     4  10  21  35  51  73 104 140 175 214 260 312
#     4   9  19  36  55  76 104 136 169 209 261 318
#     4  10  19  35  54  77 105 140 179 215 263 317
#     4  10  20  35  55  76 105 142 178 212 258 322
#     4  10  18  34  55  78 104 141 181 214 256 319
#
# _framework density 16.453285999999999
#
# number of rings (size 3 to 8) (size 9 to 14) (size 15 to 20)
#    0.000    1.833    2.500    3.250    0.000    1.167 
#    0.000    0.000    0.000    0.000    0.000    7.000 
#    0.000    0.000    0.000    0.000    0.000    0.000 
#
# Total GULP energy -535707.615679 kJ/mol
# GULP energy per Si atom -5580.287663 kJ/mol
# Density = 1.641584 g / cm^3
# Si number density = 16.453286 Si / 1000 Ang^3
#
#
#
# Elastic Constant Matrix: (Units=GPa)
#
#
# Indices 1 2 3 4 5 6 
#
# 1 93.3004 38.7226 58.5862 0.0000 0.0000 0.0000
# 2 38.7226 93.3004 58.5862 0.0000 0.0000 0.0000
# 3 58.5862 58.5862 89.0588 0.0000 0.0000 0.0000
# 4 0.0000 0.0000 0.0000 31.7084 0.0000 0.0000
# 5 0.0000 0.0000 0.0000 0.0000 31.7084 0.0000
# 6 0.0000 0.0000 0.0000 0.0000 0.0000 5.3823
#
#
#
# Elastic Compliance Matrix: (Units=1/GPa)
#
#
# Indices 1 2 3 4 5 6 
#
# 1 0.018262 -0.000061 -0.011973 0.000000 0.000000 0.000000
# 2 -0.000061 0.018262 -0.011973 0.000000 0.000000 0.000000
# 3 -0.011973 -0.011973 0.026981 0.000000 0.000000 0.000000
# 4 0.000000 0.000000 0.000000 0.031537 0.000000 0.000000
# 5 0.000000 0.000000 0.000000 0.000000 0.031537 0.000000
# 6 0.000000 0.000000 0.000000 0.000000 0.000000 0.185793
#
#
# Mechanical properties :
#
#
# Convention : Reuss Voigt Hill
#
# Bulk Modulus (GPa) = 64.55667 65.27218 64.91442
# Shear Modulus (GPa) = 13.67799 21.74412 17.71106
#
# Velocity S-wave (km/s) = 2.88640 3.63928 3.28448
# Velocity P-wave (km/s) = 7.10140 7.57737 7.34324
#
# Compressibility (1/GPa) = 0.01549027
#
# Stress axis : x y z
#
# Youngs Moduli (GPa) = 54.75952 54.75952 37.06258
#
# Poissons Ratio (x) = 0.00333 0.44376
# Poissons Ratio (y) = 0.00333 0.44376
# Poissons Ratio (z) = 0.65565 0.65565
#
# Static dielectric constant tensor:
#      x y z
#    x 1.531460 0.000000 0.000000 
#    y 0.000000 1.531460 0.000000 
#    z 0.000000 0.000000 1.534390 
# 
# From -- ./inp_files/3593.got.cif
#   From: 2010.05.17/outbox.cif.g08.bks.cpg/sg127_2_cif.got.tgz:3593.got - 2010.05.20 12:03:00.
