data_PCOD9563459
_publ_section_title
;
Structure prediction by ZEFSAII (Michael W. Deem and Ramdas Pophale) SiO2 
 PCOD9563459
Probable space group: P 4/N N C
;
_chemical_formula_sum "Si O2"
_cell_formula_units_Z 80
_cell_length_a 15.563468
_cell_length_b 15.563468
_cell_length_c 13.470080
_cell_angle_alpha 90.000000
_cell_angle_beta 90.000000
_cell_angle_gamma 90.000000
_cell_volume 3262.743470
_symmetry_space_group_name_H-M "P 4/N N C"
_symmetry_group_IT_number 126
_space_group.IT_coordinate_system_code '2'
_symmetry_cell_setting 'tetragonal'
loop_
_space_group_symop_operation_xyz
x,y,z
1/2-y,x,z
1/2-x,1/2-y,z
y,1/2-x,z
x,1/2-y,1/2-z
1/2-x,y,1/2-z
y,x,1/2-z
1/2-y,1/2-x,1/2-z
-x,-y,-z
1/2+y,-x,-z
1/2+x,1/2+y,-z
-y,1/2+x,-z
-x,1/2+y,1/2+z
1/2+x,-y,1/2+z
-y,-x,1/2+z
1/2+y,1/2+x,1/2+z
loop_
_atom_site_type_symbol
_atom_site_label
_atom_site_fract_x
_atom_site_fract_y
_atom_site_fract_z
Si Si1 0.944595 0.079039 0.370805
Si Si2 0.759044 0.076336 0.361362
Si Si3 0.065822 0.577919 0.636480
Si Si4 0.448444 0.247181 0.364706
Si Si5 0.732154 0.615179 0.417080
O O1 0.849313 0.104699 0.409831
O O2 0.926864 0.064768 0.254316
O O3 0.006573 0.160859 0.380026
O O4 0.998998 0.994027 0.400365
O O5 0.750000 0.113159 0.250000
O O6 0.662734 0.083343 0.404345
O O7 0.776042 0.974949 0.365097
O O8 0.015504 0.668124 0.628342
O O9 0.413729 0.250000 0.250000
O O10 0.391455 0.232167 0.462327
O O11 0.821693 0.656881 0.387227
#
# Coordination Sequence:
#
# PCOD9563459 Si02
#       5
#    16  16  16  16  16
#     4   9  18  34  58  85 113 153 196 230 284 348
#     4  10  21  38  59  84 117 151 189 240 287 338
#     4   9  18  34  58  85 113 153 196 230 284 348
#     4  10  21  38  59  84 117 151 189 240 287 338
#     4  11  24  38  56  85 114 150 200 239 286 351
#
# _framework density 24.519241999999998
#
# number of rings (size 3 to 8) (size 9 to 14) (size 15 to 20)
#    0.000    2.200    0.000    2.400    0.000    7.200 
#    0.000   10.000    0.000    2.400    0.000    0.000 
#    0.000    0.000    0.000    0.000    0.000    0.000 
#
# Total GULP energy -446407.763483 kJ/mol
# GULP energy per Si atom -5580.097044 kJ/mol
# Density = 2.446343 g / cm^3
# Si number density = 24.519242 Si / 1000 Ang^3
#
#
#
# Elastic Constant Matrix: (Units=GPa)
#
#
# Indices 1 2 3 4 5 6 
#
# 1 89.3395 14.5075 -7.7341 0.0000 0.0000 0.0000
# 2 14.5075 89.3395 -7.7341 0.0000 0.0000 0.0000
# 3 -7.7341 -7.7341 99.9219 0.0000 0.0000 0.0000
# 4 0.0000 0.0000 0.0000 -5.9137 0.0000 0.0000
# 5 0.0000 0.0000 0.0000 0.0000 -5.9137 0.0000
# 6 0.0000 0.0000 0.0000 0.0000 0.0000 60.1634
#
#
#
# Elastic Compliance Matrix: (Units=1/GPa)
#
#
# Indices 1 2 3 4 5 6 
#
# 1 0.011553 -0.001811 0.000754 0.000000 0.000000 0.000000
# 2 -0.001811 0.011553 0.000754 0.000000 0.000000 0.000000
# 3 0.000754 0.000754 0.010125 0.000000 0.000000 0.000000
# 4 0.000000 0.000000 0.000000 -0.169099 0.000000 0.000000
# 5 0.000000 0.000000 0.000000 0.000000 -0.169099 0.000000
# 6 0.000000 0.000000 0.000000 0.000000 0.000000 0.016621
#
#
# Mechanical properties :
#
#
# Convention : Reuss Voigt Hill
#
# Bulk Modulus (GPa) = 30.65188 30.74215 30.69701
# Shear Modulus (GPa) = -18.05921 28.30464 5.12271
#
# Velocity S-wave (km/s) = -2.71686 3.40131 1.44700
# Velocity P-wave (km/s) = 1.63907 5.29060 3.91644
#
# Compressibility (1/GPa) = 0.03262443
#
# Stress axis : x y z
#
# Youngs Moduli (GPa) = 86.56087 86.56087 98.76984
#
# Poissons Ratio (x) = 0.15674 -0.07448
# Poissons Ratio (y) = 0.15674 -0.07448
# Poissons Ratio (z) = -0.06527 -0.06527
#
# Static dielectric constant tensor:
#      x y z
#    x 1.933370 0.000000 0.000000 
#    y 0.000000 1.933370 0.000000 
#    z 0.000000 0.000000 1.914000 
# 
# From -- ./inp_files/3677.got.cif
#   From: 2010.05.17/outbox.cif.g08.bks.cpg/sg126_2_cif.got.tgz:3677.got - 2010.05.20 11:58:20.
