data_PCOD9563052
_publ_section_title
;
Structure prediction by ZEFSAII (Michael W. Deem and Ramdas Pophale) SiO2 
 PCOD9563052
Probable space group: P 4/N B M
;
_chemical_formula_sum "Si O2"
_cell_formula_units_Z 64
_cell_length_a 13.790618
_cell_length_b 13.790618
_cell_length_c 19.055242
_cell_angle_alpha 90.000000
_cell_angle_beta 90.000000
_cell_angle_gamma 90.000000
_cell_volume 3623.947738
_symmetry_space_group_name_H-M "P 4/N B M"
_symmetry_group_IT_number 125
_space_group.IT_coordinate_system_code '2'
_symmetry_cell_setting 'tetragonal'
loop_
_space_group_symop_operation_xyz
x,y,z
1/2-y,x,z
1/2-x,1/2-y,z
y,1/2-x,z
x,1/2-y,-z
1/2-x,y,-z
y,x,-z
1/2-y,1/2-x,-z
-x,-y,-z
1/2+y,-x,-z
1/2+x,1/2+y,-z
-y,1/2+x,-z
-x,1/2+y,z
1/2+x,-y,z
-y,-x,z
1/2+y,1/2+x,z
loop_
_atom_site_type_symbol
_atom_site_label
_atom_site_fract_x
_atom_site_fract_y
_atom_site_fract_z
Si Si1 0.867632 0.976593 0.219315
Si Si2 0.495760 0.832773 0.715112
Si Si3 0.361026 0.128911 0.076953
Si Si4 0.254441 0.588345 0.577844
O O1 0.895471 0.930208 0.144223
O O2 0.911648 0.902323 0.276581
O O3 0.754151 0.992044 0.229871
O O4 0.922376 0.077625 0.227564
O O5 0.402480 0.902480 0.727717
O O6 0.479959 0.780280 0.640518
O O7 0.380670 0.243974 0.080317
O O8 0.399958 0.100043 0.000000
O O9 0.250000 0.543602 0.500000
O O10 0.357519 0.642481 0.590590
O O11 0.175047 0.675047 0.575295
#
# Coordination Sequence:
#
# PCOD9563052 Si02
#       4
#    16  16  16  16
#     4  11  21  33  54  80 105 141 175 210 270 316
#     4  10  21  35  51  78 110 135 176 224 259 314
#     4   9  17  32  54  76 101 135 176 215 258 304
#     4   8  14  28  51  74 100 140 181 215 257 307
#
# _framework density 17.660299999999999
#
# number of rings (size 3 to 8) (size 9 to 14) (size 15 to 20)
#    0.000    2.500    2.500    2.250    0.000    2.500 
#    0.000    1.250    0.000    6.000    0.000    1.750 
#    0.000    0.000    0.000    0.000    0.000    0.000 
#
# Total GULP energy -356287.157839 kJ/mol
# GULP energy per Si atom -5566.986841 kJ/mol
# Density = 1.762010 g / cm^3
# Si number density = 17.660300 Si / 1000 Ang^3
#
#
#
# Elastic Constant Matrix: (Units=GPa)
#
#
# Indices 1 2 3 4 5 6 
#
# 1 56.8929 26.6881 18.1730 0.0000 0.0000 0.0000
# 2 26.6881 56.8931 18.1730 0.0000 0.0000 0.0000
# 3 18.1730 18.1730 108.5362 0.0000 0.0000 0.0000
# 4 0.0000 0.0000 0.0000 21.2362 0.0000 0.0000
# 5 0.0000 0.0000 0.0000 0.0000 21.2360 0.0000
# 6 0.0000 0.0000 0.0000 0.0000 0.0000 8.3468
#
#
#
# Elastic Compliance Matrix: (Units=1/GPa)
#
#
# Indices 1 2 3 4 5 6 
#
# 1 0.023006 -0.010102 -0.002161 0.000000 0.000000 0.000000
# 2 -0.010102 0.023006 -0.002161 0.000000 0.000000 0.000000
# 3 -0.002161 -0.002161 0.009937 0.000000 0.000000 0.000000
# 4 0.000000 0.000000 0.000000 0.047089 0.000000 0.000000
# 5 0.000000 0.000000 0.000000 0.000000 0.047090 0.000000
# 6 0.000000 0.000000 0.000000 0.000000 0.000000 0.119807
#
#
# Mechanical properties :
#
#
# Convention : Reuss Voigt Hill
#
# Bulk Modulus (GPa) = 36.89685 38.71006 37.80346
# Shear Modulus (GPa) = 16.24356 20.78301 18.51329
#
# Velocity S-wave (km/s) = 3.03608 3.43420 3.24126
# Velocity P-wave (km/s) = 5.76439 6.13937 5.95483
#
# Compressibility (1/GPa) = 0.02710258
#
# Stress axis : x y z
#
# Youngs Moduli (GPa) = 43.46762 43.46777 100.63346
#
# Poissons Ratio (x) = 0.43909 0.21743
# Poissons Ratio (y) = 0.43909 0.21743
# Poissons Ratio (z) = 0.09392 0.09392
#
# Static dielectric constant tensor:
#      x y z
#    x 1.586280 0.000000 0.000000 
#    y 0.000000 1.586280 0.000000 
#    z 0.000000 0.000000 1.665120 
# 
# From -- ./inp_files/5262.got.cif
#   From: 2010.05.17/outbox.cif.g08.bks.cpg/sg125_3_cif.got.tgz:5262.got - 2010.05.20 11:54:10.
