data_PCOD9563905
_publ_section_title
;
Structure prediction by ZEFSAII (Michael W. Deem and Ramdas Pophale) SiO2 
 PCOD9563905
Probable space group: P 4/M B M
;
_chemical_formula_sum "Si O2"
_cell_formula_units_Z 128
_cell_length_a 23.660949
_cell_length_b 23.660949
_cell_length_c 14.238072
_cell_angle_alpha 90.000000
_cell_angle_beta 90.000000
_cell_angle_gamma 90.000000
_cell_volume 7971.049455
_symmetry_space_group_name_H-M "P 4/M B M"
_symmetry_group_IT_number 127
_symmetry_cell_setting 'tetragonal'
loop_
_space_group_symop_operation_xyz
x,y,z
-y,x,z
-x,-y,z
y,-x,z
1/2+x,1/2-y,-z
1/2-x,1/2+y,-z
1/2+y,1/2+x,-z
1/2-y,1/2-x,-z
-x,-y,-z
y,-x,-z
x,y,-z
-y,x,-z
1/2-x,1/2+y,z
1/2+x,1/2-y,z
1/2-y,1/2-x,z
1/2+y,1/2+x,z
loop_
_atom_site_type_symbol
_atom_site_label
_atom_site_fract_x
_atom_site_fract_y
_atom_site_fract_z
Si Si1 0.133825 0.269437 0.106567
Si Si2 0.116948 0.712876 0.280221
Si Si3 0.446699 0.851226 0.214802
Si Si4 0.194269 0.209865 0.740216
Si Si5 0.060250 0.655406 0.106736
Si Si6 0.920329 0.043620 0.385700
Si Si7 0.296044 0.001991 0.390475
Si Si8 0.698483 0.589804 0.389586
O O1 0.181467 0.318534 0.101702
O O2 0.085202 0.296280 0.171983
O O3 0.163570 0.217297 0.159243
O O4 0.115185 0.257789 0.000000
O O5 0.161802 0.661802 0.298710
O O6 0.152675 0.770521 0.275277
O O7 0.087642 0.699428 0.180009
O O8 0.066107 0.713342 0.355220
O O9 0.402058 0.902058 0.216377
O O10 0.499318 0.861886 0.146155
O O11 0.472265 0.839023 0.317719
O O12 0.239790 0.260211 0.732836
O O13 0.145087 0.218413 0.664607
O O14 0.101605 0.601605 0.107701
O O15 0.056642 0.676540 0.000000
O O16 0.919027 0.043768 0.500000
O O17 0.863391 0.072776 0.352998
O O18 0.978120 0.074390 0.357209
O O19 0.313030 0.000851 0.500000
O O20 0.239660 0.963927 0.380869
O O21 0.694751 0.603050 0.500000
#
# Coordination Sequence:
#
# PCOD9563905 Si02
#       8
#    16  16  16  16  16  16  16  16
#     4   9  17  30  49  72  98 129 163 202 252 307
#     4   9  20  36  53  73 101 136 173 214 258 309
#     4  10  19  33  51  73 103 135 169 210 258 308
#     4  10  20  34  50  73 102 132 168 210 253 302
#     4   9  18  33  53  77 103 131 165 208 259 310
#     4   8  15  28  45  66  92 121 154 195 244 294
#     4  10  21  35  51  72 100 137 177 216 261 308
#     4  10  20  31  47  71  98 131 168 210 255 299
#
# _framework density 16.058111
#
# number of rings (size 3 to 8) (size 9 to 14) (size 15 to 20)
#    0.000    2.625    1.250    0.750    1.750    2.750 
#    0.000    5.625    0.000    0.000    0.000    3.500 
#    0.000    0.000    0.000    1.375    0.000    0.125 
#
# Total GULP energy -712807.388993 kJ/mol
# GULP energy per Si atom -5568.807727 kJ/mol
# Density = 1.602156 g / cm^3
# Si number density = 16.058111 Si / 1000 Ang^3
#
#
#
# Elastic Constant Matrix: (Units=GPa)
#
#
# Indices 1 2 3 4 5 6 
#
# 1 53.7254 22.3808 34.9545 0.0000 0.0000 0.0000
# 2 22.3808 53.7254 34.9545 0.0000 0.0000 0.0000
# 3 34.9545 34.9545 97.6791 0.0000 0.0000 0.0000
# 4 0.0000 0.0000 0.0000 13.9042 0.0000 0.0000
# 5 0.0000 0.0000 0.0000 0.0000 13.9042 0.0000
# 6 0.0000 0.0000 0.0000 0.0000 0.0000 13.8523
#
#
#
# Elastic Compliance Matrix: (Units=1/GPa)
#
#
# Indices 1 2 3 4 5 6 
#
# 1 0.025739 -0.006165 -0.007004 0.000000 0.000000 0.000000
# 2 -0.006165 0.025739 -0.007004 0.000000 0.000000 0.000000
# 3 -0.007004 -0.007004 0.015251 0.000000 0.000000 0.000000
# 4 0.000000 0.000000 0.000000 0.071921 0.000000 0.000000
# 5 0.000000 0.000000 0.000000 0.000000 0.071921 0.000000
# 6 0.000000 0.000000 0.000000 0.000000 0.000000 0.072190
#
#
# Mechanical properties :
#
#
# Convention : Reuss Voigt Hill
#
# Bulk Modulus (GPa) = 37.90722 43.30105 40.60414
# Shear Modulus (GPa) = 15.06477 15.85481 15.45979
#
# Velocity S-wave (km/s) = 3.06623 3.14560 3.10617
# Velocity P-wave (km/s) = 6.01608 6.34168 6.18102
#
# Compressibility (1/GPa) = 0.02638020
#
# Stress axis : x y z
#
# Youngs Moduli (GPa) = 38.85223 38.85223 65.57082
#
# Poissons Ratio (x) = 0.23952 0.45929
# Poissons Ratio (y) = 0.23952 0.45929
# Poissons Ratio (z) = 0.27214 0.27214
#
# Static dielectric constant tensor:
#      x y z
#    x 1.533100 0.000000 0.000000 
#    y 0.000000 1.533100 0.000000 
#    z 0.000000 0.000000 1.539380 
# 
# From -- ./inp_files/3885.got.cif
#   From: 2010.05.17/outbox.cif.g08.bks.cpg/sg127_2_cif.got.tgz:3885.got - 2010.05.20 12:03:00.
