data_PCOD9563258
_publ_section_title
;
Structure prediction by ZEFSAII (Michael W. Deem and Ramdas Pophale) SiO2 
 PCOD9563258
Probable space group: P 4/N B M
;
_chemical_formula_sum "Si O2"
_cell_formula_units_Z 56
_cell_length_a 11.333811
_cell_length_b 11.333811
_cell_length_c 22.663042
_cell_angle_alpha 90.000000
_cell_angle_beta 90.000000
_cell_angle_gamma 90.000000
_cell_volume 2911.187220
_symmetry_space_group_name_H-M "P 4/N B M"
_symmetry_group_IT_number 125
_space_group.IT_coordinate_system_code '2'
_symmetry_cell_setting 'tetragonal'
loop_
_space_group_symop_operation_xyz
x,y,z
1/2-y,x,z
1/2-x,1/2-y,z
y,1/2-x,z
x,1/2-y,-z
1/2-x,y,-z
y,x,-z
1/2-y,1/2-x,-z
-x,-y,-z
1/2+y,-x,-z
1/2+x,1/2+y,-z
-y,1/2+x,-z
-x,1/2+y,z
1/2+x,-y,z
-y,-x,z
1/2+y,1/2+x,z
loop_
_atom_site_type_symbol
_atom_site_label
_atom_site_fract_x
_atom_site_fract_y
_atom_site_fract_z
Si Si1 0.151584 0.848417 0.151655
Si Si2 0.349286 0.849286 0.715554
Si Si3 0.737276 0.551608 0.933497
Si Si4 0.549766 0.750000 0.500000
Si Si5 0.268206 0.449184 0.371266
O O1 0.250000 0.750000 0.157893
O O2 0.115067 0.884934 0.217872
O O3 0.046407 0.789706 0.114454
O O4 0.250000 0.750000 0.718526
O O5 0.457711 0.794051 0.679266
O O6 0.855416 0.629601 0.927874
O O7 0.750000 0.501364 0.000000
O O8 0.637135 0.637135 0.500000
O O9 0.489939 0.760509 0.563735
O O10 0.147786 0.373322 0.367558
#
# Coordination Sequence:
#
# PCOD9563258 Si02
#       5
#     8   8  16   8  16
#     4  11  26  39  59  87 123 164 200 241 296 356
#     4  11  26  42  52  85 129 157 199 252 291 350
#     4   9  21  41  65  94 122 150 195 250 296 349
#     4   7  12  30  59  88 110 138 195 251 296 354
#     4   9  19  39  65  86 113 158 202 246 304 360
#
# _framework density 19.236139000000001
#
# number of rings (size 3 to 8) (size 9 to 14) (size 15 to 20)
#    0.000    2.714    0.000    2.571    6.000    3.429 
#    2.571    5.000    0.000    0.000    0.000    0.000 
#    0.000    0.000    0.000    0.000    0.000    0.000 
#
# Total GULP energy -312043.104161 kJ/mol
# GULP energy per Si atom -5572.198289 kJ/mol
# Density = 1.919236 g / cm^3
# Si number density = 19.236139 Si / 1000 Ang^3
#
#
#
# Elastic Constant Matrix: (Units=GPa)
#
#
# Indices 1 2 3 4 5 6 
#
# 1 -14.6696 98.6595 68.0347 0.0000 0.0000 0.0000
# 2 98.6595 -14.6696 68.0347 0.0000 0.0000 0.0000
# 3 68.0347 68.0347 213.6605 0.0000 0.0000 0.0000
# 4 0.0000 0.0000 0.0000 7.0721 0.0000 0.0000
# 5 0.0000 0.0000 0.0000 0.0000 7.0721 0.0000
# 6 0.0000 0.0000 0.0000 0.0000 0.0000 11.3882
#
#
#
# Elastic Compliance Matrix: (Units=1/GPa)
#
#
# Indices 1 2 3 4 5 6 
#
# 1 0.007885 0.016708 -0.007831 0.000000 0.000000 0.000000
# 2 0.016708 0.007885 -0.007831 0.000000 0.000000 0.000000
# 3 -0.007831 -0.007831 0.009667 0.000000 0.000000 0.000000
# 4 0.000000 0.000000 0.000000 0.141400 0.000000 0.000000
# 5 0.000000 0.000000 0.000000 0.000000 0.141400 0.000000
# 6 0.000000 0.000000 0.000000 0.000000 0.000000 0.087810
#
#
# Mechanical properties :
#
#
# Convention : Reuss Voigt Hill
#
# Bulk Modulus (GPa) = 36.32484 72.64212 54.48348
# Shear Modulus (GPa) = 12.40295 1.74601 7.07448
#
# Velocity S-wave (km/s) = 2.54199 0.95375 1.91981
# Velocity P-wave (km/s) = 5.24788 6.24966 5.77055
#
# Compressibility (1/GPa) = 0.02752937
#
# Stress axis : x y z
#
# Youngs Moduli (GPa) = 126.83084 126.83084 103.43975
#
# Poissons Ratio (x) = -2.11914 0.81003
# Poissons Ratio (y) = -2.11914 0.81003
# Poissons Ratio (z) = 0.99321 0.99321
#
# Static dielectric constant tensor:
#      x y z
#    x 1.663400 0.000000 0.000000 
#    y 0.000000 1.663400 0.000000 
#    z 0.000000 0.000000 1.708350 
# 
# From -- ./inp_files/5691.got.cif
#   From: 2010.05.17/outbox.cif.g08.bks.cpg/sg125_3_cif.got.tgz:5691.got - 2010.05.20 11:54:10.
