data_PCOD9563417
_publ_section_title
;
Structure prediction by ZEFSAII (Michael W. Deem and Ramdas Pophale) SiO2 
 PCOD9563417
Probable space group: P 4/N N C
;
_chemical_formula_sum "Si O2"
_cell_formula_units_Z 96
_cell_length_a 23.866782
_cell_length_b 23.866782
_cell_length_c 8.903587
_cell_angle_alpha 90.000000
_cell_angle_beta 90.000000
_cell_angle_gamma 90.000000
_cell_volume 5071.690458
_symmetry_space_group_name_H-M "P 4/N N C"
_symmetry_group_IT_number 126
_space_group.IT_coordinate_system_code '2'
_symmetry_cell_setting 'tetragonal'
loop_
_space_group_symop_operation_xyz
x,y,z
1/2-y,x,z
1/2-x,1/2-y,z
y,1/2-x,z
x,1/2-y,1/2-z
1/2-x,y,1/2-z
y,x,1/2-z
1/2-y,1/2-x,1/2-z
-x,-y,-z
1/2+y,-x,-z
1/2+x,1/2+y,-z
-y,1/2+x,-z
-x,1/2+y,1/2+z
1/2+x,-y,1/2+z
-y,-x,1/2+z
1/2+y,1/2+x,1/2+z
loop_
_atom_site_type_symbol
_atom_site_label
_atom_site_fract_x
_atom_site_fract_y
_atom_site_fract_z
Si Si1 0.554205 0.529153 0.924588
Si Si2 0.402934 0.599073 0.787898
Si Si3 0.242897 0.033365 0.570686
Si Si4 0.342601 0.249790 0.431223
Si Si5 0.117292 0.505838 0.954335
Si Si6 0.162080 0.949857 0.033721
O O1 0.543304 0.543304 0.750000
O O2 0.500000 0.500000 0.000000
O O3 0.553012 0.586365 0.018821
O O4 0.609289 0.492886 0.949761
O O5 0.403560 0.542103 0.688023
O O6 0.348496 0.589769 0.889919
O O7 0.410128 0.651940 0.677876
O O8 0.453927 0.604519 0.904086
O O9 0.250000 0.035752 0.750000
O O10 0.249023 0.095989 0.504169
O O11 0.181925 0.007376 0.548249
O O12 0.285572 0.989864 0.491512
O O13 0.304596 0.304319 0.470573
O O14 0.348889 0.250000 0.250000
#
# Coordination Sequence:
#
# PCOD9563417 Si02
#       6
#    16  16  16  16  16  16
#     4  12  20  34  58  88 117 162 199 246 304 381
#     4  10  20  39  62  84 116 163 196 246 308 385
#     4  12  27  41  57  94 132 163 208 269 316 370
#     4   9  22  46  68  84 112 164 225 273 312 357
#     4  11  22  38  59  88 124 159 205 248 309 372
#     4  11  22  38  59  88 124 159 205 248 309 372
#
# _framework density 18.928599999999999
#
# number of rings (size 3 to 8) (size 9 to 14) (size 15 to 20)
#    0.000    1.167    6.667    0.500    4.667    0.667 
#    0.000    0.833    0.000    0.000    0.000    0.000 
#    0.000   46.667    0.000    0.000    0.000    0.000 
#
# Total GULP energy -535094.683996 kJ/mol
# GULP energy per Si atom -5573.902958 kJ/mol
# Density = 1.888552 g / cm^3
# Si number density = 18.928600 Si / 1000 Ang^3
#
#
#
# Elastic Constant Matrix: (Units=GPa)
#
#
# Indices 1 2 3 4 5 6 
#
# 1 107.9247 60.8230 30.7021 0.0000 0.0000 0.0000
# 2 60.8230 107.9247 30.7021 0.0000 0.0000 0.0000
# 3 30.7021 30.7021 89.6023 0.0000 0.0000 0.0000
# 4 0.0000 0.0000 0.0000 19.8883 0.0000 0.0000
# 5 0.0000 0.0000 0.0000 0.0000 19.8883 0.0000
# 6 0.0000 0.0000 0.0000 0.0000 0.0000 31.3968
#
#
#
# Elastic Compliance Matrix: (Units=1/GPa)
#
#
# Indices 1 2 3 4 5 6 
#
# 1 0.014000 -0.007230 -0.002320 0.000000 0.000000 0.000000
# 2 -0.007230 0.014000 -0.002320 0.000000 0.000000 0.000000
# 3 -0.002320 -0.002320 0.012750 0.000000 0.000000 0.000000
# 4 0.000000 0.000000 0.000000 0.050281 0.000000 0.000000
# 5 0.000000 0.000000 0.000000 0.000000 0.050281 0.000000
# 6 0.000000 0.000000 0.000000 0.000000 0.000000 0.031850
#
#
# Mechanical properties :
#
#
# Convention : Reuss Voigt Hill
#
# Bulk Modulus (GPa) = 58.78439 61.10069 59.94254
# Shear Modulus (GPa) = 24.68248 26.44967 25.56608
#
# Velocity S-wave (km/s) = 3.61498 3.74215 3.67912
# Velocity P-wave (km/s) = 6.96760 7.14292 7.05580
#
# Compressibility (1/GPa) = 0.01701132
#
# Stress axis : x y z
#
# Youngs Moduli (GPa) = 71.42658 71.42658 78.43031
#
# Poissons Ratio (x) = 0.51643 0.18194
# Poissons Ratio (y) = 0.51643 0.18194
# Poissons Ratio (z) = 0.16569 0.16569
#
# Static dielectric constant tensor:
#      x y z
#    x 1.702010 0.000000 0.000000 
#    y 0.000000 1.702010 0.000000 
#    z 0.000000 0.000000 1.681610 
# 
# From -- ./inp_files/1758.got.cif
#   From: 2010.05.17/outbox.cif.g08.bks.cpg/sg126_1_cif.got.tgz:1758.got - 2010.05.20 11:58:20.
