data_PCOD9563297
_publ_section_title
;
Structure prediction by ZEFSAII (Michael W. Deem and Ramdas Pophale) SiO2 
 PCOD9563297
Probable space group: P 4/N N C
;
_chemical_formula_sum "Si O2"
_cell_formula_units_Z 64
_cell_length_a 17.624181
_cell_length_b 17.624181
_cell_length_c 9.720159
_cell_angle_alpha 90.000000
_cell_angle_beta 90.000000
_cell_angle_gamma 90.000000
_cell_volume 3019.195655
_symmetry_space_group_name_H-M "P 4/N N C"
_symmetry_group_IT_number 126
_space_group.IT_coordinate_system_code '2'
_symmetry_cell_setting 'tetragonal'
loop_
_space_group_symop_operation_xyz
x,y,z
1/2-y,x,z
1/2-x,1/2-y,z
y,1/2-x,z
x,1/2-y,1/2-z
1/2-x,y,1/2-z
y,x,1/2-z
1/2-y,1/2-x,1/2-z
-x,-y,-z
1/2+y,-x,-z
1/2+x,1/2+y,-z
-y,1/2+x,-z
-x,1/2+y,1/2+z
1/2+x,-y,1/2+z
-y,-x,1/2+z
1/2+y,1/2+x,1/2+z
loop_
_atom_site_type_symbol
_atom_site_label
_atom_site_fract_x
_atom_site_fract_y
_atom_site_fract_z
Si Si1 0.911629 0.913353 0.087112
Si Si2 0.914505 0.320866 0.324338
Si Si3 0.429601 0.592525 0.547966
Si Si4 0.409923 0.181800 0.343743
O O1 0.902810 0.902810 0.250000
O O2 0.880788 0.993185 0.027218
O O3 0.881354 0.843821 0.993729
O O4 0.001392 0.922169 0.052965
O O5 0.876380 0.250000 0.250000
O O6 0.878010 0.359812 0.455810
O O7 0.001323 0.298827 0.362660
O O8 0.924964 0.381828 0.203948
O O9 0.377446 0.250000 0.250000
O O10 0.392667 0.107334 0.250000
#
# Coordination Sequence:
#
# PCOD9563297 Si02
#       4
#    16  16  16  16
#     4  10  18  30  55  86 109 142 194 240 286 340
#     4  10  20  34  55  83 113 142 187 241 284 343
#     4  10  18  31  55  83 109 146 187 234 293 336
#     4  10  20  34  53  79 115 150 187 232 283 348
#
# _framework density 21.197699
#
# number of rings (size 3 to 8) (size 9 to 14) (size 15 to 20)
#    0.000    2.000    5.000    0.000    0.000    0.250 
#    0.000    2.500    0.000    2.250    0.000    1.750 
#    0.000    0.000    0.000    0.000    0.000    0.000 
#
# Total GULP energy -356328.408957 kJ/mol
# GULP energy per Si atom -5567.631390 kJ/mol
# Density = 2.114945 g / cm^3
# Si number density = 21.197699 Si / 1000 Ang^3
#
#
#
# Elastic Constant Matrix: (Units=GPa)
#
#
# Indices 1 2 3 4 5 6 
#
# 1 29.5317 11.5605 11.3900 0.0000 0.0000 0.0000
# 2 11.5605 29.5331 11.3900 0.0000 0.0000 0.0000
# 3 11.3900 11.3900 138.1688 0.0000 0.0000 0.0000
# 4 0.0000 0.0000 0.0000 28.1712 0.0000 0.0000
# 5 0.0000 0.0000 0.0000 0.0000 28.1710 0.0000
# 6 0.0000 0.0000 0.0000 0.0000 0.0000 5.5850
#
#
#
# Elastic Compliance Matrix: (Units=1/GPa)
#
#
# Indices 1 2 3 4 5 6 
#
# 1 0.040573 -0.015071 -0.002102 0.000000 0.000000 0.000000
# 2 -0.015071 0.040571 -0.002102 0.000000 0.000000 0.000000
# 3 -0.002102 -0.002102 0.007584 0.000000 0.000000 0.000000
# 4 0.000000 0.000000 0.000000 0.035497 0.000000 0.000000
# 5 0.000000 0.000000 0.000000 0.000000 0.035497 0.000000
# 6 0.000000 0.000000 0.000000 0.000000 0.000000 0.179052
#
#
# Mechanical properties :
#
#
# Convention : Reuss Voigt Hill
#
# Bulk Modulus (GPa) = 19.92969 29.54607 24.73788
# Shear Modulus (GPa) = 12.68873 23.24497 17.96685
#
# Velocity S-wave (km/s) = 2.44926 3.31506 2.91449
# Velocity P-wave (km/s) = 4.17382 5.34990 4.79803
#
# Compressibility (1/GPa) = 0.05017640
#
# Stress axis : x y z
#
# Youngs Moduli (GPa) = 24.64722 24.64842 131.85477
#
# Poissons Ratio (x) = 0.37148 0.27719
# Poissons Ratio (y) = 0.37146 0.27717
# Poissons Ratio (z) = 0.05181 0.05181
#
# Static dielectric constant tensor:
#      x y z
#    x 1.830550 0.000000 0.000000 
#    y 0.000000 1.830550 0.000000 
#    z 0.000000 0.000000 1.759170 
# 
# From -- ./inp_files/1443.got.cif
#   From: 2010.05.17/outbox.cif.g08.bks.cpg/sg126_1_cif.got.tgz:1443.got - 2010.05.20 11:58:20.
