data_PCOD9563494
_publ_section_title
;
Structure prediction by ZEFSAII (Michael W. Deem and Ramdas Pophale) SiO2 
 PCOD9563494
Probable space group: P 4/N N C
;
_chemical_formula_sum "Si O2"
_cell_formula_units_Z 72
_cell_length_a 16.327177
_cell_length_b 16.327177
_cell_length_c 12.387683
_cell_angle_alpha 90.000000
_cell_angle_beta 90.000000
_cell_angle_gamma 90.000000
_cell_volume 3302.267764
_symmetry_space_group_name_H-M "P 4/N N C"
_symmetry_group_IT_number 126
_space_group.IT_coordinate_system_code '2'
_symmetry_cell_setting 'tetragonal'
loop_
_space_group_symop_operation_xyz
x,y,z
1/2-y,x,z
1/2-x,1/2-y,z
y,1/2-x,z
x,1/2-y,1/2-z
1/2-x,y,1/2-z
y,x,1/2-z
1/2-y,1/2-x,1/2-z
-x,-y,-z
1/2+y,-x,-z
1/2+x,1/2+y,-z
-y,1/2+x,-z
-x,1/2+y,1/2+z
1/2+x,-y,1/2+z
-y,-x,1/2+z
1/2+y,1/2+x,1/2+z
loop_
_atom_site_type_symbol
_atom_site_label
_atom_site_fract_x
_atom_site_fract_y
_atom_site_fract_z
Si Si1 0.627385 0.079359 0.850827
Si Si2 0.617929 0.769131 0.980061
Si Si3 0.986766 0.322137 0.583117
Si Si4 0.750000 0.138145 0.250000
Si Si5 0.250000 0.452620 0.250000
Si Si6 0.448401 0.051600 0.750000
O O1 0.667411 0.168712 0.819431
O O2 0.533757 0.066618 0.813604
O O3 0.676612 0.011175 0.784432
O O4 0.637181 0.051897 0.975911
O O5 0.661556 0.682702 0.004130
O O6 0.599614 0.774230 0.853491
O O7 0.534216 0.760226 0.045253
O O8 0.045069 0.379101 0.657258
O O9 0.913916 0.295865 0.659868
#
# Coordination Sequence:
#
# PCOD9563494 Si02
#       6
#    16  16  16   8   8   8
#     4  10  23  41  65  97 124 176 219 276 334 391
#     4  10  22  37  60  94 131 174 211 269 333 397
#     4  10  23  39  65  95 128 174 218 270 328 399
#     4  10  24  45  64  93 134 164 218 278 326 397
#     4  10  22  38  62  94 130 166 222 274 334 392
#     4  10  22  40  66  93 125 174 224 276 316 392
#
# _framework density 21.803198999999999
#
# number of rings (size 3 to 8) (size 9 to 14) (size 15 to 20)
#    0.000    2.000    0.000    1.333   12.444    8.444 
#    0.000    0.000    0.000    0.000    0.000    0.000 
#    0.000    0.000    0.000    0.000    0.000    0.000 
#
# Total GULP energy -401183.718208 kJ/mol
# GULP energy per Si atom -5571.996086 kJ/mol
# Density = 2.175357 g / cm^3
# Si number density = 21.803199 Si / 1000 Ang^3
#
#
#
# Elastic Constant Matrix: (Units=GPa)
#
#
# Indices 1 2 3 4 5 6 
#
# 1 57.0330 0.3070 38.5293 0.0000 0.0000 0.0000
# 2 0.3070 57.0326 38.5290 0.0000 0.0000 0.0000
# 3 38.5293 38.5290 145.6636 0.0000 0.0000 0.0000
# 4 0.0000 0.0000 0.0000 11.9215 0.0000 0.0000
# 5 0.0000 0.0000 0.0000 0.0000 11.9217 0.0000
# 6 0.0000 0.0000 0.0000 0.0000 0.0000 -8.3868
#
#
#
# Elastic Compliance Matrix: (Units=1/GPa)
#
#
# Indices 1 2 3 4 5 6 
#
# 1 0.022343 0.004715 -0.007157 0.000000 0.000000 0.000000
# 2 0.004715 0.022344 -0.007157 0.000000 0.000000 0.000000
# 3 -0.007157 -0.007157 0.010651 0.000000 0.000000 0.000000
# 4 0.000000 0.000000 0.000000 0.083882 0.000000 0.000000
# 5 0.000000 0.000000 0.000000 0.000000 0.083881 0.000000
# 6 0.000000 0.000000 0.000000 0.000000 0.000000 -0.119235
#
#
# Mechanical properties :
#
#
# Convention : Reuss Voigt Hill
#
# Bulk Modulus (GPa) = 27.67065 46.05110 36.86088
# Shear Modulus (GPa) = 37.00650 15.24887 26.12768
#
# Velocity S-wave (km/s) = 4.12430 2.64746 3.46546
# Velocity P-wave (km/s) = 5.94966 5.52381 5.74068
#
# Compressibility (1/GPa) = 0.03613937
#
# Stress axis : x y z
#
# Youngs Moduli (GPa) = 44.75594 44.75574 93.88477
#
# Poissons Ratio (x) = -0.21101 0.67194
# Poissons Ratio (y) = -0.21101 0.67194
# Poissons Ratio (z) = 0.32032 0.32032
#
# Static dielectric constant tensor:
#      x y z
#    x 1.859520 0.000000 0.000000 
#    y 0.000000 1.859520 0.000000 
#    z 0.000000 0.000000 1.793110 
# 
# From -- ./inp_files/2716.got.cif
#   From: 2010.05.17/outbox.cif.g08.bks.cpg/sg126_2_cif.got.tgz:2716.got - 2010.05.20 11:58:20.
