data_PCOD9563793
_publ_section_title
;
Structure prediction by ZEFSAII (Michael W. Deem and Ramdas Pophale) SiO2 
 PCOD9563793
Probable space group: P 4/M B M
;
_chemical_formula_sum "Si O2"
_cell_formula_units_Z 104
_cell_length_a 17.346587
_cell_length_b 17.346587
_cell_length_c 20.843360
_cell_angle_alpha 90.000000
_cell_angle_beta 90.000000
_cell_angle_gamma 90.000000
_cell_volume 6271.852076
_symmetry_space_group_name_H-M "P 4/M B M"
_symmetry_group_IT_number 127
_symmetry_cell_setting 'tetragonal'
loop_
_space_group_symop_operation_xyz
x,y,z
-y,x,z
-x,-y,z
y,-x,z
1/2+x,1/2-y,-z
1/2-x,1/2+y,-z
1/2+y,1/2+x,-z
1/2-y,1/2-x,-z
-x,-y,-z
y,-x,-z
x,y,-z
-y,x,-z
1/2-x,1/2+y,z
1/2+x,1/2-y,z
1/2-y,1/2-x,z
1/2+y,1/2+x,z
loop_
_atom_site_type_symbol
_atom_site_label
_atom_site_fract_x
_atom_site_fract_y
_atom_site_fract_z
Si Si1 0.289597 0.339381 0.659900
Si Si2 0.814272 0.560770 0.575778
Si Si3 0.601805 0.414983 0.000000
Si Si4 0.093440 0.717985 0.653197
Si Si5 0.201469 0.173420 0.107562
Si Si6 0.810866 0.431248 0.195862
Si Si7 0.104502 0.268875 0.789280
O O1 0.234744 0.265257 0.674645
O O2 0.252829 0.382050 0.599584
O O3 0.372619 0.303784 0.645472
O O4 0.280252 0.392560 0.723035
O O5 0.811545 0.546960 0.500000
O O6 0.894045 0.605956 0.590883
O O7 0.801942 0.484138 0.616364
O O8 0.605451 0.509445 0.000000
O O9 0.648198 0.375815 0.940622
O O10 0.156959 0.656959 0.629465
O O11 0.084608 0.707111 0.729457
O O12 0.262492 0.237509 0.079873
O O13 0.253160 0.116187 0.150609
O O14 0.146387 0.219870 0.155986
O O15 0.895806 0.395806 0.183542
O O16 0.796113 0.521177 0.188249
O O17 0.155284 0.344717 0.776521
#
# Coordination Sequence:
#
# PCOD9563793 Si02
#       7
#    16  16   8  16  16  16  16
#     4   9  17  32  51  73  99 132 177 219 259 313
#     4  10  21  35  51  74 105 139 176 222 275 326
#     4  11  23  38  56  82 115 147 180 220 270 325
#     4  10  19  32  52  76 102 134 175 219 266 321
#     4  10  20  36  57  81 109 144 182 222 265 318
#     4  10  19  31  51  81 109 135 175 224 270 316
#     4  10  18  31  53  78 106 140 175 218 266 315
#
# _framework density 16.582025000000002
#
# number of rings (size 3 to 8) (size 9 to 14) (size 15 to 20)
#    0.000    2.077    3.077    1.154    0.000    1.538 
#    0.000    3.846    0.000    0.462    0.000    1.077 
#    0.000   11.077    0.000    0.000    0.000    0.000 
#
# Total GULP energy -579140.802709 kJ/mol
# GULP energy per Si atom -5568.661565 kJ/mol
# Density = 1.654428 g / cm^3
# Si number density = 16.582025 Si / 1000 Ang^3
#
#
#
# Elastic Constant Matrix: (Units=GPa)
#
#
# Indices 1 2 3 4 5 6 
#
# 1 88.4547 57.1232 32.3990 0.0000 0.0000 0.0000
# 2 57.1232 88.4547 32.3990 0.0000 0.0000 0.0000
# 3 32.3990 32.3990 65.4757 0.0000 0.0000 0.0000
# 4 0.0000 0.0000 0.0000 10.5659 0.0000 0.0000
# 5 0.0000 0.0000 0.0000 0.0000 10.5659 0.0000
# 6 0.0000 0.0000 0.0000 0.0000 0.0000 20.7921
#
#
#
# Elastic Compliance Matrix: (Units=1/GPa)
#
#
# Indices 1 2 3 4 5 6 
#
# 1 0.020363 -0.011554 -0.004359 0.000000 0.000000 0.000000
# 2 -0.011554 0.020363 -0.004359 0.000000 0.000000 0.000000
# 3 -0.004359 -0.004359 0.019587 0.000000 0.000000 0.000000
# 4 0.000000 0.000000 0.000000 0.094644 0.000000 0.000000
# 5 0.000000 0.000000 0.000000 0.000000 0.094644 0.000000
# 6 0.000000 0.000000 0.000000 0.000000 0.000000 0.048095
#
#
# Mechanical properties :
#
#
# Convention : Reuss Voigt Hill
#
# Bulk Modulus (GPa) = 50.58364 54.02525 52.30445
# Shear Modulus (GPa) = 14.49989 16.41571 15.45780
#
# Velocity S-wave (km/s) = 2.96029 3.14979 3.05651
# Velocity P-wave (km/s) = 6.50044 6.77345 6.63835
#
# Compressibility (1/GPa) = 0.01976924
#
# Stress axis : x y z
#
# Youngs Moduli (GPa) = 49.10846 49.10846 51.05466
#
# Poissons Ratio (x) = 0.56738 0.22255
# Poissons Ratio (y) = 0.56738 0.22255
# Poissons Ratio (z) = 0.21407 0.21407
#
# Static dielectric constant tensor:
#      x y z
#    x 1.568140 0.000000 0.000000 
#    y 0.000000 1.568140 0.000000 
#    z 0.000000 0.000000 1.556260 
# 
# From -- ./inp_files/5224.got.cif
#   From: 2010.05.17/outbox.cif.g08.bks.cpg/sg127_3_cif.got.tgz:5224.got - 2010.05.20 12:03:00.
