data_PCOD9563778
_publ_section_title
;
Structure prediction by ZEFSAII (Michael W. Deem and Ramdas Pophale) SiO2 
 PCOD9563778
Probable space group: P 4/M B M
;
_chemical_formula_sum "Si O2"
_cell_formula_units_Z 112
_cell_length_a 17.508464
_cell_length_b 17.508464
_cell_length_c 23.367246
_cell_angle_alpha 90.000000
_cell_angle_beta 90.000000
_cell_angle_gamma 90.000000
_cell_volume 7163.143074
_symmetry_space_group_name_H-M "P 4/M B M"
_symmetry_group_IT_number 127
_symmetry_cell_setting 'tetragonal'
loop_
_space_group_symop_operation_xyz
x,y,z
-y,x,z
-x,-y,z
y,-x,z
1/2+x,1/2-y,-z
1/2-x,1/2+y,-z
1/2+y,1/2+x,-z
1/2-y,1/2-x,-z
-x,-y,-z
y,-x,-z
x,y,-z
-y,x,-z
1/2-x,1/2+y,z
1/2+x,1/2-y,z
1/2-y,1/2-x,z
1/2+y,1/2+x,z
loop_
_atom_site_type_symbol
_atom_site_label
_atom_site_fract_x
_atom_site_fract_y
_atom_site_fract_z
Si Si1 0.791151 0.836365 0.147723
Si Si2 0.706780 0.669780 0.651575
Si Si3 0.894488 0.266968 0.736658
Si Si4 0.688881 0.934390 0.931828
Si Si5 0.784617 0.591615 0.866449
Si Si6 0.396274 0.427218 0.568190
Si Si7 0.933436 0.686667 0.268130
O O1 0.737469 0.762532 0.160812
O O2 0.781705 0.888862 0.204154
O O3 0.753824 0.880011 0.094746
O O4 0.872760 0.800451 0.132609
O O5 0.768120 0.731881 0.628975
O O6 0.643212 0.716060 0.687250
O O7 0.666027 0.618738 0.603983
O O8 0.752788 0.616936 0.696459
O O9 0.840393 0.340393 0.745355
O O10 0.978120 0.296697 0.721082
O O11 0.608778 0.891223 0.917664
O O12 0.699919 0.015448 0.901789
O O13 0.694239 0.940214 0.000000
O O14 0.844229 0.655772 0.887529
O O15 0.800802 0.577303 0.799564
O O16 0.482084 0.397201 0.581201
O O17 0.384607 0.419047 0.500000
O O18 0.896305 0.603696 0.281631
#
# Coordination Sequence:
#
# PCOD9563778 Si02
#       7
#    16  16  16  16  16  16  16
#     4   9  17  32  50  69  93 122 160 200 239 293
#     4  10  19  31  49  75 104 133 167 207 248 294
#     4  10  18  30  49  71  98 131 162 200 247 292
#     4  10  21  35  51  72  96 125 163 205 249 300
#     4  10  19  32  51  72  96 124 157 200 249 298
#     4   9  18  33  52  74 102 136 172 209 249 295
#     4  10  19  30  47  74 101 126 162 205 249 299
#
# _framework density 15.635593999999999
#
# number of rings (size 3 to 8) (size 9 to 14) (size 15 to 20)
#    0.000    2.286    2.857    1.286    0.000    1.714 
#    0.000    3.571    0.000    0.429    0.000    1.000 
#    0.000    0.000    0.000   26.571    0.000    0.143 
#
# Total GULP energy -623853.130749 kJ/mol
# GULP energy per Si atom -5570.117239 kJ/mol
# Density = 1.560001 g / cm^3
# Si number density = 15.635594 Si / 1000 Ang^3
#
#
#
# Elastic Constant Matrix: (Units=GPa)
#
#
# Indices 1 2 3 4 5 6 
#
# 1 67.8229 43.3250 24.9198 0.0000 0.0000 0.0000
# 2 43.3250 67.8229 24.9198 0.0000 0.0000 0.0000
# 3 24.9198 24.9198 50.7402 0.0000 0.0000 0.0000
# 4 0.0000 0.0000 0.0000 18.7257 0.0000 0.0000
# 5 0.0000 0.0000 0.0000 0.0000 18.7257 0.0000
# 6 0.0000 0.0000 0.0000 0.0000 0.0000 20.5802
#
#
#
# Elastic Compliance Matrix: (Units=1/GPa)
#
#
# Indices 1 2 3 4 5 6 
#
# 1 0.026179 -0.014641 -0.005667 0.000000 0.000000 0.000000
# 2 -0.014641 0.026179 -0.005667 0.000000 0.000000 0.000000
# 3 -0.005667 -0.005667 0.025274 0.000000 0.000000 0.000000
# 4 0.000000 0.000000 0.000000 0.053402 0.000000 0.000000
# 5 0.000000 0.000000 0.000000 0.000000 0.053402 0.000000
# 6 0.000000 0.000000 0.000000 0.000000 0.000000 0.048591
#
#
# Mechanical properties :
#
#
# Convention : Reuss Voigt Hill
#
# Bulk Modulus (GPa) = 38.93499 41.41278 40.17388
# Shear Modulus (GPa) = 17.03362 17.82107 17.42735
#
# Velocity S-wave (km/s) = 3.30421 3.37972 3.34218
# Velocity P-wave (km/s) = 6.28591 6.46326 6.37520
#
# Compressibility (1/GPa) = 0.02568384
#
# Stress axis : x y z
#
# Youngs Moduli (GPa) = 38.19863 38.19863 39.56596
#
# Poissons Ratio (x) = 0.55927 0.22420
# Poissons Ratio (y) = 0.55927 0.22420
# Poissons Ratio (z) = 0.21646 0.21646
#
# Static dielectric constant tensor:
#      x y z
#    x 1.527490 0.000000 0.000000 
#    y 0.000000 1.527490 0.000000 
#    z 0.000000 0.000000 1.504560 
# 
# From -- ./inp_files/5926.got.cif
#   From: 2010.05.17/outbox.cif.g08.bks.cpg/sg127_3_cif.got.tgz:5926.got - 2010.05.20 12:03:00.
