data_PCOD9563118
_publ_section_title
;
Structure prediction by ZEFSAII (Michael W. Deem and Ramdas Pophale) SiO2 
 PCOD9563118
Probable space group: P 4/N B M
;
_chemical_formula_sum "Si O2"
_cell_formula_units_Z 112
_cell_length_a 13.423821
_cell_length_b 13.423821
_cell_length_c 35.069591
_cell_angle_alpha 90.000000
_cell_angle_beta 90.000000
_cell_angle_gamma 90.000000
_cell_volume 6319.504185
_symmetry_space_group_name_H-M "P 4/N B M"
_symmetry_group_IT_number 125
_space_group.IT_coordinate_system_code '2'
_symmetry_cell_setting 'tetragonal'
loop_
_space_group_symop_operation_xyz
x,y,z
1/2-y,x,z
1/2-x,1/2-y,z
y,1/2-x,z
x,1/2-y,-z
1/2-x,y,-z
y,x,-z
1/2-y,1/2-x,-z
-x,-y,-z
1/2+y,-x,-z
1/2+x,1/2+y,-z
-y,1/2+x,-z
-x,1/2+y,z
1/2+x,-y,z
-y,-x,z
1/2+y,1/2+x,z
loop_
_atom_site_type_symbol
_atom_site_label
_atom_site_fract_x
_atom_site_fract_y
_atom_site_fract_z
Si Si1 0.417460 0.749074 0.892118
Si Si2 0.583104 0.247282 0.194377
Si Si3 0.462806 0.374262 0.535858
Si Si4 0.265895 0.417784 0.655420
Si Si5 0.750600 0.582312 0.043165
Si Si6 0.738556 0.582505 0.258392
Si Si7 0.985027 0.322545 0.579382
O O1 0.349332 0.650669 0.895688
O O2 0.342121 0.842121 0.895965
O O3 0.458374 0.752606 0.848841
O O4 0.500167 0.751326 0.924367
O O5 0.664209 0.335792 0.196112
O O6 0.645384 0.145384 0.200095
O O7 0.500519 0.262378 0.226224
O O8 0.388463 0.388463 0.500000
O O9 0.560141 0.439860 0.526370
O O10 0.497513 0.266678 0.549519
O O11 0.403556 0.429298 0.569820
O O12 0.164248 0.354124 0.651873
O O13 0.267147 0.459189 0.698426
O O14 0.280457 0.496044 0.621632
O O15 0.846057 0.654610 0.046694
O O16 0.750000 0.540388 0.000000
O O17 0.839073 0.648042 0.254839
O O18 0.881143 0.381143 0.575430
#
# Coordination Sequence:
#
# PCOD9563118 Si02
#       7
#    16  16  16  16  16  16  16
#     4   9  19  35  53  74 102 137 178 224 271 322
#     4   9  19  36  54  74 105 143 181 222 272 330
#     4  10  22  39  57  84 117 146 187 231 270 324
#     4   9  17  34  56  79 110 145 186 229 267 316
#     4   9  19  35  52  73 104 139 174 216 268 325
#     4   9  19  34  54  81 110 141 181 229 274 322
#     4  11  21  35  59  86 114 150 188 229 274 322
#
# _framework density 17.722909999999999
#
# number of rings (size 3 to 8) (size 9 to 14) (size 15 to 20)
#    0.000    2.571    1.429    2.571    0.000    4.000 
#    0.000   10.000    0.000    2.571    0.000    0.000 
#    0.000    0.000    0.000    0.000    0.000    0.000 
#
# Total GULP energy -624411.418304 kJ/mol
# GULP energy per Si atom -5575.101949 kJ/mol
# Density = 1.768257 g / cm^3
# Si number density = 17.722910 Si / 1000 Ang^3
#
#
#
# Elastic Constant Matrix: (Units=GPa)
#
#
# Indices 1 2 3 4 5 6 
#
# 1 82.2553 23.8443 67.5560 0.0000 0.0000 0.0000
# 2 23.8443 82.2553 67.5560 0.0000 0.0000 0.0000
# 3 67.5560 67.5560 178.0325 0.0000 0.0000 0.0000
# 4 0.0000 0.0000 0.0000 30.2401 0.0000 0.0000
# 5 0.0000 0.0000 0.0000 0.0000 30.2401 0.0000
# 6 0.0000 0.0000 0.0000 0.0000 0.0000 9.1405
#
#
#
# Elastic Compliance Matrix: (Units=1/GPa)
#
#
# Indices 1 2 3 4 5 6 
#
# 1 0.017679 0.000559 -0.006921 0.000000 0.000000 0.000000
# 2 0.000559 0.017679 -0.006921 0.000000 0.000000 0.000000
# 3 -0.006921 -0.006921 0.010869 0.000000 0.000000 0.000000
# 4 0.000000 0.000000 0.000000 0.033069 0.000000 0.000000
# 5 0.000000 0.000000 0.000000 0.000000 0.033069 0.000000
# 6 0.000000 0.000000 0.000000 0.000000 0.000000 0.109404
#
#
# Mechanical properties :
#
#
# Convention : Reuss Voigt Hill
#
# Bulk Modulus (GPa) = 50.85711 73.38396 62.12053
# Shear Modulus (GPa) = 19.61653 26.16326 22.88990
#
# Velocity S-wave (km/s) = 3.33054 3.84635 3.59770
# Velocity P-wave (km/s) = 6.59909 7.82445 7.23775
#
# Compressibility (1/GPa) = 0.01966294
#
# Stress axis : x y z
#
# Youngs Moduli (GPa) = 56.56393 56.56393 92.00351
#
# Poissons Ratio (x) = -0.03162 0.63672
# Poissons Ratio (y) = -0.03162 0.63672
# Poissons Ratio (z) = 0.39146 0.39146
#
# Static dielectric constant tensor:
#      x y z
#    x 1.593510 0.000000 0.000000 
#    y 0.000000 1.593510 0.000000 
#    z 0.000000 0.000000 1.616210 
# 
# From -- ./inp_files/6658.got.cif
#   From: 2010.05.17/outbox.cif.g08.bks.cpg/sg125_4_cif.got.tgz:6658.got - 2010.05.20 11:54:10.
