data_PCOD9563960
_publ_section_title
;
Structure prediction by ZEFSAII (Michael W. Deem and Ramdas Pophale) SiO2 
 PCOD9563960
Probable space group: P 4/M B M
;
_chemical_formula_sum "Si O2"
_cell_formula_units_Z 96
_cell_length_a 15.070415
_cell_length_b 15.070415
_cell_length_c 22.266188
_cell_angle_alpha 90.000000
_cell_angle_beta 90.000000
_cell_angle_gamma 90.000000
_cell_volume 5057.038911
_symmetry_space_group_name_H-M "P 4/M B M"
_symmetry_group_IT_number 127
_symmetry_cell_setting 'tetragonal'
loop_
_space_group_symop_operation_xyz
x,y,z
-y,x,z
-x,-y,z
y,-x,z
1/2+x,1/2-y,-z
1/2-x,1/2+y,-z
1/2+y,1/2+x,-z
1/2-y,1/2-x,-z
-x,-y,-z
y,-x,-z
x,y,-z
-y,x,-z
1/2-x,1/2+y,z
1/2+x,1/2-y,z
1/2-y,1/2-x,z
1/2+y,1/2+x,z
loop_
_atom_site_type_symbol
_atom_site_label
_atom_site_fract_x
_atom_site_fract_y
_atom_site_fract_z
Si Si1 0.669464 0.318878 0.828499
Si Si2 0.746226 0.098442 0.387478
Si Si3 0.574503 0.925498 0.932278
Si Si4 0.472154 0.648985 0.500000
Si Si5 0.854015 0.497762 0.719558
Si Si6 0.766193 0.488773 0.150011
Si Si7 0.388271 0.399977 0.298196
O O1 0.754581 0.254581 0.827240
O O2 0.587054 0.270125 0.858915
O O3 0.693463 0.412375 0.857944
O O4 0.637369 0.343209 0.761500
O O5 0.674368 0.174368 0.403981
O O6 0.787992 0.045052 0.442756
O O7 0.699415 0.035437 0.337443
O O8 0.832048 0.138302 0.353254
O O9 0.654832 0.965433 0.894277
O O10 0.500000 0.000000 0.935819
O O11 0.600530 0.899471 0.000000
O O12 0.399983 0.567870 0.500000
O O13 0.925404 0.574597 0.734887
O O14 0.799218 0.482201 0.780487
O O15 0.909422 0.409422 0.704753
O O16 0.492782 0.381008 0.299883
#
# Coordination Sequence:
#
# PCOD9563960 Si02
#       7
#    16  16   8   8  16  16  16
#     4  12  22  36  60  95 133 174 217 277 338 402
#     4  11  22  39  61  90 122 159 208 267 326 393
#     4  11  24  46  72  98 132 180 240 290 336 405
#     4  11  25  46  66  81 111 163 214 261 320 395
#     4  10  19  35  61  91 126 167 208 264 327 388
#     4  12  23  39  64  99 137 176 222 275 341 399
#     4  11  21  35  56  88 129 171 211 260 327 400
#
# _framework density 18.983442
#
# number of rings (size 3 to 8) (size 9 to 14) (size 15 to 20)
#    0.000    0.833    5.000    3.250    0.000    1.667 
#    0.000    7.083    0.000    2.000    0.000    1.167 
#    0.000    0.000    0.000    0.000    0.000    0.000 
#
# Total GULP energy -536344.742828 kJ/mol
# GULP energy per Si atom -5586.924404 kJ/mol
# Density = 1.894023 g / cm^3
# Si number density = 18.983442 Si / 1000 Ang^3
#
#
#
# Elastic Constant Matrix: (Units=GPa)
#
#
# Indices 1 2 3 4 5 6 
#
# 1 80.2608 15.1693 25.5297 0.0000 0.0000 0.0000
# 2 15.1693 80.2609 25.5297 0.0000 0.0000 0.0000
# 3 25.5297 25.5297 87.0949 0.0000 0.0000 0.0000
# 4 0.0000 0.0000 0.0000 17.5934 0.0000 0.0000
# 5 0.0000 0.0000 0.0000 0.0000 17.5941 0.0000
# 6 0.0000 0.0000 0.0000 0.0000 0.0000 33.3509
#
#
#
# Elastic Compliance Matrix: (Units=1/GPa)
#
#
# Indices 1 2 3 4 5 6 
#
# 1 0.013895 -0.001467 -0.003643 0.000000 0.000000 0.000000
# 2 -0.001467 0.013895 -0.003643 0.000000 0.000000 0.000000
# 3 -0.003643 -0.003643 0.013617 0.000000 0.000000 0.000000
# 4 0.000000 0.000000 0.000000 0.056839 0.000000 0.000000
# 5 0.000000 0.000000 0.000000 0.000000 0.056837 0.000000
# 6 0.000000 0.000000 0.000000 0.000000 0.000000 0.029984
#
#
# Mechanical properties :
#
#
# Convention : Reuss Voigt Hill
#
# Bulk Modulus (GPa) = 41.83819 42.23043 42.03431
# Shear Modulus (GPa) = 23.74809 25.80021 24.77415
#
# Velocity S-wave (km/s) = 3.54077 3.69058 3.61645
# Velocity P-wave (km/s) = 6.22922 6.36041 6.29516
#
# Compressibility (1/GPa) = 0.02390161
#
# Stress axis : x y z
#
# Youngs Moduli (GPa) = 71.96576 71.96576 73.43534
#
# Poissons Ratio (x) = 0.10561 0.26752
# Poissons Ratio (y) = 0.10561 0.26752
# Poissons Ratio (z) = 0.26217 0.26217
#
# Static dielectric constant tensor:
#      x y z
#    x 1.689130 0.000000 0.000000 
#    y 0.000000 1.689130 0.000000 
#    z 0.000000 0.000000 1.659050 
# 
# From -- ./inp_files/5841.got.cif
#   From: 2010.05.17/outbox.cif.g08.bks.cpg/sg127_3_cif.got.tgz:5841.got - 2010.05.20 12:03:00.
