data_PCOD9563108
_publ_section_title
;
Structure prediction by ZEFSAII (Michael W. Deem and Ramdas Pophale) SiO2 
 PCOD9563108
Probable space group: P 4/N B M
;
_chemical_formula_sum "Si O2"
_cell_formula_units_Z 88
_cell_length_a 13.082601
_cell_length_b 13.082601
_cell_length_c 31.824707
_cell_angle_alpha 90.000000
_cell_angle_beta 90.000000
_cell_angle_gamma 90.000000
_cell_volume 5446.940189
_symmetry_space_group_name_H-M "P 4/N B M"
_symmetry_group_IT_number 125
_space_group.IT_coordinate_system_code '2'
_symmetry_cell_setting 'tetragonal'
loop_
_space_group_symop_operation_xyz
x,y,z
1/2-y,x,z
1/2-x,1/2-y,z
y,1/2-x,z
x,1/2-y,-z
1/2-x,y,-z
y,x,-z
1/2-y,1/2-x,-z
-x,-y,-z
1/2+y,-x,-z
1/2+x,1/2+y,-z
-y,1/2+x,-z
-x,1/2+y,z
1/2+x,-y,z
-y,-x,z
1/2+y,1/2+x,z
loop_
_atom_site_type_symbol
_atom_site_label
_atom_site_fract_x
_atom_site_fract_y
_atom_site_fract_z
Si Si1 0.128513 0.628513 0.547637
Si Si2 0.000000 0.000001 0.931673
Si Si3 0.873001 0.127000 0.000000
Si Si4 0.500000 1.000000 0.613697
Si Si5 0.872340 0.627660 0.680364
Si Si6 0.872255 0.627745 0.772766
Si Si7 0.128513 0.628513 0.452363
Si Si8 0.127671 0.127671 0.134880
O O1 0.098353 0.598353 0.500000
O O2 0.111117 0.750000 0.551506
O O3 0.068905 0.568905 0.583270
O O4 0.930205 0.930205 0.901813
O O5 0.071968 0.928033 0.960518
O O6 0.928033 0.071968 0.960518
O O7 0.889966 0.250000 0.000000
O O8 0.430490 0.069510 0.643808
O O9 0.568904 0.068904 0.583270
O O10 0.888881 0.750000 0.677482
O O11 0.908221 0.591780 0.727025
O O12 0.888173 0.750000 0.772779
O O13 0.908296 0.591705 0.818494
O O14 0.250000 0.111181 0.132013
#
# Coordination Sequence:
#
# PCOD9563108 Si02
#       8
#     8   8   8   8  16  16   8  16
#     4   9  19  35  50  64  87 118 149 184 230 280
#     4  11  20  31  52  75  91 114 155 198 229 262
#     4  10  22  38  50  64  94 130 154 178 226 288
#     4  12  19  27  48  75  91 110 151 197 226 254
#     4   9  18  31  45  65  96 128 152 177 217 269
#     4   7  12  26  45  63  90 126 152 174 215 268
#     4   9  19  35  50  64  87 118 149 184 230 280
#     4   9  17  30  49  72  95 118 150 192 229 260
#
# _framework density 16.155859
#
# number of rings (size 3 to 8) (size 9 to 14) (size 15 to 20)
#    0.000    2.818    0.000    5.182    0.000    0.727 
#    0.000    0.000    0.000    4.364    0.000    7.636 
#    0.000   23.273    0.000    0.000    0.000    0.000 
#
# Total GULP energy -489934.616735 kJ/mol
# GULP energy per Si atom -5567.438827 kJ/mol
# Density = 1.611909 g / cm^3
# Si number density = 16.155859 Si / 1000 Ang^3
#
#
#
# Elastic Constant Matrix: (Units=GPa)
#
#
# Indices 1 2 3 4 5 6 
#
# 1 75.5191 57.5566 78.9670 0.0000 0.0000 0.0000
# 2 57.5566 75.5191 78.9670 0.0000 0.0000 0.0000
# 3 78.9670 78.9670 195.2984 0.0000 0.0000 0.0000
# 4 0.0000 0.0000 0.0000 626.1185 0.0000 0.0000
# 5 0.0000 0.0000 0.0000 0.0000 626.1185 0.0000
# 6 0.0000 0.0000 0.0000 0.0000 0.0000 26.2040
#
#
#
# Elastic Compliance Matrix: (Units=1/GPa)
#
#
# Indices 1 2 3 4 5 6 
#
# 1 0.035059 -0.020612 -0.005842 0.000000 0.000000 0.000000
# 2 -0.020612 0.035059 -0.005842 0.000000 0.000000 0.000000
# 3 -0.005842 -0.005842 0.009844 0.000000 0.000000 0.000000
# 4 0.000000 0.000000 0.000000 0.001597 0.000000 0.000000
# 5 0.000000 0.000000 0.000000 0.000000 0.001597 0.000000
# 6 0.000000 0.000000 0.000000 0.000000 0.000000 0.038162
#
#
# Mechanical properties :
#
#
# Convention : Reuss Voigt Hill
#
# Bulk Modulus (GPa) = 65.05105 86.36865 75.70985
# Shear Modulus (GPa) = 26.17326 264.41126 145.29226
#
# Velocity S-wave (km/s) = 4.02935 12.80695 9.49352
# Velocity P-wave (km/s) = 7.87398 16.50050 12.92799
#
# Compressibility (1/GPa) = 0.01537254
#
# Stress axis : x y z
#
# Youngs Moduli (GPa) = 28.52297 28.52297 101.58056
#
# Poissons Ratio (x) = 0.58792 0.59340
# Poissons Ratio (y) = 0.58792 0.59340
# Poissons Ratio (z) = 0.16662 0.16662
#
# Static dielectric constant tensor:
#      x y z
#    x 1.516970 0.000000 0.000000 
#    y 0.000000 1.516970 0.000000 
#    z 0.000000 0.000000 1.563220 
# 
# From -- ./inp_files/6631.got.cif
#   From: 2010.05.17/outbox.cif.g08.bks.cpg/sg125_4_cif.got.tgz:6631.got - 2010.05.20 11:54:10.
