data_PCOD9563908
_publ_section_title
;
Structure prediction by ZEFSAII (Michael W. Deem and Ramdas Pophale) SiO2 
 PCOD9563908
Probable space group: P 4/M B M
;
_chemical_formula_sum "Si O2"
_cell_formula_units_Z 80
_cell_length_a 17.527918
_cell_length_b 17.527918
_cell_length_c 13.326280
_cell_angle_alpha 90.000000
_cell_angle_beta 90.000000
_cell_angle_gamma 90.000000
_cell_volume 4094.205145
_symmetry_space_group_name_H-M "P 4/M B M"
_symmetry_group_IT_number 127
_symmetry_cell_setting 'tetragonal'
loop_
_space_group_symop_operation_xyz
x,y,z
-y,x,z
-x,-y,z
y,-x,z
1/2+x,1/2-y,-z
1/2-x,1/2+y,-z
1/2+y,1/2+x,-z
1/2-y,1/2-x,-z
-x,-y,-z
y,-x,-z
x,y,-z
-y,x,-z
1/2-x,1/2+y,z
1/2+x,1/2-y,z
1/2-y,1/2-x,z
1/2+y,1/2+x,z
loop_
_atom_site_type_symbol
_atom_site_label
_atom_site_fract_x
_atom_site_fract_y
_atom_site_fract_z
Si Si1 0.106106 0.059675 0.825207
Si Si2 0.812756 0.436208 0.382224
Si Si3 0.773647 0.600020 0.691857
Si Si4 0.140809 0.111408 0.610962
Si Si5 0.204154 0.825032 0.885794
O O1 0.110614 0.062664 0.704327
O O2 0.172153 0.113988 0.865250
O O3 0.027150 0.100196 0.857697
O O4 0.824688 0.456087 0.500000
O O5 0.881457 0.381457 0.349816
O O6 0.802838 0.514351 0.321643
O O7 0.732610 0.390840 0.378432
O O8 0.839104 0.660897 0.664961
O O9 0.697662 0.611567 0.625153
O O10 0.744345 0.620922 0.803649
O O11 0.121429 0.082572 0.500000
O O12 0.242640 0.742640 0.871117
O O13 0.218852 0.848687 0.000000
#
# Coordination Sequence:
#
# PCOD9563908 Si02
#       5
#    16  16  16  16  16
#     4  10  21  35  52  79 112 141 170 210 264 319
#     4  10  21  35  52  78 111 143 175 215 261 308
#     4  10  20  34  54  78 103 136 177 218 263 315
#     4  10  19  33  52  74 104 142 182 216 248 298
#     4   9  19  37  58  77 100 134 177 221 262 309
#
# _framework density 19.539812999999999
#
# number of rings (size 3 to 8) (size 9 to 14) (size 15 to 20)
#    0.000    2.200    0.000    3.600    0.000    6.800 
#    0.000    3.000    0.000    0.600    0.000    2.800 
#    0.000    0.000    0.000    0.000    0.000    0.000 
#
# Total GULP energy -446532.954265 kJ/mol
# GULP energy per Si atom -5581.661928 kJ/mol
# Density = 1.949534 g / cm^3
# Si number density = 19.539813 Si / 1000 Ang^3
#
#
#
# Elastic Constant Matrix: (Units=GPa)
#
#
# Indices 1 2 3 4 5 6 
#
# 1 42.9775 15.6242 -7.1378 0.0000 0.0000 0.0000
# 2 15.6242 42.9775 -7.1378 0.0000 0.0000 0.0000
# 3 -7.1378 -7.1378 56.2087 0.0000 0.0000 0.0000
# 4 0.0000 0.0000 0.0000 9.8216 0.0000 0.0000
# 5 0.0000 0.0000 0.0000 0.0000 9.8216 0.0000
# 6 0.0000 0.0000 0.0000 0.0000 0.0000 24.7877
#
#
#
# Elastic Compliance Matrix: (Units=1/GPa)
#
#
# Indices 1 2 3 4 5 6 
#
# 1 0.027084 -0.009475 0.002236 0.000000 0.000000 0.000000
# 2 -0.009475 0.027084 0.002236 0.000000 0.000000 0.000000
# 3 0.002236 0.002236 0.018359 0.000000 0.000000 0.000000
# 4 0.000000 0.000000 0.000000 0.101816 0.000000 0.000000
# 5 0.000000 0.000000 0.000000 0.000000 0.101816 0.000000
# 6 0.000000 0.000000 0.000000 0.000000 0.000000 0.040343
#
#
# Mechanical properties :
#
#
# Convention : Reuss Voigt Hill
#
# Bulk Modulus (GPa) = 15.99451 16.09565 16.04508
# Shear Modulus (GPa) = 14.39479 18.27383 16.33431
#
# Velocity S-wave (km/s) = 2.71715 3.06144 2.89442
# Velocity P-wave (km/s) = 4.24820 4.55541 4.40449
#
# Compressibility (1/GPa) = 0.06252146
#
# Stress axis : x y z
#
# Youngs Moduli (GPa) = 36.92231 36.92231 54.46988
#
# Poissons Ratio (x) = 0.34983 -0.12180
# Poissons Ratio (y) = 0.34983 -0.12180
# Poissons Ratio (z) = -0.08256 -0.08256
#
# Static dielectric constant tensor:
#      x y z
#    x 1.691920 0.000000 0.000000 
#    y 0.000000 1.691920 0.000000 
#    z 0.000000 0.000000 1.719280 
# 
# From -- ./inp_files/4229.got.cif
#   From: 2010.05.17/outbox.cif.g08.bks.cpg/sg127_3_cif.got.tgz:4229.got - 2010.05.20 12:03:00.
