data_PCOD9563420
_publ_section_title
;
Structure prediction by ZEFSAII (Michael W. Deem and Ramdas Pophale) SiO2 
 PCOD9563420
Probable space group: P 4/N N C
;
_chemical_formula_sum "Si O2"
_cell_formula_units_Z 96
_cell_length_a 21.602798
_cell_length_b 21.602798
_cell_length_c 10.848376
_cell_angle_alpha 90.000000
_cell_angle_beta 90.000000
_cell_angle_gamma 90.000000
_cell_volume 5062.729674
_symmetry_space_group_name_H-M "P 4/N N C"
_symmetry_group_IT_number 126
_space_group.IT_coordinate_system_code '2'
_symmetry_cell_setting 'tetragonal'
loop_
_space_group_symop_operation_xyz
x,y,z
1/2-y,x,z
1/2-x,1/2-y,z
y,1/2-x,z
x,1/2-y,1/2-z
1/2-x,y,1/2-z
y,x,1/2-z
1/2-y,1/2-x,1/2-z
-x,-y,-z
1/2+y,-x,-z
1/2+x,1/2+y,-z
-y,1/2+x,-z
-x,1/2+y,1/2+z
1/2+x,-y,1/2+z
-y,-x,1/2+z
1/2+y,1/2+x,1/2+z
loop_
_atom_site_type_symbol
_atom_site_label
_atom_site_fract_x
_atom_site_fract_y
_atom_site_fract_z
Si Si1 0.570539 0.762197 0.107311
Si Si2 0.175000 0.175000 0.250000
Si Si3 0.328477 0.704291 0.560232
Si Si4 0.053455 0.827377 0.438484
Si Si5 0.450726 0.482922 0.893151
Si Si6 0.636100 0.874852 0.013663
Si Si7 0.363826 0.750000 0.250000
O O1 0.555734 0.750000 0.250000
O O2 0.510717 0.791425 0.040882
O O3 0.624740 0.812462 0.092085
O O4 0.591411 0.698966 0.047706
O O5 0.250000 0.165371 0.250000
O O6 0.146228 0.142750 0.128509
O O7 0.278117 0.676034 0.461473
O O8 0.396785 0.676477 0.547752
O O9 0.298362 0.680064 0.683210
O O10 0.091419 0.788671 0.337862
O O11 0.034154 0.895860 0.396430
O O12 0.473713 0.473713 0.750000
O O13 0.500000 0.500000 0.000000
O O14 0.419101 0.419777 0.943368
#
# Coordination Sequence:
#
# PCOD9563420 Si02
#       7
#    16   8  16  16  16  16   8
#     4  11  21  39  62  99 128 177 224 280 340 401
#     4  11  22  42  68 102 134 174 212 284 370 421
#     4   9  20  36  61  95 123 159 208 268 342 400
#     4  10  22  38  64  92 127 170 222 266 341 395
#     4  11  27  45  67  97 134 188 236 282 337 407
#     4  11  23  41  68  94 139 172 230 286 341 418
#     4  10  20  39  68  90 134 159 214 282 336 407
#
# _framework density 18.962104
#
# number of rings (size 3 to 8) (size 9 to 14) (size 15 to 20)
#    0.000    1.583    2.500    2.500    3.500    7.000 
#    0.000    0.833    0.000    6.000    0.000    0.000 
#    0.000    0.000    0.000    0.000    0.000    0.000 
#
# Total GULP energy -535125.400707 kJ/mol
# GULP energy per Si atom -5574.222924 kJ/mol
# Density = 1.891895 g / cm^3
# Si number density = 18.962104 Si / 1000 Ang^3
#
#
#
# Elastic Constant Matrix: (Units=GPa)
#
#
# Indices 1 2 3 4 5 6 
#
# 1 101.1959 44.8086 43.1421 0.0000 0.0000 0.0000
# 2 44.8086 101.1959 43.1421 0.0000 0.0000 0.0000
# 3 43.1421 43.1421 105.2948 0.0000 0.0000 0.0000
# 4 0.0000 0.0000 0.0000 29.5506 0.0000 0.0000
# 5 0.0000 0.0000 0.0000 0.0000 29.5506 0.0000
# 6 0.0000 0.0000 0.0000 0.0000 0.0000 22.8265
#
#
#
# Elastic Compliance Matrix: (Units=1/GPa)
#
#
# Indices 1 2 3 4 5 6 
#
# 1 0.013386 -0.004349 -0.003703 0.000000 0.000000 0.000000
# 2 -0.004349 0.013386 -0.003703 0.000000 0.000000 0.000000
# 3 -0.003703 -0.003703 0.012531 0.000000 0.000000 0.000000
# 4 0.000000 0.000000 0.000000 0.033840 0.000000 0.000000
# 5 0.000000 0.000000 0.000000 0.000000 0.033840 0.000000
# 6 0.000000 0.000000 0.000000 0.000000 0.000000 0.043809
#
#
# Mechanical properties :
#
#
# Convention : Reuss Voigt Hill
#
# Bulk Modulus (GPa) = 63.31199 63.31914 63.31556
# Shear Modulus (GPa) = 27.84492 28.15848 28.00170
#
# Velocity S-wave (km/s) = 3.83619 3.85773 3.84698
# Velocity P-wave (km/s) = 7.28581 7.30122 7.29352
#
# Compressibility (1/GPa) = 0.01579480
#
# Stress axis : x y z
#
# Youngs Moduli (GPa) = 74.70529 74.70529 79.79922
#
# Poissons Ratio (x) = 0.32486 0.29548
# Poissons Ratio (y) = 0.32486 0.29548
# Poissons Ratio (z) = 0.27662 0.27662
#
# Static dielectric constant tensor:
#      x y z
#    x 1.673400 0.000000 0.000000 
#    y 0.000000 1.673400 0.000000 
#    z 0.000000 0.000000 1.712210 
# 
# From -- ./inp_files/2936.got.cif
#   From: 2010.05.17/outbox.cif.g08.bks.cpg/sg126_2_cif.got.tgz:2936.got - 2010.05.20 11:58:20.
