data_PCOD9563603
_publ_section_title
;
Structure prediction by ZEFSAII (Michael W. Deem and Ramdas Pophale) SiO2 
 PCOD9563603
Probable space group: P 4/N N C
;
_chemical_formula_sum "Si O2"
_cell_formula_units_Z 52
_cell_length_a 9.656478
_cell_length_b 9.656478
_cell_length_c 31.944640
_cell_angle_alpha 90.000000
_cell_angle_beta 90.000000
_cell_angle_gamma 90.000000
_cell_volume 2978.759970
_symmetry_space_group_name_H-M "P 4/N N C"
_symmetry_group_IT_number 126
_space_group.IT_coordinate_system_code '2'
_symmetry_cell_setting 'tetragonal'
loop_
_space_group_symop_operation_xyz
x,y,z
1/2-y,x,z
1/2-x,1/2-y,z
y,1/2-x,z
x,1/2-y,1/2-z
1/2-x,y,1/2-z
y,x,1/2-z
1/2-y,1/2-x,1/2-z
-x,-y,-z
1/2+y,-x,-z
1/2+x,1/2+y,-z
-y,1/2+x,-z
-x,1/2+y,1/2+z
1/2+x,-y,1/2+z
-y,-x,1/2+z
1/2+y,1/2+x,1/2+z
loop_
_atom_site_type_symbol
_atom_site_label
_atom_site_fract_x
_atom_site_fract_y
_atom_site_fract_z
Si Si1 0.969769 0.676897 0.651302
Si Si2 0.522909 0.796793 0.552643
Si Si3 0.901790 0.110680 0.730997
Si Si4 0.250000 0.750000 0.000000
O O1 0.918542 0.834249 0.659814
O O2 0.004720 0.680950 0.602188
O O3 0.090157 0.620951 0.681461
O O4 0.592440 0.645778 0.543998
O O5 0.380138 0.803384 0.527476
O O6 0.966331 0.250000 0.750000
O O7 0.750000 0.103825 0.750000
O O8 0.985798 0.985798 0.750000
#
# Coordination Sequence:
#
# PCOD9563603 Si02
#       4
#    16  16  16   4
#     4   9  17  34  57  78 106 142 183 231 274 312
#     4   9  20  37  56  81 113 146 179 226 278 325
#     4  11  22  34  54  82 109 144 183 226 272 324
#     4  12  20  32  60  88 110 144 184 224 268 340
#
# _framework density 17.456928000000001
#
# number of rings (size 3 to 8) (size 9 to 14) (size 15 to 20)
#    0.000    2.154    3.077    2.769    0.000    3.077 
#    0.000    0.000    0.000    0.000    0.000    0.000 
#    0.000    0.000    0.000    0.000    0.000    0.000 
#
# Total GULP energy -289489.368311 kJ/mol
# GULP energy per Si atom -5567.103237 kJ/mol
# Density = 1.741720 g / cm^3
# Si number density = 17.456928 Si / 1000 Ang^3
#
#
#
# Elastic Constant Matrix: (Units=GPa)
#
#
# Indices 1 2 3 4 5 6 
#
# 1 58.1632 13.9009 39.6114 0.0000 0.0000 0.0000
# 2 13.9009 58.1632 39.6114 0.0000 0.0000 0.0000
# 3 39.6114 39.6114 97.8561 0.0000 0.0000 0.0000
# 4 0.0000 0.0000 0.0000 46.8116 0.0000 0.0000
# 5 0.0000 0.0000 0.0000 0.0000 46.8116 0.0000
# 6 0.0000 0.0000 0.0000 0.0000 0.0000 20.6868
#
#
#
# Elastic Compliance Matrix: (Units=1/GPa)
#
#
# Indices 1 2 3 4 5 6 
#
# 1 0.023798 0.001205 -0.010121 0.000000 0.000000 0.000000
# 2 0.001205 0.023798 -0.010121 0.000000 0.000000 0.000000
# 3 -0.010121 -0.010121 0.018413 0.000000 0.000000 0.000000
# 4 0.000000 0.000000 0.000000 0.021362 0.000000 0.000000
# 5 0.000000 0.000000 0.000000 0.000000 0.021362 0.000000
# 6 0.000000 0.000000 0.000000 0.000000 0.000000 0.048340
#
#
# Mechanical properties :
#
#
# Convention : Reuss Voigt Hill
#
# Bulk Modulus (GPa) = 35.79768 44.49221 40.14494
# Shear Modulus (GPa) = 24.45489 30.93259 27.69374
#
# Velocity S-wave (km/s) = 3.74688 4.21401 3.98729
# Velocity P-wave (km/s) = 6.26655 7.01565 6.65165
#
# Compressibility (1/GPa) = 0.02793477
#
# Stress axis : x y z
#
# Youngs Moduli (GPa) = 42.02076 42.02076 54.30980
#
# Poissons Ratio (x) = -0.05064 0.54967
# Poissons Ratio (y) = -0.05064 0.54967
# Poissons Ratio (z) = 0.42529 0.42529
#
# Static dielectric constant tensor:
#      x y z
#    x 1.569060 0.000000 0.000000 
#    y 0.000000 1.569060 0.000000 
#    z 0.000000 0.000000 1.610400 
# 
# From -- ./inp_files/4873.got.cif
#   From: 2010.05.17/outbox.cif.g08.bks.cpg/sg126_3_cif.got.tgz:4873.got - 2010.05.20 11:58:20.
