data_PCOD9563285
_publ_section_title
;
Structure prediction by ZEFSAII (Michael W. Deem and Ramdas Pophale) SiO2 
 PCOD9563285
Probable space group: P 4/N N C
;
_chemical_formula_sum "Si O2"
_cell_formula_units_Z 80
_cell_length_a 31.934591
_cell_length_b 31.934591
_cell_length_c 5.384756
_cell_angle_alpha 90.000000
_cell_angle_beta 90.000000
_cell_angle_gamma 90.000000
_cell_volume 5491.471645
_symmetry_space_group_name_H-M "P 4/N N C"
_symmetry_group_IT_number 126
_space_group.IT_coordinate_system_code '2'
_symmetry_cell_setting 'tetragonal'
loop_
_space_group_symop_operation_xyz
x,y,z
1/2-y,x,z
1/2-x,1/2-y,z
y,1/2-x,z
x,1/2-y,1/2-z
1/2-x,y,1/2-z
y,x,1/2-z
1/2-y,1/2-x,1/2-z
-x,-y,-z
1/2+y,-x,-z
1/2+x,1/2+y,-z
-y,1/2+x,-z
-x,1/2+y,1/2+z
1/2+x,-y,1/2+z
-y,-x,1/2+z
1/2+y,1/2+x,1/2+z
loop_
_atom_site_type_symbol
_atom_site_label
_atom_site_fract_x
_atom_site_fract_y
_atom_site_fract_z
Si Si1 0.663868 0.906737 0.748492
Si Si2 0.000599 0.563955 0.221138
Si Si3 0.130727 0.200897 0.751789
Si Si4 0.898832 0.419051 0.775571
Si Si5 0.988580 0.613413 0.722935
O O1 0.621627 0.878374 0.750000
O O2 0.687988 0.894886 0.495748
O O3 0.649699 0.954718 0.758009
O O4 0.688885 0.893834 0.996083
O O5 0.982678 0.517323 0.250000
O O6 0.984078 0.589426 0.460517
O O7 0.050996 0.568108 0.219727
O O8 0.983972 0.583993 0.965705
O O9 0.139872 0.250000 0.750000
O O10 0.172632 0.172632 0.750000
O O11 0.894019 0.392964 0.527126
O O12 0.873887 0.462438 0.770583
#
# Coordination Sequence:
#
# PCOD9563285 Si02
#       5
#    16  16  16  16  16
#     4  10  19  30  45  63  79  93 108 129 160 199
#     4  10  17  23  32  47  69  98 127 147 158 169
#     4  10  21  36  51  65  77  87 102 127 165 219
#     4   8  16  24  31  45  67  96 126 148 160 170
#     4  10  18  26  36  51  72  95 117 139 160 181
#
# _framework density 14.568042
#
# number of rings (size 3 to 8) (size 9 to 14) (size 15 to 20)
#    0.000    2.400    0.000    3.600    0.000    9.800 
#    0.000    0.000    0.000    3.600    0.000    0.000 
#    0.000    0.000    0.000    0.000    0.000    0.000 
#
# Total GULP energy -445851.619359 kJ/mol
# GULP energy per Si atom -5573.145242 kJ/mol
# Density = 1.453488 g / cm^3
# Si number density = 14.568042 Si / 1000 Ang^3
#
#
#
# Elastic Constant Matrix: (Units=GPa)
#
#
# Indices 1 2 3 4 5 6 
#
# 1 41.0900 42.0525 27.2843 0.0000 0.0000 0.0000
# 2 42.0525 41.0898 27.2840 0.0000 0.0000 0.0000
# 3 27.2843 27.2840 133.4433 0.0000 0.0000 0.0000
# 4 0.0000 0.0000 0.0000 10.8665 0.0000 0.0000
# 5 0.0000 0.0000 0.0000 0.0000 10.8640 0.0000
# 6 0.0000 0.0000 0.0000 0.0000 0.0000 7.4775
#
#
#
# Elastic Compliance Matrix: (Units=1/GPa)
#
#
# Indices 1 2 3 4 5 6 
#
# 1 -0.512484 0.526376 -0.002839 0.000000 0.000000 0.000000
# 2 0.526376 -0.512485 -0.002841 0.000000 0.000000 0.000000
# 3 -0.002839 -0.002841 0.008655 0.000000 0.000000 0.000000
# 4 0.000000 0.000000 0.000000 0.092026 0.000000 0.000000
# 5 0.000000 0.000000 0.000000 0.000000 0.092047 0.000000
# 6 0.000000 0.000000 0.000000 0.000000 0.000000 0.133734
#
#
# Mechanical properties :
#
#
# Convention : Reuss Voigt Hill
#
# Bulk Modulus (GPa) = 39.87652 45.42942 42.65297
# Shear Modulus (GPa) = -2.88761 13.77509 5.44374
#
# Velocity S-wave (km/s) = -1.40942 3.07835 1.93517
# Velocity P-wave (km/s) = 4.97829 6.62472 5.85962
#
# Compressibility (1/GPa) = 0.02507741
#
# Stress axis : x y z
#
# Youngs Moduli (GPa) = -1.95128 -1.95128 115.53607
#
# Poissons Ratio (x) = 1.02711 0.32803
# Poissons Ratio (y) = 1.02711 0.32829
# Poissons Ratio (z) = -0.00554 -0.00554
#
# Static dielectric constant tensor:
#      x y z
#    x 1.465870 0.000000 0.000000 
#    y 0.000000 1.465870 0.000000 
#    z 0.000000 0.000000 1.563210 
# 
# From -- ./inp_files/594.got.cif
#   From: 2010.05.17/outbox.cif.g08.bks.cpg/sg126_1_cif.got.tgz:594.got - 2010.05.20 11:58:20.
