data_PCOD9563564
_publ_section_title
;
Structure prediction by ZEFSAII (Michael W. Deem and Ramdas Pophale) SiO2 
 PCOD9563564
Probable space group: P 4/N N C
;
_chemical_formula_sum "Si O2"
_cell_formula_units_Z 84
_cell_length_a 12.278514
_cell_length_b 12.278514
_cell_length_c 26.850898
_cell_angle_alpha 90.000000
_cell_angle_beta 90.000000
_cell_angle_gamma 90.000000
_cell_volume 4048.092562
_symmetry_space_group_name_H-M "P 4/N N C"
_symmetry_group_IT_number 126
_space_group.IT_coordinate_system_code '2'
_symmetry_cell_setting 'tetragonal'
loop_
_space_group_symop_operation_xyz
x,y,z
1/2-y,x,z
1/2-x,1/2-y,z
y,1/2-x,z
x,1/2-y,1/2-z
1/2-x,y,1/2-z
y,x,1/2-z
1/2-y,1/2-x,1/2-z
-x,-y,-z
1/2+y,-x,-z
1/2+x,1/2+y,-z
-y,1/2+x,-z
-x,1/2+y,1/2+z
1/2+x,-y,1/2+z
-y,-x,1/2+z
1/2+y,1/2+x,1/2+z
loop_
_atom_site_type_symbol
_atom_site_label
_atom_site_fract_x
_atom_site_fract_y
_atom_site_fract_z
Si Si1 0.823575 0.357822 0.140775
Si Si2 0.103140 0.357436 0.498686
Si Si3 0.750000 0.750000 0.180084
Si Si4 0.465010 0.984898 0.418813
Si Si5 0.011963 0.148512 0.663401
Si Si6 0.941909 0.377811 0.245921
O O1 0.750000 0.250000 0.141723
O O2 0.918286 0.359351 0.099706
O O3 0.744737 0.459853 0.130778
O O4 0.878422 0.383175 0.193884
O O5 0.103531 0.227937 0.504137
O O6 0.063016 0.402101 0.445388
O O7 0.029513 0.413423 0.540578
O O8 0.866027 0.679879 0.179328
O O9 0.541992 0.994553 0.370841
O O10 0.932443 0.130977 0.710650
O O11 0.964273 0.250000 0.250000
O O12 0.051289 0.448712 0.250000
#
# Coordination Sequence:
#
# PCOD9563564 Si02
#       6
#    16  16   4  16  16  16
#     4  12  25  43  71 102 143 193 239 305 367 447
#     4  10  24  45  72  98 138 184 230 308 381 441
#     4  12  24  44  69 108 152 188 248 304 376 445
#     4  11  24  44  70 104 136 179 247 297 370 456
#     4  12  24  41  70 103 141 192 239 302 368 448
#     4  12  25  46  68 101 145 193 251 299 370 444
#
# _framework density 20.750513000000002
#
# number of rings (size 3 to 8) (size 9 to 14) (size 15 to 20)
#    0.000    0.571    5.714    1.714    2.667    0.190 
#    0.000    4.286    0.000    0.000    0.000    0.000 
#    0.000    0.000    0.000    0.000    0.000    0.000 
#
# Total GULP energy -468326.078986 kJ/mol
# GULP energy per Si atom -5575.310464 kJ/mol
# Density = 2.070328 g / cm^3
# Si number density = 20.750513 Si / 1000 Ang^3
#
#
#
# Elastic Constant Matrix: (Units=GPa)
#
#
# Indices 1 2 3 4 5 6 
#
# 1 90.9059 10.8150 30.2903 0.0000 0.0000 0.0000
# 2 10.8150 90.9064 30.2899 0.0000 0.0000 0.0000
# 3 30.2903 30.2899 92.7335 0.0000 0.0000 0.0000
# 4 0.0000 0.0000 0.0000 20.7450 0.0000 0.0000
# 5 0.0000 0.0000 0.0000 0.0000 20.7439 0.0000
# 6 0.0000 0.0000 0.0000 0.0000 0.0000 44.5091
#
#
#
# Elastic Compliance Matrix: (Units=1/GPa)
#
#
# Indices 1 2 3 4 5 6 
#
# 1 0.012345 -0.000140 -0.003987 0.000000 0.000000 0.000000
# 2 -0.000140 0.012345 -0.003987 0.000000 0.000000 0.000000
# 3 -0.003987 -0.003987 0.013388 0.000000 0.000000 0.000000
# 4 0.000000 0.000000 0.000000 0.048204 0.000000 0.000000
# 5 0.000000 0.000000 0.000000 0.000000 0.048207 0.000000
# 6 0.000000 0.000000 0.000000 0.000000 0.000000 0.022467
#
#
# Mechanical properties :
#
#
# Convention : Reuss Voigt Hill
#
# Bulk Modulus (GPa) = 45.76330 46.37068 46.06699
# Shear Modulus (GPa) = 27.70569 30.74297 29.22433
#
# Velocity S-wave (km/s) = 3.65798 3.85327 3.75689
# Velocity P-wave (km/s) = 6.32005 6.49555 6.40840
#
# Compressibility (1/GPa) = 0.02185157
#
# Stress axis : x y z
#
# Youngs Moduli (GPa) = 81.00143 81.00221 74.69415
#
# Poissons Ratio (x) = 0.01137 0.29778
# Poissons Ratio (y) = 0.01137 0.29777
# Poissons Ratio (z) = 0.32292 0.32292
#
# Static dielectric constant tensor:
#      x y z
#    x 1.787060 0.000000 0.000000 
#    y 0.000000 1.787090 0.000000 
#    z 0.000000 0.000000 1.772570 
# 
# From -- ./inp_files/6529.got.cif
#   From: 2010.05.17/outbox.cif.g08.bks.cpg/sg126_4_cif.got.tgz:6529.got - 2010.05.20 11:58:20.
