data_PCOD9563379
_publ_section_title
;
Structure prediction by ZEFSAII (Michael W. Deem and Ramdas Pophale) SiO2 
 PCOD9563379
Probable space group: P 4/N N C
;
_chemical_formula_sum "Si O2"
_cell_formula_units_Z 72
_cell_length_a 20.414257
_cell_length_b 20.414257
_cell_length_c 8.563834
_cell_angle_alpha 90.000000
_cell_angle_beta 90.000000
_cell_angle_gamma 90.000000
_cell_volume 3568.908357
_symmetry_space_group_name_H-M "P 4/N N C"
_symmetry_group_IT_number 126
_space_group.IT_coordinate_system_code '2'
_symmetry_cell_setting 'tetragonal'
loop_
_space_group_symop_operation_xyz
x,y,z
1/2-y,x,z
1/2-x,1/2-y,z
y,1/2-x,z
x,1/2-y,1/2-z
1/2-x,y,1/2-z
y,x,1/2-z
1/2-y,1/2-x,1/2-z
-x,-y,-z
1/2+y,-x,-z
1/2+x,1/2+y,-z
-y,1/2+x,-z
-x,1/2+y,1/2+z
1/2+x,-y,1/2+z
-y,-x,1/2+z
1/2+y,1/2+x,1/2+z
loop_
_atom_site_type_symbol
_atom_site_label
_atom_site_fract_x
_atom_site_fract_y
_atom_site_fract_z
Si Si1 0.732163 0.570311 0.084272
Si Si2 0.085947 0.943838 0.254192
Si Si3 0.417027 0.461458 0.968910
Si Si4 0.250000 0.140380 0.250000
Si Si5 0.845655 0.024282 0.460375
O O1 0.750000 0.605025 0.250000
O O2 0.655062 0.557247 0.086975
O O3 0.776088 0.504595 0.083370
O O4 0.748739 0.602834 0.916275
O O5 0.021068 0.944214 0.363546
O O6 0.076713 0.877845 0.155485
O O7 0.148075 0.947132 0.366466
O O8 0.089112 0.005392 0.138343
O O9 0.463343 0.398145 0.960561
O O10 0.313828 0.186172 0.250000
#
# Coordination Sequence:
#
# PCOD9563379 Si02
#       5
#    16  16  16   8  16
#     4  12  25  39  59  88 120 151 196 248 295 343
#     4  10  20  34  57  82 111 148 187 233 294 360
#     4  11  20  35  56  83 115 150 188 234 292 349
#     4  11  26  44  58  76 110 162 212 245 280 330
#     4  11  20  35  56  83 115 150 188 234 292 349
#
# _framework density 20.174237000000002
#
# number of rings (size 3 to 8) (size 9 to 14) (size 15 to 20)
#    0.000    1.000    2.222    8.000    0.000    2.667 
#    0.000    1.111    0.000    0.000    0.000    0.000 
#    0.000   62.222    0.000    0.000    0.000    0.000 
#
# Total GULP energy -402230.727821 kJ/mol
# GULP energy per Si atom -5586.537886 kJ/mol
# Density = 2.012832 g / cm^3
# Si number density = 20.174237 Si / 1000 Ang^3
#
#
#
# Elastic Constant Matrix: (Units=GPa)
#
#
# Indices 1 2 3 4 5 6 
#
# 1 61.0012 24.9456 25.7753 0.0000 0.0000 0.0000
# 2 24.9456 61.0018 25.7753 0.0000 0.0000 0.0000
# 3 25.7753 25.7753 159.3960 0.0000 0.0000 0.0000
# 4 0.0000 0.0000 0.0000 25.2526 0.0000 0.0000
# 5 0.0000 0.0000 0.0000 0.0000 25.2520 0.0000
# 6 0.0000 0.0000 0.0000 0.0000 0.0000 31.0072
#
#
#
# Elastic Compliance Matrix: (Units=1/GPa)
#
#
# Indices 1 2 3 4 5 6 
#
# 1 0.020310 -0.007425 -0.002084 0.000000 0.000000 0.000000
# 2 -0.007425 0.020310 -0.002084 0.000000 0.000000 0.000000
# 3 -0.002084 -0.002084 0.006948 0.000000 0.000000 0.000000
# 4 0.000000 0.000000 0.000000 0.039600 0.000000 0.000000
# 5 0.000000 0.000000 0.000000 0.000000 0.039601 0.000000
# 6 0.000000 0.000000 0.000000 0.000000 0.000000 0.032251
#
#
# Mechanical properties :
#
#
# Convention : Reuss Voigt Hill
#
# Bulk Modulus (GPa) = 41.01241 48.26573 44.63907
# Shear Modulus (GPa) = 26.27018 29.96257 28.11638
#
# Velocity S-wave (km/s) = 3.61247 3.85800 3.73725
# Velocity P-wave (km/s) = 6.14598 6.61981 6.38729
#
# Compressibility (1/GPa) = 0.02438286
#
# Stress axis : x y z
#
# Youngs Moduli (GPa) = 49.23723 49.23775 143.93618
#
# Poissons Ratio (x) = 0.36559 0.29990
# Poissons Ratio (y) = 0.36559 0.29989
# Poissons Ratio (z) = 0.10259 0.10259
#
# Static dielectric constant tensor:
#      x y z
#    x 1.702710 0.000000 0.000000 
#    y 0.000000 1.702710 0.000000 
#    z 0.000000 0.000000 1.861590 
# 
# From -- ./inp_files/1577.got.cif
#   From: 2010.05.17/outbox.cif.g08.bks.cpg/sg126_1_cif.got.tgz:1577.got - 2010.05.20 11:58:20.
