data_PCOD9563813
_publ_section_title
;
Structure prediction by ZEFSAII (Michael W. Deem and Ramdas Pophale) SiO2 
 PCOD9563813
Probable space group: P 4/M B M
;
_chemical_formula_sum "Si O2"
_cell_formula_units_Z 96
_cell_length_a 23.289997
_cell_length_b 23.289997
_cell_length_c 8.972701
_cell_angle_alpha 90.000000
_cell_angle_beta 90.000000
_cell_angle_gamma 90.000000
_cell_volume 4867.008011
_symmetry_space_group_name_H-M "P 4/M B M"
_symmetry_group_IT_number 127
_symmetry_cell_setting 'tetragonal'
loop_
_space_group_symop_operation_xyz
x,y,z
-y,x,z
-x,-y,z
y,-x,z
1/2+x,1/2-y,-z
1/2-x,1/2+y,-z
1/2+y,1/2+x,-z
1/2-y,1/2-x,-z
-x,-y,-z
y,-x,-z
x,y,-z
-y,x,-z
1/2-x,1/2+y,z
1/2+x,1/2-y,z
1/2-y,1/2-x,z
1/2+y,1/2+x,z
loop_
_atom_site_type_symbol
_atom_site_label
_atom_site_fract_x
_atom_site_fract_y
_atom_site_fract_z
Si Si1 0.121116 0.283635 0.819971
Si Si2 0.804831 0.304831 0.327541
Si Si3 0.891989 0.391989 0.820447
Si Si4 0.670094 0.329311 0.324601
Si Si5 0.948501 0.191264 0.823491
Si Si6 0.993190 0.315098 0.181423
Si Si7 0.404672 0.494889 0.673604
O O1 0.172143 0.327858 0.780468
O O2 0.133958 0.221792 0.748928
O O3 0.059459 0.309500 0.772551
O O4 0.120495 0.277719 0.000000
O O5 0.818481 0.318481 0.500000
O O6 0.844626 0.344626 0.225996
O O7 0.737476 0.314809 0.304159
O O8 0.868398 0.453864 0.767972
O O9 0.893992 0.393992 0.000000
O O10 0.657010 0.332747 0.500000
O O11 0.665815 0.391602 0.251121
O O12 0.961171 0.256207 0.773279
O O13 0.001080 0.150664 0.775952
O O14 0.941567 0.191522 0.000000
O O15 0.993702 0.316276 0.000000
O O16 0.448290 0.443090 0.699217
O O17 0.387439 0.494004 0.500000
#
# Coordination Sequence:
#
# PCOD9563813 Si02
#       7
#    16   8   8  16  16  16  16
#     4  10  21  38  59  84 117 152 187 230 283 339
#     4  10  20  34  54  81 113 138 175 226 271 330
#     4  10  18  36  61  80 110 150 189 229 280 336
#     4  11  22  37  56  82 114 146 183 228 281 341
#     4  11  22  35  54  83 115 147 190 237 284 339
#     4   9  20  36  56  84 113 145 188 236 281 334
#     4   9  20  39  57  74 105 150 197 239 280 331
#
# _framework density 19.724644000000001
#
# number of rings (size 3 to 8) (size 9 to 14) (size 15 to 20)
#    0.000    2.000    2.500    1.500    2.333    1.333 
#    0.000    2.917    0.000    2.500    0.000    0.000 
#    0.000    2.000    0.000    0.000    0.000    0.000 
#
# Total GULP energy -535937.767732 kJ/mol
# GULP energy per Si atom -5582.685081 kJ/mol
# Density = 1.967975 g / cm^3
# Si number density = 19.724644 Si / 1000 Ang^3
#
#
#
# Elastic Constant Matrix: (Units=GPa)
#
#
# Indices 1 2 3 4 5 6 
#
# 1 46.1836 55.0000 21.3965 0.0000 0.0000 0.0000
# 2 55.0000 46.1836 21.3965 0.0000 0.0000 0.0000
# 3 21.3965 21.3965 16.7761 0.0000 0.0000 0.0000
# 4 0.0000 0.0000 0.0000 13.9326 0.0000 0.0000
# 5 0.0000 0.0000 0.0000 0.0000 13.9326 0.0000
# 6 0.0000 0.0000 0.0000 0.0000 0.0000 29.7002
#
#
#
# Elastic Compliance Matrix: (Units=1/GPa)
#
#
# Indices 1 2 3 4 5 6 
#
# 1 -0.045984 0.067441 -0.027367 0.000000 0.000000 0.000000
# 2 0.067441 -0.045984 -0.027367 0.000000 0.000000 0.000000
# 3 -0.027367 -0.027367 0.129417 0.000000 0.000000 0.000000
# 4 0.000000 0.000000 0.000000 0.071774 0.000000 0.000000
# 5 0.000000 0.000000 0.000000 0.000000 0.071774 0.000000
# 6 0.000000 0.000000 0.000000 0.000000 0.000000 0.033670
#
#
# Mechanical properties :
#
#
# Convention : Reuss Voigt Hill
#
# Bulk Modulus (GPa) = 15.90735 33.85882 24.88308
# Shear Modulus (GPa) = 23.78589 12.26975 18.02782
#
# Velocity S-wave (km/s) = 3.47637 2.49680 3.02648
# Velocity P-wave (km/s) = 4.91892 5.05124 4.98552
#
# Compressibility (1/GPa) = 0.06286404
#
# Stress axis : x y z
#
# Youngs Moduli (GPa) = -21.74684 -21.74684 7.72694
#
# Poissons Ratio (x) = 1.46663 0.21146
# Poissons Ratio (y) = 1.46663 0.21146
# Poissons Ratio (z) = -0.59514 -0.59514
#
# Static dielectric constant tensor:
#      x y z
#    x 1.711390 0.000000 0.000000 
#    y 0.000000 1.711390 0.000000 
#    z 0.000000 0.000000 1.660200 
# 
# From -- ./inp_files/2054.got.cif
#   From: 2010.05.17/outbox.cif.g08.bks.cpg/sg127_2_cif.got.tgz:2054.got - 2010.05.20 12:03:00.
