data_PCOD9563202
_publ_section_title
;
Structure prediction by ZEFSAII (Michael W. Deem and Ramdas Pophale) SiO2 
 PCOD9563202
Probable space group: P 4/N B M
;
_chemical_formula_sum "Si O2"
_cell_formula_units_Z 72
_cell_length_a 13.823815
_cell_length_b 13.823815
_cell_length_c 21.197313
_cell_angle_alpha 90.000000
_cell_angle_beta 90.000000
_cell_angle_gamma 90.000000
_cell_volume 4050.761177
_symmetry_space_group_name_H-M "P 4/N B M"
_symmetry_group_IT_number 125
_space_group.IT_coordinate_system_code '2'
_symmetry_cell_setting 'tetragonal'
loop_
_space_group_symop_operation_xyz
x,y,z
1/2-y,x,z
1/2-x,1/2-y,z
y,1/2-x,z
x,1/2-y,-z
1/2-x,y,-z
y,x,-z
1/2-y,1/2-x,-z
-x,-y,-z
1/2+y,-x,-z
1/2+x,1/2+y,-z
-y,1/2+x,-z
-x,1/2+y,z
1/2+x,-y,z
-y,-x,z
1/2+y,1/2+x,z
loop_
_atom_site_type_symbol
_atom_site_label
_atom_site_fract_x
_atom_site_fract_y
_atom_site_fract_z
Si Si1 0.515878 0.854858 0.693739
Si Si2 0.250000 0.414067 0.500000
Si Si3 0.649125 0.505253 0.963702
Si Si4 0.603634 0.678037 0.169924
Si Si5 0.996014 0.660608 0.375424
O O1 0.553576 0.853237 0.765204
O O2 0.490624 0.745610 0.675088
O O3 0.598563 0.902308 0.648159
O O4 0.424066 0.924066 0.687518
O O5 0.158019 0.341982 0.500000
O O6 0.278987 0.478331 0.560277
O O7 0.598477 0.401524 0.965816
O O8 0.656035 0.541529 0.891932
O O9 0.750000 0.505401 0.000000
O O10 0.580027 0.580027 0.000000
O O11 0.707484 0.625579 0.168544
O O12 0.084499 0.584499 0.380229
#
# Coordination Sequence:
#
# PCOD9563202 Si02
#       5
#    16   8  16  16  16
#     4  11  23  41  63  90 130 167 206 259 313 373
#     4  11  22  38  66  95 120 162 209 256 308 371
#     4  11  23  40  62  89 126 167 208 257 319 380
#     4  11  21  36  65  95 121 160 212 267 314 368
#     4  11  24  41  65  94 125 165 211 257 314 377
#
# _framework density 17.774438
#
# number of rings (size 3 to 8) (size 9 to 14) (size 15 to 20)
#    0.000    1.000    6.667    0.667    0.000    2.667 
#    0.000    1.111    0.000    2.667    0.000    0.000 
#    0.000    0.000    0.000    0.000    0.000    0.000 
#
# Total GULP energy -401668.034233 kJ/mol
# GULP energy per Si atom -5578.722698 kJ/mol
# Density = 1.773398 g / cm^3
# Si number density = 17.774438 Si / 1000 Ang^3
#
#
#
# Elastic Constant Matrix: (Units=GPa)
#
#
# Indices 1 2 3 4 5 6 
#
# 1 83.1225 40.6285 32.5960 0.0000 0.0000 0.0000
# 2 40.6285 83.1224 32.5961 0.0000 0.0000 0.0000
# 3 32.5960 32.5961 125.0434 0.0000 0.0000 0.0000
# 4 0.0000 0.0000 0.0000 25.1169 0.0000 0.0000
# 5 0.0000 0.0000 0.0000 0.0000 25.1168 0.0000
# 6 0.0000 0.0000 0.0000 0.0000 0.0000 13.4545
#
#
#
# Elastic Compliance Matrix: (Units=1/GPa)
#
#
# Indices 1 2 3 4 5 6 
#
# 1 0.016450 -0.007083 -0.002442 0.000000 0.000000 0.000000
# 2 -0.007083 0.016450 -0.002442 0.000000 0.000000 0.000000
# 3 -0.002442 -0.002442 0.009270 0.000000 0.000000 0.000000
# 4 0.000000 0.000000 0.000000 0.039814 0.000000 0.000000
# 5 0.000000 0.000000 0.000000 0.000000 0.039814 0.000000
# 6 0.000000 0.000000 0.000000 0.000000 0.000000 0.074325
#
#
# Mechanical properties :
#
#
# Convention : Reuss Voigt Hill
#
# Bulk Modulus (GPa) = 54.83277 55.88104 55.35691
# Shear Modulus (GPa) = 22.11075 25.10216 23.60645
#
# Velocity S-wave (km/s) = 3.53081 3.76208 3.64828
# Velocity P-wave (km/s) = 6.89481 7.09777 6.99702
#
# Compressibility (1/GPa) = 0.01823727
#
# Stress axis : x y z
#
# Youngs Moduli (GPa) = 60.79066 60.79050 107.87173
#
# Poissons Ratio (x) = 0.43057 0.26340
# Poissons Ratio (y) = 0.43057 0.26340
# Poissons Ratio (z) = 0.14844 0.14844
#
# Static dielectric constant tensor:
#      x y z
#    x 1.585450 0.000000 0.000000 
#    y 0.000000 1.585450 0.000000 
#    z 0.000000 0.000000 1.610240 
# 
# From -- ./inp_files/5356.got.cif
#   From: 2010.05.17/outbox.cif.g08.bks.cpg/sg125_3_cif.got.tgz:5356.got - 2010.05.20 11:54:10.
