data_PCOD9563423
_publ_section_title
;
Structure prediction by ZEFSAII (Michael W. Deem and Ramdas Pophale) SiO2 
 PCOD9563423
Probable space group: P 4/N N C
;
_chemical_formula_sum "Si O2"
_cell_formula_units_Z 96
_cell_length_a 14.905942
_cell_length_b 14.905942
_cell_length_c 21.167084
_cell_angle_alpha 90.000000
_cell_angle_beta 90.000000
_cell_angle_gamma 90.000000
_cell_volume 4703.053156
_symmetry_space_group_name_H-M "P 4/N N C"
_symmetry_group_IT_number 126
_space_group.IT_coordinate_system_code '2'
_symmetry_cell_setting 'tetragonal'
loop_
_space_group_symop_operation_xyz
x,y,z
1/2-y,x,z
1/2-x,1/2-y,z
y,1/2-x,z
x,1/2-y,1/2-z
1/2-x,y,1/2-z
y,x,1/2-z
1/2-y,1/2-x,1/2-z
-x,-y,-z
1/2+y,-x,-z
1/2+x,1/2+y,-z
-y,1/2+x,-z
-x,1/2+y,1/2+z
1/2+x,-y,1/2+z
-y,-x,1/2+z
1/2+y,1/2+x,1/2+z
loop_
_atom_site_type_symbol
_atom_site_label
_atom_site_fract_x
_atom_site_fract_y
_atom_site_fract_z
Si Si1 0.889897 0.693912 0.425769
Si Si2 0.460798 0.164148 0.714912
Si Si3 0.149021 0.898298 0.247809
Si Si4 0.497879 0.148035 0.118827
Si Si5 0.951001 0.094428 0.988881
Si Si6 0.646276 0.489988 0.616031
O O1 0.862879 0.798037 0.433778
O O2 0.927979 0.670960 0.356329
O O3 0.970849 0.663758 0.470176
O O4 0.420776 0.250000 0.750000
O O5 0.423074 0.076927 0.750000
O O6 0.567055 0.163023 0.725406
O O7 0.250000 0.859533 0.250000
O O8 0.147303 0.971182 0.191623
O O9 0.133142 0.941631 0.316596
O O10 0.575059 0.116785 0.068719
O O11 0.418596 0.076078 0.112262
O O12 0.477446 0.251834 0.107159
O O13 0.920917 0.123211 0.058929
O O14 0.000000 0.000000 0.000000
#
# Coordination Sequence:
#
# PCOD9563423 Si02
#       6
#    16  16  16  16  16  16
#     4  11  24  41  63  97 134 168 212 269 330 404
#     4  12  23  37  65  94 130 169 210 267 335 399
#     4  10  22  42  65  89 119 168 224 266 317 383
#     4  10  20  40  63  89 119 161 207 260 319 384
#     4  10  23  39  60  88 125 168 208 250 321 393
#     4  10  22  37  62  90 122 156 208 268 313 388
#
# _framework density 20.412272000000002
#
# number of rings (size 3 to 8) (size 9 to 14) (size 15 to 20)
#    0.000    1.500    3.333    1.500    7.000    0.833 
#    0.000    0.000    0.000    3.500    0.000    0.000 
#    0.000    0.000    0.000    0.000    0.000    0.000 
#
# Total GULP energy -535449.318374 kJ/mol
# GULP energy per Si atom -5577.597066 kJ/mol
# Density = 2.036581 g / cm^3
# Si number density = 20.412272 Si / 1000 Ang^3
#
#
#
# Elastic Constant Matrix: (Units=GPa)
#
#
# Indices 1 2 3 4 5 6 
#
# 1 73.0908 18.7207 22.5907 0.0000 0.0000 0.0000
# 2 18.7207 73.0919 22.5910 0.0000 0.0000 0.0000
# 3 22.5907 22.5910 152.8274 0.0000 0.0000 0.0000
# 4 0.0000 0.0000 0.0000 24.1643 0.0000 0.0000
# 5 0.0000 0.0000 0.0000 0.0000 24.1641 0.0000
# 6 0.0000 0.0000 0.0000 0.0000 0.0000 21.1631
#
#
#
# Elastic Compliance Matrix: (Units=1/GPa)
#
#
# Indices 1 2 3 4 5 6 
#
# 1 0.015069 -0.003323 -0.001736 0.000000 0.000000 0.000000
# 2 -0.003323 0.015069 -0.001736 0.000000 0.000000 0.000000
# 3 -0.001736 -0.001736 0.007057 0.000000 0.000000 0.000000
# 4 0.000000 0.000000 0.000000 0.041383 0.000000 0.000000
# 5 0.000000 0.000000 0.000000 0.000000 0.041384 0.000000
# 6 0.000000 0.000000 0.000000 0.000000 0.000000 0.047252
#
#
# Mechanical properties :
#
#
# Convention : Reuss Voigt Hill
#
# Bulk Modulus (GPa) = 42.36588 47.42389 44.89488
# Shear Modulus (GPa) = 26.50078 29.57214 28.03646
#
# Velocity S-wave (km/s) = 3.60707 3.81037 3.71011
# Velocity P-wave (km/s) = 6.17641 6.53008 6.35571
#
# Compressibility (1/GPa) = 0.02360390
#
# Stress axis : x y z
#
# Youngs Moduli (GPa) = 66.35963 66.36067 141.71019
#
# Poissons Ratio (x) = 0.22052 0.24606
# Poissons Ratio (y) = 0.22051 0.24606
# Poissons Ratio (z) = 0.11522 0.11522
#
# Static dielectric constant tensor:
#      x y z
#    x 1.775610 0.000000 0.000000 
#    y 0.000000 1.775640 0.000000 
#    z 0.000000 0.000000 1.770660 
# 
# From -- ./inp_files/5261.got.cif
#   From: 2010.05.17/outbox.cif.g08.bks.cpg/sg126_3_cif.got.tgz:5261.got - 2010.05.20 11:58:20.
