data_PCOD9563826
_publ_section_title
;
Structure prediction by ZEFSAII (Michael W. Deem and Ramdas Pophale) SiO2 
 PCOD9563826
Probable space group: P 4/M B M
;
_chemical_formula_sum "Si O2"
_cell_formula_units_Z 96
_cell_length_a 23.837678
_cell_length_b 23.837678
_cell_length_c 7.548449
_cell_angle_alpha 90.000000
_cell_angle_beta 90.000000
_cell_angle_gamma 90.000000
_cell_volume 4289.292106
_symmetry_space_group_name_H-M "P 4/M B M"
_symmetry_group_IT_number 127
_symmetry_cell_setting 'tetragonal'
loop_
_space_group_symop_operation_xyz
x,y,z
-y,x,z
-x,-y,z
y,-x,z
1/2+x,1/2-y,-z
1/2-x,1/2+y,-z
1/2+y,1/2+x,-z
1/2-y,1/2-x,-z
-x,-y,-z
y,-x,-z
x,y,-z
-y,x,-z
1/2-x,1/2+y,z
1/2+x,1/2-y,z
1/2-y,1/2-x,z
1/2+y,1/2+x,z
loop_
_atom_site_type_symbol
_atom_site_label
_atom_site_fract_x
_atom_site_fract_y
_atom_site_fract_z
Si Si1 0.127821 0.716447 0.209776
Si Si2 0.388880 0.625832 0.716290
Si Si3 0.216415 0.502484 0.693684
Si Si4 0.337455 0.507388 0.282853
Si Si5 0.779306 0.191914 0.705605
Si Si6 0.411492 0.000899 0.788725
O O1 0.155694 0.655694 0.226802
O O2 0.069954 0.719511 0.309078
O O3 0.172726 0.760300 0.282194
O O4 0.119211 0.726753 0.000000
O O5 0.384767 0.627065 0.500000
O O6 0.454579 0.623637 0.762008
O O7 0.357264 0.569088 0.775914
O O8 0.360397 0.684509 0.778934
O O9 0.219643 0.476231 0.500000
O O10 0.275538 0.490218 0.785008
O O11 0.153943 0.491483 0.758075
O O12 0.334673 0.510265 0.500000
O O13 0.766626 0.179722 0.500000
O O14 0.723214 0.223214 0.781017
O O15 0.441706 0.058295 0.722877
O O16 0.449818 0.949818 0.721337
O O17 0.416767 0.002236 0.000000
#
# Coordination Sequence:
#
# PCOD9563826 Si02
#       6
#    16  16  16  16  16  16
#     4  10  19  29  45  71 100 130 164 202 247 300
#     4   9  16  30  48  72 103 132 170 215 261 310
#     4  11  20  31  48  76 106 133 169 214 259 303
#     4   9  18  30  48  73 103 134 168 217 266 312
#     4   9  16  28  48  72  99 129 159 198 251 307
#     4   9  19  36  55  75 103 140 178 212 250 303
#
# _framework density 22.381316999999999
#
# number of rings (size 3 to 8) (size 9 to 14) (size 15 to 20)
#    0.000    2.500    1.667    2.000    0.000    4.000 
#    0.000    3.333    0.000    5.000    0.000    2.333 
#    0.000    1.333    0.000    0.000    0.000    0.000 
#
# Total GULP energy -534694.240419 kJ/mol
# GULP energy per Si atom -5569.731671 kJ/mol
# Density = 2.233038 g / cm^3
# Si number density = 22.381317 Si / 1000 Ang^3
#
#
#
# Elastic Constant Matrix: (Units=GPa)
#
#
# Indices 1 2 3 4 5 6 
#
# 1 99.8434 63.4486 4.0971 0.0000 0.0000 0.0000
# 2 63.4486 99.8434 4.0971 0.0000 0.0000 0.0000
# 3 4.0971 4.0971 51.2642 0.0000 0.0000 0.0000
# 4 0.0000 0.0000 0.0000 12.3256 0.0000 0.0000
# 5 0.0000 0.0000 0.0000 0.0000 12.3256 0.0000
# 6 0.0000 0.0000 0.0000 0.0000 0.0000 27.5136
#
#
#
# Elastic Compliance Matrix: (Units=1/GPa)
#
#
# Indices 1 2 3 4 5 6 
#
# 1 0.016813 -0.010664 -0.000491 0.000000 0.000000 0.000000
# 2 -0.010664 0.016813 -0.000491 0.000000 0.000000 0.000000
# 3 -0.000491 -0.000491 0.019585 0.000000 0.000000 0.000000
# 4 0.000000 0.000000 0.000000 0.081132 0.000000 0.000000
# 5 0.000000 0.000000 0.000000 0.000000 0.081132 0.000000
# 6 0.000000 0.000000 0.000000 0.000000 0.000000 0.036346
#
#
# Mechanical properties :
#
#
# Convention : Reuss Voigt Hill
#
# Bulk Modulus (GPa) = 33.42579 43.80407 38.61493
# Shear Modulus (GPa) = 17.53860 22.38685 19.96272
#
# Velocity S-wave (km/s) = 2.80237 3.16610 2.98977
# Velocity P-wave (km/s) = 5.04362 5.74280 5.40453
#
# Compressibility (1/GPa) = 0.02991702
#
# Stress axis : x y z
#
# Youngs Moduli (GPa) = 59.47937 59.47937 51.05861
#
# Poissons Ratio (x) = 0.63428 0.02509
# Poissons Ratio (y) = 0.63428 0.02509
# Poissons Ratio (z) = 0.02923 0.02923
#
# Static dielectric constant tensor:
#      x y z
#    x 1.850490 0.000000 0.000000 
#    y 0.000000 1.850490 0.000000 
#    z 0.000000 0.000000 1.853500 
# 
# From -- ./inp_files/1968.got.cif
#   From: 2010.05.17/outbox.cif.g08.bks.cpg/sg127_1_cif.got.tgz:1968.got - 2010.05.20 12:03:00.
