data_PCOD9563861
_publ_section_title
;
Structure prediction by ZEFSAII (Michael W. Deem and Ramdas Pophale) SiO2 
 PCOD9563861
Probable space group: P 4/M B M
;
_chemical_formula_sum "Si O2"
_cell_formula_units_Z 104
_cell_length_a 27.528277
_cell_length_b 27.528277
_cell_length_c 7.983340
_cell_angle_alpha 90.000000
_cell_angle_beta 90.000000
_cell_angle_gamma 90.000000
_cell_volume 6049.823228
_symmetry_space_group_name_H-M "P 4/M B M"
_symmetry_group_IT_number 127
_symmetry_cell_setting 'tetragonal'
loop_
_space_group_symop_operation_xyz
x,y,z
-y,x,z
-x,-y,z
y,-x,z
1/2+x,1/2-y,-z
1/2-x,1/2+y,-z
1/2+y,1/2+x,-z
1/2-y,1/2-x,-z
-x,-y,-z
y,-x,-z
x,y,-z
-y,x,-z
1/2-x,1/2+y,z
1/2+x,1/2-y,z
1/2-y,1/2-x,z
1/2+y,1/2+x,z
loop_
_atom_site_type_symbol
_atom_site_label
_atom_site_fract_x
_atom_site_fract_y
_atom_site_fract_z
Si Si1 0.368986 0.418305 0.701260
Si Si2 0.626585 0.795473 0.802835
Si Si3 0.499367 0.291600 0.703635
Si Si4 0.814733 0.481608 0.694190
Si Si5 0.563477 0.549954 0.000000
Si Si6 0.577206 0.999913 0.200472
Si Si7 0.189545 0.110464 0.700229
O O1 0.379787 0.423936 0.500000
O O2 0.324916 0.454664 0.745256
O O3 0.362045 0.360815 0.732252
O O4 0.411457 0.432303 0.829095
O O5 0.671471 0.828530 0.746068
O O6 0.576584 0.810613 0.714341
O O7 0.633341 0.738131 0.775312
O O8 0.619096 0.804151 0.000000
O O9 0.498038 0.290162 0.500000
O O10 0.501839 0.236068 0.767397
O O11 0.446457 0.312557 0.756387
O O12 0.814583 0.494181 0.500000
O O13 0.866118 0.499046 0.761935
O O14 0.508022 0.565898 0.000000
O O15 0.548140 0.951861 0.262098
O O16 0.546462 0.046462 0.262423
O O17 0.573220 0.999664 0.000000
O O18 0.196380 0.109391 0.500000
#
# Coordination Sequence:
#
# PCOD9563861 Si02
#       7
#    16  16  16  16   8  16  16
#     4  10  20  37  57  75 105 143 175 217 267 312
#     4  10  20  32  48  72 103 135 164 205 263 315
#     4   8  16  32  50  72  99 127 165 207 254 307
#     4  10  19  31  49  74 102 130 169 215 253 305
#     4  11  24  36  50  80 109 134 178 217 253 318
#     4   9  18  32  48  68  99 137 172 206 252 312
#     4   9  18  32  53  76  97 131 172 209 255 307
#
# _framework density 17.190584999999999
#
# number of rings (size 3 to 8) (size 9 to 14) (size 15 to 20)
#    0.000    2.538    0.000    3.692    1.077    5.538 
#    6.923    1.538    0.000    0.923    0.000    6.462 
#    0.000    0.000    0.000    0.000    0.000    0.000 
#
# Total GULP energy -579370.047684 kJ/mol
# GULP energy per Si atom -5570.865843 kJ/mol
# Density = 1.715146 g / cm^3
# Si number density = 17.190585 Si / 1000 Ang^3
#
#
#
# Elastic Constant Matrix: (Units=GPa)
#
#
# Indices 1 2 3 4 5 6 
#
# 1 82.4772 9.0974 5.8478 0.0000 0.0000 0.0000
# 2 9.0974 82.4772 5.8478 0.0000 0.0000 0.0000
# 3 5.8478 5.8478 24.9891 0.0000 0.0000 0.0000
# 4 0.0000 0.0000 0.0000 23.7182 0.0000 0.0000
# 5 0.0000 0.0000 0.0000 0.0000 23.7182 0.0000
# 6 0.0000 0.0000 0.0000 0.0000 0.0000 39.1659
#
#
#
# Elastic Compliance Matrix: (Units=1/GPa)
#
#
# Indices 1 2 3 4 5 6 
#
# 1 0.012442 -0.001186 -0.002634 0.000000 0.000000 0.000000
# 2 -0.001186 0.012442 -0.002634 0.000000 0.000000 0.000000
# 3 -0.002634 -0.002634 0.041250 0.000000 0.000000 0.000000
# 4 0.000000 0.000000 0.000000 0.042162 0.000000 0.000000
# 5 0.000000 0.000000 0.000000 0.000000 0.042162 0.000000
# 6 0.000000 0.000000 0.000000 0.000000 0.000000 0.025532
#
#
# Mechanical properties :
#
#
# Convention : Reuss Voigt Hill
#
# Bulk Modulus (GPa) = 18.78761 25.72552 22.25657
# Shear Modulus (GPa) = 24.19658 28.59713 26.39686
#
# Velocity S-wave (km/s) = 3.75580 4.08307 3.92285
# Velocity P-wave (km/s) = 5.45535 6.10131 5.78735
#
# Compressibility (1/GPa) = 0.05322656
#
# Stress axis : x y z
#
# Youngs Moduli (GPa) = 80.37220 80.37220 24.24222
#
# Poissons Ratio (x) = 0.09529 0.06386
# Poissons Ratio (y) = 0.09529 0.06386
# Poissons Ratio (z) = 0.21172 0.21172
#
# Static dielectric constant tensor:
#      x y z
#    x 1.587510 0.000000 0.000000 
#    y 0.000000 1.587510 0.000000 
#    z 0.000000 0.000000 1.613620 
# 
# From -- ./inp_files/2324.got.cif
#   From: 2010.05.17/outbox.cif.g08.bks.cpg/sg127_2_cif.got.tgz:2324.got - 2010.05.20 12:03:00.
