data_PCOD9563655
_publ_section_title
;
Structure prediction by ZEFSAII (Michael W. Deem and Ramdas Pophale) SiO2 
 PCOD9563655
Probable space group: P 4/N N C
;
_chemical_formula_sum "Si O2"
_cell_formula_units_Z 56
_cell_length_a 22.958366
_cell_length_b 22.958366
_cell_length_c 4.918551
_cell_angle_alpha 90.000000
_cell_angle_beta 90.000000
_cell_angle_gamma 90.000000
_cell_volume 2592.502173
_symmetry_space_group_name_H-M "P 4/N N C"
_symmetry_group_IT_number 126
_space_group.IT_coordinate_system_code '2'
_symmetry_cell_setting 'tetragonal'
loop_
_space_group_symop_operation_xyz
x,y,z
1/2-y,x,z
1/2-x,1/2-y,z
y,1/2-x,z
x,1/2-y,1/2-z
1/2-x,y,1/2-z
y,x,1/2-z
1/2-y,1/2-x,1/2-z
-x,-y,-z
1/2+y,-x,-z
1/2+x,1/2+y,-z
-y,1/2+x,-z
-x,1/2+y,1/2+z
1/2+x,-y,1/2+z
-y,-x,1/2+z
1/2+y,1/2+x,1/2+z
loop_
_atom_site_type_symbol
_atom_site_label
_atom_site_fract_x
_atom_site_fract_y
_atom_site_fract_z
Si Si1 0.593707 0.906294 0.750000
Si Si2 0.093612 0.312206 0.836806
Si Si3 0.028133 0.916690 0.027928
Si Si4 0.788715 0.027666 0.478432
O O1 0.660117 0.915657 0.637836
O O2 0.540059 0.916657 0.545468
O O3 0.120501 0.250000 0.750000
O O4 0.139015 0.360986 0.750000
O O5 0.031747 0.306921 0.685868
O O6 0.063180 0.960305 0.832693
O O7 0.052752 0.852228 0.963136
O O8 0.750000 0.059851 0.250000
O O9 0.750000 0.018985 0.750000
#
# Coordination Sequence:
#
# PCOD9563655 Si02
#       4
#     8  16  16  16
#     4  12  24  42  60  91 136 174 212 282 357 394
#     4  11  24  39  63  85 120 172 234 285 334 382
#     4  12  24  39  64 100 131 165 213 266 324 401
#     4  11  23  43  65  91 131 179 214 260 328 397
#
# _framework density 21.600754999999999
#
# number of rings (size 3 to 8) (size 9 to 14) (size 15 to 20)
#    0.000    0.571    2.857    7.714    0.000    0.286 
#    0.000    0.000    0.000    1.714    0.000    0.000 
#    0.000   40.000    0.000    0.000    0.000    0.000 
#
# Total GULP energy -312001.231189 kJ/mol
# GULP energy per Si atom -5571.450557 kJ/mol
# Density = 2.155159 g / cm^3
# Si number density = 21.600755 Si / 1000 Ang^3
#
#
#
# Elastic Constant Matrix: (Units=GPa)
#
#
# Indices 1 2 3 4 5 6 
#
# 1 100.2085 7.0215 23.4479 0.0000 0.0000 0.0000
# 2 7.0215 100.2062 23.4481 0.0000 0.0000 0.0000
# 3 23.4479 23.4481 103.4307 0.0000 0.0000 0.0000
# 4 0.0000 0.0000 0.0000 35.7762 0.0000 0.0000
# 5 0.0000 0.0000 0.0000 0.0000 35.7769 0.0000
# 6 0.0000 0.0000 0.0000 0.0000 0.0000 18.0068
#
#
#
# Elastic Compliance Matrix: (Units=1/GPa)
#
#
# Indices 1 2 3 4 5 6 
#
# 1 0.010542 -0.000189 -0.002347 0.000000 0.000000 0.000000
# 2 -0.000189 0.010542 -0.002347 0.000000 0.000000 0.000000
# 3 -0.002347 -0.002347 0.010732 0.000000 0.000000 0.000000
# 4 0.000000 0.000000 0.000000 0.027952 0.000000 0.000000
# 5 0.000000 0.000000 0.000000 0.000000 0.027951 0.000000
# 6 0.000000 0.000000 0.000000 0.000000 0.000000 0.055535
#
#
# Mechanical properties :
#
#
# Convention : Reuss Voigt Hill
#
# Bulk Modulus (GPa) = 45.35278 45.74227 45.54753
# Shear Modulus (GPa) = 31.17804 34.57385 32.87594
#
# Velocity S-wave (km/s) = 3.80330 4.00507 3.90549
# Velocity P-wave (km/s) = 6.35046 6.52761 6.43964
#
# Compressibility (1/GPa) = 0.02204936
#
# Stress axis : x y z
#
# Youngs Moduli (GPa) = 94.86219 94.85975 93.17583
#
# Poissons Ratio (x) = 0.01798 0.21867
# Poissons Ratio (y) = 0.01798 0.21868
# Poissons Ratio (z) = 0.22263 0.22263
#
# Static dielectric constant tensor:
#      x y z
#    x 1.891440 0.000000 0.000000 
#    y 0.000000 1.891440 0.000000 
#    z 0.000000 0.000000 2.100590 
# 
# From -- ./inp_files/401.got.cif
#   From: 2010.05.17/outbox.cif.g08.bks.cpg/sg126_1_cif.got.tgz:401.got - 2010.05.20 11:58:20.
