data_PCOD9563912
_publ_section_title
;
Structure prediction by ZEFSAII (Michael W. Deem and Ramdas Pophale) SiO2 
 PCOD9563912
Probable space group: P 4/M B M
;
_chemical_formula_sum "Si O2"
_cell_formula_units_Z 96
_cell_length_a 24.869567
_cell_length_b 24.869567
_cell_length_c 9.065880
_cell_angle_alpha 90.000000
_cell_angle_beta 90.000000
_cell_angle_gamma 90.000000
_cell_volume 5607.204739
_symmetry_space_group_name_H-M "P 4/M B M"
_symmetry_group_IT_number 127
_symmetry_cell_setting 'tetragonal'
loop_
_space_group_symop_operation_xyz
x,y,z
-y,x,z
-x,-y,z
y,-x,z
1/2+x,1/2-y,-z
1/2-x,1/2+y,-z
1/2+y,1/2+x,-z
1/2-y,1/2-x,-z
-x,-y,-z
y,-x,-z
x,y,-z
-y,x,-z
1/2-x,1/2+y,z
1/2+x,1/2-y,z
1/2-y,1/2-x,z
1/2+y,1/2+x,z
loop_
_atom_site_type_symbol
_atom_site_label
_atom_site_fract_x
_atom_site_fract_y
_atom_site_fract_z
Si Si1 0.338087 0.015681 0.831218
Si Si2 0.908585 0.676355 0.674193
Si Si3 0.303313 0.418352 0.324887
Si Si4 0.378321 0.121680 0.324855
Si Si5 0.151497 0.812842 0.177899
Si Si6 0.708897 0.472206 0.170304
Si Si7 0.711746 0.788255 0.678357
O O1 0.361892 0.064416 0.739412
O O2 0.273449 0.022057 0.826554
O O3 0.349438 0.957606 0.762976
O O4 0.355790 0.019133 0.000000
O O5 0.918970 0.669446 0.500000
O O6 0.853204 0.646796 0.711013
O O7 0.907335 0.739844 0.701644
O O8 0.313488 0.414577 0.500000
O O9 0.333394 0.371788 0.236259
O O10 0.314039 0.478780 0.266763
O O11 0.380492 0.119509 0.500000
O O12 0.333456 0.166545 0.285459
O O13 0.088794 0.803068 0.217633
O O14 0.189529 0.767542 0.253217
O O15 0.156525 0.808902 0.000000
O O16 0.691318 0.478651 0.000000
O O17 0.716550 0.783451 0.500000
#
# Coordination Sequence:
#
# PCOD9563912 Si02
#       7
#    16  16  16   8  16  16   8
#     4  10  19  33  53  76 103 136 181 227 269 321
#     4   9  19  36  54  73 104 143 181 222 270 323
#     4  10  21  35  56  84 112 145 183 223 270 324
#     4  11  21  33  52  78 107 141 177 220 275 329
#     4  11  22  37  57  83 116 149 183 225 274 327
#     4   9  19  36  56  77 107 146 184 221 267 326
#     4  11  23  35  53  82 116 147 181 224 275 328
#
# _framework density 17.120830999999999
#
# number of rings (size 3 to 8) (size 9 to 14) (size 15 to 20)
#    0.000    2.000    1.667    2.000    1.167    3.667 
#    0.000    0.417    0.000    3.000    0.000    3.500 
#    0.000    0.000    0.000    0.000    0.000    0.000 
#
# Total GULP energy -535549.634575 kJ/mol
# GULP energy per Si atom -5578.642027 kJ/mol
# Density = 1.708186 g / cm^3
# Si number density = 17.120831 Si / 1000 Ang^3
#
#
#
# Elastic Constant Matrix: (Units=GPa)
#
#
# Indices 1 2 3 4 5 6 
#
# 1 63.3979 48.8555 40.8602 0.0000 0.0000 0.0000
# 2 48.8555 63.3981 40.8600 0.0000 0.0000 0.0000
# 3 40.8602 40.8600 53.5437 0.0000 0.0000 0.0000
# 4 0.0000 0.0000 0.0000 28.1461 0.0000 0.0000
# 5 0.0000 0.0000 0.0000 0.0000 28.1463 0.0000
# 6 0.0000 0.0000 0.0000 0.0000 0.0000 21.3969
#
#
#
# Elastic Compliance Matrix: (Units=1/GPa)
#
#
# Indices 1 2 3 4 5 6 
#
# 1 0.044404 -0.024360 -0.015296 0.000000 0.000000 0.000000
# 2 -0.024360 0.044403 -0.015295 0.000000 0.000000 0.000000
# 3 -0.015296 -0.015295 0.042021 0.000000 0.000000 0.000000
# 4 0.000000 0.000000 0.000000 0.035529 0.000000 0.000000
# 5 0.000000 0.000000 0.000000 0.000000 0.035529 0.000000
# 6 0.000000 0.000000 0.000000 0.000000 0.000000 0.046736
#
#
# Mechanical properties :
#
#
# Convention : Reuss Voigt Hill
#
# Bulk Modulus (GPa) = 47.78798 49.05455 48.42126
# Shear Modulus (GPa) = 13.67992 18.85547 16.26769
#
# Velocity S-wave (km/s) = 2.82976 3.32221 3.08583
# Velocity P-wave (km/s) = 6.21687 6.59017 6.40624
#
# Compressibility (1/GPa) = 0.02092576
#
# Stress axis : x y z
#
# Youngs Moduli (GPa) = 22.52044 22.52080 23.79776
#
# Poissons Ratio (x) = 0.54861 0.36401
# Poissons Ratio (y) = 0.54860 0.36399
# Poissons Ratio (z) = 0.34447 0.34446
#
# Static dielectric constant tensor:
#      x y z
#    x 1.564940 0.000000 0.000000 
#    y 0.000000 1.564940 0.000000 
#    z 0.000000 0.000000 1.578900 
# 
# From -- ./inp_files/2108.got.cif
#   From: 2010.05.17/outbox.cif.g08.bks.cpg/sg127_2_cif.got.tgz:2108.got - 2010.05.20 12:03:00.
