data_PCOD9563492
_publ_section_title
;
Structure prediction by ZEFSAII (Michael W. Deem and Ramdas Pophale) SiO2 
 PCOD9563492
Probable space group: P 4/N N C
;
_chemical_formula_sum "Si O2"
_cell_formula_units_Z 120
_cell_length_a 25.636927
_cell_length_b 25.636927
_cell_length_c 9.328191
_cell_angle_alpha 90.000000
_cell_angle_beta 90.000000
_cell_angle_gamma 90.000000
_cell_volume 6130.972434
_symmetry_space_group_name_H-M "P 4/N N C"
_symmetry_group_IT_number 126
_space_group.IT_coordinate_system_code '2'
_symmetry_cell_setting 'tetragonal'
loop_
_space_group_symop_operation_xyz
x,y,z
1/2-y,x,z
1/2-x,1/2-y,z
y,1/2-x,z
x,1/2-y,1/2-z
1/2-x,y,1/2-z
y,x,1/2-z
1/2-y,1/2-x,1/2-z
-x,-y,-z
1/2+y,-x,-z
1/2+x,1/2+y,-z
-y,1/2+x,-z
-x,1/2+y,1/2+z
1/2+x,-y,1/2+z
-y,-x,1/2+z
1/2+y,1/2+x,1/2+z
loop_
_atom_site_type_symbol
_atom_site_label
_atom_site_fract_x
_atom_site_fract_y
_atom_site_fract_z
Si Si1 0.924994 0.442420 0.112605
Si Si2 0.684734 0.695403 0.078533
Si Si3 0.688626 0.217609 0.403457
Si Si4 0.190898 0.010201 0.230783
Si Si5 0.448198 0.051803 0.750000
Si Si6 0.471288 0.385344 0.496480
Si Si7 0.909932 0.357956 0.352081
Si Si8 0.602784 0.638782 0.888061
O O1 0.945155 0.500127 0.151922
O O2 0.905074 0.409137 0.250108
O O3 0.975730 0.414086 0.046092
O O4 0.879606 0.437051 0.995754
O O5 0.743638 0.678786 0.034876
O O6 0.687690 0.687690 0.250000
O O7 0.636447 0.663642 0.014216
O O8 0.693143 0.250000 0.250000
O O9 0.685381 0.261075 0.532801
O O10 0.641456 0.176387 0.385070
O O11 0.250000 0.021284 0.250000
O O12 0.171653 0.022838 0.070254
O O13 0.163042 0.048372 0.343011
O O14 0.177948 0.950887 0.268066
O O15 0.395896 0.044565 0.658481
O O16 0.421811 0.408549 0.414425
O O17 0.640446 0.640446 0.750000
#
# Coordination Sequence:
#
# PCOD9563492 Si02
#       8
#    16  16  16  16   8  16  16  16
#     4  11  23  39  66  96 129 172 219 272 330 398
#     4   9  20  38  59  85 115 153 202 257 313 365
#     4  11  23  42  71 101 132 177 232 288 345 410
#     4  10  23  41  62  88 132 174 210 261 338 401
#     4  12  22  38  68  92 130 165 226 269 322 386
#     4  10  23  38  60  94 125 164 215 266 323 385
#     4  11  23  42  64  98 133 173 219 278 338 401
#     4  10  22  36  61  87 122 157 212 256 308 381
#
# _framework density 19.572749999999999
#
# number of rings (size 3 to 8) (size 9 to 14) (size 15 to 20)
#    0.000    1.600    1.333    3.600    9.333    1.067 
#    0.000    0.667    0.000    1.600    0.000    0.000 
#    0.000    0.000    0.000    0.000    0.000    0.000 
#
# Total GULP energy -668174.497225 kJ/mol
# GULP energy per Si atom -5568.120810 kJ/mol
# Density = 1.952820 g / cm^3
# Si number density = 19.572750 Si / 1000 Ang^3
#
#
#
# Elastic Constant Matrix: (Units=GPa)
#
#
# Indices 1 2 3 4 5 6 
#
# 1 65.9731 39.2261 20.6998 0.0000 0.0000 0.0000
# 2 39.2261 65.9743 20.7010 0.0000 0.0000 0.0000
# 3 20.6998 20.7010 83.3917 0.0000 0.0000 0.0000
# 4 0.0000 0.0000 0.0000 2.8448 0.0000 0.0000
# 5 0.0000 0.0000 0.0000 0.0000 2.8451 0.0000
# 6 0.0000 0.0000 0.0000 0.0000 0.0000 25.7463
#
#
#
# Elastic Compliance Matrix: (Units=1/GPa)
#
#
# Indices 1 2 3 4 5 6 
#
# 1 0.023961 -0.013426 -0.002615 0.000000 0.000000 0.000000
# 2 -0.013426 0.023961 -0.002615 0.000000 0.000000 0.000000
# 3 -0.002615 -0.002615 0.013290 0.000000 0.000000 0.000000
# 4 0.000000 0.000000 0.000000 0.351514 0.000000 0.000000
# 5 0.000000 0.000000 0.000000 0.000000 0.351478 0.000000
# 6 0.000000 0.000000 0.000000 0.000000 0.000000 0.038840
#
#
# Mechanical properties :
#
#
# Convention : Reuss Voigt Hill
#
# Bulk Modulus (GPa) = 41.84220 41.84364 41.84292
# Shear Modulus (GPa) = 5.89398 15.26809 10.58103
#
# Velocity S-wave (km/s) = 1.73720 2.79600 2.32760
# Velocity P-wave (km/s) = 5.04460 5.64344 5.35240
#
# Compressibility (1/GPa) = 0.02389932
#
# Stress axis : x y z
#
# Youngs Moduli (GPa) = 41.73488 41.73530 75.24521
#
# Poissons Ratio (x) = 0.56033 0.19675
# Poissons Ratio (y) = 0.56032 0.19679
# Poissons Ratio (z) = 0.10913 0.10915
#
# Static dielectric constant tensor:
#      x y z
#    x 1.707020 0.000000 0.000000 
#    y 0.000000 1.707020 0.000000 
#    z 0.000000 0.000000 1.789720 
# 
# From -- ./inp_files/1944.got.cif
#   From: 2010.05.17/outbox.cif.g08.bks.cpg/sg126_1_cif.got.tgz:1944.got - 2010.05.20 11:58:20.
