data_PCOD9563685
_publ_section_title
;
Structure prediction by ZEFSAII (Michael W. Deem and Ramdas Pophale) SiO2 
 PCOD9563685
Probable space group: P 4/N N C
;
_chemical_formula_sum "Si O2"
_cell_formula_units_Z 52
_cell_length_a 12.757685
_cell_length_b 12.757685
_cell_length_c 13.591456
_cell_angle_alpha 90.000000
_cell_angle_beta 90.000000
_cell_angle_gamma 90.000000
_cell_volume 2212.125352
_symmetry_space_group_name_H-M "P 4/N N C"
_symmetry_group_IT_number 126
_space_group.IT_coordinate_system_code '2'
_symmetry_cell_setting 'tetragonal'
loop_
_space_group_symop_operation_xyz
x,y,z
1/2-y,x,z
1/2-x,1/2-y,z
y,1/2-x,z
x,1/2-y,1/2-z
1/2-x,y,1/2-z
y,x,1/2-z
1/2-y,1/2-x,1/2-z
-x,-y,-z
1/2+y,-x,-z
1/2+x,1/2+y,-z
-y,1/2+x,-z
-x,1/2+y,1/2+z
1/2+x,-y,1/2+z
-y,-x,1/2+z
1/2+y,1/2+x,1/2+z
loop_
_atom_site_type_symbol
_atom_site_label
_atom_site_fract_x
_atom_site_fract_y
_atom_site_fract_z
Si Si1 0.552831 0.626745 0.655131
Si Si2 0.250000 0.750000 0.000000
Si Si3 0.181208 0.520290 0.035420
Si Si4 0.510675 0.356252 0.804959
O O1 0.627491 0.627491 0.750000
O O2 0.580511 0.523686 0.591856
O O3 0.546321 0.724487 0.583451
O O4 0.437603 0.606732 0.698360
O O5 0.203562 0.644151 0.050176
O O6 0.169578 0.496395 0.920172
O O7 0.534891 0.250000 0.750000
O O8 0.414128 0.414128 0.750000
#
# Coordination Sequence:
#
# PCOD9563685 Si02
#       4
#    16   4  16  16
#     4  11  26  45  76 106 152 196 253 310 378 456
#     4  12  28  40  82 112 148 198 244 304 406 444
#     4  12  25  49  73 111 151 199 249 312 385 453
#     4  11  25  44  72 106 147 196 250 313 378 452
#
# _framework density 23.506803999999999
#
# number of rings (size 3 to 8) (size 9 to 14) (size 15 to 20)
#    0.000    0.615    3.077    3.692    8.615    0.923 
#    0.000    6.923    0.000    0.000    0.000    0.000 
#    0.000    0.000    0.000    0.000    0.000    0.000 
#
# Total GULP energy -290760.876226 kJ/mol
# GULP energy per Si atom -5591.555312 kJ/mol
# Density = 2.345330 g / cm^3
# Si number density = 23.506804 Si / 1000 Ang^3
#
#
#
# Elastic Constant Matrix: (Units=GPa)
#
#
# Indices 1 2 3 4 5 6 
#
# 1 109.0199 12.3367 35.1717 0.0000 0.0000 0.0000
# 2 12.3367 109.0199 35.1717 0.0000 0.0000 0.0000
# 3 35.1717 35.1717 175.4321 0.0000 0.0000 0.0000
# 4 0.0000 0.0000 0.0000 41.7958 0.0000 0.0000
# 5 0.0000 0.0000 0.0000 0.0000 41.7958 0.0000
# 6 0.0000 0.0000 0.0000 0.0000 0.0000 37.8377
#
#
#
# Elastic Compliance Matrix: (Units=1/GPa)
#
#
# Indices 1 2 3 4 5 6 
#
# 1 0.009833 -0.000510 -0.001869 0.000000 0.000000 0.000000
# 2 -0.000510 0.009833 -0.001869 0.000000 0.000000 0.000000
# 3 -0.001869 -0.001869 0.006450 0.000000 0.000000 0.000000
# 4 0.000000 0.000000 0.000000 0.023926 0.000000 0.000000
# 5 0.000000 0.000000 0.000000 0.000000 0.023926 0.000000
# 6 0.000000 0.000000 0.000000 0.000000 0.000000 0.026429
#
#
# Mechanical properties :
#
#
# Convention : Reuss Voigt Hill
#
# Bulk Modulus (GPa) = 56.75361 62.09247 59.42304
# Shear Modulus (GPa) = 43.56665 45.00530 44.28598
#
# Velocity S-wave (km/s) = 4.30974 4.38032 4.34517
# Velocity P-wave (km/s) = 6.99722 7.21491 7.10690
#
# Compressibility (1/GPa) = 0.01762002
#
# Stress axis : x y z
#
# Youngs Moduli (GPa) = 101.69455 101.69455 155.04511
#
# Poissons Ratio (x) = 0.05183 0.28982
# Poissons Ratio (y) = 0.05183 0.28982
# Poissons Ratio (z) = 0.19009 0.19009
#
# Static dielectric constant tensor:
#      x y z
#    x 1.916040 0.000000 0.000000 
#    y 0.000000 1.916040 0.000000 
#    z 0.000000 0.000000 1.900090 
# 
# From -- ./inp_files/2395.got.cif
#   From: 2010.05.17/outbox.cif.g08.bks.cpg/sg126_2_cif.got.tgz:2395.got - 2010.05.20 11:58:20.
