data_PCOD9563541
_publ_section_title
;
Structure prediction by ZEFSAII (Michael W. Deem and Ramdas Pophale) SiO2 
 PCOD9563541
Probable space group: P 4/N N C
;
_chemical_formula_sum "Si O2"
_cell_formula_units_Z 112
_cell_length_a 14.770396
_cell_length_b 14.770396
_cell_length_c 28.125018
_cell_angle_alpha 90.000000
_cell_angle_beta 90.000000
_cell_angle_gamma 90.000000
_cell_volume 6135.883246
_symmetry_space_group_name_H-M "P 4/N N C"
_symmetry_group_IT_number 126
_space_group.IT_coordinate_system_code '2'
_symmetry_cell_setting 'tetragonal'
loop_
_space_group_symop_operation_xyz
x,y,z
1/2-y,x,z
1/2-x,1/2-y,z
y,1/2-x,z
x,1/2-y,1/2-z
1/2-x,y,1/2-z
y,x,1/2-z
1/2-y,1/2-x,1/2-z
-x,-y,-z
1/2+y,-x,-z
1/2+x,1/2+y,-z
-y,1/2+x,-z
-x,1/2+y,1/2+z
1/2+x,-y,1/2+z
-y,-x,1/2+z
1/2+y,1/2+x,1/2+z
loop_
_atom_site_type_symbol
_atom_site_label
_atom_site_fract_x
_atom_site_fract_y
_atom_site_fract_z
Si Si1 0.023273 0.117579 0.683900
Si Si2 0.846260 0.109372 0.270213
Si Si3 0.207499 0.470998 0.294996
Si Si4 0.679946 0.886492 0.054874
Si Si5 0.388353 0.037017 0.149100
Si Si6 0.880350 0.830152 0.946892
Si Si7 0.183004 0.484870 0.851167
O O1 0.126254 0.084674 0.681450
O O2 0.022983 0.210457 0.655244
O O3 0.974985 0.135189 0.734410
O O4 0.962194 0.039882 0.659586
O O5 0.750000 0.146199 0.250000
O O6 0.937521 0.166747 0.271767
O O7 0.837139 0.079503 0.325250
O O8 0.250000 0.418458 0.250000
O O9 0.290518 0.490348 0.330218
O O10 0.127101 0.420732 0.322694
O O11 0.633574 0.787702 0.060298
O O12 0.655394 0.958819 0.095409
O O13 0.657536 0.914109 0.000899
O O14 0.374304 0.059635 0.093922
O O15 0.778456 0.869298 0.941304
#
# Coordination Sequence:
#
# PCOD9563541 Si02
#       7
#    16  16  16  16  16  16  16
#     4  11  23  38  58  87 125 153 201 241 297 355
#     4  10  23  41  58  84 119 168 200 237 284 358
#     4  12  24  39  63  84 124 155 197 248 299 353
#     4   9  17  32  58  87 116 149 195 245 301 362
#     4  12  23  40  61  90 120 157 200 254 300 355
#     4   9  18  35  58  87 118 154 192 241 306 370
#     4  11  20  36  62  85 119 157 192 248 297 355
#
# _framework density 18.253281000000001
#
# number of rings (size 3 to 8) (size 9 to 14) (size 15 to 20)
#    0.000    1.429    5.714    1.714    0.000    0.857 
#    0.000    1.429    3.143    2.571    0.000    0.000 
#    0.000    0.000    0.000    0.000    0.000    0.000 
#
# Total GULP energy -623979.999875 kJ/mol
# GULP energy per Si atom -5571.249999 kJ/mol
# Density = 1.821174 g / cm^3
# Si number density = 18.253281 Si / 1000 Ang^3
#
#
#
# Elastic Constant Matrix: (Units=GPa)
#
#
# Indices 1 2 3 4 5 6 
#
# 1 68.8812 22.0623 41.2495 0.0000 0.0000 0.0000
# 2 22.0623 68.8812 41.2495 0.0000 0.0000 0.0000
# 3 41.2495 41.2495 154.1443 0.0000 0.0000 0.0000
# 4 0.0000 0.0000 0.0000 22.2298 0.0000 0.0000
# 5 0.0000 0.0000 0.0000 0.0000 22.2298 0.0000
# 6 0.0000 0.0000 0.0000 0.0000 0.0000 4.7433
#
#
#
# Elastic Compliance Matrix: (Units=1/GPa)
#
#
# Indices 1 2 3 4 5 6 
#
# 1 0.017940 -0.003419 -0.003886 0.000000 0.000000 0.000000
# 2 -0.003419 0.017940 -0.003886 0.000000 0.000000 0.000000
# 3 -0.003886 -0.003886 0.008567 0.000000 0.000000 0.000000
# 4 0.000000 0.000000 0.000000 0.044985 0.000000 0.000000
# 5 0.000000 0.000000 0.000000 0.000000 0.044985 0.000000
# 6 0.000000 0.000000 0.000000 0.000000 0.000000 0.210822
#
#
# Mechanical properties :
#
#
# Convention : Reuss Voigt Hill
#
# Bulk Modulus (GPa) = 45.31950 55.66990 50.49470
# Shear Modulus (GPa) = 13.33425 22.33029 17.83227
#
# Velocity S-wave (km/s) = 2.70573 3.50145 3.12899
# Velocity P-wave (km/s) = 5.88586 6.84921 6.38573
#
# Compressibility (1/GPa) = 0.02206556
#
# Stress axis : x y z
#
# Youngs Moduli (GPa) = 55.74173 55.74173 116.72498
#
# Poissons Ratio (x) = 0.19058 0.45357
# Poissons Ratio (y) = 0.19058 0.45357
# Poissons Ratio (z) = 0.21660 0.21660
#
# Static dielectric constant tensor:
#      x y z
#    x 1.660250 0.000000 0.000000 
#    y 0.000000 1.660250 0.000000 
#    z 0.000000 0.000000 1.680110 
# 
# From -- ./inp_files/6215.got.cif
#   From: 2010.05.17/outbox.cif.g08.bks.cpg/sg126_4_cif.got.tgz:6215.got - 2010.05.20 11:58:20.
