data_PCOD9563387
_publ_section_title
;
Structure prediction by ZEFSAII (Michael W. Deem and Ramdas Pophale) SiO2 
 PCOD9563387
Probable space group: P 4/N N C
;
_chemical_formula_sum "Si O2"
_cell_formula_units_Z 88
_cell_length_a 17.437211
_cell_length_b 17.437211
_cell_length_c 16.233930
_cell_angle_alpha 90.000000
_cell_angle_beta 90.000000
_cell_angle_gamma 90.000000
_cell_volume 4936.029136
_symmetry_space_group_name_H-M "P 4/N N C"
_symmetry_group_IT_number 126
_space_group.IT_coordinate_system_code '2'
_symmetry_cell_setting 'tetragonal'
loop_
_space_group_symop_operation_xyz
x,y,z
1/2-y,x,z
1/2-x,1/2-y,z
y,1/2-x,z
x,1/2-y,1/2-z
1/2-x,y,1/2-z
y,x,1/2-z
1/2-y,1/2-x,1/2-z
-x,-y,-z
1/2+y,-x,-z
1/2+x,1/2+y,-z
-y,1/2+x,-z
-x,1/2+y,1/2+z
1/2+x,-y,1/2+z
-y,-x,1/2+z
1/2+y,1/2+x,1/2+z
loop_
_atom_site_type_symbol
_atom_site_label
_atom_site_fract_x
_atom_site_fract_y
_atom_site_fract_z
Si Si1 0.180410 0.968710 0.480189
Si Si2 0.922454 0.940082 0.388308
Si Si3 0.494962 0.093879 0.159473
Si Si4 0.948881 0.151182 0.516651
Si Si5 0.341264 0.341264 0.750000
Si Si6 0.323121 0.456572 0.305332
O O1 0.258294 0.947350 0.526045
O O2 0.129621 0.893245 0.466367
O O3 0.128739 0.023975 0.537918
O O4 0.200451 0.008062 0.392678
O O5 0.873282 0.888201 0.327614
O O6 0.987450 0.887151 0.426783
O O7 0.966807 0.010196 0.343747
O O8 0.517390 0.140605 0.241035
O O9 0.401140 0.090587 0.167275
O O10 0.523887 0.132239 0.076344
O O11 0.250000 0.354044 0.750000
O O12 0.250000 0.424872 0.250000
#
# Coordination Sequence:
#
# PCOD9563387 Si02
#       6
#    16  16  16  16   8  16
#     4  11  22  37  60  93 119 161 196 246 305 355
#     4  11  21  40  61  85 113 152 210 248 286 353
#     4  10  20  35  59  88 114 154 195 247 283 356
#     4  11  21  38  60  87 123 154 204 243 292 360
#     4  11  24  40  56  80 114 150 192 251 316 350
#     4  11  19  33  58  92 119 146 189 242 305 349
#
# _framework density 17.828095999999999
#
# number of rings (size 3 to 8) (size 9 to 14) (size 15 to 20)
#    0.000    1.182    5.455    3.273    0.000    0.364 
#    0.000    0.000    0.000    4.364    0.000    0.000 
#    0.000    0.000    0.000    0.000    0.000    0.000 
#
# Total GULP energy -490017.020217 kJ/mol
# GULP energy per Si atom -5568.375230 kJ/mol
# Density = 1.778752 g / cm^3
# Si number density = 17.828096 Si / 1000 Ang^3
#
#
#
# Elastic Constant Matrix: (Units=GPa)
#
#
# Indices 1 2 3 4 5 6 
#
# 1 116.8249 33.3081 10.9393 0.0000 0.0000 0.0000
# 2 33.3081 116.8249 10.9393 0.0000 0.0000 0.0000
# 3 10.9393 10.9393 61.0423 0.0000 0.0000 0.0000
# 4 0.0000 0.0000 0.0000 23.0374 0.0000 0.0000
# 5 0.0000 0.0000 0.0000 0.0000 23.0374 0.0000
# 6 0.0000 0.0000 0.0000 0.0000 0.0000 13.3028
#
#
#
# Elastic Compliance Matrix: (Units=1/GPa)
#
#
# Indices 1 2 3 4 5 6 
#
# 1 0.009407 -0.002567 -0.001226 0.000000 0.000000 0.000000
# 2 -0.002567 0.009407 -0.001226 0.000000 0.000000 0.000000
# 3 -0.001226 -0.001226 0.016821 0.000000 0.000000 0.000000
# 4 0.000000 0.000000 0.000000 0.043408 0.000000 0.000000
# 5 0.000000 0.000000 0.000000 0.000000 0.043408 0.000000
# 6 0.000000 0.000000 0.000000 0.000000 0.000000 0.075172
#
#
# Mechanical properties :
#
#
# Convention : Reuss Voigt Hill
#
# Bulk Modulus (GPa) = 39.06638 45.00725 42.03681
# Shear Modulus (GPa) = 23.12771 27.84258 25.48514
#
# Velocity S-wave (km/s) = 3.60566 3.95615 3.78497
# Velocity P-wave (km/s) = 6.26855 6.79471 6.53693
#
# Compressibility (1/GPa) = 0.02559746
#
# Stress axis : x y z
#
# Youngs Moduli (GPa) = 106.30939 106.30939 59.44812
#
# Poissons Ratio (x) = 0.27291 0.07286
# Poissons Ratio (y) = 0.27291 0.07286
# Poissons Ratio (z) = 0.13030 0.13030
#
# Static dielectric constant tensor:
#      x y z
#    x 1.613900 0.000000 0.000000 
#    y 0.000000 1.613900 0.000000 
#    z 0.000000 0.000000 1.648290 
# 
# From -- ./inp_files/3771.got.cif
#   From: 2010.05.17/outbox.cif.g08.bks.cpg/sg126_2_cif.got.tgz:3771.got - 2010.05.20 11:58:20.
