data_PCOD9563489
_publ_section_title
;
Structure prediction by ZEFSAII (Michael W. Deem and Ramdas Pophale) SiO2 
 PCOD9563489
Probable space group: P 4/N N C
;
_chemical_formula_sum "Si O2"
_cell_formula_units_Z 108
_cell_length_a 14.666436
_cell_length_b 14.666436
_cell_length_c 24.654377
_cell_angle_alpha 90.000000
_cell_angle_beta 90.000000
_cell_angle_gamma 90.000000
_cell_volume 5303.263615
_symmetry_space_group_name_H-M "P 4/N N C"
_symmetry_group_IT_number 126
_space_group.IT_coordinate_system_code '2'
_symmetry_cell_setting 'tetragonal'
loop_
_space_group_symop_operation_xyz
x,y,z
1/2-y,x,z
1/2-x,1/2-y,z
y,1/2-x,z
x,1/2-y,1/2-z
1/2-x,y,1/2-z
y,x,1/2-z
1/2-y,1/2-x,1/2-z
-x,-y,-z
1/2+y,-x,-z
1/2+x,1/2+y,-z
-y,1/2+x,-z
-x,1/2+y,1/2+z
1/2+x,-y,1/2+z
-y,-x,1/2+z
1/2+y,1/2+x,1/2+z
loop_
_atom_site_type_symbol
_atom_site_label
_atom_site_fract_x
_atom_site_fract_y
_atom_site_fract_z
Si Si1 0.642603 0.500959 0.241515
Si Si2 0.750000 0.250000 0.250000
Si Si3 0.752849 0.014481 0.865506
Si Si4 0.674604 0.130097 0.342109
Si Si5 0.929125 0.122434 0.855674
Si Si6 0.750000 0.593395 0.750000
Si Si7 0.395372 0.205134 0.464755
Si Si8 0.684877 0.608752 0.414193
O O1 0.750000 0.505886 0.250000
O O2 0.597549 0.597549 0.250000
O O3 0.628237 0.460766 0.181607
O O4 0.605586 0.439351 0.290985
O O5 0.690440 0.187134 0.287413
O O6 0.693301 0.105987 0.873102
O O7 0.857755 0.046577 0.876263
O O8 0.748151 0.967795 0.805438
O O9 0.704632 0.950745 0.909681
O O10 0.775623 0.113056 0.364242
O O11 0.031053 0.137669 0.878163
O O12 0.838737 0.661264 0.750000
O O13 0.358867 0.307977 0.464158
O O14 0.433129 0.183586 0.524540
O O15 0.793096 0.633854 0.406608
#
# Coordination Sequence:
#
# PCOD9563489 Si02
#       8
#    16   4  16  16  16   8  16  16
#     4  10  22  36  52  82 119 158 198 246 298 364
#     4  12  14  40  58  68 108 174 200 214 268 384
#     4  12  22  37  64  93 123 162 200 256 316 359
#     4  11  21  37  58  81 121 168 199 234 305 378
#     4  11  22  37  57  90 121 155 206 255 304 367
#     4  11  25  42  60  94 134 168 209 247 300 384
#     4   9  20  43  66  86 116 161 206 245 310 380
#     4   9  21  44  67  83 114 165 208 252 315 379
#
# _framework density 20.364816999999999
#
# number of rings (size 3 to 8) (size 9 to 14) (size 15 to 20)
#    0.000    1.556    3.704    3.111    4.148    4.889 
#    2.667    1.481    0.000    0.000    0.000    0.000 
#    0.000    0.000    0.000    0.000    0.000    0.000 
#
# Total GULP energy -601382.529300 kJ/mol
# GULP energy per Si atom -5568.356753 kJ/mol
# Density = 2.031847 g / cm^3
# Si number density = 20.364817 Si / 1000 Ang^3
#
#
#
# Elastic Constant Matrix: (Units=GPa)
#
#
# Indices 1 2 3 4 5 6 
#
# 1 37.7283 6.1356 10.7246 0.0000 0.0000 0.0000
# 2 6.1356 37.7285 10.7245 0.0000 0.0000 0.0000
# 3 10.7246 10.7245 61.6312 0.0000 0.0000 0.0000
# 4 0.0000 0.0000 0.0000 28.5668 0.0000 0.0000
# 5 0.0000 0.0000 0.0000 0.0000 28.5670 0.0000
# 6 0.0000 0.0000 0.0000 0.0000 0.0000 28.7183
#
#
#
# Elastic Compliance Matrix: (Units=1/GPa)
#
#
# Indices 1 2 3 4 5 6 
#
# 1 0.028285 -0.003367 -0.004336 0.000000 0.000000 0.000000
# 2 -0.003367 0.028285 -0.004336 0.000000 0.000000 0.000000
# 3 -0.004336 -0.004336 0.017735 0.000000 0.000000 0.000000
# 4 0.000000 0.000000 0.000000 0.035006 0.000000 0.000000
# 5 0.000000 0.000000 0.000000 0.000000 0.035005 0.000000
# 6 0.000000 0.000000 0.000000 0.000000 0.000000 0.034821
#
#
# Mechanical properties :
#
#
# Convention : Reuss Voigt Hill
#
# Bulk Modulus (GPa) = 19.90980 21.36193 20.63587
# Shear Modulus (GPa) = 22.73156 24.47065 23.60111
#
# Velocity S-wave (km/s) = 3.34461 3.47019 3.40798
# Velocity P-wave (km/s) = 4.97122 5.15448 5.06368
#
# Compressibility (1/GPa) = 0.05022653
#
# Stress axis : x y z
#
# Youngs Moduli (GPa) = 35.35383 35.35401 56.38695
#
# Poissons Ratio (x) = 0.11905 0.24450
# Poissons Ratio (y) = 0.11905 0.24449
# Poissons Ratio (z) = 0.15330 0.15330
#
# Static dielectric constant tensor:
#      x y z
#    x 1.747140 0.000000 0.000000 
#    y 0.000000 1.747140 0.000000 
#    z 0.000000 0.000000 1.532310 
# 
# From -- ./inp_files/5869.got.cif
#   From: 2010.05.17/outbox.cif.g08.bks.cpg/sg126_3_cif.got.tgz:5869.got - 2010.05.20 11:58:20.
