data_PCOD9563896
_publ_section_title
;
Structure prediction by ZEFSAII (Michael W. Deem and Ramdas Pophale) SiO2 
 PCOD9563896
Probable space group: P 4/M B M
;
_chemical_formula_sum "Si O2"
_cell_formula_units_Z 80
_cell_length_a 14.531903
_cell_length_b 14.531903
_cell_length_c 18.839755
_cell_angle_alpha 90.000000
_cell_angle_beta 90.000000
_cell_angle_gamma 90.000000
_cell_volume 3978.507960
_symmetry_space_group_name_H-M "P 4/M B M"
_symmetry_group_IT_number 127
_symmetry_cell_setting 'tetragonal'
loop_
_space_group_symop_operation_xyz
x,y,z
-y,x,z
-x,-y,z
y,-x,z
1/2+x,1/2-y,-z
1/2-x,1/2+y,-z
1/2+y,1/2+x,-z
1/2-y,1/2-x,-z
-x,-y,-z
y,-x,-z
x,y,-z
-y,x,-z
1/2-x,1/2+y,z
1/2+x,1/2-y,z
1/2-y,1/2-x,z
1/2+y,1/2+x,z
loop_
_atom_site_type_symbol
_atom_site_label
_atom_site_fract_x
_atom_site_fract_y
_atom_site_fract_z
Si Si1 0.149378 0.506890 0.848121
Si Si2 0.874121 0.782831 0.080587
Si Si3 0.383357 0.401198 0.220687
Si Si4 0.715879 0.066600 0.699824
Si Si5 0.002215 0.154143 0.416885
O O1 0.066957 0.433044 0.855507
O O2 0.226330 0.467481 0.900649
O O3 0.182868 0.494712 0.766957
O O4 0.106673 0.606673 0.862221
O O5 0.789846 0.710155 0.089224
O O6 0.871856 0.860080 0.140658
O O7 0.874498 0.815795 0.000000
O O8 0.488577 0.377719 0.233786
O O9 0.298136 0.368818 0.268343
O O10 0.631164 0.131164 0.678544
O O11 0.759710 0.011257 0.634902
O O12 0.002443 0.179201 0.500000
O O13 0.913404 0.089756 0.404149
#
# Coordination Sequence:
#
# PCOD9563896 Si02
#       5
#    16  16  16  16  16
#     4   8  15  29  48  69  94 128 167 198 231 285
#     4   9  18  33  51  71  98 128 159 204 257 299
#     4  10  20  34  52  71  94 128 168 205 242 293
#     4  10  19  32  52  76 103 131 160 203 252 292
#     4   9  18  34  55  76 100 132 168 203 240 288
#
# _framework density 20.108039999999999
#
# number of rings (size 3 to 8) (size 9 to 14) (size 15 to 20)
#    0.000    2.800    0.000    3.600    0.000    3.200 
#    0.000   16.000    0.000    1.800    0.000    2.800 
#    0.000    0.000    0.000    0.000    0.000    0.000 
#
# Total GULP energy -446096.225080 kJ/mol
# GULP energy per Si atom -5576.202814 kJ/mol
# Density = 2.006227 g / cm^3
# Si number density = 20.108040 Si / 1000 Ang^3
#
#
#
# Elastic Constant Matrix: (Units=GPa)
#
#
# Indices 1 2 3 4 5 6 
#
# 1 28.5306 -5.6216 -12.0300 0.0000 0.0000 0.0000
# 2 -5.6216 28.5306 -12.0300 0.0000 0.0000 0.0000
# 3 -12.0300 -12.0300 54.5537 0.0000 0.0000 0.0000
# 4 0.0000 0.0000 0.0000 17.2971 0.0000 0.0000
# 5 0.0000 0.0000 0.0000 0.0000 17.2971 0.0000
# 6 0.0000 0.0000 0.0000 0.0000 0.0000 12.2865
#
#
#
# Elastic Compliance Matrix: (Units=1/GPa)
#
#
# Indices 1 2 3 4 5 6 
#
# 1 0.043044 0.013763 0.012527 0.000000 0.000000 0.000000
# 2 0.013763 0.043044 0.012527 0.000000 0.000000 0.000000
# 3 0.012527 0.012527 0.023855 0.000000 0.000000 0.000000
# 4 0.000000 0.000000 0.000000 0.057813 0.000000 0.000000
# 5 0.000000 0.000000 0.000000 0.000000 0.057813 0.000000
# 6 0.000000 0.000000 0.000000 0.000000 0.000000 0.081390
#
#
# Mechanical properties :
#
#
# Convention : Reuss Voigt Hill
#
# Bulk Modulus (GPa) = 5.33112 5.80575 5.56844
# Shear Modulus (GPa) = 17.13200 18.79588 17.96394
#
# Velocity S-wave (km/s) = 2.92207 3.06068 2.99217
# Velocity P-wave (km/s) = 3.74722 3.92223 3.83572
#
# Compressibility (1/GPa) = 0.18757770
#
# Stress axis : x y z
#
# Youngs Moduli (GPa) = 23.23203 23.23203 41.91934
#
# Poissons Ratio (x) = -0.31975 -0.52512
# Poissons Ratio (y) = -0.31975 -0.52512
# Poissons Ratio (z) = -0.29103 -0.29103
#
# Static dielectric constant tensor:
#      x y z
#    x 1.749460 0.000000 0.000000 
#    y 0.000000 1.749460 0.000000 
#    z 0.000000 0.000000 1.719430 
# 
# From -- ./inp_files/5611.got.cif
#   From: 2010.05.17/outbox.cif.g08.bks.cpg/sg127_3_cif.got.tgz:5611.got - 2010.05.20 12:03:00.
