data_PCOD9563715
_publ_section_title
;
Structure prediction by ZEFSAII (Michael W. Deem and Ramdas Pophale) SiO2 
 PCOD9563715
Probable space group: P 4/N N C
;
_chemical_formula_sum "Si O2"
_cell_formula_units_Z 60
_cell_length_a 13.960284
_cell_length_b 13.960284
_cell_length_c 14.270141
_cell_angle_alpha 90.000000
_cell_angle_beta 90.000000
_cell_angle_gamma 90.000000
_cell_volume 2781.101063
_symmetry_space_group_name_H-M "P 4/N N C"
_symmetry_group_IT_number 126
_space_group.IT_coordinate_system_code '2'
_symmetry_cell_setting 'tetragonal'
loop_
_space_group_symop_operation_xyz
x,y,z
1/2-y,x,z
1/2-x,1/2-y,z
y,1/2-x,z
x,1/2-y,1/2-z
1/2-x,y,1/2-z
y,x,1/2-z
1/2-y,1/2-x,1/2-z
-x,-y,-z
1/2+y,-x,-z
1/2+x,1/2+y,-z
-y,1/2+x,-z
-x,1/2+y,1/2+z
1/2+x,-y,1/2+z
-y,-x,1/2+z
1/2+y,1/2+x,1/2+z
loop_
_atom_site_type_symbol
_atom_site_label
_atom_site_fract_x
_atom_site_fract_y
_atom_site_fract_z
Si Si1 0.887072 0.186394 0.157628
Si Si2 0.396298 0.193123 0.616028
Si Si3 0.250000 0.750000 0.500000
Si Si4 0.807045 0.602037 0.892103
Si Si5 0.750000 0.041354 0.250000
O O1 0.875853 0.250000 0.250000
O O2 0.815849 0.099345 0.177803
O O3 0.999430 0.163964 0.147917
O O4 0.842840 0.239223 0.066835
O O5 0.368604 0.303154 0.638106
O O6 0.409936 0.186853 0.504904
O O7 0.484629 0.176206 0.682886
O O8 0.869807 0.696415 0.867847
#
# Coordination Sequence:
#
# PCOD9563715 Si02
#       5
#    16  16   4  16   8
#     4  12  25  43  65  95 131 178 221 269 334 393
#     4   9  19  40  68  98 134 173 218 275 335 390
#     4  12  22  48  64  86 140 180 218 280 328 394
#     4   9  21  45  72  97 129 175 224 274 332 393
#     4  12  21  39  58 102 136 174 222 275 329 398
#
# _framework density 21.574189000000001
#
# number of rings (size 3 to 8) (size 9 to 14) (size 15 to 20)
#    0.000    1.600    2.667    4.000    0.000    2.133 
#    9.600    5.333    0.000    0.000    0.000    0.000 
#    0.000    0.000    0.000    0.000    0.000    0.000 
#
# Total GULP energy -335117.548932 kJ/mol
# GULP energy per Si atom -5585.292482 kJ/mol
# Density = 2.152509 g / cm^3
# Si number density = 21.574189 Si / 1000 Ang^3
#
#
#
# Elastic Constant Matrix: (Units=GPa)
#
#
# Indices 1 2 3 4 5 6 
#
# 1 65.0368 0.5081 20.6797 0.0000 0.0000 0.0000
# 2 0.5081 65.0368 20.6797 0.0000 0.0000 0.0000
# 3 20.6797 20.6797 72.6485 0.0000 0.0000 0.0000
# 4 0.0000 0.0000 0.0000 28.1008 0.0000 0.0000
# 5 0.0000 0.0000 0.0000 0.0000 28.1008 0.0000
# 6 0.0000 0.0000 0.0000 0.0000 0.0000 -6.8372
#
#
#
# Elastic Compliance Matrix: (Units=1/GPa)
#
#
# Indices 1 2 3 4 5 6 
#
# 1 0.017047 0.001550 -0.005294 0.000000 0.000000 0.000000
# 2 0.001550 0.017047 -0.005294 0.000000 0.000000 0.000000
# 3 -0.005294 -0.005294 0.016779 0.000000 0.000000 0.000000
# 4 0.000000 0.000000 0.000000 0.035586 0.000000 0.000000
# 5 0.000000 0.000000 0.000000 0.000000 0.035586 0.000000
# 6 0.000000 0.000000 0.000000 0.000000 0.000000 -0.146260
#
#
# Mechanical properties :
#
#
# Convention : Reuss Voigt Hill
#
# Bulk Modulus (GPa) = 30.48972 31.82856 31.15914
# Shear Modulus (GPa) = 1043.20100 20.59655 531.89878
#
# Velocity S-wave (km/s) = 22.01343 3.09315 15.71876
# Velocity P-wave (km/s) = 25.69600 5.24803 18.54490
#
# Compressibility (1/GPa) = 0.03279794
#
# Stress axis : x y z
#
# Youngs Moduli (GPa) = 58.66119 58.66119 59.59939
#
# Poissons Ratio (x) = -0.09093 0.31550
# Poissons Ratio (y) = -0.09093 0.31550
# Poissons Ratio (z) = 0.31054 0.31054
#
# Static dielectric constant tensor:
#      x y z
#    x 1.806050 0.000000 0.000000 
#    y 0.000000 1.806050 0.000000 
#    z 0.000000 0.000000 1.789480 
# 
# From -- ./inp_files/3508.got.cif
#   From: 2010.05.17/outbox.cif.g08.bks.cpg/sg126_2_cif.got.tgz:3508.got - 2010.05.20 11:58:20.
