data_PCOD9563047
_publ_section_title
;
Structure prediction by ZEFSAII (Michael W. Deem and Ramdas Pophale) SiO2 
 PCOD9563047
Probable space group: P 4/N B M
;
_chemical_formula_sum "Si O2"
_cell_formula_units_Z 44
_cell_length_a 15.610360
_cell_length_b 15.610360
_cell_length_c 8.430399
_cell_angle_alpha 90.000000
_cell_angle_beta 90.000000
_cell_angle_gamma 90.000000
_cell_volume 2054.347780
_symmetry_space_group_name_H-M "P 4/N B M"
_symmetry_group_IT_number 125
_space_group.IT_coordinate_system_code '2'
_symmetry_cell_setting 'tetragonal'
loop_
_space_group_symop_operation_xyz
x,y,z
1/2-y,x,z
1/2-x,1/2-y,z
y,1/2-x,z
x,1/2-y,-z
1/2-x,y,-z
y,x,-z
1/2-y,1/2-x,-z
-x,-y,-z
1/2+y,-x,-z
1/2+x,1/2+y,-z
-y,1/2+x,-z
-x,1/2+y,z
1/2+x,-y,z
-y,-x,z
1/2+y,1/2+x,z
loop_
_atom_site_type_symbol
_atom_site_label
_atom_site_fract_x
_atom_site_fract_y
_atom_site_fract_z
Si Si1 0.467525 0.224212 0.814721
Si Si2 0.750000 0.250000 0.500000
Si Si3 0.750000 0.250000 0.000000
Si Si4 0.408956 0.054961 0.685341
Si Si5 0.146506 0.646506 0.250154
O O1 0.400447 0.148972 0.772159
O O2 0.477980 0.312378 0.716805
O O3 0.548971 0.167850 0.765686
O O4 0.465093 0.250000 0.000000
O O5 0.810981 0.189020 0.400649
O O6 0.808788 0.191213 0.103536
O O7 0.427214 0.072787 0.500000
O O8 0.481319 0.981319 0.735166
#
# Coordination Sequence:
#
# PCOD9563047 Si02
#       5
#    16   2   2  16   8
#     4  12  26  45  73 104 146 188 243 296 365 430
#     4  10  28  34  64  98 152 182 244 286 368 430
#     4  10  20  42  56 106 136 194 216 298 372 430
#     4  11  27  47  74 106 147 195 244 298 360 431
#     4  11  24  40  66 104 143 183 235 301 362 430
#
# _framework density 21.41799
#
# number of rings (size 3 to 8) (size 9 to 14) (size 15 to 20)
#    0.000    0.727    3.636    2.182   12.727    2.182 
#    0.000    3.636    0.000    0.000    0.000    0.000 
#    0.000    0.000    0.000    0.000    0.000    0.000 
#
# Total GULP energy -245107.280674 kJ/mol
# GULP energy per Si atom -5570.620015 kJ/mol
# Density = 2.136924 g / cm^3
# Si number density = 21.417990 Si / 1000 Ang^3
#
#
#
# Elastic Constant Matrix: (Units=GPa)
#
#
# Indices 1 2 3 4 5 6 
#
# 1 91.1335 20.3794 13.0966 0.0000 0.0000 0.0000
# 2 20.3794 91.1336 13.0958 0.0000 0.0000 0.0000
# 3 13.0966 13.0958 81.6169 0.0000 0.0000 0.0000
# 4 0.0000 0.0000 0.0000 41.4140 0.0000 0.0000
# 5 0.0000 0.0000 0.0000 0.0000 41.4134 0.0000
# 6 0.0000 0.0000 0.0000 0.0000 0.0000 40.6047
#
#
#
# Elastic Compliance Matrix: (Units=1/GPa)
#
#
# Indices 1 2 3 4 5 6 
#
# 1 0.011726 -0.002407 -0.001495 0.000000 0.000000 0.000000
# 2 -0.002407 0.011726 -0.001495 0.000000 0.000000 0.000000
# 3 -0.001495 -0.001495 0.012732 0.000000 0.000000 0.000000
# 4 0.000000 0.000000 0.000000 0.024146 0.000000 0.000000
# 5 0.000000 0.000000 0.000000 0.000000 0.024147 0.000000
# 6 0.000000 0.000000 0.000000 0.000000 0.000000 0.024628
#
#
# Mechanical properties :
#
#
# Convention : Reuss Voigt Hill
#
# Bulk Modulus (GPa) = 39.38769 39.66975 39.52872
# Shear Modulus (GPa) = 38.95171 39.17389 39.06280
#
# Velocity S-wave (km/s) = 4.26918 4.28134 4.27527
# Velocity P-wave (km/s) = 6.53691 6.55757 6.54725
#
# Compressibility (1/GPa) = 0.02538864
#
# Stress axis : x y z
#
# Youngs Moduli (GPa) = 85.27960 85.27992 78.54079
#
# Poissons Ratio (x) = 0.20530 0.11745
# Poissons Ratio (y) = 0.20530 0.11744
# Poissons Ratio (z) = 0.12752 0.12751
#
# Static dielectric constant tensor:
#      x y z
#    x 0.826950 0.000000 0.000000 
#    y 0.000000 0.827110 0.000000 
#    z 0.000000 0.000000 1.769760 
# 
# From -- ./inp_files/1733.got.cif
#   From: 2010.05.17/outbox.cif.g08.bks.cpg/sg125_1_cif.got.tgz:1733.got - 2010.05.20 11:54:10.
