data_PCOD9563184
_publ_section_title
;
Structure prediction by ZEFSAII (Michael W. Deem and Ramdas Pophale) SiO2 
 PCOD9563184
Probable space group: P 4/N B M
;
_chemical_formula_sum "Si O2"
_cell_formula_units_Z 120
_cell_length_a 14.579184
_cell_length_b 14.579184
_cell_length_c 31.416235
_cell_angle_alpha 90.000000
_cell_angle_beta 90.000000
_cell_angle_gamma 90.000000
_cell_volume 6677.602623
_symmetry_space_group_name_H-M "P 4/N B M"
_symmetry_group_IT_number 125
_space_group.IT_coordinate_system_code '2'
_symmetry_cell_setting 'tetragonal'
loop_
_space_group_symop_operation_xyz
x,y,z
1/2-y,x,z
1/2-x,1/2-y,z
y,1/2-x,z
x,1/2-y,-z
1/2-x,y,-z
y,x,-z
1/2-y,1/2-x,-z
-x,-y,-z
1/2+y,-x,-z
1/2+x,1/2+y,-z
-y,1/2+x,-z
-x,1/2+y,z
1/2+x,-y,z
-y,-x,z
1/2+y,1/2+x,z
loop_
_atom_site_type_symbol
_atom_site_label
_atom_site_fract_x
_atom_site_fract_y
_atom_site_fract_z
Si Si1 0.406167 0.250000 0.000000
Si Si2 0.812300 0.607533 0.394264
Si Si3 0.494601 0.148251 0.479262
Si Si4 0.897657 0.256041 0.841432
Si Si5 0.351942 0.136591 0.132926
Si Si6 0.526295 0.626437 0.210705
Si Si7 0.888810 0.682380 0.702020
Si Si8 0.660068 0.486060 0.074240
O O1 0.337661 0.337661 0.000000
O O2 0.471499 0.271116 0.039961
O O3 0.865977 0.704587 0.399100
O O4 0.839368 0.535657 0.430222
O O5 0.831059 0.575340 0.345981
O O6 0.501598 0.250000 0.500000
O O7 0.586695 0.086695 0.483707
O O8 0.411933 0.088068 0.500000
O O9 0.822707 0.177294 0.849086
O O10 0.843780 0.343780 0.822914
O O11 0.971221 0.211276 0.810210
O O12 0.938456 0.287387 0.886415
O O13 0.372097 0.243170 0.127091
O O14 0.386330 0.111844 0.179987
O O15 0.393692 0.069890 0.097595
O O16 0.461440 0.538561 0.207884
O O17 0.551175 0.648517 0.258941
O O18 0.867498 0.790456 0.705787
O O19 0.587598 0.412403 0.056352
#
# Coordination Sequence:
#
# PCOD9563184 Si02
#       8
#     8  16  16  16  16  16  16  16
#     4  11  26  46  62  85 122 158 184 223 288 350
#     4   9  17  33  58  82 112 155 201 254 308 362
#     4  11  22  35  58  90 121 157 206 261 318 378
#     4   9  20  39  60  82 113 149 186 232 281 332
#     4  11  21  36  57  83 116 151 183 230 297 348
#     4  11  21  34  55  84 115 151 197 240 286 349
#     4   9  19  35  53  80 117 155 194 242 305 360
#     4  11  23  41  64  89 113 145 191 235 276 337
#
# _framework density 17.970521999999999
#
# number of rings (size 3 to 8) (size 9 to 14) (size 15 to 20)
#    0.000    1.800    2.667    2.800    0.000    3.733 
#    0.000    0.000    0.000    1.600    0.000    1.867 
#    0.000    0.000    0.000    0.000    0.000    0.000 
#
# Total GULP energy -669222.271488 kJ/mol
# GULP energy per Si atom -5576.852262 kJ/mol
# Density = 1.792962 g / cm^3
# Si number density = 17.970522 Si / 1000 Ang^3
#
#
#
# Elastic Constant Matrix: (Units=GPa)
#
#
# Indices 1 2 3 4 5 6 
#
# 1 79.6220 36.1641 43.2172 0.0000 0.0000 0.0000
# 2 36.1641 79.6219 43.2170 0.0000 0.0000 0.0000
# 3 43.2172 43.2170 121.2579 0.0000 0.0000 0.0000
# 4 0.0000 0.0000 0.0000 20.9504 0.0000 0.0000
# 5 0.0000 0.0000 0.0000 0.0000 20.9506 0.0000
# 6 0.0000 0.0000 0.0000 0.0000 0.0000 11.1004
#
#
#
# Elastic Compliance Matrix: (Units=1/GPa)
#
#
# Indices 1 2 3 4 5 6 
#
# 1 0.017389 -0.005622 -0.004194 0.000000 0.000000 0.000000
# 2 -0.005622 0.017389 -0.004194 0.000000 0.000000 0.000000
# 3 -0.004194 -0.004194 0.011236 0.000000 0.000000 0.000000
# 4 0.000000 0.000000 0.000000 0.047732 0.000000 0.000000
# 5 0.000000 0.000000 0.000000 0.000000 0.047731 0.000000
# 6 0.000000 0.000000 0.000000 0.000000 0.000000 0.090087
#
#
# Mechanical properties :
#
#
# Convention : Reuss Voigt Hill
#
# Bulk Modulus (GPa) = 55.56999 58.41091 56.99045
# Shear Modulus (GPa) = 18.82657 21.12720 19.97688
#
# Velocity S-wave (km/s) = 3.24023 3.43251 3.33775
# Velocity P-wave (km/s) = 6.70737 6.94865 6.82908
#
# Compressibility (1/GPa) = 0.01799533
#
# Stress axis : x y z
#
# Youngs Moduli (GPa) = 57.50723 57.50723 88.99641
#
# Poissons Ratio (x) = 0.32329 0.37325
# Poissons Ratio (y) = 0.32329 0.37325
# Poissons Ratio (z) = 0.24119 0.24118
#
# Static dielectric constant tensor:
#      x y z
#    x 1.637780 0.000000 0.000000 
#    y 0.000000 1.637780 0.000000 
#    z 0.000000 0.000000 1.610020 
# 
# From -- ./inp_files/6666.got.cif
#   From: 2010.05.17/outbox.cif.g08.bks.cpg/sg125_4_cif.got.tgz:6666.got - 2010.05.20 11:54:10.
