data_PCOD9563500
_publ_section_title
;
Structure prediction by ZEFSAII (Michael W. Deem and Ramdas Pophale) SiO2 
 PCOD9563500
Probable space group: P 4/N N C
;
_chemical_formula_sum "Si O2"
_cell_formula_units_Z 68
_cell_length_a 16.628520
_cell_length_b 16.628520
_cell_length_c 14.021247
_cell_angle_alpha 90.000000
_cell_angle_beta 90.000000
_cell_angle_gamma 90.000000
_cell_volume 3876.982442
_symmetry_space_group_name_H-M "P 4/N N C"
_symmetry_group_IT_number 126
_space_group.IT_coordinate_system_code '2'
_symmetry_cell_setting 'tetragonal'
loop_
_space_group_symop_operation_xyz
x,y,z
1/2-y,x,z
1/2-x,1/2-y,z
y,1/2-x,z
x,1/2-y,1/2-z
1/2-x,y,1/2-z
y,x,1/2-z
1/2-y,1/2-x,1/2-z
-x,-y,-z
1/2+y,-x,-z
1/2+x,1/2+y,-z
-y,1/2+x,-z
-x,1/2+y,1/2+z
1/2+x,-y,1/2+z
-y,-x,1/2+z
1/2+y,1/2+x,1/2+z
loop_
_atom_site_type_symbol
_atom_site_label
_atom_site_fract_x
_atom_site_fract_y
_atom_site_fract_z
Si Si1 0.293142 0.377382 0.575204
Si Si2 0.113776 0.825477 0.379107
Si Si3 0.750000 0.250000 0.750000
Si Si4 0.992476 0.870575 0.216762
Si Si5 0.953453 0.170808 0.978363
O O1 0.201500 0.348451 0.566326
O O2 0.315729 0.420000 0.675375
O O3 0.312823 0.451716 0.504556
O O4 0.192147 0.801683 0.318378
O O5 0.127976 0.906450 0.437808
O O6 0.090618 0.754386 0.452002
O O7 0.041645 0.833868 0.303628
O O8 0.953184 0.953184 0.250000
O O9 0.047633 0.877774 0.122238
#
# Coordination Sequence:
#
# PCOD9563500 Si02
#       5
#    16  16   4  16  16
#     4   9  19  37  61  87 114 148 192 241 294 350
#     4  12  22  39  55  84 115 153 195 238 289 350
#     4  12  20  38  64  76 114 156 208 242 276 360
#     4  10  22  38  57  84 119 148 187 239 297 347
#     4  10  23  36  56  85 115 154 187 237 290 348
#
# _framework density 17.539414000000001
#
# number of rings (size 3 to 8) (size 9 to 14) (size 15 to 20)
#    1.412    0.235    2.353    2.824    3.294    0.941 
#    0.000    1.176    0.000    0.000    0.000    0.000 
#    0.000    1.882    0.000    0.000    0.000    0.000 
#
# Total GULP energy -378801.581057 kJ/mol
# GULP energy per Si atom -5570.611486 kJ/mol
# Density = 1.749949 g / cm^3
# Si number density = 17.539414 Si / 1000 Ang^3
#
#
#
# Elastic Constant Matrix: (Units=GPa)
#
#
# Indices 1 2 3 4 5 6 
#
# 1 77.5236 56.2414 37.2445 0.0000 0.0000 0.0000
# 2 56.2414 77.5236 37.2445 0.0000 0.0000 0.0000
# 3 37.2445 37.2445 61.2095 0.0000 0.0000 0.0000
# 4 0.0000 0.0000 0.0000 21.8469 0.0000 0.0000
# 5 0.0000 0.0000 0.0000 0.0000 21.8469 0.0000
# 6 0.0000 0.0000 0.0000 0.0000 0.0000 32.6775
#
#
#
# Elastic Compliance Matrix: (Units=1/GPa)
#
#
# Indices 1 2 3 4 5 6 
#
# 1 0.029147 -0.017840 -0.006880 0.000000 0.000000 0.000000
# 2 -0.017840 0.029147 -0.006880 0.000000 0.000000 0.000000
# 3 -0.006880 -0.006880 0.024710 0.000000 0.000000 0.000000
# 4 0.000000 0.000000 0.000000 0.045773 0.000000 0.000000
# 5 0.000000 0.000000 0.000000 0.000000 0.045773 0.000000
# 6 0.000000 0.000000 0.000000 0.000000 0.000000 0.030602
#
#
# Mechanical properties :
#
#
# Convention : Reuss Voigt Hill
#
# Bulk Modulus (GPa) = 50.49517 53.07973 51.78745
# Shear Modulus (GPa) = 18.18477 20.97601 19.58039
#
# Velocity S-wave (km/s) = 3.22342 3.46198 3.34483
# Velocity P-wave (km/s) = 6.53498 6.80509 6.67140
#
# Compressibility (1/GPa) = 0.01980388
#
# Stress axis : x y z
#
# Youngs Moduli (GPa) = 34.30840 34.30840 40.46940
#
# Poissons Ratio (x) = 0.61207 0.27843
# Poissons Ratio (y) = 0.61207 0.27843
# Poissons Ratio (z) = 0.23604 0.23604
#
# Static dielectric constant tensor:
#      x y z
#    x 1.625910 0.000000 0.000000 
#    y 0.000000 1.625910 0.000000 
#    z 0.000000 0.000000 1.594910 
# 
# From -- ./inp_files/3558.got.cif
#   From: 2010.05.17/outbox.cif.g08.bks.cpg/sg126_2_cif.got.tgz:3558.got - 2010.05.20 11:58:20.
