data_PCOD9563174
_publ_section_title
;
Structure prediction by ZEFSAII (Michael W. Deem and Ramdas Pophale) SiO2 
 PCOD9563174
Probable space group: P 4/N B M
;
_chemical_formula_sum "Si O2"
_cell_formula_units_Z 96
_cell_length_a 15.441094
_cell_length_b 15.441094
_cell_length_c 22.336134
_cell_angle_alpha 90.000000
_cell_angle_beta 90.000000
_cell_angle_gamma 90.000000
_cell_volume 5325.545996
_symmetry_space_group_name_H-M "P 4/N B M"
_symmetry_group_IT_number 125
_space_group.IT_coordinate_system_code '2'
_symmetry_cell_setting 'tetragonal'
loop_
_space_group_symop_operation_xyz
x,y,z
1/2-y,x,z
1/2-x,1/2-y,z
y,1/2-x,z
x,1/2-y,-z
1/2-x,y,-z
y,x,-z
1/2-y,1/2-x,-z
-x,-y,-z
1/2+y,-x,-z
1/2+x,1/2+y,-z
-y,1/2+x,-z
-x,1/2+y,z
1/2+x,-y,z
-y,-x,z
1/2+y,1/2+x,z
loop_
_atom_site_type_symbol
_atom_site_label
_atom_site_fract_x
_atom_site_fract_y
_atom_site_fract_z
Si Si1 0.176880 0.823121 0.401338
Si Si2 0.895345 0.252388 0.931797
Si Si3 0.915094 0.940277 0.373540
Si Si4 0.013458 0.233232 0.568168
Si Si5 0.994023 0.232601 0.811523
Si Si6 0.582366 0.562215 0.230184
Si Si7 0.823192 0.323192 0.260450
O O1 0.250000 0.750000 0.406251
O O2 0.159904 0.840097 0.330511
O O3 0.087968 0.790584 0.429627
O O4 0.824521 0.175480 0.926786
O O5 0.840880 0.340880 0.922520
O O6 0.964911 0.240076 0.880280
O O7 0.928483 0.250000 0.000000
O O8 0.937710 0.849401 0.404455
O O9 0.820272 0.970842 0.393983
O O10 0.918631 0.929007 0.302075
O O11 0.987077 0.012924 0.390111
O O12 0.040520 0.250000 0.500000
O O13 0.030810 0.323747 0.789899
O O14 0.057980 0.153081 0.799681
O O15 0.908763 0.210110 0.772457
O O16 0.509460 0.490541 0.214334
O O17 0.750000 0.250000 0.255849
#
# Coordination Sequence:
#
# PCOD9563174 Si02
#       7
#     8  16  16  16  16  16   8
#     4  11  24  38  59  93 121 147 200 264 324 371
#     4   9  17  32  57  91 128 166 210 261 310 362
#     4  11  24  44  64  90 125 161 206 260 319 377
#     4  12  26  41  65  87 120 163 204 249 314 383
#     4  12  22  37  61  91 127 163 212 258 312 372
#     4  11  23  39  63  91 124 163 210 262 318 375
#     4  11  20  36  62  87 116 153 205 270 319 355
#
# _framework density 18.026320999999999
#
# number of rings (size 3 to 8) (size 9 to 14) (size 15 to 20)
#    0.000    1.000    2.500    6.000    2.333    4.000 
#    0.000    3.333    0.000    3.000    0.000    1.167 
#    0.000    0.000    0.000    0.000    0.000    0.000 
#
# Total GULP energy -536922.609792 kJ/mol
# GULP energy per Si atom -5592.943852 kJ/mol
# Density = 1.798529 g / cm^3
# Si number density = 18.026321 Si / 1000 Ang^3
#
#
#
# Elastic Constant Matrix: (Units=GPa)
#
#
# Indices 1 2 3 4 5 6 
#
# 1 117.6297 54.5957 52.1798 0.0000 0.0000 0.0000
# 2 54.5957 117.6297 52.1798 0.0000 0.0000 0.0000
# 3 52.1798 52.1798 93.6884 0.0000 0.0000 0.0000
# 4 0.0000 0.0000 0.0000 21.0274 0.0000 0.0000
# 5 0.0000 0.0000 0.0000 0.0000 21.0274 0.0000
# 6 0.0000 0.0000 0.0000 0.0000 0.0000 31.2151
#
#
#
# Elastic Compliance Matrix: (Units=1/GPa)
#
#
# Indices 1 2 3 4 5 6 
#
# 1 0.012314 -0.003550 -0.004881 0.000000 0.000000 0.000000
# 2 -0.003550 0.012314 -0.004881 0.000000 0.000000 0.000000
# 3 -0.004881 -0.004881 0.016111 0.000000 0.000000 0.000000
# 4 0.000000 0.000000 0.000000 0.047557 0.000000 0.000000
# 5 0.000000 0.000000 0.000000 0.000000 0.047557 0.000000
# 6 0.000000 0.000000 0.000000 0.000000 0.000000 0.032036
#
#
# Mechanical properties :
#
#
# Convention : Reuss Voigt Hill
#
# Bulk Modulus (GPa) = 70.84998 71.87314 71.36156
# Shear Modulus (GPa) = 25.09800 25.98680 25.54240
#
# Velocity S-wave (km/s) = 3.73540 3.80096 3.76832
# Velocity P-wave (km/s) = 7.61533 7.69551 7.65552
#
# Compressibility (1/GPa) = 0.01411433
#
# Stress axis : x y z
#
# Youngs Moduli (GPa) = 81.20667 81.20667 62.07019
#
# Poissons Ratio (x) = 0.28830 0.30297
# Poissons Ratio (y) = 0.28830 0.30297
# Poissons Ratio (z) = 0.39638 0.39638
#
# Static dielectric constant tensor:
#      x y z
#    x 1.610680 0.000000 0.000000 
#    y 0.000000 1.610680 0.000000 
#    z 0.000000 0.000000 1.611840 
# 
# From -- ./inp_files/5985.got.cif
#   From: 2010.05.17/outbox.cif.g08.bks.cpg/sg125_3_cif.got.tgz:5985.got - 2010.05.20 11:54:10.
