data_PCOD9563107
_publ_section_title
;
Structure prediction by ZEFSAII (Michael W. Deem and Ramdas Pophale) SiO2 
 PCOD9563107
Probable space group: P 4/N B M
;
_chemical_formula_sum "Si O2"
_cell_formula_units_Z 112
_cell_length_a 14.778027
_cell_length_b 14.778027
_cell_length_c 28.603703
_cell_angle_alpha 90.000000
_cell_angle_beta 90.000000
_cell_angle_gamma 90.000000
_cell_volume 6246.765044
_symmetry_space_group_name_H-M "P 4/N B M"
_symmetry_group_IT_number 125
_space_group.IT_coordinate_system_code '2'
_symmetry_cell_setting 'tetragonal'
loop_
_space_group_symop_operation_xyz
x,y,z
1/2-y,x,z
1/2-x,1/2-y,z
y,1/2-x,z
x,1/2-y,-z
1/2-x,y,-z
y,x,-z
1/2-y,1/2-x,-z
-x,-y,-z
1/2+y,-x,-z
1/2+x,1/2+y,-z
-y,1/2+x,-z
-x,1/2+y,z
1/2+x,-y,z
-y,-x,z
1/2+y,1/2+x,z
loop_
_atom_site_type_symbol
_atom_site_label
_atom_site_fract_x
_atom_site_fract_y
_atom_site_fract_z
Si Si1 0.504992 0.647594 0.521917
Si Si2 0.372895 0.026586 0.289739
Si Si3 0.252913 0.901801 0.051408
Si Si4 0.234610 0.989477 0.150386
Si Si5 0.317542 0.386230 0.613185
Si Si6 0.742425 0.392399 0.756373
Si Si7 0.562647 0.913830 0.188896
O O1 0.498648 0.750000 0.500000
O O2 0.586583 0.586583 0.500000
O O3 0.413073 0.586928 0.517067
O O4 0.537238 0.656921 0.575582
O O5 0.346491 0.080719 0.335524
O O6 0.406171 0.082309 0.244260
O O7 0.450169 0.950169 0.299074
O O8 0.282104 0.977647 0.270461
O O9 0.173037 0.826964 0.051514
O O10 0.345949 0.845949 0.055704
O O11 0.242021 0.962196 0.096861
O O12 0.250000 0.946388 0.000000
O O13 0.138449 0.031226 0.162406
O O14 0.316261 0.054224 0.165606
O O15 0.244001 0.908640 0.188026
O O16 0.210635 0.366549 0.606621
O O17 0.644047 0.355954 0.742626
O O18 0.814742 0.314742 0.745980
O O19 0.467057 0.967057 0.185490
#
# Coordination Sequence:
#
# PCOD9563107 Si02
#       7
#    16  16  16  16  16  16  16
#     4  11  23  43  71  99 127 164 208 256 309 362
#     4   9  20  37  52  79 119 149 190 248 295 351
#     4   9  17  30  52  81 107 133 175 239 306 355
#     4  11  20  34  52  74 109 145 185 235 282 343
#     4  11  23  38  61  90 121 164 209 248 296 356
#     4   9  17  31  53  76 100 141 190 237 294 348
#     4  10  22  36  55  81 108 149 196 235 282 344
#
# _framework density 17.929279999999999
#
# number of rings (size 3 to 8) (size 9 to 14) (size 15 to 20)
#    0.000    2.000    1.429    4.286    4.000    1.714 
#    0.000    2.143    0.000    4.286    0.000    1.000 
#    0.000    0.000    0.000    0.000    0.000    0.000 
#
# Total GULP energy -624191.684901 kJ/mol
# GULP energy per Si atom -5573.140044 kJ/mol
# Density = 1.788847 g / cm^3
# Si number density = 17.929280 Si / 1000 Ang^3
#
#
#
# Elastic Constant Matrix: (Units=GPa)
#
#
# Indices 1 2 3 4 5 6 
#
# 1 64.1456 28.5571 30.7124 0.0000 0.0000 0.0000
# 2 28.5571 64.1456 30.7124 0.0000 0.0000 0.0000
# 3 30.7124 30.7124 114.5344 0.0000 0.0000 0.0000
# 4 0.0000 0.0000 0.0000 32.9306 0.0000 0.0000
# 5 0.0000 0.0000 0.0000 0.0000 32.9306 0.0000
# 6 0.0000 0.0000 0.0000 0.0000 0.0000 17.2720
#
#
#
# Elastic Compliance Matrix: (Units=1/GPa)
#
#
# Indices 1 2 3 4 5 6 
#
# 1 0.020608 -0.007491 -0.003518 0.000000 0.000000 0.000000
# 2 -0.007491 0.020608 -0.003518 0.000000 0.000000 0.000000
# 3 -0.003518 -0.003518 0.010617 0.000000 0.000000 0.000000
# 4 0.000000 0.000000 0.000000 0.030367 0.000000 0.000000
# 5 0.000000 0.000000 0.000000 0.000000 0.030367 0.000000
# 6 0.000000 0.000000 0.000000 0.000000 0.000000 0.057897
#
#
# Mechanical properties :
#
#
# Convention : Reuss Voigt Hill
#
# Bulk Modulus (GPa) = 43.89235 46.97661 45.43448
# Shear Modulus (GPa) = 24.14166 26.81624 25.47895
#
# Velocity S-wave (km/s) = 3.67344 3.87158 3.77381
# Velocity P-wave (km/s) = 6.52121 6.80025 6.66219
#
# Compressibility (1/GPa) = 0.02278301
#
# Stress axis : x y z
#
# Youngs Moduli (GPa) = 48.52384 48.52384 94.18446
#
# Poissons Ratio (x) = 0.36347 0.33130
# Poissons Ratio (y) = 0.36347 0.33130
# Poissons Ratio (z) = 0.17069 0.17069
#
# Static dielectric constant tensor:
#      x y z
#    x 1.645620 0.000000 0.000000 
#    y 0.000000 1.645620 0.000000 
#    z 0.000000 0.000000 1.601230 
# 
# From -- ./inp_files/6459.got.cif
#   From: 2010.05.17/outbox.cif.g08.bks.cpg/sg125_4_cif.got.tgz:6459.got - 2010.05.20 11:54:10.
