data_PCOD9563710
_publ_section_title
;
Structure prediction by ZEFSAII (Michael W. Deem and Ramdas Pophale) SiO2 
 PCOD9563710
Probable space group: P 4/N N C
;
_chemical_formula_sum "Si O2"
_cell_formula_units_Z 36
_cell_length_a 7.074078
_cell_length_b 7.074078
_cell_length_c 25.601693
_cell_angle_alpha 90.000000
_cell_angle_beta 90.000000
_cell_angle_gamma 90.000000
_cell_volume 1281.174759
_symmetry_space_group_name_H-M "P 4/N N C"
_symmetry_group_IT_number 126
_space_group.IT_coordinate_system_code '2'
_symmetry_cell_setting 'tetragonal'
loop_
_space_group_symop_operation_xyz
x,y,z
1/2-y,x,z
1/2-x,1/2-y,z
y,1/2-x,z
x,1/2-y,1/2-z
1/2-x,y,1/2-z
y,x,1/2-z
1/2-y,1/2-x,1/2-z
-x,-y,-z
1/2+y,-x,-z
1/2+x,1/2+y,-z
-y,1/2+x,-z
-x,1/2+y,1/2+z
1/2+x,-y,1/2+z
-y,-x,1/2+z
1/2+y,1/2+x,1/2+z
loop_
_atom_site_type_symbol
_atom_site_label
_atom_site_fract_x
_atom_site_fract_y
_atom_site_fract_z
Si Si1 0.524116 0.083027 0.582552
Si Si2 0.995872 0.956641 0.194237
Si Si3 0.750000 0.250000 0.000000
O O1 0.495023 0.311627 0.581078
O O2 0.595113 0.008887 0.638807
O O3 0.669098 0.074391 0.534762
O O4 0.772142 0.003589 0.194007
O O5 0.046230 0.046230 0.250000
#
# Coordination Sequence:
#
# PCOD9563710 Si02
#       3
#    16  16   4
#     4   9  18  31  46  66  93 130 167 199 242 292
#     4   7  10  20  41  63  79 105 147 192 232 270
#     4  12  20  28  44  70 104 132 160 204 248 298
#
# _framework density 28.099215000000001
#
# number of rings (size 3 to 8) (size 9 to 14) (size 15 to 20)
#    0.000    3.556    0.000    5.333    0.000    0.000 
#    0.000    0.000    0.000   21.333    0.000    0.000 
#    0.000    0.000    0.000   88.889    0.000    0.000 
#
# Total GULP energy -200525.522883 kJ/mol
# GULP energy per Si atom -5570.153413 kJ/mol
# Density = 2.803526 g / cm^3
# Si number density = 28.099215 Si / 1000 Ang^3
#
#
#
# Elastic Constant Matrix: (Units=GPa)
#
#
# Indices 1 2 3 4 5 6 
#
# 1 110.3080 20.6388 30.0684 0.0000 0.0000 0.0000
# 2 20.6388 110.3080 30.0684 0.0000 0.0000 0.0000
# 3 30.0684 30.0684 287.4014 0.0000 0.0000 0.0000
# 4 0.0000 0.0000 0.0000 -32.5394 0.0000 0.0000
# 5 0.0000 0.0000 0.0000 0.0000 -32.5394 0.0000
# 6 0.0000 0.0000 0.0000 0.0000 0.0000 15.2936
#
#
#
# Elastic Compliance Matrix: (Units=1/GPa)
#
#
# Indices 1 2 3 4 5 6 
#
# 1 0.009587 -0.001565 -0.000839 0.000000 0.000000 0.000000
# 2 -0.001565 0.009587 -0.000839 0.000000 0.000000 0.000000
# 3 -0.000839 -0.000839 0.003655 0.000000 0.000000 0.000000
# 4 0.000000 0.000000 0.000000 -0.030732 0.000000 0.000000
# 5 0.000000 0.000000 0.000000 0.000000 -0.030732 0.000000
# 6 0.000000 0.000000 0.000000 0.000000 0.000000 0.065387
#
#
# Mechanical properties :
#
#
# Convention : Reuss Voigt Hill
#
# Bulk Modulus (GPa) = 61.19138 74.39653 67.79395
# Shear Modulus (GPa) = 129.24311 18.52575 73.88443
#
# Velocity S-wave (km/s) = 6.78934 2.57046 5.13334
# Velocity P-wave (km/s) = 9.12603 5.94505 7.70156
#
# Compressibility (1/GPa) = 0.01634217
#
# Stress axis : x y z
#
# Youngs Moduli (GPa) = 104.30663 104.30663 273.59255
#
# Poissons Ratio (x) = 0.16324 0.22962
# Poissons Ratio (y) = 0.16324 0.22962
# Poissons Ratio (z) = 0.08754 0.08754
#
# Static dielectric constant tensor:
#      x y z
#    x 2.140130 0.000000 0.000000 
#    y 0.000000 2.140130 0.000000 
#    z 0.000000 0.000000 2.614530 
# 
# From -- ./inp_files/5551.got.cif
#   From: 2010.05.17/outbox.cif.g08.bks.cpg/sg126_3_cif.got.tgz:5551.got - 2010.05.20 11:58:20.
