data_PCOD9563786
_publ_section_title
;
Structure prediction by ZEFSAII (Michael W. Deem and Ramdas Pophale) SiO2 
 PCOD9563786
Probable space group: P 4/M B M
;
_chemical_formula_sum "Si O2"
_cell_formula_units_Z 96
_cell_length_a 24.023819
_cell_length_b 24.023819
_cell_length_c 7.285040
_cell_angle_alpha 90.000000
_cell_angle_beta 90.000000
_cell_angle_gamma 90.000000
_cell_volume 4204.516247
_symmetry_space_group_name_H-M "P 4/M B M"
_symmetry_group_IT_number 127
_symmetry_cell_setting 'tetragonal'
loop_
_space_group_symop_operation_xyz
x,y,z
-y,x,z
-x,-y,z
y,-x,z
1/2+x,1/2-y,-z
1/2-x,1/2+y,-z
1/2+y,1/2+x,-z
1/2-y,1/2-x,-z
-x,-y,-z
y,-x,-z
x,y,-z
-y,x,-z
1/2-x,1/2+y,z
1/2+x,1/2-y,z
1/2-y,1/2-x,z
1/2+y,1/2+x,z
loop_
_atom_site_type_symbol
_atom_site_label
_atom_site_fract_x
_atom_site_fract_y
_atom_site_fract_z
Si Si1 0.980165 0.758960 0.288262
Si Si2 0.853264 0.353264 0.721734
Si Si3 0.630395 0.044337 0.777741
Si Si4 0.058995 0.064536 0.277724
Si Si5 0.731165 0.392301 0.275606
Si Si6 0.944159 0.444159 0.790671
Si Si7 0.125714 0.171905 0.278153
O O1 0.981803 0.778354 0.500000
O O2 0.972014 0.692245 0.283697
O O3 0.921844 0.784606 0.212722
O O4 0.042225 0.775340 0.215745
O O5 0.854463 0.354463 0.500000
O O6 0.872501 0.292310 0.778320
O O7 0.897350 0.397350 0.790338
O O8 0.604517 0.104517 0.726625
O O9 0.586073 0.998189 0.711635
O O10 0.631999 0.042051 0.000000
O O11 0.058527 0.063200 0.500000
O O12 0.098731 0.113110 0.226685
O O13 0.996411 0.075872 0.216229
O O14 0.727956 0.394757 0.500000
O O15 0.688599 0.342825 0.218805
O O16 0.958338 0.458338 0.000000
O O17 0.128877 0.179668 0.500000
#
# Coordination Sequence:
#
# PCOD9563786 Si02
#       7
#    16   8  16  16  16   8  16
#     4  10  19  32  52  77 104 136 173 214 254 295
#     4  10  18  31  51  73 104 138 168 203 253 300
#     4  10  21  37  56  77 103 132 162 202 257 313
#     4   8  12  18  31  54  87 124 158 198 248 293
#     4   9  17  29  46  69 101 137 170 208 254 302
#     4  10  19  34  58  82 100 124 164 208 249 305
#     4   9  16  26  41  67  98 131 169 206 246 295
#
# _framework density 22.832592000000002
#
# number of rings (size 3 to 8) (size 9 to 14) (size 15 to 20)
#    0.000    2.667    1.667    1.750    0.000    5.333 
#    1.500    0.000    0.000    3.500    0.000    0.000 
#    0.000    0.000    0.000    5.167    0.000    5.000 
#
# Total GULP energy -535040.171211 kJ/mol
# GULP energy per Si atom -5573.335117 kJ/mol
# Density = 2.278062 g / cm^3
# Si number density = 22.832592 Si / 1000 Ang^3
#
#
#
# Elastic Constant Matrix: (Units=GPa)
#
#
# Indices 1 2 3 4 5 6 
#
# 1 132.0691 17.3105 1.3800 0.0000 0.0000 0.0000
# 2 17.3105 132.0691 1.3800 0.0000 0.0000 0.0000
# 3 1.3800 1.3800 93.3912 0.0000 0.0000 0.0000
# 4 0.0000 0.0000 0.0000 2.9405 0.0000 0.0000
# 5 0.0000 0.0000 0.0000 0.0000 2.9405 0.0000
# 6 0.0000 0.0000 0.0000 0.0000 0.0000 49.3633
#
#
#
# Elastic Compliance Matrix: (Units=1/GPa)
#
#
# Indices 1 2 3 4 5 6 
#
# 1 0.007705 -0.001009 -0.000099 0.000000 0.000000 0.000000
# 2 -0.001009 0.007705 -0.000099 0.000000 0.000000 0.000000
# 3 -0.000099 -0.000099 0.010711 0.000000 0.000000 0.000000
# 4 0.000000 0.000000 0.000000 0.340083 0.000000 0.000000
# 5 0.000000 0.000000 0.000000 0.000000 0.340083 0.000000
# 6 0.000000 0.000000 0.000000 0.000000 0.000000 0.020258
#
#
# Mechanical properties :
#
#
# Convention : Reuss Voigt Hill
#
# Bulk Modulus (GPa) = 42.18138 44.18561 43.18350
# Shear Modulus (GPa) = 6.78555 33.54611 20.16583
#
# Velocity S-wave (km/s) = 1.72578 3.83720 2.97510
# Velocity P-wave (km/s) = 4.74188 6.24709 5.54579
#
# Compressibility (1/GPa) = 0.02370714
#
# Stress axis : x y z
#
# Youngs Moduli (GPa) = 129.78481 129.78481 93.36572
#
# Poissons Ratio (x) = 0.13094 0.00924
# Poissons Ratio (y) = 0.13094 0.00924
# Poissons Ratio (z) = 0.01284 0.01284
#
# Static dielectric constant tensor:
#      x y z
#    x 1.839770 0.000000 0.000000 
#    y 0.000000 1.839770 0.000000 
#    z 0.000000 0.000000 1.970290 
# 
# From -- ./inp_files/3625.got.cif
#   From: 2010.05.17/outbox.cif.g08.bks.cpg/sg127_2_cif.got.tgz:3625.got - 2010.05.20 12:03:00.
