data_PCOD9563868
_publ_section_title
;
Structure prediction by ZEFSAII (Michael W. Deem and Ramdas Pophale) SiO2 
 PCOD9563868
Probable space group: P 4/M B M
;
_chemical_formula_sum "Si O2"
_cell_formula_units_Z 112
_cell_length_a 14.341747
_cell_length_b 14.341747
_cell_length_c 30.307672
_cell_angle_alpha 90.000000
_cell_angle_beta 90.000000
_cell_angle_gamma 90.000000
_cell_volume 6233.854943
_symmetry_space_group_name_H-M "P 4/M B M"
_symmetry_group_IT_number 127
_symmetry_cell_setting 'tetragonal'
loop_
_space_group_symop_operation_xyz
x,y,z
-y,x,z
-x,-y,z
y,-x,z
1/2+x,1/2-y,-z
1/2-x,1/2+y,-z
1/2+y,1/2+x,-z
1/2-y,1/2-x,-z
-x,-y,-z
y,-x,-z
x,y,-z
-y,x,-z
1/2-x,1/2+y,z
1/2+x,1/2-y,z
1/2-y,1/2-x,z
1/2+y,1/2+x,z
loop_
_atom_site_type_symbol
_atom_site_label
_atom_site_fract_x
_atom_site_fract_y
_atom_site_fract_z
Si Si1 0.615370 0.393397 0.547639
Si Si2 0.003748 0.651214 0.666299
Si Si3 0.705033 0.638750 0.362220
Si Si4 0.403217 0.748949 0.052609
Si Si5 0.760275 0.893272 0.094328
Si Si6 0.873188 0.219040 0.276629
Si Si7 0.862407 0.927181 0.182711
O O1 0.626072 0.504588 0.548097
O O2 0.652433 0.358660 0.500000
O O3 0.651360 0.351519 0.593006
O O4 0.087807 0.587807 0.646537
O O5 0.049656 0.707040 0.706575
O O6 0.922222 0.577779 0.678732
O O7 0.953857 0.730728 0.637323
O O8 0.775784 0.724217 0.359357
O O9 0.644680 0.647495 0.317374
O O10 0.339417 0.839417 0.062985
O O11 0.342671 0.660264 0.068279
O O12 0.502318 0.750751 0.076581
O O13 0.416592 0.745327 0.000000
O O14 0.667226 0.832775 0.088041
O O15 0.790911 0.894189 0.145421
O O16 0.778581 0.278581 0.269229
O O17 0.904799 0.171488 0.231883
O O18 0.962568 0.878619 0.176621
#
# Coordination Sequence:
#
# PCOD9563868 Si02
#       7
#    16  16  16  16  16  16  16
#     4   9  18  32  49  69  96 131 169 212 266 325
#     4   9  18  33  51  72 102 138 174 215 266 324
#     4  10  19  31  51  77 103 132 172 222 269 320
#     4  10  22  40  64  94 122 154 200 246 292 348
#     4  11  22  40  62  87 122 160 196 242 295 347
#     4  10  20  34  53  79 106 139 183 227 274 328
#     4  11  22  37  56  80 112 149 191 236 286 343
#
# _framework density 17.96641
#
# number of rings (size 3 to 8) (size 9 to 14) (size 15 to 20)
#    0.000    2.000    1.429    3.000    0.000    1.714 
#    0.000    4.286    0.000    3.000    0.000    2.000 
#    0.000    0.000    0.000    0.000    0.000    0.000 
#
# Total GULP energy -624497.189212 kJ/mol
# GULP energy per Si atom -5575.867761 kJ/mol
# Density = 1.792552 g / cm^3
# Si number density = 17.966410 Si / 1000 Ang^3
#
#
#
# Elastic Constant Matrix: (Units=GPa)
#
#
# Indices 1 2 3 4 5 6 
#
# 1 71.9636 34.8762 35.4411 0.0000 0.0000 0.0000
# 2 34.8762 71.9636 35.4411 0.0000 0.0000 0.0000
# 3 35.4411 35.4411 111.6734 0.0000 0.0000 0.0000
# 4 0.0000 0.0000 0.0000 27.9649 0.0000 0.0000
# 5 0.0000 0.0000 0.0000 0.0000 27.9649 0.0000
# 6 0.0000 0.0000 0.0000 0.0000 0.0000 11.5271
#
#
#
# Elastic Compliance Matrix: (Units=1/GPa)
#
#
# Indices 1 2 3 4 5 6 
#
# 1 0.019410 -0.007554 -0.003763 0.000000 0.000000 0.000000
# 2 -0.007554 0.019410 -0.003763 0.000000 0.000000 0.000000
# 3 -0.003763 -0.003763 0.011343 0.000000 0.000000 0.000000
# 4 0.000000 0.000000 0.000000 0.035759 0.000000 0.000000
# 5 0.000000 0.000000 0.000000 0.000000 0.035759 0.000000
# 6 0.000000 0.000000 0.000000 0.000000 0.000000 0.086752
#
#
# Mechanical properties :
#
#
# Convention : Reuss Voigt Hill
#
# Bulk Modulus (GPa) = 49.98891 51.90194 50.94543
# Shear Modulus (GPa) = 20.38662 23.48085 21.93374
#
# Velocity S-wave (km/s) = 3.37220 3.61907 3.49781
# Velocity P-wave (km/s) = 6.56096 6.81283 6.68808
#
# Compressibility (1/GPa) = 0.02000444
#
# Stress axis : x y z
#
# Youngs Moduli (GPa) = 51.52049 51.52049 88.16026
#
# Poissons Ratio (x) = 0.38916 0.33172
# Poissons Ratio (y) = 0.38916 0.33172
# Poissons Ratio (z) = 0.19386 0.19386
#
# Static dielectric constant tensor:
#      x y z
#    x 1.622820 0.000000 0.000000 
#    y 0.000000 1.622820 0.000000 
#    z 0.000000 0.000000 1.604930 
# 
# From -- ./inp_files/6182.got.cif
#   From: 2010.05.17/outbox.cif.g08.bks.cpg/sg127_4_cif.got.tgz:6182.got - 2010.05.20 12:03:00.
