data_PCOD9563729
_publ_section_title
;
Structure prediction by ZEFSAII (Michael W. Deem and Ramdas Pophale) SiO2 
 PCOD9563729
Probable space group: P 4/N N C
;
_chemical_formula_sum "Si O2"
_cell_formula_units_Z 120
_cell_length_a 21.000000
_cell_length_b 21.000000
_cell_length_c 15.000000
_cell_angle_alpha 90.000000
_cell_angle_beta 90.000000
_cell_angle_gamma 90.000000
_cell_volume 6615.000000
_symmetry_space_group_name_H-M "P 4/N N C"
_symmetry_group_IT_number 126
_space_group.IT_coordinate_system_code '2'
_symmetry_cell_setting 'tetragonal'
loop_
_space_group_symop_operation_xyz
x,y,z
1/2-y,x,z
1/2-x,1/2-y,z
y,1/2-x,z
x,1/2-y,1/2-z
1/2-x,y,1/2-z
y,x,1/2-z
1/2-y,1/2-x,1/2-z
-x,-y,-z
1/2+y,-x,-z
1/2+x,1/2+y,-z
-y,1/2+x,-z
-x,1/2+y,1/2+z
1/2+x,-y,1/2+z
-y,-x,1/2+z
1/2+y,1/2+x,1/2+z
loop_
_atom_site_type_symbol
_atom_site_label
_atom_site_fract_x
_atom_site_fract_y
_atom_site_fract_z
Si Si1 0.250000 0.881878 0.750000
Si Si2 0.075486 0.816941 0.938233
Si Si3 0.999596 0.102215 0.764033
Si Si4 0.647838 0.107806 0.739759
Si Si5 0.541251 0.666063 0.060306
Si Si6 0.669902 0.821036 0.354619
Si Si7 0.992657 0.298587 0.878604
Si Si8 0.416344 0.669555 0.534997
O O1 0.184878 0.843943 0.730907
O O2 0.231065 0.928934 0.831600
O O3 0.083992 0.818373 0.830455
O O4 0.092734 0.745764 0.969767
O O5 0.125256 0.862824 0.989616
O O6 0.003423 0.835369 0.971580
O O7 0.039572 0.039572 0.750000
O O8 0.005326 0.124041 0.865657
O O9 0.926206 0.095470 0.739893
O O10 0.022951 0.158132 0.697967
O O11 0.658337 0.078333 0.641374
O O12 0.616226 0.650652 0.077823
O O13 0.533280 0.738588 0.092939
O O14 0.664903 0.744489 0.367483
O O15 0.660174 0.839826 0.250000
O O16 0.975497 0.338967 0.966646
#
# Coordination Sequence:
#
# PCOD9563729 Si02
#       8
#     8  16  16  16  16  16  16  16
#     4  10  16  34  55  72 104 145 176 238 294 328
#     4  11  23  37  57  79 109 149 195 241 289 342
#     4  11  21  31  55  81 107 146 181 225 281 339
#     4  11  21  40  53  76 113 142 194 247 292 336
#     4  11  20  34  54  79 115 155 189 214 277 363
#     4   9  20  34  53  89 127 148 175 231 288 343
#     4  10  19  34  54  77 111 145 187 226 274 354
#     4  11  21  38  56  78 104 150 188 244 295 329
#
# _framework density 18.14059
#
# number of rings (size 3 to 8) (size 9 to 14) (size 15 to 20)
#    0.000    1.467    6.667    2.000    5.600    0.267 
#    0.000    3.333    0.000    0.000    0.000    0.000 
#    0.000    0.000    0.000   23.467    1.067    0.000 
#
# Total GULP energy -668220.884138 kJ/mol
# GULP energy per Si atom -5568.507368 kJ/mol
# Density = 1.809930 g / cm^3
# Si number density = 18.140590 Si / 1000 Ang^3
#
#
#
# Elastic Constant Matrix: (Units=GPa)
#
#
# Indices 1 2 3 4 5 6 
#
# 1 51.1119 13.8871 13.1528 0.0000 0.0000 0.0000
# 2 13.8871 51.1120 13.1529 0.0000 0.0000 0.0000
# 3 13.1528 13.1529 118.1422 0.0000 0.0000 0.0000
# 4 0.0000 0.0000 0.0000 17.4793 0.0000 0.0000
# 5 0.0000 0.0000 0.0000 0.0000 17.4795 0.0000
# 6 0.0000 0.0000 0.0000 0.0000 0.0000 19.5687
#
#
#
# Elastic Compliance Matrix: (Units=1/GPa)
#
#
# Indices 1 2 3 4 5 6 
#
# 1 0.021487 -0.005377 -0.001794 0.000000 0.000000 0.000000
# 2 -0.005377 0.021487 -0.001794 0.000000 0.000000 0.000000
# 3 -0.001794 -0.001794 0.008864 0.000000 0.000000 0.000000
# 4 0.000000 0.000000 0.000000 0.057210 0.000000 0.000000
# 5 0.000000 0.000000 0.000000 0.000000 0.057210 0.000000
# 6 0.000000 0.000000 0.000000 0.000000 0.000000 0.051102
#
#
# Mechanical properties :
#
#
# Convention : Reuss Voigt Hill
#
# Bulk Modulus (GPa) = 29.48917 33.41684 31.45301
# Shear Modulus (GPa) = 20.27643 22.91705 21.59674
#
# Velocity S-wave (km/s) = 3.34689 3.55815 3.45413
# Velocity P-wave (km/s) = 5.58809 5.94488 5.76924
#
# Compressibility (1/GPa) = 0.03391076
#
# Stress axis : x y z
#
# Youngs Moduli (GPa) = 46.53917 46.53932 112.81914
#
# Poissons Ratio (x) = 0.25022 0.20235
# Poissons Ratio (y) = 0.25022 0.20236
# Poissons Ratio (z) = 0.08347 0.08347
#
# Static dielectric constant tensor:
#      x y z
#    x 1.679510 0.000000 0.000000 
#    y 0.000000 1.679510 0.000000 
#    z 0.000000 0.000000 1.630140 
# 
# From -- ./inp_files/3967.got.cif
#   From: 2010.05.17/outbox.ucp.g08.bks.cvg/sg126_2_cif.got.tgz:3967.got - 2010.06.11 11:36:48.
