data_PCOD9563493
_publ_section_title
;
Structure prediction by ZEFSAII (Michael W. Deem and Ramdas Pophale) SiO2 
 PCOD9563493
Probable space group: P 4/N N C
;
_chemical_formula_sum "Si O2"
_cell_formula_units_Z 84
_cell_length_a 11.734738
_cell_length_b 11.734738
_cell_length_c 31.640725
_cell_angle_alpha 90.000000
_cell_angle_beta 90.000000
_cell_angle_gamma 90.000000
_cell_volume 4357.056798
_symmetry_space_group_name_H-M "P 4/N N C"
_symmetry_group_IT_number 126
_space_group.IT_coordinate_system_code '2'
_symmetry_cell_setting 'tetragonal'
loop_
_space_group_symop_operation_xyz
x,y,z
1/2-y,x,z
1/2-x,1/2-y,z
y,1/2-x,z
x,1/2-y,1/2-z
1/2-x,y,1/2-z
y,x,1/2-z
1/2-y,1/2-x,1/2-z
-x,-y,-z
1/2+y,-x,-z
1/2+x,1/2+y,-z
-y,1/2+x,-z
-x,1/2+y,1/2+z
1/2+x,-y,1/2+z
-y,-x,1/2+z
1/2+y,1/2+x,1/2+z
loop_
_atom_site_type_symbol
_atom_site_label
_atom_site_fract_x
_atom_site_fract_y
_atom_site_fract_z
Si Si1 0.558134 0.035901 0.133546
Si Si2 0.250000 0.250000 0.572015
Si Si3 0.365683 0.104304 0.300281
Si Si4 0.150723 0.085988 0.058855
Si Si5 0.836737 0.412274 0.487816
Si Si6 0.702322 0.498142 0.099441
O O1 0.535548 0.900951 0.129078
O O2 0.500353 0.074529 0.176929
O O3 0.490592 0.102120 0.096536
O O4 0.692144 0.054766 0.125039
O O5 0.250803 0.390216 0.575484
O O6 0.403395 0.232151 0.312929
O O7 0.389139 0.110862 0.250000
O O8 0.287210 0.100704 0.061146
O O9 0.125354 0.021511 0.014824
O O10 0.895556 0.298575 0.504854
O O11 0.850161 0.421862 0.437716
#
# Coordination Sequence:
#
# PCOD9563493 Si02
#       6
#    16   4  16  16  16  16
#     4  11  21  40  59  86 117 154 198 240 295 354
#     4   8  20  36  56  76 101 144 216 244 289 328
#     4   9  19  39  68  95 119 146 181 234 296 355
#     4  11  24  36  56  83 110 148 200 253 290 340
#     4  11  23  38  52  76 114 155 202 247 307 345
#     4  10  22  37  57  79 112 160 197 248 287 346
#
# _framework density 19.279069
#
# number of rings (size 3 to 8) (size 9 to 14) (size 15 to 20)
#    0.000    1.714    1.905    2.857    5.333    3.048 
#    0.000    0.952    0.000    2.286    0.000    4.000 
#    0.000    0.000    0.000    0.000    0.000    0.000 
#
# Total GULP energy -468057.708463 kJ/mol
# GULP energy per Si atom -5572.115577 kJ/mol
# Density = 1.923519 g / cm^3
# Si number density = 19.279069 Si / 1000 Ang^3
#
#
#
# Elastic Constant Matrix: (Units=GPa)
#
#
# Indices 1 2 3 4 5 6 
#
# 1 74.8307 11.9303 11.4315 0.0000 0.0000 0.0000
# 2 11.9303 74.8309 11.4318 0.0000 0.0000 0.0000
# 3 11.4315 11.4318 35.5990 0.0000 0.0000 0.0000
# 4 0.0000 0.0000 0.0000 24.6846 0.0000 0.0000
# 5 0.0000 0.0000 0.0000 0.0000 24.6846 0.0000
# 6 0.0000 0.0000 0.0000 0.0000 0.0000 29.9926
#
#
#
# Elastic Compliance Matrix: (Units=1/GPa)
#
#
# Indices 1 2 3 4 5 6 
#
# 1 0.014245 -0.001653 -0.004043 0.000000 0.000000 0.000000
# 2 -0.001653 0.014245 -0.004043 0.000000 0.000000 0.000000
# 3 -0.004043 -0.004043 0.030688 0.000000 0.000000 0.000000
# 4 0.000000 0.000000 0.000000 0.040511 0.000000 0.000000
# 5 0.000000 0.000000 0.000000 0.000000 0.040511 0.000000
# 6 0.000000 0.000000 0.000000 0.000000 0.000000 0.033342
#
#
# Mechanical properties :
#
#
# Convention : Reuss Voigt Hill
#
# Bulk Modulus (GPa) = 25.19094 28.31642 26.75368
# Shear Modulus (GPa) = 24.24202 25.90348 25.07275
#
# Velocity S-wave (km/s) = 3.54987 3.66950 3.61018
# Velocity P-wave (km/s) = 5.46781 5.71605 5.59330
#
# Compressibility (1/GPa) = 0.03969681
#
# Stress axis : x y z
#
# Youngs Moduli (GPa) = 70.20115 70.20116 32.58651
#
# Poissons Ratio (x) = 0.11607 0.13176
# Poissons Ratio (y) = 0.11607 0.13176
# Poissons Ratio (z) = 0.28385 0.28386
#
# Static dielectric constant tensor:
#      x y z
#    x 1.699880 0.000000 0.000000 
#    y 0.000000 1.699880 0.000000 
#    z 0.000000 0.000000 1.673170 
# 
# From -- ./inp_files/6513.got.cif
#   From: 2010.05.17/outbox.cif.g08.bks.cpg/sg126_4_cif.got.tgz:6513.got - 2010.05.20 11:58:20.
