data_PCOD9563596
_publ_section_title
;
Structure prediction by ZEFSAII (Michael W. Deem and Ramdas Pophale) SiO2 
 PCOD9563596
Probable space group: P 4/N N C
;
_chemical_formula_sum "Si O2"
_cell_formula_units_Z 60
_cell_length_a 11.772969
_cell_length_b 11.772969
_cell_length_c 20.907859
_cell_angle_alpha 90.000000
_cell_angle_beta 90.000000
_cell_angle_gamma 90.000000
_cell_volume 2897.887780
_symmetry_space_group_name_H-M "P 4/N N C"
_symmetry_group_IT_number 126
_space_group.IT_coordinate_system_code '2'
_symmetry_cell_setting 'tetragonal'
loop_
_space_group_symop_operation_xyz
x,y,z
1/2-y,x,z
1/2-x,1/2-y,z
y,1/2-x,z
x,1/2-y,1/2-z
1/2-x,y,1/2-z
y,x,1/2-z
1/2-y,1/2-x,1/2-z
-x,-y,-z
1/2+y,-x,-z
1/2+x,1/2+y,-z
-y,1/2+x,-z
-x,1/2+y,1/2+z
1/2+x,-y,1/2+z
-y,-x,1/2+z
1/2+y,1/2+x,1/2+z
loop_
_atom_site_type_symbol
_atom_site_label
_atom_site_fract_x
_atom_site_fract_y
_atom_site_fract_z
Si Si1 0.517364 0.034287 0.634340
Si Si2 0.088196 0.332363 0.040371
Si Si3 0.386397 0.113604 0.250000
Si Si4 0.750000 0.250000 0.000000
Si Si5 0.527353 0.217049 0.911719
O O1 0.506306 0.170817 0.630628
O O2 0.395563 0.974124 0.630071
O O3 0.594134 0.009642 0.571462
O O4 0.577540 0.968975 0.691869
O O5 0.103194 0.202609 0.061402
O O6 0.068197 0.314869 0.965072
O O7 0.402175 0.250000 0.250000
O O8 0.730279 0.358521 0.045924
#
# Coordination Sequence:
#
# PCOD9563596 Si02
#       5
#    16  16   8   4  16
#     4  12  26  44  68 102 140 189 234 288 346 421
#     4  11  21  39  66  98 137 182 223 277 343 411
#     4  11  28  54  76  95 128 182 244 291 340 424
#     4  12  24  36  64 114 144 176 220 292 358 424
#     4  12  24  40  66 103 147 180 227 282 360 425
#
# _framework density 20.704737000000002
#
# number of rings (size 3 to 8) (size 9 to 14) (size 15 to 20)
#    0.000    0.400    5.333    4.000    3.733    3.733 
#    0.000    1.333    0.000    1.600    0.000    0.000 
#    0.000    0.000    0.000    0.000    0.000    0.000 
#
# Total GULP energy -334703.383485 kJ/mol
# GULP energy per Si atom -5578.389725 kJ/mol
# Density = 2.065761 g / cm^3
# Si number density = 20.704737 Si / 1000 Ang^3
#
#
#
# Elastic Constant Matrix: (Units=GPa)
#
#
# Indices 1 2 3 4 5 6 
#
# 1 -35.6770 237.8177 44.6185 0.0000 0.0000 0.0000
# 2 237.8177 -35.6771 44.6180 0.0000 0.0000 0.0000
# 3 44.6185 44.6180 67.9773 0.0000 0.0000 0.0000
# 4 0.0000 0.0000 0.0000 31.7926 0.0000 0.0000
# 5 0.0000 0.0000 0.0000 0.0000 31.7930 0.0000
# 6 0.0000 0.0000 0.0000 0.0000 0.0000 21.3076
#
#
#
# Elastic Compliance Matrix: (Units=1/GPa)
#
#
# Indices 1 2 3 4 5 6 
#
# 1 0.001654 0.005311 -0.004572 0.000000 0.000000 0.000000
# 2 0.005311 0.001654 -0.004572 0.000000 0.000000 0.000000
# 3 -0.004572 -0.004572 0.020712 0.000000 0.000000 0.000000
# 4 0.000000 0.000000 0.000000 0.031454 0.000000 0.000000
# 5 0.000000 0.000000 0.000000 0.000000 0.031453 0.000000
# 6 0.000000 0.000000 0.000000 0.000000 0.000000 0.046932
#
#
# Mechanical properties :
#
#
# Convention : Reuss Voigt Hill
#
# Bulk Modulus (GPa) = 61.14056 72.30350 66.72203
# Shear Modulus (GPa) = 34.01875 -5.05008 14.48433
#
# Velocity S-wave (km/s) = 4.05784 -1.56345 2.64780
# Velocity P-wave (km/s) = 7.17974 5.63364 6.45316
#
# Compressibility (1/GPa) = 0.01635575
#
# Stress axis : x y z
#
# Youngs Moduli (GPa) = 604.42639 604.42149 48.28023
#
# Poissons Ratio (x) = -3.20999 0.22073
# Poissons Ratio (y) = -3.21002 0.22073
# Poissons Ratio (z) = 2.76332 2.76332
#
# Static dielectric constant tensor:
#      x y z
#    x 1.782860 0.000000 0.000000 
#    y 0.000000 1.782860 0.000000 
#    z 0.000000 0.000000 1.810030 
# 
# From -- ./inp_files/5003.got.cif
#   From: 2010.05.17/outbox.cif.g08.bks.cpg/sg126_3_cif.got.tgz:5003.got - 2010.05.20 11:58:20.
