data_PCOD9563800
_publ_section_title
;
Structure prediction by ZEFSAII (Michael W. Deem and Ramdas Pophale) SiO2 
 PCOD9563800
Probable space group: P 4/M B M
;
_chemical_formula_sum "Si O2"
_cell_formula_units_Z 72
_cell_length_a 17.889860
_cell_length_b 17.889860
_cell_length_c 13.017481
_cell_angle_alpha 90.000000
_cell_angle_beta 90.000000
_cell_angle_gamma 90.000000
_cell_volume 4166.206924
_symmetry_space_group_name_H-M "P 4/M B M"
_symmetry_group_IT_number 127
_symmetry_cell_setting 'tetragonal'
loop_
_space_group_symop_operation_xyz
x,y,z
-y,x,z
-x,-y,z
y,-x,z
1/2+x,1/2-y,-z
1/2-x,1/2+y,-z
1/2+y,1/2+x,-z
1/2-y,1/2-x,-z
-x,-y,-z
y,-x,-z
x,y,-z
-y,x,-z
1/2-x,1/2+y,z
1/2+x,1/2-y,z
1/2-y,1/2-x,z
1/2+y,1/2+x,z
loop_
_atom_site_type_symbol
_atom_site_label
_atom_site_fract_x
_atom_site_fract_y
_atom_site_fract_z
Si Si1 0.808220 0.308220 0.383646
Si Si2 0.212815 0.070172 0.699311
Si Si3 0.675857 0.948950 0.121741
Si Si4 0.593026 0.316855 0.619276
Si Si5 0.384422 0.884422 0.121311
Si Si6 0.804704 0.695297 0.302952
O O1 0.786766 0.286766 0.500000
O O2 0.781128 0.392069 0.365058
O O3 0.759291 0.259291 0.303791
O O4 0.249425 0.059146 0.811004
O O5 0.143210 0.126510 0.686542
O O6 0.186638 0.991939 0.653765
O O7 0.617824 0.882176 0.146425
O O8 0.636206 0.028984 0.142440
O O9 0.691412 0.945819 0.000000
O O10 0.600601 0.337990 0.500000
O O11 0.627890 0.234889 0.637799
O O12 0.333065 0.833065 0.193505
O O13 0.371376 0.871376 0.000000
#
# Coordination Sequence:
#
# PCOD9563800 Si02
#       6
#     8  16  16  16   8   8
#     4  10  20  36  55  78 111 150 190 237 289 339
#     4  11  21  37  58  82 114 150 197 234 286 345
#     4  10  20  37  59  85 115 150 189 234 287 342
#     4  11  22  37  57  83 116 153 191 239 287 338
#     4  10  19  34  58  87 115 147 185 234 290 342
#     4  10  18  33  54  81 111 140 183 230 289 335
#
# _framework density 17.281907
#
# number of rings (size 3 to 8) (size 9 to 14) (size 15 to 20)
#    0.000    1.556    3.333    4.667    0.000    1.778 
#    0.000    6.667    0.000    0.000    0.000    6.222 
#    0.000    0.000    0.000    0.000    0.000    0.000 
#
# Total GULP energy -401294.283266 kJ/mol
# GULP energy per Si atom -5573.531712 kJ/mol
# Density = 1.724257 g / cm^3
# Si number density = 17.281907 Si / 1000 Ang^3
#
#
#
# Elastic Constant Matrix: (Units=GPa)
#
#
# Indices 1 2 3 4 5 6 
#
# 1 94.1115 49.7623 43.3507 0.0000 0.0000 0.0000
# 2 49.7623 94.1115 43.3507 0.0000 0.0000 0.0000
# 3 43.3507 43.3507 86.8791 0.0000 0.0000 0.0000
# 4 0.0000 0.0000 0.0000 25.0072 0.0000 0.0000
# 5 0.0000 0.0000 0.0000 0.0000 25.0072 0.0000
# 6 0.0000 0.0000 0.0000 0.0000 0.0000 28.6382
#
#
#
# Elastic Compliance Matrix: (Units=1/GPa)
#
#
# Indices 1 2 3 4 5 6 
#
# 1 0.016244 -0.006305 -0.004959 0.000000 0.000000 0.000000
# 2 -0.006305 0.016244 -0.004959 0.000000 0.000000 0.000000
# 3 -0.004959 -0.004959 0.016460 0.000000 0.000000 0.000000
# 4 0.000000 0.000000 0.000000 0.039989 0.000000 0.000000
# 5 0.000000 0.000000 0.000000 0.000000 0.039989 0.000000
# 6 0.000000 0.000000 0.000000 0.000000 0.000000 0.034918
#
#
# Mechanical properties :
#
#
# Convention : Reuss Voigt Hill
#
# Bulk Modulus (GPa) = 60.60534 60.89217 60.74875
# Shear Modulus (GPa) = 24.77830 24.97306 24.87568
#
# Velocity S-wave (km/s) = 3.79062 3.80549 3.79807
# Velocity P-wave (km/s) = 7.36907 7.39055 7.37982
#
# Compressibility (1/GPa) = 0.01650020
#
# Stress axis : x y z
#
# Youngs Moduli (GPa) = 61.56209 61.56209 60.75499
#
# Poissons Ratio (x) = 0.38812 0.30131
# Poissons Ratio (y) = 0.38812 0.30131
# Poissons Ratio (z) = 0.30531 0.30531
#
# Static dielectric constant tensor:
#      x y z
#    x 1.599380 0.000000 0.000000 
#    y 0.000000 1.599380 0.000000 
#    z 0.000000 0.000000 1.588340 
# 
# From -- ./inp_files/3220.got.cif
#   From: 2010.05.17/outbox.cif.g08.bks.cpg/sg127_2_cif.got.tgz:3220.got - 2010.05.20 12:03:00.
