data_PCOD9563163
_publ_section_title
;
Structure prediction by ZEFSAII (Michael W. Deem and Ramdas Pophale) SiO2 
 PCOD9563163
Probable space group: P 4/N B M
;
_chemical_formula_sum "Si O2"
_cell_formula_units_Z 50
_cell_length_a 15.402086
_cell_length_b 15.402086
_cell_length_c 11.560870
_cell_angle_alpha 90.000000
_cell_angle_beta 90.000000
_cell_angle_gamma 90.000000
_cell_volume 2742.518752
_symmetry_space_group_name_H-M "P 4/N B M"
_symmetry_group_IT_number 125
_space_group.IT_coordinate_system_code '2'
_symmetry_cell_setting 'tetragonal'
loop_
_space_group_symop_operation_xyz
x,y,z
1/2-y,x,z
1/2-x,1/2-y,z
y,1/2-x,z
x,1/2-y,-z
1/2-x,y,-z
y,x,-z
1/2-y,1/2-x,-z
-x,-y,-z
1/2+y,-x,-z
1/2+x,1/2+y,-z
-y,1/2+x,-z
-x,1/2+y,z
1/2+x,-y,z
-y,-x,z
1/2+y,1/2+x,z
loop_
_atom_site_type_symbol
_atom_site_label
_atom_site_fract_x
_atom_site_fract_y
_atom_site_fract_z
Si Si1 0.750000 0.895906 0.000000
Si Si2 0.914419 0.560483 0.363056
Si Si3 0.766453 0.515318 0.754317
Si Si4 0.681028 0.318973 0.275073
Si Si5 0.250000 0.750000 0.500000
O O1 0.666363 0.833638 0.000000
O O2 0.748831 0.950963 0.116898
O O3 0.921709 0.578292 0.500000
O O4 0.819455 0.528794 0.323423
O O5 0.934792 0.650732 0.298596
O O6 0.987071 0.487071 0.334440
O O7 0.792777 0.415017 0.757461
O O8 0.750000 0.250000 0.226406
O O9 0.692179 0.307822 0.414484
#
# Coordination Sequence:
#
# PCOD9563163 Si02
#       5
#     8  16  16   8   2
#     4  11  24  46  67  90 132 186 223 280 346 409
#     4  11  25  40  68 101 139 173 220 286 352 415
#     4  12  23  45  66 100 133 179 237 277 344 411
#     4  10  24  42  66  98 134 181 222 277 339 421
#     4   8  24  40  72  94 136 188 220 260 362 420
#
# _framework density 18.231415999999999
#
# number of rings (size 3 to 8) (size 9 to 14) (size 15 to 20)
#    0.480    0.480    4.800    1.920    4.480    0.640 
#    5.760    4.000    0.000    0.000    0.000    0.000 
#    0.000    0.000    0.000    0.000    0.000    0.000 
#
# Total GULP energy -279324.184129 kJ/mol
# GULP energy per Si atom -5586.483683 kJ/mol
# Density = 1.818992 g / cm^3
# Si number density = 18.231416 Si / 1000 Ang^3
#
#
#
# Elastic Constant Matrix: (Units=GPa)
#
#
# Indices 1 2 3 4 5 6 
#
# 1 158.3053 84.6444 65.5863 0.0000 0.0000 0.0000
# 2 84.6444 158.3052 65.5860 0.0000 0.0000 0.0000
# 3 65.5863 65.5860 131.0140 0.0000 0.0000 0.0000
# 4 0.0000 0.0000 0.0000 -259.8985 0.0000 0.0000
# 5 0.0000 0.0000 0.0000 0.0000 -259.7808 0.0000
# 6 0.0000 0.0000 0.0000 0.0000 0.0000 26.3614
#
#
#
# Elastic Compliance Matrix: (Units=1/GPa)
#
#
# Indices 1 2 3 4 5 6 
#
# 1 0.009608 -0.003968 -0.002824 0.000000 0.000000 0.000000
# 2 -0.003968 0.009608 -0.002824 0.000000 0.000000 0.000000
# 3 -0.002824 -0.002824 0.010460 0.000000 0.000000 0.000000
# 4 0.000000 0.000000 0.000000 -0.003848 0.000000 0.000000
# 5 0.000000 0.000000 0.000000 0.000000 -0.003849 0.000000
# 6 0.000000 0.000000 0.000000 0.000000 0.000000 0.037934
#
#
# Mechanical properties :
#
#
# Convention : Reuss Voigt Hill
#
# Bulk Modulus (GPa) = 95.72776 97.69532 96.71154
# Shear Modulus (GPa) = 60.51394 -83.20971 -11.34788
#
# Velocity S-wave (km/s) = 5.76751 -6.76313 -2.49757
# Velocity P-wave (km/s) = 9.84750 2.69888 6.69661
#
# Compressibility (1/GPa) = 0.01044629
#
# Stress axis : x y z
#
# Youngs Moduli (GPa) = 104.07771 104.07791 95.60300
#
# Poissons Ratio (x) = 0.41293 0.26996
# Poissons Ratio (y) = 0.41293 0.26996
# Poissons Ratio (z) = 0.29389 0.29389
#
# Static dielectric constant tensor:
#      x y z
#    x 1.609060 0.000000 0.000000 
#    y 0.000000 1.609070 0.000000 
#    z 0.000000 0.000000 1.609080 
# 
# From -- ./inp_files/3491.got.cif
#   From: 2010.05.17/outbox.cif.g08.bks.cpg/sg125_2_cif.got.tgz:3491.got - 2010.05.20 11:54:10.
