data_PCOD9563372
_publ_section_title
;
Structure prediction by ZEFSAII (Michael W. Deem and Ramdas Pophale) SiO2 
 PCOD9563372
Probable space group: P 4/N N C
;
_chemical_formula_sum "Si O2"
_cell_formula_units_Z 80
_cell_length_a 31.015154
_cell_length_b 31.015154
_cell_length_c 5.326392
_cell_angle_alpha 90.000000
_cell_angle_beta 90.000000
_cell_angle_gamma 90.000000
_cell_volume 5123.668336
_symmetry_space_group_name_H-M "P 4/N N C"
_symmetry_group_IT_number 126
_space_group.IT_coordinate_system_code '2'
_symmetry_cell_setting 'tetragonal'
loop_
_space_group_symop_operation_xyz
x,y,z
1/2-y,x,z
1/2-x,1/2-y,z
y,1/2-x,z
x,1/2-y,1/2-z
1/2-x,y,1/2-z
y,x,1/2-z
1/2-y,1/2-x,1/2-z
-x,-y,-z
1/2+y,-x,-z
1/2+x,1/2+y,-z
-y,1/2+x,-z
-x,1/2+y,1/2+z
1/2+x,-y,1/2+z
-y,-x,1/2+z
1/2+y,1/2+x,1/2+z
loop_
_atom_site_type_symbol
_atom_site_label
_atom_site_fract_x
_atom_site_fract_y
_atom_site_fract_z
Si Si1 0.302531 0.135803 0.858373
Si Si2 0.147514 0.024445 0.226343
Si Si3 0.462538 0.300118 0.753960
Si Si4 0.120290 0.379711 0.250000
Si Si5 0.750000 0.677438 0.750000
Si Si6 0.016449 0.555976 0.748664
O O1 0.318585 0.181416 0.750000
O O2 0.300911 0.089872 0.720322
O O3 0.343108 0.127909 0.044845
O O4 0.259307 0.146180 0.015805
O O5 0.176141 0.027665 0.480711
O O6 0.127095 0.071481 0.167454
O O7 0.106591 0.993645 0.260553
O O8 0.176049 0.015594 0.980761
O O9 0.474934 0.250000 0.750000
O O10 0.790878 0.709123 0.750000
O O11 0.042580 0.540826 0.503413
O O12 0.972073 0.527928 0.750000
#
# Coordination Sequence:
#
# PCOD9563372 Si02
#       6
#    16  16  16   8   8  16
#     4  11  23  38  55  64  85 116 155 212 261 337
#     4  11  21  38  56  76 106 129 165 202 258 316
#     4  11  25  36  56  77  96 130 170 218 255 307
#     4  10  20  36  49  72  88 120 158 190 252 324
#     4  11  26  40  50  62  82 108 154 210 290 340
#     4  10  20  34  55  82 110 135 159 199 255 328
#
# _framework density 15.613814
#
# number of rings (size 3 to 8) (size 9 to 14) (size 15 to 20)
#    0.000    1.300    4.000    1.800    8.400    0.000 
#    0.000    1.000    0.000    0.000    0.000    0.000 
#    0.000    0.000    0.000    0.000    0.000    0.000 
#
# Total GULP energy -446322.698887 kJ/mol
# GULP energy per Si atom -5579.033736 kJ/mol
# Density = 1.557828 g / cm^3
# Si number density = 15.613814 Si / 1000 Ang^3
#
#
#
# Elastic Constant Matrix: (Units=GPa)
#
#
# Indices 1 2 3 4 5 6 
#
# 1 73.0912 42.7908 41.0720 0.0000 0.0000 0.0000
# 2 42.7908 73.0890 41.0703 0.0000 0.0000 0.0000
# 3 41.0720 41.0703 106.0467 0.0000 0.0000 0.0000
# 4 0.0000 0.0000 0.0000 17.4533 0.0000 0.0000
# 5 0.0000 0.0000 0.0000 0.0000 17.4531 0.0000
# 6 0.0000 0.0000 0.0000 0.0000 0.0000 28.1799
#
#
#
# Elastic Compliance Matrix: (Units=1/GPa)
#
#
# Indices 1 2 3 4 5 6 
#
# 1 0.022449 -0.010554 -0.004607 0.000000 0.000000 0.000000
# 2 -0.010554 0.022450 -0.004607 0.000000 0.000000 0.000000
# 3 -0.004607 -0.004607 0.012998 0.000000 0.000000 0.000000
# 4 0.000000 0.000000 0.000000 0.057296 0.000000 0.000000
# 5 0.000000 0.000000 0.000000 0.000000 0.057296 0.000000
# 6 0.000000 0.000000 0.000000 0.000000 0.000000 0.035486
#
#
# Mechanical properties :
#
#
# Convention : Reuss Voigt Hill
#
# Bulk Modulus (GPa) = 54.46348 55.78813 55.12580
# Shear Modulus (GPa) = 19.71353 21.10351 20.40852
#
# Velocity S-wave (km/s) = 3.55712 3.68039 3.61928
# Velocity P-wave (km/s) = 7.19918 7.33948 7.26966
#
# Compressibility (1/GPa) = 0.01836093
#
# Stress axis : x y z
#
# Youngs Moduli (GPa) = 44.54451 44.54384 76.93342
#
# Poissons Ratio (x) = 0.47014 0.35444
# Poissons Ratio (y) = 0.47014 0.35441
# Poissons Ratio (z) = 0.20522 0.20520
#
# Static dielectric constant tensor:
#      x y z
#    x 1.520470 0.000000 0.000000 
#    y 0.000000 1.520470 0.000000 
#    z 0.000000 0.000000 1.640810 
# 
# From -- ./inp_files/611.got.cif
#   From: 2010.05.17/outbox.cif.g08.bks.cpg/sg126_1_cif.got.tgz:611.got - 2010.05.20 11:58:20.
