data_PCOD9563867
_publ_section_title
;
Structure prediction by ZEFSAII (Michael W. Deem and Ramdas Pophale) SiO2 
 PCOD9563867
Probable space group: P 4/M B M
;
_chemical_formula_sum "Si O2"
_cell_formula_units_Z 80
_cell_length_a 16.112698
_cell_length_b 16.112698
_cell_length_c 16.181465
_cell_angle_alpha 90.000000
_cell_angle_beta 90.000000
_cell_angle_gamma 90.000000
_cell_volume 4201.016358
_symmetry_space_group_name_H-M "P 4/M B M"
_symmetry_group_IT_number 127
_symmetry_cell_setting 'tetragonal'
loop_
_space_group_symop_operation_xyz
x,y,z
-y,x,z
-x,-y,z
y,-x,z
1/2+x,1/2-y,-z
1/2-x,1/2+y,-z
1/2+y,1/2+x,-z
1/2-y,1/2-x,-z
-x,-y,-z
y,-x,-z
x,y,-z
-y,x,-z
1/2-x,1/2+y,z
1/2+x,1/2-y,z
1/2-y,1/2-x,z
1/2+y,1/2+x,z
loop_
_atom_site_type_symbol
_atom_site_label
_atom_site_fract_x
_atom_site_fract_y
_atom_site_fract_z
Si Si1 0.868009 0.496294 0.868033
Si Si2 0.680825 0.954328 0.310785
Si Si3 0.685447 0.328063 0.256632
Si Si4 0.603788 0.245431 0.592268
Si Si5 0.621079 0.264606 0.909586
O O1 0.904807 0.404807 0.888386
O O2 0.859275 0.499312 0.768652
O O3 0.782671 0.532600 0.902453
O O4 0.938433 0.561568 0.894138
O O5 0.617393 0.882608 0.338105
O O6 0.762923 0.910581 0.274482
O O7 0.702672 0.017961 0.382067
O O8 0.754790 0.254790 0.254261
O O9 0.626983 0.308202 0.334369
O O10 0.638191 0.321778 0.169561
O O11 0.600862 0.281354 0.500000
O O12 0.674985 0.174985 0.592831
O O13 0.691120 0.191120 0.905693
O O14 0.628450 0.304187 0.000000
#
# Coordination Sequence:
#
# PCOD9563867 Si02
#       5
#    16  16  16  16  16
#     4   9  16  27  46  74 106 133 160 203 259 314
#     4  10  19  31  51  76 103 135 169 207 253 304
#     4   9  18  33  50  71 102 136 172 211 250 298
#     4  10  20  34  53  76 103 135 169 209 260 313
#     4   9  16  28  48  71  99 138 174 202 242 300
#
# _framework density 19.043011
#
# number of rings (size 3 to 8) (size 9 to 14) (size 15 to 20)
#    0.000    2.600    2.000    0.600    0.000    2.800 
#    0.000    6.000    0.000    4.200    0.000    1.400 
#    0.000    1.600    0.000    0.000    0.000    0.000 
#
# Total GULP energy -445712.940152 kJ/mol
# GULP energy per Si atom -5571.411752 kJ/mol
# Density = 1.899967 g / cm^3
# Si number density = 19.043011 Si / 1000 Ang^3
#
#
#
# Elastic Constant Matrix: (Units=GPa)
#
#
# Indices 1 2 3 4 5 6 
#
# 1 21.4160 15.5281 23.3018 0.0000 0.0000 0.0000
# 2 15.5281 21.4160 23.3018 0.0000 0.0000 0.0000
# 3 23.3018 23.3018 139.6368 0.0000 0.0000 0.0000
# 4 0.0000 0.0000 0.0000 0.9483 0.0000 0.0000
# 5 0.0000 0.0000 0.0000 0.0000 0.9483 0.0000
# 6 0.0000 0.0000 0.0000 0.0000 0.0000 13.1740
#
#
#
# Elastic Compliance Matrix: (Units=1/GPa)
#
#
# Indices 1 2 3 4 5 6 
#
# 1 0.102062 -0.067777 -0.005721 0.000000 0.000000 0.000000
# 2 -0.067777 0.102062 -0.005721 0.000000 0.000000 0.000000
# 3 -0.005721 -0.005721 0.009071 0.000000 0.000000 0.000000
# 4 0.000000 0.000000 0.000000 1.054468 0.000000 0.000000
# 5 0.000000 0.000000 0.000000 0.000000 1.054468 0.000000
# 6 0.000000 0.000000 0.000000 0.000000 0.000000 0.075907
#
#
# Mechanical properties :
#
#
# Convention : Reuss Voigt Hill
#
# Bulk Modulus (GPa) = 18.26285 34.08133 26.17209
# Shear Modulus (GPa) = 1.94195 11.03661 6.48928
#
# Velocity S-wave (km/s) = 1.01093 2.41002 1.84800
# Velocity P-wave (km/s) = 3.31267 5.06756 4.28100
#
# Compressibility (1/GPa) = 0.05475596
#
# Stress axis : x y z
#
# Youngs Moduli (GPa) = 9.79792 9.79792 110.24257
#
# Poissons Ratio (x) = 0.66408 0.63073
# Poissons Ratio (y) = 0.66408 0.63073
# Poissons Ratio (z) = 0.05606 0.05606
#
# Static dielectric constant tensor:
#      x y z
#    x 1.676090 0.000000 0.000000 
#    y 0.000000 1.676090 0.000000 
#    z 0.000000 0.000000 1.683490 
# 
# From -- ./inp_files/4252.got.cif
#   From: 2010.05.17/outbox.cif.g08.bks.cpg/sg127_3_cif.got.tgz:4252.got - 2010.05.20 12:03:00.
