data_PCOD9563785
_publ_section_title
;
Structure prediction by ZEFSAII (Michael W. Deem and Ramdas Pophale) SiO2 
 PCOD9563785
Probable space group: P 4/M B M
;
_chemical_formula_sum "Si O2"
_cell_formula_units_Z 96
_cell_length_a 23.004032
_cell_length_b 23.004032
_cell_length_c 12.228575
_cell_angle_alpha 90.000000
_cell_angle_beta 90.000000
_cell_angle_gamma 90.000000
_cell_volume 6471.184432
_symmetry_space_group_name_H-M "P 4/M B M"
_symmetry_group_IT_number 127
_symmetry_cell_setting 'tetragonal'
loop_
_space_group_symop_operation_xyz
x,y,z
-y,x,z
-x,-y,z
y,-x,z
1/2+x,1/2-y,-z
1/2-x,1/2+y,-z
1/2+y,1/2+x,-z
1/2-y,1/2-x,-z
-x,-y,-z
y,-x,-z
x,y,-z
-y,x,-z
1/2-x,1/2+y,z
1/2+x,1/2-y,z
1/2-y,1/2-x,z
1/2+y,1/2+x,z
loop_
_atom_site_type_symbol
_atom_site_label
_atom_site_fract_x
_atom_site_fract_y
_atom_site_fract_z
Si Si1 0.049090 0.450911 0.124951
Si Si2 0.872818 0.727020 0.731712
Si Si3 0.887021 0.287544 0.261227
Si Si4 0.334840 0.735349 0.500000
Si Si5 0.490812 0.840536 0.263304
Si Si6 0.706197 0.306065 0.874398
Si Si7 0.999244 0.401167 0.500000
Si Si8 0.358817 0.240944 0.500000
O O1 0.103783 0.475876 0.190098
O O2 0.000000 0.500000 0.123431
O O3 0.064455 0.435546 0.000000
O O4 0.827728 0.672273 0.736833
O O5 0.869326 0.753314 0.610253
O O6 0.936878 0.702996 0.749930
O O7 0.847861 0.775630 0.813822
O O8 0.840278 0.340278 0.256187
O O9 0.859225 0.234910 0.192015
O O10 0.892237 0.268136 0.387555
O O11 0.949229 0.311293 0.226175
O O12 0.283249 0.783249 0.500000
O O13 0.302410 0.673931 0.500000
O O14 0.496945 0.863344 0.389115
O O15 0.756330 0.256330 0.873598
O O16 0.693701 0.320908 0.000000
O O17 0.053042 0.446959 0.500000
O O18 0.940218 0.440218 0.500000
O O19 0.308214 0.191787 0.500000
#
# Coordination Sequence:
#
# PCOD9563785 Si02
#       8
#     8  16  16   8  16  16   8   8
#     4  11  24  39  49  61  93 146 189 215 239 272
#     4  10  18  31  48  71  95 125 158 202 252 298
#     4  10  19  31  49  71  95 128 164 204 246 293
#     4   9  15  26  49  69  92 118 153 194 246 306
#     4  12  22  34  50  74 101 130 173 213 252 296
#     4   9  18  32  50  68  88 120 163 206 253 301
#     4  11  20  32  50  68  96 138 177 212 245 280
#     4   9  15  28  47  70  93 119 159 195 245 303
#
# _framework density 14.834998000000001
#
# number of rings (size 3 to 8) (size 9 to 14) (size 15 to 20)
#    0.000    1.833    3.333    2.500    0.000    2.667 
#    0.000    1.667    0.000    0.000    0.000    0.000 
#    0.000    0.667    0.000    3.000    0.000    0.000 
#
# Total GULP energy -535413.656095 kJ/mol
# GULP energy per Si atom -5577.225584 kJ/mol
# Density = 1.480123 g / cm^3
# Si number density = 14.834998 Si / 1000 Ang^3
#
#
#
# Elastic Constant Matrix: (Units=GPa)
#
#
# Indices 1 2 3 4 5 6 
#
# 1 55.4369 72.5924 43.4250 0.0000 0.0000 0.0000
# 2 72.5924 55.4366 43.4255 0.0000 0.0000 0.0000
# 3 43.4250 43.4255 117.2279 0.0000 0.0000 0.0000
# 4 0.0000 0.0000 0.0000 3.5815 0.0000 0.0000
# 5 0.0000 0.0000 0.0000 0.0000 3.5815 0.0000
# 6 0.0000 0.0000 0.0000 0.0000 0.0000 29.9225
#
#
#
# Elastic Compliance Matrix: (Units=1/GPa)
#
#
# Indices 1 2 3 4 5 6 
#
# 1 -0.023929 0.034361 -0.003865 0.000000 0.000000 0.000000
# 2 0.034361 -0.023929 -0.003864 0.000000 0.000000 0.000000
# 3 -0.003865 -0.003864 0.011393 0.000000 0.000000 0.000000
# 4 0.000000 0.000000 0.000000 0.279210 0.000000 0.000000
# 5 0.000000 0.000000 0.000000 0.000000 0.279212 0.000000
# 6 0.000000 0.000000 0.000000 0.000000 0.000000 0.033420
#
#
# Mechanical properties :
#
#
# Convention : Reuss Voigt Hill
#
# Bulk Modulus (GPa) = 59.52351 60.77635 60.14993
# Shear Modulus (GPa) = 9.84808 11.99435 10.92122
#
# Velocity S-wave (km/s) = 2.57931 2.84653 2.71621
# Velocity P-wave (km/s) = 7.00580 7.20144 7.10430
#
# Compressibility (1/GPa) = 0.01680009
#
# Stress axis : x y z
#
# Youngs Moduli (GPa) = -41.79106 -41.79034 87.76980
#
# Poissons Ratio (x) = 1.43596 0.33920
# Poissons Ratio (y) = 1.43598 0.33916
# Poissons Ratio (z) = -0.16151 -0.16149
#
# Static dielectric constant tensor:
#      x y z
#    x 1.480750 0.000000 0.000000 
#    y 0.000000 1.480750 0.000000 
#    z 0.000000 0.000000 1.530940 
# 
# From -- ./inp_files/3628.got.cif
#   From: 2010.05.17/outbox.cif.g08.bks.cpg/sg127_2_cif.got.tgz:3628.got - 2010.05.20 12:03:00.
