data_PCOD9563857
_publ_section_title
;
Structure prediction by ZEFSAII (Michael W. Deem and Ramdas Pophale) SiO2 
 PCOD9563857
Probable space group: P 4/M B M
;
_chemical_formula_sum "Si O2"
_cell_formula_units_Z 80
_cell_length_a 15.799420
_cell_length_b 15.799420
_cell_length_c 19.229084
_cell_angle_alpha 90.000000
_cell_angle_beta 90.000000
_cell_angle_gamma 90.000000
_cell_volume 4799.996106
_symmetry_space_group_name_H-M "P 4/M B M"
_symmetry_group_IT_number 127
_symmetry_cell_setting 'tetragonal'
loop_
_space_group_symop_operation_xyz
x,y,z
-y,x,z
-x,-y,z
y,-x,z
1/2+x,1/2-y,-z
1/2-x,1/2+y,-z
1/2+y,1/2+x,-z
1/2-y,1/2-x,-z
-x,-y,-z
y,-x,-z
x,y,-z
-y,x,-z
1/2-x,1/2+y,z
1/2+x,1/2-y,z
1/2-y,1/2-x,z
1/2+y,1/2+x,z
loop_
_atom_site_type_symbol
_atom_site_label
_atom_site_fract_x
_atom_site_fract_y
_atom_site_fract_z
Si Si1 0.361748 0.525369 0.417132
Si Si2 0.412150 0.227225 0.311373
Si Si3 0.318259 0.961247 0.195122
Si Si4 0.679836 0.675796 0.191943
Si Si5 0.587831 0.768445 0.078586
O O1 0.404535 0.434399 0.401475
O O2 0.346328 0.528184 0.500000
O O3 0.277601 0.544414 0.373864
O O4 0.337368 0.162633 0.332445
O O5 0.478027 0.177636 0.261962
O O6 0.372884 0.297958 0.259566
O O7 0.394379 0.894379 0.193861
O O8 0.229092 0.911335 0.198552
O O9 0.313347 0.016450 0.125156
O O10 0.753143 0.746858 0.186766
O O11 0.621829 0.689382 0.124043
O O12 0.665091 0.834910 0.074658
O O13 0.561600 0.747706 0.000000
#
# Coordination Sequence:
#
# PCOD9563857 Si02
#       5
#    16  16  16  16  16
#     4   9  18  33  53  76 100 127 163 206 247 286
#     4  10  19  31  49  73 101 130 158 194 243 294
#     4  10  19  31  49  71  93 123 164 201 237 289
#     4   8  16  30  46  65  89 119 157 196 231 274
#     4   9  18  31  45  64  92 122 153 196 247 291
#
# _framework density 16.666678999999998
#
# number of rings (size 3 to 8) (size 9 to 14) (size 15 to 20)
#    0.000    2.800    0.000    3.600    0.000    3.200 
#    0.000    3.000    0.000    7.200    0.000    7.000 
#    0.000    0.000    0.000    0.000    0.000    0.000 
#
# Total GULP energy -445566.620732 kJ/mol
# GULP energy per Si atom -5569.582759 kJ/mol
# Density = 1.662875 g / cm^3
# Si number density = 16.666679 Si / 1000 Ang^3
#
#
#
# Elastic Constant Matrix: (Units=GPa)
#
#
# Indices 1 2 3 4 5 6 
#
# 1 41.9341 8.5117 24.3432 0.0000 0.0000 0.0000
# 2 8.5117 41.9341 24.3432 0.0000 0.0000 0.0000
# 3 24.3432 24.3432 70.9906 0.0000 0.0000 0.0000
# 4 0.0000 0.0000 0.0000 9.7390 0.0000 0.0000
# 5 0.0000 0.0000 0.0000 0.0000 9.7390 0.0000
# 6 0.0000 0.0000 0.0000 0.0000 0.0000 25.6240
#
#
#
# Elastic Compliance Matrix: (Units=1/GPa)
#
#
# Indices 1 2 3 4 5 6 
#
# 1 0.029774 -0.000146 -0.010160 0.000000 0.000000 0.000000
# 2 -0.000146 0.029774 -0.010160 0.000000 0.000000 0.000000
# 3 -0.010160 -0.010160 0.021054 0.000000 0.000000 0.000000
# 4 0.000000 0.000000 0.000000 0.102680 0.000000 0.000000
# 5 0.000000 0.000000 0.000000 0.000000 0.102680 0.000000
# 6 0.000000 0.000000 0.000000 0.000000 0.000000 0.039026
#
#
# Mechanical properties :
#
#
# Convention : Reuss Voigt Hill
#
# Bulk Modulus (GPa) = 25.20662 29.91724 27.56193
# Shear Modulus (GPa) = 13.18762 15.53113 14.35937
#
# Velocity S-wave (km/s) = 2.81598 3.05596 2.93842
# Velocity P-wave (km/s) = 5.07245 5.51735 5.29957
#
# Compressibility (1/GPa) = 0.03967212
#
# Stress axis : x y z
#
# Youngs Moduli (GPa) = 33.58585 33.58585 47.49630
#
# Poissons Ratio (x) = 0.00489 0.48256
# Poissons Ratio (y) = 0.00489 0.48256
# Poissons Ratio (z) = 0.34123 0.34123
#
# Static dielectric constant tensor:
#      x y z
#    x 1.568990 0.000000 0.000000 
#    y 0.000000 1.568990 0.000000 
#    z 0.000000 0.000000 1.557540 
# 
# From -- ./inp_files/5623.got.cif
#   From: 2010.05.17/outbox.cif.g08.bks.cpg/sg127_3_cif.got.tgz:5623.got - 2010.05.20 12:03:00.
