data_PCOD9563384
_publ_section_title
;
Structure prediction by ZEFSAII (Michael W. Deem and Ramdas Pophale) SiO2 
 PCOD9563384
Probable space group: P 4/N N C
;
_chemical_formula_sum "Si O2"
_cell_formula_units_Z 80
_cell_length_a 17.025768
_cell_length_b 17.025768
_cell_length_c 14.491073
_cell_angle_alpha 90.000000
_cell_angle_beta 90.000000
_cell_angle_gamma 90.000000
_cell_volume 4200.625522
_symmetry_space_group_name_H-M "P 4/N N C"
_symmetry_group_IT_number 126
_space_group.IT_coordinate_system_code '2'
_symmetry_cell_setting 'tetragonal'
loop_
_space_group_symop_operation_xyz
x,y,z
1/2-y,x,z
1/2-x,1/2-y,z
y,1/2-x,z
x,1/2-y,1/2-z
1/2-x,y,1/2-z
y,x,1/2-z
1/2-y,1/2-x,1/2-z
-x,-y,-z
1/2+y,-x,-z
1/2+x,1/2+y,-z
-y,1/2+x,-z
-x,1/2+y,1/2+z
1/2+x,-y,1/2+z
-y,-x,1/2+z
1/2+y,1/2+x,1/2+z
loop_
_atom_site_type_symbol
_atom_site_label
_atom_site_fract_x
_atom_site_fract_y
_atom_site_fract_z
Si Si1 0.566072 0.032281 0.598543
Si Si2 0.432019 0.432019 0.750000
Si Si3 0.226290 0.372476 0.958781
Si Si4 0.496914 0.869966 0.545404
Si Si5 0.750000 0.585588 0.250000
Si Si6 0.971959 0.661628 0.746835
O O1 0.489395 0.046991 0.664476
O O2 0.570550 0.099868 0.522329
O O3 0.552266 0.948021 0.550627
O O4 0.639183 0.025296 0.666507
O O5 0.270315 0.373581 0.652605
O O6 0.161273 0.309417 0.989867
O O7 0.338789 0.448094 0.770378
O O8 0.200580 0.455380 0.998627
O O9 0.481461 0.850758 0.651387
O O10 0.942499 0.750000 0.750000
O O11 0.900305 0.599696 0.750000
#
# Coordination Sequence:
#
# PCOD9563384 Si02
#       6
#    16   8  16  16   8  16
#     4  10  20  39  55  77 120 158 212 254 290 344
#     4  12  20  37  52  86 123 162 200 246 306 360
#     4  11  21  31  47  81 125 160 191 232 295 376
#     4  10  20  35  57  77 109 169 199 245 292 344
#     4  12  20  31  56  80 125 160 190 238 307 372
#     4  10  22  39  60  89 125 163 201 246 303 364
#
# _framework density 19.044782999999999
#
# number of rings (size 3 to 8) (size 9 to 14) (size 15 to 20)
#    0.000    1.400    7.000    0.000    5.600    1.200 
#    0.000    0.000    0.000    0.000    0.000    0.700 
#    0.000    0.000    0.000    0.000    0.000    0.000 
#
# Total GULP energy -445406.900714 kJ/mol
# GULP energy per Si atom -5567.586259 kJ/mol
# Density = 1.900144 g / cm^3
# Si number density = 19.044783 Si / 1000 Ang^3
#
#
#
# Elastic Constant Matrix: (Units=GPa)
#
#
# Indices 1 2 3 4 5 6 
#
# 1 44.5518 27.6671 18.4535 0.0000 0.0000 0.0000
# 2 27.6671 44.5488 18.4527 0.0000 0.0000 0.0000
# 3 18.4535 18.4527 93.3325 0.0000 0.0000 0.0000
# 4 0.0000 0.0000 0.0000 18.9163 0.0000 0.0000
# 5 0.0000 0.0000 0.0000 0.0000 18.9167 0.0000
# 6 0.0000 0.0000 0.0000 0.0000 0.0000 23.7559
#
#
#
# Elastic Compliance Matrix: (Units=1/GPa)
#
#
# Indices 1 2 3 4 5 6 
#
# 1 0.037316 -0.021913 -0.003046 0.000000 0.000000 0.000000
# 2 -0.021913 0.037318 -0.003045 0.000000 0.000000 0.000000
# 3 -0.003046 -0.003045 0.011919 0.000000 0.000000 0.000000
# 4 0.000000 0.000000 0.000000 0.052864 0.000000 0.000000
# 5 0.000000 0.000000 0.000000 0.000000 0.052863 0.000000
# 6 0.000000 0.000000 0.000000 0.000000 0.000000 0.042095
#
#
# Mechanical properties :
#
#
# Convention : Reuss Voigt Hill
#
# Bulk Modulus (GPa) = 32.74002 34.61996 33.67999
# Shear Modulus (GPa) = 16.63534 20.17511 18.40523
#
# Velocity S-wave (km/s) = 2.95869 3.25830 3.11210
# Velocity P-wave (km/s) = 5.37589 5.68973 5.53503
#
# Compressibility (1/GPa) = 0.03054366
#
# Stress axis : x y z
#
# Youngs Moduli (GPa) = 26.79839 26.79667 83.90217
#
# Poissons Ratio (x) = 0.58721 0.25552
# Poissons Ratio (y) = 0.58724 0.25552
# Poissons Ratio (z) = 0.08161 0.08161
#
# Static dielectric constant tensor:
#      x y z
#    x 1.678320 0.000000 0.000000 
#    y 0.000000 1.678320 0.000000 
#    z 0.000000 0.000000 1.730620 
# 
# From -- ./inp_files/3695.got.cif
#   From: 2010.05.17/outbox.cif.g08.bks.cpg/sg126_2_cif.got.tgz:3695.got - 2010.05.20 11:58:20.
