data_PCOD9563576
_publ_section_title
;
Structure prediction by ZEFSAII (Michael W. Deem and Ramdas Pophale) SiO2 
 PCOD9563576
Probable space group: P 4/N N C
;
_chemical_formula_sum "Si O2"
_cell_formula_units_Z 100
_cell_length_a 15.712448
_cell_length_b 15.712448
_cell_length_c 27.340810
_cell_angle_alpha 90.000000
_cell_angle_beta 90.000000
_cell_angle_gamma 90.000000
_cell_volume 6749.927119
_symmetry_space_group_name_H-M "P 4/N N C"
_symmetry_group_IT_number 126
_space_group.IT_coordinate_system_code '2'
_symmetry_cell_setting 'tetragonal'
loop_
_space_group_symop_operation_xyz
x,y,z
1/2-y,x,z
1/2-x,1/2-y,z
y,1/2-x,z
x,1/2-y,1/2-z
1/2-x,y,1/2-z
y,x,1/2-z
1/2-y,1/2-x,1/2-z
-x,-y,-z
1/2+y,-x,-z
1/2+x,1/2+y,-z
-y,1/2+x,-z
-x,1/2+y,1/2+z
1/2+x,-y,1/2+z
-y,-x,1/2+z
1/2+y,1/2+x,1/2+z
loop_
_atom_site_type_symbol
_atom_site_label
_atom_site_fract_x
_atom_site_fract_y
_atom_site_fract_z
Si Si1 0.250000 0.750000 0.500000
Si Si2 0.564899 0.250000 0.446553
Si Si3 0.514312 0.750000 0.095249
Si Si4 0.574804 0.433769 0.440375
Si Si5 0.250000 0.387636 0.503926
Si Si6 0.750000 0.893325 0.305658
Si Si7 0.925196 0.433769 0.440375
O O1 0.250000 0.659991 0.470686
O O2 0.557623 0.339971 0.419732
O O3 0.482152 0.250000 0.482071
O O4 0.557623 0.160029 0.419732
O O5 0.465208 0.665272 0.078982
O O6 0.537606 0.750000 0.151874
O O7 0.465208 0.834728 0.078982
O O8 0.599680 0.750000 0.062241
O O9 0.502823 0.502823 0.428737
O O10 0.575449 0.424551 0.500000
O O11 0.166916 0.333084 0.489770
O O12 0.668103 0.831897 0.311115
O O13 0.750000 0.926623 0.250000
#
# Coordination Sequence:
#
# PCOD9563576 Si02
#       7
#     4  16  16  16  16  16  16
#     4  12  20  24  40  52  68 112 146 172 216 268
#     4  12  19  32  39  58  86 117 154 194 224 267
#     4  12  20  30  47  68  94 124 159 195 235 286
#     4  11  20  30  44  62  89 122 156 198 237 277
#     4  11  20  28  42  61  84 119 156 190 227 266
#     4   9  18  32  49  70  97 126 160 208 256 295
#     4  11  20  30  44  62  89 122 156 198 237 277
#
# _framework density 14.814975
#
# number of rings (size 3 to 8) (size 9 to 14) (size 15 to 20)
#    0.000    0.960    4.800    5.280    0.000    1.280 
#    0.000    0.000    0.000    0.000    0.000    2.240 
#    0.000    0.000    0.000    0.000    0.000    0.320 
#
# Total GULP energy -557581.599300 kJ/mol
# GULP energy per Si atom -5575.815993 kJ/mol
# Density = 1.478126 g / cm^3
# Si number density = 14.814975 Si / 1000 Ang^3
#
#
#
# Elastic Constant Matrix: (Units=GPa)
#
#
# Indices 1 2 3 4 5 6 
#
# 1 121.2550 63.4183 35.5531 0.0000 0.0000 0.0000
# 2 63.4183 121.2550 35.5531 0.0000 0.0000 0.0000
# 3 35.5531 35.5531 66.6933 0.0000 0.0000 0.0000
# 4 0.0000 0.0000 0.0000 13.7224 0.0000 0.0000
# 5 0.0000 0.0000 0.0000 0.0000 13.7224 0.0000
# 6 0.0000 0.0000 0.0000 0.0000 0.0000 18.4604
#
#
#
# Elastic Compliance Matrix: (Units=1/GPa)
#
#
# Indices 1 2 3 4 5 6 
#
# 1 0.012052 -0.005238 -0.003632 0.000000 0.000000 0.000000
# 2 -0.005238 0.012052 -0.003632 0.000000 0.000000 0.000000
# 3 -0.003632 -0.003632 0.018866 0.000000 0.000000 0.000000
# 4 0.000000 0.000000 0.000000 0.072874 0.000000 0.000000
# 5 0.000000 0.000000 0.000000 0.000000 0.072874 0.000000
# 6 0.000000 0.000000 0.000000 0.000000 0.000000 0.054170
#
#
# Mechanical properties :
#
#
# Convention : Reuss Voigt Hill
#
# Bulk Modulus (GPa) = 55.66426 64.25025 59.95726
# Shear Modulus (GPa) = 18.25613 20.82630 19.54122
#
# Velocity S-wave (km/s) = 3.51419 3.75341 3.63577
# Velocity P-wave (km/s) = 7.35667 7.88966 7.62782
#
# Compressibility (1/GPa) = 0.01796485
#
# Stress axis : x y z
#
# Youngs Moduli (GPa) = 82.97537 82.97537 53.00403
#
# Poissons Ratio (x) = 0.43465 0.19252
# Poissons Ratio (y) = 0.43465 0.19252
# Poissons Ratio (z) = 0.30138 0.30138
#
# Static dielectric constant tensor:
#      x y z
#    x 1.532840 0.000000 0.000000 
#    y 0.000000 1.532840 0.000000 
#    z 0.000000 0.000000 1.466990 
# 
# From -- ./inp_files/6194.got.cif
#   From: 2010.05.17/outbox.cif.g08.bks.cpg/sg126_4_cif.got.tgz:6194.got - 2010.05.20 11:58:20.
