data_PCOD9563979
_publ_section_title
;
Structure prediction by ZEFSAII (Michael W. Deem and Ramdas Pophale) SiO2 
 PCOD9563979
Probable space group: P 4/M B M
;
_chemical_formula_sum "Si O2"
_cell_formula_units_Z 96
_cell_length_a 24.745316
_cell_length_b 24.745316
_cell_length_c 9.227247
_cell_angle_alpha 90.000000
_cell_angle_beta 90.000000
_cell_angle_gamma 90.000000
_cell_volume 5650.126282
_symmetry_space_group_name_H-M "P 4/M B M"
_symmetry_group_IT_number 127
_symmetry_cell_setting 'tetragonal'
loop_
_space_group_symop_operation_xyz
x,y,z
-y,x,z
-x,-y,z
y,-x,z
1/2+x,1/2-y,-z
1/2-x,1/2+y,-z
1/2+y,1/2+x,-z
1/2-y,1/2-x,-z
-x,-y,-z
y,-x,-z
x,y,-z
-y,x,-z
1/2-x,1/2+y,z
1/2+x,1/2-y,z
1/2-y,1/2-x,z
1/2+y,1/2+x,z
loop_
_atom_site_type_symbol
_atom_site_label
_atom_site_fract_x
_atom_site_fract_y
_atom_site_fract_z
Si Si1 0.840990 0.249047 0.831451
Si Si2 0.669639 0.261609 0.667978
Si Si3 0.058932 0.250257 0.833843
Si Si4 0.745049 0.951377 0.333599
Si Si5 0.552051 0.625023 0.663023
Si Si6 0.948678 0.879368 0.162928
O O1 0.798398 0.298398 0.827208
O O2 0.811106 0.199694 0.748972
O O3 0.896376 0.266359 0.753532
O O4 0.850885 0.234730 0.000000
O O5 0.658607 0.276277 0.500000
O O6 0.712533 0.212533 0.670090
O O7 0.614901 0.243296 0.747373
O O8 0.051584 0.185316 0.840952
O O9 0.006114 0.272033 0.749611
O O10 0.062103 0.270031 0.000000
O O11 0.725386 0.949914 0.500000
O O12 0.810454 0.952488 0.339977
O O13 0.561228 0.605783 0.500000
O O14 0.497008 0.602874 0.732459
O O15 0.599173 0.606146 0.768503
O O16 0.956220 0.899514 0.000000
#
# Coordination Sequence:
#
# PCOD9563979 Si02
#       6
#    16  16  16  16  16  16
#     4  10  20  33  50  73 101 132 166 204 246 293
#     4  10  20  33  50  73 101 132 166 204 246 293
#     4  10  20  33  50  70  94 124 157 195 238 287
#     4  10  20  33  50  70  94 124 157 195 238 287
#     4  10  20  32  45  61  81 108 144 186 230 274
#     4  10  20  32  45  61  81 108 144 186 230 274
#
# _framework density 16.990770000000001
#
# number of rings (size 3 to 8) (size 9 to 14) (size 15 to 20)
#    0.000    2.000    0.000    4.000    0.000    9.000 
#    0.000    1.667    0.000    0.000    0.000    0.000 
#    0.000    0.667    0.000    7.000    0.000    3.000 
#
# Total GULP energy -535609.344488 kJ/mol
# GULP energy per Si atom -5579.264005 kJ/mol
# Density = 1.695210 g / cm^3
# Si number density = 16.990770 Si / 1000 Ang^3
#
#
#
# Elastic Constant Matrix: (Units=GPa)
#
#
# Indices 1 2 3 4 5 6 
#
# 1 62.9909 -4.4173 29.6257 0.0000 0.0000 0.0000
# 2 -4.4173 62.9909 29.6257 0.0000 0.0000 0.0000
# 3 29.6257 29.6257 114.9547 0.0000 0.0000 0.0000
# 4 0.0000 0.0000 0.0000 17.1783 0.0000 0.0000
# 5 0.0000 0.0000 0.0000 0.0000 17.1783 0.0000
# 6 0.0000 0.0000 0.0000 0.0000 0.0000 13.2716
#
#
#
# Elastic Compliance Matrix: (Units=1/GPa)
#
#
# Indices 1 2 3 4 5 6 
#
# 1 0.018964 0.004129 -0.005951 0.000000 0.000000 0.000000
# 2 0.004129 0.018964 -0.005951 0.000000 0.000000 0.000000
# 3 -0.005951 -0.005951 0.011767 0.000000 0.000000 0.000000
# 4 0.000000 0.000000 0.000000 0.058213 0.000000 0.000000
# 5 0.000000 0.000000 0.000000 0.000000 0.058213 0.000000
# 6 0.000000 0.000000 0.000000 0.000000 0.000000 0.075349
#
#
# Mechanical properties :
#
#
# Convention : Reuss Voigt Hill
#
# Bulk Modulus (GPa) = 29.28548 38.95609 34.12078
# Shear Modulus (GPa) = 18.62899 21.93249 20.28074
#
# Velocity S-wave (km/s) = 3.31481 3.59673 3.45865
# Velocity P-wave (km/s) = 5.65015 6.34242 6.00626
#
# Compressibility (1/GPa) = 0.03414662
#
# Stress axis : x y z
#
# Youngs Moduli (GPa) = 52.73185 52.73185 84.98627
#
# Poissons Ratio (x) = -0.21772 0.50579
# Poissons Ratio (y) = -0.21772 0.50579
# Poissons Ratio (z) = 0.31383 0.31383
#
# Static dielectric constant tensor:
#      x y z
#    x 1.579590 0.000000 0.000000 
#    y 0.000000 1.579590 0.000000 
#    z 0.000000 0.000000 1.598870 
# 
# From -- ./inp_files/1966.got.cif
#   From: 2010.05.17/outbox.cif.g08.bks.cpg/sg127_1_cif.got.tgz:1966.got - 2010.05.20 12:03:00.
