data_PCOD9563565
_publ_section_title
;
Structure prediction by ZEFSAII (Michael W. Deem and Ramdas Pophale) SiO2 
 PCOD9563565
Probable space group: P 4/N N C
;
_chemical_formula_sum "Si O2"
_cell_formula_units_Z 48
_cell_length_a 10.763763
_cell_length_b 10.763763
_cell_length_c 16.275498
_cell_angle_alpha 90.000000
_cell_angle_beta 90.000000
_cell_angle_gamma 90.000000
_cell_volume 1885.656314
_symmetry_space_group_name_H-M "P 4/N N C"
_symmetry_group_IT_number 126
_space_group.IT_coordinate_system_code '2'
_symmetry_cell_setting 'tetragonal'
loop_
_space_group_symop_operation_xyz
x,y,z
1/2-y,x,z
1/2-x,1/2-y,z
y,1/2-x,z
x,1/2-y,1/2-z
1/2-x,y,1/2-z
y,x,1/2-z
1/2-y,1/2-x,1/2-z
-x,-y,-z
1/2+y,-x,-z
1/2+x,1/2+y,-z
-y,1/2+x,-z
-x,1/2+y,1/2+z
1/2+x,-y,1/2+z
-y,-x,1/2+z
1/2+y,1/2+x,1/2+z
loop_
_atom_site_type_symbol
_atom_site_label
_atom_site_fract_x
_atom_site_fract_y
_atom_site_fract_z
Si Si1 0.222518 0.548827 0.481140
Si Si2 0.652947 0.923104 0.361900
Si Si3 0.999352 0.340774 0.309068
O O1 0.119355 0.659523 0.475766
O O2 0.164009 0.445410 0.539957
O O3 0.267411 0.490220 0.395346
O O4 0.587771 0.796174 0.337292
O O5 0.577850 0.038267 0.329729
O O6 0.923604 0.250000 0.250000
O O7 0.113282 0.386719 0.250000
#
# Coordination Sequence:
#
# PCOD9563565 Si02
#       3
#    16  16  16
#     4   9  21  44  74 107 145 197 253 298 374 463
#     4  10  24  47  76 108 146 200 253 310 371 466
#     4  11  27  47  74 112 154 196 247 321 391 448
#
# _framework density 25.455328999999999
#
# number of rings (size 3 to 8) (size 9 to 14) (size 15 to 20)
#    0.000    2.000    0.000    0.000    9.333    4.333 
#   18.000    1.667    0.000    0.000    0.000    0.000 
#    0.000    0.000    0.000    0.000    0.000    0.000 
#
# Total GULP energy -268609.528783 kJ/mol
# GULP energy per Si atom -5596.031850 kJ/mol
# Density = 2.539739 g / cm^3
# Si number density = 25.455329 Si / 1000 Ang^3
#
#
#
# Elastic Constant Matrix: (Units=GPa)
#
#
# Indices 1 2 3 4 5 6 
#
# 1 65.0726 29.8079 71.9084 0.0000 0.0000 0.0000
# 2 29.8079 65.0727 71.9088 0.0000 0.0000 0.0000
# 3 71.9084 71.9088 216.7363 0.0000 0.0000 0.0000
# 4 0.0000 0.0000 0.0000 46.0319 0.0000 0.0000
# 5 0.0000 0.0000 0.0000 0.0000 46.0314 0.0000
# 6 0.0000 0.0000 0.0000 0.0000 0.0000 -15.9745
#
#
#
# Elastic Compliance Matrix: (Units=1/GPa)
#
#
# Indices 1 2 3 4 5 6 
#
# 1 0.024779 -0.003577 -0.007034 0.000000 0.000000 0.000000
# 2 -0.003577 0.024780 -0.007034 0.000000 0.000000 0.000000
# 3 -0.007034 -0.007034 0.009282 0.000000 0.000000 0.000000
# 4 0.000000 0.000000 0.000000 0.021724 0.000000 0.000000
# 5 0.000000 0.000000 0.000000 0.000000 0.021724 0.000000
# 6 0.000000 0.000000 0.000000 0.000000 0.000000 -0.062600
#
#
# Mechanical properties :
#
#
# Convention : Reuss Voigt Hill
#
# Bulk Modulus (GPa) = 42.46607 77.12576 59.79592
# Shear Modulus (GPa) = 60.36365 26.76819 43.56592
#
# Velocity S-wave (km/s) = 4.87494 3.24632 4.14147
# Velocity P-wave (km/s) = 6.95741 6.66451 6.81253
#
# Compressibility (1/GPa) = 0.02354821
#
# Stress axis : x y z
#
# Youngs Moduli (GPa) = 40.35601 40.35581 107.73949
#
# Poissons Ratio (x) = 0.14437 0.75788
# Poissons Ratio (y) = 0.14437 0.75789
# Poissons Ratio (z) = 0.28388 0.28388
#
# Static dielectric constant tensor:
#      x y z
#    x 2.002330 0.000000 0.000000 
#    y 0.000000 2.002320 0.000000 
#    z 0.000000 0.000000 1.983050 
# 
# From -- ./inp_files/4140.got.cif
#   From: 2010.05.17/outbox.cif.g08.bks.cpg/sg126_3_cif.got.tgz:4140.got - 2010.05.20 11:58:20.
