data_PCOD9563534
_publ_section_title
;
Structure prediction by ZEFSAII (Michael W. Deem and Ramdas Pophale) SiO2 
 PCOD9563534
Probable space group: P 4/N N C
;
_chemical_formula_sum "Si O2"
_cell_formula_units_Z 36
_cell_length_a 10.455141
_cell_length_b 10.455141
_cell_length_c 11.420416
_cell_angle_alpha 90.000000
_cell_angle_beta 90.000000
_cell_angle_gamma 90.000000
_cell_volume 1248.365368
_symmetry_space_group_name_H-M "P 4/N N C"
_symmetry_group_IT_number 126
_space_group.IT_coordinate_system_code '2'
_symmetry_cell_setting 'tetragonal'
loop_
_space_group_symop_operation_xyz
x,y,z
1/2-y,x,z
1/2-x,1/2-y,z
y,1/2-x,z
x,1/2-y,1/2-z
1/2-x,y,1/2-z
y,x,1/2-z
1/2-y,1/2-x,1/2-z
-x,-y,-z
1/2+y,-x,-z
1/2+x,1/2+y,-z
-y,1/2+x,-z
-x,1/2+y,1/2+z
1/2+x,-y,1/2+z
-y,-x,1/2+z
1/2+y,1/2+x,1/2+z
loop_
_atom_site_type_symbol
_atom_site_label
_atom_site_fract_x
_atom_site_fract_y
_atom_site_fract_z
Si Si1 0.750000 0.250000 0.500000
Si Si2 0.995240 0.675516 0.869744
Si Si3 0.084656 0.133689 0.901422
O O1 0.751902 0.115498 0.570045
O O2 0.960989 0.750000 0.750000
O O3 0.066290 0.539158 0.853841
O O4 0.885320 0.616939 0.957856
O O5 0.219842 0.077336 0.865048
#
# Coordination Sequence:
#
# PCOD9563534 Si02
#       3
#     4  16  16
#     4  12  22  48  68 114 164 228 282 360 408 562
#     4  11  24  44  77 115 161 229 287 348 445 536
#     4  10  22  46  77 114 165 212 275 378 434 495
#
# _framework density 28.837712
#
# number of rings (size 3 to 8) (size 9 to 14) (size 15 to 20)
#    0.000    1.333    4.444    0.667    0.000    1.778 
#    0.000    2.222    0.000    0.000    0.000    0.000 
#    0.000    0.000    0.000    0.000    0.000    0.000 
#
# Total GULP energy -200980.475345 kJ/mol
# GULP energy per Si atom -5582.790982 kJ/mol
# Density = 2.877208 g / cm^3
# Si number density = 28.837712 Si / 1000 Ang^3
#
#
#
# Elastic Constant Matrix: (Units=GPa)
#
#
# Indices 1 2 3 4 5 6 
#
# 1 137.4249 40.0796 41.6129 0.0000 0.0000 0.0000
# 2 40.0796 137.4249 41.6129 0.0000 0.0000 0.0000
# 3 41.6129 41.6129 227.5267 0.0000 0.0000 0.0000
# 4 0.0000 0.0000 0.0000 48.8675 0.0000 0.0000
# 5 0.0000 0.0000 0.0000 0.0000 48.8675 0.0000
# 6 0.0000 0.0000 0.0000 0.0000 0.0000 75.4532
#
#
#
# Elastic Compliance Matrix: (Units=1/GPa)
#
#
# Indices 1 2 3 4 5 6 
#
# 1 0.008217 -0.002055 -0.001127 0.000000 0.000000 0.000000
# 2 -0.002055 0.008217 -0.001127 0.000000 0.000000 0.000000
# 3 -0.001127 -0.001127 0.004807 0.000000 0.000000 0.000000
# 4 0.000000 0.000000 0.000000 0.020464 0.000000 0.000000
# 5 0.000000 0.000000 0.000000 0.000000 0.020464 0.000000
# 6 0.000000 0.000000 0.000000 0.000000 0.000000 0.013253
#
#
# Mechanical properties :
#
#
# Convention : Reuss Voigt Hill
#
# Bulk Modulus (GPa) = 79.21743 83.22080 81.21911
# Shear Modulus (GPa) = 56.65798 59.90904 58.28351
#
# Velocity S-wave (km/s) = 4.43732 4.56286 4.50053
# Velocity P-wave (km/s) = 7.33368 7.52865 7.43180
#
# Compressibility (1/GPa) = 0.01262349
#
# Stress axis : x y z
#
# Youngs Moduli (GPa) = 121.69315 121.69315 208.01583
#
# Poissons Ratio (x) = 0.25012 0.23443
# Poissons Ratio (y) = 0.25012 0.23443
# Poissons Ratio (z) = 0.13715 0.13715
#
# Static dielectric constant tensor:
#      x y z
#    x 2.233030 0.000000 0.000000 
#    y 0.000000 2.233030 0.000000 
#    z 0.000000 0.000000 2.661060 
# 
# From -- ./inp_files/2114.got.cif
#   From: 2010.05.17/outbox.cif.g08.bks.cpg/sg126_2_cif.got.tgz:2114.got - 2010.05.20 11:58:20.
