data_PCOD9563026
_publ_section_title
;
Structure prediction by ZEFSAII (Michael W. Deem and Ramdas Pophale) SiO2 
 PCOD9563026
Probable space group: P 4/N B M
;
_chemical_formula_sum "Si O2"
_cell_formula_units_Z 112
_cell_length_a 14.127960
_cell_length_b 14.127960
_cell_length_c 27.386355
_cell_angle_alpha 90.000000
_cell_angle_beta 90.000000
_cell_angle_gamma 90.000000
_cell_volume 5466.296021
_symmetry_space_group_name_H-M "P 4/N B M"
_symmetry_group_IT_number 125
_space_group.IT_coordinate_system_code '2'
_symmetry_cell_setting 'tetragonal'
loop_
_space_group_symop_operation_xyz
x,y,z
1/2-y,x,z
1/2-x,1/2-y,z
y,1/2-x,z
x,1/2-y,-z
1/2-x,y,-z
y,x,-z
1/2-y,1/2-x,-z
-x,-y,-z
1/2+y,-x,-z
1/2+x,1/2+y,-z
-y,1/2+x,-z
-x,1/2+y,z
1/2+x,-y,z
-y,-x,z
1/2+y,1/2+x,z
loop_
_atom_site_type_symbol
_atom_site_label
_atom_site_fract_x
_atom_site_fract_y
_atom_site_fract_z
Si Si1 0.092576 0.745991 0.054237
Si Si2 0.141810 0.362886 0.404465
Si Si3 0.377300 0.037955 0.305701
Si Si4 0.630210 0.529074 0.195917
Si Si5 0.823180 0.027347 0.458948
Si Si6 0.670133 0.010326 0.150461
Si Si7 0.402618 0.744281 0.355069
O O1 0.178145 0.821856 0.052020
O O2 0.144653 0.644653 0.064063
O O3 0.025704 0.783814 0.097001
O O4 0.049175 0.750000 0.000000
O O5 0.124324 0.254168 0.412551
O O6 0.114191 0.387797 0.349336
O O7 0.106727 0.443641 0.440794
O O8 0.376901 0.072215 0.250380
O O9 0.461991 0.961991 0.311114
O O10 0.279570 0.982509 0.317912
O O11 0.565311 0.434690 0.195691
O O12 0.580325 0.602462 0.158738
O O13 0.737676 0.501707 0.184199
O O14 0.750000 0.997502 0.500000
O O15 0.885451 0.114549 0.477576
O O16 0.768980 0.064974 0.410103
O O17 0.602153 0.102153 0.160541
O O18 0.360540 0.639461 0.350279
O O19 0.317183 0.817183 0.345542
#
# Coordination Sequence:
#
# PCOD9563026 Si02
#       7
#    16  16  16  16  16  16  16
#     4   8  14  28  54  85 116 157 207 252 298 358
#     4  10  22  39  58  79 105 143 190 229 267 328
#     4   9  19  36  55  78 108 138 178 234 284 337
#     4  10  22  37  56  85 118 154 201 251 303 368
#     4  10  20  36  58  83 112 142 175 221 279 339
#     4  10  21  37  56  83 120 157 198 253 308 358
#     4   8  14  27  48  74 104 135 168 212 266 325
#
# _framework density 20.489194999999999
#
# number of rings (size 3 to 8) (size 9 to 14) (size 15 to 20)
#    0.000    2.714    0.000    2.571    2.000    3.000 
#    0.000   10.714    0.000    3.429    0.000    1.000 
#    0.000    0.000    0.000    0.000    0.000    0.000 
#
# Total GULP energy -624357.837610 kJ/mol
# GULP energy per Si atom -5574.623550 kJ/mol
# Density = 2.044256 g / cm^3
# Si number density = 20.489195 Si / 1000 Ang^3
#
#
#
# Elastic Constant Matrix: (Units=GPa)
#
#
# Indices 1 2 3 4 5 6 
#
# 1 69.3969 20.7845 21.4083 0.0000 0.0000 0.0000
# 2 20.7845 69.3969 21.4083 0.0000 0.0000 0.0000
# 3 21.4083 21.4083 99.7400 0.0000 0.0000 0.0000
# 4 0.0000 0.0000 0.0000 13.9975 0.0000 0.0000
# 5 0.0000 0.0000 0.0000 0.0000 13.9975 0.0000
# 6 0.0000 0.0000 0.0000 0.0000 0.0000 -0.7657
#
#
#
# Elastic Compliance Matrix: (Units=1/GPa)
#
#
# Indices 1 2 3 4 5 6 
#
# 1 0.016459 -0.004112 -0.002650 0.000000 0.000000 0.000000
# 2 -0.004112 0.016459 -0.002650 0.000000 0.000000 0.000000
# 3 -0.002650 -0.002650 0.011164 0.000000 0.000000 0.000000
# 4 0.000000 0.000000 0.000000 0.071441 0.000000 0.000000
# 5 0.000000 0.000000 0.000000 0.000000 0.071441 0.000000
# 6 0.000000 0.000000 0.000000 0.000000 0.000000 -1.305954
#
#
# Mechanical properties :
#
#
# Convention : Reuss Voigt Hill
#
# Bulk Modulus (GPa) = 39.59287 40.63732 40.11509
# Shear Modulus (GPa) = -4.57982 17.10805 6.26411
#
# Velocity S-wave (km/s) = -1.49669 2.89274 1.75040
# Velocity P-wave (km/s) = 4.04709 5.57080 4.86892
#
# Compressibility (1/GPa) = 0.02525708
#
# Stress axis : x y z
#
# Youngs Moduli (GPa) = 60.75723 60.75723 89.57571
#
# Poissons Ratio (x) = 0.24983 0.23739
# Poissons Ratio (y) = 0.24983 0.23739
# Poissons Ratio (z) = 0.16102 0.16102
#
# Static dielectric constant tensor:
#      x y z
#    x 1.761770 0.000000 0.000000 
#    y 0.000000 1.761770 0.000000 
#    z 0.000000 0.000000 1.738480 
# 
# From -- ./inp_files/6446.got.cif
#   From: 2010.05.17/outbox.cif.g08.bks.cpg/sg125_4_cif.got.tgz:6446.got - 2010.05.20 11:54:10.
