data_PCOD9563618
_publ_section_title
;
Structure prediction by ZEFSAII (Michael W. Deem and Ramdas Pophale) SiO2 
 PCOD9563618
Probable space group: P 4/N N C
;
_chemical_formula_sum "Si O2"
_cell_formula_units_Z 64
_cell_length_a 11.617639
_cell_length_b 11.617639
_cell_length_c 21.664029
_cell_angle_alpha 90.000000
_cell_angle_beta 90.000000
_cell_angle_gamma 90.000000
_cell_volume 2923.983941
_symmetry_space_group_name_H-M "P 4/N N C"
_symmetry_group_IT_number 126
_space_group.IT_coordinate_system_code '2'
_symmetry_cell_setting 'tetragonal'
loop_
_space_group_symop_operation_xyz
x,y,z
1/2-y,x,z
1/2-x,1/2-y,z
y,1/2-x,z
x,1/2-y,1/2-z
1/2-x,y,1/2-z
y,x,1/2-z
1/2-y,1/2-x,1/2-z
-x,-y,-z
1/2+y,-x,-z
1/2+x,1/2+y,-z
-y,1/2+x,-z
-x,1/2+y,1/2+z
1/2+x,-y,1/2+z
-y,-x,1/2+z
1/2+y,1/2+x,1/2+z
loop_
_atom_site_type_symbol
_atom_site_label
_atom_site_fract_x
_atom_site_fract_y
_atom_site_fract_z
Si Si1 0.347577 0.824763 0.812540
Si Si2 0.232384 0.563647 0.512595
Si Si3 0.942049 0.773859 0.143368
Si Si4 0.569929 0.805372 0.893623
O O1 0.250000 0.750000 0.847404
O O2 0.366619 0.750000 0.750000
O O3 0.462970 0.832343 0.850875
O O4 0.299043 0.953669 0.810026
O O5 0.131379 0.658798 0.517008
O O6 0.269012 0.503824 0.576229
O O7 0.188956 0.468241 0.464627
O O8 0.846420 0.873842 0.149657
O O9 0.611669 0.676051 0.881256
#
# Coordination Sequence:
#
# PCOD9563618 Si02
#       4
#    16  16  16  16
#     4  11  26  48  71  99 137 190 244 295 364 427
#     4  11  22  37  68 109 152 191 236 290 359 434
#     4  11  25  45  74 110 148 193 247 303 365 435
#     4  11  25  43  68 105 143 184 235 291 353 427
#
# _framework density 21.887944999999998
#
# number of rings (size 3 to 8) (size 9 to 14) (size 15 to 20)
#    0.000    1.000    2.500    3.000    7.000    5.000 
#    4.500    1.250    0.000    6.000    0.000    0.000 
#    0.000    0.000    0.000    0.000    0.000    0.000 
#
# Total GULP energy -357921.088096 kJ/mol
# GULP energy per Si atom -5592.517002 kJ/mol
# Density = 2.183813 g / cm^3
# Si number density = 21.887945 Si / 1000 Ang^3
#
#
#
# Elastic Constant Matrix: (Units=GPa)
#
#
# Indices 1 2 3 4 5 6 
#
# 1 131.3846 64.2497 42.3718 0.0000 0.0000 0.0000
# 2 64.2497 131.3846 42.3718 0.0000 0.0000 0.0000
# 3 42.3718 42.3718 119.1263 0.0000 0.0000 0.0000
# 4 0.0000 0.0000 0.0000 23.1864 0.0000 0.0000
# 5 0.0000 0.0000 0.0000 0.0000 23.1864 0.0000
# 6 0.0000 0.0000 0.0000 0.0000 0.0000 -43.6637
#
#
#
# Elastic Compliance Matrix: (Units=1/GPa)
#
#
# Indices 1 2 3 4 5 6 
#
# 1 0.010469 -0.004426 -0.002149 0.000000 0.000000 0.000000
# 2 -0.004426 0.010469 -0.002149 0.000000 0.000000 0.000000
# 3 -0.002149 -0.002149 0.009923 0.000000 0.000000 0.000000
# 4 0.000000 0.000000 0.000000 0.043129 0.000000 0.000000
# 5 0.000000 0.000000 0.000000 0.000000 0.043129 0.000000
# 6 0.000000 0.000000 0.000000 0.000000 0.000000 -0.022902
#
#
# Mechanical properties :
#
#
# Convention : Reuss Voigt Hill
#
# Bulk Modulus (GPa) = 74.56304 75.54243 75.05273
# Shear Modulus (GPa) = 43.05259 16.06863 29.56061
#
# Velocity S-wave (km/s) = 4.43985 2.71243 3.67896
# Velocity P-wave (km/s) = 7.77321 6.66317 7.23950
#
# Compressibility (1/GPa) = 0.01341147
#
# Stress axis : x y z
#
# Youngs Moduli (GPa) = 95.52030 95.52030 100.77199
#
# Poissons Ratio (x) = 0.42281 0.21659
# Poissons Ratio (y) = 0.42281 0.21659
# Poissons Ratio (z) = 0.20530 0.20530
#
# Static dielectric constant tensor:
#      x y z
#    x 1.776900 0.000000 0.000000 
#    y 0.000000 1.776900 0.000000 
#    z 0.000000 0.000000 1.815670 
# 
# From -- ./inp_files/4919.got.cif
#   From: 2010.05.17/outbox.cif.g08.bks.cpg/sg126_3_cif.got.tgz:4919.got - 2010.05.20 11:58:20.
