data_PCOD9563302
_publ_section_title
;
Structure prediction by ZEFSAII (Michael W. Deem and Ramdas Pophale) SiO2 
 PCOD9563302
Probable space group: P 4/N N C
;
_chemical_formula_sum "Si O2"
_cell_formula_units_Z 88
_cell_length_a 17.196806
_cell_length_b 17.196806
_cell_length_c 16.991251
_cell_angle_alpha 90.000000
_cell_angle_beta 90.000000
_cell_angle_gamma 90.000000
_cell_volume 5024.824979
_symmetry_space_group_name_H-M "P 4/N N C"
_symmetry_group_IT_number 126
_space_group.IT_coordinate_system_code '2'
_symmetry_cell_setting 'tetragonal'
loop_
_space_group_symop_operation_xyz
x,y,z
1/2-y,x,z
1/2-x,1/2-y,z
y,1/2-x,z
x,1/2-y,1/2-z
1/2-x,y,1/2-z
y,x,1/2-z
1/2-y,1/2-x,1/2-z
-x,-y,-z
1/2+y,-x,-z
1/2+x,1/2+y,-z
-y,1/2+x,-z
-x,1/2+y,1/2+z
1/2+x,-y,1/2+z
-y,-x,1/2+z
1/2+y,1/2+x,1/2+z
loop_
_atom_site_type_symbol
_atom_site_label
_atom_site_fract_x
_atom_site_fract_y
_atom_site_fract_z
Si Si1 0.334468 0.668104 0.714930
Si Si2 0.588401 0.008519 0.963366
Si Si3 0.523651 0.097897 0.275794
Si Si4 0.344585 0.676657 0.031480
Si Si5 0.865048 0.697606 0.578163
Si Si6 0.750000 0.925881 0.750000
O O1 0.362994 0.750000 0.750000
O O2 0.250000 0.655885 0.750000
O O3 0.390915 0.600751 0.741780
O O4 0.333083 0.674504 0.622329
O O5 0.592646 0.027745 0.870043
O O6 0.647021 0.933633 0.961191
O O7 0.629713 0.079206 0.008184
O O8 0.500000 0.000000 0.000000
O O9 0.480092 0.173839 0.236952
O O10 0.475067 0.024934 0.250000
O O11 0.268429 0.647469 0.985248
O O12 0.849399 0.787027 0.556013
O O13 0.879737 0.715260 0.673242
#
# Coordination Sequence:
#
# PCOD9563302 Si02
#       6
#    16  16  16  16  16   8
#     4  11  21  38  60  83 114 152 204 248 297 366
#     4  11  24  38  58  86 122 161 204 256 311 369
#     4  11  21  35  57  86 120 160 199 250 303 369
#     4  11  23  38  59  86 118 157 197 248 308 368
#     4  10  21  36  56  84 119 161 201 248 306 378
#     4  10  18  31  55  86 122 156 196 236 301 377
#
# _framework density 17.513048000000001
#
# number of rings (size 3 to 8) (size 9 to 14) (size 15 to 20)
#    0.000    1.273    0.909    8.182    5.091    0.727 
#    0.000    0.000    0.000    0.000    0.000    0.000 
#    0.000    0.364    0.000    0.000    0.000    0.000 
#
# Total GULP energy -489928.831153 kJ/mol
# GULP energy per Si atom -5567.373081 kJ/mol
# Density = 1.747319 g / cm^3
# Si number density = 17.513048 Si / 1000 Ang^3
#
#
#
# Elastic Constant Matrix: (Units=GPa)
#
#
# Indices 1 2 3 4 5 6 
#
# 1 109.8764 80.1723 37.1006 0.0000 0.0000 0.0000
# 2 80.1723 109.8764 37.0989 0.0000 0.0000 0.0000
# 3 37.1006 37.0989 108.9363 0.0000 0.0000 0.0000
# 4 0.0000 0.0000 0.0000 30.5107 0.0000 0.0000
# 5 0.0000 0.0000 0.0000 0.0000 30.5095 0.0000
# 6 0.0000 0.0000 0.0000 0.0000 0.0000 25.7556
#
#
#
# Elastic Compliance Matrix: (Units=1/GPa)
#
#
# Indices 1 2 3 4 5 6 
#
# 1 0.019867 -0.013798 -0.002067 0.000000 0.000000 0.000000
# 2 -0.013798 0.019867 -0.002067 0.000000 0.000000 0.000000
# 3 -0.002067 -0.002067 0.010587 0.000000 0.000000 0.000000
# 4 0.000000 0.000000 0.000000 0.032775 0.000000 0.000000
# 5 0.000000 0.000000 0.000000 0.000000 0.032777 0.000000
# 6 0.000000 0.000000 0.000000 0.000000 0.000000 0.038826
#
#
# Mechanical properties :
#
#
# Convention : Reuss Voigt Hill
#
# Bulk Modulus (GPa) = 69.16715 70.82585 69.99650
# Shear Modulus (GPa) = 25.59075 28.97632 27.28353
#
# Velocity S-wave (km/s) = 3.82676 4.07204 3.95130
# Velocity P-wave (km/s) = 7.68803 7.91443 7.80205
#
# Compressibility (1/GPa) = 0.01445773
#
# Stress axis : x y z
#
# Youngs Moduli (GPa) = 50.33433 50.33490 94.45163
#
# Poissons Ratio (x) = 0.69454 0.19524
# Poissons Ratio (y) = 0.69453 0.19518
# Poissons Ratio (z) = 0.10405 0.10402
#
# Static dielectric constant tensor:
#      x y z
#    x 1.585380 0.000000 0.000000 
#    y 0.000000 1.585420 0.000000 
#    z 0.000000 0.000000 1.597550 
# 
# From -- ./inp_files/3731.got.cif
#   From: 2010.05.17/outbox.cif.g08.bks.cpg/sg126_2_cif.got.tgz:3731.got - 2010.05.20 11:58:20.
