data_PCOD9563580
_publ_section_title
;
Structure prediction by ZEFSAII (Michael W. Deem and Ramdas Pophale) SiO2 
 PCOD9563580
Probable space group: P 4/N N C
;
_chemical_formula_sum "Si O2"
_cell_formula_units_Z 116
_cell_length_a 17.549060
_cell_length_b 17.549060
_cell_length_c 20.109377
_cell_angle_alpha 90.000000
_cell_angle_beta 90.000000
_cell_angle_gamma 90.000000
_cell_volume 6193.074918
_symmetry_space_group_name_H-M "P 4/N N C"
_symmetry_group_IT_number 126
_space_group.IT_coordinate_system_code '2'
_symmetry_cell_setting 'tetragonal'
loop_
_space_group_symop_operation_xyz
x,y,z
1/2-y,x,z
1/2-x,1/2-y,z
y,1/2-x,z
x,1/2-y,1/2-z
1/2-x,y,1/2-z
y,x,1/2-z
1/2-y,1/2-x,1/2-z
-x,-y,-z
1/2+y,-x,-z
1/2+x,1/2+y,-z
-y,1/2+x,-z
-x,1/2+y,1/2+z
1/2+x,-y,1/2+z
-y,-x,1/2+z
1/2+y,1/2+x,1/2+z
loop_
_atom_site_type_symbol
_atom_site_label
_atom_site_fract_x
_atom_site_fract_y
_atom_site_fract_z
Si Si1 0.445139 0.169537 0.786595
Si Si2 0.250000 0.250000 0.391646
Si Si3 0.694880 0.633422 0.075335
Si Si4 0.155553 0.663996 0.494878
Si Si5 0.529925 0.334232 0.102837
Si Si6 0.446056 0.573846 0.763491
Si Si7 0.449986 0.655575 0.624575
Si Si8 0.615129 0.634813 0.568717
O O1 0.443837 0.250000 0.750000
O O2 0.383672 0.116329 0.750000
O O3 0.419589 0.175419 0.862965
O O4 0.526107 0.129628 0.778987
O O5 0.325778 0.307017 0.396314
O O6 0.784566 0.652820 0.078559
O O7 0.669789 0.601079 0.004410
O O8 0.148585 0.755813 0.486300
O O9 0.097692 0.641609 0.553394
O O10 0.135539 0.615661 0.428984
O O11 0.531563 0.379148 0.171727
O O12 0.542692 0.246436 0.121130
O O13 0.448614 0.346995 0.067566
O O14 0.512756 0.512756 0.750000
O O15 0.434022 0.624381 0.697913
O O16 0.533449 0.626223 0.603311
#
# Coordination Sequence:
#
# PCOD9563580 Si02
#       8
#    16   4  16  16  16  16  16  16
#     4  11  24  40  61  91 131 177 216 263 321 396
#     4  12  20  40  60 105 145 152 208 268 322 404
#     4  11  20  36  61  92 132 172 210 256 316 395
#     4   9  22  44  67  96 127 162 220 280 323 384
#     4  11  23  42  70  93 124 176 217 267 339 392
#     4  11  25  43  59  89 133 169 216 273 313 385
#     4  11  23  43  69  92 127 175 214 271 335 392
#     4  12  22  38  66 100 134 167 209 271 332 398
#
# _framework density 18.730596999999999
#
# number of rings (size 3 to 8) (size 9 to 14) (size 15 to 20)
#    0.000    1.103    5.517    0.414    1.931    4.000 
#    2.483    0.000    0.000    4.966    0.000    0.000 
#    0.000    0.000    0.000    0.000    0.000    0.000 
#
# Total GULP energy -646881.918808 kJ/mol
# GULP energy per Si atom -5576.568266 kJ/mol
# Density = 1.868797 g / cm^3
# Si number density = 18.730597 Si / 1000 Ang^3
#
#
#
# Elastic Constant Matrix: (Units=GPa)
#
#
# Indices 1 2 3 4 5 6 
#
# 1 59.1993 40.1333 49.2787 0.0000 0.0000 0.0000
# 2 40.1333 59.1981 49.2769 0.0000 0.0000 0.0000
# 3 49.2787 49.2769 112.9718 0.0000 0.0000 0.0000
# 4 0.0000 0.0000 0.0000 35.0232 0.0000 0.0000
# 5 0.0000 0.0000 0.0000 0.0000 35.0234 0.0000
# 6 0.0000 0.0000 0.0000 0.0000 0.0000 23.1858
#
#
#
# Elastic Compliance Matrix: (Units=1/GPa)
#
#
# Indices 1 2 3 4 5 6 
#
# 1 0.035100 -0.017351 -0.007742 0.000000 0.000000 0.000000
# 2 -0.017351 0.035100 -0.007741 0.000000 0.000000 0.000000
# 3 -0.007742 -0.007741 0.015606 0.000000 0.000000 0.000000
# 4 0.000000 0.000000 0.000000 0.028553 0.000000 0.000000
# 5 0.000000 0.000000 0.000000 0.000000 0.028552 0.000000
# 6 0.000000 0.000000 0.000000 0.000000 0.000000 0.043130
#
#
# Mechanical properties :
#
#
# Convention : Reuss Voigt Hill
#
# Bulk Modulus (GPa) = 49.66366 56.52745 53.09555
# Shear Modulus (GPa) = 19.34822 24.82516 22.08669
#
# Velocity S-wave (km/s) = 3.21748 3.64453 3.43764
# Velocity P-wave (km/s) = 6.35415 6.92494 6.64567
#
# Compressibility (1/GPa) = 0.02013545
#
# Stress axis : x y z
#
# Youngs Moduli (GPa) = 28.48999 28.49034 64.07917
#
# Poissons Ratio (x) = 0.49434 0.49612
# Poissons Ratio (y) = 0.49434 0.49606
# Poissons Ratio (z) = 0.22058 0.22055
#
# Static dielectric constant tensor:
#      x y z
#    x 1.655650 0.000000 0.000000 
#    y 0.000000 1.655650 0.000000 
#    z 0.000000 0.000000 1.641800 
# 
# From -- ./inp_files/4623.got.cif
#   From: 2010.05.17/outbox.cif.g08.bks.cpg/sg126_3_cif.got.tgz:4623.got - 2010.05.20 11:58:20.
