data_PCOD9563397
_publ_section_title
;
Structure prediction by ZEFSAII (Michael W. Deem and Ramdas Pophale) SiO2 
 PCOD9563397
Probable space group: P 4/N N C
;
_chemical_formula_sum "Si O2"
_cell_formula_units_Z 64
_cell_length_a 21.067795
_cell_length_b 21.067795
_cell_length_c 5.595681
_cell_angle_alpha 90.000000
_cell_angle_beta 90.000000
_cell_angle_gamma 90.000000
_cell_volume 2483.654126
_symmetry_space_group_name_H-M "P 4/N N C"
_symmetry_group_IT_number 126
_space_group.IT_coordinate_system_code '2'
_symmetry_cell_setting 'tetragonal'
loop_
_space_group_symop_operation_xyz
x,y,z
1/2-y,x,z
1/2-x,1/2-y,z
y,1/2-x,z
x,1/2-y,1/2-z
1/2-x,y,1/2-z
y,x,1/2-z
1/2-y,1/2-x,1/2-z
-x,-y,-z
1/2+y,-x,-z
1/2+x,1/2+y,-z
-y,1/2+x,-z
-x,1/2+y,1/2+z
1/2+x,-y,1/2+z
-y,-x,1/2+z
1/2+y,1/2+x,1/2+z
loop_
_atom_site_type_symbol
_atom_site_label
_atom_site_fract_x
_atom_site_fract_y
_atom_site_fract_z
Si Si1 0.133279 0.438132 0.559664
Si Si2 0.527064 0.250000 0.750000
Si Si3 0.955519 0.085756 0.307607
Si Si4 0.676847 0.676847 0.250000
Si Si5 0.179504 0.649378 0.889618
O O1 0.075868 0.424133 0.750000
O O2 0.191711 0.481279 0.668710
O O3 0.118420 0.476823 0.323699
O O4 0.153488 0.365601 0.530342
O O5 0.580697 0.285257 0.916497
O O6 0.949738 0.049733 0.061106
O O7 0.895236 0.132313 0.339955
O O8 0.750000 0.664866 0.250000
O O9 0.192312 0.680088 0.626901
#
# Coordination Sequence:
#
# PCOD9563397 Si02
#       5
#    16   8  16   8  16
#     4  10  20  36  62  98 139 185 242 282 367 432
#     4  12  20  40  69  97 148 194 238 302 374 440
#     4  10  20  40  62 100 141 175 222 299 354 429
#     4   9  18  34  60  96 142 186 240 292 342 433
#     4  10  22  41  66 104 138 185 236 300 362 436
#
# _framework density 25.768484000000001
#
# number of rings (size 3 to 8) (size 9 to 14) (size 15 to 20)
#    0.750    1.125    6.250    0.000    0.000    2.000 
#    0.000    0.000    0.000    2.250    0.000    1.750 
#    0.000    8.000    0.000    0.000    0.000    1.000 
#
# Total GULP energy -356334.526868 kJ/mol
# GULP energy per Si atom -5567.726982 kJ/mol
# Density = 2.570983 g / cm^3
# Si number density = 25.768484 Si / 1000 Ang^3
#
#
#
# Elastic Constant Matrix: (Units=GPa)
#
#
# Indices 1 2 3 4 5 6 
#
# 1 112.8261 29.1534 36.0496 0.0000 0.0000 0.0000
# 2 29.1534 112.8249 36.0495 0.0000 0.0000 0.0000
# 3 36.0496 36.0495 159.0822 0.0000 0.0000 0.0000
# 4 0.0000 0.0000 0.0000 51.5594 0.0000 0.0000
# 5 0.0000 0.0000 0.0000 0.0000 51.5610 0.0000
# 6 0.0000 0.0000 0.0000 0.0000 0.0000 30.1529
#
#
#
# Elastic Compliance Matrix: (Units=1/GPa)
#
#
# Indices 1 2 3 4 5 6 
#
# 1 0.009955 -0.001996 -0.001804 0.000000 0.000000 0.000000
# 2 -0.001996 0.009955 -0.001804 0.000000 0.000000 0.000000
# 3 -0.001804 -0.001804 0.007104 0.000000 0.000000 0.000000
# 4 0.000000 0.000000 0.000000 0.019395 0.000000 0.000000
# 5 0.000000 0.000000 0.000000 0.000000 0.019394 0.000000
# 6 0.000000 0.000000 0.000000 0.000000 0.000000 0.033164
#
#
# Mechanical properties :
#
#
# Convention : Reuss Voigt Hill
#
# Bulk Modulus (GPa) = 63.26153 65.24867 64.25510
# Shear Modulus (GPa) = 43.31108 45.55338 44.43223
#
# Velocity S-wave (km/s) = 4.10418 4.20908 4.15696
# Velocity P-wave (km/s) = 6.86019 6.99985 6.93037
#
# Compressibility (1/GPa) = 0.01580739
#
# Stress axis : x y z
#
# Youngs Moduli (GPa) = 100.44944 100.44827 140.77567
#
# Poissons Ratio (x) = 0.20051 0.25391
# Poissons Ratio (y) = 0.20051 0.25391
# Poissons Ratio (z) = 0.18117 0.18117
#
# Static dielectric constant tensor:
#      x y z
#    x 4.665430 0.000000 0.000000 
#    y 0.000000 4.663960 0.000000 
#    z 0.000000 0.000000 2.131630 
# 
# From -- ./inp_files/477.got.cif
#   From: 2010.05.17/outbox.cif.g08.bks.cpg/sg126_1_cif.got.tgz:477.got - 2010.05.20 11:58:20.
