data_PCOD9563132
_publ_section_title
;
Structure prediction by ZEFSAII (Michael W. Deem and Ramdas Pophale) SiO2 
 PCOD9563132
Probable space group: P 4/N B M
;
_chemical_formula_sum "Si O2"
_cell_formula_units_Z 96
_cell_length_a 14.956404
_cell_length_b 14.956404
_cell_length_c 20.477395
_cell_angle_alpha 90.000000
_cell_angle_beta 90.000000
_cell_angle_gamma 90.000000
_cell_volume 4580.670819
_symmetry_space_group_name_H-M "P 4/N B M"
_symmetry_group_IT_number 125
_space_group.IT_coordinate_system_code '2'
_symmetry_cell_setting 'tetragonal'
loop_
_space_group_symop_operation_xyz
x,y,z
1/2-y,x,z
1/2-x,1/2-y,z
y,1/2-x,z
x,1/2-y,-z
1/2-x,y,-z
y,x,-z
1/2-y,1/2-x,-z
-x,-y,-z
1/2+y,-x,-z
1/2+x,1/2+y,-z
-y,1/2+x,-z
-x,1/2+y,z
1/2+x,-y,z
-y,-x,z
1/2+y,1/2+x,z
loop_
_atom_site_type_symbol
_atom_site_label
_atom_site_fract_x
_atom_site_fract_y
_atom_site_fract_z
Si Si1 0.979291 0.228636 0.567132
Si Si2 0.488988 0.363677 0.187724
Si Si3 0.912119 0.946151 0.412530
Si Si4 0.664645 0.629399 0.076136
Si Si5 0.397382 0.754550 0.713566
Si Si6 0.150296 0.141763 0.709374
O O1 0.925267 0.250000 0.500000
O O2 0.934497 0.235006 0.638930
O O3 0.025836 0.132433 0.560611
O O4 0.051630 0.309126 0.566864
O O5 0.552857 0.447144 0.200540
O O6 0.462263 0.362602 0.111864
O O7 0.535738 0.282235 0.229541
O O8 0.390363 0.370413 0.218755
O O9 0.906216 0.923169 0.336203
O O10 0.959696 0.040305 0.423771
O O11 0.770530 0.631970 0.093668
O O12 0.634700 0.634700 0.000000
O O13 0.321898 0.678103 0.709152
O O14 0.347153 0.847153 0.730984
O O15 0.255560 0.130350 0.696488
#
# Coordination Sequence:
#
# PCOD9563132 Si02
#       6
#    16  16  16  16  16  16
#     4  12  26  42  62  88 120 163 215 277 350 416
#     4  11  21  36  60  92 129 165 207 262 317 377
#     4  12  24  42  63  87 119 154 204 269 334 402
#     4   9  19  38  64  93 126 164 203 246 304 372
#     4  10  22  41  62  85 120 168 223 279 330 388
#     4  11  21  37  62  89 117 155 204 258 323 392
#
# _framework density 20.957629000000001
#
# number of rings (size 3 to 8) (size 9 to 14) (size 15 to 20)
#    0.000    1.167    3.333    3.500    0.000    5.333 
#    0.000    6.667    0.000    1.000    0.000    0.000 
#    0.000    0.000    0.000    0.000    0.000    0.000 
#
# Total GULP energy -534476.061106 kJ/mol
# GULP energy per Si atom -5567.458970 kJ/mol
# Density = 2.090993 g / cm^3
# Si number density = 20.957629 Si / 1000 Ang^3
#
#
#
# Elastic Constant Matrix: (Units=GPa)
#
#
# Indices 1 2 3 4 5 6 
#
# 1 81.7136 33.2202 38.4601 0.0000 0.0000 0.0000
# 2 33.2202 81.7136 38.4601 0.0000 0.0000 0.0000
# 3 38.4601 38.4601 99.6592 0.0000 0.0000 0.0000
# 4 0.0000 0.0000 0.0000 23.2216 0.0000 0.0000
# 5 0.0000 0.0000 0.0000 0.0000 23.2216 0.0000
# 6 0.0000 0.0000 0.0000 0.0000 0.0000 16.9127
#
#
#
# Elastic Compliance Matrix: (Units=1/GPa)
#
#
# Indices 1 2 3 4 5 6 
#
# 1 0.016176 -0.004446 -0.004527 0.000000 0.000000 0.000000
# 2 -0.004446 0.016176 -0.004527 0.000000 0.000000 0.000000
# 3 -0.004527 -0.004527 0.013528 0.000000 0.000000 0.000000
# 4 0.000000 0.000000 0.000000 0.043063 0.000000 0.000000
# 5 0.000000 0.000000 0.000000 0.000000 0.043063 0.000000
# 6 0.000000 0.000000 0.000000 0.000000 0.000000 0.059127
#
#
# Mechanical properties :
#
#
# Convention : Reuss Voigt Hill
#
# Bulk Modulus (GPa) = 52.96276 53.70746 53.33511
# Shear Modulus (GPa) = 22.27903 22.86758 22.57330
#
# Velocity S-wave (km/s) = 3.26398 3.30681 3.28547
# Velocity P-wave (km/s) = 6.28737 6.34526 6.31638
#
# Compressibility (1/GPa) = 0.01888119
#
# Stress axis : x y z
#
# Youngs Moduli (GPa) = 61.82059 61.82059 73.91955
#
# Poissons Ratio (x) = 0.27482 0.33463
# Poissons Ratio (y) = 0.27482 0.33463
# Poissons Ratio (z) = 0.27986 0.27986
#
# Static dielectric constant tensor:
#      x y z
#    x 1.778110 0.000000 0.000000 
#    y 0.000000 1.778110 0.000000 
#    z 0.000000 0.000000 1.882350 
# 
# From -- ./inp_files/5935.got.cif
#   From: 2010.05.17/outbox.cif.g08.bks.cpg/sg125_3_cif.got.tgz:5935.got - 2010.05.20 11:54:10.
