data_PCOD9563767
_publ_section_title
;
Structure prediction by ZEFSAII (Michael W. Deem and Ramdas Pophale) SiO2 
 PCOD9563767
Probable space group: P 4/M B M
;
_chemical_formula_sum "Si O2"
_cell_formula_units_Z 96
_cell_length_a 24.399532
_cell_length_b 24.399532
_cell_length_c 7.470017
_cell_angle_alpha 90.000000
_cell_angle_beta 90.000000
_cell_angle_gamma 90.000000
_cell_volume 4447.178720
_symmetry_space_group_name_H-M "P 4/M B M"
_symmetry_group_IT_number 127
_symmetry_cell_setting 'tetragonal'
loop_
_space_group_symop_operation_xyz
x,y,z
-y,x,z
-x,-y,z
y,-x,z
1/2+x,1/2-y,-z
1/2-x,1/2+y,-z
1/2+y,1/2+x,-z
1/2-y,1/2-x,-z
-x,-y,-z
y,-x,-z
x,y,-z
-y,x,-z
1/2-x,1/2+y,z
1/2+x,1/2-y,z
1/2-y,1/2-x,z
1/2+y,1/2+x,z
loop_
_atom_site_type_symbol
_atom_site_label
_atom_site_fract_x
_atom_site_fract_y
_atom_site_fract_z
Si Si1 0.567917 0.739280 0.719963
Si Si2 0.849828 0.855905 0.700348
Si Si3 0.136083 0.548163 0.716162
Si Si4 0.426792 0.840028 0.209891
Si Si5 0.573698 0.450147 0.215587
Si Si6 0.283891 0.447426 0.295043
O O1 0.567443 0.737495 0.500000
O O2 0.622339 0.707119 0.781250
O O3 0.566614 0.802909 0.773111
O O4 0.509252 0.713577 0.781785
O O5 0.838402 0.834221 0.500000
O O6 0.881383 0.913745 0.692579
O O7 0.895667 0.816395 0.786924
O O8 0.135925 0.549290 0.500000
O O9 0.088980 0.588980 0.780182
O O10 0.129721 0.485039 0.770491
O O11 0.377965 0.877965 0.279924
O O12 0.433114 0.780472 0.296200
O O13 0.417316 0.830188 0.000000
O O14 0.573332 0.513847 0.262303
O O15 0.579555 0.446222 0.000000
O O16 0.303973 0.451218 0.500000
#
# Coordination Sequence:
#
# PCOD9563767 Si02
#       6
#    16  16  16  16  16  16
#     4   8  15  29  47  70 101 130 160 202 247 290
#     4  10  18  29  48  72  96 126 167 211 250 288
#     4   9  18  34  56  79 104 134 163 195 242 301
#     4  10  21  36  54  76 102 131 162 201 248 294
#     4   9  18  30  41  58  89 126 163 207 257 303
#     4   9  18  32  50  73 101 133 168 206 248 296
#
# _framework density 21.58672
#
# number of rings (size 3 to 8) (size 9 to 14) (size 15 to 20)
#    0.000    2.833    0.000    3.000    0.000    4.667 
#    0.000    8.333    0.000    3.000    0.000    0.000 
#    0.000    0.000    0.000    0.000    0.000    0.000 
#
# Total GULP energy -535409.174603 kJ/mol
# GULP energy per Si atom -5577.178902 kJ/mol
# Density = 2.153759 g / cm^3
# Si number density = 21.586720 Si / 1000 Ang^3
#
#
#
# Elastic Constant Matrix: (Units=GPa)
#
#
# Indices 1 2 3 4 5 6 
#
# 1 68.7069 48.2098 -2.3875 0.0000 0.0000 0.0000
# 2 48.2098 68.7069 -2.3875 0.0000 0.0000 0.0000
# 3 -2.3875 -2.3875 65.6183 0.0000 0.0000 0.0000
# 4 0.0000 0.0000 0.0000 27.8726 0.0000 0.0000
# 5 0.0000 0.0000 0.0000 0.0000 27.8726 0.0000
# 6 0.0000 0.0000 0.0000 0.0000 0.0000 46.9904
#
#
#
# Elastic Compliance Matrix: (Units=1/GPa)
#
#
# Indices 1 2 3 4 5 6 
#
# 1 0.028677 -0.020111 0.000312 0.000000 0.000000 0.000000
# 2 -0.020111 0.028677 0.000312 0.000000 0.000000 0.000000
# 3 0.000312 0.000312 0.015262 0.000000 0.000000 0.000000
# 4 0.000000 0.000000 0.000000 0.035877 0.000000 0.000000
# 5 0.000000 0.000000 0.000000 0.000000 0.035877 0.000000
# 6 0.000000 0.000000 0.000000 0.000000 0.000000 0.021281
#
#
# Mechanical properties :
#
#
# Convention : Reuss Voigt Hill
#
# Bulk Modulus (GPa) = 29.72595 32.21131 30.96863
# Shear Modulus (GPa) = 23.16535 31.18696 27.17615
#
# Velocity S-wave (km/s) = 3.27942 3.80508 3.55199
# Velocity P-wave (km/s) = 5.30470 5.85313 5.58565
#
# Compressibility (1/GPa) = 0.03364064
#
# Stress axis : x y z
#
# Youngs Moduli (GPa) = 34.87171 34.87171 65.52076
#
# Poissons Ratio (x) = 0.70130 -0.02042
# Poissons Ratio (y) = 0.70130 -0.02042
# Poissons Ratio (z) = -0.01087 -0.01087
#
# Static dielectric constant tensor:
#      x y z
#    x 1.787710 0.000000 0.000000 
#    y 0.000000 1.787710 0.000000 
#    z 0.000000 0.000000 1.842240 
# 
# From -- ./inp_files/1962.got.cif
#   From: 2010.05.17/outbox.cif.g08.bks.cpg/sg127_1_cif.got.tgz:1962.got - 2010.05.20 12:03:00.
