data_PCOD9563393
_publ_section_title
;
Structure prediction by ZEFSAII (Michael W. Deem and Ramdas Pophale) SiO2 
 PCOD9563393
Probable space group: P 4/N N C
;
_chemical_formula_sum "Si O2"
_cell_formula_units_Z 120
_cell_length_a 21.681602
_cell_length_b 21.681602
_cell_length_c 14.738741
_cell_angle_alpha 90.000000
_cell_angle_beta 90.000000
_cell_angle_gamma 90.000000
_cell_volume 6928.562249
_symmetry_space_group_name_H-M "P 4/N N C"
_symmetry_group_IT_number 126
_space_group.IT_coordinate_system_code '2'
_symmetry_cell_setting 'tetragonal'
loop_
_space_group_symop_operation_xyz
x,y,z
1/2-y,x,z
1/2-x,1/2-y,z
y,1/2-x,z
x,1/2-y,1/2-z
1/2-x,y,1/2-z
y,x,1/2-z
1/2-y,1/2-x,1/2-z
-x,-y,-z
1/2+y,-x,-z
1/2+x,1/2+y,-z
-y,1/2+x,-z
-x,1/2+y,1/2+z
1/2+x,-y,1/2+z
-y,-x,1/2+z
1/2+y,1/2+x,1/2+z
loop_
_atom_site_type_symbol
_atom_site_label
_atom_site_fract_x
_atom_site_fract_y
_atom_site_fract_z
Si Si1 0.219278 0.579474 0.346502
Si Si2 0.255428 0.446486 0.424519
Si Si3 0.925657 0.821512 0.246766
Si Si4 0.965842 0.629246 0.444539
Si Si5 0.854343 0.965995 0.058019
Si Si6 0.171229 0.709640 0.526951
Si Si7 0.250000 0.144945 0.250000
Si Si8 0.894436 0.089768 0.955699
O O1 0.250000 0.583134 0.250000
O O2 0.240784 0.514185 0.386229
O O3 0.249460 0.635565 0.401141
O O4 0.145459 0.582752 0.362673
O O5 0.320374 0.452071 0.477224
O O6 0.201552 0.436672 0.499236
O O7 0.252847 0.397846 0.340991
O O8 0.908011 0.750000 0.250000
O O9 0.866104 0.866104 0.250000
O O10 0.959881 0.837077 0.152887
O O11 0.966126 0.835828 0.336213
O O12 0.913428 0.577666 0.450633
O O13 0.032502 0.596806 0.448850
O O14 0.872286 0.032647 0.017793
O O15 0.183767 0.761120 0.448853
O O16 0.128801 0.653455 0.499157
O O17 0.309872 0.190129 0.250000
#
# Coordination Sequence:
#
# PCOD9563393 Si02
#       8
#    16  16  16  16  16  16   8  16
#     4  10  20  36  57  83 114 147 196 239 286 354
#     4  11  20  38  63  83 115 159 197 244 302 363
#     4  10  21  38  60  87 119 153 199 250 299 361
#     4  11  21  38  60  87 120 155 198 246 305 358
#     4  10  22  38  60  87 119 157 197 247 300 368
#     4   9  18  34  54  78 109 145 184 230 287 338
#     4  11  24  40  58  88 124 157 206 258 300 363
#     4  10  21  36  59  83 117 155 192 242 297 355
#
# _framework density 17.319610000000001
#
# number of rings (size 3 to 8) (size 9 to 14) (size 15 to 20)
#    0.000    1.800    3.333    1.200    0.000    1.200 
#    0.000    5.333    0.000    0.000    0.000    0.000 
#    0.000    0.000    0.000    0.000    0.000    0.000 
#
# Total GULP energy -668341.035922 kJ/mol
# GULP energy per Si atom -5569.508633 kJ/mol
# Density = 1.728019 g / cm^3
# Si number density = 17.319610 Si / 1000 Ang^3
#
#
#
# Elastic Constant Matrix: (Units=GPa)
#
#
# Indices 1 2 3 4 5 6 
#
# 1 96.3472 14.7850 34.4232 0.0000 0.0000 0.0000
# 2 14.7850 96.3477 34.4232 0.0000 0.0000 0.0000
# 3 34.4232 34.4232 95.8691 0.0000 0.0000 0.0000
# 4 0.0000 0.0000 0.0000 23.6380 0.0000 0.0000
# 5 0.0000 0.0000 0.0000 0.0000 23.6380 0.0000
# 6 0.0000 0.0000 0.0000 0.0000 0.0000 24.0974
#
#
#
# Elastic Compliance Matrix: (Units=1/GPa)
#
#
# Indices 1 2 3 4 5 6 
#
# 1 0.011917 -0.000344 -0.004155 0.000000 0.000000 0.000000
# 2 -0.000344 0.011916 -0.004155 0.000000 0.000000 0.000000
# 3 -0.004155 -0.004155 0.013415 0.000000 0.000000 0.000000
# 4 0.000000 0.000000 0.000000 0.042305 0.000000 0.000000
# 5 0.000000 0.000000 0.000000 0.000000 0.042305 0.000000
# 6 0.000000 0.000000 0.000000 0.000000 0.000000 0.041498
#
#
# Mechanical properties :
#
#
# Convention : Reuss Voigt Hill
#
# Bulk Modulus (GPa) = 50.15356 50.64744 50.40050
# Shear Modulus (GPa) = 26.69354 27.93683 27.31519
#
# Velocity S-wave (km/s) = 3.93011 4.02060 3.97561
# Velocity P-wave (km/s) = 7.04379 7.13161 7.08784
#
# Compressibility (1/GPa) = 0.01993876
#
# Stress axis : x y z
#
# Youngs Moduli (GPa) = 83.91699 83.91756 74.54393
#
# Poissons Ratio (x) = 0.02887 0.30975
# Poissons Ratio (y) = 0.02887 0.30975
# Poissons Ratio (z) = 0.34870 0.34870
#
# Static dielectric constant tensor:
#      x y z
#    x 1.577960 0.000000 0.000000 
#    y 0.000000 1.577950 0.000000 
#    z 0.000000 0.000000 1.618350 
# 
# From -- ./inp_files/3941.got.cif
#   From: 2010.05.17/outbox.cif.g08.bks.cpg/sg126_2_cif.got.tgz:3941.got - 2010.05.20 11:58:20.
