data_PCOD9563345
_publ_section_title
;
Structure prediction by ZEFSAII (Michael W. Deem and Ramdas Pophale) SiO2 
 PCOD9563345
Probable space group: P 4/N N C
;
_chemical_formula_sum "Si O2"
_cell_formula_units_Z 48
_cell_length_a 10.394578
_cell_length_b 10.394578
_cell_length_c 18.151756
_cell_angle_alpha 90.000000
_cell_angle_beta 90.000000
_cell_angle_gamma 90.000000
_cell_volume 1961.247351
_symmetry_space_group_name_H-M "P 4/N N C"
_symmetry_group_IT_number 126
_space_group.IT_coordinate_system_code '2'
_symmetry_cell_setting 'tetragonal'
loop_
_space_group_symop_operation_xyz
x,y,z
1/2-y,x,z
1/2-x,1/2-y,z
y,1/2-x,z
x,1/2-y,1/2-z
1/2-x,y,1/2-z
y,x,1/2-z
1/2-y,1/2-x,1/2-z
-x,-y,-z
1/2+y,-x,-z
1/2+x,1/2+y,-z
-y,1/2+x,-z
-x,1/2+y,1/2+z
1/2+x,-y,1/2+z
-y,-x,1/2+z
1/2+y,1/2+x,1/2+z
loop_
_atom_site_type_symbol
_atom_site_label
_atom_site_fract_x
_atom_site_fract_y
_atom_site_fract_z
Si Si1 0.455706 0.698918 0.017222
Si Si2 0.929000 0.649813 0.631233
Si Si3 0.596915 0.213890 0.831711
O O1 0.481297 0.715543 0.103433
O O2 0.336207 0.601854 0.007989
O O3 0.560508 0.656593 0.958051
O O4 0.918919 0.798959 0.655545
O O5 0.060779 0.589912 0.658256
O O6 0.750000 0.250000 0.842035
O O7 0.558672 0.250000 0.750000
#
# Coordination Sequence:
#
# PCOD9563345 Si02
#       3
#    16  16  16
#     4   9  15  32  57  84 111 155 204 247 289 354
#     4  10  21  37  63  95 125 155 197 258 317 355
#     4  10  19  36  59  82 121 162 208 243 294 369
#
# _framework density 24.474222000000001
#
# number of rings (size 3 to 8) (size 9 to 14) (size 15 to 20)
#    0.000    2.333    6.667    0.000    0.000    5.333 
#    0.000    6.667    0.000    8.000    0.000    2.333 
#    0.000    2.667    0.000    0.000    0.000    0.000 
#
# Total GULP energy -268742.218573 kJ/mol
# GULP energy per Si atom -5598.796220 kJ/mol
# Density = 2.441852 g / cm^3
# Si number density = 24.474222 Si / 1000 Ang^3
#
#
#
# Elastic Constant Matrix: (Units=GPa)
#
#
# Indices 1 2 3 4 5 6 
#
# 1 56.5919 44.9877 20.9783 0.0000 0.0000 0.0000
# 2 44.9877 56.5919 20.9783 0.0000 0.0000 0.0000
# 3 20.9783 20.9783 193.7884 0.0000 0.0000 0.0000
# 4 0.0000 0.0000 0.0000 13.8791 0.0000 0.0000
# 5 0.0000 0.0000 0.0000 0.0000 13.8791 0.0000
# 6 0.0000 0.0000 0.0000 0.0000 0.0000 21.3250
#
#
#
# Elastic Compliance Matrix: (Units=1/GPa)
#
#
# Indices 1 2 3 4 5 6 
#
# 1 0.048241 -0.037935 -0.001116 0.000000 0.000000 0.000000
# 2 -0.037935 0.048241 -0.001116 0.000000 0.000000 0.000000
# 3 -0.001116 -0.001116 0.005402 0.000000 0.000000 0.000000
# 4 0.000000 0.000000 0.000000 0.072051 0.000000 0.000000
# 5 0.000000 0.000000 0.000000 0.000000 0.072051 0.000000
# 6 0.000000 0.000000 0.000000 0.000000 0.000000 0.046893
#
#
# Mechanical properties :
#
#
# Convention : Reuss Voigt Hill
#
# Bulk Modulus (GPa) = 46.40365 53.42897 49.91631
# Shear Modulus (GPa) = 13.14427 24.48517 18.81472
#
# Velocity S-wave (km/s) = 2.31998 3.16642 2.77565
# Velocity P-wave (km/s) = 5.11642 5.93686 5.54185
#
# Compressibility (1/GPa) = 0.02155003
#
# Stress axis : x y z
#
# Youngs Moduli (GPa) = 20.72944 20.72944 185.12345
#
# Poissons Ratio (x) = 0.78638 0.20652
# Poissons Ratio (y) = 0.78638 0.20652
# Poissons Ratio (z) = 0.02313 0.02313
#
# Static dielectric constant tensor:
#      x y z
#    x 1.926180 0.000000 0.000000 
#    y 0.000000 1.926180 0.000000 
#    z 0.000000 0.000000 1.986040 
# 
# From -- ./inp_files/4136.got.cif
#   From: 2010.05.17/outbox.cif.g08.bks.cpg/sg126_3_cif.got.tgz:4136.got - 2010.05.20 11:58:20.
