data_PCOD9563677
_publ_section_title
;
Structure prediction by ZEFSAII (Michael W. Deem and Ramdas Pophale) SiO2 
 PCOD9563677
Probable space group: P 4/N N C
;
_chemical_formula_sum "Si O2"
_cell_formula_units_Z 72
_cell_length_a 10.621154
_cell_length_b 10.621154
_cell_length_c 29.287009
_cell_angle_alpha 90.000000
_cell_angle_beta 90.000000
_cell_angle_gamma 90.000000
_cell_volume 3303.835630
_symmetry_space_group_name_H-M "P 4/N N C"
_symmetry_group_IT_number 126
_space_group.IT_coordinate_system_code '2'
_symmetry_cell_setting 'tetragonal'
loop_
_space_group_symop_operation_xyz
x,y,z
1/2-y,x,z
1/2-x,1/2-y,z
y,1/2-x,z
x,1/2-y,1/2-z
1/2-x,y,1/2-z
y,x,1/2-z
1/2-y,1/2-x,1/2-z
-x,-y,-z
1/2+y,-x,-z
1/2+x,1/2+y,-z
-y,1/2+x,-z
-x,1/2+y,1/2+z
1/2+x,-y,1/2+z
-y,-x,1/2+z
1/2+y,1/2+x,1/2+z
loop_
_atom_site_type_symbol
_atom_site_label
_atom_site_fract_x
_atom_site_fract_y
_atom_site_fract_z
Si Si1 0.537090 0.717682 0.028816
Si Si2 0.602096 0.279843 0.877594
Si Si3 0.033536 0.526115 0.154760
Si Si4 0.600072 0.600072 0.750000
Si Si5 0.688486 0.548242 0.569600
O O1 0.648866 0.612468 0.032998
O O2 0.437246 0.719373 0.069228
O O3 0.478797 0.683670 0.979141
O O4 0.750000 0.250000 0.871049
O O5 0.519805 0.176008 0.850107
O O6 0.554723 0.414894 0.861121
O O7 0.060107 0.474677 0.204869
O O8 0.146045 0.508510 0.117422
O O9 0.750000 0.580039 0.750000
O O10 0.829190 0.600259 0.568283
#
# Coordination Sequence:
#
# PCOD9563677 Si02
#       5
#    16  16  16   8  16
#     4   9  18  39  66  93 134 189 229 278 344 411
#     4  12  25  43  68 102 140 190 229 293 357 418
#     4  12  26  45  67 102 144 179 241 295 353 430
#     4  11  24  46  78 105 134 182 234 303 372 419
#     4   9  18  37  65  93 132 179 229 290 347 399
#
# _framework density 21.792850000000001
#
# number of rings (size 3 to 8) (size 9 to 14) (size 15 to 20)
#    0.000    1.444    2.222    5.333    0.000    4.000 
#    4.000    2.222    0.000    1.333    0.000    0.000 
#    0.000    0.000    0.000    0.000    0.000    0.000 
#
# Total GULP energy -401848.017331 kJ/mol
# GULP energy per Si atom -5581.222463 kJ/mol
# Density = 2.174325 g / cm^3
# Si number density = 21.792850 Si / 1000 Ang^3
#
#
#
# Elastic Constant Matrix: (Units=GPa)
#
#
# Indices 1 2 3 4 5 6 
#
# 1 82.9912 64.0178 57.5231 0.0000 0.0000 0.0000
# 2 64.0178 82.9912 57.5231 0.0000 0.0000 0.0000
# 3 57.5231 57.5231 180.4214 0.0000 0.0000 0.0000
# 4 0.0000 0.0000 0.0000 30.1571 0.0000 0.0000
# 5 0.0000 0.0000 0.0000 0.0000 30.1571 0.0000
# 6 0.0000 0.0000 0.0000 0.0000 0.0000 25.0227
#
#
#
# Elastic Compliance Matrix: (Units=1/GPa)
#
#
# Indices 1 2 3 4 5 6 
#
# 1 0.030885 -0.021821 -0.002890 0.000000 0.000000 0.000000
# 2 -0.021821 0.030885 -0.002890 0.000000 0.000000 0.000000
# 3 -0.002890 -0.002890 0.007385 0.000000 0.000000 0.000000
# 4 0.000000 0.000000 0.000000 0.033160 0.000000 0.000000
# 5 0.000000 0.000000 0.000000 0.000000 0.033160 0.000000
# 6 0.000000 0.000000 0.000000 0.000000 0.000000 0.039964
#
#
# Mechanical properties :
#
#
# Convention : Reuss Voigt Hill
#
# Bulk Modulus (GPa) = 71.66546 78.28131 74.97338
# Shear Modulus (GPa) = 21.25043 28.22334 24.73688
#
# Velocity S-wave (km/s) = 3.12606 3.60262 3.37277
# Velocity P-wave (km/s) = 6.78129 7.30094 7.04591
#
# Compressibility (1/GPa) = 0.01395372
#
# Stress axis : x y z
#
# Youngs Moduli (GPa) = 32.37868 32.37868 135.40495
#
# Poissons Ratio (x) = 0.70653 0.39129
# Poissons Ratio (y) = 0.70653 0.39129
# Poissons Ratio (z) = 0.09357 0.09357
#
# Static dielectric constant tensor:
#      x y z
#    x 1.862950 0.000000 0.000000 
#    y 0.000000 1.862950 0.000000 
#    z 0.000000 0.000000 1.803420 
# 
# From -- ./inp_files/6130.got.cif
#   From: 2010.05.17/outbox.cif.g08.bks.cpg/sg126_4_cif.got.tgz:6130.got - 2010.05.20 11:58:20.
