data_PCOD9563497
_publ_section_title
;
Structure prediction by ZEFSAII (Michael W. Deem and Ramdas Pophale) SiO2 
 PCOD9563497
Probable space group: P 4/N N C
;
_chemical_formula_sum "Si O2"
_cell_formula_units_Z 80
_cell_length_a 10.617345
_cell_length_b 10.617345
_cell_length_c 29.360878
_cell_angle_alpha 90.000000
_cell_angle_beta 90.000000
_cell_angle_gamma 90.000000
_cell_volume 3309.793491
_symmetry_space_group_name_H-M "P 4/N N C"
_symmetry_group_IT_number 126
_space_group.IT_coordinate_system_code '2'
_symmetry_cell_setting 'tetragonal'
loop_
_space_group_symop_operation_xyz
x,y,z
1/2-y,x,z
1/2-x,1/2-y,z
y,1/2-x,z
x,1/2-y,1/2-z
1/2-x,y,1/2-z
y,x,1/2-z
1/2-y,1/2-x,1/2-z
-x,-y,-z
1/2+y,-x,-z
1/2+x,1/2+y,-z
-y,1/2+x,-z
-x,1/2+y,1/2+z
1/2+x,-y,1/2+z
-y,-x,1/2+z
1/2+y,1/2+x,1/2+z
loop_
_atom_site_type_symbol
_atom_site_label
_atom_site_fract_x
_atom_site_fract_y
_atom_site_fract_z
Si Si1 0.035764 0.250000 0.750000
Si Si2 0.099020 0.099020 0.250000
Si Si3 0.502013 0.033218 0.577669
Si Si4 0.925339 0.630521 0.653662
Si Si5 0.832230 0.054385 0.001088
Si Si6 0.460653 0.286572 0.847955
O O1 0.131564 0.131564 0.750000
O O2 0.968854 0.226764 0.798920
O O3 0.250000 0.081812 0.250000
O O4 0.070347 0.034512 0.297719
O O5 0.620371 0.996661 0.546051
O O6 0.531993 0.158883 0.607654
O O7 0.490588 0.921463 0.613794
O O8 0.382999 0.029144 0.543225
O O9 0.917192 0.780668 0.651260
O O10 0.686909 0.090431 0.999206
O O11 0.344863 0.386691 0.850111
#
# Coordination Sequence:
#
# PCOD9563497 Si02
#       6
#     8   8  16  16  16  16
#     4   7  12  26  46  66  96 131 156 189 246 306
#     4   7  12  26  46  66  94 129 156 190 248 311
#     4  11  20  32  54  81  99 129 186 227 255 317
#     4   9  17  31  51  75 105 136 168 213 268 312
#     4  10  22  38  52  70 105 143 174 218 278 323
#     4   9  17  31  50  73 104 133 167 210 262 314
#
# _framework density 24.170691999999999
#
# number of rings (size 3 to 8) (size 9 to 14) (size 15 to 20)
#    0.000    2.800    0.000    4.800    0.000    0.000 
#    5.400    0.000    0.000    9.600    0.000    0.000 
#    0.000    0.000    0.000    0.000    0.000    0.000 
#
# Total GULP energy -445432.908593 kJ/mol
# GULP energy per Si atom -5567.911357 kJ/mol
# Density = 2.411568 g / cm^3
# Si number density = 24.170692 Si / 1000 Ang^3
#
#
#
# Elastic Constant Matrix: (Units=GPa)
#
#
# Indices 1 2 3 4 5 6 
#
# 1 49.1648 7.9153 16.9019 0.0000 0.0000 0.0000
# 2 7.9153 49.1648 16.9019 0.0000 0.0000 0.0000
# 3 16.9019 16.9019 187.5552 0.0000 0.0000 0.0000
# 4 0.0000 0.0000 0.0000 20.3450 0.0000 0.0000
# 5 0.0000 0.0000 0.0000 0.0000 20.3450 0.0000
# 6 0.0000 0.0000 0.0000 0.0000 0.0000 28.9899
#
#
#
# Elastic Compliance Matrix: (Units=1/GPa)
#
#
# Indices 1 2 3 4 5 6 
#
# 1 0.021375 -0.002868 -0.001668 0.000000 0.000000 0.000000
# 2 -0.002868 0.021375 -0.001668 0.000000 0.000000 0.000000
# 3 -0.001668 -0.001668 0.005632 0.000000 0.000000 0.000000
# 4 0.000000 0.000000 0.000000 0.049152 0.000000 0.000000
# 5 0.000000 0.000000 0.000000 0.000000 0.049152 0.000000
# 6 0.000000 0.000000 0.000000 0.000000 0.000000 0.034495
#
#
# Mechanical properties :
#
#
# Convention : Reuss Voigt Hill
#
# Bulk Modulus (GPa) = 27.79703 41.03588 34.41646
# Shear Modulus (GPa) = 24.32148 30.21371 27.26759
#
# Velocity S-wave (km/s) = 3.17557 3.53939 3.36240
# Velocity P-wave (km/s) = 4.99709 5.80667 5.41703
#
# Compressibility (1/GPa) = 0.03597506
#
# Stress axis : x y z
#
# Youngs Moduli (GPa) = 46.78406 46.78406 177.54566
#
# Poissons Ratio (x) = 0.13417 0.29611
# Poissons Ratio (y) = 0.13417 0.29611
# Poissons Ratio (z) = 0.07803 0.07803
#
# Static dielectric constant tensor:
#      x y z
#    x 1.937660 0.000000 0.000000 
#    y 0.000000 1.937660 0.000000 
#    z 0.000000 0.000000 2.130200 
# 
# From -- ./inp_files/6452.got.cif
#   From: 2010.05.17/outbox.cif.g08.bks.cpg/sg126_4_cif.got.tgz:6452.got - 2010.05.20 11:58:20.
