data_PCOD9563581
_publ_section_title
;
Structure prediction by ZEFSAII (Michael W. Deem and Ramdas Pophale) SiO2 
 PCOD9563581
Probable space group: P 4/N N C
;
_chemical_formula_sum "Si O2"
_cell_formula_units_Z 128
_cell_length_a 16.463056
_cell_length_b 16.463056
_cell_length_c 24.004334
_cell_angle_alpha 90.000000
_cell_angle_beta 90.000000
_cell_angle_gamma 90.000000
_cell_volume 6505.947762
_symmetry_space_group_name_H-M "P 4/N N C"
_symmetry_group_IT_number 126
_space_group.IT_coordinate_system_code '2'
_symmetry_cell_setting 'tetragonal'
loop_
_space_group_symop_operation_xyz
x,y,z
1/2-y,x,z
1/2-x,1/2-y,z
y,1/2-x,z
x,1/2-y,1/2-z
1/2-x,y,1/2-z
y,x,1/2-z
1/2-y,1/2-x,1/2-z
-x,-y,-z
1/2+y,-x,-z
1/2+x,1/2+y,-z
-y,1/2+x,-z
-x,1/2+y,1/2+z
1/2+x,-y,1/2+z
-y,-x,1/2+z
1/2+y,1/2+x,1/2+z
loop_
_atom_site_type_symbol
_atom_site_label
_atom_site_fract_x
_atom_site_fract_y
_atom_site_fract_z
Si Si1 0.340271 0.715286 0.806255
Si Si2 0.919741 0.266146 0.961315
Si Si3 0.195607 0.522684 0.695398
Si Si4 0.020571 0.421335 0.424132
Si Si5 0.008030 0.491115 0.685999
Si Si6 0.494497 0.338822 0.887976
Si Si7 0.557960 0.892714 0.034016
Si Si8 0.110053 0.710976 0.577449
O O1 0.250000 0.750000 0.809679
O O2 0.378571 0.750000 0.750000
O O3 0.328463 0.618272 0.803707
O O4 0.385445 0.745739 0.861162
O O5 0.855473 0.317429 0.925731
O O6 0.937039 0.177896 0.935139
O O7 0.007391 0.310088 0.962278
O O8 0.884412 0.265610 0.023361
O O9 0.250000 0.505403 0.750000
O O10 0.106794 0.483744 0.688234
O O11 0.254235 0.494781 0.645506
O O12 0.025817 0.443865 0.358798
O O13 0.959686 0.491300 0.446697
O O14 0.973357 0.337396 0.428970
O O15 0.092298 0.420599 0.469213
O O16 0.988080 0.511921 0.750000
O O17 0.981409 0.405693 0.658370
O O18 0.415571 0.369551 0.922861
#
# Coordination Sequence:
#
# PCOD9563581 Si02
#       8
#    16  16  16  16  16  16  16  16
#     4  11  23  38  54  79 120 167 191 230 304 386
#     4  11  23  36  59  88 119 151 194 254 309 376
#     4  12  21  39  56  82 119 157 205 255 295 362
#     4   9  17  36  55  74 109 142 195 249 284 345
#     4  11  22  34  57  85 111 161 208 252 299 355
#     4  11  20  36  62  79 112 158 204 251 303 350
#     4   9  19  36  56  83 105 147 198 248 305 351
#     4  11  22  37  54  83 117 148 190 242 302 364
#
# _framework density 19.674306000000001
#
# number of rings (size 3 to 8) (size 9 to 14) (size 15 to 20)
#    0.000    1.375    6.250    1.500    3.500    0.000 
#    2.250    0.000    0.000    6.000    0.000    0.000 
#    0.000    0.000    0.000    0.000    0.000    0.000 
#
# Total GULP energy -713332.157696 kJ/mol
# GULP energy per Si atom -5572.907482 kJ/mol
# Density = 1.962953 g / cm^3
# Si number density = 19.674306 Si / 1000 Ang^3
#
#
#
# Elastic Constant Matrix: (Units=GPa)
#
#
# Indices 1 2 3 4 5 6 
#
# 1 30.8318 18.5738 24.8447 0.0000 0.0000 0.0000
# 2 18.5738 30.8315 24.8446 0.0000 0.0000 0.0000
# 3 24.8447 24.8446 195.9816 0.0000 0.0000 0.0000
# 4 0.0000 0.0000 0.0000 26.8248 0.0000 0.0000
# 5 0.0000 0.0000 0.0000 0.0000 26.8249 0.0000
# 6 0.0000 0.0000 0.0000 0.0000 0.0000 12.3834
#
#
#
# Elastic Compliance Matrix: (Units=1/GPa)
#
#
# Indices 1 2 3 4 5 6 
#
# 1 0.052389 -0.029191 -0.002941 0.000000 0.000000 0.000000
# 2 -0.029191 0.052390 -0.002941 0.000000 0.000000 0.000000
# 3 -0.002941 -0.002941 0.005848 0.000000 0.000000 0.000000
# 4 0.000000 0.000000 0.000000 0.037279 0.000000 0.000000
# 5 0.000000 0.000000 0.000000 0.000000 0.037279 0.000000
# 6 0.000000 0.000000 0.000000 0.000000 0.000000 0.080753
#
#
# Mechanical properties :
#
#
# Convention : Reuss Voigt Hill
#
# Bulk Modulus (GPa) = 24.70262 43.79678 34.24970
# Shear Modulus (GPa) = 14.30296 25.83208 20.06752
#
# Velocity S-wave (km/s) = 2.69919 3.62745 3.19719
# Velocity P-wave (km/s) = 4.72200 6.31298 5.57454
#
# Compressibility (1/GPa) = 0.04048153
#
# Stress axis : x y z
#
# Youngs Moduli (GPa) = 19.08784 19.08766 170.99422
#
# Poissons Ratio (x) = 0.55719 0.50287
# Poissons Ratio (y) = 0.55720 0.50287
# Poissons Ratio (z) = 0.05613 0.05613
#
# Static dielectric constant tensor:
#      x y z
#    x 1.718570 0.000000 0.000000 
#    y 0.000000 1.718570 0.000000 
#    z 0.000000 0.000000 1.853240 
# 
# From -- ./inp_files/5968.got.cif
#   From: 2010.05.17/outbox.cif.g08.bks.cpg/sg126_3_cif.got.tgz:5968.got - 2010.05.20 11:58:20.
