data_PCOD9563324
_publ_section_title
;
Structure prediction by ZEFSAII (Michael W. Deem and Ramdas Pophale) SiO2 
 PCOD9563324
Probable space group: P 4/N N C
;
_chemical_formula_sum "Si O2"
_cell_formula_units_Z 112
_cell_length_a 15.234725
_cell_length_b 15.234725
_cell_length_c 24.103061
_cell_angle_alpha 90.000000
_cell_angle_beta 90.000000
_cell_angle_gamma 90.000000
_cell_volume 5594.244433
_symmetry_space_group_name_H-M "P 4/N N C"
_symmetry_group_IT_number 126
_space_group.IT_coordinate_system_code '2'
_symmetry_cell_setting 'tetragonal'
loop_
_space_group_symop_operation_xyz
x,y,z
1/2-y,x,z
1/2-x,1/2-y,z
y,1/2-x,z
x,1/2-y,1/2-z
1/2-x,y,1/2-z
y,x,1/2-z
1/2-y,1/2-x,1/2-z
-x,-y,-z
1/2+y,-x,-z
1/2+x,1/2+y,-z
-y,1/2+x,-z
-x,1/2+y,1/2+z
1/2+x,-y,1/2+z
-y,-x,1/2+z
1/2+y,1/2+x,1/2+z
loop_
_atom_site_type_symbol
_atom_site_label
_atom_site_fract_x
_atom_site_fract_y
_atom_site_fract_z
Si Si1 0.604476 0.735168 0.474656
Si Si2 0.631319 0.378700 0.425462
Si Si3 0.148613 0.357107 0.312483
Si Si4 0.208542 0.556911 0.039594
Si Si5 0.449259 0.094817 0.810973
Si Si6 0.980282 0.726618 0.357318
Si Si7 0.045899 0.026490 0.397179
O O1 0.673661 0.657429 0.480840
O O2 0.527524 0.736184 0.519077
O O3 0.561656 0.734808 0.413884
O O4 0.610157 0.275399 0.421297
O O5 0.681924 0.392205 0.483524
O O6 0.686374 0.426069 0.376505
O O7 0.540370 0.434857 0.427286
O O8 0.130870 0.253142 0.316794
O O9 0.118233 0.381768 0.250000
O O10 0.102792 0.408456 0.361636
O O11 0.119002 0.521540 0.066157
O O12 0.445496 0.054505 0.750000
O O13 0.479352 0.195314 0.813393
O O14 0.351676 0.080994 0.835629
O O15 0.511770 0.042410 0.852030
#
# Coordination Sequence:
#
# PCOD9563324 Si02
#       7
#    16  16  16  16  16  16  16
#     4  10  19  33  57  87 123 158 196 251 321 378
#     4  10  24  39  60  85 120 162 206 257 310 373
#     4   9  18  34  59  89 120 152 193 251 315 373
#     4  11  23  38  58  84 120 162 210 252 306 381
#     4  11  23  39  62  90 120 160 205 261 316 378
#     4  10  21  39  60  86 123 156 202 254 319 378
#     4  11  22  38  60  87 121 160 205 256 313 373
#
# _framework density 20.020578
#
# number of rings (size 3 to 8) (size 9 to 14) (size 15 to 20)
#    0.000    1.714    1.429    3.429    4.000    0.571 
#    0.000    2.143    0.000    0.000    0.000    4.000 
#    0.000    0.000    0.000    0.000    0.000    0.000 
#
# Total GULP energy -625691.496185 kJ/mol
# GULP energy per Si atom -5586.531216 kJ/mol
# Density = 1.997501 g / cm^3
# Si number density = 20.020578 Si / 1000 Ang^3
#
#
#
# Elastic Constant Matrix: (Units=GPa)
#
#
# Indices 1 2 3 4 5 6 
#
# 1 50.1966 13.9731 6.7148 0.0000 0.0000 0.0000
# 2 13.9731 50.1956 6.7132 0.0000 0.0000 0.0000
# 3 6.7148 6.7132 36.2600 0.0000 0.0000 0.0000
# 4 0.0000 0.0000 0.0000 11.7492 0.0000 0.0000
# 5 0.0000 0.0000 0.0000 0.0000 11.7477 0.0000
# 6 0.0000 0.0000 0.0000 0.0000 0.0000 14.0688
#
#
#
# Elastic Compliance Matrix: (Units=1/GPa)
#
#
# Indices 1 2 3 4 5 6 
#
# 1 0.021909 -0.005697 -0.003002 0.000000 0.000000 0.000000
# 2 -0.005697 0.021909 -0.003001 0.000000 0.000000 0.000000
# 3 -0.003002 -0.003001 0.028690 0.000000 0.000000 0.000000
# 4 0.000000 0.000000 0.000000 0.085113 0.000000 0.000000
# 5 0.000000 0.000000 0.000000 0.000000 0.085123 0.000000
# 6 0.000000 0.000000 0.000000 0.000000 0.000000 0.071079
#
#
# Mechanical properties :
#
#
# Convention : Reuss Voigt Hill
#
# Bulk Modulus (GPa) = 20.36377 21.27270 20.81823
# Shear Modulus (GPa) = 14.14046 14.79652 14.46849
#
# Velocity S-wave (km/s) = 2.66051 2.72153 2.69119
# Velocity P-wave (km/s) = 4.43071 4.53035 4.48081
#
# Compressibility (1/GPa) = 0.04910682
#
# Stress axis : x y z
#
# Youngs Moduli (GPa) = 45.64276 45.64239 34.85500
#
# Poissons Ratio (x) = 0.26004 0.10465
# Poissons Ratio (y) = 0.26005 0.10461
# Poissons Ratio (z) = 0.13704 0.13698
#
# Static dielectric constant tensor:
#      x y z
#    x 1.715300 0.000000 0.000000 
#    y 0.000000 1.715300 0.000000 
#    z 0.000000 0.000000 1.696880 
# 
# From -- ./inp_files/5839.got.cif
#   From: 2010.05.17/outbox.cif.g08.bks.cpg/sg126_3_cif.got.tgz:5839.got - 2010.05.20 11:58:20.
