data_PCOD9563567
_publ_section_title
;
Structure prediction by ZEFSAII (Michael W. Deem and Ramdas Pophale) SiO2 
 PCOD9563567
Probable space group: P 4/N N C
;
_chemical_formula_sum "Si O2"
_cell_formula_units_Z 80
_cell_length_a 11.946325
_cell_length_b 11.946325
_cell_length_c 32.722679
_cell_angle_alpha 90.000000
_cell_angle_beta 90.000000
_cell_angle_gamma 90.000000
_cell_volume 4670.006695
_symmetry_space_group_name_H-M "P 4/N N C"
_symmetry_group_IT_number 126
_space_group.IT_coordinate_system_code '2'
_symmetry_cell_setting 'tetragonal'
loop_
_space_group_symop_operation_xyz
x,y,z
1/2-y,x,z
1/2-x,1/2-y,z
y,1/2-x,z
x,1/2-y,1/2-z
1/2-x,y,1/2-z
y,x,1/2-z
1/2-y,1/2-x,1/2-z
-x,-y,-z
1/2+y,-x,-z
1/2+x,1/2+y,-z
-y,1/2+x,-z
-x,1/2+y,1/2+z
1/2+x,-y,1/2+z
-y,-x,1/2+z
1/2+y,1/2+x,1/2+z
loop_
_atom_site_type_symbol
_atom_site_label
_atom_site_fract_x
_atom_site_fract_y
_atom_site_fract_z
Si Si1 0.565502 0.710206 0.994608
Si Si2 0.363940 0.967077 0.626300
Si Si3 0.896888 0.870962 0.295275
Si Si4 0.738688 0.382316 0.572166
Si Si5 0.861869 0.486642 0.082969
O O1 0.666993 0.621457 0.989556
O O2 0.463653 0.693652 0.963074
O O3 0.516473 0.695145 0.039998
O O4 0.388601 0.841119 0.611770
O O5 0.232020 0.983340 0.618205
O O6 0.404712 0.015015 0.669739
O O7 0.421833 0.047495 0.593492
O O8 0.764789 0.899226 0.298916
O O9 0.919354 0.919354 0.250000
O O10 0.750000 0.250000 0.560327
O O11 0.865225 0.417143 0.581161
#
# Coordination Sequence:
#
# PCOD9563567 Si02
#       5
#    16  16  16  16  16
#     4  11  23  38  55  74 101 141 199 249 280 307
#     4  11  20  35  55  77 109 139 176 223 274 333
#     4   9  17  30  54  87 111 128 165 218 276 331
#     4  10  25  36  49  74 107 149 183 219 270 335
#     4  11  22  34  53  78 104 143 186 227 278 327
#
# _framework density 17.130597000000002
#
# number of rings (size 3 to 8) (size 9 to 14) (size 15 to 20)
#    0.000    1.600    4.000    1.800    5.600    2.000 
#    0.000    0.000    0.000    1.200    0.000    0.000 
#    0.000    0.000    0.000    2.000    1.600    0.000 
#
# Total GULP energy -445704.760507 kJ/mol
# GULP energy per Si atom -5571.309506 kJ/mol
# Density = 1.709161 g / cm^3
# Si number density = 17.130597 Si / 1000 Ang^3
#
#
#
# Elastic Constant Matrix: (Units=GPa)
#
#
# Indices 1 2 3 4 5 6 
#
# 1 63.2894 14.9295 44.9071 0.0000 0.0000 0.0000
# 2 14.9295 63.2894 44.9071 0.0000 0.0000 0.0000
# 3 44.9071 44.9071 123.6090 0.0000 0.0000 0.0000
# 4 0.0000 0.0000 0.0000 22.1516 0.0000 0.0000
# 5 0.0000 0.0000 0.0000 0.0000 22.1516 0.0000
# 6 0.0000 0.0000 0.0000 0.0000 0.0000 7.5810
#
#
#
# Elastic Compliance Matrix: (Units=1/GPa)
#
#
# Indices 1 2 3 4 5 6 
#
# 1 0.021307 0.000628 -0.007969 0.000000 0.000000 0.000000
# 2 0.000628 0.021307 -0.007969 0.000000 0.000000 0.000000
# 3 -0.007969 -0.007969 0.013880 0.000000 0.000000 0.000000
# 4 0.000000 0.000000 0.000000 0.045143 0.000000 0.000000
# 5 0.000000 0.000000 0.000000 0.000000 0.045143 0.000000
# 6 0.000000 0.000000 0.000000 0.000000 0.000000 0.131909
#
#
# Mechanical properties :
#
#
# Convention : Reuss Voigt Hill
#
# Bulk Modulus (GPa) = 38.64835 51.07501 44.86168
# Shear Modulus (GPa) = 15.72656 20.07311 17.89984
#
# Velocity S-wave (km/s) = 3.03320 3.42683 3.23601
# Velocity P-wave (km/s) = 5.90568 6.74813 6.34091
#
# Compressibility (1/GPa) = 0.02587433
#
# Stress axis : x y z
#
# Youngs Moduli (GPa) = 46.93378 46.93378 72.04480
#
# Poissons Ratio (x) = -0.02949 0.57412
# Poissons Ratio (y) = -0.02949 0.57412
# Poissons Ratio (z) = 0.37401 0.37401
#
# Static dielectric constant tensor:
#      x y z
#    x 1.593220 0.000000 0.000000 
#    y 0.000000 1.593220 0.000000 
#    z 0.000000 0.000000 1.606560 
# 
# From -- ./inp_files/6426.got.cif
#   From: 2010.05.17/outbox.cif.g08.bks.cpg/sg126_4_cif.got.tgz:6426.got - 2010.05.20 11:58:20.
