data_PCOD9563517
_publ_section_title
;
Structure prediction by ZEFSAII (Michael W. Deem and Ramdas Pophale) SiO2 
 PCOD9563517
Probable space group: P 4/N N C
;
_chemical_formula_sum "Si O2"
_cell_formula_units_Z 72
_cell_length_a 19.917532
_cell_length_b 19.917532
_cell_length_c 8.886343
_cell_angle_alpha 90.000000
_cell_angle_beta 90.000000
_cell_angle_gamma 90.000000
_cell_volume 3525.284078
_symmetry_space_group_name_H-M "P 4/N N C"
_symmetry_group_IT_number 126
_space_group.IT_coordinate_system_code '2'
_symmetry_cell_setting 'tetragonal'
loop_
_space_group_symop_operation_xyz
x,y,z
1/2-y,x,z
1/2-x,1/2-y,z
y,1/2-x,z
x,1/2-y,1/2-z
1/2-x,y,1/2-z
y,x,1/2-z
1/2-y,1/2-x,1/2-z
-x,-y,-z
1/2+y,-x,-z
1/2+x,1/2+y,-z
-y,1/2+x,-z
-x,1/2+y,1/2+z
1/2+x,-y,1/2+z
-y,-x,1/2+z
1/2+y,1/2+x,1/2+z
loop_
_atom_site_type_symbol
_atom_site_label
_atom_site_fract_x
_atom_site_fract_y
_atom_site_fract_z
Si Si1 0.654531 0.889348 0.400921
Si Si2 0.886268 0.000371 0.745156
Si Si3 0.250000 0.546046 0.750000
Si Si4 0.711894 0.948156 0.976679
Si Si5 0.622218 0.041329 0.410111
O O1 0.656426 0.843575 0.250000
O O2 0.721060 0.903540 0.498967
O O3 0.600407 0.850484 0.495708
O O4 0.628439 0.963525 0.356077
O O5 0.923629 0.054615 0.641051
O O6 0.813921 0.983617 0.673791
O O7 0.875999 0.032287 0.910290
O O8 0.936519 0.936519 0.750000
O O9 0.279445 0.501034 0.612931
O O10 0.185709 0.578677 0.668037
#
# Coordination Sequence:
#
# PCOD9563517 Si02
#       5
#    16  16   8  16  16
#     4  11  20  38  60  89 127 181 233 287 331 402
#     4  12  24  38  63  96 130 176 226 285 356 416
#     4  10  22  40  62  89 132 167 222 278 342 406
#     4  11  22  37  59  89 129 178 231 288 333 399
#     4  11  23  39  64  91 131 173 218 285 355 416
#
# _framework density 20.423884999999999
#
# number of rings (size 3 to 8) (size 9 to 14) (size 15 to 20)
#    0.000    0.889    6.667    2.667    0.000    4.000 
#    0.000    1.111    0.000    0.000    0.000    0.000 
#    0.000  168.000    0.000    0.000    0.000    0.000 
#
# Total GULP energy -401230.005812 kJ/mol
# GULP energy per Si atom -5572.638970 kJ/mol
# Density = 2.037740 g / cm^3
# Si number density = 20.423885 Si / 1000 Ang^3
#
#
#
# Elastic Constant Matrix: (Units=GPa)
#
#
# Indices 1 2 3 4 5 6 
#
# 1 74.9730 51.9896 41.5010 0.0000 0.0000 0.0000
# 2 51.9896 74.9735 41.5016 0.0000 0.0000 0.0000
# 3 41.5010 41.5016 151.8979 0.0000 0.0000 0.0000
# 4 0.0000 0.0000 0.0000 34.8711 0.0000 0.0000
# 5 0.0000 0.0000 0.0000 0.0000 34.8710 0.0000
# 6 0.0000 0.0000 0.0000 0.0000 0.0000 27.2380
#
#
#
# Elastic Compliance Matrix: (Units=1/GPa)
#
#
# Indices 1 2 3 4 5 6 
#
# 1 0.026549 -0.016960 -0.002620 0.000000 0.000000 0.000000
# 2 -0.016960 0.026549 -0.002620 0.000000 0.000000 0.000000
# 3 -0.002620 -0.002620 0.008015 0.000000 0.000000 0.000000
# 4 0.000000 0.000000 0.000000 0.028677 0.000000 0.000000
# 5 0.000000 0.000000 0.000000 0.000000 0.028677 0.000000
# 6 0.000000 0.000000 0.000000 0.000000 0.000000 0.036713
#
#
# Mechanical properties :
#
#
# Convention : Reuss Voigt Hill
#
# Bulk Modulus (GPa) = 59.83177 63.53652 61.68415
# Shear Modulus (GPa) = 24.37221 30.51952 27.44586
#
# Velocity S-wave (km/s) = 3.45819 3.86982 3.66978
# Velocity P-wave (km/s) = 6.73083 7.15149 6.94434
#
# Compressibility (1/GPa) = 0.01671353
#
# Stress axis : x y z
#
# Youngs Moduli (GPa) = 37.66594 37.66605 124.76624
#
# Poissons Ratio (x) = 0.63882 0.32687
# Poissons Ratio (y) = 0.63882 0.32689
# Poissons Ratio (z) = 0.09868 0.09869
#
# Static dielectric constant tensor:
#      x y z
#    x 1.745800 0.000000 0.000000 
#    y 0.000000 1.745800 0.000000 
#    z 0.000000 0.000000 1.885560 
# 
# From -- ./inp_files/1589.got.cif
#   From: 2010.05.17/outbox.cif.g08.bks.cpg/sg126_1_cif.got.tgz:1589.got - 2010.05.20 11:58:20.
