data_PCOD9563878
_publ_section_title
;
Structure prediction by ZEFSAII (Michael W. Deem and Ramdas Pophale) SiO2 
 PCOD9563878
Probable space group: P 4/M B M
;
_chemical_formula_sum "Si O2"
_cell_formula_units_Z 96
_cell_length_a 25.795491
_cell_length_b 25.795491
_cell_length_c 8.690260
_cell_angle_alpha 90.000000
_cell_angle_beta 90.000000
_cell_angle_gamma 90.000000
_cell_volume 5782.562929
_symmetry_space_group_name_H-M "P 4/M B M"
_symmetry_group_IT_number 127
_symmetry_cell_setting 'tetragonal'
loop_
_space_group_symop_operation_xyz
x,y,z
-y,x,z
-x,-y,z
y,-x,z
1/2+x,1/2-y,-z
1/2-x,1/2+y,-z
1/2+y,1/2+x,-z
1/2-y,1/2-x,-z
-x,-y,-z
y,-x,-z
x,y,-z
-y,x,-z
1/2-x,1/2+y,z
1/2+x,1/2-y,z
1/2-y,1/2-x,z
1/2+y,1/2+x,z
loop_
_atom_site_type_symbol
_atom_site_label
_atom_site_fract_x
_atom_site_fract_y
_atom_site_fract_z
Si Si1 0.257176 0.574063 0.824637
Si Si2 0.379549 0.550359 0.172285
Si Si3 0.188103 0.775634 0.183465
Si Si4 0.134705 0.947780 0.321323
Si Si5 0.538221 0.250758 0.814448
Si Si6 0.267854 0.854603 0.683167
O O1 0.318278 0.560906 0.830284
O O2 0.257441 0.631831 0.754170
O O3 0.233367 0.519883 0.761757
O O4 0.237198 0.579717 0.000000
O O5 0.390190 0.504162 0.290270
O O6 0.407348 0.602164 0.223765
O O7 0.395206 0.534527 0.000000
O O8 0.228902 0.728902 0.202714
O O9 0.215246 0.826113 0.257681
O O10 0.182204 0.786085 0.000000
O O11 0.134894 0.934541 0.500000
O O12 0.192550 0.952093 0.256935
O O13 0.589920 0.221441 0.760977
O O14 0.536654 0.253890 0.000000
O O15 0.263785 0.861355 0.500000
O O16 0.314102 0.814102 0.716630
#
# Coordination Sequence:
#
# PCOD9563878 Si02
#       6
#    16  16  16  16  16  16
#     4   8  16  29  45  65  87 112 145 183 217 258
#     4  10  19  32  46  59  79 111 148 184 225 272
#     4   9  16  28  48  71  94 122 154 185 225 281
#     4  11  21  32  45  63  84 107 142 188 234 272
#     4  10  19  32  48  64  87 120 154 185 221 272
#     4  10  20  32  46  68  97 123 151 193 239 277
#
# _framework density 16.601635999999999
#
# number of rings (size 3 to 8) (size 9 to 14) (size 15 to 20)
#    0.000    2.333    0.000    5.000    0.000    2.667 
#    0.000    5.833    0.000    0.000    0.000    0.000 
#    0.000    0.667    0.000    8.333    0.000    1.333 
#
# Total GULP energy -534650.212824 kJ/mol
# GULP energy per Si atom -5569.273050 kJ/mol
# Density = 1.656385 g / cm^3
# Si number density = 16.601636 Si / 1000 Ang^3
#
#
#
# Elastic Constant Matrix: (Units=GPa)
#
#
# Indices 1 2 3 4 5 6 
#
# 1 55.7741 -9.1027 10.9057 0.0000 0.0000 0.0000
# 2 -9.1027 55.7741 10.9057 0.0000 0.0000 0.0000
# 3 10.9057 10.9057 31.0582 0.0000 0.0000 0.0000
# 4 0.0000 0.0000 0.0000 12.8014 0.0000 0.0000
# 5 0.0000 0.0000 0.0000 0.0000 12.8014 0.0000
# 6 0.0000 0.0000 0.0000 0.0000 0.0000 17.9186
#
#
#
# Elastic Compliance Matrix: (Units=1/GPa)
#
#
# Indices 1 2 3 4 5 6 
#
# 1 0.020523 0.005109 -0.009001 0.000000 0.000000 0.000000
# 2 0.005109 0.020523 -0.009001 0.000000 0.000000 0.000000
# 3 -0.009001 -0.009001 0.038519 0.000000 0.000000 0.000000
# 4 0.000000 0.000000 0.000000 0.078116 0.000000 0.000000
# 5 0.000000 0.000000 0.000000 0.000000 0.078116 0.000000
# 6 0.000000 0.000000 0.000000 0.000000 0.000000 0.055808
#
#
# Mechanical properties :
#
#
# Convention : Reuss Voigt Hill
#
# Bulk Modulus (GPa) = 18.59373 18.66931 18.63152
# Shear Modulus (GPa) = 14.91128 17.36412 16.13770
#
# Velocity S-wave (km/s) = 3.00022 3.23759 3.12116
# Velocity P-wave (km/s) = 4.81934 5.02453 4.92300
#
# Compressibility (1/GPa) = 0.05378156
#
# Stress axis : x y z
#
# Youngs Moduli (GPa) = 48.72519 48.72519 25.96153
#
# Poissons Ratio (x) = -0.24896 0.23367
# Poissons Ratio (y) = -0.24896 0.23367
# Poissons Ratio (z) = 0.43856 0.43856
#
# Static dielectric constant tensor:
#      x y z
#    x 1.603880 0.000000 0.000000 
#    y 0.000000 1.603880 0.000000 
#    z 0.000000 0.000000 1.558910 
# 
# From -- ./inp_files/2023.got.cif
#   From: 2010.05.17/outbox.cif.g08.bks.cpg/sg127_2_cif.got.tgz:2023.got - 2010.05.20 12:03:00.
