data_PCOD9563145
_publ_section_title
;
Structure prediction by ZEFSAII (Michael W. Deem and Ramdas Pophale) SiO2 
 PCOD9563145
Probable space group: P 4/N B M
;
_chemical_formula_sum "Si O2"
_cell_formula_units_Z 58
_cell_length_a 12.039142
_cell_length_b 12.039142
_cell_length_c 21.498324
_cell_angle_alpha 90.000000
_cell_angle_beta 90.000000
_cell_angle_gamma 90.000000
_cell_volume 3115.987291
_symmetry_space_group_name_H-M "P 4/N B M"
_symmetry_group_IT_number 125
_space_group.IT_coordinate_system_code '2'
_symmetry_cell_setting 'tetragonal'
loop_
_space_group_symop_operation_xyz
x,y,z
1/2-y,x,z
1/2-x,1/2-y,z
y,1/2-x,z
x,1/2-y,-z
1/2-x,y,-z
y,x,-z
1/2-y,1/2-x,-z
-x,-y,-z
1/2+y,-x,-z
1/2+x,1/2+y,-z
-y,1/2+x,-z
-x,1/2+y,z
1/2+x,-y,z
-y,-x,z
1/2+y,1/2+x,z
loop_
_atom_site_type_symbol
_atom_site_label
_atom_site_fract_x
_atom_site_fract_y
_atom_site_fract_z
Si Si1 0.247523 0.437639 0.569735
Si Si2 0.567500 0.254775 0.695884
Si Si3 0.161320 0.661320 0.121338
Si Si4 0.750000 0.250000 0.000000
Si Si5 0.221379 0.430902 0.184093
O O1 0.141786 0.355415 0.574903
O O2 0.250000 0.486404 0.500000
O O3 0.243893 0.523134 0.625774
O O4 0.628939 0.371062 0.710777
O O5 0.658920 0.158920 0.702480
O O6 0.469948 0.227303 0.744103
O O7 0.250000 0.750000 0.148782
O O8 0.195785 0.540453 0.144617
O O9 0.176809 0.676809 0.047282
O O10 0.127353 0.339258 0.171760
#
# Coordination Sequence:
#
# PCOD9563145 Si02
#       5
#    16  16   8   2  16
#     4   9  19  36  55  75 106 151 204 263 326 390
#     4  11  23  36  54  84 120 160 207 266 326 384
#     4  10  22  43  70  98 133 172 213 253 307 375
#     4   8  24  44  72 108 132 180 214 240 316 364
#     4  11  24  40  65  99 132 172 218 270 323 375
#
# _framework density 18.613685
#
# number of rings (size 3 to 8) (size 9 to 14) (size 15 to 20)
#    0.414    1.379    1.379    3.310    3.862    6.621 
#    0.000    6.897    0.000    1.655    0.000    0.000 
#    0.000    0.000    0.000    0.000    0.000    0.000 
#
# Total GULP energy -323784.495130 kJ/mol
# GULP energy per Si atom -5582.491295 kJ/mol
# Density = 1.857132 g / cm^3
# Si number density = 18.613685 Si / 1000 Ang^3
#
#
#
# Elastic Constant Matrix: (Units=GPa)
#
#
# Indices 1 2 3 4 5 6 
#
# 1 99.6595 72.5428 47.8168 0.0000 0.0000 0.0000
# 2 72.5428 99.6595 47.8168 0.0000 0.0000 0.0000
# 3 47.8168 47.8168 111.8658 0.0000 0.0000 0.0000
# 4 0.0000 0.0000 0.0000 -20.6239 0.0000 0.0000
# 5 0.0000 0.0000 0.0000 0.0000 -20.6239 0.0000
# 6 0.0000 0.0000 0.0000 0.0000 0.0000 8.6680
#
#
#
# Elastic Compliance Matrix: (Units=1/GPa)
#
#
# Indices 1 2 3 4 5 6 
#
# 1 0.022246 -0.014631 -0.003255 0.000000 0.000000 0.000000
# 2 -0.014631 0.022246 -0.003255 0.000000 0.000000 0.000000
# 3 -0.003255 -0.003255 0.011722 0.000000 0.000000 0.000000
# 4 0.000000 0.000000 0.000000 -0.048487 0.000000 0.000000
# 5 0.000000 0.000000 0.000000 0.000000 -0.048487 0.000000
# 6 0.000000 0.000000 0.000000 0.000000 0.000000 0.115367
#
#
# Mechanical properties :
#
#
# Convention : Reuss Voigt Hill
#
# Bulk Modulus (GPa) = 71.77841 71.94860 71.86350
# Shear Modulus (GPa) = 41.14090 3.01790 22.07940
#
# Velocity S-wave (km/s) = 4.70643 1.27470 3.44785
# Velocity P-wave (km/s) = 8.25711 6.39562 7.38525
#
# Compressibility (1/GPa) = 0.01393177
#
# Stress axis : x y z
#
# Youngs Moduli (GPa) = 44.95146 44.95146 85.31043
#
# Poissons Ratio (x) = 0.65771 0.27768
# Poissons Ratio (y) = 0.65771 0.27768
# Poissons Ratio (z) = 0.14631 0.14631
#
# Static dielectric constant tensor:
#      x y z
#    x 1.635050 0.000000 0.000000 
#    y 0.000000 1.635050 0.000000 
#    z 0.000000 0.000000 1.633200 
# 
# From -- ./inp_files/5744.got.cif
#   From: 2010.05.17/outbox.cif.g08.bks.cpg/sg125_3_cif.got.tgz:5744.got - 2010.05.20 11:54:10.
