data_PCOD9563901
_publ_section_title
;
Structure prediction by ZEFSAII (Michael W. Deem and Ramdas Pophale) SiO2 
 PCOD9563901
Probable space group: P 4/M B M
;
_chemical_formula_sum "Si O2"
_cell_formula_units_Z 52
_cell_length_a 14.541154
_cell_length_b 14.541154
_cell_length_c 13.676714
_cell_angle_alpha 90.000000
_cell_angle_beta 90.000000
_cell_angle_gamma 90.000000
_cell_volume 2891.874975
_symmetry_space_group_name_H-M "P 4/M B M"
_symmetry_group_IT_number 127
_symmetry_cell_setting 'tetragonal'
loop_
_space_group_symop_operation_xyz
x,y,z
-y,x,z
-x,-y,z
y,-x,z
1/2+x,1/2-y,-z
1/2-x,1/2+y,-z
1/2+y,1/2+x,-z
1/2-y,1/2-x,-z
-x,-y,-z
y,-x,-z
x,y,-z
-y,x,-z
1/2-x,1/2+y,z
1/2+x,1/2-y,z
1/2-y,1/2-x,z
1/2+y,1/2+x,z
loop_
_atom_site_type_symbol
_atom_site_label
_atom_site_fract_x
_atom_site_fract_y
_atom_site_fract_z
Si Si1 0.317554 0.182447 0.000000
Si Si2 0.737478 0.614798 0.000000
Si Si3 0.574271 0.925730 0.166101
Si Si4 0.221767 0.430038 0.789451
Si Si5 0.353915 0.448620 0.607989
O O1 0.326203 0.293820 0.000000
O O2 0.366652 0.133349 0.909905
O O3 0.731445 0.562120 0.897218
O O4 0.841209 0.658792 0.000000
O O5 0.511894 0.852076 0.222425
O O6 0.500000 0.000000 0.123373
O O7 0.165031 0.334970 0.790724
O O8 0.290679 0.429083 0.699941
O O9 0.445937 0.387602 0.612869
O O10 0.311420 0.433653 0.500000
#
# Coordination Sequence:
#
# PCOD9563901 Si02
#       5
#     4   8   8  16  16
#     4  10  19  32  54  77 116 150 192 224 262 331
#     4   8  19  31  48  82 110 141 182 228 265 320
#     4  10  21  34  55  82 114 162 189 222 283 344
#     4  10  20  36  56  83 117 146 190 230 279 335
#     4   9  20  39  60  80 107 147 188 233 291 345
#
# _framework density 17.981414000000001
#
# number of rings (size 3 to 8) (size 9 to 14) (size 15 to 20)
#    0.462    2.154    0.000    2.077    4.308    3.077 
#    0.000    0.769    0.000    4.615    0.000    0.000 
#    0.000    0.000    0.000    0.000    0.000    0.000 
#
# Total GULP energy -289532.642143 kJ/mol
# GULP energy per Si atom -5567.935426 kJ/mol
# Density = 1.794049 g / cm^3
# Si number density = 17.981414 Si / 1000 Ang^3
#
#
#
# Elastic Constant Matrix: (Units=GPa)
#
#
# Indices 1 2 3 4 5 6 
#
# 1 32.5662 29.2167 42.7821 0.0000 0.0000 0.0000
# 2 29.2167 32.5668 42.7822 0.0000 0.0000 0.0000
# 3 42.7821 42.7822 168.8358 0.0000 0.0000 0.0000
# 4 0.0000 0.0000 0.0000 29.9367 0.0000 0.0000
# 5 0.0000 0.0000 0.0000 0.0000 29.9365 0.0000
# 6 0.0000 0.0000 0.0000 0.0000 0.0000 24.3992
#
#
#
# Elastic Compliance Matrix: (Units=1/GPa)
#
#
# Indices 1 2 3 4 5 6 
#
# 1 0.161734 -0.136795 -0.006319 0.000000 0.000000 0.000000
# 2 -0.136795 0.161729 -0.006318 0.000000 0.000000 0.000000
# 3 -0.006319 -0.006318 0.009125 0.000000 0.000000 0.000000
# 4 0.000000 0.000000 0.000000 0.033404 0.000000 0.000000
# 5 0.000000 0.000000 0.000000 0.000000 0.033404 0.000000
# 6 0.000000 0.000000 0.000000 0.000000 0.000000 0.040985
#
#
# Mechanical properties :
#
#
# Convention : Reuss Voigt Hill
#
# Bulk Modulus (GPa) = 29.65314 51.50342 40.57828
# Shear Modulus (GPa) = 6.66234 24.80035 15.73134
#
# Velocity S-wave (km/s) = 1.92696 3.71782 2.96102
# Velocity P-wave (km/s) = 4.63440 6.86544 5.85713
#
# Compressibility (1/GPa) = 0.03372324
#
# Stress axis : x y z
#
# Youngs Moduli (GPa) = 6.18300 6.18318 109.58628
#
# Poissons Ratio (x) = 0.84583 0.69251
# Poissons Ratio (y) = 0.84580 0.69240
# Poissons Ratio (z) = 0.03907 0.03907
#
# Static dielectric constant tensor:
#      x y z
#    x 1.626230 0.000000 0.000000 
#    y 0.000000 1.626230 0.000000 
#    z 0.000000 0.000000 1.624330 
# 
# From -- ./inp_files/2897.got.cif
#   From: 2010.05.17/outbox.cif.g08.bks.cpg/sg127_2_cif.got.tgz:2897.got - 2010.05.20 12:03:00.
