data_PCOD9563466
_publ_section_title
;
Structure prediction by ZEFSAII (Michael W. Deem and Ramdas Pophale) SiO2 
 PCOD9563466
Probable space group: P 4/N N C
;
_chemical_formula_sum "Si O2"
_cell_formula_units_Z 64
_cell_length_a 13.513265
_cell_length_b 13.513265
_cell_length_c 17.624225
_cell_angle_alpha 90.000000
_cell_angle_beta 90.000000
_cell_angle_gamma 90.000000
_cell_volume 3218.330312
_symmetry_space_group_name_H-M "P 4/N N C"
_symmetry_group_IT_number 126
_space_group.IT_coordinate_system_code '2'
_symmetry_cell_setting 'tetragonal'
loop_
_space_group_symop_operation_xyz
x,y,z
1/2-y,x,z
1/2-x,1/2-y,z
y,1/2-x,z
x,1/2-y,1/2-z
1/2-x,y,1/2-z
y,x,1/2-z
1/2-y,1/2-x,1/2-z
-x,-y,-z
1/2+y,-x,-z
1/2+x,1/2+y,-z
-y,1/2+x,-z
-x,1/2+y,1/2+z
1/2+x,-y,1/2+z
-y,-x,1/2+z
1/2+y,1/2+x,1/2+z
loop_
_atom_site_type_symbol
_atom_site_label
_atom_site_fract_x
_atom_site_fract_y
_atom_site_fract_z
Si Si1 0.650706 0.197488 0.830118
Si Si2 0.345211 0.504225 0.956673
Si Si3 0.464824 0.157076 0.300532
Si Si4 0.468257 0.353215 0.029803
O O1 0.750000 0.250000 0.863849
O O2 0.634409 0.250000 0.750000
O O3 0.552420 0.201221 0.881349
O O4 0.670366 0.081717 0.814646
O O5 0.434263 0.579033 0.974768
O O6 0.394685 0.395930 0.965482
O O7 0.257800 0.501888 0.016682
O O8 0.428754 0.250000 0.250000
O O9 0.438029 0.061972 0.250000
O O10 0.422997 0.141521 0.385438
#
# Coordination Sequence:
#
# PCOD9563466 Si02
#       4
#    16  16  16  16
#     4  10  21  39  63  95 122 169 226 271 319 376
#     4  10  23  38  61  91 131 164 214 269 321 395
#     4  11  22  38  63  90 132 170 212 268 318 391
#     4  10  23  40  60  96 126 174 216 263 334 382
#
# _framework density 19.886088000000001
#
# number of rings (size 3 to 8) (size 9 to 14) (size 15 to 20)
#    0.000    1.750    2.500    1.500    7.000    6.750 
#    0.000    2.500    0.000    0.000    0.000    1.750 
#    0.000    0.000    0.000    0.000    0.000    0.000 
#
# Total GULP energy -356429.454856 kJ/mol
# GULP energy per Si atom -5569.210232 kJ/mol
# Density = 1.984083 g / cm^3
# Si number density = 19.886088 Si / 1000 Ang^3
#
#
#
# Elastic Constant Matrix: (Units=GPa)
#
#
# Indices 1 2 3 4 5 6 
#
# 1 49.0702 32.6874 34.5040 0.0000 0.0000 0.0000
# 2 32.6874 49.0730 34.5048 0.0000 0.0000 0.0000
# 3 34.5040 34.5048 102.8808 0.0000 0.0000 0.0000
# 4 0.0000 0.0000 0.0000 30.9165 0.0000 0.0000
# 5 0.0000 0.0000 0.0000 0.0000 30.9168 0.0000
# 6 0.0000 0.0000 0.0000 0.0000 0.0000 16.9519
#
#
#
# Elastic Compliance Matrix: (Units=1/GPa)
#
#
# Indices 1 2 3 4 5 6 
#
# 1 0.039049 -0.021987 -0.005722 0.000000 0.000000 0.000000
# 2 -0.021987 0.039046 -0.005722 0.000000 0.000000 0.000000
# 3 -0.005722 -0.005722 0.013558 0.000000 0.000000 0.000000
# 4 0.000000 0.000000 0.000000 0.032345 0.000000 0.000000
# 5 0.000000 0.000000 0.000000 0.000000 0.032345 0.000000
# 6 0.000000 0.000000 0.000000 0.000000 0.000000 0.058991
#
#
# Mechanical properties :
#
#
# Convention : Reuss Voigt Hill
#
# Bulk Modulus (GPa) = 40.33581 44.93516 42.63549
# Shear Modulus (GPa) = 17.21415 22.37888 19.79652
#
# Velocity S-wave (km/s) = 2.94536 3.35827 3.15857
# Velocity P-wave (km/s) = 5.64751 6.13862 5.89818
#
# Compressibility (1/GPa) = 0.02479187
#
# Stress axis : x y z
#
# Youngs Moduli (GPa) = 25.60904 25.61064 73.75726
#
# Poissons Ratio (x) = 0.56310 0.42204
# Poissons Ratio (y) = 0.56306 0.42201
# Poissons Ratio (z) = 0.14653 0.14654
#
# Static dielectric constant tensor:
#      x y z
#    x 1.722480 0.000000 0.000000 
#    y 0.000000 1.722480 0.000000 
#    z 0.000000 0.000000 1.755950 
# 
# From -- ./inp_files/4952.got.cif
#   From: 2010.05.17/outbox.cif.g08.bks.cpg/sg126_3_cif.got.tgz:4952.got - 2010.05.20 11:58:20.
