data_PCOD9563945
_publ_section_title
;
Structure prediction by ZEFSAII (Michael W. Deem and Ramdas Pophale) SiO2 
 PCOD9563945
Probable space group: P 4/M B M
;
_chemical_formula_sum "Si O2"
_cell_formula_units_Z 96
_cell_length_a 15.937176
_cell_length_b 15.937176
_cell_length_c 19.530196
_cell_angle_alpha 90.000000
_cell_angle_beta 90.000000
_cell_angle_gamma 90.000000
_cell_volume 4960.544378
_symmetry_space_group_name_H-M "P 4/M B M"
_symmetry_group_IT_number 127
_symmetry_cell_setting 'tetragonal'
loop_
_space_group_symop_operation_xyz
x,y,z
-y,x,z
-x,-y,z
y,-x,z
1/2+x,1/2-y,-z
1/2-x,1/2+y,-z
1/2+y,1/2+x,-z
1/2-y,1/2-x,-z
-x,-y,-z
y,-x,-z
x,y,-z
-y,x,-z
1/2-x,1/2+y,z
1/2+x,1/2-y,z
1/2-y,1/2-x,z
1/2+y,1/2+x,z
loop_
_atom_site_type_symbol
_atom_site_label
_atom_site_fract_x
_atom_site_fract_y
_atom_site_fract_z
Si Si1 0.752034 0.606785 0.580029
Si Si2 0.362136 0.006378 0.675352
Si Si3 0.603620 0.595662 0.328310
Si Si4 0.167549 0.468885 0.171710
Si Si5 0.308495 0.329423 0.804757
Si Si6 0.103861 0.744490 0.923301
O O1 0.752304 0.585711 0.500000
O O2 0.813447 0.686554 0.590451
O O3 0.792230 0.531625 0.625413
O O4 0.659382 0.625886 0.607797
O O5 0.434236 0.934236 0.676778
O O6 0.332346 0.013870 0.754017
O O7 0.408138 0.091863 0.653361
O O8 0.505126 0.613131 0.328434
O O9 0.643964 0.637895 0.261676
O O10 0.079647 0.420354 0.163315
O O11 0.239517 0.398590 0.175485
O O12 0.189002 0.531213 0.110788
O O13 0.255971 0.244029 0.790328
O O14 0.371403 0.314399 0.867777
O O15 0.185565 0.685565 0.928157
O O16 0.082836 0.773630 0.000000
#
# Coordination Sequence:
#
# PCOD9563945 Si02
#       6
#    16  16  16  16  16  16
#     4  10  21  39  62  88 122 160 197 242 297 356
#     4   9  17  31  54  86 121 155 194 237 284 343
#     4  11  23  39  61  87 115 151 198 248 295 349
#     4  10  19  34  58  85 115 156 201 242 294 357
#     4  10  20  37  61  84 112 151 198 247 293 351
#     4  10  22  37  54  84 122 155 192 242 297 354
#
# _framework density 19.352713999999999
#
# number of rings (size 3 to 8) (size 9 to 14) (size 15 to 20)
#    0.000    2.000    1.667    2.000    0.000    3.000 
#    0.000    5.833    0.000    0.000    0.000    3.500 
#    0.000    0.000    0.000    0.000    0.000    0.000 
#
# Total GULP energy -535886.639849 kJ/mol
# GULP energy per Si atom -5582.152498 kJ/mol
# Density = 1.930867 g / cm^3
# Si number density = 19.352714 Si / 1000 Ang^3
#
#
#
# Elastic Constant Matrix: (Units=GPa)
#
#
# Indices 1 2 3 4 5 6 
#
# 1 61.6830 25.6343 47.0770 0.0000 0.0000 0.0000
# 2 25.6343 61.6830 47.0770 0.0000 0.0000 0.0000
# 3 47.0770 47.0770 122.7725 0.0000 0.0000 0.0000
# 4 0.0000 0.0000 0.0000 1.3850 0.0000 0.0000
# 5 0.0000 0.0000 0.0000 0.0000 1.3850 0.0000
# 6 0.0000 0.0000 0.0000 0.0000 0.0000 14.2179
#
#
#
# Elastic Compliance Matrix: (Units=1/GPa)
#
#
# Indices 1 2 3 4 5 6 
#
# 1 0.023633 -0.004107 -0.007487 0.000000 0.000000 0.000000
# 2 -0.004107 0.023633 -0.007487 0.000000 0.000000 0.000000
# 3 -0.007487 -0.007487 0.013887 0.000000 0.000000 0.000000
# 4 0.000000 0.000000 0.000000 0.722025 0.000000 0.000000
# 5 0.000000 0.000000 0.000000 0.000000 0.722025 0.000000
# 6 0.000000 0.000000 0.000000 0.000000 0.000000 0.070334
#
#
# Mechanical properties :
#
#
# Convention : Reuss Voigt Hill
#
# Bulk Modulus (GPa) = 43.49699 53.96837 48.73268
# Shear Modulus (GPa) = 3.08382 11.82091 7.45237
#
# Velocity S-wave (km/s) = 1.26370 2.47415 1.96448
# Velocity P-wave (km/s) = 4.96528 6.00909 5.51195
#
# Compressibility (1/GPa) = 0.02299010
#
# Stress axis : x y z
#
# Youngs Moduli (GPa) = 42.31353 42.31353 72.00940
#
# Poissons Ratio (x) = 0.17379 0.53915
# Poissons Ratio (y) = 0.17379 0.53915
# Poissons Ratio (z) = 0.31681 0.31681
#
# Static dielectric constant tensor:
#      x y z
#    x 1.691340 0.000000 0.000000 
#    y 0.000000 1.691340 0.000000 
#    z 0.000000 0.000000 1.656780 
# 
# From -- ./inp_files/5768.got.cif
#   From: 2010.05.17/outbox.cif.g08.bks.cpg/sg127_3_cif.got.tgz:5768.got - 2010.05.20 12:03:00.
