data_PCOD9563340
_publ_section_title
;
Structure prediction by ZEFSAII (Michael W. Deem and Ramdas Pophale) SiO2 
 PCOD9563340
Probable space group: P 4/N N C
;
_chemical_formula_sum "Si O2"
_cell_formula_units_Z 120
_cell_length_a 18.367463
_cell_length_b 18.367463
_cell_length_c 17.936535
_cell_angle_alpha 90.000000
_cell_angle_beta 90.000000
_cell_angle_gamma 90.000000
_cell_volume 6051.135760
_symmetry_space_group_name_H-M "P 4/N N C"
_symmetry_group_IT_number 126
_space_group.IT_coordinate_system_code '2'
_symmetry_cell_setting 'tetragonal'
loop_
_space_group_symop_operation_xyz
x,y,z
1/2-y,x,z
1/2-x,1/2-y,z
y,1/2-x,z
x,1/2-y,1/2-z
1/2-x,y,1/2-z
y,x,1/2-z
1/2-y,1/2-x,1/2-z
-x,-y,-z
1/2+y,-x,-z
1/2+x,1/2+y,-z
-y,1/2+x,-z
-x,1/2+y,1/2+z
1/2+x,-y,1/2+z
-y,-x,1/2+z
1/2+y,1/2+x,1/2+z
loop_
_atom_site_type_symbol
_atom_site_label
_atom_site_fract_x
_atom_site_fract_y
_atom_site_fract_z
Si Si1 0.634753 0.391769 0.256175
Si Si2 0.482835 0.957679 0.355250
Si Si3 0.373510 0.501205 0.932374
Si Si4 0.750000 0.055552 0.750000
Si Si5 0.146939 0.924956 0.514912
Si Si6 0.209467 0.466808 0.110559
Si Si7 0.261478 0.912971 0.627964
Si Si8 0.874010 0.577366 0.583153
O O1 0.575420 0.453485 0.277517
O O2 0.604514 0.314055 0.284221
O O3 0.701988 0.413259 0.307886
O O4 0.667183 0.381273 0.172494
O O5 0.466271 0.896255 0.418722
O O6 0.564098 0.984756 0.372479
O O7 0.430414 0.024884 0.374736
O O8 0.293716 0.509030 0.897219
O O9 0.383243 0.580235 0.973877
O O10 0.381810 0.440975 0.995867
O O11 0.707570 0.007843 0.810628
O O12 0.214495 0.884152 0.556688
O O13 0.181884 0.978410 0.453831
O O14 0.292617 0.444439 0.101803
O O15 0.157880 0.397219 0.104706
#
# Coordination Sequence:
#
# PCOD9563340 Si02
#       8
#    16  16  16   8  16  16  16  16
#     4  10  23  42  59  90 130 172 209 259 316 391
#     4  10  19  38  64  93 121 159 218 267 313 374
#     4  11  19  36  66 100 121 164 213 270 319 377
#     4  12  26  43  64  85 122 176 218 264 328 385
#     4  10  19  35  61  90 124 159 203 265 315 370
#     4  12  23  41  62  91 127 162 211 267 331 380
#     4  10  22  37  59  91 131 163 203 260 314 388
#     4  11  22  39  65  94 123 160 212 275 323 386
#
# _framework density 19.830987
#
# number of rings (size 3 to 8) (size 9 to 14) (size 15 to 20)
#    0.000    1.333    5.333    1.600    0.000    2.400 
#    0.000    1.333    0.000    0.800    0.000    0.000 
#    0.000    0.000    0.000    0.000    0.000    0.000 
#
# Total GULP energy -668274.906115 kJ/mol
# GULP energy per Si atom -5568.957551 kJ/mol
# Density = 1.978585 g / cm^3
# Si number density = 19.830987 Si / 1000 Ang^3
#
#
#
# Elastic Constant Matrix: (Units=GPa)
#
#
# Indices 1 2 3 4 5 6 
#
# 1 60.6598 14.5851 9.7539 0.0000 0.0000 0.0000
# 2 14.5851 60.6598 9.7539 0.0000 0.0000 0.0000
# 3 9.7539 9.7539 71.7873 0.0000 0.0000 0.0000
# 4 0.0000 0.0000 0.0000 6.6401 0.0000 0.0000
# 5 0.0000 0.0000 0.0000 0.0000 6.6401 0.0000
# 6 0.0000 0.0000 0.0000 0.0000 0.0000 61.0983
#
#
#
# Elastic Compliance Matrix: (Units=1/GPa)
#
#
# Indices 1 2 3 4 5 6 
#
# 1 0.017740 -0.003964 -0.001872 0.000000 0.000000 0.000000
# 2 -0.003964 0.017740 -0.001872 0.000000 0.000000 0.000000
# 3 -0.001872 -0.001872 0.014439 0.000000 0.000000 0.000000
# 4 0.000000 0.000000 0.000000 0.150600 0.000000 0.000000
# 5 0.000000 0.000000 0.000000 0.000000 0.150600 0.000000
# 6 0.000000 0.000000 0.000000 0.000000 0.000000 0.016367
#
#
# Mechanical properties :
#
#
# Convention : Reuss Voigt Hill
#
# Bulk Modulus (GPa) = 28.98352 29.03252 29.00802
# Shear Modulus (GPa) = 12.67747 25.47663 19.07705
#
# Velocity S-wave (km/s) = 2.53113 3.58814 3.10495
# Velocity P-wave (km/s) = 4.81551 5.64253 5.24535
#
# Compressibility (1/GPa) = 0.03450236
#
# Stress axis : x y z
#
# Youngs Moduli (GPa) = 56.37127 56.37127 69.25853
#
# Poissons Ratio (x) = 0.22348 0.12963
# Poissons Ratio (y) = 0.22348 0.12963
# Poissons Ratio (z) = 0.10551 0.10551
#
# Static dielectric constant tensor:
#      x y z
#    x 1.731900 0.000000 0.000000 
#    y 0.000000 1.731900 0.000000 
#    z 0.000000 0.000000 1.798130 
# 
# From -- ./inp_files/5475.got.cif
#   From: 2010.05.17/outbox.cif.g08.bks.cpg/sg126_3_cif.got.tgz:5475.got - 2010.05.20 11:58:20.
