data_PCOD9563115
_publ_section_title
;
Structure prediction by ZEFSAII (Michael W. Deem and Ramdas Pophale) SiO2 
 PCOD9563115
Probable space group: P 4/N B M
;
_chemical_formula_sum "Si O2"
_cell_formula_units_Z 112
_cell_length_a 13.968563
_cell_length_b 13.968563
_cell_length_c 27.245432
_cell_angle_alpha 90.000000
_cell_angle_beta 90.000000
_cell_angle_gamma 90.000000
_cell_volume 5316.149188
_symmetry_space_group_name_H-M "P 4/N B M"
_symmetry_group_IT_number 125
_space_group.IT_coordinate_system_code '2'
_symmetry_cell_setting 'tetragonal'
loop_
_space_group_symop_operation_xyz
x,y,z
1/2-y,x,z
1/2-x,1/2-y,z
y,1/2-x,z
x,1/2-y,-z
1/2-x,y,-z
y,x,-z
1/2-y,1/2-x,-z
-x,-y,-z
1/2+y,-x,-z
1/2+x,1/2+y,-z
-y,1/2+x,-z
-x,1/2+y,z
1/2+x,-y,z
-y,-x,z
1/2+y,1/2+x,z
loop_
_atom_site_type_symbol
_atom_site_label
_atom_site_fract_x
_atom_site_fract_y
_atom_site_fract_z
Si Si1 0.087746 0.434011 0.416373
Si Si2 0.885764 0.549871 0.690992
Si Si3 0.532322 0.871695 0.201527
Si Si4 0.766820 0.033973 0.551924
Si Si5 0.588058 0.739920 0.055584
Si Si6 0.825877 0.487881 0.150095
Si Si7 0.600658 0.241811 0.339041
O O1 0.097410 0.395380 0.360429
O O2 0.188487 0.450480 0.441373
O O3 0.017602 0.367992 0.446431
O O4 0.038245 0.538245 0.412761
O O5 0.878204 0.587321 0.746014
O O6 0.785123 0.495064 0.682406
O O7 0.971461 0.471461 0.691716
O O8 0.437488 0.937488 0.205440
O O9 0.499465 0.765459 0.186297
O O10 0.601832 0.924904 0.163254
O O11 0.750000 0.083240 0.500000
O O12 0.758958 0.092968 0.601971
O O13 0.664498 0.652824 0.060957
O O14 0.508253 0.719173 0.096399
O O15 0.550064 0.750000 0.000000
O O16 0.890797 0.390797 0.153759
O O17 0.681238 0.318763 0.325318
O O18 0.637954 0.137954 0.322762
#
# Coordination Sequence:
#
# PCOD9563115 Si02
#       7
#    16  16  16  16  16  16  16
#     4  10  22  39  57  78 106 139 180 228 276 335
#     4   8  17  36  56  77 110 147 188 238 287 350
#     4  10  22  38  58  88 122 160 208 257 314 379
#     4  11  22  35  54  76 102 139 177 221 281 342
#     4   9  17  34  62  89 118 159 213 262 306 357
#     4  11  22  37  60  91 128 167 206 259 319 368
#     4   9  18  32  52  78 105 136 178 229 284 344
#
# _framework density 21.067879999999999
#
# number of rings (size 3 to 8) (size 9 to 14) (size 15 to 20)
#    0.000    2.286    1.429    2.571    0.000    6.571 
#    0.000    6.429    0.000    3.429    0.000    0.000 
#    0.000    0.000    0.000    0.000    0.000    0.000 
#
# Total GULP energy -624229.195298 kJ/mol
# GULP energy per Si atom -5573.474958 kJ/mol
# Density = 2.101993 g / cm^3
# Si number density = 21.067880 Si / 1000 Ang^3
#
#
#
# Elastic Constant Matrix: (Units=GPa)
#
#
# Indices 1 2 3 4 5 6 
#
# 1 67.4483 21.2349 11.9626 0.0000 0.0000 0.0000
# 2 21.2349 67.4483 11.9626 0.0000 0.0000 0.0000
# 3 11.9626 11.9626 122.3075 0.0000 0.0000 0.0000
# 4 0.0000 0.0000 0.0000 -21.0889 0.0000 0.0000
# 5 0.0000 0.0000 0.0000 0.0000 -21.0889 0.0000
# 6 0.0000 0.0000 0.0000 0.0000 0.0000 22.1232
#
#
#
# Elastic Compliance Matrix: (Units=1/GPa)
#
#
# Indices 1 2 3 4 5 6 
#
# 1 0.016610 -0.005029 -0.001133 0.000000 0.000000 0.000000
# 2 -0.005029 0.016610 -0.001133 0.000000 0.000000 0.000000
# 3 -0.001133 -0.001133 0.008398 0.000000 0.000000 0.000000
# 4 0.000000 0.000000 0.000000 -0.047418 0.000000 0.000000
# 5 0.000000 0.000000 0.000000 0.000000 -0.047418 0.000000
# 6 0.000000 0.000000 0.000000 0.000000 0.000000 0.045201
#
#
# Mechanical properties :
#
#
# Convention : Reuss Voigt Hill
#
# Bulk Modulus (GPa) = 36.99595 38.61381 37.80488
# Shear Modulus (GPa) = 320.90511 10.12536 165.51524
#
# Velocity S-wave (km/s) = 12.35517 2.19465 8.87318
# Velocity P-wave (km/s) = 14.87051 4.97896 11.08878
#
# Compressibility (1/GPa) = 0.02702998
#
# Stress axis : x y z
#
# Youngs Moduli (GPa) = 60.20388 60.20388 119.08019
#
# Poissons Ratio (x) = 0.30274 0.13489
# Poissons Ratio (y) = 0.30274 0.13489
# Poissons Ratio (z) = 0.06820 0.06820
#
# Static dielectric constant tensor:
#      x y z
#    x 1.765700 0.000000 0.000000 
#    y 0.000000 1.765700 0.000000 
#    z 0.000000 0.000000 1.791120 
# 
# From -- ./inp_files/6415.got.cif
#   From: 2010.05.17/outbox.cif.g08.bks.cpg/sg125_4_cif.got.tgz:6415.got - 2010.05.20 11:54:10.
