data_PCOD9563193
_publ_section_title
;
Structure prediction by ZEFSAII (Michael W. Deem and Ramdas Pophale) SiO2 
 PCOD9563193
Probable space group: P 4/N B M
;
_chemical_formula_sum "Si O2"
_cell_formula_units_Z 112
_cell_length_a 14.014459
_cell_length_b 14.014459
_cell_length_c 28.557960
_cell_angle_alpha 90.000000
_cell_angle_beta 90.000000
_cell_angle_gamma 90.000000
_cell_volume 5608.927878
_symmetry_space_group_name_H-M "P 4/N B M"
_symmetry_group_IT_number 125
_space_group.IT_coordinate_system_code '2'
_symmetry_cell_setting 'tetragonal'
loop_
_space_group_symop_operation_xyz
x,y,z
1/2-y,x,z
1/2-x,1/2-y,z
y,1/2-x,z
x,1/2-y,-z
1/2-x,y,-z
y,x,-z
1/2-y,1/2-x,-z
-x,-y,-z
1/2+y,-x,-z
1/2+x,1/2+y,-z
-y,1/2+x,-z
-x,1/2+y,z
1/2+x,-y,z
-y,-x,z
1/2+y,1/2+x,z
loop_
_atom_site_type_symbol
_atom_site_label
_atom_site_fract_x
_atom_site_fract_y
_atom_site_fract_z
Si Si1 0.293516 0.551409 0.951491
Si Si2 0.331217 0.112761 0.105720
Si Si3 0.331599 0.831599 0.881846
Si Si4 0.092868 0.284285 0.626358
Si Si5 0.652450 0.509553 0.473124
Si Si6 0.669085 0.611972 0.213017
Si Si7 0.667797 0.167797 0.226303
Si Si8 0.539390 0.194468 0.716016
O O1 0.355130 0.644871 0.962604
O O2 0.359427 0.470084 0.929122
O O3 0.216130 0.584418 0.912442
O O4 0.250000 0.516800 0.000000
O O5 0.374014 0.217162 0.098836
O O6 0.348197 0.084006 0.159393
O O7 0.250000 0.750000 0.878342
O O8 0.357128 0.857128 0.827943
O O9 0.141108 0.180264 0.628629
O O10 0.041322 0.312496 0.578172
O O11 0.020863 0.286681 0.669729
O O12 0.750000 0.485464 0.500000
O O13 0.595778 0.595778 0.500000
O O14 0.578268 0.421733 0.471029
O O15 0.783198 0.625926 0.220029
O O16 0.639095 0.531520 0.248792
O O17 0.750000 0.250000 0.223650
O O18 0.581581 0.215125 0.255372
O O19 0.628911 0.128911 0.703892
#
# Coordination Sequence:
#
# PCOD9563193 Si02
#       8
#    16  16   8  16  16  16   8  16
#     4  11  21  36  58  85 115 147 192 243 294 356
#     4   9  20  39  60  81 112 154 192 235 297 364
#     4   9  18  34  60  81 111 157 200 242 298 380
#     4  11  23  42  68  93 126 175 225 273 331 387
#     4  11  23  43  71 104 139 180 233 289 336 402
#     4   9  18  37  61  83 111 149 197 246 298 363
#     4   9  20  38  56  80 117 166 200 239 316 389
#     4  11  22  38  58  87 127 159 202 257 317 384
#
# _framework density 19.968164999999999
#
# number of rings (size 3 to 8) (size 9 to 14) (size 15 to 20)
#    0.000    1.857    2.143    3.000    0.000    3.714 
#    9.000    1.429    0.000    0.000    0.000    0.000 
#    0.000    0.000    0.000    0.000    0.000    0.000 
#
# Total GULP energy -625204.579407 kJ/mol
# GULP energy per Si atom -5582.183745 kJ/mol
# Density = 1.992272 g / cm^3
# Si number density = 19.968165 Si / 1000 Ang^3
#
#
#
# Elastic Constant Matrix: (Units=GPa)
#
#
# Indices 1 2 3 4 5 6 
#
# 1 57.8264 7.0173 51.1578 0.0000 0.0000 0.0000
# 2 7.0173 57.8264 51.1578 0.0000 0.0000 0.0000
# 3 51.1578 51.1578 131.2601 0.0000 0.0000 0.0000
# 4 0.0000 0.0000 0.0000 20.6825 0.0000 0.0000
# 5 0.0000 0.0000 0.0000 0.0000 20.6825 0.0000
# 6 0.0000 0.0000 0.0000 0.0000 0.0000 5.5310
#
#
#
# Elastic Compliance Matrix: (Units=1/GPa)
#
#
# Indices 1 2 3 4 5 6 
#
# 1 0.029867 0.010186 -0.015610 0.000000 0.000000 0.000000
# 2 0.010186 0.029867 -0.015610 0.000000 0.000000 0.000000
# 3 -0.015610 -0.015610 0.019787 0.000000 0.000000 0.000000
# 4 0.000000 0.000000 0.000000 0.048350 0.000000 0.000000
# 5 0.000000 0.000000 0.000000 0.000000 0.048350 0.000000
# 6 0.000000 0.000000 0.000000 0.000000 0.000000 0.180798
#
#
# Mechanical properties :
#
#
# Convention : Reuss Voigt Hill
#
# Bulk Modulus (GPa) = 26.70153 51.73098 39.21625
# Shear Modulus (GPa) = 12.14851 18.55121 15.34986
#
# Velocity S-wave (km/s) = 2.46924 3.05132 2.77558
# Velocity P-wave (km/s) = 4.64011 6.19492 5.47301
#
# Compressibility (1/GPa) = 0.03745104
#
# Stress axis : x y z
#
# Youngs Moduli (GPa) = 33.48139 33.48139 50.53914
#
# Poissons Ratio (x) = -0.34104 0.78894
# Poissons Ratio (y) = -0.34104 0.78894
# Poissons Ratio (z) = 0.52266 0.52266
#
# Static dielectric constant tensor:
#      x y z
#    x 1.718740 0.000000 0.000000 
#    y 0.000000 1.718740 0.000000 
#    z 0.000000 0.000000 1.689380 
# 
# From -- ./inp_files/6470.got.cif
#   From: 2010.05.17/outbox.cif.g08.bks.cpg/sg125_4_cif.got.tgz:6470.got - 2010.05.20 11:54:10.
