data_PCOD9563849
_publ_section_title
;
Structure prediction by ZEFSAII (Michael W. Deem and Ramdas Pophale) SiO2 
 PCOD9563849
Probable space group: P 4/M B M
;
_chemical_formula_sum "Si O2"
_cell_formula_units_Z 96
_cell_length_a 22.574462
_cell_length_b 22.574462
_cell_length_c 12.176150
_cell_angle_alpha 90.000000
_cell_angle_beta 90.000000
_cell_angle_gamma 90.000000
_cell_volume 6205.043171
_symmetry_space_group_name_H-M "P 4/M B M"
_symmetry_group_IT_number 127
_symmetry_cell_setting 'tetragonal'
loop_
_space_group_symop_operation_xyz
x,y,z
-y,x,z
-x,-y,z
y,-x,z
1/2+x,1/2-y,-z
1/2-x,1/2+y,-z
1/2+y,1/2+x,-z
1/2-y,1/2-x,-z
-x,-y,-z
y,-x,-z
x,y,-z
-y,x,-z
1/2-x,1/2+y,z
1/2+x,1/2-y,z
1/2-y,1/2-x,z
1/2+y,1/2+x,z
loop_
_atom_site_type_symbol
_atom_site_label
_atom_site_fract_x
_atom_site_fract_y
_atom_site_fract_z
Si Si1 0.367834 0.353373 0.303466
Si Si2 0.676022 0.010001 0.633237
Si Si3 0.425915 0.568790 0.500000
Si Si4 0.047565 0.452436 0.633845
Si Si5 0.427416 0.564787 0.131760
Si Si6 0.232883 0.366669 0.366888
Si Si7 0.119809 0.717784 0.366580
O O1 0.401031 0.393054 0.396393
O O2 0.393492 0.380745 0.191834
O O3 0.297155 0.356408 0.316822
O O4 0.379927 0.284078 0.321069
O O5 0.675852 0.008653 0.500000
O O6 0.611266 0.027809 0.672138
O O7 0.716020 0.066005 0.663386
O O8 0.691563 0.943811 0.667255
O O9 0.418856 0.496968 0.500000
O O10 0.049737 0.450264 0.500000
O O11 0.000000 0.500000 0.666309
O O12 0.419172 0.495418 0.162736
O O13 0.423205 0.568555 0.000000
O O14 0.237811 0.363324 0.500000
O O15 0.181627 0.318374 0.337308
O O16 0.121891 0.721650 0.500000
O O17 0.174332 0.674332 0.334750
#
# Coordination Sequence:
#
# PCOD9563849 Si02
#       7
#    16  16   8   8  16  16  16
#     4  12  21  31  53  72 101 132 166 203 243 300
#     4   9  17  27  42  61  89 131 172 211 238 282
#     4  11  24  34  43  72 108 132 159 200 254 303
#     4   9  14  24  40  60  82 120 173 217 247 266
#     4   9  20  39  58  75  96 125 166 212 255 302
#     4  10  19  31  45  68 103 140 172 201 241 295
#     4  10  20  32  44  67 104 142 171 199 243 300
#
# _framework density 15.471285999999999
#
# number of rings (size 3 to 8) (size 9 to 14) (size 15 to 20)
#    0.000    2.000    2.500    2.500    4.667    4.667 
#    0.000    0.000    0.000    2.000    0.000    0.000 
#    0.000    0.000    0.000    0.000    0.000    9.750 
#
# Total GULP energy -534809.328162 kJ/mol
# GULP energy per Si atom -5570.930502 kJ/mol
# Density = 1.543607 g / cm^3
# Si number density = 15.471286 Si / 1000 Ang^3
#
#
#
# Elastic Constant Matrix: (Units=GPa)
#
#
# Indices 1 2 3 4 5 6 
#
# 1 111.4807 51.2712 20.2769 0.0000 0.0000 0.0000
# 2 51.2712 111.4810 20.2769 0.0000 0.0000 0.0000
# 3 20.2769 20.2769 22.5299 0.0000 0.0000 0.0000
# 4 0.0000 0.0000 0.0000 12.8435 0.0000 0.0000
# 5 0.0000 0.0000 0.0000 0.0000 12.8431 0.0000
# 6 0.0000 0.0000 0.0000 0.0000 0.0000 26.9377
#
#
#
# Elastic Compliance Matrix: (Units=1/GPa)
#
#
# Indices 1 2 3 4 5 6 
#
# 1 0.012265 -0.004344 -0.007129 0.000000 0.000000 0.000000
# 2 -0.004344 0.012265 -0.007128 0.000000 0.000000 0.000000
# 3 -0.007129 -0.007128 0.057217 0.000000 0.000000 0.000000
# 4 0.000000 0.000000 0.000000 0.077861 0.000000 0.000000
# 5 0.000000 0.000000 0.000000 0.000000 0.077863 0.000000
# 6 0.000000 0.000000 0.000000 0.000000 0.000000 0.037123
#
#
# Mechanical properties :
#
#
# Convention : Reuss Voigt Hill
#
# Bulk Modulus (GPa) = 22.44978 47.68242 35.06610
# Shear Modulus (GPa) = 15.30729 20.76931 18.03830
#
# Velocity S-wave (km/s) = 3.14889 3.66791 3.41826
# Velocity P-wave (km/s) = 5.26904 6.98748 6.18820
#
# Compressibility (1/GPa) = 0.04454386
#
# Stress axis : x y z
#
# Youngs Moduli (GPa) = 81.53534 81.53566 17.47739
#
# Poissons Ratio (x) = 0.35419 0.12459
# Poissons Ratio (y) = 0.35419 0.12459
# Poissons Ratio (z) = 0.58123 0.58123
#
# Static dielectric constant tensor:
#      x y z
#    x 1.554490 0.000000 0.000000 
#    y 0.000000 1.554490 0.000000 
#    z 0.000000 0.000000 1.495770 
# 
# From -- ./inp_files/3619.got.cif
#   From: 2010.05.17/outbox.cif.g08.bks.cpg/sg127_2_cif.got.tgz:3619.got - 2010.05.20 12:03:00.
