data_PCOD9563647
_publ_section_title
;
Structure prediction by ZEFSAII (Michael W. Deem and Ramdas Pophale) SiO2 
 PCOD9563647
Probable space group: P 4/N N C
;
_chemical_formula_sum "Si O2"
_cell_formula_units_Z 64
_cell_length_a 10.597909
_cell_length_b 10.597909
_cell_length_c 28.983462
_cell_angle_alpha 90.000000
_cell_angle_beta 90.000000
_cell_angle_gamma 90.000000
_cell_volume 3255.297103
_symmetry_space_group_name_H-M "P 4/N N C"
_symmetry_group_IT_number 126
_space_group.IT_coordinate_system_code '2'
_symmetry_cell_setting 'tetragonal'
loop_
_space_group_symop_operation_xyz
x,y,z
1/2-y,x,z
1/2-x,1/2-y,z
y,1/2-x,z
x,1/2-y,1/2-z
1/2-x,y,1/2-z
y,x,1/2-z
1/2-y,1/2-x,1/2-z
-x,-y,-z
1/2+y,-x,-z
1/2+x,1/2+y,-z
-y,1/2+x,-z
-x,1/2+y,1/2+z
1/2+x,-y,1/2+z
-y,-x,1/2+z
1/2+y,1/2+x,1/2+z
loop_
_atom_site_type_symbol
_atom_site_label
_atom_site_fract_x
_atom_site_fract_y
_atom_site_fract_z
Si Si1 0.389270 0.088786 0.197883
Si Si2 0.548892 0.801272 0.522576
Si Si3 0.103167 0.788362 0.066406
Si Si4 0.463252 0.973360 0.104746
O O1 0.420095 0.237521 0.192496
O O2 0.435943 0.064058 0.250000
O O3 0.443546 0.999621 0.158436
O O4 0.603497 0.663409 0.513367
O O5 0.436183 0.814555 0.486645
O O6 0.516462 0.840264 0.574811
O O7 0.250000 0.750000 0.071169
O O8 0.025101 0.671790 0.088684
O O9 0.057309 0.916773 0.090428
#
# Coordination Sequence:
#
# PCOD9563647 Si02
#       4
#    16  16  16  16
#     4   9  18  37  66  95 122 157 209 276 334 379
#     4  11  23  40  60  86 123 168 211 259 312 367
#     4  12  26  39  63  90 127 173 215 262 318 381
#     4  12  25  41  61  92 128 170 217 266 320 385
#
# _framework density 19.660263
#
# number of rings (size 3 to 8) (size 9 to 14) (size 15 to 20)
#    0.000    1.000    2.500    6.000    3.500    2.500 
#    0.000    1.250    0.000    4.500    0.000    1.750 
#    0.000    0.000    0.000    0.000    0.000    0.000 
#
# Total GULP energy -357268.146789 kJ/mol
# GULP energy per Si atom -5582.314794 kJ/mol
# Density = 1.961552 g / cm^3
# Si number density = 19.660263 Si / 1000 Ang^3
#
#
#
# Elastic Constant Matrix: (Units=GPa)
#
#
# Indices 1 2 3 4 5 6 
#
# 1 96.8075 60.1934 43.8295 0.0000 0.0000 0.0000
# 2 60.1934 96.8077 43.8298 0.0000 0.0000 0.0000
# 3 43.8295 43.8298 150.3335 0.0000 0.0000 0.0000
# 4 0.0000 0.0000 0.0000 29.1412 0.0000 0.0000
# 5 0.0000 0.0000 0.0000 0.0000 29.1411 0.0000
# 6 0.0000 0.0000 0.0000 0.0000 0.0000 21.2660
#
#
#
# Elastic Compliance Matrix: (Units=1/GPa)
#
#
# Indices 1 2 3 4 5 6 
#
# 1 0.017460 -0.009852 -0.002218 0.000000 0.000000 0.000000
# 2 -0.009852 0.017460 -0.002218 0.000000 0.000000 0.000000
# 3 -0.002218 -0.002218 0.007945 0.000000 0.000000 0.000000
# 4 0.000000 0.000000 0.000000 0.034316 0.000000 0.000000
# 5 0.000000 0.000000 0.000000 0.000000 0.034316 0.000000
# 6 0.000000 0.000000 0.000000 0.000000 0.000000 0.047023
#
#
# Mechanical properties :
#
#
# Convention : Reuss Voigt Hill
#
# Bulk Modulus (GPa) = 69.98573 71.07266 70.52920
# Shear Modulus (GPa) = 26.06083 28.98273 27.52178
#
# Velocity S-wave (km/s) = 3.64477 3.84367 3.74554
# Velocity P-wave (km/s) = 7.30666 7.47845 7.39306
#
# Compressibility (1/GPa) = 0.01428863
#
# Stress axis : x y z
#
# Youngs Moduli (GPa) = 57.27442 57.27445 125.86179
#
# Poissons Ratio (x) = 0.56427 0.27916
# Poissons Ratio (y) = 0.56427 0.27917
# Poissons Ratio (z) = 0.12704 0.12704
#
# Static dielectric constant tensor:
#      x y z
#    x 1.726730 0.000000 0.000000 
#    y 0.000000 1.726730 0.000000 
#    z 0.000000 0.000000 1.669800 
# 
# From -- ./inp_files/6055.got.cif
#   From: 2010.05.17/outbox.cif.g08.bks.cpg/sg126_4_cif.got.tgz:6055.got - 2010.05.20 11:58:20.
