data_PCOD9563760
_publ_section_title
;
Structure prediction by ZEFSAII (Michael W. Deem and Ramdas Pophale) SiO2 
 PCOD9563760
Probable space group: P 4/M B M
;
_chemical_formula_sum "Si O2"
_cell_formula_units_Z 64
_cell_length_a 24.339438
_cell_length_b 24.339438
_cell_length_c 7.925866
_cell_angle_alpha 90.000000
_cell_angle_beta 90.000000
_cell_angle_gamma 90.000000
_cell_volume 4695.348345
_symmetry_space_group_name_H-M "P 4/M B M"
_symmetry_group_IT_number 127
_symmetry_cell_setting 'tetragonal'
loop_
_space_group_symop_operation_xyz
x,y,z
-y,x,z
-x,-y,z
y,-x,z
1/2+x,1/2-y,-z
1/2-x,1/2+y,-z
1/2+y,1/2+x,-z
1/2-y,1/2-x,-z
-x,-y,-z
y,-x,-z
x,y,-z
-y,x,-z
1/2-x,1/2+y,z
1/2+x,1/2-y,z
1/2-y,1/2-x,z
1/2+y,1/2+x,z
loop_
_atom_site_type_symbol
_atom_site_label
_atom_site_fract_x
_atom_site_fract_y
_atom_site_fract_z
Si Si1 0.263849 0.141843 0.810875
Si Si2 0.378424 0.784194 0.500000
Si Si3 0.840269 0.567265 0.192101
Si Si4 0.353416 0.056547 0.296678
Si Si5 0.289717 0.694674 0.500000
O O1 0.309526 0.190474 0.810720
O O2 0.298563 0.087753 0.764178
O O3 0.221247 0.158446 0.666124
O O4 0.241099 0.137922 0.000000
O O5 0.330056 0.830056 0.500000
O O6 0.413780 0.796728 0.333129
O O7 0.347332 0.726303 0.500000
O O8 0.893355 0.606646 0.213184
O O9 0.856196 0.504289 0.223700
O O10 0.820422 0.574417 0.000000
O O11 0.352588 0.053971 0.500000
O O12 0.404889 0.095112 0.246675
O O13 0.242108 0.742108 0.500000
#
# Coordination Sequence:
#
# PCOD9563760 Si02
#       5
#    16   8  16  16   8
#     4   9  16  26  41  61  81  99 124 162 208 252
#     4   9  18  31  43  56  77 102 135 175 207 243
#     4  10  20  32  44  58  79 110 145 177 210 245
#     4  10  18  29  45  61  81 108 138 176 217 250
#     4   9  16  27  42  59  77  98 126 164 209 251
#
# _framework density 13.630511
#
# number of rings (size 3 to 8) (size 9 to 14) (size 15 to 20)
#    0.000    2.500    2.500    0.750    0.000    3.000 
#    0.000    7.500    0.000    0.000    0.000    0.000 
#    0.000    0.000    0.000    0.000    0.000   10.000 
#
# Total GULP energy -356503.518522 kJ/mol
# GULP energy per Si atom -5570.367477 kJ/mol
# Density = 1.359949 g / cm^3
# Si number density = 13.630511 Si / 1000 Ang^3
#
#
#
# Elastic Constant Matrix: (Units=GPa)
#
#
# Indices 1 2 3 4 5 6 
#
# 1 45.1396 46.1140 47.7573 0.0000 0.0000 0.0000
# 2 46.1140 45.1396 47.7573 0.0000 0.0000 0.0000
# 3 47.7573 47.7573 127.7418 0.0000 0.0000 0.0000
# 4 0.0000 0.0000 0.0000 9.3165 0.0000 0.0000
# 5 0.0000 0.0000 0.0000 0.0000 9.3165 0.0000
# 6 0.0000 0.0000 0.0000 0.0000 0.0000 12.6288
#
#
#
# Elastic Compliance Matrix: (Units=1/GPa)
#
#
# Indices 1 2 3 4 5 6 
#
# 1 -0.504175 0.522179 -0.006731 0.000000 0.000000 0.000000
# 2 0.522179 -0.504175 -0.006731 0.000000 0.000000 0.000000
# 3 -0.006731 -0.006731 0.012861 0.000000 0.000000 0.000000
# 4 0.000000 0.000000 0.000000 0.107336 0.000000 0.000000
# 5 0.000000 0.000000 0.000000 0.000000 0.107336 0.000000
# 6 0.000000 0.000000 0.000000 0.000000 0.000000 0.079184
#
#
# Mechanical properties :
#
#
# Convention : Reuss Voigt Hill
#
# Bulk Modulus (GPa) = 45.56851 55.69758 50.63304
# Shear Modulus (GPa) = -2.92098 11.34520 4.21211
#
# Velocity S-wave (km/s) = -1.46548 2.88816 1.75981
# Velocity P-wave (km/s) = 5.53537 7.21617 6.43092
#
# Compressibility (1/GPa) = 0.02194498
#
# Stress axis : x y z
#
# Youngs Moduli (GPa) = -1.98344 -1.98344 77.75459
#
# Poissons Ratio (x) = 1.03571 0.52335
# Poissons Ratio (y) = 1.03571 0.52335
# Poissons Ratio (z) = -0.01335 -0.01335
#
# Static dielectric constant tensor:
#      x y z
#    x 1.421880 0.000000 0.000000 
#    y 0.000000 1.421880 0.000000 
#    z 0.000000 0.000000 1.481150 
# 
# From -- ./inp_files/1398.got.cif
#   From: 2010.05.17/outbox.cif.g08.bks.cpg/sg127_1_cif.got.tgz:1398.got - 2010.05.20 12:03:00.
