data_PCOD9563584
_publ_section_title
;
Structure prediction by ZEFSAII (Michael W. Deem and Ramdas Pophale) SiO2 
 PCOD9563584
Probable space group: P 4/N N C
;
_chemical_formula_sum "Si O2"
_cell_formula_units_Z 64
_cell_length_a 11.287949
_cell_length_b 11.287949
_cell_length_c 22.696095
_cell_angle_alpha 90.000000
_cell_angle_beta 90.000000
_cell_angle_gamma 90.000000
_cell_volume 2891.886326
_symmetry_space_group_name_H-M "P 4/N N C"
_symmetry_group_IT_number 126
_space_group.IT_coordinate_system_code '2'
_symmetry_cell_setting 'tetragonal'
loop_
_space_group_symop_operation_xyz
x,y,z
1/2-y,x,z
1/2-x,1/2-y,z
y,1/2-x,z
x,1/2-y,1/2-z
1/2-x,y,1/2-z
y,x,1/2-z
1/2-y,1/2-x,1/2-z
-x,-y,-z
1/2+y,-x,-z
1/2+x,1/2+y,-z
-y,1/2+x,-z
-x,1/2+y,1/2+z
1/2+x,-y,1/2+z
-y,-x,1/2+z
1/2+y,1/2+x,1/2+z
loop_
_atom_site_type_symbol
_atom_site_label
_atom_site_fract_x
_atom_site_fract_y
_atom_site_fract_z
Si Si1 0.759101 0.103752 0.657768
Si Si2 0.301795 0.922124 0.022353
Si Si3 0.010134 0.985759 0.186868
Si Si4 0.854692 0.585327 0.074709
O O1 0.750000 0.250000 0.664698
O O2 0.754217 0.070924 0.588180
O O3 0.652050 0.036144 0.691036
O O4 0.884765 0.045813 0.675452
O O5 0.386587 0.808958 0.018485
O O6 0.366648 0.031102 0.990891
O O7 0.952451 0.952451 0.250000
O O8 0.985548 0.909856 0.128434
O O9 0.904369 0.715233 0.082086
#
# Coordination Sequence:
#
# PCOD9563584 Si02
#       4
#    16  16  16  16
#     4  12  26  47  75 109 145 194 250 311 377 450
#     4  11  20  40  70 102 139 184 237 297 378 450
#     4  12  27  47  73 103 143 198 253 304 370 451
#     4  11  25  42  66 106 145 183 236 305 371 451
#
# _framework density 22.130884999999999
#
# number of rings (size 3 to 8) (size 9 to 14) (size 15 to 20)
#    0.000    0.500    5.000    3.750    3.500    7.500 
#    0.000    2.500    0.000    0.000    0.000    0.000 
#    0.000    0.000    0.000    0.000    0.000    0.000 
#
# Total GULP energy -356953.610641 kJ/mol
# GULP energy per Si atom -5577.400166 kJ/mol
# Density = 2.208051 g / cm^3
# Si number density = 22.130885 Si / 1000 Ang^3
#
#
#
# Elastic Constant Matrix: (Units=GPa)
#
#
# Indices 1 2 3 4 5 6 
#
# 1 134.7700 33.3097 30.0432 0.0000 0.0000 0.0000
# 2 33.3097 134.7700 30.0432 0.0000 0.0000 0.0000
# 3 30.0432 30.0432 124.9266 0.0000 0.0000 0.0000
# 4 0.0000 0.0000 0.0000 5.0757 0.0000 0.0000
# 5 0.0000 0.0000 0.0000 0.0000 5.0757 0.0000
# 6 0.0000 0.0000 0.0000 0.0000 0.0000 26.5589
#
#
#
# Elastic Compliance Matrix: (Units=1/GPa)
#
#
# Indices 1 2 3 4 5 6 
#
# 1 0.008183 -0.001673 -0.001565 0.000000 0.000000 0.000000
# 2 -0.001673 0.008183 -0.001565 0.000000 0.000000 0.000000
# 3 -0.001565 -0.001565 0.008758 0.000000 0.000000 0.000000
# 4 0.000000 0.000000 0.000000 0.197015 0.000000 0.000000
# 5 0.000000 0.000000 0.000000 0.000000 0.197015 0.000000
# 6 0.000000 0.000000 0.000000 0.000000 0.000000 0.037652
#
#
# Mechanical properties :
#
#
# Convention : Reuss Voigt Hill
#
# Bulk Modulus (GPa) = 64.45602 64.58429 64.52016
# Shear Modulus (GPa) = 10.60252 27.41344 19.00798
#
# Velocity S-wave (km/s) = 2.19117 3.52333 2.93386
# Velocity P-wave (km/s) = 5.96572 6.76742 6.37918
#
# Compressibility (1/GPa) = 0.01551445
#
# Stress axis : x y z
#
# Youngs Moduli (GPa) = 122.21033 122.21033 114.18656
#
# Poissons Ratio (x) = 0.20451 0.17874
# Poissons Ratio (y) = 0.20451 0.17874
# Poissons Ratio (z) = 0.19130 0.19130
#
# Static dielectric constant tensor:
#      x y z
#    x 1.857640 0.000000 0.000000 
#    y 0.000000 1.857640 0.000000 
#    z 0.000000 0.000000 1.880400 
# 
# From -- ./inp_files/4926.got.cif
#   From: 2010.05.17/outbox.cif.g08.bks.cpg/sg126_3_cif.got.tgz:4926.got - 2010.05.20 11:58:20.
