data_PCOD9563296
_publ_section_title
;
Structure prediction by ZEFSAII (Michael W. Deem and Ramdas Pophale) SiO2 
 PCOD9563296
Probable space group: P 4/N N C
;
_chemical_formula_sum "Si O2"
_cell_formula_units_Z 112
_cell_length_a 24.406556
_cell_length_b 24.406556
_cell_length_c 10.355796
_cell_angle_alpha 90.000000
_cell_angle_beta 90.000000
_cell_angle_gamma 90.000000
_cell_volume 6168.740310
_symmetry_space_group_name_H-M "P 4/N N C"
_symmetry_group_IT_number 126
_space_group.IT_coordinate_system_code '2'
_symmetry_cell_setting 'tetragonal'
loop_
_space_group_symop_operation_xyz
x,y,z
1/2-y,x,z
1/2-x,1/2-y,z
y,1/2-x,z
x,1/2-y,1/2-z
1/2-x,y,1/2-z
y,x,1/2-z
1/2-y,1/2-x,1/2-z
-x,-y,-z
1/2+y,-x,-z
1/2+x,1/2+y,-z
-y,1/2+x,-z
-x,1/2+y,1/2+z
1/2+x,-y,1/2+z
-y,-x,1/2+z
1/2+y,1/2+x,1/2+z
loop_
_atom_site_type_symbol
_atom_site_label
_atom_site_fract_x
_atom_site_fract_y
_atom_site_fract_z
Si Si1 0.521776 0.250000 0.250000
Si Si2 0.344545 0.025422 0.875058
Si Si3 0.068836 0.989129 0.826769
Si Si4 0.382585 0.416289 0.968328
Si Si5 0.869943 0.025667 0.654411
Si Si6 0.590552 0.909449 0.750000
Si Si7 0.757578 0.837437 0.595198
Si Si8 0.952310 0.737505 0.012778
O O1 0.546430 0.189072 0.288771
O O2 0.488527 0.235505 0.118298
O O3 0.377706 0.996597 0.762206
O O4 0.371176 0.086232 0.883744
O O5 0.279234 0.024781 0.881573
O O6 0.359883 0.996048 0.010045
O O7 0.062041 0.924809 0.850589
O O8 0.017757 0.017757 0.750000
O O9 0.079496 0.028833 0.950257
O O10 0.381641 0.394466 0.115062
O O11 0.321886 0.435863 0.935818
O O12 0.890997 0.972191 0.732392
O O13 0.702339 0.806393 0.554912
O O14 0.750000 0.841514 0.750000
O O15 0.764006 0.896246 0.536818
#
# Coordination Sequence:
#
# PCOD9563296 Si02
#       8
#     8  16  16  16  16   8  16  16
#     4  10  20  30  44  77 100 129 162 208 256 310
#     4   9  22  33  47  78  99 133 185 216 255 319
#     4  10  21  36  52  72 102 136 179 217 258 316
#     4  10  21  32  51  72 101 141 175 215 264 309
#     4  10  19  32  53  72 104 131 165 217 258 306
#     4  10  18  30  50  76  94 133 174 196 259 304
#     4   9  17  26  39  62  93 132 176 221 266 302
#     4  11  18  31  46  67 103 134 171 218 264 307
#
# _framework density 18.156057000000001
#
# number of rings (size 3 to 8) (size 9 to 14) (size 15 to 20)
#    0.000    2.143    2.857    1.286    2.000    3.429 
#    0.000    0.000    0.000    0.000    0.000    0.000 
#    0.000   11.429    0.000   12.571    0.000    3.714 
#
# Total GULP energy -623814.408777 kJ/mol
# GULP energy per Si atom -5569.771507 kJ/mol
# Density = 1.811473 g / cm^3
# Si number density = 18.156057 Si / 1000 Ang^3
#
#
#
# Elastic Constant Matrix: (Units=GPa)
#
#
# Indices 1 2 3 4 5 6 
#
# 1 83.2870 26.7862 20.7842 0.0000 0.0000 0.0000
# 2 26.7862 83.2874 20.7841 0.0000 0.0000 0.0000
# 3 20.7842 20.7841 59.3738 0.0000 0.0000 0.0000
# 4 0.0000 0.0000 0.0000 14.9700 0.0000 0.0000
# 5 0.0000 0.0000 0.0000 0.0000 14.9697 0.0000
# 6 0.0000 0.0000 0.0000 0.0000 0.0000 17.8507
#
#
#
# Elastic Compliance Matrix: (Units=1/GPa)
#
#
# Indices 1 2 3 4 5 6 
#
# 1 0.014084 -0.003615 -0.003665 0.000000 0.000000 0.000000
# 2 -0.003615 0.014084 -0.003665 0.000000 0.000000 0.000000
# 3 -0.003665 -0.003665 0.019408 0.000000 0.000000 0.000000
# 4 0.000000 0.000000 0.000000 0.066800 0.000000 0.000000
# 5 0.000000 0.000000 0.000000 0.000000 0.066802 0.000000
# 6 0.000000 0.000000 0.000000 0.000000 0.000000 0.056020
#
#
# Mechanical properties :
#
#
# Convention : Reuss Voigt Hill
#
# Bulk Modulus (GPa) = 38.93013 40.29523 39.61268
# Shear Modulus (GPa) = 18.68120 20.06432 19.37276
#
# Velocity S-wave (km/s) = 3.21116 3.32792 3.27006
# Velocity P-wave (km/s) = 5.93610 6.08348 6.01024
#
# Compressibility (1/GPa) = 0.02568705
#
# Stress axis : x y z
#
# Youngs Moduli (GPa) = 71.00338 71.00386 51.52482
#
# Poissons Ratio (x) = 0.25668 0.18882
# Poissons Ratio (y) = 0.25668 0.18882
# Poissons Ratio (z) = 0.26021 0.26020
#
# Static dielectric constant tensor:
#      x y z
#    x 1.661240 0.000000 0.000000 
#    y 0.000000 1.661240 0.000000 
#    z 0.000000 0.000000 1.676700 
# 
# From -- ./inp_files/3059.got.cif
#   From: 2010.05.17/outbox.cif.g08.bks.cpg/sg126_2_cif.got.tgz:3059.got - 2010.05.20 11:58:20.
