data_PCOD9563959
_publ_section_title
;
Structure prediction by ZEFSAII (Michael W. Deem and Ramdas Pophale) SiO2 
 PCOD9563959
Probable space group: P 4/M B M
;
_chemical_formula_sum "Si O2"
_cell_formula_units_Z 96
_cell_length_a 14.981495
_cell_length_b 14.981495
_cell_length_c 22.201323
_cell_angle_alpha 90.000000
_cell_angle_beta 90.000000
_cell_angle_gamma 90.000000
_cell_volume 4982.980213
_symmetry_space_group_name_H-M "P 4/M B M"
_symmetry_group_IT_number 127
_symmetry_cell_setting 'tetragonal'
loop_
_space_group_symop_operation_xyz
x,y,z
-y,x,z
-x,-y,z
y,-x,z
1/2+x,1/2-y,-z
1/2-x,1/2+y,-z
1/2+y,1/2+x,-z
1/2-y,1/2-x,-z
-x,-y,-z
y,-x,-z
x,y,-z
-y,x,-z
1/2-x,1/2+y,z
1/2+x,1/2-y,z
1/2-y,1/2-x,z
1/2+y,1/2+x,z
loop_
_atom_site_type_symbol
_atom_site_label
_atom_site_fract_x
_atom_site_fract_y
_atom_site_fract_z
Si Si1 0.822630 0.174265 0.832519
Si Si2 0.749769 0.100188 0.384691
Si Si3 0.574630 0.074630 0.932725
Si Si4 0.351311 0.468449 0.500000
Si Si5 0.852916 0.496395 0.719998
Si Si6 0.766706 0.498798 0.147356
Si Si7 0.393751 0.392669 0.294051
O O1 0.732328 0.232328 0.833229
O O2 0.806401 0.076287 0.858575
O O3 0.853382 0.154807 0.764267
O O4 0.901346 0.227979 0.864668
O O5 0.677024 0.177024 0.399053
O O6 0.836302 0.140671 0.350469
O O7 0.789571 0.049560 0.442054
O O8 0.702816 0.032781 0.336819
O O9 0.653844 0.029981 0.895128
O O10 0.500000 0.000000 0.938127
O O11 0.602987 0.102987 0.000000
O O12 0.434213 0.397885 0.500000
O O13 0.900989 0.400989 0.710702
O O14 0.800397 0.497259 0.783112
O O15 0.931052 0.568949 0.728001
O O16 0.499923 0.380616 0.294124
#
# Coordination Sequence:
#
# PCOD9563959 Si02
#       7
#    16  16   8   8  16  16  16
#     4  12  22  36  60  95 134 173 219 276 339 398
#     4  11  22  39  61  90 123 159 208 273 331 391
#     4  11  24  46  72  98 132 180 240 292 338 405
#     4  11  25  46  66  81 111 165 218 261 322 407
#     4  10  19  35  61  91 126 166 210 264 330 389
#     4  12  23  39  64  99 137 178 221 278 339 405
#     4  11  21  35  56  88 129 172 211 259 325 401
#
# _framework density 19.265578000000001
#
# number of rings (size 3 to 8) (size 9 to 14) (size 15 to 20)
#    0.000    0.833    5.000    3.250    0.000    1.667 
#    0.000    7.083    0.000    2.000    0.000    1.167 
#    0.000    0.000    0.000    0.000    0.000    0.000 
#
# Total GULP energy -536215.300657 kJ/mol
# GULP energy per Si atom -5585.576049 kJ/mol
# Density = 1.922173 g / cm^3
# Si number density = 19.265578 Si / 1000 Ang^3
#
#
#
# Elastic Constant Matrix: (Units=GPa)
#
#
# Indices 1 2 3 4 5 6 
#
# 1 87.6597 20.3351 26.7567 0.0000 0.0000 0.0000
# 2 20.3351 87.6597 26.7567 0.0000 0.0000 0.0000
# 3 26.7567 26.7567 84.1702 0.0000 0.0000 0.0000
# 4 0.0000 0.0000 0.0000 12.2391 0.0000 0.0000
# 5 0.0000 0.0000 0.0000 0.0000 12.2391 0.0000
# 6 0.0000 0.0000 0.0000 0.0000 0.0000 31.8073
#
#
#
# Elastic Compliance Matrix: (Units=1/GPa)
#
#
# Indices 1 2 3 4 5 6 
#
# 1 0.012922 -0.001931 -0.003494 0.000000 0.000000 0.000000
# 2 -0.001931 0.012922 -0.003494 0.000000 0.000000 0.000000
# 3 -0.003494 -0.003494 0.014102 0.000000 0.000000 0.000000
# 4 0.000000 0.000000 0.000000 0.081706 0.000000 0.000000
# 5 0.000000 0.000000 0.000000 0.000000 0.081706 0.000000
# 6 0.000000 0.000000 0.000000 0.000000 0.000000 0.031439
#
#
# Mechanical properties :
#
#
# Convention : Reuss Voigt Hill
#
# Bulk Modulus (GPa) = 45.23169 45.24297 45.23733
# Shear Modulus (GPa) = 19.23043 23.63316 21.43179
#
# Velocity S-wave (km/s) = 3.16282 3.50623 3.33894
# Velocity P-wave (km/s) = 6.07181 6.31873 6.19650
#
# Compressibility (1/GPa) = 0.02210839
#
# Stress axis : x y z
#
# Youngs Moduli (GPa) = 77.38618 77.38618 70.91169
#
# Poissons Ratio (x) = 0.14945 0.24776
# Poissons Ratio (y) = 0.14945 0.24776
# Poissons Ratio (z) = 0.27038 0.27038
#
# Static dielectric constant tensor:
#      x y z
#    x 1.703860 0.000000 0.000000 
#    y 0.000000 1.703860 0.000000 
#    z 0.000000 0.000000 1.674760 
# 
# From -- ./inp_files/5842.got.cif
#   From: 2010.05.17/outbox.cif.g08.bks.cpg/sg127_3_cif.got.tgz:5842.got - 2010.05.20 12:03:00.
