data_PCOD9563136
_publ_section_title
;
Structure prediction by ZEFSAII (Michael W. Deem and Ramdas Pophale) SiO2 
 PCOD9563136
Probable space group: P 4/N B M
;
_chemical_formula_sum "Si O2"
_cell_formula_units_Z 40
_cell_length_a 14.459024
_cell_length_b 14.459024
_cell_length_c 8.052556
_cell_angle_alpha 90.000000
_cell_angle_beta 90.000000
_cell_angle_gamma 90.000000
_cell_volume 1683.494535
_symmetry_space_group_name_H-M "P 4/N B M"
_symmetry_group_IT_number 125
_space_group.IT_coordinate_system_code '2'
_symmetry_cell_setting 'tetragonal'
loop_
_space_group_symop_operation_xyz
x,y,z
1/2-y,x,z
1/2-x,1/2-y,z
y,1/2-x,z
x,1/2-y,-z
1/2-x,y,-z
y,x,-z
1/2-y,1/2-x,-z
-x,-y,-z
1/2+y,-x,-z
1/2+x,1/2+y,-z
-y,1/2+x,-z
-x,1/2+y,z
1/2+x,-y,z
-y,-x,z
1/2+y,1/2+x,z
loop_
_atom_site_type_symbol
_atom_site_label
_atom_site_fract_x
_atom_site_fract_y
_atom_site_fract_z
Si Si1 0.106189 0.753699 0.198799
Si Si2 0.612795 0.956219 0.829404
Si Si3 0.859820 0.640181 0.500000
O O1 0.145322 0.854679 0.250741
O O2 0.178352 0.678352 0.272269
O O3 0.004360 0.711637 0.211327
O O4 0.117489 0.750000 0.000000
O O5 0.592747 0.899016 0.665049
O O6 0.540627 0.040627 0.848138
O O7 0.602245 0.897756 0.000000
O O8 0.873910 0.750000 0.500000
#
# Coordination Sequence:
#
# PCOD9563136 Si02
#       3
#    16  16   8
#     4   8  15  30  57  96 135 168 210 269 335 408
#     4  10  22  41  70 102 132 173 223 281 352 425
#     4  11  27  46  62  86 129 179 228 284 336 407
#
# _framework density 23.760100000000001
#
# number of rings (size 3 to 8) (size 9 to 14) (size 15 to 20)
#    0.000    2.600    0.000    1.800    5.600    0.000 
#    0.000    4.000    0.000    2.400    0.000   11.200 
#    0.000    0.000    0.000    0.000    0.000    0.000 
#
# Total GULP energy -222854.359040 kJ/mol
# GULP energy per Si atom -5571.358976 kJ/mol
# Density = 2.370602 g / cm^3
# Si number density = 23.760100 Si / 1000 Ang^3
#
#
#
# Elastic Constant Matrix: (Units=GPa)
#
#
# Indices 1 2 3 4 5 6 
#
# 1 57.4908 83.3675 39.7955 0.0000 0.0000 0.0000
# 2 83.3675 57.4924 39.7954 0.0000 0.0000 0.0000
# 3 39.7955 39.7954 127.4110 0.0000 0.0000 0.0000
# 4 0.0000 0.0000 0.0000 19.0966 0.0000 0.0000
# 5 0.0000 0.0000 0.0000 0.0000 19.0975 0.0000
# 6 0.0000 0.0000 0.0000 0.0000 0.0000 24.6955
#
#
#
# Elastic Compliance Matrix: (Units=1/GPa)
#
#
# Indices 1 2 3 4 5 6 
#
# 1 -0.015013 0.023633 -0.002692 0.000000 0.000000 0.000000
# 2 0.023633 -0.015012 -0.002693 0.000000 0.000000 0.000000
# 3 -0.002692 -0.002693 0.009531 0.000000 0.000000 0.000000
# 4 0.000000 0.000000 0.000000 0.052365 0.000000 0.000000
# 5 0.000000 0.000000 0.000000 0.000000 0.052363 0.000000
# 6 0.000000 0.000000 0.000000 0.000000 0.000000 0.040493
#
#
# Mechanical properties :
#
#
# Convention : Reuss Voigt Hill
#
# Bulk Modulus (GPa) = 62.49337 63.14565 62.81951
# Shear Modulus (GPa) = 53.43927 17.87365 35.65646
#
# Velocity S-wave (km/s) = 4.74763 2.74570 3.87807
# Velocity P-wave (km/s) = 7.51081 6.05689 6.82269
#
# Compressibility (1/GPa) = 0.01600170
#
# Stress axis : x y z
#
# Youngs Moduli (GPa) = -66.60931 -66.61171 104.92503
#
# Poissons Ratio (x) = 1.57426 0.28251
# Poissons Ratio (y) = 1.57420 0.28253
# Poissons Ratio (z) = -0.17934 -0.17936
#
# Static dielectric constant tensor:
#      x y z
#    x 2.025650 0.000000 0.000000 
#    y 0.000000 2.025640 0.000000 
#    z 0.000000 0.000000 1.867930 
# 
# From -- ./inp_files/1654.got.cif
#   From: 2010.05.17/outbox.cif.g08.bks.cpg/sg125_1_cif.got.tgz:1654.got - 2010.05.20 11:54:10.
