data_PCOD9563279
_publ_section_title
;
Structure prediction by ZEFSAII (Michael W. Deem and Ramdas Pophale) SiO2 
 PCOD9563279
Probable space group: P 4/N N C
;
_chemical_formula_sum "Si O2"
_cell_formula_units_Z 56
_cell_length_a 16.621085
_cell_length_b 16.621085
_cell_length_c 10.542525
_cell_angle_alpha 90.000000
_cell_angle_beta 90.000000
_cell_angle_gamma 90.000000
_cell_volume 2912.482875
_symmetry_space_group_name_H-M "P 4/N N C"
_symmetry_group_IT_number 126
_space_group.IT_coordinate_system_code '2'
_symmetry_cell_setting 'tetragonal'
loop_
_space_group_symop_operation_xyz
x,y,z
1/2-y,x,z
1/2-x,1/2-y,z
y,1/2-x,z
x,1/2-y,1/2-z
1/2-x,y,1/2-z
y,x,1/2-z
1/2-y,1/2-x,1/2-z
-x,-y,-z
1/2+y,-x,-z
1/2+x,1/2+y,-z
-y,1/2+x,-z
-x,1/2+y,1/2+z
1/2+x,-y,1/2+z
-y,-x,1/2+z
1/2+y,1/2+x,1/2+z
loop_
_atom_site_type_symbol
_atom_site_label
_atom_site_fract_x
_atom_site_fract_y
_atom_site_fract_z
Si Si1 0.750000 0.587878 0.750000
Si Si2 0.365112 0.193575 0.519092
Si Si3 0.094060 0.524577 0.981861
Si Si4 0.609821 0.026910 0.736991
O O1 0.705085 0.633229 0.635339
O O2 0.816331 0.527755 0.690782
O O3 0.354129 0.285717 0.562654
O O4 0.445755 0.146319 0.551001
O O5 0.965059 0.534942 0.750000
O O6 0.092794 0.586408 0.866000
O O7 0.124087 0.555337 0.118877
O O8 0.500000 0.000000 0.000000
#
# Coordination Sequence:
#
# PCOD9563279 Si02
#       4
#     8  16  16  16
#     4  10  16  27  48  78 106 131 166 210 260 305
#     4  10  18  27  45  75 108 135 163 206 258 313
#     4   9  17  30  47  68  97 135 170 202 241 295
#     4   9  17  29  49  71 100 133 166 205 245 297
#
# _framework density 19.227582000000002
#
# number of rings (size 3 to 8) (size 9 to 14) (size 15 to 20)
#    0.000    2.571    0.000    6.000    0.000    1.143 
#    0.000    0.000    0.000   46.286    0.000   30.000 
#    0.000  275.429    0.000    0.000    0.000    0.000 
#
# Total GULP energy -311912.381223 kJ/mol
# GULP energy per Si atom -5569.863950 kJ/mol
# Density = 1.918382 g / cm^3
# Si number density = 19.227582 Si / 1000 Ang^3
#
#
#
# Elastic Constant Matrix: (Units=GPa)
#
#
# Indices 1 2 3 4 5 6 
#
# 1 61.7102 52.8345 32.7029 0.0000 0.0000 0.0000
# 2 52.8345 61.7094 32.7028 0.0000 0.0000 0.0000
# 3 32.7029 32.7028 53.6704 0.0000 0.0000 0.0000
# 4 0.0000 0.0000 0.0000 20.5281 0.0000 0.0000
# 5 0.0000 0.0000 0.0000 0.0000 20.5284 0.0000
# 6 0.0000 0.0000 0.0000 0.0000 0.0000 42.6461
#
#
#
# Elastic Compliance Matrix: (Units=1/GPa)
#
#
# Indices 1 2 3 4 5 6 
#
# 1 0.063030 -0.049642 -0.008158 0.000000 0.000000 0.000000
# 2 -0.049642 0.063031 -0.008158 0.000000 0.000000 0.000000
# 3 -0.008158 -0.008158 0.028574 0.000000 0.000000 0.000000
# 4 0.000000 0.000000 0.000000 0.048714 0.000000 0.000000
# 5 0.000000 0.000000 0.000000 0.000000 0.048713 0.000000
# 6 0.000000 0.000000 0.000000 0.000000 0.000000 0.023449
#
#
# Mechanical properties :
#
#
# Convention : Reuss Voigt Hill
#
# Bulk Modulus (GPa) = 44.01582 45.95225 44.98404
# Shear Modulus (GPa) = 12.04825 20.66384 16.35604
#
# Velocity S-wave (km/s) = 2.50594 3.28181 2.91976
# Velocity P-wave (km/s) = 5.59595 6.18962 5.90026
#
# Compressibility (1/GPa) = 0.02271910
#
# Stress axis : x y z
#
# Youngs Moduli (GPa) = 15.86553 15.86532 34.99676
#
# Poissons Ratio (x) = 0.78758 0.28550
# Poissons Ratio (y) = 0.78759 0.28551
# Poissons Ratio (z) = 0.12943 0.12943
#
# Static dielectric constant tensor:
#      x y z
#    x 1.721240 0.000000 0.000000 
#    y 0.000000 1.721220 0.000000 
#    z 0.000000 0.000000 1.829050 
# 
# From -- ./inp_files/1299.got.cif
#   From: 2010.05.17/outbox.cif.g08.bks.cpg/sg126_1_cif.got.tgz:1299.got - 2010.05.20 11:58:20.
