data_PCOD9563817
_publ_section_title
;
Structure prediction by ZEFSAII (Michael W. Deem and Ramdas Pophale) SiO2 
 PCOD9563817
Probable space group: P 4/M B M
;
_chemical_formula_sum "Si O2"
_cell_formula_units_Z 112
_cell_length_a 26.195067
_cell_length_b 26.195067
_cell_length_c 7.232460
_cell_angle_alpha 90.000000
_cell_angle_beta 90.000000
_cell_angle_gamma 90.000000
_cell_volume 4962.780506
_symmetry_space_group_name_H-M "P 4/M B M"
_symmetry_group_IT_number 127
_symmetry_cell_setting 'tetragonal'
loop_
_space_group_symop_operation_xyz
x,y,z
-y,x,z
-x,-y,z
y,-x,z
1/2+x,1/2-y,-z
1/2-x,1/2+y,-z
1/2+y,1/2+x,-z
1/2-y,1/2-x,-z
-x,-y,-z
y,-x,-z
x,y,-z
-y,x,-z
1/2-x,1/2+y,z
1/2+x,1/2-y,z
1/2-y,1/2-x,z
1/2+y,1/2+x,z
loop_
_atom_site_type_symbol
_atom_site_label
_atom_site_fract_x
_atom_site_fract_y
_atom_site_fract_z
Si Si1 0.597076 0.981155 0.724376
Si Si2 0.103069 0.682027 0.723774
Si Si3 0.444693 0.727909 0.273816
Si Si4 0.843183 0.579050 0.724986
Si Si5 0.070527 0.958226 0.222683
Si Si6 0.560888 0.708056 0.274705
Si Si7 0.627064 0.355675 0.704506
O O1 0.594619 0.983218 0.500000
O O2 0.544133 0.955868 0.786170
O O3 0.641587 0.940862 0.772613
O O4 0.616715 0.035755 0.784934
O O5 0.104329 0.683763 0.500000
O O6 0.156654 0.656654 0.783772
O O7 0.086023 0.738067 0.781944
O O8 0.444451 0.726121 0.500000
O O9 0.437114 0.786637 0.217657
O O10 0.501151 0.707466 0.215870
O O11 0.394575 0.696372 0.210042
O O12 0.842057 0.578247 0.500000
O O13 0.866337 0.633664 0.779998
O O14 0.115263 0.926790 0.308146
O O15 0.016968 0.932654 0.275832
O O16 0.074416 0.956321 0.000000
O O17 0.559213 0.705367 0.500000
O O18 0.601023 0.664346 0.213021
O O19 0.648055 0.343814 0.500000
#
# Coordination Sequence:
#
# PCOD9563817 Si02
#       7
#    16  16  16  16  16  16  16
#     4   8  12  18  29  45  65  93 133 174 207 248
#     4   8  12  19  32  48  67  95 131 168 208 251
#     4   9  16  26  36  50  76 104 133 173 216 252
#     4   9  15  22  32  46  69 104 139 171 214 260
#     4   9  18  32  47  63  86 113 137 170 222 270
#     4   9  15  24  37  52  74 103 133 171 217 250
#     4  10  19  28  42  64  85 111 148 179 201 239
#
# _framework density 22.567996000000001
#
# number of rings (size 3 to 8) (size 9 to 14) (size 15 to 20)
#    0.000    3.143    1.429    2.143    0.000    2.000 
#    0.000    2.857    0.000    4.286    0.000    0.000 
#    0.000    2.286    0.000    0.000    0.000    0.857 
#
# Total GULP energy -624611.318908 kJ/mol
# GULP energy per Si atom -5576.886776 kJ/mol
# Density = 2.251663 g / cm^3
# Si number density = 22.567996 Si / 1000 Ang^3
#
#
#
# Elastic Constant Matrix: (Units=GPa)
#
#
# Indices 1 2 3 4 5 6 
#
# 1 79.1846 121.7481 2.2226 0.0000 0.0000 0.0000
# 2 121.7481 79.1846 2.2226 0.0000 0.0000 0.0000
# 3 2.2226 2.2226 102.7722 0.0000 0.0000 0.0000
# 4 0.0000 0.0000 0.0000 -1.6863 0.0000 0.0000
# 5 0.0000 0.0000 0.0000 0.0000 -1.6863 0.0000
# 6 0.0000 0.0000 0.0000 0.0000 0.0000 40.9189
#
#
#
# Elastic Compliance Matrix: (Units=1/GPa)
#
#
# Indices 1 2 3 4 5 6 
#
# 1 -0.009258 0.014237 -0.000108 0.000000 0.000000 0.000000
# 2 0.014237 -0.009258 -0.000108 0.000000 0.000000 0.000000
# 3 -0.000108 -0.000108 0.009735 0.000000 0.000000 0.000000
# 4 0.000000 0.000000 0.000000 -0.593008 0.000000 0.000000
# 5 0.000000 0.000000 0.000000 0.000000 -0.593008 0.000000
# 6 0.000000 0.000000 0.000000 0.000000 0.000000 0.024439
#
#
# Mechanical properties :
#
#
# Convention : Reuss Voigt Hill
#
# Bulk Modulus (GPa) = 51.91427 57.05868 54.48647
# Shear Modulus (GPa) = -4.19470 16.50579 6.15554
#
# Velocity S-wave (km/s) = -1.36482 2.70734 1.65332
# Velocity P-wave (km/s) = 4.53539 5.92544 5.27639
#
# Compressibility (1/GPa) = 0.01926253
#
# Stress axis : x y z
#
# Youngs Moduli (GPa) = -108.01978 -108.01978 102.72307
#
# Poissons Ratio (x) = 1.53785 0.01106
# Poissons Ratio (y) = 1.53785 0.01106
# Poissons Ratio (z) = -0.01163 -0.01163
#
# Static dielectric constant tensor:
#      x y z
#    x 1.825190 0.000000 0.000000 
#    y 0.000000 1.825190 0.000000 
#    z 0.000000 0.000000 1.879270 
# 
# From -- ./inp_files/3761.got.cif
#   From: 2010.05.17/outbox.cif.g08.bks.cpg/sg127_2_cif.got.tgz:3761.got - 2010.05.20 12:03:00.
