data_PCOD9563032
_publ_section_title
;
Structure prediction by ZEFSAII (Michael W. Deem and Ramdas Pophale) SiO2 
 PCOD9563032
Probable space group: P 4/N B M
;
_chemical_formula_sum "Si O2"
_cell_formula_units_Z 72
_cell_length_a 18.215153
_cell_length_b 18.215153
_cell_length_c 10.096191
_cell_angle_alpha 90.000000
_cell_angle_beta 90.000000
_cell_angle_gamma 90.000000
_cell_volume 3349.833373
_symmetry_space_group_name_H-M "P 4/N B M"
_symmetry_group_IT_number 125
_space_group.IT_coordinate_system_code '2'
_symmetry_cell_setting 'tetragonal'
loop_
_space_group_symop_operation_xyz
x,y,z
1/2-y,x,z
1/2-x,1/2-y,z
y,1/2-x,z
x,1/2-y,-z
1/2-x,y,-z
y,x,-z
1/2-y,1/2-x,-z
-x,-y,-z
1/2+y,-x,-z
1/2+x,1/2+y,-z
-y,1/2+x,-z
-x,1/2+y,z
1/2+x,-y,z
-y,-x,z
1/2+y,1/2+x,z
loop_
_atom_site_type_symbol
_atom_site_label
_atom_site_fract_x
_atom_site_fract_y
_atom_site_fract_z
Si Si1 0.662020 0.662020 0.500000
Si Si2 0.614800 0.385201 0.465975
Si Si3 0.983759 0.483759 0.847003
Si Si4 0.907678 0.092323 0.756911
Si Si5 0.687753 0.312248 0.222276
Si Si6 0.648623 0.531595 0.316889
Si Si7 0.534337 0.240795 0.144404
O O1 0.750000 0.650090 0.500000
O O2 0.636045 0.611809 0.376203
O O3 0.624332 0.375669 0.621166
O O4 0.665219 0.334782 0.372232
O O5 0.632294 0.469392 0.427252
O O6 0.901902 0.506424 0.806577
O O7 0.030971 0.530971 0.741354
O O8 0.000000 0.500000 0.000000
O O9 0.945241 0.156960 0.835981
O O10 0.750000 0.250000 0.215269
O O11 0.612531 0.283696 0.156108
O O12 0.729979 0.517574 0.261084
O O13 0.501165 0.250000 0.000000
#
# Coordination Sequence:
#
# PCOD9563032 Si02
#       7
#     8   8   8   8   8  16  16
#     4  11  26  45  70  96 128 167 226 283 358 412
#     4   9  22  39  61  97 130 168 216 267 327 397
#     4  11  23  42  67 101 130 172 223 273 325 396
#     4  12  23  36  66  93 124 176 222 271 331 393
#     4  10  20  37  54  87 139 183 216 264 316 394
#     4  10  23  43  67  94 137 167 213 280 334 393
#     4  11  23  39  60  94 131 179 221 262 326 404
#
# _framework density 21.493607000000001
#
# number of rings (size 3 to 8) (size 9 to 14) (size 15 to 20)
#    0.000    1.444    1.111    4.000    6.222    4.444 
#    2.000    0.000    0.000    0.000    0.000    0.000 
#    0.000    0.000    0.000    0.000    0.000    0.000 
#
# Total GULP energy -402323.830036 kJ/mol
# GULP energy per Si atom -5587.830973 kJ/mol
# Density = 2.144469 g / cm^3
# Si number density = 21.493607 Si / 1000 Ang^3
#
#
#
# Elastic Constant Matrix: (Units=GPa)
#
#
# Indices 1 2 3 4 5 6 
#
# 1 98.9986 2.4285 14.5762 0.0000 0.0000 0.0000
# 2 2.4285 98.9986 14.5762 0.0000 0.0000 0.0000
# 3 14.5762 14.5762 87.8557 0.0000 0.0000 0.0000
# 4 0.0000 0.0000 0.0000 19.3866 0.0000 0.0000
# 5 0.0000 0.0000 0.0000 0.0000 19.3866 0.0000
# 6 0.0000 0.0000 0.0000 0.0000 0.0000 27.1275
#
#
#
# Elastic Compliance Matrix: (Units=1/GPa)
#
#
# Indices 1 2 3 4 5 6 
#
# 1 0.010354 -0.000001 -0.001718 0.000000 0.000000 0.000000
# 2 -0.000001 0.010354 -0.001718 0.000000 0.000000 0.000000
# 3 -0.001718 -0.001718 0.011952 0.000000 0.000000 0.000000
# 4 0.000000 0.000000 0.000000 0.051582 0.000000 0.000000
# 5 0.000000 0.000000 0.000000 0.000000 0.051582 0.000000
# 6 0.000000 0.000000 0.000000 0.000000 0.000000 0.036863
#
#
# Mechanical properties :
#
#
# Convention : Reuss Voigt Hill
#
# Bulk Modulus (GPa) = 38.77838 38.77940 38.77889
# Shear Modulus (GPa) = 26.57368 30.13161 28.35265
#
# Velocity S-wave (km/s) = 3.52000 3.74824 3.63591
# Velocity P-wave (km/s) = 5.88230 6.06744 5.97559
#
# Compressibility (1/GPa) = 0.02578757
#
# Stress axis : x y z
#
# Youngs Moduli (GPa) = 96.58028 96.58028 83.66614
#
# Poissons Ratio (x) = 0.00010 0.14371
# Poissons Ratio (y) = 0.00010 0.14371
# Poissons Ratio (z) = 0.16589 0.16589
#
# Static dielectric constant tensor:
#      x y z
#    x 1.821860 0.000000 0.000000 
#    y 0.000000 1.821860 0.000000 
#    z 0.000000 0.000000 1.751270 
# 
# From -- ./inp_files/2656.got.cif
#   From: 2010.05.17/outbox.cif.g08.bks.cpg/sg125_2_cif.got.tgz:2656.got - 2010.05.20 11:54:10.
