data_PCOD9563820
_publ_section_title
;
Structure prediction by ZEFSAII (Michael W. Deem and Ramdas Pophale) SiO2 
 PCOD9563820
Probable space group: P 4/M B M
;
_chemical_formula_sum "Si O2"
_cell_formula_units_Z 64
_cell_length_a 19.746858
_cell_length_b 19.746858
_cell_length_c 9.574654
_cell_angle_alpha 90.000000
_cell_angle_beta 90.000000
_cell_angle_gamma 90.000000
_cell_volume 3733.525270
_symmetry_space_group_name_H-M "P 4/M B M"
_symmetry_group_IT_number 127
_symmetry_cell_setting 'tetragonal'
loop_
_space_group_symop_operation_xyz
x,y,z
-y,x,z
-x,-y,z
y,-x,z
1/2+x,1/2-y,-z
1/2-x,1/2+y,-z
1/2+y,1/2+x,-z
1/2-y,1/2-x,-z
-x,-y,-z
y,-x,-z
x,y,-z
-y,x,-z
1/2-x,1/2+y,z
1/2+x,1/2-y,z
1/2-y,1/2-x,z
1/2+y,1/2+x,z
loop_
_atom_site_type_symbol
_atom_site_label
_atom_site_fract_x
_atom_site_fract_y
_atom_site_fract_z
Si Si1 0.823907 0.101159 0.767182
Si Si2 0.588371 0.573278 0.500000
Si Si3 0.021189 0.111511 0.000000
Si Si4 0.442878 0.170115 0.000000
Si Si5 0.784326 0.830349 0.000000
Si Si6 0.817312 0.573257 0.159436
O O1 0.872698 0.100838 0.635442
O O2 0.845237 0.037114 0.863743
O O3 0.831273 0.167328 0.864356
O O4 0.744344 0.090593 0.739528
O O5 0.508925 0.591685 0.500000
O O6 0.949049 0.076309 0.000000
O O7 0.396096 0.236252 0.000000
O O8 0.494076 0.169685 0.132307
O O9 0.394293 0.105708 0.000000
O O10 0.735099 0.764902 0.000000
O O11 0.884147 0.615854 0.192196
O O12 0.795234 0.595427 0.000000
#
# Coordination Sequence:
#
# PCOD9563820 Si02
#       6
#    16   8   8   8   8  16
#     4  11  21  33  57  73 110 150 183 231 282 330
#     4  11  26  40  51  80 118 153 196 239 275 331
#     4  10  19  28  46  74  98 131 177 221 271 331
#     4   9  18  29  52  88 116 139 169 226 290 342
#     4  10  20  34  56  86 114 137 184 238 287 347
#     4   9  18  32  52  79 109 137 177 225 275 338
#
# _framework density 17.141976
#
# number of rings (size 3 to 8) (size 9 to 14) (size 15 to 20)
#    0.750    1.250    2.500    2.250   10.500    3.000 
#    0.000    2.500    0.000    0.000    0.000    0.875 
#    0.000    2.000    0.000    0.000    0.000    0.000 
#
# Total GULP energy -356657.070884 kJ/mol
# GULP energy per Si atom -5572.766733 kJ/mol
# Density = 1.710296 g / cm^3
# Si number density = 17.141976 Si / 1000 Ang^3
#
#
#
# Elastic Constant Matrix: (Units=GPa)
#
#
# Indices 1 2 3 4 5 6 
#
# 1 122.7402 63.1937 31.4386 0.0000 0.0000 0.0000
# 2 63.1937 122.7391 31.4370 0.0000 0.0000 0.0000
# 3 31.4386 31.4370 73.7924 0.0000 0.0000 0.0000
# 4 0.0000 0.0000 0.0000 13.6173 0.0000 0.0000
# 5 0.0000 0.0000 0.0000 0.0000 13.6187 0.0000
# 6 0.0000 0.0000 0.0000 0.0000 0.0000 25.8970
#
#
#
# Elastic Compliance Matrix: (Units=1/GPa)
#
#
# Indices 1 2 3 4 5 6 
#
# 1 0.011539 -0.005255 -0.002677 0.000000 0.000000 0.000000
# 2 -0.005255 0.011539 -0.002677 0.000000 0.000000 0.000000
# 3 -0.002677 -0.002677 0.015832 0.000000 0.000000 0.000000
# 4 0.000000 0.000000 0.000000 0.073436 0.000000 0.000000
# 5 0.000000 0.000000 0.000000 0.000000 0.073429 0.000000
# 6 0.000000 0.000000 0.000000 0.000000 0.000000 0.038614
#
#
# Mechanical properties :
#
#
# Convention : Reuss Voigt Hill
#
# Bulk Modulus (GPa) = 56.52388 63.49001 60.00694
# Shear Modulus (GPa) = 19.88040 23.50676 21.69358
#
# Velocity S-wave (km/s) = 3.40920 3.70712 3.56128
# Velocity P-wave (km/s) = 6.96724 7.44593 7.21056
#
# Compressibility (1/GPa) = 0.01769164
#
# Stress axis : x y z
#
# Youngs Moduli (GPa) = 86.66522 86.66545 63.16132
#
# Poissons Ratio (x) = 0.45544 0.16909
# Poissons Ratio (y) = 0.45544 0.16907
# Poissons Ratio (z) = 0.23202 0.23198
#
# Static dielectric constant tensor:
#      x y z
#    x 1.598710 0.000000 0.000000 
#    y 0.000000 1.598710 0.000000 
#    z 0.000000 0.000000 1.580140 
# 
# From -- ./inp_files/1479.got.cif
#   From: 2010.05.17/outbox.cif.g08.bks.cpg/sg127_1_cif.got.tgz:1479.got - 2010.05.20 12:03:00.
