data_PCOD9563757
_publ_section_title
;
Structure prediction by ZEFSAII (Michael W. Deem and Ramdas Pophale) SiO2 
 PCOD9563757
Probable space group: P 4/M B M
;
_chemical_formula_sum "Si O2"
_cell_formula_units_Z 96
_cell_length_a 23.681343
_cell_length_b 23.681343
_cell_length_c 7.633524
_cell_angle_alpha 90.000000
_cell_angle_beta 90.000000
_cell_angle_gamma 90.000000
_cell_volume 4280.926108
_symmetry_space_group_name_H-M "P 4/M B M"
_symmetry_group_IT_number 127
_symmetry_cell_setting 'tetragonal'
loop_
_space_group_symop_operation_xyz
x,y,z
-y,x,z
-x,-y,z
y,-x,z
1/2+x,1/2-y,-z
1/2-x,1/2+y,-z
1/2+y,1/2+x,-z
1/2-y,1/2-x,-z
-x,-y,-z
y,-x,-z
x,y,-z
-y,x,-z
1/2-x,1/2+y,z
1/2+x,1/2-y,z
1/2-y,1/2-x,z
1/2+y,1/2+x,z
loop_
_atom_site_type_symbol
_atom_site_label
_atom_site_fract_x
_atom_site_fract_y
_atom_site_fract_z
Si Si1 0.342693 0.417670 0.283979
Si Si2 0.066366 0.566366 0.298974
Si Si3 0.778511 0.633816 0.704974
Si Si4 0.656670 0.843331 0.800875
Si Si5 0.431049 0.237263 0.788203
Si Si6 0.145644 0.471678 0.793475
Si Si7 0.956427 0.141161 0.695030
O O1 0.339813 0.418880 0.500000
O O2 0.281980 0.390972 0.225690
O O3 0.398974 0.384306 0.227944
O O4 0.356600 0.481419 0.221996
O O5 0.078742 0.578742 0.500000
O O6 0.107987 0.607987 0.192112
O O7 0.087736 0.502632 0.265280
O O8 0.768179 0.644784 0.500000
O O9 0.809620 0.690381 0.778924
O O10 0.826297 0.584652 0.717646
O O11 0.626938 0.789821 0.721895
O O12 0.671098 0.828903 0.000000
O O13 0.480710 0.192719 0.758008
O O14 0.443474 0.293169 0.688293
O O15 0.428458 0.246210 0.000000
O O16 0.140353 0.462244 0.000000
O O17 0.962528 0.115725 0.500000
#
# Coordination Sequence:
#
# PCOD9563757 Si02
#       7
#    16   8  16   8  16  16  16
#     4   9  19  35  56  83 111 142 181 231 283 338
#     4  10  18  28  49  81 114 146 190 237 282 330
#     4  10  20  36  57  80 112 151 185 224 281 340
#     4   8  16  30  46  71 109 146 184 230 278 324
#     4   9  17  31  51  75 105 143 181 224 277 324
#     4  10  19  33  54  79 111 150 191 235 280 328
#     4  10  19  34  56  80 109 142 182 229 281 337
#
# _framework density 22.425053999999999
#
# number of rings (size 3 to 8) (size 9 to 14) (size 15 to 20)
#    0.000    2.500    1.667    2.250    0.000    3.333 
#    1.500    3.750    0.000    2.500    0.000    1.167 
#    0.000    0.000    0.000    0.000    0.000    0.000 
#
# Total GULP energy -534505.859539 kJ/mol
# GULP energy per Si atom -5567.769370 kJ/mol
# Density = 2.237401 g / cm^3
# Si number density = 22.425054 Si / 1000 Ang^3
#
#
#
# Elastic Constant Matrix: (Units=GPa)
#
#
# Indices 1 2 3 4 5 6 
#
# 1 70.0978 122.7436 14.9073 0.0000 0.0000 0.0000
# 2 122.7436 70.0977 14.9076 0.0000 0.0000 0.0000
# 3 14.9073 14.9076 40.8835 0.0000 0.0000 0.0000
# 4 0.0000 0.0000 0.0000 -3.5408 0.0000 0.0000
# 5 0.0000 0.0000 0.0000 0.0000 -3.5404 0.0000
# 6 0.0000 0.0000 0.0000 0.0000 0.0000 35.5365
#
#
#
# Elastic Compliance Matrix: (Units=1/GPa)
#
#
# Indices 1 2 3 4 5 6 
#
# 1 -0.006750 0.012245 -0.002004 0.000000 0.000000 0.000000
# 2 0.012245 -0.006750 -0.002004 0.000000 0.000000 0.000000
# 3 -0.002004 -0.002004 0.025921 0.000000 0.000000 0.000000
# 4 0.000000 0.000000 0.000000 -0.282424 0.000000 0.000000
# 5 0.000000 0.000000 0.000000 0.000000 -0.282456 0.000000
# 6 0.000000 0.000000 0.000000 0.000000 0.000000 0.028140
#
#
# Mechanical properties :
#
#
# Convention : Reuss Voigt Hill
#
# Bulk Modulus (GPa) = 34.60611 54.02179 44.31395
# Shear Modulus (GPa) = -9.41333 7.59244 -0.91044
#
# Velocity S-wave (km/s) = -2.05105 1.84202 -0.63787
# Velocity P-wave (km/s) = 3.13948 5.35409 4.38877
#
# Compressibility (1/GPa) = 0.02889663
#
# Stress axis : x y z
#
# Youngs Moduli (GPa) = -148.15460 -148.15382 38.57874
#
# Poissons Ratio (x) = 1.81416 0.07731
# Poissons Ratio (y) = 1.81417 0.07730
# Poissons Ratio (z) = -0.29688 -0.29686
#
# Static dielectric constant tensor:
#      x y z
#    x 1.884770 0.000000 0.000000 
#    y 0.000000 1.884770 0.000000 
#    z 0.000000 0.000000 1.851390 
# 
# From -- ./inp_files/2102.got.cif
#   From: 2010.05.17/outbox.cif.g08.bks.cpg/sg127_2_cif.got.tgz:2102.got - 2010.05.20 12:03:00.
