data_PCOD9563113
_publ_section_title
;
Structure prediction by ZEFSAII (Michael W. Deem and Ramdas Pophale) SiO2 
 PCOD9563113
Probable space group: P 4/N B M
;
_chemical_formula_sum "Si O2"
_cell_formula_units_Z 88
_cell_length_a 12.486805
_cell_length_b 12.486805
_cell_length_c 29.020086
_cell_angle_alpha 90.000000
_cell_angle_beta 90.000000
_cell_angle_gamma 90.000000
_cell_volume 4524.820489
_symmetry_space_group_name_H-M "P 4/N B M"
_symmetry_group_IT_number 125
_space_group.IT_coordinate_system_code '2'
_symmetry_cell_setting 'tetragonal'
loop_
_space_group_symop_operation_xyz
x,y,z
1/2-y,x,z
1/2-x,1/2-y,z
y,1/2-x,z
x,1/2-y,-z
1/2-x,y,-z
y,x,-z
1/2-y,1/2-x,-z
-x,-y,-z
1/2+y,-x,-z
1/2+x,1/2+y,-z
-y,1/2+x,-z
-x,1/2+y,z
1/2+x,-y,z
-y,-x,z
1/2+y,1/2+x,z
loop_
_atom_site_type_symbol
_atom_site_label
_atom_site_fract_x
_atom_site_fract_y
_atom_site_fract_z
Si Si1 0.079476 0.748285 0.171176
Si Si2 0.876092 0.376092 0.490393
Si Si3 0.718183 0.927588 0.086944
Si Si4 0.578406 0.690858 0.750930
Si Si5 0.665855 0.590968 0.351234
Si Si6 0.075145 0.750000 0.000000
Si Si7 0.986891 0.486891 0.575798
O O1 0.154004 0.845997 0.189186
O O2 0.161637 0.661637 0.150258
O O3 0.999639 0.790718 0.132348
O O4 0.011648 0.688257 0.210471
O O5 0.895134 0.250000 0.500000
O O6 0.937563 0.437563 0.530327
O O7 0.925028 0.425028 0.442409
O O8 0.630576 0.833813 0.086900
O O9 0.712174 0.001374 0.042026
O O10 0.686123 0.620393 0.755557
O O11 0.540024 0.657446 0.699782
O O12 0.792110 0.611744 0.353736
O O13 0.609029 0.531962 0.392819
O O14 0.152854 0.847147 0.985284
#
# Coordination Sequence:
#
# PCOD9563113 Si02
#       7
#    16   8  16  16  16   8   8
#     4  11  24  39  57  84 121 155 196 249 299 363
#     4  10  22  38  56  82 126 158 194 246 304 353
#     4  11  24  41  62  89 117 153 203 252 302 370
#     4   9  19  37  59  82 112 151 191 242 297 352
#     4   9  19  36  56  82 117 148 191 250 297 345
#     4  11  24  41  62  90 124 155 194 247 310 374
#     4  11  20  34  62  88 108 158 208 240 291 365
#
# _framework density 19.448286
#
# number of rings (size 3 to 8) (size 9 to 14) (size 15 to 20)
#    0.000    1.818    0.000    4.909    1.273    9.455 
#    4.909    0.000    0.000    4.364    0.000    0.000 
#    0.000    0.000    0.000    0.000    0.000    0.000 
#
# Total GULP energy -490659.719653 kJ/mol
# GULP energy per Si atom -5575.678632 kJ/mol
# Density = 1.940402 g / cm^3
# Si number density = 19.448286 Si / 1000 Ang^3
#
#
#
# Elastic Constant Matrix: (Units=GPa)
#
#
# Indices 1 2 3 4 5 6 
#
# 1 68.4879 15.0210 20.5686 0.0000 0.0000 0.0000
# 2 15.0210 68.4879 20.5686 0.0000 0.0000 0.0000
# 3 20.5686 20.5686 95.0397 0.0000 0.0000 0.0000
# 4 0.0000 0.0000 0.0000 -967.2237 0.0000 0.0000
# 5 0.0000 0.0000 0.0000 0.0000 -967.2237 0.0000
# 6 0.0000 0.0000 0.0000 0.0000 0.0000 16.9754
#
#
#
# Elastic Compliance Matrix: (Units=1/GPa)
#
#
# Indices 1 2 3 4 5 6 
#
# 1 0.016053 -0.002650 -0.002901 0.000000 0.000000 0.000000
# 2 -0.002650 0.016053 -0.002901 0.000000 0.000000 0.000000
# 3 -0.002901 -0.002901 0.011778 0.000000 0.000000 0.000000
# 4 0.000000 0.000000 0.000000 -0.001034 0.000000 0.000000
# 5 0.000000 0.000000 0.000000 0.000000 -0.001034 0.000000
# 6 0.000000 0.000000 0.000000 0.000000 0.000000 0.058909
#
#
# Mechanical properties :
#
#
# Convention : Reuss Voigt Hill
#
# Bulk Modulus (GPa) = 37.06226 38.25910 37.66068
# Shear Modulus (GPa) = 39.48754 -371.77057 -166.14151
#
# Velocity S-wave (km/s) = 4.51087 -13.84101 -9.25272
# Velocity P-wave (km/s) = 6.79918 15.35306 9.73364
#
# Compressibility (1/GPa) = 0.02698163
#
# Stress axis : x y z
#
# Youngs Moduli (GPa) = 62.29187 62.29187 84.90736
#
# Poissons Ratio (x) = 0.16505 0.24630
# Poissons Ratio (y) = 0.16505 0.24630
# Poissons Ratio (z) = 0.18070 0.18070
#
# Static dielectric constant tensor:
#      x y z
#    x 1.672840 0.000000 0.000000 
#    y 0.000000 1.672840 0.000000 
#    z 0.000000 0.000000 1.683000 
# 
# From -- ./inp_files/6618.got.cif
#   From: 2010.05.17/outbox.cif.g08.bks.cpg/sg125_4_cif.got.tgz:6618.got - 2010.05.20 11:54:10.
