data_PCOD9563245
_publ_section_title
;
Structure prediction by ZEFSAII (Michael W. Deem and Ramdas Pophale) SiO2 
 PCOD9563245
Probable space group: P 4/N B M
;
_chemical_formula_sum "Si O2"
_cell_formula_units_Z 64
_cell_length_a 22.431859
_cell_length_b 22.431859
_cell_length_c 5.568791
_cell_angle_alpha 90.000000
_cell_angle_beta 90.000000
_cell_angle_gamma 90.000000
_cell_volume 2802.150466
_symmetry_space_group_name_H-M "P 4/N B M"
_symmetry_group_IT_number 125
_space_group.IT_coordinate_system_code '2'
_symmetry_cell_setting 'tetragonal'
loop_
_space_group_symop_operation_xyz
x,y,z
1/2-y,x,z
1/2-x,1/2-y,z
y,1/2-x,z
x,1/2-y,-z
1/2-x,y,-z
y,x,-z
1/2-y,1/2-x,-z
-x,-y,-z
1/2+y,-x,-z
1/2+x,1/2+y,-z
-y,1/2+x,-z
-x,1/2+y,z
1/2+x,-y,z
-y,-x,z
1/2+y,1/2+x,z
loop_
_atom_site_type_symbol
_atom_site_label
_atom_site_fract_x
_atom_site_fract_y
_atom_site_fract_z
Si Si1 0.822120 0.912060 0.477442
Si Si2 0.216632 0.619467 0.260929
Si Si3 0.813942 0.002596 0.115373
Si Si4 0.990739 0.914945 0.196965
O O1 0.750000 0.918740 0.500000
O O2 0.844766 0.844766 0.500000
O O3 0.834111 0.939846 0.217415
O O4 0.869512 0.950055 0.642658
O O5 0.250000 0.641020 0.500000
O O6 0.160720 0.660720 0.225162
O O7 0.196608 0.551902 0.317013
O O8 0.250000 0.618738 0.000000
O O9 0.750000 0.992931 0.000000
O O10 0.865200 0.027986 0.947170
O O11 0.952816 0.952816 0.000000
O O12 0.036916 0.963085 0.312965
#
# Coordination Sequence:
#
# PCOD9563245 Si02
#       4
#    16  16  16  16
#     4  12  25  44  72 104 143 189 242 301 368 449
#     4  11  25  43  66  97 135 186 245 303 367 438
#     4  11  23  43  68  95 137 187 239 300 371 440
#     4  11  24  42  68 105 142 182 239 306 375 447
#
# _framework density 22.839601999999999
#
# number of rings (size 3 to 8) (size 9 to 14) (size 15 to 20)
#    0.000    0.750    5.000    2.250    3.500    4.250 
#    0.000    0.000    0.000    0.000    0.000    0.000 
#    0.000    0.500    0.000    0.000    0.000    0.000 
#
# Total GULP energy -356293.760622 kJ/mol
# GULP energy per Si atom -5567.090010 kJ/mol
# Density = 2.278762 g / cm^3
# Si number density = 22.839602 Si / 1000 Ang^3
#
#
#
# Elastic Constant Matrix: (Units=GPa)
#
#
# Indices 1 2 3 4 5 6 
#
# 1 113.5330 75.6812 33.0823 0.0000 0.0000 0.0000
# 2 75.6812 113.5330 33.0823 0.0000 0.0000 0.0000
# 3 33.0823 33.0823 65.5657 0.0000 0.0000 0.0000
# 4 0.0000 0.0000 0.0000 32.0386 0.0000 0.0000
# 5 0.0000 0.0000 0.0000 0.0000 32.0386 0.0000
# 6 0.0000 0.0000 0.0000 0.0000 0.0000 46.8520
#
#
#
# Elastic Compliance Matrix: (Units=1/GPa)
#
#
# Indices 1 2 3 4 5 6 
#
# 1 0.016418 -0.010001 -0.003238 0.000000 0.000000 0.000000
# 2 -0.010001 0.016418 -0.003238 0.000000 0.000000 0.000000
# 3 -0.003238 -0.003238 0.018519 0.000000 0.000000 0.000000
# 4 0.000000 0.000000 0.000000 0.031212 0.000000 0.000000
# 5 0.000000 0.000000 0.000000 0.000000 0.031212 0.000000
# 6 0.000000 0.000000 0.000000 0.000000 0.000000 0.021344
#
#
# Mechanical properties :
#
#
# Convention : Reuss Voigt Hill
#
# Bulk Modulus (GPa) = 54.34146 64.03592 59.18869
# Shear Modulus (GPa) = 28.70075 32.23822 30.46949
#
# Velocity S-wave (km/s) = 3.54873 3.76108 3.65645
# Velocity P-wave (km/s) = 6.37461 6.85267 6.61796
#
# Compressibility (1/GPa) = 0.01840215
#
# Stress axis : x y z
#
# Youngs Moduli (GPa) = 60.90854 60.90854 53.99752
#
# Poissons Ratio (x) = 0.60913 0.17484
# Poissons Ratio (y) = 0.60913 0.17484
# Poissons Ratio (z) = 0.19722 0.19722
#
# Static dielectric constant tensor:
#      x y z
#    x 1.892730 0.000000 0.000000 
#    y 0.000000 1.892730 0.000000 
#    z 0.000000 0.000000 2.018010 
# 
# From -- ./inp_files/956.got.cif
#   From: 2010.05.17/outbox.cif.g08.bks.cpg/sg125_1_cif.got.tgz:956.got - 2010.05.20 11:54:10.
