data_PCOD9563753
_publ_section_title
;
Structure prediction by ZEFSAII (Michael W. Deem and Ramdas Pophale) SiO2 
 PCOD9563753
Probable space group: P 4/M B M
;
_chemical_formula_sum "Si O2"
_cell_formula_units_Z 120
_cell_length_a 30.011733
_cell_length_b 30.011733
_cell_length_c 8.888641
_cell_angle_alpha 90.000000
_cell_angle_beta 90.000000
_cell_angle_gamma 90.000000
_cell_volume 8006.035549
_symmetry_space_group_name_H-M "P 4/M B M"
_symmetry_group_IT_number 127
_symmetry_cell_setting 'tetragonal'
loop_
_space_group_symop_operation_xyz
x,y,z
-y,x,z
-x,-y,z
y,-x,z
1/2+x,1/2-y,-z
1/2-x,1/2+y,-z
1/2+y,1/2+x,-z
1/2-y,1/2-x,-z
-x,-y,-z
y,-x,-z
x,y,-z
-y,x,-z
1/2-x,1/2+y,z
1/2+x,1/2-y,z
1/2-y,1/2-x,z
1/2+y,1/2+x,z
loop_
_atom_site_type_symbol
_atom_site_label
_atom_site_fract_x
_atom_site_fract_y
_atom_site_fract_z
Si Si1 0.155941 0.272442 0.319203
Si Si2 0.461696 0.038305 0.326390
Si Si3 0.896551 0.527751 0.176987
Si Si4 0.684212 0.628412 0.172287
Si Si5 0.783250 0.025243 0.826544
Si Si6 0.304190 0.943244 0.680155
Si Si7 0.503065 0.628172 0.680255
Si Si8 0.906821 0.089512 0.182618
O O1 0.157049 0.271802 0.500000
O O2 0.196586 0.303415 0.265223
O O3 0.155240 0.221676 0.261927
O O4 0.108462 0.294783 0.275462
O O5 0.451747 0.048254 0.500000
O O6 0.483766 0.080176 0.243727
O O7 0.500000 0.000000 0.323921
O O8 0.932253 0.567748 0.195452
O O9 0.851844 0.541048 0.262250
O O10 0.887968 0.522393 0.000000
O O11 0.700637 0.576894 0.173839
O O12 0.633280 0.623639 0.226184
O O13 0.684084 0.643886 0.000000
O O14 0.734740 0.027073 0.753159
O O15 0.820235 0.999224 0.731770
O O16 0.782509 0.010321 0.000000
O O17 0.301586 0.945575 0.500000
O O18 0.502941 0.624434 0.500000
O O19 0.546519 0.605835 0.752290
O O20 0.458670 0.605471 0.749156
O O21 0.907291 0.086735 0.000000
#
# Coordination Sequence:
#
# PCOD9563753 Si02
#       8
#    16   8  16  16  16  16  16  16
#     4   9  17  27  40  61  90 121 150 182 222 265
#     4   9  17  29  43  57  77 109 147 187 229 271
#     4  10  19  29  41  59  85 117 152 189 230 278
#     4   8  16  29  45  63  85 116 151 182 215 258
#     4   9  17  31  47  64  89 120 149 180 222 268
#     4  10  18  28  43  63  88 118 153 191 227 266
#     4  11  21  33  50  73  96 120 154 193 230 271
#     4  10  20  35  51  68  93 126 158 190 232 276
#
# _framework density 14.988692
#
# number of rings (size 3 to 8) (size 9 to 14) (size 15 to 20)
#    0.000    2.467    0.000    4.200    0.000    6.933 
#    0.000    1.333    0.000    0.000    0.000    0.000 
#    2.000    0.000    2.800    0.000    2.267    0.000 
#
# Total GULP energy -668704.828014 kJ/mol
# GULP energy per Si atom -5572.540233 kJ/mol
# Density = 1.495458 g / cm^3
# Si number density = 14.988692 Si / 1000 Ang^3
#
#
#
# Elastic Constant Matrix: (Units=GPa)
#
#
# Indices 1 2 3 4 5 6 
#
# 1 79.7263 50.4414 41.1116 0.0000 0.0000 0.0000
# 2 50.4414 79.7260 41.1117 0.0000 0.0000 0.0000
# 3 41.1116 41.1117 80.6142 0.0000 0.0000 0.0000
# 4 0.0000 0.0000 0.0000 24.4368 0.0000 0.0000
# 5 0.0000 0.0000 0.0000 0.0000 24.4368 0.0000
# 6 0.0000 0.0000 0.0000 0.0000 0.0000 14.4418
#
#
#
# Elastic Compliance Matrix: (Units=1/GPa)
#
#
# Indices 1 2 3 4 5 6 
#
# 1 0.022740 -0.011407 -0.005780 0.000000 0.000000 0.000000
# 2 -0.011407 0.022740 -0.005780 0.000000 0.000000 0.000000
# 3 -0.005780 -0.005780 0.018300 0.000000 0.000000 0.000000
# 4 0.000000 0.000000 0.000000 0.040922 0.000000 0.000000
# 5 0.000000 0.000000 0.000000 0.000000 0.040922 0.000000
# 6 0.000000 0.000000 0.000000 0.000000 0.000000 0.069243
#
#
# Mechanical properties :
#
#
# Convention : Reuss Voigt Hill
#
# Bulk Modulus (GPa) = 56.03034 56.15508 56.09271
# Shear Modulus (GPa) = 18.74413 19.82320 19.28367
#
# Velocity S-wave (km/s) = 3.54015 3.64063 3.59074
# Velocity P-wave (km/s) = 7.36024 7.43092 7.39566
#
# Compressibility (1/GPa) = 0.01784747
#
# Stress axis : x y z
#
# Youngs Moduli (GPa) = 43.97475 43.97452 54.64513
#
# Poissons Ratio (x) = 0.50162 0.31583
# Poissons Ratio (y) = 0.50162 0.31584
# Poissons Ratio (z) = 0.25416 0.25416
#
# Static dielectric constant tensor:
#      x y z
#    x 1.488160 0.000000 0.000000 
#    y 0.000000 1.488160 0.000000 
#    z 0.000000 0.000000 1.503980 
# 
# From -- ./inp_files/2432.got.cif
#   From: 2010.05.17/outbox.cif.g08.bks.cpg/sg127_2_cif.got.tgz:2432.got - 2010.05.20 12:03:00.
