data_PCOD9563396
_publ_section_title
;
Structure prediction by ZEFSAII (Michael W. Deem and Ramdas Pophale) SiO2 
 PCOD9563396
Probable space group: P 4/N N C
;
_chemical_formula_sum "Si O2"
_cell_formula_units_Z 64
_cell_length_a 15.605532
_cell_length_b 15.605532
_cell_length_c 13.139649
_cell_angle_alpha 90.000000
_cell_angle_beta 90.000000
_cell_angle_gamma 90.000000
_cell_volume 3199.933265
_symmetry_space_group_name_H-M "P 4/N N C"
_symmetry_group_IT_number 126
_space_group.IT_coordinate_system_code '2'
_symmetry_cell_setting 'tetragonal'
loop_
_space_group_symop_operation_xyz
x,y,z
1/2-y,x,z
1/2-x,1/2-y,z
y,1/2-x,z
x,1/2-y,1/2-z
1/2-x,y,1/2-z
y,x,1/2-z
1/2-y,1/2-x,1/2-z
-x,-y,-z
1/2+y,-x,-z
1/2+x,1/2+y,-z
-y,1/2+x,-z
-x,1/2+y,1/2+z
1/2+x,-y,1/2+z
-y,-x,1/2+z
1/2+y,1/2+x,1/2+z
loop_
_atom_site_type_symbol
_atom_site_label
_atom_site_fract_x
_atom_site_fract_y
_atom_site_fract_z
Si Si1 0.870582 0.025852 0.441057
Si Si2 0.951491 0.478456 0.842211
Si Si3 0.243203 0.111483 0.627909
Si Si4 0.344646 0.849113 0.278771
O O1 0.893446 0.012722 0.558403
O O2 0.865381 0.121847 0.394079
O O3 0.781206 0.979854 0.415992
O O4 0.950591 0.980901 0.381562
O O5 0.917633 0.392876 0.789712
O O6 0.951898 0.548103 0.750000
O O7 0.327299 0.163429 0.597092
O O8 0.250000 0.105735 0.750000
O O9 0.343274 0.750000 0.250000
O O10 0.250000 0.883936 0.250000
#
# Coordination Sequence:
#
# PCOD9563396 Si02
#       4
#    16  16  16  16
#     4  10  20  36  61  81 113 163 192 242 310 353
#     4   9  21  39  55  82 111 147 210 245 286 366
#     4   9  19  32  53  93 123 142 190 246 296 357
#     4  10  22  37  55  85 120 151 196 248 296 364
#
# _framework density 20.000416000000001
#
# number of rings (size 3 to 8) (size 9 to 14) (size 15 to 20)
#    0.000    2.500    0.000    1.500   14.000    2.000 
#    9.000    2.500    0.000    0.000    0.000    1.750 
#    0.000    2.000    0.000    0.000    0.000    0.000 
#
# Total GULP energy -356324.746196 kJ/mol
# GULP energy per Si atom -5567.574159 kJ/mol
# Density = 1.995489 g / cm^3
# Si number density = 20.000416 Si / 1000 Ang^3
#
#
#
# Elastic Constant Matrix: (Units=GPa)
#
#
# Indices 1 2 3 4 5 6 
#
# 1 52.7987 27.6772 32.3678 0.0000 0.0000 0.0000
# 2 27.6772 52.7974 32.3675 0.0000 0.0000 0.0000
# 3 32.3678 32.3675 118.3454 0.0000 0.0000 0.0000
# 4 0.0000 0.0000 0.0000 12.2930 0.0000 0.0000
# 5 0.0000 0.0000 0.0000 0.0000 12.2930 0.0000
# 6 0.0000 0.0000 0.0000 0.0000 0.0000 27.4018
#
#
#
# Elastic Compliance Matrix: (Units=1/GPa)
#
#
# Indices 1 2 3 4 5 6 
#
# 1 0.027869 -0.011938 -0.004357 0.000000 0.000000 0.000000
# 2 -0.011938 0.027870 -0.004357 0.000000 0.000000 0.000000
# 3 -0.004357 -0.004357 0.010833 0.000000 0.000000 0.000000
# 4 0.000000 0.000000 0.000000 0.081347 0.000000 0.000000
# 5 0.000000 0.000000 0.000000 0.000000 0.081347 0.000000
# 6 0.000000 0.000000 0.000000 0.000000 0.000000 0.036494
#
#
# Mechanical properties :
#
#
# Convention : Reuss Voigt Hill
#
# Bulk Modulus (GPa) = 39.57767 45.41851 42.49809
# Shear Modulus (GPa) = 15.84848 19.16615 17.50732
#
# Velocity S-wave (km/s) = 2.81803 3.09898 2.96184
# Velocity P-wave (km/s) = 5.51541 5.96347 5.74381
#
# Compressibility (1/GPa) = 0.02526678
#
# Stress axis : x y z
#
# Youngs Moduli (GPa) = 35.88213 35.88120 92.30837
#
# Poissons Ratio (x) = 0.42836 0.40220
# Poissons Ratio (y) = 0.42837 0.40221
# Poissons Ratio (z) = 0.15634 0.15634
#
# Static dielectric constant tensor:
#      x y z
#    x 1.728370 0.000000 0.000000 
#    y 0.000000 1.728370 0.000000 
#    z 0.000000 0.000000 1.749500 
# 
# From -- ./inp_files/3480.got.cif
#   From: 2010.05.17/outbox.cif.g08.bks.cpg/sg126_2_cif.got.tgz:3480.got - 2010.05.20 11:58:20.
