data_PCOD9563215
_publ_section_title
;
Structure prediction by ZEFSAII (Michael W. Deem and Ramdas Pophale) SiO2 
 PCOD9563215
Probable space group: P 4/N B M
;
_chemical_formula_sum "Si O2"
_cell_formula_units_Z 96
_cell_length_a 15.893487
_cell_length_b 15.893487
_cell_length_c 20.827997
_cell_angle_alpha 90.000000
_cell_angle_beta 90.000000
_cell_angle_gamma 90.000000
_cell_volume 5261.213048
_symmetry_space_group_name_H-M "P 4/N B M"
_symmetry_group_IT_number 125
_space_group.IT_coordinate_system_code '2'
_symmetry_cell_setting 'tetragonal'
loop_
_space_group_symop_operation_xyz
x,y,z
1/2-y,x,z
1/2-x,1/2-y,z
y,1/2-x,z
x,1/2-y,-z
1/2-x,y,-z
y,x,-z
1/2-y,1/2-x,-z
-x,-y,-z
1/2+y,-x,-z
1/2+x,1/2+y,-z
-y,1/2+x,-z
-x,1/2+y,z
1/2+x,-y,z
-y,-x,z
1/2+y,1/2+x,z
loop_
_atom_site_type_symbol
_atom_site_label
_atom_site_fract_x
_atom_site_fract_y
_atom_site_fract_z
Si Si1 0.744819 0.115484 0.804589
Si Si2 0.573716 0.933520 0.752527
Si Si3 0.755029 0.511669 0.299686
Si Si4 0.749176 0.608209 0.574631
Si Si5 0.063149 0.423372 0.906746
Si Si6 0.740983 0.495546 0.931247
O O1 0.810979 0.189022 0.813028
O O2 0.650833 0.150833 0.810185
O O3 0.757263 0.079144 0.733480
O O4 0.760099 0.054859 0.864472
O O5 0.552275 0.840870 0.726769
O O6 0.572814 0.932638 0.829448
O O7 0.504018 0.004018 0.731844
O O8 0.667729 0.953152 0.728963
O O9 0.752303 0.532290 0.375049
O O10 0.830463 0.668577 0.585081
O O11 0.750000 0.582653 0.500000
O O12 0.152347 0.456173 0.932473
O O13 0.048868 0.326756 0.925932
O O14 0.985993 0.485993 0.925877
O O15 0.750000 0.448052 0.000000
#
# Coordination Sequence:
#
# PCOD9563215 Si02
#       6
#    16  16  16  16  16  16
#     4  11  24  41  61  84 113 158 210 256 302 347
#     4  11  22  36  60  90 120 157 200 248 300 357
#     4  12  20  36  63  91 122 154 196 245 300 352
#     4   9  18  33  55  89 128 159 188 226 287 358
#     4  11  23  43  63  85 121 160 197 248 311 365
#     4  12  25  40  61  88 118 157 200 247 309 373
#
# _framework density 18.246742000000001
#
# number of rings (size 3 to 8) (size 9 to 14) (size 15 to 20)
#    0.000    1.000    5.000    3.000    0.000    4.000 
#    0.000    3.333    0.000    5.000    0.000    1.167 
#    0.000    0.000    0.000    0.000    0.000    0.000 
#
# Total GULP energy -535177.402113 kJ/mol
# GULP energy per Si atom -5574.764605 kJ/mol
# Density = 1.820521 g / cm^3
# Si number density = 18.246742 Si / 1000 Ang^3
#
#
#
# Elastic Constant Matrix: (Units=GPa)
#
#
# Indices 1 2 3 4 5 6 
#
# 1 84.6833 29.4896 15.4260 0.0000 0.0000 0.0000
# 2 29.4896 84.6833 15.4260 0.0000 0.0000 0.0000
# 3 15.4260 15.4260 125.0868 0.0000 0.0000 0.0000
# 4 0.0000 0.0000 0.0000 1.7468 0.0000 0.0000
# 5 0.0000 0.0000 0.0000 0.0000 1.7468 0.0000
# 6 0.0000 0.0000 0.0000 0.0000 0.0000 28.6640
#
#
#
# Elastic Compliance Matrix: (Units=1/GPa)
#
#
# Indices 1 2 3 4 5 6 
#
# 1 0.013589 -0.004529 -0.001117 0.000000 0.000000 0.000000
# 2 -0.004529 0.013589 -0.001117 0.000000 0.000000 0.000000
# 3 -0.001117 -0.001117 0.008270 0.000000 0.000000 0.000000
# 4 0.000000 0.000000 0.000000 0.572478 0.000000 0.000000
# 5 0.000000 0.000000 0.000000 0.000000 0.572478 0.000000
# 6 0.000000 0.000000 0.000000 0.000000 0.000000 0.034887
#
#
# Mechanical properties :
#
#
# Convention : Reuss Voigt Hill
#
# Bulk Modulus (GPa) = 45.61687 46.12630 45.87159
# Shear Modulus (GPa) = 4.04489 22.03896 13.04193
#
# Velocity S-wave (km/s) = 1.49050 3.47916 2.67639
# Velocity P-wave (km/s) = 5.29305 6.43999 5.89448
#
# Compressibility (1/GPa) = 0.02192171
#
# Stress axis : x y z
#
# Youngs Moduli (GPa) = 73.58726 73.58726 120.91834
#
# Poissons Ratio (x) = 0.33326 0.13511
# Poissons Ratio (y) = 0.33326 0.13511
# Poissons Ratio (z) = 0.08222 0.08222
#
# Static dielectric constant tensor:
#      x y z
#    x 1.665170 0.000000 0.000000 
#    y 0.000000 1.665170 0.000000 
#    z 0.000000 0.000000 1.619740 
# 
# From -- ./inp_files/5914.got.cif
#   From: 2010.05.17/outbox.cif.g08.bks.cpg/sg125_3_cif.got.tgz:5914.got - 2010.05.20 11:54:10.
