data_PCOD9563336
_publ_section_title
;
Structure prediction by ZEFSAII (Michael W. Deem and Ramdas Pophale) SiO2 
 PCOD9563336
Probable space group: P 4/N N C
;
_chemical_formula_sum "Si O2"
_cell_formula_units_Z 128
_cell_length_a 18.097598
_cell_length_b 18.097598
_cell_length_c 21.354549
_cell_angle_alpha 90.000000
_cell_angle_beta 90.000000
_cell_angle_gamma 90.000000
_cell_volume 6994.107092
_symmetry_space_group_name_H-M "P 4/N N C"
_symmetry_group_IT_number 126
_space_group.IT_coordinate_system_code '2'
_symmetry_cell_setting 'tetragonal'
loop_
_space_group_symop_operation_xyz
x,y,z
1/2-y,x,z
1/2-x,1/2-y,z
y,1/2-x,z
x,1/2-y,1/2-z
1/2-x,y,1/2-z
y,x,1/2-z
1/2-y,1/2-x,1/2-z
-x,-y,-z
1/2+y,-x,-z
1/2+x,1/2+y,-z
-y,1/2+x,-z
-x,1/2+y,1/2+z
1/2+x,-y,1/2+z
-y,-x,1/2+z
1/2+y,1/2+x,1/2+z
loop_
_atom_site_type_symbol
_atom_site_label
_atom_site_fract_x
_atom_site_fract_y
_atom_site_fract_z
Si Si1 0.329943 0.713639 0.814720
Si Si2 0.945991 0.264487 0.953106
Si Si3 0.215412 0.543599 0.683728
Si Si4 0.001768 0.474955 0.407324
Si Si5 0.080179 0.434822 0.677593
Si Si6 0.350461 0.321562 0.912510
Si Si7 0.558548 0.886340 0.002407
Si Si8 0.099602 0.663854 0.566811
O O1 0.250000 0.750000 0.827618
O O2 0.357548 0.750000 0.750000
O O3 0.314734 0.626467 0.804942
O O4 0.381235 0.718754 0.875912
O O5 0.955577 0.237557 0.881022
O O6 0.879639 0.324433 0.948695
O O7 0.014877 0.312604 0.978536
O O8 0.927968 0.202536 0.003762
O O9 0.250000 0.519291 0.750000
O O10 0.147199 0.491646 0.665632
O O11 0.992907 0.521317 0.344027
O O12 0.951780 0.526458 0.453299
O O13 0.959256 0.396761 0.409298
O O14 0.082927 0.461005 0.434256
O O15 0.080264 0.419737 0.750000
O O16 0.099702 0.361381 0.639379
O O17 0.265766 0.348557 0.905641
O O18 0.377095 0.356008 0.978648
#
# Coordination Sequence:
#
# PCOD9563336 Si02
#       8
#    16  16  16  16  16  16  16  16
#     4  10  19  35  53  77 115 157 180 225 285 333
#     4  10  21  35  51  84 110 142 192 227 278 333
#     4  11  21  38  53  77 113 145 202 232 267 347
#     4   9  18  39  54  76 107 141 177 237 269 331
#     4  11  23  39  57  79 108 156 195 234 283 337
#     4  10  22  38  56  83 114 142 186 241 291 341
#     4   9  18  36  58  75 105 139 182 219 293 336
#     4  10  21  33  54  80 114 141 185 232 271 330
#
# _framework density 18.301121999999999
#
# number of rings (size 3 to 8) (size 9 to 14) (size 15 to 20)
#    0.000    2.000    6.250    0.000    7.000    0.000 
#    9.000    0.625    0.000    0.000    0.000    0.000 
#    0.000    0.000    0.000    1.375    0.000    0.000 
#
# Total GULP energy -713505.607401 kJ/mol
# GULP energy per Si atom -5574.262558 kJ/mol
# Density = 1.825947 g / cm^3
# Si number density = 18.301122 Si / 1000 Ang^3
#
#
#
# Elastic Constant Matrix: (Units=GPa)
#
#
# Indices 1 2 3 4 5 6 
#
# 1 52.8296 17.9640 35.1026 0.0000 0.0000 0.0000
# 2 17.9640 52.8297 35.1030 0.0000 0.0000 0.0000
# 3 35.1026 35.1030 106.5568 0.0000 0.0000 0.0000
# 4 0.0000 0.0000 0.0000 22.3372 0.0000 0.0000
# 5 0.0000 0.0000 0.0000 0.0000 22.3372 0.0000
# 6 0.0000 0.0000 0.0000 0.0000 0.0000 13.9842
#
#
#
# Elastic Compliance Matrix: (Units=1/GPa)
#
#
# Indices 1 2 3 4 5 6 
#
# 1 0.024830 -0.003851 -0.006911 0.000000 0.000000 0.000000
# 2 -0.003851 0.024830 -0.006911 0.000000 0.000000 0.000000
# 3 -0.006911 -0.006911 0.013938 0.000000 0.000000 0.000000
# 4 0.000000 0.000000 0.000000 0.044768 0.000000 0.000000
# 5 0.000000 0.000000 0.000000 0.000000 0.044768 0.000000
# 6 0.000000 0.000000 0.000000 0.000000 0.000000 0.071509
#
#
# Mechanical properties :
#
#
# Convention : Reuss Voigt Hill
#
# Bulk Modulus (GPa) = 35.39561 43.17279 39.28420
# Shear Modulus (GPa) = 18.55910 20.00147 19.28029
#
# Velocity S-wave (km/s) = 3.18794 3.30950 3.24929
# Velocity P-wave (km/s) = 5.73875 6.18427 5.96567
#
# Compressibility (1/GPa) = 0.02825209
#
# Stress axis : x y z
#
# Youngs Moduli (GPa) = 40.27324 40.27310 71.74563
#
# Poissons Ratio (x) = 0.15510 0.49584
# Poissons Ratio (y) = 0.15510 0.49585
# Poissons Ratio (z) = 0.27833 0.27834
#
# Static dielectric constant tensor:
#      x y z
#    x 1.659340 0.000000 0.000000 
#    y 0.000000 1.659340 0.000000 
#    z 0.000000 0.000000 1.702150 
# 
# From -- ./inp_files/5967.got.cif
#   From: 2010.05.17/outbox.cif.g08.bks.cpg/sg126_3_cif.got.tgz:5967.got - 2010.05.20 11:58:20.
