data_PCOD9563885
_publ_section_title
;
Structure prediction by ZEFSAII (Michael W. Deem and Ramdas Pophale) SiO2 
 PCOD9563885
Probable space group: P 4/M B M
;
_chemical_formula_sum "Si O2"
_cell_formula_units_Z 72
_cell_length_a 23.238387
_cell_length_b 23.238387
_cell_length_c 8.914552
_cell_angle_alpha 90.000000
_cell_angle_beta 90.000000
_cell_angle_gamma 90.000000
_cell_volume 4814.059820
_symmetry_space_group_name_H-M "P 4/M B M"
_symmetry_group_IT_number 127
_symmetry_cell_setting 'tetragonal'
loop_
_space_group_symop_operation_xyz
x,y,z
-y,x,z
-x,-y,z
y,-x,z
1/2+x,1/2-y,-z
1/2-x,1/2+y,-z
1/2+y,1/2+x,-z
1/2-y,1/2-x,-z
-x,-y,-z
y,-x,-z
x,y,-z
-y,x,-z
1/2-x,1/2+y,z
1/2+x,1/2-y,z
1/2-y,1/2-x,z
1/2+y,1/2+x,z
loop_
_atom_site_type_symbol
_atom_site_label
_atom_site_fract_x
_atom_site_fract_y
_atom_site_fract_z
Si Si1 0.048753 0.451248 0.324250
Si Si2 0.514652 0.169860 0.820734
Si Si3 0.190850 0.789603 0.827129
Si Si4 0.125840 0.276575 0.321718
Si Si5 0.203539 0.606368 0.321309
O O1 0.060795 0.439206 0.500000
O O2 0.026804 0.393461 0.245829
O O3 0.000000 0.500000 0.315811
O O4 0.566660 0.209257 0.760829
O O5 0.453702 0.191528 0.758924
O O6 0.514642 0.167974 0.000000
O O7 0.240342 0.740342 0.827398
O O8 0.220058 0.842958 0.742764
O O9 0.137607 0.760218 0.742795
O O10 0.177259 0.803087 0.000000
O O11 0.117408 0.271902 0.500000
O O12 0.169839 0.330162 0.295506
O O13 0.208030 0.598543 0.500000
O O14 0.150006 0.650006 0.293496
#
# Coordination Sequence:
#
# PCOD9563885 Si02
#       5
#     8  16  16  16  16
#     4  11  23  37  49  63  89 129 171 207 243 286
#     4  12  23  33  48  69  95 125 163 206 246 284
#     4   9  17  30  49  71  94 118 152 197 244 289
#     4  10  19  32  50  69  93 124 159 197 242 292
#     4  10  20  34  50  68  93 127 164 199 241 291
#
# _framework density 14.956189999999999
#
# number of rings (size 3 to 8) (size 9 to 14) (size 15 to 20)
#    0.000    1.667    1.111    5.000    0.000    8.444 
#    0.000    0.000    0.000    0.000    0.000    0.000 
#    0.000    0.889    0.000    8.889    0.000    5.333 
#
# Total GULP energy -402052.833539 kJ/mol
# GULP energy per Si atom -5584.067132 kJ/mol
# Density = 1.492215 g / cm^3
# Si number density = 14.956190 Si / 1000 Ang^3
#
#
#
# Elastic Constant Matrix: (Units=GPa)
#
#
# Indices 1 2 3 4 5 6 
#
# 1 81.3180 82.7894 75.4716 0.0000 0.0000 0.0000
# 2 82.7894 81.3188 75.4715 0.0000 0.0000 0.0000
# 3 75.4716 75.4715 146.7197 0.0000 0.0000 0.0000
# 4 0.0000 0.0000 0.0000 24.8039 0.0000 0.0000
# 5 0.0000 0.0000 0.0000 0.0000 24.8040 0.0000
# 6 0.0000 0.0000 0.0000 0.0000 0.0000 23.3920
#
#
#
# Elastic Compliance Matrix: (Units=1/GPa)
#
#
# Indices 1 2 3 4 5 6 
#
# 1 -0.334129 0.345691 -0.005947 0.000000 0.000000 0.000000
# 2 0.345691 -0.334121 -0.005951 0.000000 0.000000 0.000000
# 3 -0.005947 -0.005951 0.012936 0.000000 0.000000 0.000000
# 4 0.000000 0.000000 0.000000 0.040316 0.000000 0.000000
# 5 0.000000 0.000000 0.000000 0.000000 0.040316 0.000000
# 6 0.000000 0.000000 0.000000 0.000000 0.000000 0.042750
#
#
# Mechanical properties :
#
#
# Convention : Reuss Voigt Hill
#
# Bulk Modulus (GPa) = 81.49721 86.31350 83.90535
# Shear Modulus (GPa) = -4.18261 19.64158 7.72948
#
# Velocity S-wave (km/s) = -1.67411 3.62784 2.27581
# Velocity P-wave (km/s) = 7.13246 8.68242 7.94533
#
# Compressibility (1/GPa) = 0.01227036
#
# Stress axis : x y z
#
# Youngs Moduli (GPa) = -2.99286 -2.99292 77.30244
#
# Poissons Ratio (x) = 1.03463 0.45973
# Poissons Ratio (y) = 1.03460 0.46005
# Poissons Ratio (z) = -0.01780 -0.01781
#
# Static dielectric constant tensor:
#      x y z
#    x 1.476480 0.000000 0.000000 
#    y 0.000000 1.476480 0.000000 
#    z 0.000000 0.000000 1.496530 
# 
# From -- ./inp_files/1530.got.cif
#   From: 2010.05.17/outbox.cif.g08.bks.cpg/sg127_1_cif.got.tgz:1530.got - 2010.05.20 12:03:00.
