data_PCOD9563089
_publ_section_title
;
Structure prediction by ZEFSAII (Michael W. Deem and Ramdas Pophale) SiO2 
 PCOD9563089
Probable space group: P 4/N B M
;
_chemical_formula_sum "Si O2"
_cell_formula_units_Z 58
_cell_length_a 16.905644
_cell_length_b 16.905644
_cell_length_c 8.418744
_cell_angle_alpha 90.000000
_cell_angle_beta 90.000000
_cell_angle_gamma 90.000000
_cell_volume 2406.083762
_symmetry_space_group_name_H-M "P 4/N B M"
_symmetry_group_IT_number 125
_space_group.IT_coordinate_system_code '2'
_symmetry_cell_setting 'tetragonal'
loop_
_space_group_symop_operation_xyz
x,y,z
1/2-y,x,z
1/2-x,1/2-y,z
y,1/2-x,z
x,1/2-y,-z
1/2-x,y,-z
y,x,-z
1/2-y,1/2-x,-z
-x,-y,-z
1/2+y,-x,-z
1/2+x,1/2+y,-z
-y,1/2+x,-z
-x,1/2+y,z
1/2+x,-y,z
-y,-x,z
1/2+y,1/2+x,z
loop_
_atom_site_type_symbol
_atom_site_label
_atom_site_fract_x
_atom_site_fract_y
_atom_site_fract_z
Si Si1 0.440015 0.940015 0.921492
Si Si2 0.865085 0.134915 0.408519
Si Si3 0.250000 0.750000 0.500000
Si Si4 0.580504 0.653344 0.166388
Si Si5 0.305524 0.046178 0.349921
Si Si6 0.169966 0.830035 0.917005
O O1 0.491985 0.880102 0.825761
O O2 0.395374 0.895374 0.059512
O O3 0.500000 0.000000 0.000000
O O4 0.819435 0.180566 0.548943
O O5 0.819331 0.180670 0.266382
O O6 0.958164 0.157271 0.382184
O O7 0.626719 0.608746 0.307296
O O8 0.564304 0.745211 0.201748
O O9 0.623559 0.623559 0.000000
O O10 0.250000 0.062851 0.500000
O O11 0.144103 0.750000 0.000000
#
# Coordination Sequence:
#
# PCOD9563089 Si02
#       6
#     8   8   2  16  16   8
#     4  10  21  38  64 101 136 180 239 309 370 444
#     4  12  24  44  68 102 152 195 246 298 377 460
#     4  12  24  44  62 104 152 208 244 294 352 460
#     4  11  24  45  73 106 145 194 259 322 384 448
#     4  12  26  46  72 106 148 199 246 312 382 465
#     4  11  22  38  64  99 135 183 241 302 369 426
#
# _framework density 24.105561999999999
#
# number of rings (size 3 to 8) (size 9 to 14) (size 15 to 20)
#    0.000    0.690    1.379    8.276    0.000    2.759 
#    0.000    5.517    0.000    0.000    0.000    0.000 
#    0.000    0.000    0.000    0.000    0.000    0.000 
#
# Total GULP energy -323116.293306 kJ/mol
# GULP energy per Si atom -5570.970574 kJ/mol
# Density = 2.405070 g / cm^3
# Si number density = 24.105562 Si / 1000 Ang^3
#
#
#
# Elastic Constant Matrix: (Units=GPa)
#
#
# Indices 1 2 3 4 5 6 
#
# 1 140.0719 43.7140 30.9398 0.0000 0.0000 0.0000
# 2 43.7140 140.0719 30.9398 0.0000 0.0000 0.0000
# 3 30.9398 30.9398 99.9079 0.0000 0.0000 0.0000
# 4 0.0000 0.0000 0.0000 30.9243 0.0000 0.0000
# 5 0.0000 0.0000 0.0000 0.0000 30.9243 0.0000
# 6 0.0000 0.0000 0.0000 0.0000 0.0000 -11.4118
#
#
#
# Elastic Compliance Matrix: (Units=1/GPa)
#
#
# Indices 1 2 3 4 5 6 
#
# 1 0.008226 -0.002152 -0.001881 0.000000 0.000000 0.000000
# 2 -0.002152 0.008226 -0.001881 0.000000 0.000000 0.000000
# 3 -0.001881 -0.001881 0.011174 0.000000 0.000000 0.000000
# 4 0.000000 0.000000 0.000000 0.032337 0.000000 0.000000
# 5 0.000000 0.000000 0.000000 0.000000 0.032337 0.000000
# 6 0.000000 0.000000 0.000000 0.000000 0.000000 -0.087629
#
#
# Mechanical properties :
#
#
# Convention : Reuss Voigt Hill
#
# Bulk Modulus (GPa) = 63.29648 65.69320 64.49484
# Shear Modulus (GPa) = 229.70840 28.38457 129.04648
#
# Velocity S-wave (km/s) = 9.77239 3.43521 7.32462
# Velocity P-wave (km/s) = 12.39548 6.56092 9.91699
#
# Compressibility (1/GPa) = 0.01579867
#
# Stress axis : x y z
#
# Youngs Moduli (GPa) = 121.56228 121.56228 89.49066
#
# Poissons Ratio (x) = 0.26157 0.16835
# Poissons Ratio (y) = 0.26157 0.16835
# Poissons Ratio (z) = 0.22868 0.22868
#
# Static dielectric constant tensor:
#      x y z
#    x 1.473280 0.000000 0.000000 
#    y 0.000000 1.473280 0.000000 
#    z 0.000000 0.000000 2.555060 
# 
# From -- ./inp_files/2147.got.cif
#   From: 2010.05.17/outbox.cif.g08.bks.cpg/sg125_2_cif.got.tgz:2147.got - 2010.05.20 11:54:10.
