data_PCOD9563092
_publ_section_title
;
Structure prediction by ZEFSAII (Michael W. Deem and Ramdas Pophale) SiO2 
 PCOD9563092
Probable space group: P 4/N B M
;
_chemical_formula_sum "Si O2"
_cell_formula_units_Z 96
_cell_length_a 22.561197
_cell_length_b 22.561197
_cell_length_c 9.435996
_cell_angle_alpha 90.000000
_cell_angle_beta 90.000000
_cell_angle_gamma 90.000000
_cell_volume 4802.993773
_symmetry_space_group_name_H-M "P 4/N B M"
_symmetry_group_IT_number 125
_space_group.IT_coordinate_system_code '2'
_symmetry_cell_setting 'tetragonal'
loop_
_space_group_symop_operation_xyz
x,y,z
1/2-y,x,z
1/2-x,1/2-y,z
y,1/2-x,z
x,1/2-y,-z
1/2-x,y,-z
y,x,-z
1/2-y,1/2-x,-z
-x,-y,-z
1/2+y,-x,-z
1/2+x,1/2+y,-z
-y,1/2+x,-z
-x,1/2+y,z
1/2+x,-y,z
-y,-x,z
1/2+y,1/2+x,z
loop_
_atom_site_type_symbol
_atom_site_label
_atom_site_fract_x
_atom_site_fract_y
_atom_site_fract_z
Si Si1 0.177612 0.182317 0.838608
Si Si2 0.457384 0.637014 0.801870
Si Si3 0.311173 0.590841 0.082124
Si Si4 0.239663 0.521273 0.651749
Si Si5 0.946741 0.540386 0.154164
Si Si6 0.577659 0.642145 0.369857
O O1 0.247067 0.169649 0.821759
O O2 0.135912 0.153393 0.724331
O O3 0.164263 0.164263 0.000000
O O4 0.393616 0.606385 0.762498
O O5 0.481138 0.694333 0.718880
O O6 0.505184 0.585830 0.784151
O O7 0.450852 0.655264 0.967337
O O8 0.352463 0.647538 0.106028
O O9 0.295513 0.557911 0.228040
O O10 0.250000 0.606673 0.000000
O O11 0.250000 0.551996 0.500000
O O12 0.202921 0.460662 0.614431
O O13 0.896438 0.535821 0.268822
O O14 0.977234 0.477234 0.129662
O O15 0.933003 0.566998 0.000000
O O16 0.602980 0.602980 0.500000
#
# Coordination Sequence:
#
# PCOD9563092 Si02
#       6
#    16  16  16  16  16  16
#     4   9  21  42  63  85 112 151 209 274 331 381
#     4   9  19  39  65  89 119 156 204 263 319 381
#     4   9  19  38  65  96 124 160 207 264 330 387
#     4  11  24  39  57  88 128 168 213 253 311 386
#     4  10  21  39  62  88 118 155 206 264 323 385
#     4  12  26  38  59  89 127 173 211 266 320 393
#
# _framework density 19.987535000000001
#
# number of rings (size 3 to 8) (size 9 to 14) (size 15 to 20)
#    0.000    2.000    0.000    3.000    4.667    3.167 
#    6.000    0.833    0.000    0.000    0.000    2.333 
#    0.000    0.000    0.000    0.000    0.000    0.000 
#
# Total GULP energy -535035.860681 kJ/mol
# GULP energy per Si atom -5573.290215 kJ/mol
# Density = 1.994204 g / cm^3
# Si number density = 19.987535 Si / 1000 Ang^3
#
#
#
# Elastic Constant Matrix: (Units=GPa)
#
#
# Indices 1 2 3 4 5 6 
#
# 1 70.7451 44.8020 39.7590 0.0000 0.0000 0.0000
# 2 44.8020 70.7456 39.7592 0.0000 0.0000 0.0000
# 3 39.7590 39.7592 125.0696 0.0000 0.0000 0.0000
# 4 0.0000 0.0000 0.0000 27.9164 0.0000 0.0000
# 5 0.0000 0.0000 0.0000 0.0000 27.9167 0.0000
# 6 0.0000 0.0000 0.0000 0.0000 0.0000 31.9870
#
#
#
# Elastic Compliance Matrix: (Units=1/GPa)
#
#
# Indices 1 2 3 4 5 6 
#
# 1 0.024812 -0.013734 -0.003522 0.000000 0.000000 0.000000
# 2 -0.013734 0.024812 -0.003522 0.000000 0.000000 0.000000
# 3 -0.003522 -0.003522 0.010235 0.000000 0.000000 0.000000
# 4 0.000000 0.000000 0.000000 0.035821 0.000000 0.000000
# 5 0.000000 0.000000 0.000000 0.000000 0.035821 0.000000
# 6 0.000000 0.000000 0.000000 0.000000 0.000000 0.031263
#
#
# Mechanical properties :
#
#
# Convention : Reuss Voigt Hill
#
# Bulk Modulus (GPa) = 54.63284 57.24450 55.93867
# Shear Modulus (GPa) = 23.76220 27.04671 25.40445
#
# Velocity S-wave (km/s) = 3.45171 3.68255 3.56900
# Velocity P-wave (km/s) = 6.57864 6.83987 6.71053
#
# Compressibility (1/GPa) = 0.01830401
#
# Stress axis : x y z
#
# Youngs Moduli (GPa) = 40.30335 40.30363 97.70790
#
# Poissons Ratio (x) = 0.55352 0.34409
# Poissons Ratio (y) = 0.55352 0.34409
# Poissons Ratio (z) = 0.14193 0.14194
#
# Static dielectric constant tensor:
#      x y z
#    x 1.746860 0.000000 0.000000 
#    y 0.000000 1.746860 0.000000 
#    z 0.000000 0.000000 1.714470 
# 
# From -- ./inp_files/2841.got.cif
#   From: 2010.05.17/outbox.cif.g08.bks.cpg/sg125_2_cif.got.tgz:2841.got - 2010.05.20 11:54:10.
