data_PCOD9563425
_publ_section_title
;
Structure prediction by ZEFSAII (Michael W. Deem and Ramdas Pophale) SiO2 
 PCOD9563425
Probable space group: P 4/N N C
;
_chemical_formula_sum "Si O2"
_cell_formula_units_Z 120
_cell_length_a 19.293980
_cell_length_b 19.293980
_cell_length_c 13.368248
_cell_angle_alpha 90.000000
_cell_angle_beta 90.000000
_cell_angle_gamma 90.000000
_cell_volume 4976.432775
_symmetry_space_group_name_H-M "P 4/N N C"
_symmetry_group_IT_number 126
_space_group.IT_coordinate_system_code '2'
_symmetry_cell_setting 'tetragonal'
loop_
_space_group_symop_operation_xyz
x,y,z
1/2-y,x,z
1/2-x,1/2-y,z
y,1/2-x,z
x,1/2-y,1/2-z
1/2-x,y,1/2-z
y,x,1/2-z
1/2-y,1/2-x,1/2-z
-x,-y,-z
1/2+y,-x,-z
1/2+x,1/2+y,-z
-y,1/2+x,-z
-x,1/2+y,1/2+z
1/2+x,-y,1/2+z
-y,-x,1/2+z
1/2+y,1/2+x,1/2+z
loop_
_atom_site_type_symbol
_atom_site_label
_atom_site_fract_x
_atom_site_fract_y
_atom_site_fract_z
Si Si1 0.436881 0.008006 0.100262
Si Si2 0.452711 0.250000 0.750000
Si Si3 0.638103 0.980856 0.701343
Si Si4 0.758497 0.041222 0.939740
Si Si5 0.211600 0.821413 0.353659
Si Si6 0.157785 0.316502 0.100494
Si Si7 0.837082 0.928738 0.449167
Si Si8 0.652906 0.055332 0.371830
O O1 0.457040 0.928876 0.118707
O O2 0.373844 0.012968 0.181531
O O3 0.508607 0.935588 0.856157
O O4 0.407178 0.030607 0.991074
O O5 0.421648 0.199540 0.660294
O O6 0.498152 0.306486 0.690731
O O7 0.655887 0.903967 0.665874
O O8 0.701498 0.024537 0.661692
O O9 0.718531 0.113490 0.928583
O O10 0.819986 0.054574 0.016302
O O11 0.717790 0.976397 0.988171
O O12 0.250000 0.750000 0.387580
O O13 0.250000 0.836536 0.250000
O O14 0.129868 0.821627 0.330606
O O15 0.158873 0.235331 0.119573
O O16 0.148176 0.351005 0.990634
#
# Coordination Sequence:
#
# PCOD9563425 Si02
#       8
#    16   8  16  16  16  16  16  16
#     4  10  22  41  65  94 135 178 230 283 350 444
#     4  10  24  44  69  93 136 186 244 300 356 418
#     4  10  22  41  63 101 135 177 222 283 363 438
#     4  11  23  38  65  90 134 177 221 286 358 415
#     4  11  24  39  60  95 132 172 231 288 346 419
#     4  10  20  40  73 106 140 174 228 292 352 439
#     4  10  21  42  65  96 132 182 224 283 358 424
#     4  11  24  41  63  94 127 183 239 289 354 418
#
# _framework density 24.113658000000001
#
# number of rings (size 3 to 8) (size 9 to 14) (size 15 to 20)
#    0.000    1.600    2.667    1.600    1.867    2.667 
#    2.400    6.667    0.000   13.600    0.000    0.000 
#    0.000    0.000    0.000    0.000    0.000    0.000 
#
# Total GULP energy -669004.326723 kJ/mol
# GULP energy per Si atom -5575.036056 kJ/mol
# Density = 2.405877 g / cm^3
# Si number density = 24.113658 Si / 1000 Ang^3
#
#
#
# Elastic Constant Matrix: (Units=GPa)
#
#
# Indices 1 2 3 4 5 6 
#
# 1 93.9455 12.2341 23.1546 0.0000 0.0000 0.0000
# 2 12.2341 93.9455 23.1546 0.0000 0.0000 0.0000
# 3 23.1546 23.1546 127.6682 0.0000 0.0000 0.0000
# 4 0.0000 0.0000 0.0000 25.1440 0.0000 0.0000
# 5 0.0000 0.0000 0.0000 0.0000 25.1440 0.0000
# 6 0.0000 0.0000 0.0000 0.0000 0.0000 25.1773
#
#
#
# Elastic Compliance Matrix: (Units=1/GPa)
#
#
# Indices 1 2 3 4 5 6 
#
# 1 0.011233 -0.001006 -0.001855 0.000000 0.000000 0.000000
# 2 -0.001006 0.011233 -0.001855 0.000000 0.000000 0.000000
# 3 -0.001855 -0.001855 0.008506 0.000000 0.000000 0.000000
# 4 0.000000 0.000000 0.000000 0.039771 0.000000 0.000000
# 5 0.000000 0.000000 0.000000 0.000000 0.039771 0.000000
# 6 0.000000 0.000000 0.000000 0.000000 0.000000 0.039718
#
#
# Mechanical properties :
#
#
# Convention : Reuss Voigt Hill
#
# Bulk Modulus (GPa) = 46.42467 48.07173 47.24820
# Shear Modulus (GPa) = 29.96856 32.22746 31.09801
#
# Velocity S-wave (km/s) = 3.52917 3.65976 3.59506
# Velocity P-wave (km/s) = 5.99174 6.15119 6.07199
#
# Compressibility (1/GPa) = 0.02154027
#
# Stress axis : x y z
#
# Youngs Moduli (GPa) = 89.02678 89.02678 117.56959
#
# Poissons Ratio (x) = 0.08953 0.21807
# Poissons Ratio (y) = 0.08953 0.21807
# Poissons Ratio (z) = 0.16513 0.16513
#
# Static dielectric constant tensor:
#      x y z
#    x 1.278400 0.000000 0.000000 
#    y 0.000000 1.278400 0.000000 
#    z 0.000000 0.000000 1.941780 
# 
# From -- ./inp_files/3961.got.cif
#   From: 2010.05.17/outbox.cif.g08.bks.cpg/sg126_2_cif.got.tgz:3961.got - 2010.05.20 11:58:20.
