data_PCOD9563841
_publ_section_title
;
Structure prediction by ZEFSAII (Michael W. Deem and Ramdas Pophale) SiO2 
 PCOD9563841
Probable space group: P 4/M B M
;
_chemical_formula_sum "Si O2"
_cell_formula_units_Z 128
_cell_length_a 26.330359
_cell_length_b 26.330359
_cell_length_c 7.283878
_cell_angle_alpha 90.000000
_cell_angle_beta 90.000000
_cell_angle_gamma 90.000000
_cell_volume 5049.823791
_symmetry_space_group_name_H-M "P 4/M B M"
_symmetry_group_IT_number 127
_symmetry_cell_setting 'tetragonal'
loop_
_space_group_symop_operation_xyz
x,y,z
-y,x,z
-x,-y,z
y,-x,z
1/2+x,1/2-y,-z
1/2-x,1/2+y,-z
1/2+y,1/2+x,-z
1/2-y,1/2-x,-z
-x,-y,-z
y,-x,-z
x,y,-z
-y,x,-z
1/2-x,1/2+y,z
1/2+x,1/2-y,z
1/2-y,1/2-x,z
1/2+y,1/2+x,z
loop_
_atom_site_type_symbol
_atom_site_label
_atom_site_fract_x
_atom_site_fract_y
_atom_site_fract_z
Si Si1 0.178616 0.400089 0.279786
Si Si2 0.577371 0.847984 0.277923
Si Si3 0.761645 0.929848 0.795850
Si Si4 0.452260 0.431664 0.222922
Si Si5 0.461716 0.718259 0.216012
Si Si6 0.853940 0.122885 0.777320
Si Si7 0.406959 0.982386 0.277248
Si Si8 0.814843 0.230849 0.223134
O O1 0.180413 0.396903 0.500000
O O2 0.154484 0.345517 0.216517
O O3 0.231717 0.425931 0.226630
O O4 0.136625 0.442029 0.228955
O O5 0.576189 0.842929 0.500000
O O6 0.633243 0.866758 0.224584
O O7 0.557721 0.797370 0.190797
O O8 0.537077 0.889861 0.221081
O O9 0.757193 0.872980 0.715413
O O10 0.781349 0.981305 0.705380
O O11 0.784544 0.922891 0.000000
O O12 0.511922 0.431169 0.276750
O O13 0.413193 0.385992 0.277513
O O14 0.452496 0.430646 0.000000
O O15 0.427422 0.673537 0.289226
O O16 0.470424 0.709891 0.000000
O O17 0.818102 0.170951 0.724581
O O18 0.852943 0.123219 0.000000
O O19 0.408707 0.983844 0.500000
O O20 0.459306 0.959306 0.212479
O O21 0.769838 0.269838 0.285545
O O22 0.813063 0.233706 0.000000
#
# Coordination Sequence:
#
# PCOD9563841 Si02
#       8
#    16  16  16  16  16  16  16  16
#     4   9  17  31  51  70  92 129 170 205 249 306
#     4  10  19  30  48  73  96 122 163 212 255 292
#     4  10  20  33  50  71  98 132 167 204 249 304
#     4   8  14  24  40  64  96 134 168 201 255 320
#     4  10  20  31  47  77 105 127 162 212 262 300
#     4   9  18  29  45  70 101 132 166 211 254 301
#     4   8  14  26  43  63  88 118 154 195 240 292
#     4   9  18  32  48  65  90 133 179 208 240 296
#
# _framework density 25.34742
#
# number of rings (size 3 to 8) (size 9 to 14) (size 15 to 20)
#    0.000    2.875    1.250    1.500    1.750    1.750 
#    0.000    2.500    0.000    1.125    0.000    2.625 
#    0.000    0.000    0.000    1.375    0.000    1.250 
#
# Total GULP energy -713049.750661 kJ/mol
# GULP energy per Si atom -5570.701177 kJ/mol
# Density = 2.528973 g / cm^3
# Si number density = 25.347420 Si / 1000 Ang^3
#
#
#
# Elastic Constant Matrix: (Units=GPa)
#
#
# Indices 1 2 3 4 5 6 
#
# 1 112.7117 90.5738 2.5114 0.0000 0.0000 0.0000
# 2 90.5738 112.7117 2.5114 0.0000 0.0000 0.0000
# 3 2.5114 2.5114 107.7664 0.0000 0.0000 0.0000
# 4 0.0000 0.0000 0.0000 -5.8214 0.0000 0.0000
# 5 0.0000 0.0000 0.0000 0.0000 -5.8214 0.0000
# 6 0.0000 0.0000 0.0000 0.0000 0.0000 52.3461
#
#
#
# Elastic Compliance Matrix: (Units=1/GPa)
#
#
# Indices 1 2 3 4 5 6 
#
# 1 0.025047 -0.020125 -0.000115 0.000000 0.000000 0.000000
# 2 -0.020125 0.025047 -0.000115 0.000000 0.000000 0.000000
# 3 -0.000115 -0.000115 0.009285 0.000000 0.000000 0.000000
# 4 0.000000 0.000000 0.000000 -0.171781 0.000000 0.000000
# 5 0.000000 0.000000 0.000000 0.000000 -0.171781 0.000000
# 6 0.000000 0.000000 0.000000 0.000000 0.000000 0.019104
#
#
# Mechanical properties :
#
#
# Convention : Reuss Voigt Hill
#
# Bulk Modulus (GPa) = 53.56211 58.26477 55.91344
# Shear Modulus (GPa) = -22.92011 23.98022 0.53005
#
# Velocity S-wave (km/s) = -3.01032 3.07915 0.45779
# Velocity P-wave (km/s) = 3.01569 5.97310 4.73140
#
# Compressibility (1/GPa) = 0.01866992
#
# Stress axis : x y z
#
# Youngs Moduli (GPa) = 39.92531 39.92531 107.70432
#
# Poissons Ratio (x) = 0.80349 0.01235
# Poissons Ratio (y) = 0.80349 0.01235
# Poissons Ratio (z) = 0.00458 0.00458
#
# Static dielectric constant tensor:
#      x y z
#    x 2.052320 0.000000 0.000000 
#    y 0.000000 2.052320 0.000000 
#    z 0.000000 0.000000 2.088030 
# 
# From -- ./inp_files/3852.got.cif
#   From: 2010.05.17/outbox.cif.g08.bks.cpg/sg127_2_cif.got.tgz:3852.got - 2010.05.20 12:03:00.
