data_PCOD9563952
_publ_section_title
;
Structure prediction by ZEFSAII (Michael W. Deem and Ramdas Pophale) SiO2 
 PCOD9563952
Probable space group: P 4/M B M
;
_chemical_formula_sum "Si O2"
_cell_formula_units_Z 108
_cell_length_a 15.232302
_cell_length_b 15.232302
_cell_length_c 28.460252
_cell_angle_alpha 90.000000
_cell_angle_beta 90.000000
_cell_angle_gamma 90.000000
_cell_volume 6603.433739
_symmetry_space_group_name_H-M "P 4/M B M"
_symmetry_group_IT_number 127
_symmetry_cell_setting 'tetragonal'
loop_
_space_group_symop_operation_xyz
x,y,z
-y,x,z
-x,-y,z
y,-x,z
1/2+x,1/2-y,-z
1/2-x,1/2+y,-z
1/2+y,1/2+x,-z
1/2-y,1/2-x,-z
-x,-y,-z
y,-x,-z
x,y,-z
-y,x,-z
1/2-x,1/2+y,z
1/2+x,1/2-y,z
1/2-y,1/2-x,z
1/2+y,1/2+x,z
loop_
_atom_site_type_symbol
_atom_site_label
_atom_site_fract_x
_atom_site_fract_y
_atom_site_fract_z
Si Si1 0.695376 0.046749 0.112928
Si Si2 0.599927 0.390516 0.446314
Si Si3 0.000000 0.000000 0.265039
Si Si4 0.834168 0.812507 0.351840
Si Si5 0.924490 0.424490 0.946259
Si Si6 0.551868 0.361917 0.053591
Si Si7 0.487150 0.297236 0.705505
Si Si8 0.147649 0.499539 0.783099
O O1 0.627081 0.127081 0.108863
O O2 0.788538 0.072573 0.091595
O O3 0.656020 0.967558 0.081484
O O4 0.694446 0.017223 0.166921
O O5 0.618665 0.494563 0.440416
O O6 0.622022 0.366307 0.500000
O O7 0.648243 0.337138 0.406031
O O8 0.008225 0.891780 0.269122
O O9 0.766904 0.733097 0.346889
O O10 0.797696 0.899155 0.325714
O O11 0.927574 0.791382 0.327822
O O12 0.000000 0.500000 0.946729
O O13 0.902659 0.402659 0.000000
O O14 0.608320 0.450452 0.058597
O O15 0.564062 0.328820 0.000000
O O16 0.488080 0.218571 0.742614
O O17 0.083181 0.583181 0.787329
O O18 0.083891 0.416110 0.774027
#
# Coordination Sequence:
#
# PCOD9563952 Si02
#       8
#    16  16   4  16   8  16  16  16
#     4  10  19  35  56  81 107 135 173 219 267 315
#     4   9  17  31  54  80 108 142 176 221 279 327
#     4   8  20  36  56  72 101 140 169 224 280 308
#     4  11  20  32  55  81 108 141 180 223 269 319
#     4   9  16  28  52  82 106 128 160 209 266 314
#     4   9  19  38  58  76 105 144 176 208 261 326
#     4  10  20  36  53  78 108 137 181 223 269 318
#     4  10  20  37  57  75 106 145 180 220 266 318
#
# _framework density 16.355127
#
# number of rings (size 3 to 8) (size 9 to 14) (size 15 to 20)
#    0.000    2.296    2.222    2.222    0.000    1.185 
#    6.667    0.000    0.000    0.000    0.000    0.000 
#    0.000    2.370    0.000    0.000    0.000    0.000 
#
# Total GULP energy -601213.626477 kJ/mol
# GULP energy per Si atom -5566.792838 kJ/mol
# Density = 1.631790 g / cm^3
# Si number density = 16.355127 Si / 1000 Ang^3
#
#
#
# Elastic Constant Matrix: (Units=GPa)
#
#
# Indices 1 2 3 4 5 6 
#
# 1 63.7964 -2.6638 28.0526 0.0000 0.0000 0.0000
# 2 -2.6638 63.7964 28.0526 0.0000 0.0000 0.0000
# 3 28.0526 28.0526 88.9870 0.0000 0.0000 0.0000
# 4 0.0000 0.0000 0.0000 26.6942 0.0000 0.0000
# 5 0.0000 0.0000 0.0000 0.0000 26.6942 0.0000
# 6 0.0000 0.0000 0.0000 0.0000 0.0000 18.6397
#
#
#
# Elastic Compliance Matrix: (Units=1/GPa)
#
#
# Indices 1 2 3 4 5 6 
#
# 1 0.019032 0.003985 -0.007256 0.000000 0.000000 0.000000
# 2 0.003985 0.019032 -0.007256 0.000000 0.000000 0.000000
# 3 -0.007256 -0.007256 0.015812 0.000000 0.000000 0.000000
# 4 0.000000 0.000000 0.000000 0.037461 0.000000 0.000000
# 5 0.000000 0.000000 0.000000 0.000000 0.037461 0.000000
# 6 0.000000 0.000000 0.000000 0.000000 0.000000 0.053649
#
#
# Mechanical properties :
#
#
# Convention : Reuss Voigt Hill
#
# Bulk Modulus (GPa) = 30.46672 35.94030 33.20351
# Shear Modulus (GPa) = 23.31631 25.28152 24.29891
#
# Velocity S-wave (km/s) = 3.77984 3.93591 3.85867
# Velocity P-wave (km/s) = 6.14152 6.53283 6.34020
#
# Compressibility (1/GPa) = 0.03282270
#
# Stress axis : x y z
#
# Youngs Moduli (GPa) = 52.54338 52.54338 63.24133
#
# Poissons Ratio (x) = -0.20940 0.45888
# Poissons Ratio (y) = -0.20940 0.45888
# Poissons Ratio (z) = 0.38126 0.38126
#
# Static dielectric constant tensor:
#      x y z
#    x 1.532200 0.000000 0.000000 
#    y 0.000000 1.532200 0.000000 
#    z 0.000000 0.000000 1.545140 
# 
# From -- ./inp_files/6212.got.cif
#   From: 2010.05.17/outbox.cif.g08.bks.cpg/sg127_4_cif.got.tgz:6212.got - 2010.05.20 12:03:00.
