data_PCOD9563322
_publ_section_title
;
Structure prediction by ZEFSAII (Michael W. Deem and Ramdas Pophale) SiO2 
 PCOD9563322
Probable space group: P 4/N N C
;
_chemical_formula_sum "Si O2"
_cell_formula_units_Z 96
_cell_length_a 17.594123
_cell_length_b 17.594123
_cell_length_c 17.012628
_cell_angle_alpha 90.000000
_cell_angle_beta 90.000000
_cell_angle_gamma 90.000000
_cell_volume 5266.312828
_symmetry_space_group_name_H-M "P 4/N N C"
_symmetry_group_IT_number 126
_space_group.IT_coordinate_system_code '2'
_symmetry_cell_setting 'tetragonal'
loop_
_space_group_symop_operation_xyz
x,y,z
1/2-y,x,z
1/2-x,1/2-y,z
y,1/2-x,z
x,1/2-y,1/2-z
1/2-x,y,1/2-z
y,x,1/2-z
1/2-y,1/2-x,1/2-z
-x,-y,-z
1/2+y,-x,-z
1/2+x,1/2+y,-z
-y,1/2+x,-z
-x,1/2+y,1/2+z
1/2+x,-y,1/2+z
-y,-x,1/2+z
1/2+y,1/2+x,1/2+z
loop_
_atom_site_type_symbol
_atom_site_label
_atom_site_fract_x
_atom_site_fract_y
_atom_site_fract_z
Si Si1 0.514534 0.514534 0.250000
Si Si2 0.038141 0.272071 0.015442
Si Si3 0.381502 0.539008 0.513199
Si Si4 0.980806 0.594714 0.091857
Si Si5 0.872471 0.045896 0.859559
Si Si6 0.129285 0.278226 0.354324
Si Si7 0.509441 0.250000 0.250000
O O1 0.581475 0.518003 0.185276
O O2 0.441233 0.515399 0.193441
O O3 0.110452 0.229156 0.053079
O O4 0.015260 0.336376 0.079964
O O5 0.040526 0.320509 0.936112
O O6 0.977101 0.204439 0.010521
O O7 0.436999 0.569678 0.444374
O O8 0.421339 0.463109 0.549360
O O9 0.387655 0.598171 0.584942
O O10 0.805960 0.060793 0.799148
O O11 0.162822 0.194990 0.334401
O O12 0.050333 0.291549 0.309031
#
# Coordination Sequence:
#
# PCOD9563322 Si02
#       7
#     8  16  16  16  16  16   8
#     4  10  20  34  56  82 121 141 184 244 286 330
#     4  10  19  33  56  76 103 154 193 229 270 336
#     4   9  18  36  54  76 111 143 194 233 270 340
#     4   9  19  34  54  81 106 147 189 237 283 325
#     4   9  21  32  51  84 107 146 182 230 288 330
#     4  10  20  29  43  77 120 152 174 206 265 344
#     4  10  20  29  48  74 115 150 180 210 276 352
#
# _framework density 18.229071999999999
#
# number of rings (size 3 to 8) (size 9 to 14) (size 15 to 20)
#    0.000    2.500    0.000    2.500    9.333    2.000 
#    0.000    3.333    0.000    8.000    8.667    0.000 
#    0.000    5.333    0.000    0.000    0.000    0.000 
#
# Total GULP energy -534495.538599 kJ/mol
# GULP energy per Si atom -5567.661860 kJ/mol
# Density = 1.818758 g / cm^3
# Si number density = 18.229072 Si / 1000 Ang^3
#
#
#
# Elastic Constant Matrix: (Units=GPa)
#
#
# Indices 1 2 3 4 5 6 
#
# 1 45.8673 7.3592 36.0524 0.0000 0.0000 0.0000
# 2 7.3592 45.8673 36.0524 0.0000 0.0000 0.0000
# 3 36.0524 36.0524 118.7184 0.0000 0.0000 0.0000
# 4 0.0000 0.0000 0.0000 26.0655 0.0000 0.0000
# 5 0.0000 0.0000 0.0000 0.0000 26.0655 0.0000
# 6 0.0000 0.0000 0.0000 0.0000 0.0000 13.8072
#
#
#
# Elastic Compliance Matrix: (Units=1/GPa)
#
#
# Indices 1 2 3 4 5 6 
#
# 1 0.028944 0.002975 -0.009693 0.000000 0.000000 0.000000
# 2 0.002975 0.028944 -0.009693 0.000000 0.000000 0.000000
# 3 -0.009693 -0.009693 0.014310 0.000000 0.000000 0.000000
# 4 0.000000 0.000000 0.000000 0.038365 0.000000 0.000000
# 5 0.000000 0.000000 0.000000 0.000000 0.038365 0.000000
# 6 0.000000 0.000000 0.000000 0.000000 0.000000 0.072426
#
#
# Mechanical properties :
#
#
# Convention : Reuss Voigt Hill
#
# Bulk Modulus (GPa) = 25.39652 41.04235 33.21943
# Shear Modulus (GPa) = 18.70551 21.92023 20.31287
#
# Velocity S-wave (km/s) = 3.20681 3.47145 3.34175
# Velocity P-wave (km/s) = 5.26057 6.21543 5.75783
#
# Compressibility (1/GPa) = 0.03937547
#
# Stress axis : x y z
#
# Youngs Moduli (GPa) = 34.54995 34.54995 69.87900
#
# Poissons Ratio (x) = -0.10279 0.67734
# Poissons Ratio (y) = -0.10279 0.67734
# Poissons Ratio (z) = 0.33489 0.33489
#
# Static dielectric constant tensor:
#      x y z
#    x 1.653670 0.000000 0.000000 
#    y 0.000000 1.653670 0.000000 
#    z 0.000000 0.000000 1.706450 
# 
# From -- ./inp_files/4524.got.cif
#   From: 2010.05.17/outbox.cif.g08.bks.cpg/sg126_3_cif.got.tgz:4524.got - 2010.05.20 11:58:20.
