data_PCOD9563366
_publ_section_title
;
Structure prediction by ZEFSAII (Michael W. Deem and Ramdas Pophale) SiO2 
 PCOD9563366
Probable space group: P 4/N N C
;
_chemical_formula_sum "Si O2"
_cell_formula_units_Z 72
_cell_length_a 19.967280
_cell_length_b 19.967280
_cell_length_c 9.968765
_cell_angle_alpha 90.000000
_cell_angle_beta 90.000000
_cell_angle_gamma 90.000000
_cell_volume 3974.469553
_symmetry_space_group_name_H-M "P 4/N N C"
_symmetry_group_IT_number 126
_space_group.IT_coordinate_system_code '2'
_symmetry_cell_setting 'tetragonal'
loop_
_space_group_symop_operation_xyz
x,y,z
1/2-y,x,z
1/2-x,1/2-y,z
y,1/2-x,z
x,1/2-y,1/2-z
1/2-x,y,1/2-z
y,x,1/2-z
1/2-y,1/2-x,1/2-z
-x,-y,-z
1/2+y,-x,-z
1/2+x,1/2+y,-z
-y,1/2+x,-z
-x,1/2+y,1/2+z
1/2+x,-y,1/2+z
-y,-x,1/2+z
1/2+y,1/2+x,1/2+z
loop_
_atom_site_type_symbol
_atom_site_label
_atom_site_fract_x
_atom_site_fract_y
_atom_site_fract_z
Si Si1 0.917497 0.250000 0.750000
Si Si2 0.883035 0.101874 0.714905
Si Si3 0.017736 0.750000 0.750000
Si Si4 0.530996 0.784901 0.463998
Si Si5 0.861460 0.750000 0.250000
Si Si6 0.426347 0.524344 0.541666
O O1 0.877590 0.181632 0.727999
O O2 0.965311 0.263117 0.621398
O O3 0.815534 0.064190 0.755517
O O4 0.942291 0.076252 0.812297
O O5 0.902624 0.080286 0.565076
O O6 0.975106 0.741887 0.614476
O O7 0.591974 0.755017 0.380506
O O8 0.530358 0.866372 0.464282
O O9 0.814522 0.814522 0.250000
O O10 0.500000 0.500000 0.500000
#
# Coordination Sequence:
#
# PCOD9563366 Si02
#       6
#     8  16   8  16   8  16
#     4   9  18  34  52  76 106 147 188 218 256 311
#     4  10  20  33  52  75 107 141 177 219 261 322
#     4  10  20  35  52  81 114 142 172 216 278 324
#     4   9  20  36  56  79 110 142 176 229 276 318
#     4  10  22  41  62  81 102 140 190 228 270 334
#     4  10  20  34  53  79 105 137 178 222 273 325
#
# _framework density 18.115624
#
# number of rings (size 3 to 8) (size 9 to 14) (size 15 to 20)
#    0.000    2.333    0.000    2.000    0.000    7.556 
#    0.000    3.333    0.000    9.333    0.000    0.000 
#    0.000    0.000    0.000    0.000    0.000    0.000 
#
# Total GULP energy -401738.601130 kJ/mol
# GULP energy per Si atom -5579.702793 kJ/mol
# Density = 1.807439 g / cm^3
# Si number density = 18.115624 Si / 1000 Ang^3
#
#
#
# Elastic Constant Matrix: (Units=GPa)
#
#
# Indices 1 2 3 4 5 6 
#
# 1 102.1618 41.9334 34.0537 0.0000 0.0000 0.0000
# 2 41.9334 102.1618 34.0537 0.0000 0.0000 0.0000
# 3 34.0537 34.0537 116.1821 0.0000 0.0000 0.0000
# 4 0.0000 0.0000 0.0000 20.1388 0.0000 0.0000
# 5 0.0000 0.0000 0.0000 0.0000 20.1388 0.0000
# 6 0.0000 0.0000 0.0000 0.0000 0.0000 -6.0764
#
#
#
# Elastic Compliance Matrix: (Units=1/GPa)
#
#
# Indices 1 2 3 4 5 6 
#
# 1 0.012330 -0.004274 -0.002361 0.000000 0.000000 0.000000
# 2 -0.004274 0.012330 -0.002361 0.000000 0.000000 0.000000
# 3 -0.002361 -0.002361 0.009991 0.000000 0.000000 0.000000
# 4 0.000000 0.000000 0.000000 0.049655 0.000000 0.000000
# 5 0.000000 0.000000 0.000000 0.000000 0.049655 0.000000
# 6 0.000000 0.000000 0.000000 0.000000 0.000000 -0.164570
#
#
# Mechanical properties :
#
#
# Convention : Reuss Voigt Hill
#
# Bulk Modulus (GPa) = 60.03037 60.06525 60.04781
# Shear Modulus (GPa) = -707.83592 20.87124 -343.48234
#
# Velocity S-wave (km/s) = -19.78839 3.39796 -13.78467
# Velocity P-wave (km/s) = 22.11104 6.97305 14.83703
#
# Compressibility (1/GPa) = 0.01665823
#
# Stress axis : x y z
#
# Youngs Moduli (GPa) = 81.10502 81.10502 100.08649
#
# Poissons Ratio (x) = 0.34663 0.23633
# Poissons Ratio (y) = 0.34663 0.23633
# Poissons Ratio (z) = 0.19151 0.19151
#
# Static dielectric constant tensor:
#      x y z
#    x 1.614570 0.000000 0.000000 
#    y 0.000000 1.614570 0.000000 
#    z 0.000000 0.000000 1.604970 
# 
# From -- ./inp_files/1615.got.cif
#   From: 2010.05.17/outbox.cif.g08.bks.cpg/sg126_1_cif.got.tgz:1615.got - 2010.05.20 11:58:20.
