data_PCOD9563940
_publ_section_title
;
Structure prediction by ZEFSAII (Michael W. Deem and Ramdas Pophale) SiO2 
 PCOD9563940
Probable space group: P 4/M B M
;
_chemical_formula_sum "Si O2"
_cell_formula_units_Z 72
_cell_length_a 19.194775
_cell_length_b 19.194775
_cell_length_c 12.053756
_cell_angle_alpha 90.000000
_cell_angle_beta 90.000000
_cell_angle_gamma 90.000000
_cell_volume 4441.078475
_symmetry_space_group_name_H-M "P 4/M B M"
_symmetry_group_IT_number 127
_symmetry_cell_setting 'tetragonal'
loop_
_space_group_symop_operation_xyz
x,y,z
-y,x,z
-x,-y,z
y,-x,z
1/2+x,1/2-y,-z
1/2-x,1/2+y,-z
1/2+y,1/2+x,-z
1/2-y,1/2-x,-z
-x,-y,-z
y,-x,-z
x,y,-z
-y,x,-z
1/2-x,1/2+y,z
1/2+x,1/2-y,z
1/2-y,1/2-x,z
1/2+y,1/2+x,z
loop_
_atom_site_type_symbol
_atom_site_label
_atom_site_fract_x
_atom_site_fract_y
_atom_site_fract_z
Si Si1 0.943981 0.556020 0.634513
Si Si2 0.095105 0.192014 0.000000
Si Si3 0.146416 0.237723 0.237999
Si Si4 0.070285 0.796499 0.000000
Si Si5 0.517010 0.213510 0.632873
Si Si6 0.738473 0.878394 0.232446
O O1 0.945309 0.554692 0.500000
O O2 0.866123 0.534890 0.666737
O O3 0.000000 0.500000 0.675347
O O4 0.121396 0.230596 0.889180
O O5 0.133231 0.116860 0.000000
O O6 0.011752 0.188322 0.000000
O O7 0.193506 0.306495 0.252789
O O8 0.079170 0.240819 0.315858
O O9 0.197169 0.172613 0.261224
O O10 0.092041 0.753895 0.109652
O O11 0.516055 0.217975 0.500000
O O12 0.442768 0.232685 0.684354
O O13 0.669538 0.830463 0.233549
#
# Coordination Sequence:
#
# PCOD9563940 Si02
#       6
#     8   8  16   8  16  16
#     4   9  18  32  50  73 105 141 177 217 262 313
#     4  10  19  34  57  82 106 134 175 222 274 324
#     4  10  20  36  57  80 107 142 182 223 269 322
#     4  10  19  34  57  82 106 136 173 222 274 324
#     4  11  21  34  54  79 108 146 185 221 264 317
#     4  10  21  36  56  81 109 141 180 225 270 320
#
# _framework density 16.212278999999999
#
# number of rings (size 3 to 8) (size 9 to 14) (size 15 to 20)
#    0.000    1.889    3.333    1.333    0.000    5.111 
#    0.000    2.222    0.000    0.667    0.000    6.222 
#    0.000    0.000    0.000    0.000    0.000    0.000 
#
# Total GULP energy -401657.981098 kJ/mol
# GULP energy per Si atom -5578.583071 kJ/mol
# Density = 1.617538 g / cm^3
# Si number density = 16.212279 Si / 1000 Ang^3
#
#
#
# Elastic Constant Matrix: (Units=GPa)
#
#
# Indices 1 2 3 4 5 6 
#
# 1 118.3472 54.2407 59.6363 0.0000 0.0000 0.0000
# 2 54.2407 118.3472 59.6361 0.0000 0.0000 0.0000
# 3 59.6363 59.6361 98.3390 0.0000 0.0000 0.0000
# 4 0.0000 0.0000 0.0000 23.4850 0.0000 0.0000
# 5 0.0000 0.0000 0.0000 0.0000 23.4850 0.0000
# 6 0.0000 0.0000 0.0000 0.0000 0.0000 15.7164
#
#
#
# Elastic Compliance Matrix: (Units=1/GPa)
#
#
# Indices 1 2 3 4 5 6 
#
# 1 0.012787 -0.002812 -0.006049 0.000000 0.000000 0.000000
# 2 -0.002812 0.012787 -0.006049 0.000000 0.000000 0.000000
# 3 -0.006049 -0.006049 0.017505 0.000000 0.000000 0.000000
# 4 0.000000 0.000000 0.000000 0.042580 0.000000 0.000000
# 5 0.000000 0.000000 0.000000 0.000000 0.042580 0.000000
# 6 0.000000 0.000000 0.000000 0.000000 0.000000 0.063628
#
#
# Mechanical properties :
#
#
# Convention : Reuss Voigt Hill
#
# Bulk Modulus (GPa) = 75.42140 75.78440 75.60290
# Shear Modulus (GPa) = 22.11345 23.30530 22.70937
#
# Velocity S-wave (km/s) = 3.69724 3.79556 3.74672
# Velocity P-wave (km/s) = 8.05284 8.12742 8.09022
#
# Compressibility (1/GPa) = 0.01325884
#
# Stress axis : x y z
#
# Youngs Moduli (GPa) = 78.20605 78.20626 57.12550
#
# Poissons Ratio (x) = 0.21994 0.34554
# Poissons Ratio (y) = 0.21994 0.34554
# Poissons Ratio (z) = 0.47306 0.47305
#
# Static dielectric constant tensor:
#      x y z
#    x 1.530320 0.000000 0.000000 
#    y 0.000000 1.530320 0.000000 
#    z 0.000000 0.000000 1.523100 
# 
# From -- ./inp_files/3218.got.cif
#   From: 2010.05.17/outbox.cif.g08.bks.cpg/sg127_2_cif.got.tgz:3218.got - 2010.05.20 12:03:00.
