data_PCOD9563330
_publ_section_title
;
Structure prediction by ZEFSAII (Michael W. Deem and Ramdas Pophale) SiO2 
 PCOD9563330
Probable space group: P 4/N N C
;
_chemical_formula_sum "Si O2"
_cell_formula_units_Z 68
_cell_length_a 16.654302
_cell_length_b 16.654302
_cell_length_c 13.179145
_cell_angle_alpha 90.000000
_cell_angle_beta 90.000000
_cell_angle_gamma 90.000000
_cell_volume 3655.443768
_symmetry_space_group_name_H-M "P 4/N N C"
_symmetry_group_IT_number 126
_space_group.IT_coordinate_system_code '2'
_symmetry_cell_setting 'tetragonal'
loop_
_space_group_symop_operation_xyz
x,y,z
1/2-y,x,z
1/2-x,1/2-y,z
y,1/2-x,z
x,1/2-y,1/2-z
1/2-x,y,1/2-z
y,x,1/2-z
1/2-y,1/2-x,1/2-z
-x,-y,-z
1/2+y,-x,-z
1/2+x,1/2+y,-z
-y,1/2+x,-z
-x,1/2+y,1/2+z
1/2+x,-y,1/2+z
-y,-x,1/2+z
1/2+y,1/2+x,1/2+z
loop_
_atom_site_type_symbol
_atom_site_label
_atom_site_fract_x
_atom_site_fract_y
_atom_site_fract_z
Si Si1 0.133512 0.813741 0.836616
Si Si2 0.089209 0.410119 0.032782
Si Si3 0.747055 0.953111 0.866907
Si Si4 0.250000 0.750000 0.000000
Si Si5 0.017397 0.562003 0.152355
O O1 0.159973 0.750000 0.750000
O O2 0.193855 0.804243 0.929529
O O3 0.120697 0.908865 0.815183
O O4 0.045286 0.780782 0.863698
O O5 0.183991 0.408602 0.059225
O O6 0.051133 0.336162 0.092015
O O7 0.058217 0.492326 0.084111
O O8 0.054242 0.404896 0.919053
O O9 0.750000 0.923124 0.750000
O O10 0.979094 0.520907 0.250000
#
# Coordination Sequence:
#
# PCOD9563330 Si02
#       5
#    16  16  16   4  16
#     4  10  21  34  54  80 112 149 187 233 289 349
#     4  10  20  34  55  82 109 143 185 234 292 348
#     4  10  19  34  55  81 110 142 183 235 288 344
#     4  12  22  36  52  82 120 148 182 240 292 346
#     4  10  20  37  58  79 109 150 196 239 287 354
#
# _framework density 18.602392999999999
#
# number of rings (size 3 to 8) (size 9 to 14) (size 15 to 20)
#    0.000    1.882    0.000    6.706    0.000    4.235 
#    0.000    4.706    0.000    0.000    0.000    1.647 
#    0.000    0.000    0.000    0.000    0.000    0.000 
#
# Total GULP energy -378771.176460 kJ/mol
# GULP energy per Si atom -5570.164360 kJ/mol
# Density = 1.856005 g / cm^3
# Si number density = 18.602393 Si / 1000 Ang^3
#
#
#
# Elastic Constant Matrix: (Units=GPa)
#
#
# Indices 1 2 3 4 5 6 
#
# 1 41.8017 34.5636 21.3172 0.0000 0.0000 0.0000
# 2 34.5636 41.8014 21.3164 0.0000 0.0000 0.0000
# 3 21.3172 21.3164 74.5228 0.0000 0.0000 0.0000
# 4 0.0000 0.0000 0.0000 19.9738 0.0000 0.0000
# 5 0.0000 0.0000 0.0000 0.0000 19.9735 0.0000
# 6 0.0000 0.0000 0.0000 0.0000 0.0000 -64.5640
#
#
#
# Elastic Compliance Matrix: (Units=1/GPa)
#
#
# Indices 1 2 3 4 5 6 
#
# 1 0.076872 -0.061288 -0.004458 0.000000 0.000000 0.000000
# 2 -0.061288 0.076872 -0.004457 0.000000 0.000000 0.000000
# 3 -0.004458 -0.004457 0.015969 0.000000 0.000000 0.000000
# 4 0.000000 0.000000 0.000000 0.050066 0.000000 0.000000
# 5 0.000000 0.000000 0.000000 0.000000 0.050066 0.000000
# 6 0.000000 0.000000 0.000000 0.000000 0.000000 -0.015489
#
#
# Mechanical properties :
#
#
# Convention : Reuss Voigt Hill
#
# Bulk Modulus (GPa) = 34.12311 34.72448 34.42380
# Shear Modulus (GPa) = 12.35999 0.47191 6.41595
#
# Velocity S-wave (km/s) = 2.58045 0.50421 1.85916
# Velocity P-wave (km/s) = 5.22126 4.36419 4.81184
#
# Compressibility (1/GPa) = 0.02930565
#
# Stress axis : x y z
#
# Youngs Moduli (GPa) = 13.00867 13.00871 62.62193
#
# Poissons Ratio (x) = 0.79728 0.27919
# Poissons Ratio (y) = 0.79728 0.27910
# Poissons Ratio (z) = 0.05800 0.05798
#
# Static dielectric constant tensor:
#      x y z
#    x 1.706380 0.000000 0.000000 
#    y 0.000000 1.706350 0.000000 
#    z 0.000000 0.000000 1.682730 
# 
# From -- ./inp_files/2678.got.cif
#   From: 2010.05.17/outbox.cif.g08.bks.cpg/sg126_2_cif.got.tgz:2678.got - 2010.05.20 11:58:20.
