data_PCOD9563828
_publ_section_title
;
Structure prediction by ZEFSAII (Michael W. Deem and Ramdas Pophale) SiO2 
 PCOD9563828
Probable space group: P 4/M B M
;
_chemical_formula_sum "Si O2"
_cell_formula_units_Z 116
_cell_length_a 28.386041
_cell_length_b 28.386041
_cell_length_c 7.976856
_cell_angle_alpha 90.000000
_cell_angle_beta 90.000000
_cell_angle_gamma 90.000000
_cell_volume 6427.489910
_symmetry_space_group_name_H-M "P 4/M B M"
_symmetry_group_IT_number 127
_symmetry_cell_setting 'tetragonal'
loop_
_space_group_symop_operation_xyz
x,y,z
-y,x,z
-x,-y,z
y,-x,z
1/2+x,1/2-y,-z
1/2-x,1/2+y,-z
1/2+y,1/2+x,-z
1/2-y,1/2-x,-z
-x,-y,-z
y,-x,-z
x,y,-z
-y,x,-z
1/2-x,1/2+y,z
1/2+x,1/2-y,z
1/2-y,1/2-x,z
1/2+y,1/2+x,z
loop_
_atom_site_type_symbol
_atom_site_label
_atom_site_fract_x
_atom_site_fract_y
_atom_site_fract_z
Si Si1 0.509139 0.298466 0.197007
Si Si2 0.389468 0.675469 0.695695
Si Si3 0.515278 0.804412 0.307723
Si Si4 0.720136 0.884856 0.191263
Si Si5 0.654892 0.080222 0.200426
Si Si6 0.169819 0.089202 0.803349
Si Si7 0.174897 0.674897 0.500000
Si Si8 0.731000 0.157492 0.699152
O O1 0.559734 0.321492 0.219740
O O2 0.506326 0.248056 0.286939
O O3 0.464989 0.329806 0.255798
O O4 0.501120 0.288563 0.000000
O O5 0.397348 0.685732 0.500000
O O6 0.364046 0.625835 0.714417
O O7 0.356040 0.717541 0.765425
O O8 0.527715 0.812633 0.500000
O O9 0.563690 0.804605 0.205021
O O10 0.473429 0.839163 0.255141
O O11 0.776009 0.894139 0.212430
O O12 0.702902 0.854287 0.348321
O O13 0.712875 0.866893 0.000000
O O14 0.606504 0.106504 0.248992
O O15 0.696752 0.112771 0.273618
O O16 0.659499 0.082321 0.000000
O O17 0.157364 0.090157 0.000000
O O18 0.735828 0.165586 0.500000
O O19 0.702748 0.202748 0.769926
#
# Coordination Sequence:
#
# PCOD9563828 Si02
#       8
#    16  16  16  16  16  16   4  16
#     4  10  20  35  56  78 106 145 187 235 285 337
#     4  11  21  32  54  83 110 148 187 229 283 341
#     4  11  19  32  54  81 110 146 190 236 290 342
#     4  10  22  40  60  86 117 150 195 244 290 343
#     4  10  19  29  46  74 109 147 183 227 280 334
#     4   9  21  39  57  80 112 149 190 235 279 335
#     4  12  22  40  64  90 109 158 190 248 300 332
#     4   9  18  32  45  69 107 147 183 217 263 332
#
# _framework density 18.047478999999999
#
# number of rings (size 3 to 8) (size 9 to 14) (size 15 to 20)
#    0.000    1.931    2.069    3.517    0.966    2.483 
#    1.241    0.000    0.000    0.414    0.000    3.862 
#    0.000    2.207    0.000    0.000    0.000    0.000 
#
# Total GULP energy -645906.071633 kJ/mol
# GULP energy per Si atom -5568.155790 kJ/mol
# Density = 1.800640 g / cm^3
# Si number density = 18.047479 Si / 1000 Ang^3
#
#
#
# Elastic Constant Matrix: (Units=GPa)
#
#
# Indices 1 2 3 4 5 6 
#
# 1 7.2845 79.4180 15.7322 0.0000 0.0000 0.0000
# 2 79.4180 7.2845 15.7322 0.0000 0.0000 0.0000
# 3 15.7322 15.7322 67.8239 0.0000 0.0000 0.0000
# 4 0.0000 0.0000 0.0000 21.3746 0.0000 0.0000
# 5 0.0000 0.0000 0.0000 0.0000 21.3746 0.0000
# 6 0.0000 0.0000 0.0000 0.0000 0.0000 22.5959
#
#
#
# Elastic Compliance Matrix: (Units=1/GPa)
#
#
# Indices 1 2 3 4 5 6 
#
# 1 -0.000635 0.013228 -0.002921 0.000000 0.000000 0.000000
# 2 0.013228 -0.000635 -0.002921 0.000000 0.000000 0.000000
# 3 -0.002921 -0.002921 0.016099 0.000000 0.000000 0.000000
# 4 0.000000 0.000000 0.000000 0.046785 0.000000 0.000000
# 5 0.000000 0.000000 0.000000 0.000000 0.046785 0.000000
# 6 0.000000 0.000000 0.000000 0.000000 0.000000 0.044256
#
#
# Mechanical properties :
#
#
# Convention : Reuss Voigt Hill
#
# Bulk Modulus (GPa) = 33.78152 33.79532 33.78842
# Shear Modulus (GPa) = 33.84096 11.16972 22.50534
#
# Velocity S-wave (km/s) = 4.33495 2.49048 3.53513
# Velocity P-wave (km/s) = 6.61925 5.19966 5.95193
#
# Compressibility (1/GPa) = 0.02960198
#
# Stress axis : x y z
#
# Youngs Moduli (GPa) = -1575.55754 -1575.55754 62.11471
#
# Poissons Ratio (x) = 20.84225 0.18145
# Poissons Ratio (y) = 20.84225 0.18145
# Poissons Ratio (z) = -4.60254 -4.60254
#
# Static dielectric constant tensor:
#      x y z
#    x 1.622620 0.000000 0.000000 
#    y 0.000000 1.622620 0.000000 
#    z 0.000000 0.000000 1.643840 
# 
# From -- ./inp_files/2380.got.cif
#   From: 2010.05.17/outbox.cif.g08.bks.cpg/sg127_2_cif.got.tgz:2380.got - 2010.05.20 12:03:00.
