data_PCOD9563626
_publ_section_title
;
Structure prediction by ZEFSAII (Michael W. Deem and Ramdas Pophale) SiO2 
 PCOD9563626
Probable space group: P 4/N N C
;
_chemical_formula_sum "Si O2"
_cell_formula_units_Z 84
_cell_length_a 21.144681
_cell_length_b 21.144681
_cell_length_c 9.986768
_cell_angle_alpha 90.000000
_cell_angle_beta 90.000000
_cell_angle_gamma 90.000000
_cell_volume 4465.059351
_symmetry_space_group_name_H-M "P 4/N N C"
_symmetry_group_IT_number 126
_space_group.IT_coordinate_system_code '2'
_symmetry_cell_setting 'tetragonal'
loop_
_space_group_symop_operation_xyz
x,y,z
1/2-y,x,z
1/2-x,1/2-y,z
y,1/2-x,z
x,1/2-y,1/2-z
1/2-x,y,1/2-z
y,x,1/2-z
1/2-y,1/2-x,1/2-z
-x,-y,-z
1/2+y,-x,-z
1/2+x,1/2+y,-z
-y,1/2+x,-z
-x,1/2+y,1/2+z
1/2+x,-y,1/2+z
-y,-x,1/2+z
1/2+y,1/2+x,1/2+z
loop_
_atom_site_type_symbol
_atom_site_label
_atom_site_fract_x
_atom_site_fract_y
_atom_site_fract_z
Si Si1 0.750000 0.250000 0.000000
Si Si2 0.679808 0.016387 0.699347
Si Si3 0.678015 0.457109 0.269045
Si Si4 0.481020 0.398507 0.538813
Si Si5 0.396023 0.512984 0.475479
Si Si6 0.338063 0.682026 0.680501
O O1 0.716381 0.189635 0.070475
O O2 0.750000 0.000633 0.750000
O O3 0.653440 0.975671 0.577563
O O4 0.681227 0.088320 0.643074
O O5 0.631777 0.012733 0.825462
O O6 0.750000 0.475429 0.250000
O O7 0.634130 0.501854 0.178846
O O8 0.656751 0.462518 0.422626
O O9 0.671053 0.382230 0.235585
O O10 0.421853 0.445266 0.525275
O O11 0.543470 0.441236 0.512088
O O12 0.329048 0.750000 0.750000
#
# Coordination Sequence:
#
# PCOD9563626 Si02
#       6
#     4  16  16  16  16  16
#     4  12  26  36  52  70 116 176 202 244 270 324
#     4  11  23  37  60  83 116 147 197 242 281 331
#     4  12  24  37  59  84 117 150 200 242 281 335
#     4  11  22  40  60  81 113 155 195 238 292 342
#     4  11  22  40  59  83 113 153 196 237 294 342
#     4  11  25  37  51  76 115 160 207 240 278 316
#
# _framework density 18.812738
#
# number of rings (size 3 to 8) (size 9 to 14) (size 15 to 20)
#    0.000    0.762    3.810    3.714   10.667    3.048 
#    0.000    0.000    0.000    0.000    0.000    0.000 
#    0.000   53.333    0.000    0.000    0.000    0.000 
#
# Total GULP energy -468990.996040 kJ/mol
# GULP energy per Si atom -5583.226143 kJ/mol
# Density = 1.876992 g / cm^3
# Si number density = 18.812738 Si / 1000 Ang^3
#
#
#
# Elastic Constant Matrix: (Units=GPa)
#
#
# Indices 1 2 3 4 5 6 
#
# 1 52.9561 28.0185 2.3765 0.0000 0.0000 0.0000
# 2 28.0185 52.9561 2.3765 0.0000 0.0000 0.0000
# 3 2.3765 2.3765 54.7542 0.0000 0.0000 0.0000
# 4 0.0000 0.0000 0.0000 26.6084 0.0000 0.0000
# 5 0.0000 0.0000 0.0000 0.0000 26.6084 0.0000
# 6 0.0000 0.0000 0.0000 0.0000 0.0000 27.5150
#
#
#
# Elastic Compliance Matrix: (Units=1/GPa)
#
#
# Indices 1 2 3 4 5 6 
#
# 1 0.026241 -0.013860 -0.000537 0.000000 0.000000 0.000000
# 2 -0.013860 0.026241 -0.000537 0.000000 0.000000 0.000000
# 3 -0.000537 -0.000537 0.018310 0.000000 0.000000 0.000000
# 4 0.000000 0.000000 0.000000 0.037582 0.000000 0.000000
# 5 0.000000 0.000000 0.000000 0.000000 0.037582 0.000000
# 6 0.000000 0.000000 0.000000 0.000000 0.000000 0.036344
#
#
# Mechanical properties :
#
#
# Convention : Reuss Voigt Hill
#
# Bulk Modulus (GPa) = 24.43626 25.13436 24.78531
# Shear Modulus (GPa) = 22.14262 24.67269 23.40766
#
# Velocity S-wave (km/s) = 3.43447 3.62538 3.53121
# Velocity P-wave (km/s) = 5.36142 5.56001 5.46162
#
# Compressibility (1/GPa) = 0.04092279
#
# Stress axis : x y z
#
# Youngs Moduli (GPa) = 38.10884 38.10884 54.61468
#
# Poissons Ratio (x) = 0.52817 0.02935
# Poissons Ratio (y) = 0.52817 0.02935
# Poissons Ratio (z) = 0.02048 0.02048
#
# Static dielectric constant tensor:
#      x y z
#    x 1.660550 0.000000 0.000000 
#    y 0.000000 1.660550 0.000000 
#    z 0.000000 0.000000 1.807360 
# 
# From -- ./inp_files/1716.got.cif
#   From: 2010.05.17/outbox.cif.g08.bks.cpg/sg126_1_cif.got.tgz:1716.got - 2010.05.20 11:58:20.
