data_PCOD9563295
_publ_section_title
;
Structure prediction by ZEFSAII (Michael W. Deem and Ramdas Pophale) SiO2 
 PCOD9563295
Probable space group: P 4/N N C
;
_chemical_formula_sum "Si O2"
_cell_formula_units_Z 68
_cell_length_a 14.593106
_cell_length_b 14.593106
_cell_length_c 16.133742
_cell_angle_alpha 90.000000
_cell_angle_beta 90.000000
_cell_angle_gamma 90.000000
_cell_volume 3435.821412
_symmetry_space_group_name_H-M "P 4/N N C"
_symmetry_group_IT_number 126
_space_group.IT_coordinate_system_code '2'
_symmetry_cell_setting 'tetragonal'
loop_
_space_group_symop_operation_xyz
x,y,z
1/2-y,x,z
1/2-x,1/2-y,z
y,1/2-x,z
x,1/2-y,1/2-z
1/2-x,y,1/2-z
y,x,1/2-z
1/2-y,1/2-x,1/2-z
-x,-y,-z
1/2+y,-x,-z
1/2+x,1/2+y,-z
-y,1/2+x,-z
-x,1/2+y,1/2+z
1/2+x,-y,1/2+z
-y,-x,1/2+z
1/2+y,1/2+x,1/2+z
loop_
_atom_site_type_symbol
_atom_site_label
_atom_site_fract_x
_atom_site_fract_y
_atom_site_fract_z
Si Si1 0.092124 0.843894 0.925154
Si Si2 0.039715 0.870295 0.578473
Si Si3 0.638332 0.644657 0.656118
Si Si4 0.750000 0.250000 0.500000
Si Si5 0.143954 0.638774 0.751443
O O1 0.047665 0.741954 0.931876
O O2 0.200051 0.819131 0.939155
O O3 0.088829 0.884644 0.832984
O O4 0.079352 0.911351 0.002418
O O5 0.093286 0.889483 0.664298
O O6 0.933662 0.895906 0.592148
O O7 0.745637 0.627066 0.647985
O O8 0.616359 0.616359 0.750000
O O9 0.144166 0.750000 0.750000
O O10 0.250000 0.607668 0.750000
#
# Coordination Sequence:
#
# PCOD9563295 Si02
#       5
#    16  16  16   4  16
#     4   9  16  24  42  71 100 135 168 207 261 327
#     4  10  18  30  50  73 110 140 172 226 269 322
#     4   9  20  36  55  72  93 139 197 239 268 318
#     4   8  12  24  34  56 100 126 160 188 230 312
#     4   9  15  23  41  68 100 139 173 194 249 329
#
# _framework density 19.791484000000001
#
# number of rings (size 3 to 8) (size 9 to 14) (size 15 to 20)
#    0.000    2.824    0.000    6.353    9.882    0.000 
#    0.000    1.176    0.000    0.000    0.000    0.000 
#    0.000    0.000    0.000   23.294    1.412    0.000 
#
# Total GULP energy -378899.420181 kJ/mol
# GULP energy per Si atom -5572.050297 kJ/mol
# Density = 1.974644 g / cm^3
# Si number density = 19.791484 Si / 1000 Ang^3
#
#
#
# Elastic Constant Matrix: (Units=GPa)
#
#
# Indices 1 2 3 4 5 6 
#
# 1 66.9133 12.2350 49.1536 0.0000 0.0000 0.0000
# 2 12.2350 66.9133 49.1536 0.0000 0.0000 0.0000
# 3 49.1536 49.1536 155.7843 0.0000 0.0000 0.0000
# 4 0.0000 0.0000 0.0000 20.7775 0.0000 0.0000
# 5 0.0000 0.0000 0.0000 0.0000 20.7775 0.0000
# 6 0.0000 0.0000 0.0000 0.0000 0.0000 -3.7033
#
#
#
# Elastic Compliance Matrix: (Units=1/GPa)
#
#
# Indices 1 2 3 4 5 6 
#
# 1 0.019533 0.001244 -0.006556 0.000000 0.000000 0.000000
# 2 0.001244 0.019533 -0.006556 0.000000 0.000000 0.000000
# 3 -0.006556 -0.006556 0.010556 0.000000 0.000000 0.000000
# 4 0.000000 0.000000 0.000000 0.048129 0.000000 0.000000
# 5 0.000000 0.000000 0.000000 0.000000 0.048129 0.000000
# 6 0.000000 0.000000 0.000000 0.000000 0.000000 -0.270030
#
#
# Mechanical properties :
#
#
# Convention : Reuss Voigt Hill
#
# Bulk Modulus (GPa) = 38.62858 56.74391 47.68625
# Shear Modulus (GPa) = -54.47404 19.50827 -17.48288
#
# Velocity S-wave (km/s) = -5.25202 3.14298 -2.97535
# Velocity P-wave (km/s) = 4.14948 6.47334 3.51326
#
# Compressibility (1/GPa) = 0.02588757
#
# Stress axis : x y z
#
# Youngs Moduli (GPa) = 51.19563 51.19563 94.73240
#
# Poissons Ratio (x) = -0.06369 0.62103
# Poissons Ratio (y) = -0.06369 0.62103
# Poissons Ratio (z) = 0.33562 0.33562
#
# Static dielectric constant tensor:
#      x y z
#    x 1.759930 0.000000 0.000000 
#    y 0.000000 1.759930 0.000000 
#    z 0.000000 0.000000 1.762080 
# 
# From -- ./inp_files/3555.got.cif
#   From: 2010.05.17/outbox.cif.g08.bks.cpg/sg126_2_cif.got.tgz:3555.got - 2010.05.20 11:58:20.
