data_PCOD9563228
_publ_section_title
;
Structure prediction by ZEFSAII (Michael W. Deem and Ramdas Pophale) SiO2 
 PCOD9563228
Probable space group: P 4/N B M
;
_chemical_formula_sum "Si O2"
_cell_formula_units_Z 72
_cell_length_a 21.418643
_cell_length_b 21.418643
_cell_length_c 7.796985
_cell_angle_alpha 90.000000
_cell_angle_beta 90.000000
_cell_angle_gamma 90.000000
_cell_volume 3576.931334
_symmetry_space_group_name_H-M "P 4/N B M"
_symmetry_group_IT_number 125
_space_group.IT_coordinate_system_code '2'
_symmetry_cell_setting 'tetragonal'
loop_
_space_group_symop_operation_xyz
x,y,z
1/2-y,x,z
1/2-x,1/2-y,z
y,1/2-x,z
x,1/2-y,-z
1/2-x,y,-z
y,x,-z
1/2-y,1/2-x,-z
-x,-y,-z
1/2+y,-x,-z
1/2+x,1/2+y,-z
-y,1/2+x,-z
-x,1/2+y,z
1/2+x,-y,z
-y,-x,z
1/2+y,1/2+x,z
loop_
_atom_site_type_symbol
_atom_site_label
_atom_site_fract_x
_atom_site_fract_y
_atom_site_fract_z
Si Si1 0.080773 0.080773 0.000000
Si Si2 0.930484 0.784238 0.832916
Si Si3 0.942550 0.057451 0.963557
Si Si4 0.628307 0.128307 0.316386
Si Si5 0.243765 0.577255 0.197949
Si Si6 0.854254 0.750000 0.500000
Si Si7 0.894817 0.105184 0.313123
O O1 0.141703 0.077561 0.876954
O O2 0.012424 0.077619 0.911357
O O3 0.895559 0.759866 0.667060
O O4 0.001733 0.760160 0.810789
O O5 0.903970 0.750000 0.000000
O O6 0.897470 0.102531 0.862962
O O7 0.933492 0.066509 0.169153
O O8 0.608236 0.200703 0.307124
O O9 0.596460 0.096460 0.483161
O O10 0.177222 0.593996 0.273643
O O11 0.250000 0.598673 0.000000
O O12 0.809830 0.809830 0.500000
#
# Coordination Sequence:
#
# PCOD9563228 Si02
#       7
#     8  16   8   8  16   8   8
#     4  11  22  42  72  99 134 186 226 287 350 419
#     4  11  23  42  69  96 130 177 227 277 343 414
#     4  11  22  44  64  98 144 171 229 289 349 410
#     4  12  25  40  66 101 132 187 234 277 342 413
#     4  11  22  43  67  94 137 181 226 283 335 396
#     4  11  26  44  64  94 132 167 218 288 346 419
#     4  12  23  42  66 100 138 179 225 291 337 407
#
# _framework density 20.128985
#
# number of rings (size 3 to 8) (size 9 to 14) (size 15 to 20)
#    0.000    0.778    4.444    3.333    3.111    0.444 
#    0.000    5.556    0.000    0.000    0.000    0.000 
#    0.000    0.000    0.000    0.000    0.000    0.000 
#
# Total GULP energy -401557.461795 kJ/mol
# GULP energy per Si atom -5577.186969 kJ/mol
# Density = 2.008317 g / cm^3
# Si number density = 20.128985 Si / 1000 Ang^3
#
#
#
# Elastic Constant Matrix: (Units=GPa)
#
#
# Indices 1 2 3 4 5 6 
#
# 1 -20.3337 160.8463 41.3109 0.0000 0.0000 0.0000
# 2 160.8463 -20.3337 41.3109 0.0000 0.0000 0.0000
# 3 41.3109 41.3109 134.7819 0.0000 0.0000 0.0000
# 4 0.0000 0.0000 0.0000 -184.4044 0.0000 0.0000
# 5 0.0000 0.0000 0.0000 0.0000 -184.4044 0.0000
# 6 0.0000 0.0000 0.0000 0.0000 0.0000 24.7599
#
#
#
# Elastic Compliance Matrix: (Units=1/GPa)
#
#
# Indices 1 2 3 4 5 6 
#
# 1 0.001581 0.007100 -0.002661 0.000000 0.000000 0.000000
# 2 0.007100 0.001581 -0.002661 0.000000 0.000000 0.000000
# 3 -0.002661 -0.002661 0.009051 0.000000 0.000000 0.000000
# 4 0.000000 0.000000 0.000000 -0.005423 0.000000 0.000000
# 5 0.000000 0.000000 0.000000 0.000000 -0.005423 0.000000
# 6 0.000000 0.000000 0.000000 0.000000 0.000000 0.040388
#
#
# Mechanical properties :
#
#
# Convention : Reuss Voigt Hill
#
# Bulk Modulus (GPa) = 63.41216 64.56120 63.98668
# Shear Modulus (GPa) = 115.06404 -78.76669 18.14867
#
# Velocity S-wave (km/s) = 7.56885 -6.26226 3.00595
# Velocity P-wave (km/s) = 10.39012 4.48827 6.62609
#
# Compressibility (1/GPa) = 0.01576985
#
# Stress axis : x y z
#
# Youngs Moduli (GPa) = 632.50685 632.50685 110.49096
#
# Poissons Ratio (x) = -4.49104 0.29400
# Poissons Ratio (y) = -4.49104 0.29400
# Poissons Ratio (z) = 1.68301 1.68301
#
# Static dielectric constant tensor:
#      x y z
#    x 1.732710 0.000000 0.000000 
#    y 0.000000 1.732710 0.000000 
#    z 0.000000 0.000000 1.682490 
# 
# From -- ./inp_files/2643.got.cif
#   From: 2010.05.17/outbox.cif.g08.bks.cpg/sg125_2_cif.got.tgz:2643.got - 2010.05.20 11:54:10.
