data_PCOD9563546
_publ_section_title
;
Structure prediction by ZEFSAII (Michael W. Deem and Ramdas Pophale) SiO2 
 PCOD9563546
Probable space group: P 4/N N C
;
_chemical_formula_sum "Si O2"
_cell_formula_units_Z 52
_cell_length_a 16.918537
_cell_length_b 16.918537
_cell_length_c 9.225031
_cell_angle_alpha 90.000000
_cell_angle_beta 90.000000
_cell_angle_gamma 90.000000
_cell_volume 2640.544223
_symmetry_space_group_name_H-M "P 4/N N C"
_symmetry_group_IT_number 126
_space_group.IT_coordinate_system_code '2'
_symmetry_cell_setting 'tetragonal'
loop_
_space_group_symop_operation_xyz
x,y,z
1/2-y,x,z
1/2-x,1/2-y,z
y,1/2-x,z
x,1/2-y,1/2-z
1/2-x,y,1/2-z
y,x,1/2-z
1/2-y,1/2-x,1/2-z
-x,-y,-z
1/2+y,-x,-z
1/2+x,1/2+y,-z
-y,1/2+x,-z
-x,1/2+y,1/2+z
1/2+x,-y,1/2+z
-y,-x,1/2+z
1/2+y,1/2+x,1/2+z
loop_
_atom_site_type_symbol
_atom_site_label
_atom_site_fract_x
_atom_site_fract_y
_atom_site_fract_z
Si Si1 0.661210 0.104156 0.621965
Si Si2 0.250000 0.750000 0.250000
Si Si3 0.950855 0.669092 0.684815
Si Si4 0.714715 0.019781 0.091494
O O1 0.700303 0.188559 0.657430
O O2 0.712775 0.063346 0.495375
O O3 0.573533 0.135446 0.595425
O O4 0.662878 0.041696 0.754833
O O5 0.917722 0.750000 0.750000
O O6 0.903810 0.596191 0.750000
O O7 0.950339 0.684662 0.513542
O O8 0.750000 0.002618 0.250000
#
# Coordination Sequence:
#
# PCOD9563546 Si02
#       4
#    16   4  16  16
#     4  11  20  35  57  89 126 166 200 248 311 397
#     4  12  16  34  58  88 126 170 202 242 308 406
#     4  10  23  43  60  83 117 160 215 263 317 382
#     4  11  20  34  56  91 125 160 204 253 316 379
#
# _framework density 19.692910000000001
#
# number of rings (size 3 to 8) (size 9 to 14) (size 15 to 20)
#    0.000    1.231    6.154    3.692    0.000    1.538 
#    0.000    6.154    0.000    0.000    0.000    8.615 
#    0.000    0.000    0.000    0.000    0.000    0.000 
#
# Total GULP energy -289603.091064 kJ/mol
# GULP energy per Si atom -5569.290213 kJ/mol
# Density = 1.964809 g / cm^3
# Si number density = 19.692910 Si / 1000 Ang^3
#
#
#
# Elastic Constant Matrix: (Units=GPa)
#
#
# Indices 1 2 3 4 5 6 
#
# 1 62.1651 31.2032 37.0733 0.0000 0.0000 0.0000
# 2 31.2032 62.1706 37.0743 0.0000 0.0000 0.0000
# 3 37.0733 37.0743 161.8964 0.0000 0.0000 0.0000
# 4 0.0000 0.0000 0.0000 6.2240 0.0000 0.0000
# 5 0.0000 0.0000 0.0000 0.0000 6.2178 0.0000
# 6 0.0000 0.0000 0.0000 0.0000 0.0000 4.2347
#
#
#
# Elastic Compliance Matrix: (Units=1/GPa)
#
#
# Indices 1 2 3 4 5 6 
#
# 1 0.022694 -0.009602 -0.002998 0.000000 0.000000 0.000000
# 2 -0.009602 0.022692 -0.002998 0.000000 0.000000 0.000000
# 3 -0.002998 -0.002998 0.007550 0.000000 0.000000 0.000000
# 4 0.000000 0.000000 0.000000 0.160669 0.000000 0.000000
# 5 0.000000 0.000000 0.000000 0.000000 0.160830 0.000000
# 6 0.000000 0.000000 0.000000 0.000000 0.000000 0.236143
#
#
# Mechanical properties :
#
#
# Convention : Reuss Voigt Hill
#
# Bulk Modulus (GPa) = 45.99828 55.21484 50.60656
# Shear Modulus (GPa) = 7.70394 15.39405 11.54900
#
# Velocity S-wave (km/s) = 1.98003 2.79893 2.42431
# Velocity P-wave (km/s) = 5.35125 6.20839 5.79569
#
# Compressibility (1/GPa) = 0.02173994
#
# Stress axis : x y z
#
# Youngs Moduli (GPa) = 44.06505 44.06915 132.45548
#
# Poissons Ratio (x) = 0.42316 0.39708
# Poissons Ratio (y) = 0.42312 0.39704
# Poissons Ratio (z) = 0.13210 0.13210
#
# Static dielectric constant tensor:
#      x y z
#    x 1.839250 0.000000 0.000000 
#    y 0.000000 1.839290 0.000000 
#    z 0.000000 0.000000 1.800700 
# 
# From -- ./inp_files/1181.got.cif
#   From: 2010.05.17/outbox.cif.g08.bks.cpg/sg126_1_cif.got.tgz:1181.got - 2010.05.20 11:58:20.
