data_PCOD9563409
_publ_section_title
;
Structure prediction by ZEFSAII (Michael W. Deem and Ramdas Pophale) SiO2 
 PCOD9563409
Probable space group: P 4/N N C
;
_chemical_formula_sum "Si O2"
_cell_formula_units_Z 72
_cell_length_a 20.715085
_cell_length_b 20.715085
_cell_length_c 8.135442
_cell_angle_alpha 90.000000
_cell_angle_beta 90.000000
_cell_angle_gamma 90.000000
_cell_volume 3491.038132
_symmetry_space_group_name_H-M "P 4/N N C"
_symmetry_group_IT_number 126
_space_group.IT_coordinate_system_code '2'
_symmetry_cell_setting 'tetragonal'
loop_
_space_group_symop_operation_xyz
x,y,z
1/2-y,x,z
1/2-x,1/2-y,z
y,1/2-x,z
x,1/2-y,1/2-z
1/2-x,y,1/2-z
y,x,1/2-z
1/2-y,1/2-x,1/2-z
-x,-y,-z
1/2+y,-x,-z
1/2+x,1/2+y,-z
-y,1/2+x,-z
-x,1/2+y,1/2+z
1/2+x,-y,1/2+z
-y,-x,1/2+z
1/2+y,1/2+x,1/2+z
loop_
_atom_site_type_symbol
_atom_site_label
_atom_site_fract_x
_atom_site_fract_y
_atom_site_fract_z
Si Si1 0.536970 0.175631 0.263652
Si Si2 0.445956 0.310670 0.977846
Si Si3 0.855353 0.750000 0.250000
Si Si4 0.617963 0.433270 0.090427
Si Si5 0.934612 0.565389 0.250000
Si Si6 0.250000 0.554191 0.750000
O O1 0.560331 0.250000 0.250000
O O2 0.464085 0.179607 0.333791
O O3 0.573515 0.129365 0.393400
O O4 0.546008 0.139104 0.091707
O O5 0.395382 0.257302 0.917214
O O6 0.429457 0.378008 0.887039
O O7 0.509099 0.278927 0.893165
O O8 0.811479 0.811479 0.250000
O O9 0.580450 0.494794 0.171536
O O10 0.685435 0.414002 0.179700
#
# Coordination Sequence:
#
# PCOD9563409 Si02
#       6
#    16  16   8  16   8   8
#     4  12  26  43  69 100 138 188 226 297 360 433
#     4  10  20  38  62 100 137 177 229 280 366 410
#     4  10  20  37  68 100 137 193 245 286 341 439
#     4  11  24  43  69 101 138 180 238 289 361 433
#     4  10  22  42  71 104 134 178 230 303 356 422
#     4   9  18  39  67  87 135 171 216 284 344 421
#
# _framework density 20.624237999999998
#
# number of rings (size 3 to 8) (size 9 to 14) (size 15 to 20)
#    0.000    1.444    3.333    2.667    0.000    4.444 
#    0.000    0.556    0.000    0.000    0.000    1.556 
#    0.000    0.000    0.000    0.000    0.000    0.000 
#
# Total GULP energy -401059.016845 kJ/mol
# GULP energy per Si atom -5570.264123 kJ/mol
# Density = 2.057730 g / cm^3
# Si number density = 20.624238 Si / 1000 Ang^3
#
#
#
# Elastic Constant Matrix: (Units=GPa)
#
#
# Indices 1 2 3 4 5 6 
#
# 1 113.3410 60.2205 43.3284 0.0000 0.0000 0.0000
# 2 60.2205 113.3403 43.3277 0.0000 0.0000 0.0000
# 3 43.3284 43.3277 108.1860 0.0000 0.0000 0.0000
# 4 0.0000 0.0000 0.0000 27.9752 0.0000 0.0000
# 5 0.0000 0.0000 0.0000 0.0000 27.9754 0.0000
# 6 0.0000 0.0000 0.0000 0.0000 0.0000 31.6687
#
#
#
# Elastic Compliance Matrix: (Units=1/GPa)
#
#
# Indices 1 2 3 4 5 6 
#
# 1 0.013013 -0.005812 -0.002884 0.000000 0.000000 0.000000
# 2 -0.005812 0.013013 -0.002884 0.000000 0.000000 0.000000
# 3 -0.002884 -0.002884 0.011554 0.000000 0.000000 0.000000
# 4 0.000000 0.000000 0.000000 0.035746 0.000000 0.000000
# 5 0.000000 0.000000 0.000000 0.000000 0.035746 0.000000
# 6 0.000000 0.000000 0.000000 0.000000 0.000000 0.031577
#
#
# Mechanical properties :
#
#
# Convention : Reuss Voigt Hill
#
# Bulk Modulus (GPa) = 69.34810 69.84674 69.59742
# Shear Modulus (GPa) = 29.65310 30.05656 29.85483
#
# Velocity S-wave (km/s) = 3.79592 3.82166 3.80881
# Velocity P-wave (km/s) = 7.27390 7.30844 7.29119
#
# Compressibility (1/GPa) = 0.01442001
#
# Stress axis : x y z
#
# Youngs Moduli (GPa) = 76.84339 76.84329 86.55302
#
# Poissons Ratio (x) = 0.44660 0.24965
# Poissons Ratio (y) = 0.44660 0.24964
# Poissons Ratio (z) = 0.22164 0.22163
#
# Static dielectric constant tensor:
#      x y z
#    x 1.759530 0.000000 0.000000 
#    y 0.000000 1.759530 0.000000 
#    z 0.000000 0.000000 1.948830 
# 
# From -- ./inp_files/1618.got.cif
#   From: 2010.05.17/outbox.cif.g08.bks.cpg/sg126_1_cif.got.tgz:1618.got - 2010.05.20 11:58:20.
