data_PCOD9563582
_publ_section_title
;
Structure prediction by ZEFSAII (Michael W. Deem and Ramdas Pophale) SiO2 
 PCOD9563582
Probable space group: P 4/N N C
;
_chemical_formula_sum "Si O2"
_cell_formula_units_Z 80
_cell_length_a 11.367985
_cell_length_b 11.367985
_cell_length_c 33.213184
_cell_angle_alpha 90.000000
_cell_angle_beta 90.000000
_cell_angle_gamma 90.000000
_cell_volume 4292.175737
_symmetry_space_group_name_H-M "P 4/N N C"
_symmetry_group_IT_number 126
_space_group.IT_coordinate_system_code '2'
_symmetry_cell_setting 'tetragonal'
loop_
_space_group_symop_operation_xyz
x,y,z
1/2-y,x,z
1/2-x,1/2-y,z
y,1/2-x,z
x,1/2-y,1/2-z
1/2-x,y,1/2-z
y,x,1/2-z
1/2-y,1/2-x,1/2-z
-x,-y,-z
1/2+y,-x,-z
1/2+x,1/2+y,-z
-y,1/2+x,-z
-x,1/2+y,1/2+z
1/2+x,-y,1/2+z
-y,-x,1/2+z
1/2+y,1/2+x,1/2+z
loop_
_atom_site_type_symbol
_atom_site_label
_atom_site_fract_x
_atom_site_fract_y
_atom_site_fract_z
Si Si1 0.104907 0.733876 0.891104
Si Si2 0.116728 0.396698 0.705799
Si Si3 0.642257 0.588073 0.051966
Si Si4 0.018287 0.512342 0.127655
Si Si5 0.807604 0.076691 0.984942
O O1 0.250000 0.750000 0.887138
O O2 0.033055 0.841511 0.871228
O O3 0.072980 0.727080 0.938593
O O4 0.047671 0.613054 0.874993
O O5 0.091134 0.257618 0.703871
O O6 0.068482 0.431519 0.750000
O O7 0.069045 0.464133 0.667519
O O8 0.781482 0.595510 0.058476
O O9 0.580532 0.511855 0.086013
O O10 0.633881 0.534587 0.006955
O O11 0.688930 0.109072 0.008891
#
# Coordination Sequence:
#
# PCOD9563582 Si02
#       5
#    16  16  16  16  16
#     4  12  25  41  63  91 122 171 217 264 320 377
#     4   9  18  36  66 100 129 157 198 262 333 388
#     4  11  23  36  57  87 113 151 211 271 320 368
#     4  12  24  41  63  88 128 168 211 261 318 386
#     4  11  20  37  56  78 117 162 208 256 319 374
#
# _framework density 18.638565
#
# number of rings (size 3 to 8) (size 9 to 14) (size 15 to 20)
#    0.000    1.000    4.000    5.400    2.800    3.600 
#    0.000    1.000    0.000    3.600    0.000    1.400 
#    0.000    0.000    0.000    0.000    0.000    0.000 
#
# Total GULP energy -446109.082855 kJ/mol
# GULP energy per Si atom -5576.363536 kJ/mol
# Density = 1.859614 g / cm^3
# Si number density = 18.638565 Si / 1000 Ang^3
#
#
#
# Elastic Constant Matrix: (Units=GPa)
#
#
# Indices 1 2 3 4 5 6 
#
# 1 94.8725 49.0555 41.1108 0.0000 0.0000 0.0000
# 2 49.0555 94.8738 41.1120 0.0000 0.0000 0.0000
# 3 41.1108 41.1120 106.7733 0.0000 0.0000 0.0000
# 4 0.0000 0.0000 0.0000 14.5847 0.0000 0.0000
# 5 0.0000 0.0000 0.0000 0.0000 14.5848 0.0000
# 6 0.0000 0.0000 0.0000 0.0000 0.0000 18.0551
#
#
#
# Elastic Compliance Matrix: (Units=1/GPa)
#
#
# Indices 1 2 3 4 5 6 
#
# 1 0.015366 -0.006459 -0.003429 0.000000 0.000000 0.000000
# 2 -0.006459 0.015366 -0.003430 0.000000 0.000000 0.000000
# 3 -0.003429 -0.003430 0.012007 0.000000 0.000000 0.000000
# 4 0.000000 0.000000 0.000000 0.068565 0.000000 0.000000
# 5 0.000000 0.000000 0.000000 0.000000 0.068564 0.000000
# 6 0.000000 0.000000 0.000000 0.000000 0.000000 0.055386
#
#
# Mechanical properties :
#
#
# Convention : Reuss Voigt Hill
#
# Bulk Modulus (GPa) = 62.10157 62.11959 62.11058
# Shear Modulus (GPa) = 18.70846 20.46102 19.58474
#
# Velocity S-wave (km/s) = 3.17164 3.31687 3.24507
# Velocity P-wave (km/s) = 6.84131 6.93323 6.88743
#
# Compressibility (1/GPa) = 0.01610265
#
# Stress axis : x y z
#
# Youngs Moduli (GPa) = 65.07707 65.07736 83.28735
#
# Poissons Ratio (x) = 0.42035 0.28563
# Poissons Ratio (y) = 0.42035 0.28565
# Poissons Ratio (z) = 0.22318 0.22319
#
# Static dielectric constant tensor:
#      x y z
#    x 1.698200 0.000000 0.000000 
#    y 0.000000 1.698200 0.000000 
#    z 0.000000 0.000000 1.636370 
# 
# From -- ./inp_files/6409.got.cif
#   From: 2010.05.17/outbox.cif.g08.bks.cpg/sg126_4_cif.got.tgz:6409.got - 2010.05.20 11:58:20.
