data_PCOD9563277
_publ_section_title
;
Structure prediction by ZEFSAII (Michael W. Deem and Ramdas Pophale) SiO2 
 PCOD9563277
Probable space group: P 4/N N C
;
_chemical_formula_sum "Si O2"
_cell_formula_units_Z 76
_cell_length_a 17.620962
_cell_length_b 17.620962
_cell_length_c 13.944597
_cell_angle_alpha 90.000000
_cell_angle_beta 90.000000
_cell_angle_gamma 90.000000
_cell_volume 4329.773688
_symmetry_space_group_name_H-M "P 4/N N C"
_symmetry_group_IT_number 126
_space_group.IT_coordinate_system_code '2'
_symmetry_cell_setting 'tetragonal'
loop_
_space_group_symop_operation_xyz
x,y,z
1/2-y,x,z
1/2-x,1/2-y,z
y,1/2-x,z
x,1/2-y,1/2-z
1/2-x,y,1/2-z
y,x,1/2-z
1/2-y,1/2-x,1/2-z
-x,-y,-z
1/2+y,-x,-z
1/2+x,1/2+y,-z
-y,1/2+x,-z
-x,1/2+y,1/2+z
1/2+x,-y,1/2+z
-y,-x,1/2+z
1/2+y,1/2+x,1/2+z
loop_
_atom_site_type_symbol
_atom_site_label
_atom_site_fract_x
_atom_site_fract_y
_atom_site_fract_z
Si Si1 0.656890 0.134500 0.619214
Si Si2 0.544071 0.196713 0.457956
Si Si3 0.226592 0.369280 0.035532
Si Si4 0.750000 0.592820 0.750000
Si Si5 0.750000 0.250000 0.750000
Si Si6 0.486137 0.889966 0.737769
O O1 0.601132 0.164743 0.537440
O O2 0.724646 0.081772 0.577852
O O3 0.698433 0.199560 0.680082
O O4 0.609177 0.086148 0.694952
O O5 0.456861 0.211462 0.490213
O O6 0.536553 0.137650 0.368866
O O7 0.163094 0.308510 0.003808
O O8 0.226563 0.366382 0.152464
O O9 0.678239 0.540342 0.774700
O O10 0.534122 0.965879 0.750000
#
# Coordination Sequence:
#
# PCOD9563277 Si02
#       6
#    16  16  16   8   4  16
#     4  12  23  41  60  87 121 159 211 254 308 365
#     4  11  23  38  59  91 117 165 198 254 307 370
#     4  10  19  33  54  84 120 157 197 240 296 368
#     4  10  15  29  54  82 116 154 184 232 291 365
#     4  12  22  46  64  82 118 168 212 262 298 380
#     4  11  21  38  59  89 125 154 195 251 308 366
#
# _framework density 17.552879999999998
#
# number of rings (size 3 to 8) (size 9 to 14) (size 15 to 20)
#    0.000    1.053    6.316    4.421    0.000    1.684 
#    0.000    0.000    0.000    0.000    0.000    0.000 
#    0.000    1.684    0.000    0.000    0.000    0.211 
#
# Total GULP energy -423978.363542 kJ/mol
# GULP energy per Si atom -5578.662678 kJ/mol
# Density = 1.751293 g / cm^3
# Si number density = 17.552880 Si / 1000 Ang^3
#
#
#
# Elastic Constant Matrix: (Units=GPa)
#
#
# Indices 1 2 3 4 5 6 
#
# 1 125.6970 77.9365 66.7194 0.0000 0.0000 0.0000
# 2 77.9365 125.6966 66.7193 0.0000 0.0000 0.0000
# 3 66.7194 66.7193 82.9259 0.0000 0.0000 0.0000
# 4 0.0000 0.0000 0.0000 27.7447 0.0000 0.0000
# 5 0.0000 0.0000 0.0000 0.0000 27.7351 0.0000
# 6 0.0000 0.0000 0.0000 0.0000 0.0000 24.7761
#
#
#
# Elastic Compliance Matrix: (Units=1/GPa)
#
#
# Indices 1 2 3 4 5 6 
#
# 1 0.015662 -0.005275 -0.008357 0.000000 0.000000 0.000000
# 2 -0.005275 0.015663 -0.008357 0.000000 0.000000 0.000000
# 3 -0.008357 -0.008357 0.025507 0.000000 0.000000 0.000000
# 4 0.000000 0.000000 0.000000 0.036043 0.000000 0.000000
# 5 0.000000 0.000000 0.000000 0.000000 0.036055 0.000000
# 6 0.000000 0.000000 0.000000 0.000000 0.000000 0.040361
#
#
# Mechanical properties :
#
#
# Convention : Reuss Voigt Hill
#
# Bulk Modulus (GPa) = 77.80638 84.11889 80.96263
# Shear Modulus (GPa) = 22.98271 24.24747 23.61509
#
# Velocity S-wave (km/s) = 3.62241 3.72074 3.67191
# Velocity P-wave (km/s) = 7.86885 8.15388 8.01263
#
# Compressibility (1/GPa) = 0.01285242
#
# Stress axis : x y z
#
# Youngs Moduli (GPa) = 63.84690 63.84654 39.20549
#
# Poissons Ratio (x) = 0.33682 0.32764
# Poissons Ratio (y) = 0.33682 0.32765
# Poissons Ratio (z) = 0.53357 0.53357
#
# Static dielectric constant tensor:
#      x y z
#    x 1.897210 0.000000 0.000000 
#    y 0.000000 1.896720 0.000000 
#    z 0.000000 0.000000 1.594940 
# 
# From -- ./inp_files/3693.got.cif
#   From: 2010.05.17/outbox.cif.g08.bks.cpg/sg126_2_cif.got.tgz:3693.got - 2010.05.20 11:58:20.
