data_PCOD9563048
_publ_section_title
;
Structure prediction by ZEFSAII (Michael W. Deem and Ramdas Pophale) SiO2 
 PCOD9563048
Probable space group: P 4/N B M
;
_chemical_formula_sum "Si O2"
_cell_formula_units_Z 128
_cell_length_a 23.960225
_cell_length_b 23.960225
_cell_length_c 12.342174
_cell_angle_alpha 90.000000
_cell_angle_beta 90.000000
_cell_angle_gamma 90.000000
_cell_volume 7085.548071
_symmetry_space_group_name_H-M "P 4/N B M"
_symmetry_group_IT_number 125
_space_group.IT_coordinate_system_code '2'
_symmetry_cell_setting 'tetragonal'
loop_
_space_group_symop_operation_xyz
x,y,z
1/2-y,x,z
1/2-x,1/2-y,z
y,1/2-x,z
x,1/2-y,-z
1/2-x,y,-z
y,x,-z
1/2-y,1/2-x,-z
-x,-y,-z
1/2+y,-x,-z
1/2+x,1/2+y,-z
-y,1/2+x,-z
-x,1/2+y,z
1/2+x,-y,z
-y,-x,z
1/2+y,1/2+x,z
loop_
_atom_site_type_symbol
_atom_site_label
_atom_site_fract_x
_atom_site_fract_y
_atom_site_fract_z
Si Si1 0.881563 0.812027 0.089659
Si Si2 0.816426 0.409491 0.992040
Si Si3 0.384989 0.022555 0.400707
Si Si4 0.996735 0.586262 0.646189
Si Si5 0.317768 0.502685 0.177468
Si Si6 0.300109 0.377055 0.565764
Si Si7 0.800625 0.620825 0.803311
Si Si8 0.490997 0.689430 0.789112
O O1 0.856093 0.843018 0.193553
O O2 0.865220 0.747453 0.109613
O O3 0.948102 0.813774 0.099011
O O4 0.850800 0.850800 0.000000
O O5 0.855387 0.355387 0.984781
O O6 0.824649 0.449208 0.886661
O O7 0.750000 0.396970 0.000000
O O8 0.831233 0.445738 0.098772
O O9 0.443427 0.044623 0.352435
O O10 0.394961 0.998147 0.520359
O O11 0.348880 0.078416 0.418889
O O12 0.349868 0.985118 0.316247
O O13 0.050710 0.550710 0.676737
O O14 0.991417 0.637379 0.729110
O O15 0.256345 0.512879 0.228717
O O16 0.250000 0.403733 0.500000
O O17 0.324631 0.324631 0.500000
O O18 0.276582 0.367220 0.685196
O O19 0.816720 0.556391 0.820732
#
# Coordination Sequence:
#
# PCOD9563048 Si02
#       8
#    16  16  16  16  16  16  16  16
#     4  11  21  35  53  73 103 142 187 235 282 324
#     4  10  21  39  61  87 114 140 174 218 272 335
#     4  10  21  34  55  77 111 145 190 222 276 327
#     4  11  22  36  54  80 115 149 182 228 275 331
#     4  10  21  36  58  82 109 143 187 224 276 327
#     4  11  21  33  52  74 101 137 181 232 280 324
#     4  10  21  34  52  74 105 138 188 234 278 325
#     4   9  20  36  57  82 107 144 180 230 272 325
#
# _framework density 18.064938999999999
#
# number of rings (size 3 to 8) (size 9 to 14) (size 15 to 20)
#    0.000    1.750    1.250    4.500    5.250    3.500 
#    0.000    1.875    0.000    3.000    0.000    0.000 
#    0.000    0.000    0.000    6.500    0.000    0.000 
#
# Total GULP energy -713324.105388 kJ/mol
# GULP energy per Si atom -5572.844573 kJ/mol
# Density = 1.802382 g / cm^3
# Si number density = 18.064939 Si / 1000 Ang^3
#
#
#
# Elastic Constant Matrix: (Units=GPa)
#
#
# Indices 1 2 3 4 5 6 
#
# 1 67.6869 39.5038 34.7024 0.0000 0.0000 0.0000
# 2 39.5038 67.6869 34.7024 0.0000 0.0000 0.0000
# 3 34.7024 34.7024 97.0187 0.0000 0.0000 0.0000
# 4 0.0000 0.0000 0.0000 23.3512 0.0000 0.0000
# 5 0.0000 0.0000 0.0000 0.0000 23.3512 0.0000
# 6 0.0000 0.0000 0.0000 0.0000 0.0000 22.2666
#
#
#
# Elastic Compliance Matrix: (Units=1/GPa)
#
#
# Indices 1 2 3 4 5 6 
#
# 1 0.023812 -0.011671 -0.004343 0.000000 0.000000 0.000000
# 2 -0.011671 0.023812 -0.004343 0.000000 0.000000 0.000000
# 3 -0.004343 -0.004343 0.013414 0.000000 0.000000 0.000000
# 4 0.000000 0.000000 0.000000 0.042824 0.000000 0.000000
# 5 0.000000 0.000000 0.000000 0.000000 0.042824 0.000000
# 6 0.000000 0.000000 0.000000 0.000000 0.000000 0.044910
#
#
# Mechanical properties :
#
#
# Convention : Reuss Voigt Hill
#
# Bulk Modulus (GPa) = 49.19998 50.02329 49.61164
# Shear Modulus (GPa) = 20.91323 22.02608 21.46965
#
# Velocity S-wave (km/s) = 3.40615 3.49560 3.45116
# Velocity P-wave (km/s) = 6.53936 6.63650 6.58811
#
# Compressibility (1/GPa) = 0.02032521
#
# Stress axis : x y z
#
# Youngs Moduli (GPa) = 41.99624 41.99624 74.54930
#
# Poissons Ratio (x) = 0.49012 0.32374
# Poissons Ratio (y) = 0.49012 0.32374
# Poissons Ratio (z) = 0.18238 0.18238
#
# Static dielectric constant tensor:
#      x y z
#    x 1.625340 0.000000 0.000000 
#    y 0.000000 1.625340 0.000000 
#    z 0.000000 0.000000 1.776410 
# 
# From -- ./inp_files/4379.got.cif
#   From: 2010.05.17/outbox.cif.g08.bks.cpg/sg125_3_cif.got.tgz:4379.got - 2010.05.20 11:54:10.
