data_PCOD9563042
_publ_section_title
;
Structure prediction by ZEFSAII (Michael W. Deem and Ramdas Pophale) SiO2 
 PCOD9563042
Probable space group: P 4/N B M
;
_chemical_formula_sum "Si O2"
_cell_formula_units_Z 96
_cell_length_a 14.152157
_cell_length_b 14.152157
_cell_length_c 23.049096
_cell_angle_alpha 90.000000
_cell_angle_beta 90.000000
_cell_angle_gamma 90.000000
_cell_volume 4616.354719
_symmetry_space_group_name_H-M "P 4/N B M"
_symmetry_group_IT_number 125
_space_group.IT_coordinate_system_code '2'
_symmetry_cell_setting 'tetragonal'
loop_
_space_group_symop_operation_xyz
x,y,z
1/2-y,x,z
1/2-x,1/2-y,z
y,1/2-x,z
x,1/2-y,-z
1/2-x,y,-z
y,x,-z
1/2-y,1/2-x,-z
-x,-y,-z
1/2+y,-x,-z
1/2+x,1/2+y,-z
-y,1/2+x,-z
-x,1/2+y,z
1/2+x,-y,z
-y,-x,z
1/2+y,1/2+x,z
loop_
_atom_site_type_symbol
_atom_site_label
_atom_site_fract_x
_atom_site_fract_y
_atom_site_fract_z
Si Si1 0.745940 0.403845 0.401008
Si Si2 0.657433 0.876282 0.680013
Si Si3 0.448928 0.795635 0.270776
Si Si4 0.248848 0.094435 0.930412
Si Si5 0.591101 0.251369 0.853716
Si Si6 0.612179 0.950741 0.438938
O O1 0.642055 0.357946 0.412807
O O2 0.819381 0.319381 0.411687
O O3 0.752982 0.433534 0.333414
O O4 0.789314 0.491806 0.435209
O O5 0.625080 0.770251 0.690631
O O6 0.621103 0.896044 0.615014
O O7 0.631839 0.963727 0.720660
O O8 0.353205 0.853205 0.264898
O O9 0.453077 0.739155 0.211235
O O10 0.340721 0.157948 0.915497
O O11 0.247317 0.995359 0.897960
O O12 0.250000 0.081738 0.000000
O O13 0.660992 0.339009 0.864190
O O14 0.657170 0.157170 0.857673
O O15 0.599813 0.900188 0.500000
O O16 0.528875 0.028875 0.433046
#
# Coordination Sequence:
#
# PCOD9563042 Si02
#       6
#    16  16  16  16  16  16
#     4   9  17  34  62  88 112 151 200 249 307 373
#     4  11  23  39  57  81 113 152 196 243 304 374
#     4  10  20  38  61  84 116 157 202 252 309 377
#     4   9  20  41  66  92 130 182 233 276 320 379
#     4  10  22  39  62  98 137 171 216 277 341 396
#     4  10  21  39  63  90 119 151 195 255 317 381
#
# _framework density 20.795629000000002
#
# number of rings (size 3 to 8) (size 9 to 14) (size 15 to 20)
#    0.000    2.167    1.667    1.500    0.000    5.333 
#    0.000    6.667    0.000    3.000    0.000    9.333 
#    0.000    0.000    0.000    0.000    0.000    0.000 
#
# Total GULP energy -535376.444100 kJ/mol
# GULP energy per Si atom -5576.837959 kJ/mol
# Density = 2.074830 g / cm^3
# Si number density = 20.795629 Si / 1000 Ang^3
#
#
#
# Elastic Constant Matrix: (Units=GPa)
#
#
# Indices 1 2 3 4 5 6 
#
# 1 107.2533 28.5499 51.3086 0.0000 0.0000 0.0000
# 2 28.5499 107.2531 51.3085 0.0000 0.0000 0.0000
# 3 51.3086 51.3085 80.5281 0.0000 0.0000 0.0000
# 4 0.0000 0.0000 0.0000 32.7362 0.0000 0.0000
# 5 0.0000 0.0000 0.0000 0.0000 32.7363 0.0000
# 6 0.0000 0.0000 0.0000 0.0000 0.0000 21.2930
#
#
#
# Elastic Compliance Matrix: (Units=1/GPa)
#
#
# Indices 1 2 3 4 5 6 
#
# 1 0.013453 0.000747 -0.009048 0.000000 0.000000 0.000000
# 2 0.000747 0.013453 -0.009048 0.000000 0.000000 0.000000
# 3 -0.009048 -0.009048 0.023948 0.000000 0.000000 0.000000
# 4 0.000000 0.000000 0.000000 0.030547 0.000000 0.000000
# 5 0.000000 0.000000 0.000000 0.000000 0.030547 0.000000
# 6 0.000000 0.000000 0.000000 0.000000 0.000000 0.046964
#
#
# Mechanical properties :
#
#
# Convention : Reuss Voigt Hill
#
# Bulk Modulus (GPa) = 61.89169 61.92985 61.91077
# Shear Modulus (GPa) = 25.12631 28.27760 26.70195
#
# Velocity S-wave (km/s) = 3.47976 3.69153 3.58721
# Velocity P-wave (km/s) = 6.78023 6.92926 6.85515
#
# Compressibility (1/GPa) = 0.01615726
#
# Stress axis : x y z
#
# Youngs Moduli (GPa) = 74.33196 74.33180 41.75776
#
# Poissons Ratio (x) = -0.05554 0.37782
# Poissons Ratio (y) = -0.05554 0.37782
# Poissons Ratio (z) = 0.67254 0.67254
#
# Static dielectric constant tensor:
#      x y z
#    x 1.795970 0.000000 0.000000 
#    y 0.000000 1.795970 0.000000 
#    z 0.000000 0.000000 1.760110 
# 
# From -- ./inp_files/5942.got.cif
#   From: 2010.05.17/outbox.cif.g08.bks.cpg/sg125_3_cif.got.tgz:5942.got - 2010.05.20 11:54:10.
