data_PCOD9563030
_publ_section_title
;
Structure prediction by ZEFSAII (Michael W. Deem and Ramdas Pophale) SiO2 
 PCOD9563030
Probable space group: P 4/N B M
;
_chemical_formula_sum "Si O2"
_cell_formula_units_Z 96
_cell_length_a 23.988822
_cell_length_b 23.988822
_cell_length_c 7.792880
_cell_angle_alpha 90.000000
_cell_angle_beta 90.000000
_cell_angle_gamma 90.000000
_cell_volume 4484.518631
_symmetry_space_group_name_H-M "P 4/N B M"
_symmetry_group_IT_number 125
_space_group.IT_coordinate_system_code '2'
_symmetry_cell_setting 'tetragonal'
loop_
_space_group_symop_operation_xyz
x,y,z
1/2-y,x,z
1/2-x,1/2-y,z
y,1/2-x,z
x,1/2-y,-z
1/2-x,y,-z
y,x,-z
1/2-y,1/2-x,-z
-x,-y,-z
1/2+y,-x,-z
1/2+x,1/2+y,-z
-y,1/2+x,-z
-x,1/2+y,z
1/2+x,-y,z
-y,-x,z
1/2+y,1/2+x,z
loop_
_atom_site_type_symbol
_atom_site_label
_atom_site_fract_x
_atom_site_fract_y
_atom_site_fract_z
Si Si1 0.954675 0.705258 0.358939
Si Si2 0.602679 0.187351 0.558434
Si Si3 0.841753 0.739417 0.198962
Si Si4 0.512358 0.102657 0.479106
Si Si5 0.086451 0.006987 0.091514
Si Si6 0.957176 0.304372 0.911449
O O1 0.973949 0.750000 0.500000
O O2 0.892212 0.721257 0.316271
O O3 0.969463 0.640870 0.409971
O O4 0.988935 0.717879 0.188549
O O5 0.598013 0.250000 0.500000
O O6 0.664132 0.164132 0.536726
O O7 0.561259 0.148048 0.450121
O O8 0.582699 0.177424 0.754606
O O9 0.808919 0.796515 0.229553
O O10 0.859120 0.750000 0.000000
O O11 0.547254 0.047254 0.544677
O O12 0.485254 0.088345 0.296927
O O13 0.062983 0.062983 0.000000
O O14 0.040779 0.959222 0.056297
O O15 0.144462 0.980688 0.023717
O O16 0.931434 0.250000 0.000000
#
# Coordination Sequence:
#
# PCOD9563030 Si02
#       6
#    16  16  16  16  16  16
#     4  11  22  38  59  93 125 162 209 256 318 379
#     4  10  20  36  61  89 120 160 202 252 310 371
#     4   9  20  42  66  90 122 161 210 264 321 381
#     4   9  19  38  62  86 121 163 205 256 311 373
#     4  10  21  40  63  88 121 162 209 261 317 373
#     4  11  21  38  60  90 121 161 208 256 302 373
#
# _framework density 21.406980000000001
#
# number of rings (size 3 to 8) (size 9 to 14) (size 15 to 20)
#    0.000    2.000    0.000    5.500    0.000    1.500 
#   12.000    4.167    0.000   13.000    0.000    0.000 
#    0.000    0.000    0.000    0.000    0.000    0.000 
#
# Total GULP energy -535071.440065 kJ/mol
# GULP energy per Si atom -5573.660834 kJ/mol
# Density = 2.135826 g / cm^3
# Si number density = 21.406980 Si / 1000 Ang^3
#
#
#
# Elastic Constant Matrix: (Units=GPa)
#
#
# Indices 1 2 3 4 5 6 
#
# 1 100.1458 43.9905 33.8393 0.0000 0.0000 0.0000
# 2 43.9905 100.1458 33.8393 0.0000 0.0000 0.0000
# 3 33.8393 33.8393 45.9198 0.0000 0.0000 0.0000
# 4 0.0000 0.0000 0.0000 19.2613 0.0000 0.0000
# 5 0.0000 0.0000 0.0000 0.0000 19.2613 0.0000
# 6 0.0000 0.0000 0.0000 0.0000 0.0000 29.0350
#
#
#
# Elastic Compliance Matrix: (Units=1/GPa)
#
#
# Indices 1 2 3 4 5 6 
#
# 1 0.014208 -0.003600 -0.007818 0.000000 0.000000 0.000000
# 2 -0.003600 0.014208 -0.007818 0.000000 0.000000 0.000000
# 3 -0.007818 -0.007818 0.033299 0.000000 0.000000 0.000000
# 4 0.000000 0.000000 0.000000 0.051917 0.000000 0.000000
# 5 0.000000 0.000000 0.000000 0.000000 0.051917 0.000000
# 6 0.000000 0.000000 0.000000 0.000000 0.000000 0.034441
#
#
# Mechanical properties :
#
#
# Convention : Reuss Voigt Hill
#
# Bulk Modulus (GPa) = 43.01897 52.17219 47.59558
# Shear Modulus (GPa) = 20.30783 22.48103 21.39443
#
# Velocity S-wave (km/s) = 3.08337 3.24415 3.16478
# Velocity P-wave (km/s) = 5.72849 6.20139 5.96962
#
# Compressibility (1/GPa) = 0.02324556
#
# Stress axis : x y z
#
# Youngs Moduli (GPa) = 70.38183 70.38183 30.03070
#
# Poissons Ratio (x) = 0.25334 0.23477
# Poissons Ratio (y) = 0.25334 0.23477
# Poissons Ratio (z) = 0.55023 0.55023
#
# Static dielectric constant tensor:
#      x y z
#    x 1.792870 0.000000 0.000000 
#    y 0.000000 1.792870 0.000000 
#    z 0.000000 0.000000 1.825840 
# 
# From -- ./inp_files/2921.got.cif
#   From: 2010.05.17/outbox.cif.g08.bks.cpg/sg125_2_cif.got.tgz:2921.got - 2010.05.20 11:54:10.
