data_PCOD9563893
_publ_section_title
;
Structure prediction by ZEFSAII (Michael W. Deem and Ramdas Pophale) SiO2 
 PCOD9563893
Probable space group: P 4/M B M
;
_chemical_formula_sum "Si O2"
_cell_formula_units_Z 112
_cell_length_a 14.305886
_cell_length_b 14.305886
_cell_length_c 28.386057
_cell_angle_alpha 90.000000
_cell_angle_beta 90.000000
_cell_angle_gamma 90.000000
_cell_volume 5809.444277
_symmetry_space_group_name_H-M "P 4/M B M"
_symmetry_group_IT_number 127
_symmetry_cell_setting 'tetragonal'
loop_
_space_group_symop_operation_xyz
x,y,z
-y,x,z
-x,-y,z
y,-x,z
1/2+x,1/2-y,-z
1/2-x,1/2+y,-z
1/2+y,1/2+x,-z
1/2-y,1/2-x,-z
-x,-y,-z
y,-x,-z
x,y,-z
-y,x,-z
1/2-x,1/2+y,z
1/2+x,1/2-y,z
1/2-y,1/2-x,z
1/2+y,1/2+x,z
loop_
_atom_site_type_symbol
_atom_site_label
_atom_site_fract_x
_atom_site_fract_y
_atom_site_fract_z
Si Si1 0.848804 0.507703 0.096144
Si Si2 0.789169 0.870363 0.947236
Si Si3 0.154736 0.500313 0.443741
Si Si4 0.210492 0.560106 0.196970
Si Si5 0.498805 0.655967 0.614962
Si Si6 0.997982 0.843870 0.726092
Si Si7 0.100259 0.882003 0.148285
O O1 0.891662 0.608339 0.084672
O O2 0.769112 0.465672 0.062982
O O3 0.818472 0.499993 0.150840
O O4 0.932077 0.432077 0.091482
O O5 0.714810 0.785191 0.942293
O O6 0.863028 0.869727 0.905275
O O7 0.826881 0.869224 0.000000
O O8 0.171730 0.500734 0.500000
O O9 0.089676 0.410325 0.433250
O O10 0.250972 0.498865 0.415636
O O11 0.091191 0.591191 0.432733
O O12 0.121349 0.621349 0.211003
O O13 0.254760 0.504267 0.240296
O O14 0.291865 0.630925 0.177807
O O15 0.409109 0.589531 0.605872
O O16 0.498084 0.679029 0.670722
O O17 0.909501 0.911174 0.735179
O O18 0.988573 0.876225 0.157720
#
# Coordination Sequence:
#
# PCOD9563893 Si02
#       7
#    16  16  16  16  16  16  16
#     4   8  15  29  47  66  91 123 155 186 225 280
#     4   9  18  33  51  70  94 120 146 186 238 284
#     4   9  19  36  56  79 111 152 194 234 280 336
#     4  10  19  32  51  74  99 125 158 203 247 287
#     4   9  19  35  55  81 112 146 186 235 286 333
#     4   9  18  35  55  73 100 137 173 208 251 305
#     4  10  20  34  52  70  90 122 160 193 232 287
#
# _framework density 19.278952
#
# number of rings (size 3 to 8) (size 9 to 14) (size 15 to 20)
#    0.000    2.857    0.000    3.429    0.000    3.714 
#    0.000   16.429    0.000    1.714    0.000    0.000 
#    0.000    0.000    0.000    0.000    0.000    0.000 
#
# Total GULP energy -624486.574132 kJ/mol
# GULP energy per Si atom -5575.772983 kJ/mol
# Density = 1.923507 g / cm^3
# Si number density = 19.278952 Si / 1000 Ang^3
#
#
#
# Elastic Constant Matrix: (Units=GPa)
#
#
# Indices 1 2 3 4 5 6 
#
# 1 54.1595 1.3265 25.5446 0.0000 0.0000 0.0000
# 2 1.3265 54.1595 25.5446 0.0000 0.0000 0.0000
# 3 25.5446 25.5446 71.1595 0.0000 0.0000 0.0000
# 4 0.0000 0.0000 0.0000 22.6053 0.0000 0.0000
# 5 0.0000 0.0000 0.0000 0.0000 22.6053 0.0000
# 6 0.0000 0.0000 0.0000 0.0000 0.0000 10.8984
#
#
#
# Elastic Compliance Matrix: (Units=1/GPa)
#
#
# Indices 1 2 3 4 5 6 
#
# 1 0.022924 0.003997 -0.009664 0.000000 0.000000 0.000000
# 2 0.003997 0.022924 -0.009664 0.000000 0.000000 0.000000
# 3 -0.009664 -0.009664 0.020991 0.000000 0.000000 0.000000
# 4 0.000000 0.000000 0.000000 0.044237 0.000000 0.000000
# 5 0.000000 0.000000 0.000000 0.000000 0.044237 0.000000
# 6 0.000000 0.000000 0.000000 0.000000 0.000000 0.091757
#
#
# Mechanical properties :
#
#
# Convention : Reuss Voigt Hill
#
# Bulk Modulus (GPa) = 27.64192 31.59000 29.61596
# Shear Modulus (GPa) = 17.25371 19.69264 18.47317
#
# Velocity S-wave (km/s) = 2.99482 3.19949 3.09885
# Velocity P-wave (km/s) = 5.13104 5.48364 5.31027
#
# Compressibility (1/GPa) = 0.03617693
#
# Stress axis : x y z
#
# Youngs Moduli (GPa) = 43.62213 43.62213 47.63904
#
# Poissons Ratio (x) = -0.17434 0.46038
# Poissons Ratio (y) = -0.17434 0.46038
# Poissons Ratio (z) = 0.42156 0.42156
#
# Static dielectric constant tensor:
#      x y z
#    x 1.699460 0.000000 0.000000 
#    y 0.000000 1.699460 0.000000 
#    z 0.000000 0.000000 1.675060 
# 
# From -- ./inp_files/6662.got.cif
#   From: 2010.05.17/outbox.cif.g08.bks.cpg/sg127_4_cif.got.tgz:6662.got - 2010.05.20 12:03:00.
