data_PCOD9563553
_publ_section_title
;
Structure prediction by ZEFSAII (Michael W. Deem and Ramdas Pophale) SiO2 
 PCOD9563553
Probable space group: P 4/N N C
;
_chemical_formula_sum "Si O2"
_cell_formula_units_Z 80
_cell_length_a 11.694420
_cell_length_b 11.694420
_cell_length_c 30.002282
_cell_angle_alpha 90.000000
_cell_angle_beta 90.000000
_cell_angle_gamma 90.000000
_cell_volume 4103.095859
_symmetry_space_group_name_H-M "P 4/N N C"
_symmetry_group_IT_number 126
_space_group.IT_coordinate_system_code '2'
_symmetry_cell_setting 'tetragonal'
loop_
_space_group_symop_operation_xyz
x,y,z
1/2-y,x,z
1/2-x,1/2-y,z
y,1/2-x,z
x,1/2-y,1/2-z
1/2-x,y,1/2-z
y,x,1/2-z
1/2-y,1/2-x,1/2-z
-x,-y,-z
1/2+y,-x,-z
1/2+x,1/2+y,-z
-y,1/2+x,-z
-x,1/2+y,1/2+z
1/2+x,-y,1/2+z
-y,-x,1/2+z
1/2+y,1/2+x,1/2+z
loop_
_atom_site_type_symbol
_atom_site_label
_atom_site_fract_x
_atom_site_fract_y
_atom_site_fract_z
Si Si1 0.603437 0.634907 0.196887
Si Si2 0.254058 0.612806 0.567485
Si Si3 0.940787 0.757529 0.986854
Si Si4 0.402632 0.952188 0.362606
Si Si5 0.167216 0.973005 0.391539
O O1 0.731115 0.595712 0.183263
O O2 0.612346 0.612346 0.250000
O O3 0.492699 0.576394 0.175936
O O4 0.250000 0.750000 0.560459
O O5 0.256682 0.543229 0.521942
O O6 0.362104 0.576983 0.597284
O O7 0.137833 0.592789 0.595310
O O8 0.855991 0.865079 0.993298
O O9 0.987841 0.769889 0.936917
O O10 0.265885 0.942819 0.356039
O O11 0.429852 0.081589 0.376237
#
# Coordination Sequence:
#
# PCOD9563553 Si02
#       5
#    16  16  16  16  16
#     4   9  19  39  69  99 124 151 187 241 308 371
#     4  10  24  36  55  84 115 155 204 263 313 358
#     4  11  23  39  56  77 111 159 216 259 306 359
#     4  11  22  39  58  85 121 158 202 248 308 371
#     4  11  23  37  57  81 115 161 207 252 308 363
#
# _framework density 19.497471999999998
#
# number of rings (size 3 to 8) (size 9 to 14) (size 15 to 20)
#    0.000    1.600    2.000    3.000    5.600    2.000 
#    0.000    3.000    0.000    2.400    0.000    1.400 
#    0.000    0.000    0.000    0.000    0.000    0.000 
#
# Total GULP energy -446491.469487 kJ/mol
# GULP energy per Si atom -5581.143369 kJ/mol
# Density = 1.945309 g / cm^3
# Si number density = 19.497472 Si / 1000 Ang^3
#
#
#
# Elastic Constant Matrix: (Units=GPa)
#
#
# Indices 1 2 3 4 5 6 
#
# 1 73.1113 24.1284 33.6402 0.0000 0.0000 0.0000
# 2 24.1284 73.1113 33.6402 0.0000 0.0000 0.0000
# 3 33.6402 33.6402 47.1113 0.0000 0.0000 0.0000
# 4 0.0000 0.0000 0.0000 26.7004 0.0000 0.0000
# 5 0.0000 0.0000 0.0000 0.0000 26.7004 0.0000
# 6 0.0000 0.0000 0.0000 0.0000 0.0000 31.3802
#
#
#
# Elastic Compliance Matrix: (Units=1/GPa)
#
#
# Indices 1 2 3 4 5 6 
#
# 1 0.020371 -0.000044 -0.014514 0.000000 0.000000 0.000000
# 2 -0.000044 0.020371 -0.014514 0.000000 0.000000 0.000000
# 3 -0.014514 -0.014514 0.041954 0.000000 0.000000 0.000000
# 4 0.000000 0.000000 0.000000 0.037453 0.000000 0.000000
# 5 0.000000 0.000000 0.000000 0.000000 0.037453 0.000000
# 6 0.000000 0.000000 0.000000 0.000000 0.000000 0.031867
#
#
# Mechanical properties :
#
#
# Convention : Reuss Voigt Hill
#
# Bulk Modulus (GPa) = 40.73289 41.79462 41.26376
# Shear Modulus (GPa) = 19.54673 23.75123 21.64898
#
# Velocity S-wave (km/s) = 3.16971 3.49402 3.33580
# Velocity P-wave (km/s) = 5.85942 6.14491 6.00386
#
# Compressibility (1/GPa) = 0.02455018
#
# Stress axis : x y z
#
# Youngs Moduli (GPa) = 49.08995 49.08995 23.83546
#
# Poissons Ratio (x) = 0.00218 0.34595
# Poissons Ratio (y) = 0.00218 0.34595
# Poissons Ratio (z) = 0.71250 0.71250
#
# Static dielectric constant tensor:
#      x y z
#    x 1.716250 0.000000 0.000000 
#    y 0.000000 1.716250 0.000000 
#    z 0.000000 0.000000 1.664080 
# 
# From -- ./inp_files/6443.got.cif
#   From: 2010.05.17/outbox.cif.g08.bks.cpg/sg126_4_cif.got.tgz:6443.got - 2010.05.20 11:58:20.
