data_PCOD9563342
_publ_section_title
;
Structure prediction by ZEFSAII (Michael W. Deem and Ramdas Pophale) SiO2 
 PCOD9563342
Probable space group: P 4/N N C
;
_chemical_formula_sum "Si O2"
_cell_formula_units_Z 80
_cell_length_a 13.161797
_cell_length_b 13.161797
_cell_length_c 20.895450
_cell_angle_alpha 90.000000
_cell_angle_beta 90.000000
_cell_angle_gamma 90.000000
_cell_volume 3619.779406
_symmetry_space_group_name_H-M "P 4/N N C"
_symmetry_group_IT_number 126
_space_group.IT_coordinate_system_code '2'
_symmetry_cell_setting 'tetragonal'
loop_
_space_group_symop_operation_xyz
x,y,z
1/2-y,x,z
1/2-x,1/2-y,z
y,1/2-x,z
x,1/2-y,1/2-z
1/2-x,y,1/2-z
y,x,1/2-z
1/2-y,1/2-x,1/2-z
-x,-y,-z
1/2+y,-x,-z
1/2+x,1/2+y,-z
-y,1/2+x,-z
-x,1/2+y,1/2+z
1/2+x,-y,1/2+z
-y,-x,1/2+z
1/2+y,1/2+x,1/2+z
loop_
_atom_site_type_symbol
_atom_site_label
_atom_site_fract_x
_atom_site_fract_y
_atom_site_fract_z
Si Si1 0.284381 0.853592 0.865656
Si Si2 0.056258 0.981587 0.686454
Si Si3 0.016776 0.707077 0.948976
Si Si4 0.082250 0.932706 0.932657
Si Si5 0.816093 0.901701 0.823953
O O1 0.250000 0.750000 0.830819
O O2 0.330200 0.947039 0.827178
O O3 0.375744 0.823909 0.914791
O O4 0.185067 0.890573 0.901157
O O5 0.047174 0.047174 0.750000
O O6 0.998908 0.874855 0.702239
O O7 0.998054 0.026422 0.623374
O O8 0.026057 0.829456 0.957378
O O9 0.926382 0.688364 0.899364
O O10 0.005754 0.628657 0.007488
O O11 0.699212 0.879423 0.808538
#
# Coordination Sequence:
#
# PCOD9563342 Si02
#       5
#    16  16  16  16  16
#     4   9  21  39  64  96 129 172 217 273 337 393
#     4  11  25  42  62  94 133 179 231 272 332 415
#     4  10  19  35  64  96 128 165 217 273 343 406
#     4  11  20  38  66  95 129 167 221 281 340 404
#     4  10  21  39  58  85 125 169 212 267 336 403
#
# _framework density 22.100792999999999
#
# number of rings (size 3 to 8) (size 9 to 14) (size 15 to 20)
#    0.000    1.800    4.000    0.000    0.000    6.400 
#    0.000    4.000    0.000    0.600    0.000    1.400 
#    0.000    0.000    0.000    0.000    0.000    0.000 
#
# Total GULP energy -446258.332279 kJ/mol
# GULP energy per Si atom -5578.229153 kJ/mol
# Density = 2.205049 g / cm^3
# Si number density = 22.100793 Si / 1000 Ang^3
#
#
#
# Elastic Constant Matrix: (Units=GPa)
#
#
# Indices 1 2 3 4 5 6 
#
# 1 57.7351 26.8082 23.8912 0.0000 0.0000 0.0000
# 2 26.8082 57.7351 23.8912 0.0000 0.0000 0.0000
# 3 23.8912 23.8912 101.1974 0.0000 0.0000 0.0000
# 4 0.0000 0.0000 0.0000 22.7163 0.0000 0.0000
# 5 0.0000 0.0000 0.0000 0.0000 22.7163 0.0000
# 6 0.0000 0.0000 0.0000 0.0000 0.0000 41.6461
#
#
#
# Elastic Compliance Matrix: (Units=1/GPa)
#
#
# Indices 1 2 3 4 5 6 
#
# 1 0.022992 -0.009342 -0.003222 0.000000 0.000000 0.000000
# 2 -0.009342 0.022992 -0.003222 0.000000 0.000000 0.000000
# 3 -0.003222 -0.003222 0.011403 0.000000 0.000000 0.000000
# 4 0.000000 0.000000 0.000000 0.044021 0.000000 0.000000
# 5 0.000000 0.000000 0.000000 0.000000 0.044021 0.000000
# 6 0.000000 0.000000 0.000000 0.000000 0.000000 0.024012
#
#
# Mechanical properties :
#
#
# Convention : Reuss Voigt Hill
#
# Bulk Modulus (GPa) = 38.74095 40.64987 39.69541
# Shear Modulus (GPa) = 23.85268 26.88755 25.37012
#
# Velocity S-wave (km/s) = 3.28879 3.49175 3.39178
# Velocity P-wave (km/s) = 5.65586 5.88976 5.77399
#
# Compressibility (1/GPa) = 0.02581248
#
# Stress axis : x y z
#
# Youngs Moduli (GPa) = 43.49354 43.49354 87.69459
#
# Poissons Ratio (x) = 0.40633 0.28259
# Poissons Ratio (y) = 0.40633 0.28259
# Poissons Ratio (z) = 0.14016 0.14016
#
# Static dielectric constant tensor:
#      x y z
#    x 1.824830 0.000000 0.000000 
#    y 0.000000 1.824830 0.000000 
#    z 0.000000 0.000000 1.967240 
# 
# From -- ./inp_files/5103.got.cif
#   From: 2010.05.17/outbox.cif.g08.bks.cpg/sg126_3_cif.got.tgz:5103.got - 2010.05.20 11:58:20.
