data_PCOD9563836
_publ_section_title
;
Structure prediction by ZEFSAII (Michael W. Deem and Ramdas Pophale) SiO2 
 PCOD9563836
Probable space group: P 4/M B M
;
_chemical_formula_sum "Si O2"
_cell_formula_units_Z 120
_cell_length_a 28.189703
_cell_length_b 28.189703
_cell_length_c 8.731047
_cell_angle_alpha 90.000000
_cell_angle_beta 90.000000
_cell_angle_gamma 90.000000
_cell_volume 6938.208179
_symmetry_space_group_name_H-M "P 4/M B M"
_symmetry_group_IT_number 127
_symmetry_cell_setting 'tetragonal'
loop_
_space_group_symop_operation_xyz
x,y,z
-y,x,z
-x,-y,z
y,-x,z
1/2+x,1/2-y,-z
1/2-x,1/2+y,-z
1/2+y,1/2+x,-z
1/2-y,1/2-x,-z
-x,-y,-z
y,-x,-z
x,y,-z
-y,x,-z
1/2-x,1/2+y,z
1/2+x,1/2-y,z
1/2-y,1/2-x,z
1/2+y,1/2+x,z
loop_
_atom_site_type_symbol
_atom_site_label
_atom_site_fract_x
_atom_site_fract_y
_atom_site_fract_z
Si Si1 0.302306 0.080443 0.824785
Si Si2 0.926969 0.015143 0.313855
Si Si3 0.702936 0.474708 0.178021
Si Si4 0.459159 0.959159 0.823220
Si Si5 0.668460 0.756581 0.318396
Si Si6 0.667735 0.563671 0.683796
Si Si7 0.125284 0.838997 0.815976
Si Si8 0.529290 0.889650 0.324803
O O1 0.254700 0.049278 0.816481
O O2 0.293109 0.125951 0.719160
O O3 0.346605 0.049427 0.773238
O O4 0.308218 0.096675 0.000000
O O5 0.985410 0.927444 0.500000
O O6 0.876098 0.030388 0.265088
O O7 0.964829 0.054048 0.261975
O O8 0.707211 0.526369 0.259066
O O9 0.669445 0.430163 0.237541
O O10 0.690182 0.482729 0.000000
O O11 0.482107 0.913943 0.741313
O O12 0.500000 0.000000 0.819016
O O13 0.448993 0.948993 0.000000
O O14 0.669884 0.747511 0.500000
O O15 0.717409 0.782592 0.272711
O O16 0.654282 0.708064 0.233396
O O17 0.669953 0.568158 0.500000
O O18 0.653050 0.615003 0.750263
O O19 0.123649 0.841992 0.000000
O O20 0.522237 0.874701 0.500000
O O21 0.569541 0.930460 0.322538
#
# Coordination Sequence:
#
# PCOD9563836 Si02
#       8
#    16  16  16   8  16  16  16  16
#     4  10  20  33  50  73 102 137 172 206 249 307
#     4   8  14  24  38  60  90 120 152 192 236 280
#     4   9  20  36  50  69  99 133 168 207 251 300
#     4   9  17  29  45  67  97 133 171 205 237 283
#     4  10  20  34  53  78 106 132 163 209 260 307
#     4  11  20  30  49  73  97 129 166 207 251 294
#     4  10  21  36  53  74 103 137 171 207 250 306
#     4  10  19  30  46  71 103 136 169 207 249 292
#
# _framework density 17.295532000000001
#
# number of rings (size 3 to 8) (size 9 to 14) (size 15 to 20)
#    0.000    2.333    0.000    4.600    0.000    8.533 
#    0.000    0.000    0.000    0.000    1.733    5.600 
#    0.000    0.000    0.000    0.000    0.000    0.000 
#
# Total GULP energy -668180.120306 kJ/mol
# GULP energy per Si atom -5568.167669 kJ/mol
# Density = 1.725617 g / cm^3
# Si number density = 17.295532 Si / 1000 Ang^3
#
#
#
# Elastic Constant Matrix: (Units=GPa)
#
#
# Indices 1 2 3 4 5 6 
#
# 1 29.7840 32.8746 19.6985 0.0000 0.0000 0.0000
# 2 32.8746 29.7840 19.6985 0.0000 0.0000 0.0000
# 3 19.6985 19.6985 53.8160 0.0000 0.0000 0.0000
# 4 0.0000 0.0000 0.0000 24.9778 0.0000 0.0000
# 5 0.0000 0.0000 0.0000 0.0000 24.9778 0.0000
# 6 0.0000 0.0000 0.0000 0.0000 0.0000 21.9527
#
#
#
# Elastic Compliance Matrix: (Units=1/GPa)
#
#
# Indices 1 2 3 4 5 6 
#
# 1 -0.151413 0.172143 -0.007588 0.000000 0.000000 0.000000
# 2 0.172143 -0.151413 -0.007588 0.000000 0.000000 0.000000
# 3 -0.007588 -0.007588 0.024137 0.000000 0.000000 0.000000
# 4 0.000000 0.000000 0.000000 0.040035 0.000000 0.000000
# 5 0.000000 0.000000 0.000000 0.000000 0.040035 0.000000
# 6 0.000000 0.000000 0.000000 0.000000 0.000000 0.045553
#
#
# Mechanical properties :
#
#
# Convention : Reuss Voigt Hill
#
# Bulk Modulus (GPa) = 28.37236 28.65860 28.51548
# Shear Modulus (GPa) = -10.98298 17.12248 3.06975
#
# Velocity S-wave (km/s) = -2.52269 3.14983 1.33369
# Velocity P-wave (km/s) = 2.82042 5.46210 4.34680
#
# Compressibility (1/GPa) = 0.03524557
#
# Stress axis : x y z
#
# Youngs Moduli (GPa) = -6.60447 -6.60447 41.43037
#
# Poissons Ratio (x) = 1.13691 0.31438
# Poissons Ratio (y) = 1.13691 0.31438
# Poissons Ratio (z) = -0.05012 -0.05012
#
# Static dielectric constant tensor:
#      x y z
#    x 1.618310 0.000000 0.000000 
#    y 0.000000 1.618310 0.000000 
#    z 0.000000 0.000000 1.599760 
# 
# From -- ./inp_files/2375.got.cif
#   From: 2010.05.17/outbox.cif.g08.bks.cpg/sg127_2_cif.got.tgz:2375.got - 2010.05.20 12:03:00.
