data_PCOD9563558
_publ_section_title
;
Structure prediction by ZEFSAII (Michael W. Deem and Ramdas Pophale) SiO2 
 PCOD9563558
Probable space group: P 4/N N C
;
_chemical_formula_sum "Si O2"
_cell_formula_units_Z 112
_cell_length_a 17.478176
_cell_length_b 17.478176
_cell_length_c 19.605530
_cell_angle_alpha 90.000000
_cell_angle_beta 90.000000
_cell_angle_gamma 90.000000
_cell_volume 5989.227412
_symmetry_space_group_name_H-M "P 4/N N C"
_symmetry_group_IT_number 126
_space_group.IT_coordinate_system_code '2'
_symmetry_cell_setting 'tetragonal'
loop_
_space_group_symop_operation_xyz
x,y,z
1/2-y,x,z
1/2-x,1/2-y,z
y,1/2-x,z
x,1/2-y,1/2-z
1/2-x,y,1/2-z
y,x,1/2-z
1/2-y,1/2-x,1/2-z
-x,-y,-z
1/2+y,-x,-z
1/2+x,1/2+y,-z
-y,1/2+x,-z
-x,1/2+y,1/2+z
1/2+x,-y,1/2+z
-y,-x,1/2+z
1/2+y,1/2+x,1/2+z
loop_
_atom_site_type_symbol
_atom_site_label
_atom_site_fract_x
_atom_site_fract_y
_atom_site_fract_z
Si Si1 0.488594 0.414094 0.028569
Si Si2 0.493321 0.951667 0.675415
Si Si3 0.375559 0.733507 0.157964
Si Si4 0.400530 0.409282 0.607815
Si Si5 0.859182 0.318774 0.511667
Si Si6 0.827628 0.371341 0.782353
Si Si7 0.952933 0.757395 0.328916
O O1 0.462440 0.421296 0.107437
O O2 0.500000 0.500000 0.000000
O O3 0.426801 0.388135 0.972293
O O4 0.568943 0.365001 0.022238
O O5 0.434121 0.884303 0.691179
O O6 0.529774 0.970227 0.750000
O O7 0.451003 0.026955 0.644560
O O8 0.374097 0.681509 0.092089
O O9 0.315764 0.804574 0.160844
O O10 0.363967 0.677374 0.220976
O O11 0.457188 0.774855 0.163898
O O12 0.408781 0.321049 0.628495
O O13 0.326055 0.442772 0.642084
O O14 0.853884 0.226332 0.498060
O O15 0.750000 0.402551 0.750000
O O16 0.930850 0.750000 0.250000
#
# Coordination Sequence:
#
# PCOD9563558 Si02
#       7
#    16  16  16  16  16  16  16
#     4  10  24  40  59  86 119 163 217 258 318 392
#     4  11  22  41  60  85 121 166 213 264 318 381
#     4  11  20  37  55  88 124 163 201 251 317 382
#     4  11  23  40  62  91 121 168 211 263 319 385
#     4  11  25  38  61  88 127 171 210 260 320 396
#     4  11  23  35  61  89 126 163 209 261 314 388
#     4  12  21  38  63  90 124 164 207 256 312 378
#
# _framework density 18.700240999999998
#
# number of rings (size 3 to 8) (size 9 to 14) (size 15 to 20)
#    0.000    1.000    4.286    3.857   10.000    0.286 
#    0.000    2.143    0.000    0.000    0.000    0.000 
#    0.000    0.286    0.000    0.143    0.000    0.286 
#
# Total GULP energy -623875.745351 kJ/mol
# GULP energy per Si atom -5570.319155 kJ/mol
# Density = 1.865768 g / cm^3
# Si number density = 18.700241 Si / 1000 Ang^3
#
#
#
# Elastic Constant Matrix: (Units=GPa)
#
#
# Indices 1 2 3 4 5 6 
#
# 1 91.7718 12.5100 33.5346 0.0000 0.0000 0.0000
# 2 12.5100 91.7702 33.5342 0.0000 0.0000 0.0000
# 3 33.5346 33.5342 143.3734 0.0000 0.0000 0.0000
# 4 0.0000 0.0000 0.0000 22.3651 0.0000 0.0000
# 5 0.0000 0.0000 0.0000 0.0000 22.3650 0.0000
# 6 0.0000 0.0000 0.0000 0.0000 0.0000 2.9412
#
#
#
# Elastic Compliance Matrix: (Units=1/GPa)
#
#
# Indices 1 2 3 4 5 6 
#
# 1 0.011952 -0.000665 -0.002640 0.000000 0.000000 0.000000
# 2 -0.000665 0.011952 -0.002640 0.000000 0.000000 0.000000
# 3 -0.002640 -0.002640 0.008210 0.000000 0.000000 0.000000
# 4 0.000000 0.000000 0.000000 0.044712 0.000000 0.000000
# 5 0.000000 0.000000 0.000000 0.000000 0.044713 0.000000
# 6 0.000000 0.000000 0.000000 0.000000 0.000000 0.339997
#
#
# Mechanical properties :
#
#
# Convention : Reuss Voigt Hill
#
# Bulk Modulus (GPa) = 49.44530 54.00813 51.72672
# Shear Modulus (GPa) = 10.41304 26.02337 18.21820
#
# Velocity S-wave (km/s) = 2.36231 3.73447 3.12464
# Velocity P-wave (km/s) = 5.82572 6.89483 6.38270
#
# Compressibility (1/GPa) = 0.02022437
#
# Stress axis : x y z
#
# Youngs Moduli (GPa) = 83.66866 83.66731 121.80560
#
# Poissons Ratio (x) = 0.05560 0.32158
# Poissons Ratio (y) = 0.05560 0.32158
# Poissons Ratio (z) = 0.22089 0.22089
#
# Static dielectric constant tensor:
#      x y z
#    x 1.733430 0.000000 0.000000 
#    y 0.000000 1.733430 0.000000 
#    z 0.000000 0.000000 1.850600 
# 
# From -- ./inp_files/5421.got.cif
#   From: 2010.05.17/outbox.cif.g08.bks.cpg/sg126_3_cif.got.tgz:5421.got - 2010.05.20 11:58:20.
