data_PCOD9563528
_publ_section_title
;
Structure prediction by ZEFSAII (Michael W. Deem and Ramdas Pophale) SiO2 
 PCOD9563528
Probable space group: P 4/N N C
;
_chemical_formula_sum "Si O2"
_cell_formula_units_Z 64
_cell_length_a 11.636053
_cell_length_b 11.636053
_cell_length_c 20.366932
_cell_angle_alpha 90.000000
_cell_angle_beta 90.000000
_cell_angle_gamma 90.000000
_cell_volume 2757.636348
_symmetry_space_group_name_H-M "P 4/N N C"
_symmetry_group_IT_number 126
_space_group.IT_coordinate_system_code '2'
_symmetry_cell_setting 'tetragonal'
loop_
_space_group_symop_operation_xyz
x,y,z
1/2-y,x,z
1/2-x,1/2-y,z
y,1/2-x,z
x,1/2-y,1/2-z
1/2-x,y,1/2-z
y,x,1/2-z
1/2-y,1/2-x,1/2-z
-x,-y,-z
1/2+y,-x,-z
1/2+x,1/2+y,-z
-y,1/2+x,-z
-x,1/2+y,1/2+z
1/2+x,-y,1/2+z
-y,-x,1/2+z
1/2+y,1/2+x,1/2+z
loop_
_atom_site_type_symbol
_atom_site_label
_atom_site_fract_x
_atom_site_fract_y
_atom_site_fract_z
Si Si1 0.122581 0.380955 0.342533
Si Si2 0.872609 0.001729 0.530239
Si Si3 0.404124 0.037512 0.820807
Si Si4 0.970979 0.209426 0.593657
O O1 0.093130 0.251906 0.321896
O O2 0.105691 0.371878 0.421133
O O3 0.038597 0.480932 0.320659
O O4 0.871071 0.117845 0.575364
O O5 0.779259 0.006822 0.473163
O O6 0.000000 0.000000 0.500000
O O7 0.400725 0.099276 0.750000
O O8 0.424622 0.132561 0.877608
O O9 0.300699 0.957769 0.846945
#
# Coordination Sequence:
#
# PCOD9563528 Si02
#       4
#    16  16  16  16
#     4  10  22  41  69  98 128 177 234 293 338 395
#     4  11  21  41  64 102 138 169 227 287 353 407
#     4  11  25  46  68 101 144 187 234 276 346 430
#     4  11  23  43  68 100 139 184 225 285 353 412
#
# _framework density 23.208279000000001
#
# number of rings (size 3 to 8) (size 9 to 14) (size 15 to 20)
#    0.000    1.250    5.000    2.250    0.000    2.000 
#    4.500    2.500    0.000    3.000    0.000    0.000 
#    0.000    0.000    0.000    0.000    0.000    0.000 
#
# Total GULP energy -357132.526625 kJ/mol
# GULP energy per Si atom -5580.195729 kJ/mol
# Density = 2.315546 g / cm^3
# Si number density = 23.208279 Si / 1000 Ang^3
#
#
#
# Elastic Constant Matrix: (Units=GPa)
#
#
# Indices 1 2 3 4 5 6 
#
# 1 78.7393 49.4814 36.3862 0.0000 0.0000 0.0000
# 2 49.4814 78.7389 36.3857 0.0000 0.0000 0.0000
# 3 36.3862 36.3857 115.0974 0.0000 0.0000 0.0000
# 4 0.0000 0.0000 0.0000 9.2265 0.0000 0.0000
# 5 0.0000 0.0000 0.0000 0.0000 9.2266 0.0000
# 6 0.0000 0.0000 0.0000 0.0000 0.0000 12.5063
#
#
#
# Elastic Compliance Matrix: (Units=1/GPa)
#
#
# Indices 1 2 3 4 5 6 
#
# 1 0.021842 -0.012337 -0.003005 0.000000 0.000000 0.000000
# 2 -0.012337 0.021842 -0.003005 0.000000 0.000000 0.000000
# 3 -0.003005 -0.003005 0.010588 0.000000 0.000000 0.000000
# 4 0.000000 0.000000 0.000000 0.108384 0.000000 0.000000
# 5 0.000000 0.000000 0.000000 0.000000 0.108382 0.000000
# 6 0.000000 0.000000 0.000000 0.000000 0.000000 0.079960
#
#
# Mechanical properties :
#
#
# Convention : Reuss Voigt Hill
#
# Bulk Modulus (GPa) = 56.88864 57.45357 57.17111
# Shear Modulus (GPa) = 12.70489 16.21337 14.45913
#
# Velocity S-wave (km/s) = 2.34226 2.64598 2.49874
# Velocity P-wave (km/s) = 5.64627 5.84331 5.74563
#
# Compressibility (1/GPa) = 0.01757820
#
# Stress axis : x y z
#
# Youngs Moduli (GPa) = 45.78410 45.78400 94.44639
#
# Poissons Ratio (x) = 0.56485 0.28378
# Poissons Ratio (y) = 0.56485 0.28377
# Poissons Ratio (z) = 0.13757 0.13756
#
# Static dielectric constant tensor:
#      x y z
#    x 1.906920 0.000000 0.000000 
#    y 0.000000 1.906920 0.000000 
#    z 0.000000 0.000000 1.941740 
# 
# From -- ./inp_files/4947.got.cif
#   From: 2010.05.17/outbox.cif.g08.bks.cpg/sg126_3_cif.got.tgz:4947.got - 2010.05.20 11:58:20.
