data_PCOD9563888
_publ_section_title
;
Structure prediction by ZEFSAII (Michael W. Deem and Ramdas Pophale) SiO2 
 PCOD9563888
Probable space group: P 4/M B M
;
_chemical_formula_sum "Si O2"
_cell_formula_units_Z 120
_cell_length_a 28.307456
_cell_length_b 28.307456
_cell_length_c 8.205667
_cell_angle_alpha 90.000000
_cell_angle_beta 90.000000
_cell_angle_gamma 90.000000
_cell_volume 6575.299970
_symmetry_space_group_name_H-M "P 4/M B M"
_symmetry_group_IT_number 127
_symmetry_cell_setting 'tetragonal'
loop_
_space_group_symop_operation_xyz
x,y,z
-y,x,z
-x,-y,z
y,-x,z
1/2+x,1/2-y,-z
1/2-x,1/2+y,-z
1/2+y,1/2+x,-z
1/2-y,1/2-x,-z
-x,-y,-z
y,-x,-z
x,y,-z
-y,x,-z
1/2-x,1/2+y,z
1/2+x,1/2-y,z
1/2-y,1/2-x,z
1/2+y,1/2+x,z
loop_
_atom_site_type_symbol
_atom_site_label
_atom_site_fract_x
_atom_site_fract_y
_atom_site_fract_z
Si Si1 0.950569 0.874190 0.810882
Si Si2 0.135202 0.497004 0.190623
Si Si3 0.903826 0.328200 0.693488
Si Si4 0.548995 0.734356 0.699090
Si Si5 0.126805 0.054482 0.691066
Si Si6 0.460961 0.960961 0.316097
Si Si7 0.769900 0.059770 0.304966
Si Si8 0.601732 0.178452 0.196300
O O1 0.911194 0.913447 0.780322
O O2 0.932091 0.822868 0.756404
O O3 0.998954 0.883618 0.713879
O O4 0.963314 0.872374 0.000000
O O5 0.146470 0.545705 0.279963
O O6 0.081225 0.483723 0.216268
O O7 0.160177 0.449464 0.255977
O O8 0.146814 0.503022 0.000000
O O9 0.895652 0.323944 0.500000
O O10 0.861235 0.361235 0.759963
O O11 0.915312 0.275240 0.756869
O O12 0.548731 0.735306 0.500000
O O13 0.561560 0.681008 0.748630
O O14 0.494250 0.743188 0.750505
O O15 0.124910 0.066188 0.500000
O O16 0.445810 0.945810 0.500000
O O17 0.500000 0.000000 0.335889
O O18 0.769699 0.059273 0.500000
O O19 0.733122 0.099091 0.244665
O O20 0.644424 0.144424 0.254100
O O21 0.601496 0.174936 0.000000
#
# Coordination Sequence:
#
# PCOD9563888 Si02
#       8
#    16  16  16  16  16   8  16  16
#     4  11  22  37  58  88 121 151 182 218 266 318
#     4  11  21  33  47  67  95 129 168 217 276 333
#     4  10  19  32  50  73 101 134 174 222 274 325
#     4   8  16  31  52  77 103 136 179 226 268 312
#     4  10  20  37  59  85 116 151 189 222 258 311
#     4  11  23  35  45  59  85 127 175 219 269 333
#     4  10  19  34  56  79 105 141 186 230 271 322
#     4  10  20  34  50  72 102 136 176 228 286 337
#
# _framework density 18.250118000000001
#
# number of rings (size 3 to 8) (size 9 to 14) (size 15 to 20)
#    0.000    1.933    2.000    3.800    0.000    3.467 
#    0.000    2.000    0.000    0.800    0.000    1.867 
#    0.000    0.000    0.000    0.000    0.000    0.000 
#
# Total GULP energy -669046.227526 kJ/mol
# GULP energy per Si atom -5575.385229 kJ/mol
# Density = 1.820858 g / cm^3
# Si number density = 18.250118 Si / 1000 Ang^3
#
#
#
# Elastic Constant Matrix: (Units=GPa)
#
#
# Indices 1 2 3 4 5 6 
#
# 1 80.0218 58.9105 -6.7757 0.0000 0.0000 0.0000
# 2 58.9105 80.0218 -6.7757 0.0000 0.0000 0.0000
# 3 -6.7757 -6.7757 17.8954 0.0000 0.0000 0.0000
# 4 0.0000 0.0000 0.0000 17.9113 0.0000 0.0000
# 5 0.0000 0.0000 0.0000 0.0000 17.9113 0.0000
# 6 0.0000 0.0000 0.0000 0.0000 0.0000 22.9415
#
#
#
# Elastic Compliance Matrix: (Units=1/GPa)
#
#
# Indices 1 2 3 4 5 6 
#
# 1 0.027421 -0.019947 0.002830 0.000000 0.000000 0.000000
# 2 -0.019947 0.027421 0.002830 0.000000 0.000000 0.000000
# 3 0.002830 0.002830 0.058023 0.000000 0.000000 0.000000
# 4 0.000000 0.000000 0.000000 0.055831 0.000000 0.000000
# 5 0.000000 0.000000 0.000000 0.000000 0.055831 0.000000
# 6 0.000000 0.000000 0.000000 0.000000 0.000000 0.043589
#
#
# Mechanical properties :
#
#
# Convention : Reuss Voigt Hill
#
# Bulk Modulus (GPa) = 11.86381 29.85079 20.85730
# Shear Modulus (GPa) = 15.39471 20.59150 17.99310
#
# Velocity S-wave (km/s) = 2.90753 3.36265 3.14334
# Velocity P-wave (km/s) = 4.21739 5.60969 4.96261
#
# Compressibility (1/GPa) = 0.08428997
#
# Stress axis : x y z
#
# Youngs Moduli (GPa) = 36.46857 36.46857 17.23446
#
# Poissons Ratio (x) = 0.72744 -0.04877
# Poissons Ratio (y) = 0.72744 -0.04877
# Poissons Ratio (z) = -0.10320 -0.10320
#
# Static dielectric constant tensor:
#      x y z
#    x 1.642370 0.000000 0.000000 
#    y 0.000000 1.642370 0.000000 
#    z 0.000000 0.000000 1.646570 
# 
# From -- ./inp_files/2423.got.cif
#   From: 2010.05.17/outbox.cif.g08.bks.cpg/sg127_2_cif.got.tgz:2423.got - 2010.05.20 12:03:00.
