data_PCOD9563011
_publ_section_title
;
Structure prediction by ZEFSAII (Michael W. Deem and Ramdas Pophale) SiO2 
 PCOD9563011
Probable space group: P 4/N B M
;
_chemical_formula_sum "Si O2"
_cell_formula_units_Z 88
_cell_length_a 14.370484
_cell_length_b 14.370484
_cell_length_c 22.965338
_cell_angle_alpha 90.000000
_cell_angle_beta 90.000000
_cell_angle_gamma 90.000000
_cell_volume 4742.590561
_symmetry_space_group_name_H-M "P 4/N B M"
_symmetry_group_IT_number 125
_space_group.IT_coordinate_system_code '2'
_symmetry_cell_setting 'tetragonal'
loop_
_space_group_symop_operation_xyz
x,y,z
1/2-y,x,z
1/2-x,1/2-y,z
y,1/2-x,z
x,1/2-y,-z
1/2-x,y,-z
y,x,-z
1/2-y,1/2-x,-z
-x,-y,-z
1/2+y,-x,-z
1/2+x,1/2+y,-z
-y,1/2+x,-z
-x,1/2+y,z
1/2+x,-y,z
-y,-x,z
1/2+y,1/2+x,z
loop_
_atom_site_type_symbol
_atom_site_label
_atom_site_fract_x
_atom_site_fract_y
_atom_site_fract_z
Si Si1 0.529508 0.876424 0.267926
Si Si2 0.994616 0.851618 0.970961
Si Si3 0.100126 0.754221 0.655470
Si Si4 0.388596 0.044424 0.619558
Si Si5 0.608626 0.685247 0.855086
Si Si6 0.859539 0.640461 0.500000
O O1 0.454680 0.802053 0.291871
O O2 0.601933 0.895880 0.321016
O O3 0.575320 0.838419 0.209786
O O4 0.471532 0.971532 0.256340
O O5 0.088230 0.911770 0.978348
O O6 0.966599 0.842668 0.903315
O O7 0.000763 0.750000 0.000000
O O8 0.911268 0.911268 0.000000
O O9 0.163289 0.836712 0.627784
O O10 0.173263 0.673263 0.672724
O O11 0.020350 0.703160 0.618641
O O12 0.397290 0.100336 0.560234
O O13 0.475272 0.975272 0.622607
O O14 0.705881 0.631222 0.863440
O O15 0.876287 0.750000 0.500000
#
# Coordination Sequence:
#
# PCOD9563011 Si02
#       6
#    16  16  16  16  16   8
#     4  10  20  35  56  84 117 152 195 246 301 361
#     4  11  23  42  67  93 125 165 207 254 307 367
#     4   9  18  34  56  81 112 152 193 237 296 357
#     4  10  20  36  58  81 110 148 192 245 300 359
#     4  11  22  36  59  89 120 158 205 253 303 365
#     4  11  23  36  52  76 107 145 190 238 296 361
#
# _framework density 18.555260000000001
#
# number of rings (size 3 to 8) (size 9 to 14) (size 15 to 20)
#    0.000    1.727    1.818    3.000    0.000    0.364 
#    0.000    4.545    0.000    3.273    0.000    5.091 
#    0.000    0.000    0.000    0.000    0.000    0.000 
#
# Total GULP energy -490900.816546 kJ/mol
# GULP energy per Si atom -5578.418370 kJ/mol
# Density = 1.851303 g / cm^3
# Si number density = 18.555260 Si / 1000 Ang^3
#
#
#
# Elastic Constant Matrix: (Units=GPa)
#
#
# Indices 1 2 3 4 5 6 
#
# 1 105.7348 39.2652 47.6263 0.0000 0.0000 0.0000
# 2 39.2652 105.7353 47.6263 0.0000 0.0000 0.0000
# 3 47.6263 47.6263 127.5463 0.0000 0.0000 0.0000
# 4 0.0000 0.0000 0.0000 29.4316 0.0000 0.0000
# 5 0.0000 0.0000 0.0000 0.0000 29.4315 0.0000
# 6 0.0000 0.0000 0.0000 0.0000 0.0000 12.0111
#
#
#
# Elastic Compliance Matrix: (Units=1/GPa)
#
#
# Indices 1 2 3 4 5 6 
#
# 1 0.012091 -0.002953 -0.003412 0.000000 0.000000 0.000000
# 2 -0.002953 0.012091 -0.003412 0.000000 0.000000 0.000000
# 3 -0.003412 -0.003412 0.010389 0.000000 0.000000 0.000000
# 4 0.000000 0.000000 0.000000 0.033977 0.000000 0.000000
# 5 0.000000 0.000000 0.000000 0.000000 0.033977 0.000000
# 6 0.000000 0.000000 0.000000 0.000000 0.000000 0.083256
#
#
# Mechanical properties :
#
#
# Convention : Reuss Voigt Hill
#
# Bulk Modulus (GPa) = 66.59608 67.56133 67.07870
# Shear Modulus (GPa) = 23.77079 27.80807 25.78943
#
# Velocity S-wave (km/s) = 3.58310 3.87546 3.73214
# Velocity P-wave (km/s) = 7.28607 7.51768 7.40278
#
# Compressibility (1/GPa) = 0.01501590
#
# Stress axis : x y z
#
# Youngs Moduli (GPa) = 82.70436 82.70481 96.26001
#
# Poissons Ratio (x) = 0.24424 0.32846
# Poissons Ratio (y) = 0.24424 0.32846
# Poissons Ratio (z) = 0.28220 0.28220
#
# Static dielectric constant tensor:
#      x y z
#    x 1.658190 0.000000 0.000000 
#    y 0.000000 1.658190 0.000000 
#    z 0.000000 0.000000 1.630540 
# 
# From -- ./inp_files/6176.got.cif
#   From: 2010.05.17/outbox.cif.g08.bks.cpg/sg125_4_cif.got.tgz:6176.got - 2010.05.20 11:54:10.
