data_PCOD9563376
_publ_section_title
;
Structure prediction by ZEFSAII (Michael W. Deem and Ramdas Pophale) SiO2 
 PCOD9563376
Probable space group: P 4/N N C
;
_chemical_formula_sum "Si O2"
_cell_formula_units_Z 112
_cell_length_a 16.941295
_cell_length_b 16.941295
_cell_length_c 19.872655
_cell_angle_alpha 90.000000
_cell_angle_beta 90.000000
_cell_angle_gamma 90.000000
_cell_volume 5703.600558
_symmetry_space_group_name_H-M "P 4/N N C"
_symmetry_group_IT_number 126
_space_group.IT_coordinate_system_code '2'
_symmetry_cell_setting 'tetragonal'
loop_
_space_group_symop_operation_xyz
x,y,z
1/2-y,x,z
1/2-x,1/2-y,z
y,1/2-x,z
x,1/2-y,1/2-z
1/2-x,y,1/2-z
y,x,1/2-z
1/2-y,1/2-x,1/2-z
-x,-y,-z
1/2+y,-x,-z
1/2+x,1/2+y,-z
-y,1/2+x,-z
-x,1/2+y,1/2+z
1/2+x,-y,1/2+z
-y,-x,1/2+z
1/2+y,1/2+x,1/2+z
loop_
_atom_site_type_symbol
_atom_site_label
_atom_site_fract_x
_atom_site_fract_y
_atom_site_fract_z
Si Si1 0.104944 0.546638 0.582334
Si Si2 0.974577 0.015763 0.816421
Si Si3 0.213375 0.523072 0.073077
Si Si4 0.117270 0.931409 0.067027
Si Si5 0.757579 0.879796 0.670091
Si Si6 0.441900 0.170709 0.711958
Si Si7 0.999571 0.785533 0.075936
O O1 0.050416 0.502020 0.636161
O O2 0.076133 0.637006 0.586140
O O3 0.091372 0.527645 0.502989
O O4 0.197419 0.529611 0.593174
O O5 0.963639 0.963639 0.750000
O O6 0.991550 0.102601 0.785706
O O7 0.904102 0.015889 0.868740
O O8 0.289483 0.578695 0.063926
O O9 0.228027 0.460500 0.131223
O O10 0.209147 0.475523 0.002128
O O11 0.070044 0.850181 0.077597
O O12 0.678679 0.830418 0.652969
O O13 0.750000 0.892528 0.750000
O O14 0.465272 0.250000 0.750000
O O15 0.366744 0.133257 0.750000
O O16 0.436084 0.190257 0.632513
#
# Coordination Sequence:
#
# PCOD9563376 Si02
#       7
#    16  16  16  16  16  16  16
#     4  10  20  36  57  81 115 151 192 236 296 346
#     4  10  20  34  56  83 108 150 192 235 293 345
#     4  10  21  35  57  89 114 150 193 240 290 354
#     4   9  20  36  55  81 116 147 192 241 287 349
#     4   9  20  40  60  79 113 156 189 236 295 344
#     4  10  20  37  58  80 110 148 193 236 290 347
#     4   9  19  38  57  82 116 154 191 238 295 345
#
# _framework density 19.63672
#
# number of rings (size 3 to 8) (size 9 to 14) (size 15 to 20)
#    0.000    2.429    0.000    2.571    2.000    1.857 
#    7.714    2.857    0.000    0.000    0.000    6.000 
#    0.000    0.000    0.000    0.000    0.000    0.000 
#
# Total GULP energy -624181.890708 kJ/mol
# GULP energy per Si atom -5573.052596 kJ/mol
# Density = 1.959203 g / cm^3
# Si number density = 19.636720 Si / 1000 Ang^3
#
#
#
# Elastic Constant Matrix: (Units=GPa)
#
#
# Indices 1 2 3 4 5 6 
#
# 1 63.3039 10.1071 36.2240 0.0000 0.0000 0.0000
# 2 10.1071 63.3038 36.2237 0.0000 0.0000 0.0000
# 3 36.2240 36.2237 93.2538 0.0000 0.0000 0.0000
# 4 0.0000 0.0000 0.0000 25.0614 0.0000 0.0000
# 5 0.0000 0.0000 0.0000 0.0000 25.0617 0.0000
# 6 0.0000 0.0000 0.0000 0.0000 0.0000 13.5544
#
#
#
# Elastic Compliance Matrix: (Units=1/GPa)
#
#
# Indices 1 2 3 4 5 6 
#
# 1 0.020444 0.001646 -0.008581 0.000000 0.000000 0.000000
# 2 0.001646 0.020444 -0.008581 0.000000 0.000000 0.000000
# 3 -0.008581 -0.008581 0.017390 0.000000 0.000000 0.000000
# 4 0.000000 0.000000 0.000000 0.039902 0.000000 0.000000
# 5 0.000000 0.000000 0.000000 0.000000 0.039901 0.000000
# 6 0.000000 0.000000 0.000000 0.000000 0.000000 0.073777
#
#
# Mechanical properties :
#
#
# Convention : Reuss Voigt Hill
#
# Bulk Modulus (GPa) = 36.70143 42.77455 39.73799
# Shear Modulus (GPa) = 19.84351 21.88929 20.86640
#
# Velocity S-wave (km/s) = 3.18233 3.34235 3.26332
# Velocity P-wave (km/s) = 5.67748 6.06014 5.87193
#
# Compressibility (1/GPa) = 0.02724689
#
# Stress axis : x y z
#
# Youngs Moduli (GPa) = 48.91374 48.91384 57.50525
#
# Poissons Ratio (x) = -0.08051 0.49344
# Poissons Ratio (y) = -0.08051 0.49344
# Poissons Ratio (z) = 0.41972 0.41972
#
# Static dielectric constant tensor:
#      x y z
#    x 1.686630 0.000000 0.000000 
#    y 0.000000 1.686640 0.000000 
#    z 0.000000 0.000000 1.753930 
# 
# From -- ./inp_files/5408.got.cif
#   From: 2010.05.17/outbox.cif.g08.bks.cpg/sg126_3_cif.got.tgz:5408.got - 2010.05.20 11:58:20.
