data_PCOD9563660
_publ_section_title
;
Structure prediction by ZEFSAII (Michael W. Deem and Ramdas Pophale) SiO2 
 PCOD9563660
Probable space group: P 4/N N C
;
_chemical_formula_sum "Si O2"
_cell_formula_units_Z 120
_cell_length_a 14.285953
_cell_length_b 14.285953
_cell_length_c 29.689332
_cell_angle_alpha 90.000000
_cell_angle_beta 90.000000
_cell_angle_gamma 90.000000
_cell_volume 6059.249842
_symmetry_space_group_name_H-M "P 4/N N C"
_symmetry_group_IT_number 126
_space_group.IT_coordinate_system_code '2'
_symmetry_cell_setting 'tetragonal'
loop_
_space_group_symop_operation_xyz
x,y,z
1/2-y,x,z
1/2-x,1/2-y,z
y,1/2-x,z
x,1/2-y,1/2-z
1/2-x,y,1/2-z
y,x,1/2-z
1/2-y,1/2-x,1/2-z
-x,-y,-z
1/2+y,-x,-z
1/2+x,1/2+y,-z
-y,1/2+x,-z
-x,1/2+y,1/2+z
1/2+x,-y,1/2+z
-y,-x,1/2+z
1/2+y,1/2+x,1/2+z
loop_
_atom_site_type_symbol
_atom_site_label
_atom_site_fract_x
_atom_site_fract_y
_atom_site_fract_z
Si Si1 0.708704 0.353431 0.698811
Si Si2 0.601862 0.320943 0.454685
Si Si3 0.657378 0.020655 0.354655
Si Si4 0.638478 0.638478 0.250000
Si Si5 0.614230 0.192971 0.948528
Si Si6 0.032997 0.846370 0.641640
Si Si7 0.133171 0.356232 0.200716
Si Si8 0.027414 0.134855 0.838568
O O1 0.750000 0.250000 0.687163
O O2 0.750000 0.370712 0.750000
O O3 0.596769 0.353455 0.686794
O O4 0.752443 0.432354 0.666501
O O5 0.562642 0.335620 0.504991
O O6 0.694064 0.384035 0.447557
O O7 0.647766 0.217215 0.454100
O O8 0.535577 0.334173 0.411882
O O9 0.664006 0.080439 0.399884
O O10 0.580345 0.942670 0.367633
O O11 0.755197 0.964946 0.347436
O O12 0.750000 0.624487 0.250000
O O13 0.576990 0.608579 0.208101
O O14 0.935989 0.886360 0.661409
O O15 0.111580 0.919201 0.657849
O O16 0.125189 0.243261 0.198526
O O17 0.105189 0.394812 0.250000
#
# Coordination Sequence:
#
# PCOD9563660 Si02
#       8
#    16  16  16   8  16  16  16  16
#     4  11  24  38  60  87 129 160 194 263 335 366
#     4   9  17  33  63  98 119 163 203 259 329 388
#     4  12  24  44  60  93 128 172 213 268 318 391
#     4  11  24  44  60  78 116 175 220 252 290 365
#     4   9  17  35  64  88 128 164 203 254 329 391
#     4  12  23  36  63  97 122 155 210 273 313 379
#     4   9  22  42  59  80 120 169 211 248 304 388
#     4  12  27  38  64  88 126 165 219 257 313 374
#
# _framework density 19.804431000000001
#
# number of rings (size 3 to 8) (size 9 to 14) (size 15 to 20)
#    0.000    1.400    5.333    1.200    6.533    0.267 
#    0.000    0.667    2.933    0.000    0.000    0.000 
#    0.000    0.000    0.000    0.000    0.000    0.000 
#
# Total GULP energy -668200.389278 kJ/mol
# GULP energy per Si atom -5568.336577 kJ/mol
# Density = 1.975936 g / cm^3
# Si number density = 19.804431 Si / 1000 Ang^3
#
#
#
# Elastic Constant Matrix: (Units=GPa)
#
#
# Indices 1 2 3 4 5 6 
#
# 1 68.8713 -4.9892 11.6062 0.0000 0.0000 0.0000
# 2 -4.9892 68.8711 11.6062 0.0000 0.0000 0.0000
# 3 11.6062 11.6062 122.2159 0.0000 0.0000 0.0000
# 4 0.0000 0.0000 0.0000 20.8112 0.0000 0.0000
# 5 0.0000 0.0000 0.0000 0.0000 20.8112 0.0000
# 6 0.0000 0.0000 0.0000 0.0000 0.0000 23.7841
#
#
#
# Elastic Compliance Matrix: (Units=1/GPa)
#
#
# Indices 1 2 3 4 5 6 
#
# 1 0.014876 0.001337 -0.001540 0.000000 0.000000 0.000000
# 2 0.001337 0.014876 -0.001540 0.000000 0.000000 0.000000
# 3 -0.001540 -0.001540 0.008475 0.000000 0.000000 0.000000
# 4 0.000000 0.000000 0.000000 0.048051 0.000000 0.000000
# 5 0.000000 0.000000 0.000000 0.000000 0.048051 0.000000
# 6 0.000000 0.000000 0.000000 0.000000 0.000000 0.042045
#
#
# Mechanical properties :
#
#
# Convention : Reuss Voigt Hill
#
# Bulk Modulus (GPa) = 28.78314 32.93385 30.85849
# Shear Modulus (GPa) = 26.11794 29.19698 27.65746
#
# Velocity S-wave (km/s) = 3.63546 3.84378 3.74107
# Velocity P-wave (km/s) = 5.67339 6.03035 5.85459
#
# Compressibility (1/GPa) = 0.03474256
#
# Stress axis : x y z
#
# Youngs Moduli (GPa) = 67.22155 67.22139 117.99858
#
# Poissons Ratio (x) = -0.08988 0.18168
# Poissons Ratio (y) = -0.08988 0.18168
# Poissons Ratio (z) = 0.10350 0.10350
#
# Static dielectric constant tensor:
#      x y z
#    x 1.790390 0.000000 0.000000 
#    y 0.000000 1.790390 0.000000 
#    z 0.000000 0.000000 5.243790 
# 
# From -- ./inp_files/6683.got.cif
#   From: 2010.05.17/outbox.cif.g08.bks.cpg/sg126_4_cif.got.tgz:6683.got - 2010.05.20 11:58:20.
