data_PCOD9563093
_publ_section_title
;
Structure prediction by ZEFSAII (Michael W. Deem and Ramdas Pophale) SiO2 
 PCOD9563093
Probable space group: P 4/N B M
;
_chemical_formula_sum "Si O2"
_cell_formula_units_Z 96
_cell_length_a 24.819331
_cell_length_b 24.819331
_cell_length_c 7.758332
_cell_angle_alpha 90.000000
_cell_angle_beta 90.000000
_cell_angle_gamma 90.000000
_cell_volume 4779.126238
_symmetry_space_group_name_H-M "P 4/N B M"
_symmetry_group_IT_number 125
_space_group.IT_coordinate_system_code '2'
_symmetry_cell_setting 'tetragonal'
loop_
_space_group_symop_operation_xyz
x,y,z
1/2-y,x,z
1/2-x,1/2-y,z
y,1/2-x,z
x,1/2-y,-z
1/2-x,y,-z
y,x,-z
1/2-y,1/2-x,-z
-x,-y,-z
1/2+y,-x,-z
1/2+x,1/2+y,-z
-y,1/2+x,-z
-x,1/2+y,z
1/2+x,-y,z
-y,-x,z
1/2+y,1/2+x,z
loop_
_atom_site_type_symbol
_atom_site_label
_atom_site_fract_x
_atom_site_fract_y
_atom_site_fract_z
Si Si1 0.180669 0.200376 0.796195
Si Si2 0.458809 0.629382 0.745055
Si Si3 0.310952 0.596182 0.047961
Si Si4 0.193560 0.533914 0.587477
Si Si5 0.959090 0.544424 0.204414
Si Si6 0.577997 0.646292 0.360801
O O1 0.237893 0.177570 0.729063
O O2 0.124834 0.172382 0.753124
O O3 0.192152 0.192152 0.000000
O O4 0.420799 0.579202 0.787787
O O5 0.447537 0.650121 0.554344
O O6 0.517690 0.603280 0.749676
O O7 0.444702 0.671755 0.893626
O O8 0.354016 0.645985 0.052345
O O9 0.312090 0.563469 0.228657
O O10 0.250000 0.614185 0.000000
O O11 0.250000 0.548494 0.500000
O O12 0.188630 0.468538 0.590880
O O13 0.898805 0.541812 0.267510
O O14 0.997079 0.497079 0.277678
O O15 0.960032 0.539969 0.000000
O O16 0.612857 0.612857 0.500000
#
# Coordination Sequence:
#
# PCOD9563093 Si02
#       6
#    16  16  16  16  16  16
#     4   9  21  43  65  87 120 167 220 280 343 393
#     4  10  21  41  67  94 130 172 216 269 328 396
#     4  11  24  45  73 102 133 174 219 271 337 406
#     4  12  25  43  64  96 136 177 218 273 338 407
#     4  10  21  39  62  89 124 166 217 270 324 385
#     4  12  25  37  60  93 130 169 219 272 324 396
#
# _framework density 20.087354000000001
#
# number of rings (size 3 to 8) (size 9 to 14) (size 15 to 20)
#    0.000    1.333    3.333    2.500    2.333    3.167 
#    3.000    0.833    0.000    0.000    0.000    0.000 
#    0.000    0.000    0.000    0.000    0.000    0.000 
#
# Total GULP energy -535105.189725 kJ/mol
# GULP energy per Si atom -5574.012393 kJ/mol
# Density = 2.004163 g / cm^3
# Si number density = 20.087354 Si / 1000 Ang^3
#
#
#
# Elastic Constant Matrix: (Units=GPa)
#
#
# Indices 1 2 3 4 5 6 
#
# 1 -92.3695 208.1684 21.7201 0.0000 0.0000 0.0000
# 2 208.1684 -92.3746 21.7171 0.0000 0.0000 0.0000
# 3 21.7201 21.7171 95.5134 0.0000 0.0000 0.0000
# 4 0.0000 0.0000 0.0000 70.7680 0.0000 0.0000
# 5 0.0000 0.0000 0.0000 0.0000 70.7732 0.0000
# 6 0.0000 0.0000 0.0000 0.0000 0.0000 20.5738
#
#
#
# Elastic Compliance Matrix: (Units=1/GPa)
#
#
# Indices 1 2 3 4 5 6 
#
# 1 0.003057 0.006384 -0.002147 0.000000 0.000000 0.000000
# 2 0.006384 0.003057 -0.002147 0.000000 0.000000 0.000000
# 3 -0.002147 -0.002147 0.011446 0.000000 0.000000 0.000000
# 4 0.000000 0.000000 0.000000 0.014131 0.000000 0.000000
# 5 0.000000 0.000000 0.000000 0.000000 0.014130 0.000000
# 6 0.000000 0.000000 0.000000 0.000000 0.000000 0.048606
#
#
# Mechanical properties :
#
#
# Convention : Reuss Voigt Hill
#
# Bulk Modulus (GPa) = 45.99575 45.99783 45.99679
# Shear Modulus (GPa) = 51.28650 9.70058 30.49354
#
# Velocity S-wave (km/s) = 5.05838 2.19993 3.90044
# Velocity P-wave (km/s) = 7.55406 5.42232 6.57515
#
# Compressibility (1/GPa) = 0.02174114
#
# Stress axis : x y z
#
# Youngs Moduli (GPa) = 327.12202 327.13469 87.36639
#
# Poissons Ratio (x) = -2.08851 0.18755
# Poissons Ratio (y) = -2.08843 0.18756
# Poissons Ratio (z) = 0.70225 0.70231
#
# Static dielectric constant tensor:
#      x y z
#    x 1.759490 0.000000 0.000000 
#    y 0.000000 1.759490 0.000000 
#    z 0.000000 0.000000 1.759370 
# 
# From -- ./inp_files/2842.got.cif
#   From: 2010.05.17/outbox.cif.g08.bks.cpg/sg125_2_cif.got.tgz:2842.got - 2010.05.20 11:54:10.
