data_PCOD9563165
_publ_section_title
;
Structure prediction by ZEFSAII (Michael W. Deem and Ramdas Pophale) SiO2 
 PCOD9563165
Probable space group: P 4/N B M
;
_chemical_formula_sum "Si O2"
_cell_formula_units_Z 58
_cell_length_a 12.219540
_cell_length_b 12.219540
_cell_length_c 19.594498
_cell_angle_alpha 90.000000
_cell_angle_beta 90.000000
_cell_angle_gamma 90.000000
_cell_volume 2925.794750
_symmetry_space_group_name_H-M "P 4/N B M"
_symmetry_group_IT_number 125
_space_group.IT_coordinate_system_code '2'
_symmetry_cell_setting 'tetragonal'
loop_
_space_group_symop_operation_xyz
x,y,z
1/2-y,x,z
1/2-x,1/2-y,z
y,1/2-x,z
x,1/2-y,-z
1/2-x,y,-z
y,x,-z
1/2-y,1/2-x,-z
-x,-y,-z
1/2+y,-x,-z
1/2+x,1/2+y,-z
-y,1/2+x,-z
-x,1/2+y,z
1/2+x,-y,z
-y,-x,z
1/2+y,1/2+x,z
loop_
_atom_site_type_symbol
_atom_site_label
_atom_site_fract_x
_atom_site_fract_y
_atom_site_fract_z
Si Si1 0.852349 0.970609 0.661609
Si Si2 0.495792 0.177400 0.565792
Si Si3 0.250000 0.750000 0.000000
Si Si4 0.337895 0.837895 0.866995
Si Si5 0.922440 0.786958 0.187307
O O1 0.797123 0.928833 0.730402
O O2 0.897186 0.879967 0.607991
O O3 0.764092 0.041506 0.620275
O O4 0.956814 0.043187 0.681096
O O5 0.466432 0.250000 0.500000
O O6 0.582912 0.082912 0.547361
O O7 0.322219 0.677782 0.051686
O O8 0.250000 0.750000 0.837534
O O9 0.459080 0.808968 0.843014
O O10 0.831478 0.876246 0.167080
#
# Coordination Sequence:
#
# PCOD9563165 Si02
#       5
#    16  16   2   8  16
#     4  11  22  38  60  89 124 169 227 294 353 424
#     4  11  24  40  58  81 122 172 230 295 361 428
#     4   8  24  52  72 124 140 200 234 252 348 440
#     4  10  24  45  78 106 150 190 236 276 345 428
#     4  11  23  41  68 106 147 186 240 299 360 420
#
# _framework density 19.823672999999999
#
# number of rings (size 3 to 8) (size 9 to 14) (size 15 to 20)
#    0.414    0.828    4.138    1.655    1.931    5.793 
#    0.000    4.138    0.000    1.655    0.000    0.000 
#    0.000    0.000    0.000    0.000    0.000    0.000 
#
# Total GULP energy -323556.799007 kJ/mol
# GULP energy per Si atom -5578.565500 kJ/mol
# Density = 1.977855 g / cm^3
# Si number density = 19.823673 Si / 1000 Ang^3
#
#
#
# Elastic Constant Matrix: (Units=GPa)
#
#
# Indices 1 2 3 4 5 6 
#
# 1 129.5961 71.5919 55.5039 0.0000 0.0000 0.0000
# 2 71.5919 129.5961 55.5039 0.0000 0.0000 0.0000
# 3 55.5039 55.5039 98.3070 0.0000 0.0000 0.0000
# 4 0.0000 0.0000 0.0000 0.6508 0.0000 0.0000
# 5 0.0000 0.0000 0.0000 0.0000 0.6508 0.0000
# 6 0.0000 0.0000 0.0000 0.0000 0.0000 -1.4143
#
#
#
# Elastic Compliance Matrix: (Units=1/GPa)
#
#
# Indices 1 2 3 4 5 6 
#
# 1 0.012230 -0.005010 -0.004076 0.000000 0.000000 0.000000
# 2 -0.005010 0.012230 -0.004076 0.000000 0.000000 0.000000
# 3 -0.004076 -0.004076 0.014775 0.000000 0.000000 0.000000
# 4 0.000000 0.000000 0.000000 1.536463 0.000000 0.000000
# 5 0.000000 0.000000 0.000000 0.000000 1.536463 0.000000
# 6 0.000000 0.000000 0.000000 0.000000 0.000000 -0.707050
#
#
# Mechanical properties :
#
#
# Convention : Reuss Voigt Hill
#
# Bulk Modulus (GPa) = 77.46233 80.29984 78.88109
# Shear Modulus (GPa) = 2.05276 11.63743 6.84510
#
# Velocity S-wave (km/s) = 1.01870 2.42553 1.86024
# Velocity P-wave (km/s) = 6.36743 6.95983 6.67021
#
# Compressibility (1/GPa) = 0.01290950
#
# Stress axis : x y z
#
# Youngs Moduli (GPa) = 81.76721 81.76721 67.68212
#
# Poissons Ratio (x) = 0.40968 0.27588
# Poissons Ratio (y) = 0.40968 0.27588
# Poissons Ratio (z) = 0.33329 0.33329
#
# Static dielectric constant tensor:
#      x y z
#    x 1.718610 0.000000 0.000000 
#    y 0.000000 1.718610 0.000000 
#    z 0.000000 0.000000 1.687950 
# 
# From -- ./inp_files/5746.got.cif
#   From: 2010.05.17/outbox.cif.g08.bks.cpg/sg125_3_cif.got.tgz:5746.got - 2010.05.20 11:54:10.
