data_PCOD9563662
_publ_section_title
;
Structure prediction by ZEFSAII (Michael W. Deem and Ramdas Pophale) SiO2 
 PCOD9563662
Probable space group: P 4/N N C
;
_chemical_formula_sum "Si O2"
_cell_formula_units_Z 88
_cell_length_a 12.287112
_cell_length_b 12.287112
_cell_length_c 28.449793
_cell_angle_alpha 90.000000
_cell_angle_beta 90.000000
_cell_angle_gamma 90.000000
_cell_volume 4295.154050
_symmetry_space_group_name_H-M "P 4/N N C"
_symmetry_group_IT_number 126
_space_group.IT_coordinate_system_code '2'
_symmetry_cell_setting 'tetragonal'
loop_
_space_group_symop_operation_xyz
x,y,z
1/2-y,x,z
1/2-x,1/2-y,z
y,1/2-x,z
x,1/2-y,1/2-z
1/2-x,y,1/2-z
y,x,1/2-z
1/2-y,1/2-x,1/2-z
-x,-y,-z
1/2+y,-x,-z
1/2+x,1/2+y,-z
-y,1/2+x,-z
-x,1/2+y,1/2+z
1/2+x,-y,1/2+z
-y,-x,1/2+z
1/2+y,1/2+x,1/2+z
loop_
_atom_site_type_symbol
_atom_site_label
_atom_site_fract_x
_atom_site_fract_y
_atom_site_fract_z
Si Si1 0.412947 0.747141 0.570841
Si Si2 0.250794 0.065462 0.695255
Si Si3 0.070498 0.247153 0.511775
Si Si4 0.762881 0.434057 0.399526
Si Si5 0.936187 0.750000 0.750000
Si Si6 0.070017 0.231253 0.347252
O O1 0.459587 0.747235 0.518366
O O2 0.327243 0.652823 0.583026
O O3 0.370566 0.864817 0.588102
O O4 0.511603 0.719961 0.604423
O O5 0.355992 0.144996 0.689632
O O6 0.250000 0.026649 0.750000
O O7 0.253138 0.974626 0.654229
O O8 0.146388 0.143002 0.501115
O O9 0.037656 0.244668 0.566369
O O10 0.853433 0.853433 0.750000
O O11 0.998930 0.763767 0.701081
O O12 0.157338 0.136124 0.345668
#
# Coordination Sequence:
#
# PCOD9563662 Si02
#       6
#    16  16  16  16   8  16
#     4  11  24  39  55  85 123 160 191 235 288 350
#     4   9  19  39  66  91 115 148 199 259 304 344
#     4  11  24  41  64  91 116 148 195 248 296 349
#     4  11  24  41  58  85 121 161 196 236 297 357
#     4   7  12  26  48  73 102 138 180 229 276 321
#     4   9  17  32  54  79 110 148 192 238 283 334
#
# _framework density 20.488206000000002
#
# number of rings (size 3 to 8) (size 9 to 14) (size 15 to 20)
#    0.000    2.091    0.000    4.909    0.000   11.636 
#    3.273    0.909    0.000    0.000    0.000    0.000 
#    0.000    0.000    0.000    0.000    0.000    0.000 
#
# Total GULP energy -490405.448508 kJ/mol
# GULP energy per Si atom -5572.789188 kJ/mol
# Density = 2.044157 g / cm^3
# Si number density = 20.488206 Si / 1000 Ang^3
#
#
#
# Elastic Constant Matrix: (Units=GPa)
#
#
# Indices 1 2 3 4 5 6 
#
# 1 55.5387 14.5946 24.3849 0.0000 0.0000 0.0000
# 2 14.5946 55.5387 24.3849 0.0000 0.0000 0.0000
# 3 24.3849 24.3849 130.2000 0.0000 0.0000 0.0000
# 4 0.0000 0.0000 0.0000 13.2141 0.0000 0.0000
# 5 0.0000 0.0000 0.0000 0.0000 13.2141 0.0000
# 6 0.0000 0.0000 0.0000 0.0000 0.0000 15.1802
#
#
#
# Elastic Compliance Matrix: (Units=1/GPa)
#
#
# Indices 1 2 3 4 5 6 
#
# 1 0.020409 -0.004015 -0.003070 0.000000 0.000000 0.000000
# 2 -0.004015 0.020409 -0.003070 0.000000 0.000000 0.000000
# 3 -0.003070 -0.003070 0.008831 0.000000 0.000000 0.000000
# 4 0.000000 0.000000 0.000000 0.075677 0.000000 0.000000
# 5 0.000000 0.000000 0.000000 0.000000 0.075677 0.000000
# 6 0.000000 0.000000 0.000000 0.000000 0.000000 0.065875
#
#
# Mechanical properties :
#
#
# Convention : Reuss Voigt Hill
#
# Bulk Modulus (GPa) = 34.08722 40.88959 37.48840
# Shear Modulus (GPa) = 16.83692 20.18255 18.50973
#
# Velocity S-wave (km/s) = 2.86979 3.14201 3.00898
# Velocity P-wave (km/s) = 5.25876 5.75881 5.51445
#
# Compressibility (1/GPa) = 0.02933651
#
# Stress axis : x y z
#
# Youngs Moduli (GPa) = 48.99900 48.99900 113.24305
#
# Poissons Ratio (x) = 0.19673 0.34769
# Poissons Ratio (y) = 0.19673 0.34769
# Poissons Ratio (z) = 0.15044 0.15044
#
# Static dielectric constant tensor:
#      x y z
#    x 1.598880 0.000000 0.000000 
#    y 0.000000 1.598880 0.000000 
#    z 0.000000 0.000000 1.751610 
# 
# From -- ./inp_files/6527.got.cif
#   From: 2010.05.17/outbox.cif.g08.bks.cpg/sg126_4_cif.got.tgz:6527.got - 2010.05.20 11:58:20.
