data_PCOD9563636
_publ_section_title
;
Structure prediction by ZEFSAII (Michael W. Deem and Ramdas Pophale) SiO2 
 PCOD9563636
Probable space group: P 4/N N C
;
_chemical_formula_sum "Si O2"
_cell_formula_units_Z 68
_cell_length_a 11.864646
_cell_length_b 11.864646
_cell_length_c 27.877483
_cell_angle_alpha 90.000000
_cell_angle_beta 90.000000
_cell_angle_gamma 90.000000
_cell_volume 3924.308395
_symmetry_space_group_name_H-M "P 4/N N C"
_symmetry_group_IT_number 126
_space_group.IT_coordinate_system_code '2'
_symmetry_cell_setting 'tetragonal'
loop_
_space_group_symop_operation_xyz
x,y,z
1/2-y,x,z
1/2-x,1/2-y,z
y,1/2-x,z
x,1/2-y,1/2-z
1/2-x,y,1/2-z
y,x,1/2-z
1/2-y,1/2-x,1/2-z
-x,-y,-z
1/2+y,-x,-z
1/2+x,1/2+y,-z
-y,1/2+x,-z
-x,1/2+y,1/2+z
1/2+x,-y,1/2+z
-y,-x,1/2+z
1/2+y,1/2+x,1/2+z
loop_
_atom_site_type_symbol
_atom_site_label
_atom_site_fract_x
_atom_site_fract_y
_atom_site_fract_z
Si Si1 0.318074 0.528057 0.955324
Si Si2 0.106276 0.375143 0.695754
Si Si3 0.019325 0.915967 0.100639
Si Si4 0.750000 0.250000 0.000000
Si Si5 0.072482 0.194362 0.438632
O O1 0.431094 0.488480 0.930215
O O2 0.210182 0.510752 0.921029
O O3 0.318513 0.659158 0.969475
O O4 0.308651 0.459350 0.005002
O O5 0.098166 0.239276 0.690141
O O6 0.083957 0.416044 0.750000
O O7 0.024886 0.422026 0.654911
O O8 0.142036 0.968007 0.090555
O O9 0.179669 0.113878 0.428323
#
# Coordination Sequence:
#
# PCOD9563636 Si02
#       5
#    16  16  16   4  16
#     4  12  22  34  53  78 116 149 192 222 277 329
#     4   9  18  34  56  83 113 142 179 231 290 346
#     4  12  22  34  56  84 109 153 183 231 282 335
#     4  12  24  36  48  80 118 152 188 244 264 320
#     4  11  23  38  52  75 114 156 192 220 263 335
#
# _framework density 17.327893
#
# number of rings (size 3 to 8) (size 9 to 14) (size 15 to 20)
#    0.000    0.941    7.059    2.824    0.000    0.471 
#    0.000    0.000    0.000    1.412    0.000    6.588 
#    0.000    0.000    0.000    0.000    0.000    0.000 
#
# Total GULP energy -379566.104249 kJ/mol
# GULP energy per Si atom -5581.854474 kJ/mol
# Density = 1.728845 g / cm^3
# Si number density = 17.327893 Si / 1000 Ang^3
#
#
#
# Elastic Constant Matrix: (Units=GPa)
#
#
# Indices 1 2 3 4 5 6 
#
# 1 52.1271 8.8309 8.6104 0.0000 0.0000 0.0000
# 2 8.8309 52.1268 8.6103 0.0000 0.0000 0.0000
# 3 8.6104 8.6103 92.7858 0.0000 0.0000 0.0000
# 4 0.0000 0.0000 0.0000 18.9254 0.0000 0.0000
# 5 0.0000 0.0000 0.0000 0.0000 18.9255 0.0000
# 6 0.0000 0.0000 0.0000 0.0000 0.0000 33.1455
#
#
#
# Elastic Compliance Matrix: (Units=1/GPa)
#
#
# Indices 1 2 3 4 5 6 
#
# 1 0.019972 -0.003125 -0.001563 0.000000 0.000000 0.000000
# 2 -0.003125 0.019972 -0.001563 0.000000 0.000000 0.000000
# 3 -0.001563 -0.001563 0.011068 0.000000 0.000000 0.000000
# 4 0.000000 0.000000 0.000000 0.052839 0.000000 0.000000
# 5 0.000000 0.000000 0.000000 0.000000 0.052839 0.000000
# 6 0.000000 0.000000 0.000000 0.000000 0.000000 0.030170
#
#
# Mechanical properties :
#
#
# Convention : Reuss Voigt Hill
#
# Bulk Modulus (GPa) = 25.96916 27.68255 26.82585
# Shear Modulus (GPa) = 23.56286 25.59846 24.58066
#
# Velocity S-wave (km/s) = 3.69158 3.84773 3.77046
# Velocity P-wave (km/s) = 5.76106 5.97917 5.87113
#
# Compressibility (1/GPa) = 0.03850721
#
# Stress axis : x y z
#
# Youngs Moduli (GPa) = 50.07119 50.07098 90.35337
#
# Poissons Ratio (x) = 0.15648 0.14125
# Poissons Ratio (y) = 0.15648 0.14125
# Poissons Ratio (z) = 0.07828 0.07828
#
# Static dielectric constant tensor:
#      x y z
#    x 1.606880 0.000000 0.000000 
#    y 0.000000 1.606880 0.000000 
#    z 0.000000 0.000000 1.576640 
# 
# From -- ./inp_files/6133.got.cif
#   From: 2010.05.17/outbox.cif.g08.bks.cpg/sg126_4_cif.got.tgz:6133.got - 2010.05.20 11:58:20.
