data_PCOD9563810
_publ_section_title
;
Structure prediction by ZEFSAII (Michael W. Deem and Ramdas Pophale) SiO2 
 PCOD9563810
Probable space group: P 4/M B M
;
_chemical_formula_sum "Si O2"
_cell_formula_units_Z 112
_cell_length_a 14.157221
_cell_length_b 14.157221
_cell_length_c 28.289682
_cell_angle_alpha 90.000000
_cell_angle_beta 90.000000
_cell_angle_gamma 90.000000
_cell_volume 5670.013448
_symmetry_space_group_name_H-M "P 4/M B M"
_symmetry_group_IT_number 127
_symmetry_cell_setting 'tetragonal'
loop_
_space_group_symop_operation_xyz
x,y,z
-y,x,z
-x,-y,z
y,-x,z
1/2+x,1/2-y,-z
1/2-x,1/2+y,-z
1/2+y,1/2+x,-z
1/2-y,1/2-x,-z
-x,-y,-z
y,-x,-z
x,y,-z
-y,x,-z
1/2-x,1/2+y,z
1/2+x,1/2-y,z
1/2-y,1/2-x,z
1/2+y,1/2+x,z
loop_
_atom_site_type_symbol
_atom_site_label
_atom_site_fract_x
_atom_site_fract_y
_atom_site_fract_z
Si Si1 0.424236 0.075765 0.339596
Si Si2 0.923466 0.140197 0.946695
Si Si3 0.158876 0.182972 0.389779
Si Si4 0.938087 0.723649 0.304805
Si Si5 0.599250 0.900751 0.449351
Si Si6 0.894472 0.239478 0.850092
Si Si7 0.988153 0.199347 0.447509
Si Si8 0.745138 0.595200 0.197008
O O1 0.462502 0.177518 0.322186
O O2 0.429611 0.070390 0.396410
O O3 0.500000 0.000000 0.320394
O O4 0.889881 0.205893 0.904396
O O5 0.036222 0.122891 0.942204
O O6 0.904395 0.174887 0.000000
O O7 0.258609 0.241392 0.387849
O O8 0.105320 0.200659 0.340695
O O9 0.149504 0.074270 0.407127
O O10 0.090826 0.229966 0.429433
O O11 0.861781 0.638220 0.307424
O O12 0.938432 0.758857 0.251337
O O13 0.563009 0.936992 0.500000
O O14 0.708171 0.924816 0.451384
O O15 0.833974 0.333974 0.842994
O O16 0.844139 0.157861 0.818964
O O17 0.002201 0.252048 0.834717
O O18 0.993758 0.156080 0.500000
O O19 0.836017 0.663984 0.191872
#
# Coordination Sequence:
#
# PCOD9563810 Si02
#       8
#     8  16  16  16   8  16  16  16
#     4  10  18  35  60  88 114 148 190 237 304 359
#     4   9  17  33  60  90 123 168 217 265 315 365
#     4  11  23  41  62  84 114 150 191 238 288 350
#     4   9  20  37  58  84 117 153 193 242 292 356
#     4  10  20  35  54  86 116 141 186 239 290 357
#     4  11  22  37  63  91 126 173 210 260 322 369
#     4  11  23  38  60  85 113 149 185 231 294 354
#     4  10  23  41  58  92 126 157 215 260 308 377
#
# _framework density 19.753039999999999
#
# number of rings (size 3 to 8) (size 9 to 14) (size 15 to 20)
#    0.000    1.857    3.571    0.857    1.000    3.286 
#    0.000    2.143    0.000    2.143    0.000    1.000 
#    0.000    0.000    0.000    0.000    0.000    0.000 
#
# Total GULP energy -623923.956068 kJ/mol
# GULP energy per Si atom -5570.749608 kJ/mol
# Density = 1.970808 g / cm^3
# Si number density = 19.753040 Si / 1000 Ang^3
#
#
#
# Elastic Constant Matrix: (Units=GPa)
#
#
# Indices 1 2 3 4 5 6 
#
# 1 60.9788 3.8384 26.9801 0.0000 0.0000 0.0000
# 2 3.8384 60.9787 26.9801 0.0000 0.0000 0.0000
# 3 26.9801 26.9801 127.1849 0.0000 0.0000 0.0000
# 4 0.0000 0.0000 0.0000 23.0657 0.0000 0.0000
# 5 0.0000 0.0000 0.0000 0.0000 23.0658 0.0000
# 6 0.0000 0.0000 0.0000 0.0000 0.0000 19.0293
#
#
#
# Elastic Compliance Matrix: (Units=1/GPa)
#
#
# Indices 1 2 3 4 5 6 
#
# 1 0.018119 0.000618 -0.003975 0.000000 0.000000 0.000000
# 2 0.000618 0.018119 -0.003975 0.000000 0.000000 0.000000
# 3 -0.003975 -0.003975 0.009549 0.000000 0.000000 0.000000
# 4 0.000000 0.000000 0.000000 0.043355 0.000000 0.000000
# 5 0.000000 0.000000 0.000000 0.000000 0.043354 0.000000
# 6 0.000000 0.000000 0.000000 0.000000 0.000000 0.052551
#
#
# Mechanical properties :
#
#
# Convention : Reuss Voigt Hill
#
# Bulk Modulus (GPa) = 32.12960 40.52661 36.32810
# Shear Modulus (GPa) = 23.80008 25.78840 24.79424
#
# Velocity S-wave (km/s) = 3.47491 3.61715 3.54674
# Velocity P-wave (km/s) = 5.69218 6.16492 5.93326
#
# Compressibility (1/GPa) = 0.03112395
#
# Stress axis : x y z
#
# Youngs Moduli (GPa) = 55.19110 55.19105 104.72398
#
# Poissons Ratio (x) = -0.03411 0.41625
# Poissons Ratio (y) = -0.03411 0.41625
# Poissons Ratio (z) = 0.21937 0.21937
#
# Static dielectric constant tensor:
#      x y z
#    x 1.732780 0.000000 0.000000 
#    y 0.000000 1.732780 0.000000 
#    z 0.000000 0.000000 1.703170 
# 
# From -- ./inp_files/6424.got.cif
#   From: 2010.05.17/outbox.cif.g08.bks.cpg/sg127_4_cif.got.tgz:6424.got - 2010.05.20 12:03:00.
