data_PCOD9563305
_publ_section_title
;
Structure prediction by ZEFSAII (Michael W. Deem and Ramdas Pophale) SiO2 
 PCOD9563305
Probable space group: P 4/N N C
;
_chemical_formula_sum "Si O2"
_cell_formula_units_Z 92
_cell_length_a 16.080977
_cell_length_b 16.080977
_cell_length_c 17.126706
_cell_angle_alpha 90.000000
_cell_angle_beta 90.000000
_cell_angle_gamma 90.000000
_cell_volume 4428.928857
_symmetry_space_group_name_H-M "P 4/N N C"
_symmetry_group_IT_number 126
_space_group.IT_coordinate_system_code '2'
_symmetry_cell_setting 'tetragonal'
loop_
_space_group_symop_operation_xyz
x,y,z
1/2-y,x,z
1/2-x,1/2-y,z
y,1/2-x,z
x,1/2-y,1/2-z
1/2-x,y,1/2-z
y,x,1/2-z
1/2-y,1/2-x,1/2-z
-x,-y,-z
1/2+y,-x,-z
1/2+x,1/2+y,-z
-y,1/2+x,-z
-x,1/2+y,1/2+z
1/2+x,-y,1/2+z
-y,-x,1/2+z
1/2+y,1/2+x,1/2+z
loop_
_atom_site_type_symbol
_atom_site_label
_atom_site_fract_x
_atom_site_fract_y
_atom_site_fract_z
Si Si1 0.833892 0.923836 0.376017
Si Si2 0.218838 0.578263 0.426296
Si Si3 0.607953 0.230425 0.602954
Si Si4 0.901122 0.115331 0.154851
Si Si5 0.250000 0.250000 0.651487
Si Si6 0.472029 0.027972 0.750000
Si Si7 0.595027 0.979301 0.481953
O O1 0.774978 0.849729 0.348659
O O2 0.907312 0.947669 0.317163
O O3 0.884752 0.897378 0.453491
O O4 0.785617 0.009774 0.386610
O O5 0.249527 0.615364 0.509986
O O6 0.161958 0.647682 0.385404
O O7 0.300837 0.557178 0.377020
O O8 0.158252 0.502568 0.449395
O O9 0.636535 0.303198 0.661624
O O10 0.950521 0.065119 0.221033
O O11 0.890532 0.046664 0.086230
O O12 0.500000 0.000000 0.500000
#
# Coordination Sequence:
#
# PCOD9563305 Si02
#       7
#    16  16  16  16   4   8  16
#     4  11  23  39  56  87 120 171 205 265 317 392
#     4  11  18  32  59  93 122 154 203 267 338 398
#     4  11  20  34  60  93 125 149 212 267 336 397
#     4  10  21  33  56  84 116 169 206 263 313 379
#     4  12  24  37  60  80 120 152 228 253 308 382
#     4  10  24  43  56  76 130 172 227 250 308 392
#     4  10  18  33  57  85 122 158 196 259 335 389
#
# _framework density 20.772516
#
# number of rings (size 3 to 8) (size 9 to 14) (size 15 to 20)
#    0.000    1.391    5.217    3.652    0.000    3.130 
#    0.000    0.870    0.000    2.087    0.000    0.000 
#    0.000    0.000    0.000    3.826    0.000    1.043 
#
# Total GULP energy -512322.902555 kJ/mol
# GULP energy per Si atom -5568.727202 kJ/mol
# Density = 2.072524 g / cm^3
# Si number density = 20.772516 Si / 1000 Ang^3
#
#
#
# Elastic Constant Matrix: (Units=GPa)
#
#
# Indices 1 2 3 4 5 6 
#
# 1 117.9032 37.6698 37.6590 0.0000 0.0000 0.0000
# 2 37.6698 117.9024 37.6586 0.0000 0.0000 0.0000
# 3 37.6590 37.6586 41.6992 0.0000 0.0000 0.0000
# 4 0.0000 0.0000 0.0000 23.8809 0.0000 0.0000
# 5 0.0000 0.0000 0.0000 0.0000 23.8815 0.0000
# 6 0.0000 0.0000 0.0000 0.0000 0.0000 45.0952
#
#
#
# Elastic Compliance Matrix: (Units=1/GPa)
#
#
# Indices 1 2 3 4 5 6 
#
# 1 0.011943 -0.000521 -0.010315 0.000000 0.000000 0.000000
# 2 -0.000521 0.011943 -0.010315 0.000000 0.000000 0.000000
# 3 -0.010315 -0.010315 0.042612 0.000000 0.000000 0.000000
# 4 0.000000 0.000000 0.000000 0.041875 0.000000 0.000000
# 5 0.000000 0.000000 0.000000 0.000000 0.041873 0.000000
# 6 0.000000 0.000000 0.000000 0.000000 0.000000 0.022175
#
#
# Mechanical properties :
#
#
# Convention : Reuss Voigt Hill
#
# Bulk Modulus (GPa) = 41.32959 55.94215 48.63587
# Shear Modulus (GPa) = 22.44286 29.53935 25.99110
#
# Velocity S-wave (km/s) = 3.29053 3.77509 3.54110
# Velocity P-wave (km/s) = 5.86312 6.78167 6.33906
#
# Compressibility (1/GPa) = 0.02419574
#
# Stress axis : x y z
#
# Youngs Moduli (GPa) = 83.73326 83.73325 23.46741
#
# Poissons Ratio (x) = 0.04363 0.24207
# Poissons Ratio (y) = 0.04363 0.24206
# Poissons Ratio (z) = 0.86371 0.86370
#
# Static dielectric constant tensor:
#      x y z
#    x 1.824630 0.000000 0.000000 
#    y 0.000000 1.824640 0.000000 
#    z 0.000000 0.000000 1.740820 
# 
# From -- ./inp_files/5290.got.cif
#   From: 2010.05.17/outbox.cif.g08.bks.cpg/sg126_3_cif.got.tgz:5290.got - 2010.05.20 11:58:20.
