data_PCOD9563839
_publ_section_title
;
Structure prediction by ZEFSAII (Michael W. Deem and Ramdas Pophale) SiO2 
 PCOD9563839
Probable space group: P 4/M B M
;
_chemical_formula_sum "Si O2"
_cell_formula_units_Z 96
_cell_length_a 25.847556
_cell_length_b 25.847556
_cell_length_c 9.167046
_cell_angle_alpha 90.000000
_cell_angle_beta 90.000000
_cell_angle_gamma 90.000000
_cell_volume 6124.468150
_symmetry_space_group_name_H-M "P 4/M B M"
_symmetry_group_IT_number 127
_symmetry_cell_setting 'tetragonal'
loop_
_space_group_symop_operation_xyz
x,y,z
-y,x,z
-x,-y,z
y,-x,z
1/2+x,1/2-y,-z
1/2-x,1/2+y,-z
1/2+y,1/2+x,-z
1/2-y,1/2-x,-z
-x,-y,-z
y,-x,-z
x,y,-z
-y,x,-z
1/2-x,1/2+y,z
1/2+x,1/2-y,z
1/2-y,1/2-x,z
1/2+y,1/2+x,z
loop_
_atom_site_type_symbol
_atom_site_label
_atom_site_fract_x
_atom_site_fract_y
_atom_site_fract_z
Si Si1 0.394373 0.306744 0.674448
Si Si2 0.811555 0.104840 0.325327
Si Si3 0.313446 0.500276 0.167694
Si Si4 0.808506 0.608014 0.324686
Si Si5 0.110376 0.695928 0.824084
Si Si6 0.003620 0.312201 0.833243
O O1 0.399706 0.301625 0.500000
O O2 0.348532 0.346963 0.706560
O O3 0.448153 0.326812 0.743284
O O4 0.383095 0.250749 0.744659
O O5 0.812252 0.095873 0.500000
O O6 0.829772 0.052870 0.244522
O O7 0.751750 0.115672 0.282745
O O8 0.250579 0.498518 0.167522
O O9 0.330605 0.503281 0.000000
O O10 0.810068 0.606279 0.500000
O O11 0.845604 0.654397 0.274800
O O12 0.826772 0.552867 0.262396
O O13 0.156212 0.656212 0.791431
O O14 0.053996 0.672738 0.783163
O O15 0.108678 0.704481 0.000000
O O16 0.011364 0.329293 0.000000
#
# Coordination Sequence:
#
# PCOD9563839 Si02
#       6
#    16  16  16  16  16  16
#     4  10  19  30  47  71  97 123 152 188 231 279
#     4   9  18  31  47  68  94 123 153 187 226 270
#     4   9  17  30  48  67  89 120 157 193 226 266
#     4   9  17  29  45  65  90 119 149 183 224 268
#     4   9  18  32  48  67  93 123 155 193 234 274
#     4   8  15  28  45  64  85 113 151 190 225 264
#
# _framework density 15.674830999999999
#
# number of rings (size 3 to 8) (size 9 to 14) (size 15 to 20)
#    0.000    3.000    0.000    2.000    0.000    6.667 
#    0.000    1.667    0.000    1.000    0.000    7.000 
#    0.000    0.000    0.000    0.000    0.000    0.000 
#
# Total GULP energy -534512.299703 kJ/mol
# GULP energy per Si atom -5567.836455 kJ/mol
# Density = 1.563915 g / cm^3
# Si number density = 15.674831 Si / 1000 Ang^3
#
#
#
# Elastic Constant Matrix: (Units=GPa)
#
#
# Indices 1 2 3 4 5 6 
#
# 1 102.9426 71.1315 49.4956 0.0000 0.0000 0.0000
# 2 71.1315 102.9426 49.4956 0.0000 0.0000 0.0000
# 3 49.4956 49.4956 46.0459 0.0000 0.0000 0.0000
# 4 0.0000 0.0000 0.0000 22.2586 0.0000 0.0000
# 5 0.0000 0.0000 0.0000 0.0000 22.2586 0.0000
# 6 0.0000 0.0000 0.0000 0.0000 0.0000 -1.2137
#
#
#
# Elastic Compliance Matrix: (Units=1/GPa)
#
#
# Indices 1 2 3 4 5 6 
#
# 1 0.023107 -0.008329 -0.015886 0.000000 0.000000 0.000000
# 2 -0.008329 0.023107 -0.015886 0.000000 0.000000 0.000000
# 3 -0.015886 -0.015886 0.055869 0.000000 0.000000 0.000000
# 4 0.000000 0.000000 0.000000 0.044927 0.000000 0.000000
# 5 0.000000 0.000000 0.000000 0.000000 0.044927 0.000000
# 6 0.000000 0.000000 0.000000 0.000000 0.000000 -0.823894
#
#
# Mechanical properties :
#
#
# Convention : Reuss Voigt Hill
#
# Bulk Modulus (GPa) = 45.69678 65.79740 55.74709
# Shear Modulus (GPa) = -9.18333 14.11457 2.46562
#
# Velocity S-wave (km/s) = -2.42309 3.00402 1.25554
# Velocity P-wave (km/s) = 4.62469 7.35526 6.14360
#
# Compressibility (1/GPa) = 0.02188338
#
# Stress axis : x y z
#
# Youngs Moduli (GPa) = 43.27698 43.27698 17.89905
#
# Poissons Ratio (x) = 0.36044 0.28434
# Poissons Ratio (y) = 0.36044 0.28434
# Poissons Ratio (z) = 0.68748 0.68748
#
# Static dielectric constant tensor:
#      x y z
#    x 1.515570 0.000000 0.000000 
#    y 0.000000 1.515570 0.000000 
#    z 0.000000 0.000000 1.531430 
# 
# From -- ./inp_files/1929.got.cif
#   From: 2010.05.17/outbox.cif.g08.bks.cpg/sg127_1_cif.got.tgz:1929.got - 2010.05.20 12:03:00.
