data_PCOD9563252
_publ_section_title
;
Structure prediction by ZEFSAII (Michael W. Deem and Ramdas Pophale) SiO2 
 PCOD9563252
Probable space group: P 4/N B M
;
_chemical_formula_sum "Si O2"
_cell_formula_units_Z 40
_cell_length_a 20.174798
_cell_length_b 20.174798
_cell_length_c 4.930179
_cell_angle_alpha 90.000000
_cell_angle_beta 90.000000
_cell_angle_gamma 90.000000
_cell_volume 2006.693656
_symmetry_space_group_name_H-M "P 4/N B M"
_symmetry_group_IT_number 125
_space_group.IT_coordinate_system_code '2'
_symmetry_cell_setting 'tetragonal'
loop_
_space_group_symop_operation_xyz
x,y,z
1/2-y,x,z
1/2-x,1/2-y,z
y,1/2-x,z
x,1/2-y,-z
1/2-x,y,-z
y,x,-z
1/2-y,1/2-x,-z
-x,-y,-z
1/2+y,-x,-z
1/2+x,1/2+y,-z
-y,1/2+x,-z
-x,1/2+y,z
1/2+x,-y,z
-y,-x,z
1/2+y,1/2+x,z
loop_
_atom_site_type_symbol
_atom_site_label
_atom_site_fract_x
_atom_site_fract_y
_atom_site_fract_z
Si Si1 0.395240 0.005813 0.147670
Si Si2 0.250000 0.362356 0.000000
Si Si3 0.192793 0.019188 0.341830
O O1 0.363167 0.028350 0.429378
O O2 0.446402 0.946402 0.195938
O O3 0.435283 0.064718 0.000000
O O4 0.339420 0.987853 0.925734
O O5 0.187131 0.312870 0.000000
O O6 0.271165 0.413854 0.235173
O O7 0.250000 0.979577 0.500000
#
# Coordination Sequence:
#
# PCOD9563252 Si02
#       3
#    16   8  16
#     4  11  24  41  64  91 123 167 222 278 334 386
#     4  11  26  42  60  88 132 186 231 260 296 366
#     4  12  23  40  63  89 128 170 216 265 323 375
#
# _framework density 19.933288999999998
#
# number of rings (size 3 to 8) (size 9 to 14) (size 15 to 20)
#    0.000    0.600    4.000    3.600    5.600    3.200 
#    0.000    2.000    0.000    0.000    0.000    0.000 
#    0.000   56.000    0.000    0.000    0.000    0.000 
#
# Total GULP energy -223096.759795 kJ/mol
# GULP energy per Si atom -5577.418995 kJ/mol
# Density = 1.988792 g / cm^3
# Si number density = 19.933289 Si / 1000 Ang^3
#
#
#
# Elastic Constant Matrix: (Units=GPa)
#
#
# Indices 1 2 3 4 5 6 
#
# 1 65.5255 44.8664 54.9972 0.0000 0.0000 0.0000
# 2 44.8664 65.5224 54.9973 0.0000 0.0000 0.0000
# 3 54.9972 54.9973 184.9553 0.0000 0.0000 0.0000
# 4 0.0000 0.0000 0.0000 29.4952 0.0000 0.0000
# 5 0.0000 0.0000 0.0000 0.0000 29.4951 0.0000
# 6 0.0000 0.0000 0.0000 0.0000 0.0000 37.9730
#
#
#
# Elastic Compliance Matrix: (Units=1/GPa)
#
#
# Indices 1 2 3 4 5 6 
#
# 1 0.030640 -0.017768 -0.003827 0.000000 0.000000 0.000000
# 2 -0.017768 0.030642 -0.003828 0.000000 0.000000 0.000000
# 3 -0.003827 -0.003828 0.007683 0.000000 0.000000 0.000000
# 4 0.000000 0.000000 0.000000 0.033904 0.000000 0.000000
# 5 0.000000 0.000000 0.000000 0.000000 0.033904 0.000000
# 6 0.000000 0.000000 0.000000 0.000000 0.000000 0.026335
#
#
# Mechanical properties :
#
#
# Convention : Reuss Voigt Hill
#
# Bulk Modulus (GPa) = 55.19488 69.52500 62.35994
# Shear Modulus (GPa) = 22.72802 30.13547 26.43174
#
# Velocity S-wave (km/s) = 3.38035 3.89243 3.64539
# Velocity P-wave (km/s) = 6.55634 7.42670 7.00505
#
# Compressibility (1/GPa) = 0.01811762
#
# Stress axis : x y z
#
# Youngs Moduli (GPa) = 32.63745 32.63529 130.15524
#
# Poissons Ratio (x) = 0.57986 0.49816
# Poissons Ratio (y) = 0.57990 0.49825
# Poissons Ratio (z) = 0.12492 0.12493
#
# Static dielectric constant tensor:
#      x y z
#    x 1.741330 0.000000 0.000000 
#    y 0.000000 1.741350 0.000000 
#    z 0.000000 0.000000 1.752340 
# 
# From -- ./inp_files/587.got.cif
#   From: 2010.05.17/outbox.cif.g08.bks.cpg/sg125_1_cif.got.tgz:587.got - 2010.05.20 11:54:10.
