data_PCOD9563158
_publ_section_title
;
Structure prediction by ZEFSAII (Michael W. Deem and Ramdas Pophale) SiO2 
 PCOD9563158
Probable space group: P 4/N B M
;
_chemical_formula_sum "Si O2"
_cell_formula_units_Z 64
_cell_length_a 14.085214
_cell_length_b 14.085214
_cell_length_c 15.381484
_cell_angle_alpha 90.000000
_cell_angle_beta 90.000000
_cell_angle_gamma 90.000000
_cell_volume 3051.582653
_symmetry_space_group_name_H-M "P 4/N B M"
_symmetry_group_IT_number 125
_space_group.IT_coordinate_system_code '2'
_symmetry_cell_setting 'tetragonal'
loop_
_space_group_symop_operation_xyz
x,y,z
1/2-y,x,z
1/2-x,1/2-y,z
y,1/2-x,z
x,1/2-y,-z
1/2-x,y,-z
y,x,-z
1/2-y,1/2-x,-z
-x,-y,-z
1/2+y,-x,-z
1/2+x,1/2+y,-z
-y,1/2+x,-z
-x,1/2+y,z
1/2+x,-y,z
-y,-x,z
1/2+y,1/2+x,z
loop_
_atom_site_type_symbol
_atom_site_label
_atom_site_fract_x
_atom_site_fract_y
_atom_site_fract_z
Si Si1 0.637308 0.864234 0.404304
Si Si2 0.935025 0.665169 0.937285
Si Si3 0.394709 0.450896 0.776129
Si Si4 0.746449 0.100077 0.165175
O O1 0.621493 0.750579 0.399789
O O2 0.603754 0.896247 0.500000
O O3 0.588950 0.907683 0.320015
O O4 0.884895 0.632796 0.847318
O O5 0.039007 0.697262 0.909327
O O6 0.897763 0.750000 0.000000
O O7 0.924380 0.575621 0.000000
O O8 0.485900 0.514101 0.801204
O O9 0.304449 0.521771 0.779845
O O10 0.826132 0.173868 0.133185
O O11 0.664881 0.164881 0.209101
#
# Coordination Sequence:
#
# PCOD9563158 Si02
#       4
#    16  16  16  16
#     4   9  19  37  62  91 124 163 206 256 321 392
#     4  12  25  43  59  88 124 164 214 267 321 376
#     4  11  23  40  64  95 128 166 213 274 323 380
#     4  10  23  43  63  86 124 173 215 257 319 388
#
# _framework density 20.972722999999998
#
# number of rings (size 3 to 8) (size 9 to 14) (size 15 to 20)
#    0.000    1.500    2.500    3.000    0.000    4.750 
#    0.000    1.250    0.000    1.500    0.000    0.000 
#    0.000    4.000    0.000    0.000    0.000    0.000 
#
# Total GULP energy -356864.803584 kJ/mol
# GULP energy per Si atom -5576.012556 kJ/mol
# Density = 2.092499 g / cm^3
# Si number density = 20.972723 Si / 1000 Ang^3
#
#
#
# Elastic Constant Matrix: (Units=GPa)
#
#
# Indices 1 2 3 4 5 6 
#
# 1 68.9589 54.5297 45.6218 0.0000 0.0000 0.0000
# 2 54.5297 68.9610 45.6216 0.0000 0.0000 0.0000
# 3 45.6218 45.6216 153.8661 0.0000 0.0000 0.0000
# 4 0.0000 0.0000 0.0000 18.2186 0.0000 0.0000
# 5 0.0000 0.0000 0.0000 0.0000 18.2185 0.0000
# 6 0.0000 0.0000 0.0000 0.0000 0.0000 36.3897
#
#
#
# Elastic Compliance Matrix: (Units=1/GPa)
#
#
# Indices 1 2 3 4 5 6 
#
# 1 0.039835 -0.029465 -0.003075 0.000000 0.000000 0.000000
# 2 -0.029465 0.039833 -0.003074 0.000000 0.000000 0.000000
# 3 -0.003075 -0.003074 0.008322 0.000000 0.000000 0.000000
# 4 0.000000 0.000000 0.000000 0.054889 0.000000 0.000000
# 5 0.000000 0.000000 0.000000 0.000000 0.054889 0.000000
# 6 0.000000 0.000000 0.000000 0.000000 0.000000 0.027480
#
#
# Mechanical properties :
#
#
# Convention : Reuss Voigt Hill
#
# Bulk Modulus (GPa) = 59.65461 64.81469 62.23465
# Shear Modulus (GPa) = 16.55274 24.29954 20.42614
#
# Velocity S-wave (km/s) = 2.81241 3.40755 3.12418
# Velocity P-wave (km/s) = 6.24915 6.81566 6.53854
#
# Compressibility (1/GPa) = 0.01676317
#
# Stress axis : x y z
#
# Youngs Moduli (GPa) = 25.10356 25.10459 120.15739
#
# Poissons Ratio (x) = 0.73970 0.36947
# Poissons Ratio (y) = 0.73967 0.36940
# Poissons Ratio (z) = 0.07719 0.07718
#
# Static dielectric constant tensor:
#      x y z
#    x 1.801710 0.000000 0.000000 
#    y 0.000000 1.801710 0.000000 
#    z 0.000000 0.000000 1.742370 
# 
# From -- ./inp_files/4621.got.cif
#   From: 2010.05.17/outbox.cif.g08.bks.cpg/sg125_3_cif.got.tgz:4621.got - 2010.05.20 11:54:10.
