data_PCOD9563298
_publ_section_title
;
Structure prediction by ZEFSAII (Michael W. Deem and Ramdas Pophale) SiO2 
 PCOD9563298
Probable space group: P 4/N N C
;
_chemical_formula_sum "Si O2"
_cell_formula_units_Z 96
_cell_length_a 24.682239
_cell_length_b 24.682239
_cell_length_c 10.033932
_cell_angle_alpha 90.000000
_cell_angle_beta 90.000000
_cell_angle_gamma 90.000000
_cell_volume 6112.801033
_symmetry_space_group_name_H-M "P 4/N N C"
_symmetry_group_IT_number 126
_space_group.IT_coordinate_system_code '2'
_symmetry_cell_setting 'tetragonal'
loop_
_space_group_symop_operation_xyz
x,y,z
1/2-y,x,z
1/2-x,1/2-y,z
y,1/2-x,z
x,1/2-y,1/2-z
1/2-x,y,1/2-z
y,x,1/2-z
1/2-y,1/2-x,1/2-z
-x,-y,-z
1/2+y,-x,-z
1/2+x,1/2+y,-z
-y,1/2+x,-z
-x,1/2+y,1/2+z
1/2+x,-y,1/2+z
-y,-x,1/2+z
1/2+y,1/2+x,1/2+z
loop_
_atom_site_type_symbol
_atom_site_label
_atom_site_fract_x
_atom_site_fract_y
_atom_site_fract_z
Si Si1 0.541383 0.628119 0.044411
Si Si2 0.250000 0.026564 0.250000
Si Si3 0.250000 0.339922 0.750000
Si Si4 0.131661 0.999450 0.250000
Si Si5 0.562502 0.473041 0.250000
Si Si6 0.933594 0.750000 0.042753
Si Si7 0.541383 0.628119 0.455588
O O1 0.495200 0.595604 0.123399
O O2 0.540524 0.691753 0.079999
O O3 0.597892 0.597892 0.079414
O O4 0.531713 0.621870 0.886824
O O5 0.250000 0.063816 0.381884
O O6 0.196215 0.990083 0.250000
O O7 0.197807 0.302194 0.750000
O O8 0.250000 0.376911 0.881445
O O9 0.090296 0.949561 0.250000
O O10 0.121870 0.031713 0.113175
O O11 0.504947 0.504947 0.250000
O O12 0.595604 0.495200 0.123400
O O13 0.959476 0.691753 0.079999
#
# Coordination Sequence:
#
# PCOD9563298 Si02
#       7
#    16   8   8  16  16  16  16
#     4  10  19  30  46  67  91 121 153 187 228 270
#     4   8  20  34  50  69  88 121 152 184 228 278
#     4  11  22  34  48  64  84 116 158 203 242 270
#     4  10  18  31  47  66  92 118 148 183 223 274
#     4  10  19  29  44  68  94 119 148 183 225 273
#     4  10  19  34  49  65  92 122 157 193 230 276
#     4  10  19  30  46  67  91 121 153 187 228 270
#
# _framework density 15.704746999999999
#
# number of rings (size 3 to 8) (size 9 to 14) (size 15 to 20)
#    0.000    2.083    0.000    4.500    0.000    4.000 
#    0.000    2.500    0.000    1.000    0.000    0.000 
#    0.000    2.667    0.000   24.667    0.000   18.833 
#
# Total GULP energy -534755.522918 kJ/mol
# GULP energy per Si atom -5570.370030 kJ/mol
# Density = 1.566900 g / cm^3
# Si number density = 15.704747 Si / 1000 Ang^3
#
#
#
# Elastic Constant Matrix: (Units=GPa)
#
#
# Indices 1 2 3 4 5 6 
#
# 1 100.5569 62.5782 36.4417 0.0000 0.0000 0.0000
# 2 62.5782 100.5563 36.4416 0.0000 0.0000 0.0000
# 3 36.4417 36.4416 84.3547 0.0000 0.0000 0.0000
# 4 0.0000 0.0000 0.0000 15.3054 0.0000 0.0000
# 5 0.0000 0.0000 0.0000 0.0000 15.3017 0.0000
# 6 0.0000 0.0000 0.0000 0.0000 0.0000 -175.5285
#
#
#
# Elastic Compliance Matrix: (Units=1/GPa)
#
#
# Indices 1 2 3 4 5 6 
#
# 1 0.016963 -0.009367 -0.003281 0.000000 0.000000 0.000000
# 2 -0.009367 0.016963 -0.003282 0.000000 0.000000 0.000000
# 3 -0.003281 -0.003282 0.014690 0.000000 0.000000 0.000000
# 4 0.000000 0.000000 0.000000 0.065336 0.000000 0.000000
# 5 0.000000 0.000000 0.000000 0.000000 0.065352 0.000000
# 6 0.000000 0.000000 0.000000 0.000000 0.000000 -0.005697
#
#
# Mechanical properties :
#
#
# Convention : Reuss Voigt Hill
#
# Bulk Modulus (GPa) = 59.68047 61.82121 60.75084
# Shear Modulus (GPa) = 23.69060 -18.98386 2.35337
#
# Velocity S-wave (km/s) = 3.88815 -3.48055 1.22546
# Velocity P-wave (km/s) = 7.63158 4.82678 6.38509
#
# Compressibility (1/GPa) = 0.01675590
#
# Stress axis : x y z
#
# Youngs Moduli (GPa) = 58.95074 58.95037 68.07377
#
# Poissons Ratio (x) = 0.55221 0.22338
# Poissons Ratio (y) = 0.55222 0.22339
# Poissons Ratio (z) = 0.19345 0.19345
#
# Static dielectric constant tensor:
#      x y z
#    x 1.516940 0.000000 0.000000 
#    y 0.000000 1.516940 0.000000 
#    z 0.000000 0.000000 1.572960 
# 
# From -- ./inp_files/2946.got.cif
#   From: 2010.05.17/outbox.cif.g08.bks.cpg/sg126_2_cif.got.tgz:2946.got - 2010.05.20 11:58:20.
