data_PCOD9563246
_publ_section_title
;
Structure prediction by ZEFSAII (Michael W. Deem and Ramdas Pophale) SiO2 
 PCOD9563246
Probable space group: P 4/N B M
;
_chemical_formula_sum "Si O2"
_cell_formula_units_Z 96
_cell_length_a 21.634253
_cell_length_b 21.634253
_cell_length_c 7.787918
_cell_angle_alpha 90.000000
_cell_angle_beta 90.000000
_cell_angle_gamma 90.000000
_cell_volume 3645.064172
_symmetry_space_group_name_H-M "P 4/N B M"
_symmetry_group_IT_number 125
_space_group.IT_coordinate_system_code '2'
_symmetry_cell_setting 'tetragonal'
loop_
_space_group_symop_operation_xyz
x,y,z
1/2-y,x,z
1/2-x,1/2-y,z
y,1/2-x,z
x,1/2-y,-z
1/2-x,y,-z
y,x,-z
1/2-y,1/2-x,-z
-x,-y,-z
1/2+y,-x,-z
1/2+x,1/2+y,-z
-y,1/2+x,-z
-x,1/2+y,z
1/2+x,-y,z
-y,-x,z
1/2+y,1/2+x,z
loop_
_atom_site_type_symbol
_atom_site_label
_atom_site_fract_x
_atom_site_fract_y
_atom_site_fract_z
Si Si1 0.248529 0.851973 0.792577
Si Si2 0.654404 0.528150 0.310355
Si Si3 0.297824 0.332331 0.692252
Si Si4 0.190588 0.976301 0.327708
Si Si5 0.466446 0.533555 0.772126
Si Si6 0.932096 0.432096 0.139713
Si Si7 0.680902 0.574310 0.961067
O O1 0.184411 0.815590 0.745921
O O2 0.304204 0.804204 0.744717
O O3 0.261986 0.919736 0.715345
O O4 0.250000 0.857368 0.000000
O O5 0.671793 0.600508 0.318046
O O6 0.686268 0.495341 0.472492
O O7 0.584499 0.505442 0.328729
O O8 0.668605 0.520274 0.105943
O O9 0.228730 0.329843 0.768301
O O10 0.309345 0.309345 0.500000
O O11 0.128993 0.950207 0.239857
O O12 0.189393 0.041608 0.223714
O O13 0.516130 0.483871 0.831551
O O14 0.431687 0.568314 0.931532
O O15 0.750000 0.592973 0.000000
O O16 0.626065 0.626065 0.000000
#
# Coordination Sequence:
#
# PCOD9563246 Si02
#       7
#    16  16  16  16   8   8  16
#     4   9  19  41  78 122 166 220 282 355 444 525
#     4  12  28  47  83 123 164 229 285 350 438 514
#     4   9  22  45  75 113 159 212 272 343 418 504
#     4  12  25  48  80 124 166 218 289 362 433 524
#     4  11  25  47  73 119 173 227 287 352 443 526
#     4  11  23  45  76 111 173 225 280 364 432 511
#     4  12  31  53  78 122 171 224 289 361 430 518
#
# _framework density 26.336984000000001
#
# number of rings (size 3 to 8) (size 9 to 14) (size 15 to 20)
#    0.000    1.167    2.500    3.000    7.000    2.833 
#    0.000    0.000    0.000    1.000    2.167    2.333 
#    0.000   10.667    0.000    0.000    0.000    0.000 
#
# Total GULP energy -534862.854315 kJ/mol
# GULP energy per Si atom -5571.488066 kJ/mol
# Density = 2.627704 g / cm^3
# Si number density = 26.336984 Si / 1000 Ang^3
#
#
#
# Elastic Constant Matrix: (Units=GPa)
#
#
# Indices 1 2 3 4 5 6 
#
# 1 184.0580 128.3639 54.9861 0.0000 0.0000 0.0000
# 2 128.3639 184.0580 54.9861 0.0000 0.0000 0.0000
# 3 54.9861 54.9861 112.3200 0.0000 0.0000 0.0000
# 4 0.0000 0.0000 0.0000 44.4506 0.0000 0.0000
# 5 0.0000 0.0000 0.0000 0.0000 44.4506 0.0000
# 6 0.0000 0.0000 0.0000 0.0000 0.0000 106.2306
#
#
#
# Elastic Compliance Matrix: (Units=1/GPa)
#
#
# Indices 1 2 3 4 5 6 
#
# 1 0.010911 -0.007044 -0.001893 0.000000 0.000000 0.000000
# 2 -0.007044 0.010911 -0.001893 0.000000 0.000000 0.000000
# 3 -0.001893 -0.001893 0.010757 0.000000 0.000000 0.000000
# 4 0.000000 0.000000 0.000000 0.022497 0.000000 0.000000
# 5 0.000000 0.000000 0.000000 0.000000 0.022497 0.000000
# 6 0.000000 0.000000 0.000000 0.000000 0.000000 0.009413
#
#
# Mechanical properties :
#
#
# Convention : Reuss Voigt Hill
#
# Bulk Modulus (GPa) = 91.58843 106.34538 98.96691
# Shear Modulus (GPa) = 44.52890 55.16636 49.84763
#
# Velocity S-wave (km/s) = 4.11632 4.58168 4.35522
# Velocity P-wave (km/s) = 7.57913 8.27378 7.93406
#
# Compressibility (1/GPa) = 0.01091841
#
# Stress axis : x y z
#
# Youngs Moduli (GPa) = 91.64881 91.64881 92.96495
#
# Poissons Ratio (x) = 0.64558 0.17600
# Poissons Ratio (y) = 0.64558 0.17600
# Poissons Ratio (z) = 0.17351 0.17351
#
# Static dielectric constant tensor:
#      x y z
#    x 1.533510 0.000000 0.000000 
#    y 0.000000 1.533510 0.000000 
#    z 0.000000 0.000000 2.141800 
# 
# From -- ./inp_files/4195.got.cif
#   From: 2010.05.17/outbox.cif.g08.bks.cpg/sg125_3_cif.got.tgz:4195.got - 2010.05.20 11:54:10.
