data_PCOD9563711
_publ_section_title
;
Structure prediction by ZEFSAII (Michael W. Deem and Ramdas Pophale) SiO2 
 PCOD9563711
Probable space group: P 4/N N C
;
_chemical_formula_sum "Si O2"
_cell_formula_units_Z 52
_cell_length_a 13.957863
_cell_length_b 13.957863
_cell_length_c 11.224149
_cell_angle_alpha 90.000000
_cell_angle_beta 90.000000
_cell_angle_gamma 90.000000
_cell_volume 2186.710478
_symmetry_space_group_name_H-M "P 4/N N C"
_symmetry_group_IT_number 126
_space_group.IT_coordinate_system_code '2'
_symmetry_cell_setting 'tetragonal'
loop_
_space_group_symop_operation_xyz
x,y,z
1/2-y,x,z
1/2-x,1/2-y,z
y,1/2-x,z
x,1/2-y,1/2-z
1/2-x,y,1/2-z
y,x,1/2-z
1/2-y,1/2-x,1/2-z
-x,-y,-z
1/2+y,-x,-z
1/2+x,1/2+y,-z
-y,1/2+x,-z
-x,1/2+y,1/2+z
1/2+x,-y,1/2+z
-y,-x,1/2+z
1/2+y,1/2+x,1/2+z
loop_
_atom_site_type_symbol
_atom_site_label
_atom_site_fract_x
_atom_site_fract_y
_atom_site_fract_z
Si Si1 0.649844 0.144235 0.303394
Si Si2 0.456782 0.456782 0.250000
Si Si3 0.365184 0.365184 0.750000
Si Si4 0.250000 0.750000 0.000000
Si Si5 0.132224 0.360657 0.015980
O O1 0.628347 0.250000 0.250000
O O2 0.750000 0.108926 0.250000
O O3 0.565937 0.074060 0.270273
O O4 0.680039 0.174018 0.435511
O O5 0.406059 0.419676 0.129125
O O6 0.250000 0.379405 0.750000
O O7 0.398130 0.395362 0.616456
O O8 0.119434 0.245998 0.024169
#
# Coordination Sequence:
#
# PCOD9563711 Si02
#       5
#    16   8   8   4  16
#     4   9  20  40  67  99 138 188 239 294 361 433
#     4  12  20  31  62 107 138 168 237 318 363 406
#     4   7  12  24  40  64 120 198 237 251 321 442
#     4   8  18  44  72  90 140 208 242 276 356 450
#     4   9  16  26  46  85 142 193 226 275 360 446
#
# _framework density 23.780010999999998
#
# number of rings (size 3 to 8) (size 9 to 14) (size 15 to 20)
#    0.000    3.231    0.000    4.615    0.000    1.231 
#    0.000    6.154    0.000   52.154    0.000   15.077 
#    0.000   19.692    0.000    4.000    0.000    2.462 
#
# Total GULP energy -290329.222483 kJ/mol
# GULP energy per Si atom -5583.254279 kJ/mol
# Density = 2.372589 g / cm^3
# Si number density = 23.780011 Si / 1000 Ang^3
#
#
#
# Elastic Constant Matrix: (Units=GPa)
#
#
# Indices 1 2 3 4 5 6 
#
# 1 115.6722 145.5944 86.4015 0.0000 0.0000 0.0000
# 2 145.5944 115.6722 86.4015 0.0000 0.0000 0.0000
# 3 86.4015 86.4015 214.4318 0.0000 0.0000 0.0000
# 4 0.0000 0.0000 0.0000 48.6261 0.0000 0.0000
# 5 0.0000 0.0000 0.0000 0.0000 48.6261 0.0000
# 6 0.0000 0.0000 0.0000 0.0000 0.0000 18.9529
#
#
#
# Elastic Compliance Matrix: (Units=1/GPa)
#
#
# Indices 1 2 3 4 5 6 
#
# 1 -0.014101 0.019319 -0.002103 0.000000 0.000000 0.000000
# 2 0.019319 -0.014101 -0.002103 0.000000 0.000000 0.000000
# 3 -0.002103 -0.002103 0.006358 0.000000 0.000000 0.000000
# 4 0.000000 0.000000 0.000000 0.020565 0.000000 0.000000
# 5 0.000000 0.000000 0.000000 0.000000 0.020565 0.000000
# 6 0.000000 0.000000 0.000000 0.000000 0.000000 0.052762
#
#
# Mechanical properties :
#
#
# Convention : Reuss Voigt Hill
#
# Bulk Modulus (GPa) = 119.27589 120.28568 119.78079
# Shear Modulus (GPa) = 112.06883 31.73293 71.90088
#
# Velocity S-wave (km/s) = 6.87238 3.65696 5.50468
# Velocity P-wave (km/s) = 10.64142 8.27790 9.53319
#
# Compressibility (1/GPa) = 0.00838392
#
# Stress axis : x y z
#
# Youngs Moduli (GPa) = -70.91744 -70.91744 157.28536
#
# Poissons Ratio (x) = 1.37006 0.33070
# Poissons Ratio (y) = 1.37006 0.33070
# Poissons Ratio (z) = -0.14911 -0.14911
#
# Static dielectric constant tensor:
#      x y z
#    x 1.818540 0.000000 0.000000 
#    y 0.000000 1.818540 0.000000 
#    z 0.000000 0.000000 1.948910 
# 
# From -- ./inp_files/2444.got.cif
#   From: 2010.05.17/outbox.cif.g08.bks.cpg/sg126_2_cif.got.tgz:2444.got - 2010.05.20 11:58:20.
