data_PCOD9563179
_publ_section_title
;
Structure prediction by ZEFSAII (Michael W. Deem and Ramdas Pophale) SiO2 
 PCOD9563179
Probable space group: P 4/N B M
;
_chemical_formula_sum "Si O2"
_cell_formula_units_Z 88
_cell_length_a 14.368876
_cell_length_b 14.368876
_cell_length_c 23.201086
_cell_angle_alpha 90.000000
_cell_angle_beta 90.000000
_cell_angle_gamma 90.000000
_cell_volume 4790.202883
_symmetry_space_group_name_H-M "P 4/N B M"
_symmetry_group_IT_number 125
_space_group.IT_coordinate_system_code '2'
_symmetry_cell_setting 'tetragonal'
loop_
_space_group_symop_operation_xyz
x,y,z
1/2-y,x,z
1/2-x,1/2-y,z
y,1/2-x,z
x,1/2-y,-z
1/2-x,y,-z
y,x,-z
1/2-y,1/2-x,-z
-x,-y,-z
1/2+y,-x,-z
1/2+x,1/2+y,-z
-y,1/2+x,-z
-x,1/2+y,z
1/2+x,-y,z
-y,-x,z
1/2+y,1/2+x,z
loop_
_atom_site_type_symbol
_atom_site_label
_atom_site_fract_x
_atom_site_fract_y
_atom_site_fract_z
Si Si1 0.640103 0.640103 0.000000
Si Si2 0.903617 0.244798 0.068667
Si Si3 0.388701 0.326648 0.354182
Si Si4 0.960415 0.614629 0.884336
Si Si5 0.845861 0.625871 0.771999
Si Si6 0.148037 0.005652 0.529383
O O1 0.750000 0.626552 0.000000
O O2 0.596872 0.599044 0.057475
O O3 0.855327 0.144674 0.081202
O O4 0.820779 0.320779 0.076005
O O5 0.989386 0.283822 0.106760
O O6 0.926137 0.250000 0.000000
O O7 0.284888 0.370681 0.359427
O O8 0.418683 0.362974 0.290764
O O9 0.461345 0.348203 0.404233
O O10 0.897209 0.593610 0.829085
O O11 0.044089 0.544089 0.882119
O O12 0.874264 0.734544 0.773392
O O13 0.250000 0.000582 0.500000
O O14 0.087333 0.087333 0.500000
O O15 0.089624 0.910377 0.523034
#
# Coordination Sequence:
#
# PCOD9563179 Si02
#       6
#     8  16  16  16  16  16
#     4  11  23  38  54  70  95 133 174 226 296 355
#     4   8  15  29  48  70  98 132 170 219 282 344
#     4   9  17  33  59  84 110 149 198 251 293 332
#     4  11  21  33  52  78 105 134 177 231 283 344
#     4   9  19  36  55  75 105 145 186 227 280 334
#     4  11  22  35  58  94 130 164 202 247 298 353
#
# _framework density 18.370829000000001
#
# number of rings (size 3 to 8) (size 9 to 14) (size 15 to 20)
#    0.000    2.273    1.818    3.545    0.000    2.545 
#    0.000    5.455    0.000    1.091    0.000    0.000 
#    0.000    0.000    0.000    0.000    0.000    0.000 
#
# Total GULP energy -490111.636899 kJ/mol
# GULP energy per Si atom -5569.450419 kJ/mol
# Density = 1.832902 g / cm^3
# Si number density = 18.370829 Si / 1000 Ang^3
#
#
#
# Elastic Constant Matrix: (Units=GPa)
#
#
# Indices 1 2 3 4 5 6 
#
# 1 86.4099 27.4982 55.6553 0.0000 0.0000 0.0000
# 2 27.4982 86.4099 55.6553 0.0000 0.0000 0.0000
# 3 55.6553 55.6553 160.9049 0.0000 0.0000 0.0000
# 4 0.0000 0.0000 0.0000 37.2443 0.0000 0.0000
# 5 0.0000 0.0000 0.0000 0.0000 37.2443 0.0000
# 6 0.0000 0.0000 0.0000 0.0000 0.0000 10.9247
#
#
#
# Elastic Compliance Matrix: (Units=1/GPa)
#
#
# Indices 1 2 3 4 5 6 
#
# 1 0.015118 -0.001857 -0.004587 0.000000 0.000000 0.000000
# 2 -0.001857 0.015118 -0.004587 0.000000 0.000000 0.000000
# 3 -0.004587 -0.004587 0.009388 0.000000 0.000000 0.000000
# 4 0.000000 0.000000 0.000000 0.026850 0.000000 0.000000
# 5 0.000000 0.000000 0.000000 0.000000 0.026850 0.000000
# 6 0.000000 0.000000 0.000000 0.000000 0.000000 0.091536
#
#
# Mechanical properties :
#
#
# Convention : Reuss Voigt Hill
#
# Bulk Modulus (GPa) = 56.93824 67.92694 62.43259
# Shear Modulus (GPa) = 23.49903 30.07705 26.78804
#
# Velocity S-wave (km/s) = 3.58040 4.05064 3.82276
# Velocity P-wave (km/s) = 6.93927 7.67676 7.31731
#
# Compressibility (1/GPa) = 0.01756289
#
# Stress axis : x y z
#
# Youngs Moduli (GPa) = 66.14644 66.14644 106.51867
#
# Poissons Ratio (x) = 0.12281 0.48860
# Poissons Ratio (y) = 0.12281 0.48860
# Poissons Ratio (z) = 0.30341 0.30341
#
# Static dielectric constant tensor:
#      x y z
#    x 1.611930 0.000000 0.000000 
#    y 0.000000 1.611930 0.000000 
#    z 0.000000 0.000000 1.668950 
# 
# From -- ./inp_files/5864.got.cif
#   From: 2010.05.17/outbox.cif.g08.bks.cpg/sg125_3_cif.got.tgz:5864.got - 2010.05.20 11:54:10.
