data_PCOD9563566
_publ_section_title
;
Structure prediction by ZEFSAII (Michael W. Deem and Ramdas Pophale) SiO2 
 PCOD9563566
Probable space group: P 4/N N C
;
_chemical_formula_sum "Si O2"
_cell_formula_units_Z 96
_cell_length_a 13.245255
_cell_length_b 13.245255
_cell_length_c 22.075692
_cell_angle_alpha 90.000000
_cell_angle_beta 90.000000
_cell_angle_gamma 90.000000
_cell_volume 3872.888321
_symmetry_space_group_name_H-M "P 4/N N C"
_symmetry_group_IT_number 126
_space_group.IT_coordinate_system_code '2'
_symmetry_cell_setting 'tetragonal'
loop_
_space_group_symop_operation_xyz
x,y,z
1/2-y,x,z
1/2-x,1/2-y,z
y,1/2-x,z
x,1/2-y,1/2-z
1/2-x,y,1/2-z
y,x,1/2-z
1/2-y,1/2-x,1/2-z
-x,-y,-z
1/2+y,-x,-z
1/2+x,1/2+y,-z
-y,1/2+x,-z
-x,1/2+y,1/2+z
1/2+x,-y,1/2+z
-y,-x,1/2+z
1/2+y,1/2+x,1/2+z
loop_
_atom_site_type_symbol
_atom_site_label
_atom_site_fract_x
_atom_site_fract_y
_atom_site_fract_z
Si Si1 0.954296 0.178747 0.511260
Si Si2 0.794557 0.915404 0.408392
Si Si3 0.648712 0.615118 0.922690
Si Si4 0.992425 0.356068 0.718453
Si Si5 0.004963 0.187921 0.305734
Si Si6 0.140793 0.715690 0.600044
O O1 0.894587 0.135866 0.569248
O O2 0.880975 0.211082 0.456910
O O3 0.005928 0.281111 0.537432
O O4 0.038214 0.114014 0.474835
O O5 0.681484 0.867304 0.409469
O O6 0.827215 0.976313 0.349524
O O7 0.770558 0.615974 0.929887
O O8 0.633497 0.577942 0.854133
O O9 0.970445 0.250000 0.750000
O O10 0.086225 0.413776 0.750000
O O11 0.897185 0.429800 0.719336
O O12 0.051443 0.250000 0.250000
O O13 0.938560 0.263352 0.347412
O O14 0.250000 0.750000 0.623131
#
# Coordination Sequence:
#
# PCOD9563566 Si02
#       6
#    16  16  16  16  16  16
#     4  11  21  40  69 106 135 186 241 292 363 457
#     4  11  24  43  68  96 136 188 234 291 369 447
#     4  10  24  49  75 104 150 196 244 313 375 437
#     4  12  27  47  72 104 145 191 249 312 373 449
#     4  11  29  45  71 107 143 192 258 308 368 449
#     4  11  22  42  67  97 149 191 232 294 377 439
#
# _framework density 24.787700999999998
#
# number of rings (size 3 to 8) (size 9 to 14) (size 15 to 20)
#    0.000    1.000    3.333    2.000    9.333    1.500 
#    3.000    5.000    0.000    0.000    0.000    0.000 
#    0.000    0.000    0.000    0.000    0.000    0.000 
#
# Total GULP energy -537307.938162 kJ/mol
# GULP energy per Si atom -5596.957689 kJ/mol
# Density = 2.473128 g / cm^3
# Si number density = 24.787701 Si / 1000 Ang^3
#
#
#
# Elastic Constant Matrix: (Units=GPa)
#
#
# Indices 1 2 3 4 5 6 
#
# 1 82.2061 0.3716 12.8503 0.0000 0.0000 0.0000
# 2 0.3716 82.2080 12.8511 0.0000 0.0000 0.0000
# 3 12.8503 12.8511 113.4442 0.0000 0.0000 0.0000
# 4 0.0000 0.0000 0.0000 32.3650 0.0000 0.0000
# 5 0.0000 0.0000 0.0000 0.0000 32.3646 0.0000
# 6 0.0000 0.0000 0.0000 0.0000 0.0000 27.7301
#
#
#
# Elastic Compliance Matrix: (Units=1/GPa)
#
#
# Indices 1 2 3 4 5 6 
#
# 1 0.012386 0.000166 -0.001422 0.000000 0.000000 0.000000
# 2 0.000166 0.012386 -0.001422 0.000000 0.000000 0.000000
# 3 -0.001422 -0.001422 0.009137 0.000000 0.000000 0.000000
# 4 0.000000 0.000000 0.000000 0.030898 0.000000 0.000000
# 5 0.000000 0.000000 0.000000 0.000000 0.030898 0.000000
# 6 0.000000 0.000000 0.000000 0.000000 0.000000 0.036062
#
#
# Mechanical properties :
#
#
# Convention : Reuss Voigt Hill
#
# Bulk Modulus (GPa) = 35.02150 36.66718 35.84434
# Shear Modulus (GPa) = 34.09727 35.27762 34.68744
#
# Velocity S-wave (km/s) = 3.71289 3.77661 3.74489
# Velocity P-wave (km/s) = 5.70439 5.81736 5.76115
#
# Compressibility (1/GPa) = 0.02855389
#
# Stress axis : x y z
#
# Youngs Moduli (GPa) = 80.73595 80.73769 109.44463
#
# Poissons Ratio (x) = -0.01342 0.15561
# Poissons Ratio (y) = -0.01342 0.15562
# Poissons Ratio (z) = 0.11480 0.11480
#
# Static dielectric constant tensor:
#      x y z
#    x 2.011530 0.000000 0.000000 
#    y 0.000000 2.011520 0.000000 
#    z 0.000000 0.000000 1.954000 
# 
# From -- ./inp_files/5272.got.cif
#   From: 2010.05.17/outbox.cif.g08.bks.cpg/sg126_3_cif.got.tgz:5272.got - 2010.05.20 11:58:20.
