data_PCOD9563870
_publ_section_title
;
Structure prediction by ZEFSAII (Michael W. Deem and Ramdas Pophale) SiO2 
 PCOD9563870
Probable space group: P 4/M B M
;
_chemical_formula_sum "Si O2"
_cell_formula_units_Z 112
_cell_length_a 15.961155
_cell_length_b 15.961155
_cell_length_c 23.235635
_cell_angle_alpha 90.000000
_cell_angle_beta 90.000000
_cell_angle_gamma 90.000000
_cell_volume 5919.474797
_symmetry_space_group_name_H-M "P 4/M B M"
_symmetry_group_IT_number 127
_symmetry_cell_setting 'tetragonal'
loop_
_space_group_symop_operation_xyz
x,y,z
-y,x,z
-x,-y,z
y,-x,z
1/2+x,1/2-y,-z
1/2-x,1/2+y,-z
1/2+y,1/2+x,-z
1/2-y,1/2-x,-z
-x,-y,-z
y,-x,-z
x,y,-z
-y,x,-z
1/2-x,1/2+y,z
1/2+x,1/2-y,z
1/2-y,1/2-x,z
1/2+y,1/2+x,z
loop_
_atom_site_type_symbol
_atom_site_label
_atom_site_fract_x
_atom_site_fract_y
_atom_site_fract_z
Si Si1 0.688810 0.046977 0.246953
Si Si2 0.952243 0.130728 0.931536
Si Si3 0.420620 0.786627 0.569146
Si Si4 0.081137 0.107166 0.430277
Si Si5 0.906842 0.265058 0.161582
Si Si6 0.710597 0.926077 0.348510
Si Si7 0.681256 0.323089 0.729142
O O1 0.616952 0.116952 0.241677
O O2 0.775209 0.093355 0.266447
O O3 0.701734 0.993572 0.189111
O O4 0.669710 0.979800 0.296584
O O5 0.923879 0.209698 0.894437
O O6 0.048254 0.103775 0.918611
O O7 0.946574 0.145947 0.000000
O O8 0.427983 0.791472 0.500000
O O9 0.361596 0.861596 0.589663
O O10 0.379860 0.696738 0.584581
O O11 0.510830 0.788186 0.598348
O O12 0.084466 0.103673 0.500000
O O13 0.983748 0.111748 0.412123
O O14 0.840969 0.340969 0.153164
O O15 0.867449 0.204188 0.210582
O O16 0.651925 0.848076 0.362974
O O17 0.796419 0.890328 0.320249
O O18 0.749777 0.249777 0.721651
#
# Coordination Sequence:
#
# PCOD9563870 Si02
#       7
#    16  16  16  16  16  16  16
#     4  10  19  33  55  78 102 135 172 216 272 328
#     4   9  18  33  53  77 107 147 196 245 285 318
#     4  10  21  35  51  74 105 139 173 212 262 324
#     4   8  15  31  54  75  95 122 159 204 250 295
#     4  10  19  31  51  80 113 146 178 217 269 332
#     4  10  21  36  53  73  98 131 173 218 264 320
#     4   8  17  33  51  74 101 129 168 217 265 313
#
# _framework density 18.920597000000001
#
# number of rings (size 3 to 8) (size 9 to 14) (size 15 to 20)
#    0.000    2.714    0.000    3.429    0.000    3.714 
#    0.000    2.857    0.000    7.714    0.000    1.000 
#    0.000    0.000    0.000    0.000    0.000    0.000 
#
# Total GULP energy -624440.939107 kJ/mol
# GULP energy per Si atom -5575.365528 kJ/mol
# Density = 1.887753 g / cm^3
# Si number density = 18.920597 Si / 1000 Ang^3
#
#
#
# Elastic Constant Matrix: (Units=GPa)
#
#
# Indices 1 2 3 4 5 6 
#
# 1 84.6565 32.2710 40.9142 0.0000 0.0000 0.0000
# 2 32.2710 84.6565 40.9142 0.0000 0.0000 0.0000
# 3 40.9142 40.9142 67.9510 0.0000 0.0000 0.0000
# 4 0.0000 0.0000 0.0000 30.9080 0.0000 0.0000
# 5 0.0000 0.0000 0.0000 0.0000 30.9080 0.0000
# 6 0.0000 0.0000 0.0000 0.0000 0.0000 22.6975
#
#
#
# Elastic Compliance Matrix: (Units=1/GPa)
#
#
# Indices 1 2 3 4 5 6 
#
# 1 0.016935 -0.002154 -0.008899 0.000000 0.000000 0.000000
# 2 -0.002154 0.016935 -0.008899 0.000000 0.000000 0.000000
# 3 -0.008899 -0.008899 0.025433 0.000000 0.000000 0.000000
# 4 0.000000 0.000000 0.000000 0.032354 0.000000 0.000000
# 5 0.000000 0.000000 0.000000 0.000000 0.032354 0.000000
# 6 0.000000 0.000000 0.000000 0.000000 0.000000 0.044058
#
#
# Mechanical properties :
#
#
# Convention : Reuss Voigt Hill
#
# Bulk Modulus (GPa) = 51.55611 51.71810 51.63711
# Shear Modulus (GPa) = 23.31643 25.11367 24.21505
#
# Velocity S-wave (km/s) = 3.51426 3.64719 3.58134
# Velocity P-wave (km/s) = 6.61624 6.71786 6.66724
#
# Compressibility (1/GPa) = 0.01939634
#
# Stress axis : x y z
#
# Youngs Moduli (GPa) = 59.04999 59.04999 39.31825
#
# Poissons Ratio (x) = 0.12722 0.34991
# Poissons Ratio (y) = 0.12722 0.34991
# Poissons Ratio (z) = 0.52551 0.52551
#
# Static dielectric constant tensor:
#      x y z
#    x 1.667280 0.000000 0.000000 
#    y 0.000000 1.667280 0.000000 
#    z 0.000000 0.000000 1.673620 
# 
# From -- ./inp_files/6171.got.cif
#   From: 2010.05.17/outbox.cif.g08.bks.cpg/sg127_4_cif.got.tgz:6171.got - 2010.05.20 12:03:00.
