data_PCOD9563608
_publ_section_title
;
Structure prediction by ZEFSAII (Michael W. Deem and Ramdas Pophale) SiO2 
 PCOD9563608
Probable space group: P 4/N N C
;
_chemical_formula_sum "Si O2"
_cell_formula_units_Z 112
_cell_length_a 15.291956
_cell_length_b 15.291956
_cell_length_c 24.930205
_cell_angle_alpha 90.000000
_cell_angle_beta 90.000000
_cell_angle_gamma 90.000000
_cell_volume 5829.776821
_symmetry_space_group_name_H-M "P 4/N N C"
_symmetry_group_IT_number 126
_space_group.IT_coordinate_system_code '2'
_symmetry_cell_setting 'tetragonal'
loop_
_space_group_symop_operation_xyz
x,y,z
1/2-y,x,z
1/2-x,1/2-y,z
y,1/2-x,z
x,1/2-y,1/2-z
1/2-x,y,1/2-z
y,x,1/2-z
1/2-y,1/2-x,1/2-z
-x,-y,-z
1/2+y,-x,-z
1/2+x,1/2+y,-z
-y,1/2+x,-z
-x,1/2+y,1/2+z
1/2+x,-y,1/2+z
-y,-x,1/2+z
1/2+y,1/2+x,1/2+z
loop_
_atom_site_type_symbol
_atom_site_label
_atom_site_fract_x
_atom_site_fract_y
_atom_site_fract_z
Si Si1 0.392606 0.244121 0.314024
Si Si2 0.350045 0.358909 0.689918
Si Si3 0.072491 0.407642 0.577495
Si Si4 0.330532 0.586616 0.935274
Si Si5 0.617711 0.128201 0.554772
Si Si6 0.787760 0.039315 0.604155
Si Si7 0.802035 0.615430 0.976712
O O1 0.337617 0.330431 0.329327
O O2 0.401390 0.250000 0.250000
O O3 0.483306 0.232828 0.343578
O O4 0.244985 0.368489 0.685715
O O5 0.382127 0.382127 0.750000
O O6 0.388844 0.410532 0.639816
O O7 0.134722 0.488055 0.562114
O O8 0.095720 0.325812 0.538657
O O9 0.970984 0.426005 0.564926
O O10 0.227424 0.597539 0.927308
O O11 0.386944 0.638435 0.891341
O O12 0.355962 0.629177 0.992381
O O13 0.699355 0.085482 0.584519
O O14 0.819948 0.968825 0.559443
O O15 0.858704 0.701871 0.965247
#
# Coordination Sequence:
#
# PCOD9563608 Si02
#       7
#    16  16  16  16  16  16  16
#     4   9  20  41  69  99 133 172 213 268 337 392
#     4   9  18  35  60  87 118 156 194 241 309 378
#     4  12  23  38  60  90 121 159 212 267 312 376
#     4  12  25  40  62  87 125 173 214 251 313 391
#     4  12  24  42  60  87 128 170 209 255 322 387
#     4  12  24  37  64  90 126 167 214 261 308 390
#     4  11  22  35  56  90 125 155 192 259 331 370
#
# _framework density 19.211713
#
# number of rings (size 3 to 8) (size 9 to 14) (size 15 to 20)
#    0.000    1.000    2.857    6.000    4.000    2.286 
#    0.000    1.429    0.000    3.429    0.000    0.000 
#    0.000    0.000    0.000    0.000    0.000    0.000 
#
# Total GULP energy -625902.007046 kJ/mol
# GULP energy per Si atom -5588.410777 kJ/mol
# Density = 1.916799 g / cm^3
# Si number density = 19.211713 Si / 1000 Ang^3
#
#
#
# Elastic Constant Matrix: (Units=GPa)
#
#
# Indices 1 2 3 4 5 6 
#
# 1 86.9817 30.3301 16.1185 0.0000 0.0000 0.0000
# 2 30.3301 86.9817 16.1185 0.0000 0.0000 0.0000
# 3 16.1185 16.1185 67.9464 0.0000 0.0000 0.0000
# 4 0.0000 0.0000 0.0000 23.6171 0.0000 0.0000
# 5 0.0000 0.0000 0.0000 0.0000 23.6171 0.0000
# 6 0.0000 0.0000 0.0000 0.0000 0.0000 21.9647
#
#
#
# Elastic Compliance Matrix: (Units=1/GPa)
#
#
# Indices 1 2 3 4 5 6 
#
# 1 0.013385 -0.004267 -0.002163 0.000000 0.000000 0.000000
# 2 -0.004267 0.013385 -0.002163 0.000000 0.000000 0.000000
# 3 -0.002163 -0.002163 0.015744 0.000000 0.000000 0.000000
# 4 0.000000 0.000000 0.000000 0.042342 0.000000 0.000000
# 5 0.000000 0.000000 0.000000 0.000000 0.042342 0.000000
# 6 0.000000 0.000000 0.000000 0.000000 0.000000 0.045528
#
#
# Mechanical properties :
#
#
# Convention : Reuss Voigt Hill
#
# Bulk Modulus (GPa) = 39.48119 40.78270 40.13195
# Shear Modulus (GPa) = 25.20736 25.79597 25.50167
#
# Velocity S-wave (km/s) = 3.62620 3.66829 3.64731
# Velocity P-wave (km/s) = 6.17476 6.26226 6.21866
#
# Compressibility (1/GPa) = 0.02532852
#
# Stress axis : x y z
#
# Youngs Moduli (GPa) = 74.70918 74.70918 63.51707
#
# Poissons Ratio (x) = 0.31875 0.13740
# Poissons Ratio (y) = 0.31875 0.13740
# Poissons Ratio (z) = 0.16161 0.16161
#
# Static dielectric constant tensor:
#      x y z
#    x 1.678710 0.000000 0.000000 
#    y 0.000000 1.678710 0.000000 
#    z 0.000000 0.000000 1.668330 
# 
# From -- ./inp_files/5814.got.cif
#   From: 2010.05.17/outbox.cif.g08.bks.cpg/sg126_3_cif.got.tgz:5814.got - 2010.05.20 11:58:20.
