data_PCOD9563525
_publ_section_title
;
Structure prediction by ZEFSAII (Michael W. Deem and Ramdas Pophale) SiO2 
 PCOD9563525
Probable space group: P 4/N N C
;
_chemical_formula_sum "Si O2"
_cell_formula_units_Z 68
_cell_length_a 17.573599
_cell_length_b 17.573599
_cell_length_c 11.792357
_cell_angle_alpha 90.000000
_cell_angle_beta 90.000000
_cell_angle_gamma 90.000000
_cell_volume 3641.849907
_symmetry_space_group_name_H-M "P 4/N N C"
_symmetry_group_IT_number 126
_space_group.IT_coordinate_system_code '2'
_symmetry_cell_setting 'tetragonal'
loop_
_space_group_symop_operation_xyz
x,y,z
1/2-y,x,z
1/2-x,1/2-y,z
y,1/2-x,z
x,1/2-y,1/2-z
1/2-x,y,1/2-z
y,x,1/2-z
1/2-y,1/2-x,1/2-z
-x,-y,-z
1/2+y,-x,-z
1/2+x,1/2+y,-z
-y,1/2+x,-z
-x,1/2+y,1/2+z
1/2+x,-y,1/2+z
-y,-x,1/2+z
1/2+y,1/2+x,1/2+z
loop_
_atom_site_type_symbol
_atom_site_label
_atom_site_fract_x
_atom_site_fract_y
_atom_site_fract_z
Si Si1 0.836284 0.035992 0.507003
Si Si2 0.458643 0.332269 0.250000
Si Si3 0.663715 0.464007 0.992997
Si Si4 0.750000 0.750000 0.058284
Si Si5 0.378098 0.121902 0.613484
O O1 0.750000 0.059292 0.477803
O O2 0.896651 0.103348 0.500000
O O3 0.837125 0.007753 0.636881
O O4 0.858316 0.962592 0.431275
O O5 0.418784 0.250000 0.250000
O O6 0.398098 0.398098 0.250000
O O7 0.507753 0.337126 0.363118
O O8 0.641682 0.537407 0.068725
O O9 0.682877 0.682876 0.065714
O O10 0.374323 0.125678 0.750000
#
# Coordination Sequence:
#
# PCOD9563525 Si02
#       5
#    16  16  16   4  16
#     4  11  25  43  65  92 125 169 215 263 315 375
#     4  10  22  41  61  91 125 161 209 261 315 379
#     4  11  25  43  65  92 125 169 215 263 315 375
#     4  12  25  44  64 105 142 157 204 264 317 390
#     4  12  24  40  68  98 131 166 206 261 321 387
#
# _framework density 18.67183
#
# number of rings (size 3 to 8) (size 9 to 14) (size 15 to 20)
#    0.000    0.941    4.706    1.765    3.294    0.706 
#    0.000    0.000    0.000    4.235    0.000    0.000 
#    0.000    0.000    0.000    0.000    0.000    0.000 
#
# Total GULP energy -378893.555607 kJ/mol
# GULP energy per Si atom -5571.964053 kJ/mol
# Density = 1.862933 g / cm^3
# Si number density = 18.671830 Si / 1000 Ang^3
#
#
#
# Elastic Constant Matrix: (Units=GPa)
#
#
# Indices 1 2 3 4 5 6 
#
# 1 149.0504 121.8767 6.7635 0.0000 0.0000 0.0000
# 2 121.8767 149.0498 6.7629 0.0000 0.0000 0.0000
# 3 6.7635 6.7629 36.4259 0.0000 0.0000 0.0000
# 4 0.0000 0.0000 0.0000 13.2758 0.0000 0.0000
# 5 0.0000 0.0000 0.0000 0.0000 13.2758 0.0000
# 6 0.0000 0.0000 0.0000 0.0000 0.0000 49.1849
#
#
#
# Elastic Compliance Matrix: (Units=1/GPa)
#
#
# Indices 1 2 3 4 5 6 
#
# 1 0.020263 -0.016538 -0.000692 0.000000 0.000000 0.000000
# 2 -0.016538 0.020263 -0.000691 0.000000 0.000000 0.000000
# 3 -0.000692 -0.000691 0.027710 0.000000 0.000000 0.000000
# 4 0.000000 0.000000 0.000000 0.075325 0.000000 0.000000
# 5 0.000000 0.000000 0.000000 0.000000 0.075325 0.000000
# 6 0.000000 0.000000 0.000000 0.000000 0.000000 0.020331
#
#
# Mechanical properties :
#
#
# Convention : Reuss Voigt Hill
#
# Bulk Modulus (GPa) = 30.86986 67.25915 49.06451
# Shear Modulus (GPa) = 17.49122 28.42217 22.95670
#
# Velocity S-wave (km/s) = 3.06399 3.90576 3.51020
# Velocity P-wave (km/s) = 5.39316 7.51265 6.53934
#
# Compressibility (1/GPa) = 0.03239406
#
# Stress axis : x y z
#
# Youngs Moduli (GPa) = 49.35074 49.35060 36.08828
#
# Poissons Ratio (x) = 0.81614 0.02497
# Poissons Ratio (y) = 0.81614 0.02495
# Poissons Ratio (z) = 0.03415 0.03412
#
# Static dielectric constant tensor:
#      x y z
#    x 1.636960 0.000000 0.000000 
#    y 0.000000 1.636960 0.000000 
#    z 0.000000 0.000000 1.641060 
# 
# From -- ./inp_files/2676.got.cif
#   From: 2010.05.17/outbox.cif.g08.bks.cpg/sg126_2_cif.got.tgz:2676.got - 2010.05.20 11:58:20.
