data_PCOD9563745
_publ_section_title
;
Structure prediction by ZEFSAII (Michael W. Deem and Ramdas Pophale) SiO2 
 PCOD9563745
Probable space group: P 4/M B M
;
_chemical_formula_sum "Si O2"
_cell_formula_units_Z 56
_cell_length_a 15.243078
_cell_length_b 15.243078
_cell_length_c 15.055776
_cell_angle_alpha 90.000000
_cell_angle_beta 90.000000
_cell_angle_gamma 90.000000
_cell_volume 3498.231037
_symmetry_space_group_name_H-M "P 4/M B M"
_symmetry_group_IT_number 127
_symmetry_cell_setting 'tetragonal'
loop_
_space_group_symop_operation_xyz
x,y,z
-y,x,z
-x,-y,z
y,-x,z
1/2+x,1/2-y,-z
1/2-x,1/2+y,-z
1/2+y,1/2+x,-z
1/2-y,1/2-x,-z
-x,-y,-z
y,-x,-z
x,y,-z
-y,x,-z
1/2-x,1/2+y,z
1/2+x,1/2-y,z
1/2-y,1/2-x,z
1/2+y,1/2+x,z
loop_
_atom_site_type_symbol
_atom_site_label
_atom_site_fract_x
_atom_site_fract_y
_atom_site_fract_z
Si Si1 0.302982 0.952542 0.714173
Si Si2 0.945499 0.863432 0.397869
Si Si3 0.497102 0.147800 0.098393
Si Si4 0.424659 0.075342 0.602080
O O1 0.374073 0.874073 0.712472
O O2 0.213053 0.923151 0.669763
O O3 0.294038 0.984753 0.815640
O O4 0.344844 0.031385 0.655557
O O5 0.933810 0.833611 0.500000
O O6 0.047426 0.890615 0.386467
O O7 0.573665 0.073665 0.098384
O O8 0.407386 0.092615 0.109677
O O9 0.497108 0.188913 0.000000
O O10 0.402617 0.097384 0.500000
O O11 0.500000 0.000000 0.600014
#
# Coordination Sequence:
#
# PCOD9563745 Si02
#       4
#    16  16  16   8
#     4  10  17  28  47  72  97 121 152 194 241 280
#     4   9  19  36  52  64  87 127 166 194 227 279
#     4   8  13  23  41  66  96 127 155 183 226 285
#     4   9  16  24  37  63  99 127 140 171 234 287
#
# _framework density 16.008091
#
# number of rings (size 3 to 8) (size 9 to 14) (size 15 to 20)
#    0.000    3.000    1.429    2.571    0.000    1.714 
#    2.571    0.000    0.000    1.714    0.000    6.000 
#    0.000    0.000    0.000    0.000    0.000    0.000 
#
# Total GULP energy -311791.447886 kJ/mol
# GULP energy per Si atom -5567.704427 kJ/mol
# Density = 1.597166 g / cm^3
# Si number density = 16.008091 Si / 1000 Ang^3
#
#
#
# Elastic Constant Matrix: (Units=GPa)
#
#
# Indices 1 2 3 4 5 6 
#
# 1 29.1522 -2.4264 30.3037 0.0000 0.0000 0.0000
# 2 -2.4264 29.1522 30.3036 0.0000 0.0000 0.0000
# 3 30.3037 30.3036 139.5523 0.0000 0.0000 0.0000
# 4 0.0000 0.0000 0.0000 14.9267 0.0000 0.0000
# 5 0.0000 0.0000 0.0000 0.0000 14.9266 0.0000
# 6 0.0000 0.0000 0.0000 0.0000 0.0000 1.9145
#
#
#
# Elastic Compliance Matrix: (Units=1/GPa)
#
#
# Indices 1 2 3 4 5 6 
#
# 1 0.052693 0.021026 -0.016008 0.000000 0.000000 0.000000
# 2 0.021026 0.052693 -0.016008 0.000000 0.000000 0.000000
# 3 -0.016008 -0.016008 0.014118 0.000000 0.000000 0.000000
# 4 0.000000 0.000000 0.000000 0.066994 0.000000 0.000000
# 5 0.000000 0.000000 0.000000 0.000000 0.066994 0.000000
# 6 0.000000 0.000000 0.000000 0.000000 0.000000 0.522343
#
#
# Mechanical properties :
#
#
# Convention : Reuss Voigt Hill
#
# Bulk Modulus (GPa) = 10.25388 34.91316 22.58352
# Shear Modulus (GPa) = 6.02175 15.66527 10.84351
#
# Velocity S-wave (km/s) = 1.94161 3.13163 2.60547
# Velocity P-wave (km/s) = 3.38317 5.91043 4.81555
#
# Compressibility (1/GPa) = 0.09752407
#
# Stress axis : x y z
#
# Youngs Moduli (GPa) = 18.97782 18.97787 70.83144
#
# Poissons Ratio (x) = -0.39903 1.13387
# Poissons Ratio (y) = -0.39903 1.13387
# Poissons Ratio (z) = 0.30380 0.30380
#
# Static dielectric constant tensor:
#      x y z
#    x 1.529370 0.000000 0.000000 
#    y 0.000000 1.529370 0.000000 
#    z 0.000000 0.000000 1.558250 
# 
# From -- ./inp_files/4008.got.cif
#   From: 2010.05.17/outbox.cif.g08.bks.cpg/sg127_3_cif.got.tgz:4008.got - 2010.05.20 12:03:00.
