data_PCOD9563123
_publ_section_title
;
Structure prediction by ZEFSAII (Michael W. Deem and Ramdas Pophale) SiO2 
 PCOD9563123
Probable space group: P 4/N B M
;
_chemical_formula_sum "Si O2"
_cell_formula_units_Z 60
_cell_length_a 12.540730
_cell_length_b 12.540730
_cell_length_c 17.879231
_cell_angle_alpha 90.000000
_cell_angle_beta 90.000000
_cell_angle_gamma 90.000000
_cell_volume 2811.865031
_symmetry_space_group_name_H-M "P 4/N B M"
_symmetry_group_IT_number 125
_space_group.IT_coordinate_system_code '2'
_symmetry_cell_setting 'tetragonal'
loop_
_space_group_symop_operation_xyz
x,y,z
1/2-y,x,z
1/2-x,1/2-y,z
y,1/2-x,z
x,1/2-y,-z
1/2-x,y,-z
y,x,-z
1/2-y,1/2-x,-z
-x,-y,-z
1/2+y,-x,-z
1/2+x,1/2+y,-z
-y,1/2+x,-z
-x,1/2+y,z
1/2+x,-y,z
-y,-x,z
1/2+y,1/2+x,z
loop_
_atom_site_type_symbol
_atom_site_label
_atom_site_fract_x
_atom_site_fract_y
_atom_site_fract_z
Si Si1 0.250000 0.917329 0.500000
Si Si2 0.137442 0.464782 0.635864
Si Si3 0.929829 0.757256 0.916933
Si Si4 0.076934 0.754259 0.773523
Si Si5 0.250000 0.250000 0.367452
O O1 0.338262 0.838262 0.464335
O O2 0.309612 0.986378 0.561402
O O3 0.201590 0.508043 0.707921
O O4 0.151434 0.337991 0.632554
O O5 0.019572 0.519572 0.639784
O O6 0.848006 0.856134 0.911706
O O7 0.008873 0.766809 0.848360
O O8 0.979464 0.750000 0.000000
O O9 0.135710 0.864291 0.752410
O O10 0.169110 0.669110 0.789370
#
# Coordination Sequence:
#
# PCOD9563123 Si02
#       5
#     8  16  16  16   4
#     4   9  18  39  70  98 138 189 228 277 344 400
#     4  10  24  43  65  98 133 174 228 278 329 397
#     4   9  20  38  60  86 119 160 208 261 321 396
#     4  10  22  39  60  89 126 164 209 269 331 393
#     4  12  28  45  72 100 133 184 226 280 345 396
#
# _framework density 21.338149000000001
#
# number of rings (size 3 to 8) (size 9 to 14) (size 15 to 20)
#    0.000    2.267    0.000    1.600    3.733    9.067 
#    0.000    6.667    0.000    0.000    0.000    0.000 
#    0.000    0.000    0.000    0.000    0.000    0.000 
#
# Total GULP energy -334162.476215 kJ/mol
# GULP energy per Si atom -5569.374604 kJ/mol
# Density = 2.128958 g / cm^3
# Si number density = 21.338149 Si / 1000 Ang^3
#
#
#
# Elastic Constant Matrix: (Units=GPa)
#
#
# Indices 1 2 3 4 5 6 
#
# 1 102.8462 23.8962 20.3446 0.0000 0.0000 0.0000
# 2 23.8962 102.8462 20.3446 0.0000 0.0000 0.0000
# 3 20.3446 20.3446 72.9614 0.0000 0.0000 0.0000
# 4 0.0000 0.0000 0.0000 24.4369 0.0000 0.0000
# 5 0.0000 0.0000 0.0000 0.0000 24.4369 0.0000
# 6 0.0000 0.0000 0.0000 0.0000 0.0000 26.2309
#
#
#
# Elastic Compliance Matrix: (Units=1/GPa)
#
#
# Indices 1 2 3 4 5 6 
#
# 1 0.010666 -0.002000 -0.002416 0.000000 0.000000 0.000000
# 2 -0.002000 0.010666 -0.002416 0.000000 0.000000 0.000000
# 3 -0.002416 -0.002416 0.015053 0.000000 0.000000 0.000000
# 4 0.000000 0.000000 0.000000 0.040922 0.000000 0.000000
# 5 0.000000 0.000000 0.000000 0.000000 0.040922 0.000000
# 6 0.000000 0.000000 0.000000 0.000000 0.000000 0.038123
#
#
# Mechanical properties :
#
#
# Convention : Reuss Voigt Hill
#
# Bulk Modulus (GPa) = 44.01507 45.31386 44.66447
# Shear Modulus (GPa) = 28.15455 29.29214 28.72334
#
# Velocity S-wave (km/s) = 3.63636 3.70910 3.67291
# Velocity P-wave (km/s) = 6.18894 6.29487 6.24213
#
# Compressibility (1/GPa) = 0.02271949
#
# Stress axis : x y z
#
# Youngs Moduli (GPa) = 93.75577 93.75577 66.42997
#
# Poissons Ratio (x) = 0.18753 0.16052
# Poissons Ratio (y) = 0.18753 0.16052
# Poissons Ratio (z) = 0.22655 0.22655
#
# Static dielectric constant tensor:
#      x y z
#    x 1.781110 0.000000 0.000000 
#    y 0.000000 1.781110 0.000000 
#    z 0.000000 0.000000 1.740560 
# 
# From -- ./inp_files/5753.got.cif
#   From: 2010.05.17/outbox.cif.g08.bks.cpg/sg125_3_cif.got.tgz:5753.got - 2010.05.20 11:54:10.
