data_PCOD9563516
_publ_section_title
;
Structure prediction by ZEFSAII (Michael W. Deem and Ramdas Pophale) SiO2 
 PCOD9563516
Probable space group: P 4/N N C
;
_chemical_formula_sum "Si O2"
_cell_formula_units_Z 96
_cell_length_a 22.880051
_cell_length_b 22.880051
_cell_length_c 8.872145
_cell_angle_alpha 90.000000
_cell_angle_beta 90.000000
_cell_angle_gamma 90.000000
_cell_volume 4644.538929
_symmetry_space_group_name_H-M "P 4/N N C"
_symmetry_group_IT_number 126
_space_group.IT_coordinate_system_code '2'
_symmetry_cell_setting 'tetragonal'
loop_
_space_group_symop_operation_xyz
x,y,z
1/2-y,x,z
1/2-x,1/2-y,z
y,1/2-x,z
x,1/2-y,1/2-z
1/2-x,y,1/2-z
y,x,1/2-z
1/2-y,1/2-x,1/2-z
-x,-y,-z
1/2+y,-x,-z
1/2+x,1/2+y,-z
-y,1/2+x,-z
-x,1/2+y,1/2+z
1/2+x,-y,1/2+z
-y,-x,1/2+z
1/2+y,1/2+x,1/2+z
loop_
_atom_site_type_symbol
_atom_site_label
_atom_site_fract_x
_atom_site_fract_y
_atom_site_fract_z
Si Si1 0.385920 0.550372 0.122390
Si Si2 0.181957 0.320572 0.409955
Si Si3 0.592872 0.693152 0.356648
Si Si4 0.503801 0.236844 0.075744
Si Si5 0.430866 0.047634 0.601651
Si Si6 0.632059 0.025717 0.975953
O O1 0.318077 0.547834 0.068141
O O2 0.382925 0.538877 0.300819
O O3 0.418947 0.500623 0.024644
O O4 0.422330 0.607426 0.079602
O O5 0.171669 0.251847 0.408271
O O6 0.156489 0.343512 0.250000
O O7 0.166326 0.348224 0.569712
O O8 0.598872 0.750000 0.250000
O O9 0.555405 0.716642 0.497509
O O10 0.558617 0.633177 0.320881
O O11 0.492390 0.250000 0.250000
O O12 0.522086 0.298299 0.005070
O O13 0.468798 0.031203 0.750000
O O14 0.465209 0.099856 0.518863
#
# Coordination Sequence:
#
# PCOD9563516 Si02
#       6
#    16  16  16  16  16  16
#     4  10  22  40  61  93 121 159 200 250 302 366
#     4   9  21  37  52  71  98 147 202 245 297 352
#     4  11  24  36  57  84 118 150 203 261 310 349
#     4   9  22  40  60  87 118 157 200 237 302 378
#     4  11  23  37  56  85 121 159 199 247 306 363
#     4  11  21  39  65  88 121 160 201 249 303 366
#
# _framework density 20.669436000000001
#
# number of rings (size 3 to 8) (size 9 to 14) (size 15 to 20)
#    0.000    1.833    0.000    3.500    7.000    4.000 
#    0.000    0.833    0.000    0.500    0.000    3.500 
#    0.000    0.000    0.000    0.000    0.000    0.000 
#
# Total GULP energy -535379.185699 kJ/mol
# GULP energy per Si atom -5576.866518 kJ/mol
# Density = 2.062239 g / cm^3
# Si number density = 20.669436 Si / 1000 Ang^3
#
#
#
# Elastic Constant Matrix: (Units=GPa)
#
#
# Indices 1 2 3 4 5 6 
#
# 1 89.3745 45.8048 16.3019 0.0000 0.0000 0.0000
# 2 45.8048 89.3737 16.3018 0.0000 0.0000 0.0000
# 3 16.3019 16.3018 49.0556 0.0000 0.0000 0.0000
# 4 0.0000 0.0000 0.0000 33.0576 0.0000 0.0000
# 5 0.0000 0.0000 0.0000 0.0000 33.0575 0.0000
# 6 0.0000 0.0000 0.0000 0.0000 0.0000 10.7413
#
#
#
# Elastic Compliance Matrix: (Units=1/GPa)
#
#
# Indices 1 2 3 4 5 6 
#
# 1 0.015497 -0.007455 -0.002673 0.000000 0.000000 0.000000
# 2 -0.007455 0.015497 -0.002673 0.000000 0.000000 0.000000
# 3 -0.002673 -0.002673 0.022161 0.000000 0.000000 0.000000
# 4 0.000000 0.000000 0.000000 0.030250 0.000000 0.000000
# 5 0.000000 0.000000 0.000000 0.000000 0.030250 0.000000
# 6 0.000000 0.000000 0.000000 0.000000 0.000000 0.093098
#
#
# Mechanical properties :
#
#
# Convention : Reuss Voigt Hill
#
# Bulk Modulus (GPa) = 36.29037 42.73564 39.51300
# Shear Modulus (GPa) = 20.70056 25.33098 23.01577
#
# Velocity S-wave (km/s) = 3.16809 3.50455 3.34056
# Velocity P-wave (km/s) = 5.56579 6.09069 5.83415
#
# Compressibility (1/GPa) = 0.02755552
#
# Stress axis : x y z
#
# Youngs Moduli (GPa) = 64.52866 64.52812 45.12377
#
# Poissons Ratio (x) = 0.48105 0.12059
# Poissons Ratio (y) = 0.48105 0.12060
# Poissons Ratio (z) = 0.17245 0.17245
#
# Static dielectric constant tensor:
#      x y z
#    x 1.788120 0.000000 0.000000 
#    y 0.000000 1.788120 0.000000 
#    z 0.000000 0.000000 1.883140 
# 
# From -- ./inp_files/1720.got.cif
#   From: 2010.05.17/outbox.cif.g08.bks.cpg/sg126_1_cif.got.tgz:1720.got - 2010.05.20 11:58:20.
