data_PCOD9563276
_publ_section_title
;
Structure prediction by ZEFSAII (Michael W. Deem and Ramdas Pophale) SiO2 
 PCOD9563276
Probable space group: P 4/N N C
;
_chemical_formula_sum "Si O2"
_cell_formula_units_Z 96
_cell_length_a 28.672627
_cell_length_b 28.672627
_cell_length_c 5.484310
_cell_angle_alpha 90.000000
_cell_angle_beta 90.000000
_cell_angle_gamma 90.000000
_cell_volume 4508.758409
_symmetry_space_group_name_H-M "P 4/N N C"
_symmetry_group_IT_number 126
_space_group.IT_coordinate_system_code '2'
_symmetry_cell_setting 'tetragonal'
loop_
_space_group_symop_operation_xyz
x,y,z
1/2-y,x,z
1/2-x,1/2-y,z
y,1/2-x,z
x,1/2-y,1/2-z
1/2-x,y,1/2-z
y,x,1/2-z
1/2-y,1/2-x,1/2-z
-x,-y,-z
1/2+y,-x,-z
1/2+x,1/2+y,-z
-y,1/2+x,-z
-x,1/2+y,1/2+z
1/2+x,-y,1/2+z
-y,-x,1/2+z
1/2+y,1/2+x,1/2+z
loop_
_atom_site_type_symbol
_atom_site_label
_atom_site_fract_x
_atom_site_fract_y
_atom_site_fract_z
Si Si1 0.863328 0.963946 0.807618
Si Si2 0.444014 0.522847 0.113411
Si Si3 0.694622 0.805379 0.250000
Si Si4 0.505775 0.331197 0.819802
Si Si5 0.052450 0.250000 0.750000
Si Si6 0.394782 0.625134 0.137174
Si Si7 0.879572 0.799973 0.614698
O O1 0.915009 0.975096 0.903481
O O2 0.863847 0.985577 0.535384
O O3 0.839143 0.913661 0.774600
O O4 0.836706 0.989886 0.035920
O O5 0.469009 0.527372 0.370229
O O6 0.409952 0.569615 0.119216
O O7 0.687386 0.750000 0.250000
O O8 0.678996 0.832760 0.491846
O O9 0.482922 0.282072 0.902539
O O10 0.560072 0.342242 0.831912
O O11 0.088192 0.216743 0.611215
O O12 0.364780 0.628762 0.380093
O O13 0.871720 0.750000 0.750000
#
# Coordination Sequence:
#
# PCOD9563276 Si02
#       7
#    16  16   8  16   8  16  16
#     4  11  19  30  52  81 115 150 185 234 280 339
#     4  10  15  25  42  74 113 150 193 229 261 316
#     4  11  26  50  72  92 112 136 184 238 314 390
#     4  11  18  29  47  74 114 153 189 233 280 337
#     4  10  22  36  53  84 120 148 188 231 298 364
#     4  10  15  24  40  68 106 147 196 235 263 320
#     4  11  23  42  66  90 117 147 183 245 306 380
#
# _framework density 21.291891
#
# number of rings (size 3 to 8) (size 9 to 14) (size 15 to 20)
#    0.000    1.417    9.167    0.000    0.000    0.667 
#    0.000    0.833    0.000    0.000    0.000    1.167 
#    0.000    0.000    0.000    0.000    0.000    2.500 
#
# Total GULP energy -534493.077932 kJ/mol
# GULP energy per Si atom -5567.636228 kJ/mol
# Density = 2.124343 g / cm^3
# Si number density = 21.291891 Si / 1000 Ang^3
#
#
#
# Elastic Constant Matrix: (Units=GPa)
#
#
# Indices 1 2 3 4 5 6 
#
# 1 46.8492 51.2585 9.9260 0.0000 0.0000 0.0000
# 2 51.2585 46.8486 9.9258 0.0000 0.0000 0.0000
# 3 9.9260 9.9258 112.3080 0.0000 0.0000 0.0000
# 4 0.0000 0.0000 0.0000 21.9093 0.0000 0.0000
# 5 0.0000 0.0000 0.0000 0.0000 21.9095 0.0000
# 6 0.0000 0.0000 0.0000 0.0000 0.0000 41.5129
#
#
#
# Elastic Compliance Matrix: (Units=1/GPa)
#
#
# Indices 1 2 3 4 5 6 
#
# 1 -0.108199 0.118578 -0.000917 0.000000 0.000000 0.000000
# 2 0.118578 -0.108200 -0.000917 0.000000 0.000000 0.000000
# 3 -0.000917 -0.000917 0.009066 0.000000 0.000000 0.000000
# 4 0.000000 0.000000 0.000000 0.045643 0.000000 0.000000
# 5 0.000000 0.000000 0.000000 0.000000 0.045642 0.000000
# 6 0.000000 0.000000 0.000000 0.000000 0.000000 0.024089
#
#
# Mechanical properties :
#
#
# Convention : Reuss Voigt Hill
#
# Bulk Modulus (GPa) = 38.23477 38.69182 38.46330
# Shear Modulus (GPa) = -15.78645 26.05935 5.13645
#
# Velocity S-wave (km/s) = -2.72588 3.50224 1.55487
# Velocity P-wave (km/s) = 2.84416 5.87927 4.61817
#
# Compressibility (1/GPa) = 0.02615420
#
# Stress axis : x y z
#
# Youngs Moduli (GPa) = -9.24226 -9.24213 110.29954
#
# Poissons Ratio (x) = 1.09591 0.10116
# Poissons Ratio (y) = 1.09593 0.10119
# Poissons Ratio (z) = -0.00848 -0.00848
#
# Static dielectric constant tensor:
#      x y z
#    x 1.816150 0.000000 0.000000 
#    y 0.000000 1.816160 0.000000 
#    z 0.000000 0.000000 1.925100 
# 
# From -- ./inp_files/685.got.cif
#   From: 2010.05.17/outbox.cif.g08.bks.cpg/sg126_1_cif.got.tgz:685.got - 2010.05.20 11:58:20.
