data_PCOD9563196
_publ_section_title
;
Structure prediction by ZEFSAII (Michael W. Deem and Ramdas Pophale) SiO2 
 PCOD9563196
Probable space group: P 4/N B M
;
_chemical_formula_sum "Si O2"
_cell_formula_units_Z 112
_cell_length_a 14.445126
_cell_length_b 14.445126
_cell_length_c 27.839580
_cell_angle_alpha 90.000000
_cell_angle_beta 90.000000
_cell_angle_gamma 90.000000
_cell_volume 5809.053120
_symmetry_space_group_name_H-M "P 4/N B M"
_symmetry_group_IT_number 125
_space_group.IT_coordinate_system_code '2'
_symmetry_cell_setting 'tetragonal'
loop_
_space_group_symop_operation_xyz
x,y,z
1/2-y,x,z
1/2-x,1/2-y,z
y,1/2-x,z
x,1/2-y,-z
1/2-x,y,-z
y,x,-z
1/2-y,1/2-x,-z
-x,-y,-z
1/2+y,-x,-z
1/2+x,1/2+y,-z
-y,1/2+x,-z
-x,1/2+y,z
1/2+x,-y,z
-y,-x,z
1/2+y,1/2+x,z
loop_
_atom_site_type_symbol
_atom_site_label
_atom_site_fract_x
_atom_site_fract_y
_atom_site_fract_z
Si Si1 0.636023 0.649572 0.586079
Si Si2 0.372230 0.347597 0.226940
Si Si3 0.598412 0.255677 0.354984
Si Si4 0.175955 0.969403 0.540299
Si Si5 0.326162 0.112724 0.119278
Si Si6 0.610157 0.958056 0.319288
Si Si7 0.494618 0.147780 0.976156
O O1 0.741387 0.626733 0.576677
O O2 0.556074 0.609852 0.553033
O O3 0.617907 0.620911 0.640628
O O4 0.263351 0.373665 0.231694
O O5 0.411617 0.359074 0.173202
O O6 0.413383 0.409468 0.269042
O O7 0.651489 0.348512 0.336519
O O8 0.677756 0.177756 0.359898
O O9 0.560224 0.280246 0.407923
O O10 0.518654 0.205547 0.323322
O O11 0.250000 0.991016 0.500000
O O12 0.116700 0.883301 0.522815
O O13 0.370124 0.215509 0.113599
O O14 0.349174 0.037167 0.079386
O O15 0.528988 0.028988 0.332384
O O16 0.588882 0.088882 0.982244
O O17 0.499696 0.250000 0.000000
O O18 0.412047 0.087954 0.000000
#
# Coordination Sequence:
#
# PCOD9563196 Si02
#       7
#    16  16  16  16  16  16  16
#     4  11  23  41  60  81 114 152 183 223 282 344
#     4   9  19  35  56  84 119 157 195 245 311 365
#     4   9  19  37  59  83 113 147 187 238 290 342
#     4  11  23  41  64  89 112 141 183 231 283 342
#     4   9  17  33  58  85 118 159 208 266 318 367
#     4  11  21  36  59  88 116 151 199 244 293 354
#     4  11  22  35  58  92 127 171 220 269 325 383
#
# _framework density 19.280251
#
# number of rings (size 3 to 8) (size 9 to 14) (size 15 to 20)
#    0.000    1.857    2.857    2.571    0.000    3.286 
#    0.000    1.429    0.000    0.857    0.000    0.000 
#    0.000    0.000    0.000    0.000    0.000    0.000 
#
# Total GULP energy -624232.517987 kJ/mol
# GULP energy per Si atom -5573.504625 kJ/mol
# Density = 1.923637 g / cm^3
# Si number density = 19.280251 Si / 1000 Ang^3
#
#
#
# Elastic Constant Matrix: (Units=GPa)
#
#
# Indices 1 2 3 4 5 6 
#
# 1 83.4261 31.3308 38.9915 0.0000 0.0000 0.0000
# 2 31.3308 83.4260 38.9912 0.0000 0.0000 0.0000
# 3 38.9915 38.9912 95.2093 0.0000 0.0000 0.0000
# 4 0.0000 0.0000 0.0000 21.7174 0.0000 0.0000
# 5 0.0000 0.0000 0.0000 0.0000 21.7178 0.0000
# 6 0.0000 0.0000 0.0000 0.0000 0.0000 16.7730
#
#
#
# Elastic Compliance Matrix: (Units=1/GPa)
#
#
# Indices 1 2 3 4 5 6 
#
# 1 0.015635 -0.003561 -0.004945 0.000000 0.000000 0.000000
# 2 -0.003561 0.015635 -0.004945 0.000000 0.000000 0.000000
# 3 -0.004945 -0.004945 0.014553 0.000000 0.000000 0.000000
# 4 0.000000 0.000000 0.000000 0.046046 0.000000 0.000000
# 5 0.000000 0.000000 0.000000 0.000000 0.046045 0.000000
# 6 0.000000 0.000000 0.000000 0.000000 0.000000 0.059620
#
#
# Mechanical properties :
#
#
# Convention : Reuss Voigt Hill
#
# Bulk Modulus (GPa) = 52.84676 53.40981 53.12828
# Shear Modulus (GPa) = 21.66917 22.22481 21.94699
#
# Velocity S-wave (km/s) = 3.35611 3.39886 3.37755
# Velocity P-wave (km/s) = 6.51822 6.57001 6.54417
#
# Compressibility (1/GPa) = 0.01892264
#
# Stress axis : x y z
#
# Youngs Moduli (GPa) = 63.95913 63.95921 68.71282
#
# Poissons Ratio (x) = 0.22774 0.33978
# Poissons Ratio (y) = 0.22774 0.33977
# Poissons Ratio (z) = 0.31627 0.31627
#
# Static dielectric constant tensor:
#      x y z
#    x 1.700590 0.000000 0.000000 
#    y 0.000000 1.700590 0.000000 
#    z 0.000000 0.000000 1.688510 
# 
# From -- ./inp_files/6228.got.cif
#   From: 2010.05.17/outbox.cif.g08.bks.cpg/sg125_4_cif.got.tgz:6228.got - 2010.05.20 11:54:10.
