data_PCOD9563794
_publ_section_title
;
Structure prediction by ZEFSAII (Michael W. Deem and Ramdas Pophale) SiO2 
 PCOD9563794
Probable space group: P 4/M B M
;
_chemical_formula_sum "Si O2"
_cell_formula_units_Z 96
_cell_length_a 17.544414
_cell_length_b 17.544414
_cell_length_c 19.044310
_cell_angle_alpha 90.000000
_cell_angle_beta 90.000000
_cell_angle_gamma 90.000000
_cell_volume 5861.961694
_symmetry_space_group_name_H-M "P 4/M B M"
_symmetry_group_IT_number 127
_symmetry_cell_setting 'tetragonal'
loop_
_space_group_symop_operation_xyz
x,y,z
-y,x,z
-x,-y,z
y,-x,z
1/2+x,1/2-y,-z
1/2-x,1/2+y,-z
1/2+y,1/2+x,-z
1/2-y,1/2-x,-z
-x,-y,-z
y,-x,-z
x,y,-z
-y,x,-z
1/2-x,1/2+y,z
1/2+x,1/2-y,z
1/2-y,1/2-x,z
1/2+y,1/2+x,z
loop_
_atom_site_type_symbol
_atom_site_label
_atom_site_fract_x
_atom_site_fract_y
_atom_site_fract_z
Si Si1 0.405891 0.782435 0.336111
Si Si2 0.433564 0.810037 0.828806
Si Si3 0.735045 0.894906 0.180698
Si Si4 0.438283 0.185144 0.416633
Si Si5 0.289119 0.661452 0.326236
Si Si6 0.831099 0.799242 0.079763
O O1 0.343024 0.843024 0.362009
O O2 0.416352 0.794613 0.252960
O O3 0.483239 0.801501 0.376259
O O4 0.371026 0.697581 0.342465
O O5 0.389116 0.889116 0.846898
O O6 0.524250 0.803715 0.834809
O O7 0.395751 0.743704 0.875691
O O8 0.668538 0.831463 0.182284
O O9 0.777867 0.889544 0.256297
O O10 0.796066 0.870069 0.122013
O O11 0.448869 0.184850 0.500000
O O12 0.392844 0.107157 0.396632
O O13 0.383106 0.252940 0.391158
O O14 0.234758 0.734758 0.312122
O O15 0.762610 0.737391 0.076911
O O16 0.853954 0.816859 0.000000
#
# Coordination Sequence:
#
# PCOD9563794 Si02
#       6
#    16  16  16  16  16  16
#     4  10  19  32  53  77 103 138 179 218 260 310
#     4  10  19  31  51  81 110 136 173 220 265 313
#     4  10  18  31  53  78 106 140 176 214 261 317
#     4  10  21  35  51  76 109 140 171 217 276 325
#     4   9  17  32  52  74 100 134 179 223 254 301
#     4   9  18  33  52  75 104 138 176 217 261 312
#
# _framework density 16.37677
#
# number of rings (size 3 to 8) (size 9 to 14) (size 15 to 20)
#    0.000    2.333    3.333    0.000    0.000    2.333 
#    0.000    4.167    0.000    1.000    0.000    7.000 
#    0.000    0.000    0.000    0.000    0.000    0.000 
#
# Total GULP energy -534453.453686 kJ/mol
# GULP energy per Si atom -5567.223476 kJ/mol
# Density = 1.633950 g / cm^3
# Si number density = 16.376770 Si / 1000 Ang^3
#
#
#
# Elastic Constant Matrix: (Units=GPa)
#
#
# Indices 1 2 3 4 5 6 
#
# 1 60.4394 72.9596 36.1987 0.0000 0.0000 0.0000
# 2 72.9596 60.4394 36.1987 0.0000 0.0000 0.0000
# 3 36.1987 36.1987 74.5016 0.0000 0.0000 0.0000
# 4 0.0000 0.0000 0.0000 21.6414 0.0000 0.0000
# 5 0.0000 0.0000 0.0000 0.0000 21.6414 0.0000
# 6 0.0000 0.0000 0.0000 0.0000 0.0000 16.9771
#
#
#
# Elastic Compliance Matrix: (Units=1/GPa)
#
#
# Indices 1 2 3 4 5 6 
#
# 1 -0.034845 0.045026 -0.004947 0.000000 0.000000 0.000000
# 2 0.045026 -0.034845 -0.004947 0.000000 0.000000 0.000000
# 3 -0.004947 -0.004947 0.018230 0.000000 0.000000 0.000000
# 4 0.000000 0.000000 0.000000 0.046208 0.000000 0.000000
# 5 0.000000 0.000000 0.000000 0.000000 0.046208 0.000000
# 6 0.000000 0.000000 0.000000 0.000000 0.000000 0.058903
#
#
# Mechanical properties :
#
#
# Convention : Reuss Voigt Hill
#
# Bulk Modulus (GPa) = 53.17842 54.01047 53.59444
# Shear Modulus (GPa) = 139.42727 15.38689 77.40708
#
# Velocity S-wave (km/s) = 9.23699 3.06854 6.88251
# Velocity P-wave (km/s) = 12.09566 6.75323 9.79569
#
# Compressibility (1/GPa) = 0.01880462
#
# Stress axis : x y z
#
# Youngs Moduli (GPa) = -28.69857 -28.69857 54.85609
#
# Poissons Ratio (x) = 1.29218 0.27136
# Poissons Ratio (y) = 1.29218 0.27136
# Poissons Ratio (z) = -0.14196 -0.14196
#
# Static dielectric constant tensor:
#      x y z
#    x 1.556040 0.000000 0.000000 
#    y 0.000000 1.556040 0.000000 
#    z 0.000000 0.000000 1.556620 
# 
# From -- ./inp_files/5124.got.cif
#   From: 2010.05.17/outbox.cif.g08.bks.cpg/sg127_3_cif.got.tgz:5124.got - 2010.05.20 12:03:00.
