data_PCOD9563131
_publ_section_title
;
Structure prediction by ZEFSAII (Michael W. Deem and Ramdas Pophale) SiO2 
 PCOD9563131
Probable space group: P 4/N B M
;
_chemical_formula_sum "Si O2"
_cell_formula_units_Z 96
_cell_length_a 14.885986
_cell_length_b 14.885986
_cell_length_c 21.084002
_cell_angle_alpha 90.000000
_cell_angle_beta 90.000000
_cell_angle_gamma 90.000000
_cell_volume 4672.058383
_symmetry_space_group_name_H-M "P 4/N B M"
_symmetry_group_IT_number 125
_space_group.IT_coordinate_system_code '2'
_symmetry_cell_setting 'tetragonal'
loop_
_space_group_symop_operation_xyz
x,y,z
1/2-y,x,z
1/2-x,1/2-y,z
y,1/2-x,z
x,1/2-y,-z
1/2-x,y,-z
y,x,-z
1/2-y,1/2-x,-z
-x,-y,-z
1/2+y,-x,-z
1/2+x,1/2+y,-z
-y,1/2+x,-z
-x,1/2+y,z
1/2+x,-y,z
-y,-x,z
1/2+y,1/2+x,z
loop_
_atom_site_type_symbol
_atom_site_label
_atom_site_fract_x
_atom_site_fract_y
_atom_site_fract_z
Si Si1 0.137072 0.351459 0.725873
Si Si2 0.910324 0.556623 0.594300
Si Si3 0.598408 0.758257 0.072557
Si Si4 0.894729 0.243840 0.703260
Si Si5 0.227595 0.518201 0.564725
Si Si6 0.492634 0.657640 0.818493
O O1 0.129989 0.242923 0.723186
O O2 0.088453 0.397955 0.666769
O O3 0.084895 0.381916 0.788662
O O4 0.809627 0.552559 0.567824
O O5 0.961077 0.461077 0.591210
O O6 0.972433 0.630675 0.561553
O O7 0.659423 0.669356 0.080656
O O8 0.520803 0.780041 0.122698
O O9 0.565617 0.750000 0.000000
O O10 0.850504 0.149496 0.721878
O O11 0.816851 0.316851 0.695496
O O12 0.935532 0.233058 0.633205
O O13 0.953672 0.283591 0.760020
O O14 0.250000 0.571747 0.500000
O O15 0.419834 0.580167 0.833385
#
# Coordination Sequence:
#
# PCOD9563131 Si02
#       6
#    16  16  16  16  16  16
#     4  11  21  37  63  92 121 159 208 258 314 381
#     4  12  24  42  63  88 121 157 203 263 327 388
#     4   9  19  39  66  94 126 165 207 251 304 366
#     4  10  22  41  62  84 117 163 214 264 311 373
#     4  12  26  42  62  88 119 159 207 264 334 400
#     4  11  21  37  61  93 130 164 203 254 314 374
#
# _framework density 20.547688999999998
#
# number of rings (size 3 to 8) (size 9 to 14) (size 15 to 20)
#    0.000    1.167    3.333    3.500    0.000    5.000 
#    0.000    9.167    0.000    0.000    0.000    0.000 
#    0.000    0.000    0.000    0.000    0.000    0.000 
#
# Total GULP energy -535911.771094 kJ/mol
# GULP energy per Si atom -5582.414282 kJ/mol
# Density = 2.050092 g / cm^3
# Si number density = 20.547689 Si / 1000 Ang^3
#
#
#
# Elastic Constant Matrix: (Units=GPa)
#
#
# Indices 1 2 3 4 5 6 
#
# 1 67.1411 24.4468 28.1588 0.0000 0.0000 0.0000
# 2 24.4468 67.1411 28.1588 0.0000 0.0000 0.0000
# 3 28.1588 28.1588 130.3880 0.0000 0.0000 0.0000
# 4 0.0000 0.0000 0.0000 12.6824 0.0000 0.0000
# 5 0.0000 0.0000 0.0000 0.0000 12.6824 0.0000
# 6 0.0000 0.0000 0.0000 0.0000 0.0000 16.1398
#
#
#
# Elastic Compliance Matrix: (Units=1/GPa)
#
#
# Indices 1 2 3 4 5 6 
#
# 1 0.018006 -0.005416 -0.002719 0.000000 0.000000 0.000000
# 2 -0.005416 0.018006 -0.002719 0.000000 0.000000 0.000000
# 3 -0.002719 -0.002719 0.008844 0.000000 0.000000 0.000000
# 4 0.000000 0.000000 0.000000 0.078849 0.000000 0.000000
# 5 0.000000 0.000000 0.000000 0.000000 0.078849 0.000000
# 6 0.000000 0.000000 0.000000 0.000000 0.000000 0.061958
#
#
# Mechanical properties :
#
#
# Convention : Reuss Voigt Hill
#
# Bulk Modulus (GPa) = 43.19934 47.35542 45.27738
# Shear Modulus (GPa) = 17.01040 20.56133 18.78586
#
# Velocity S-wave (km/s) = 2.88036 3.16676 3.02695
# Velocity P-wave (km/s) = 5.66847 6.03886 5.85659
#
# Compressibility (1/GPa) = 0.02314850
#
# Stress axis : x y z
#
# Youngs Moduli (GPa) = 55.53589 55.53589 113.07308
#
# Poissons Ratio (x) = 0.30078 0.30745
# Poissons Ratio (y) = 0.30078 0.30745
# Poissons Ratio (z) = 0.15100 0.15100
#
# Static dielectric constant tensor:
#      x y z
#    x 1.763630 0.000000 0.000000 
#    y 0.000000 1.763630 0.000000 
#    z 0.000000 0.000000 1.769110 
# 
# From -- ./inp_files/5934.got.cif
#   From: 2010.05.17/outbox.cif.g08.bks.cpg/sg125_3_cif.got.tgz:5934.got - 2010.05.20 11:54:10.
