data_PCOD9563863
_publ_section_title
;
Structure prediction by ZEFSAII (Michael W. Deem and Ramdas Pophale) SiO2 
 PCOD9563863
Probable space group: P 4/M B M
;
_chemical_formula_sum "Si O2"
_cell_formula_units_Z 96
_cell_length_a 16.282013
_cell_length_b 16.282013
_cell_length_c 21.039256
_cell_angle_alpha 90.000000
_cell_angle_beta 90.000000
_cell_angle_gamma 90.000000
_cell_volume 5577.589815
_symmetry_space_group_name_H-M "P 4/M B M"
_symmetry_group_IT_number 127
_symmetry_cell_setting 'tetragonal'
loop_
_space_group_symop_operation_xyz
x,y,z
-y,x,z
-x,-y,z
y,-x,z
1/2+x,1/2-y,-z
1/2-x,1/2+y,-z
1/2+y,1/2+x,-z
1/2-y,1/2-x,-z
-x,-y,-z
y,-x,-z
x,y,-z
-y,x,-z
1/2-x,1/2+y,z
1/2+x,1/2-y,z
1/2-y,1/2-x,z
1/2+y,1/2+x,z
loop_
_atom_site_type_symbol
_atom_site_label
_atom_site_fract_x
_atom_site_fract_y
_atom_site_fract_z
Si Si1 0.738800 0.379780 0.179452
Si Si2 0.419278 0.388477 0.073997
Si Si3 0.764044 0.404007 0.428120
Si Si4 0.945453 0.689778 0.350063
Si Si5 0.004804 0.367390 0.785423
Si Si6 0.680504 0.321189 0.312870
O O1 0.807071 0.307071 0.175173
O O2 0.675296 0.378773 0.121946
O O3 0.787942 0.466550 0.181161
O O4 0.691290 0.368076 0.246429
O O5 0.517918 0.389750 0.084110
O O6 0.404358 0.367799 0.000000
O O7 0.731876 0.402162 0.500000
O O8 0.839832 0.339832 0.424964
O O9 0.794949 0.493249 0.407409
O O10 0.700426 0.376409 0.373937
O O11 0.873040 0.626961 0.367820
O O12 0.992868 0.651287 0.289829
O O13 0.903720 0.772785 0.323848
O O14 0.094190 0.405811 0.802220
O O15 0.938799 0.438799 0.796783
O O16 0.750960 0.250960 0.311206
#
# Coordination Sequence:
#
# PCOD9563863 Si02
#       6
#    16  16  16  16  16  16
#     4  10  19  32  55  82 107 136 173 215 256 309
#     4   9  20  38  56  76 106 143 178 213 258 306
#     4  10  20  34  50  68  97 133 167 209 260 311
#     4  10  19  31  50  73  99 128 165 211 253 301
#     4   9  17  30  50  77 108 136 160 199 258 310
#     4   9  19  33  48  73 103 131 164 206 256 305
#
# _framework density 17.211735000000001
#
# number of rings (size 3 to 8) (size 9 to 14) (size 15 to 20)
#    0.000    2.500    1.667    1.000    2.333    2.333 
#    0.000    2.500    0.000    2.000    0.000    3.500 
#    0.000    0.000    0.000    0.000    0.000    0.000 
#
# Total GULP energy -534864.338486 kJ/mol
# GULP energy per Si atom -5571.503526 kJ/mol
# Density = 1.717256 g / cm^3
# Si number density = 17.211735 Si / 1000 Ang^3
#
#
#
# Elastic Constant Matrix: (Units=GPa)
#
#
# Indices 1 2 3 4 5 6 
#
# 1 28.0160 1.0147 27.2310 0.0000 0.0000 0.0000
# 2 1.0147 28.0160 27.2310 0.0000 0.0000 0.0000
# 3 27.2310 27.2310 94.3258 0.0000 0.0000 0.0000
# 4 0.0000 0.0000 0.0000 18.0134 0.0000 0.0000
# 5 0.0000 0.0000 0.0000 0.0000 18.0134 0.0000
# 6 0.0000 0.0000 0.0000 0.0000 0.0000 7.3478
#
#
#
# Elastic Compliance Matrix: (Units=1/GPa)
#
#
# Indices 1 2 3 4 5 6 
#
# 1 0.056089 0.019054 -0.021693 0.000000 0.000000 0.000000
# 2 0.019054 0.056089 -0.021693 0.000000 0.000000 0.000000
# 3 -0.021693 -0.021693 0.023127 0.000000 0.000000 0.000000
# 4 0.000000 0.000000 0.000000 0.055514 0.000000 0.000000
# 5 0.000000 0.000000 0.000000 0.000000 0.055514 0.000000
# 6 0.000000 0.000000 0.000000 0.000000 0.000000 0.136095
#
#
# Mechanical properties :
#
#
# Convention : Reuss Voigt Hill
#
# Bulk Modulus (GPa) = 11.54199 29.03458 20.28828
# Shear Modulus (GPa) = 10.87021 15.00034 12.93527
#
# Velocity S-wave (km/s) = 2.51581 2.95535 2.74439
# Velocity P-wave (km/s) = 3.89352 5.34333 4.67497
#
# Compressibility (1/GPa) = 0.08664018
#
# Stress axis : x y z
#
# Youngs Moduli (GPa) = 17.82879 17.82879 43.24005
#
# Poissons Ratio (x) = -0.33971 0.93801
# Poissons Ratio (y) = -0.33971 0.93801
# Poissons Ratio (z) = 0.38676 0.38676
#
# Static dielectric constant tensor:
#      x y z
#    x 1.604250 0.000000 0.000000 
#    y 0.000000 1.604250 0.000000 
#    z 0.000000 0.000000 1.556750 
# 
# From -- ./inp_files/5098.got.cif
#   From: 2010.05.17/outbox.cif.g08.bks.cpg/sg127_3_cif.got.tgz:5098.got - 2010.05.20 12:03:00.
