data_PCOD9563933
_publ_section_title
;
Structure prediction by ZEFSAII (Michael W. Deem and Ramdas Pophale) SiO2 
 PCOD9563933
Probable space group: P 4/M B M
;
_chemical_formula_sum "Si O2"
_cell_formula_units_Z 120
_cell_length_a 28.052094
_cell_length_b 28.052094
_cell_length_c 8.494595
_cell_angle_alpha 90.000000
_cell_angle_beta 90.000000
_cell_angle_gamma 90.000000
_cell_volume 6684.566509
_symmetry_space_group_name_H-M "P 4/M B M"
_symmetry_group_IT_number 127
_symmetry_cell_setting 'tetragonal'
loop_
_space_group_symop_operation_xyz
x,y,z
-y,x,z
-x,-y,z
y,-x,z
1/2+x,1/2-y,-z
1/2-x,1/2+y,-z
1/2+y,1/2+x,-z
1/2-y,1/2-x,-z
-x,-y,-z
y,-x,-z
x,y,-z
-y,x,-z
1/2-x,1/2+y,z
1/2+x,1/2-y,z
1/2-y,1/2-x,z
1/2+y,1/2+x,z
loop_
_atom_site_type_symbol
_atom_site_label
_atom_site_fract_x
_atom_site_fract_y
_atom_site_fract_z
Si Si1 0.864319 0.558859 0.689849
Si Si2 0.626478 0.950111 0.309871
Si Si3 0.260852 0.950171 0.188876
Si Si4 0.971962 0.072938 0.000000
Si Si5 0.060784 0.730268 0.812169
Si Si6 0.680021 0.394427 0.323255
Si Si7 0.379099 0.512474 0.674734
Si Si8 0.342278 0.413156 0.190067
O O1 0.865869 0.558608 0.500000
O O2 0.901955 0.598046 0.746981
O O3 0.876994 0.505125 0.744311
O O4 0.810192 0.568615 0.741175
O O5 0.625854 0.950598 0.500000
O O6 0.583572 0.916429 0.255047
O O7 0.677690 0.930774 0.255318
O O8 0.213742 0.920108 0.229382
O O9 0.256396 0.006064 0.237284
O O10 0.264515 0.949904 0.000000
O O11 0.026509 0.058851 0.000000
O O12 0.965944 0.096188 0.169761
O O13 0.099592 0.769159 0.759647
O O14 0.060534 0.728712 0.000000
O O15 0.685098 0.375477 0.500000
O O16 0.663434 0.449662 0.336082
O O17 0.637432 0.364871 0.240049
O O18 0.402698 0.513119 0.500000
O O19 0.365999 0.458234 0.719532
O O20 0.347490 0.418988 0.000000
#
# Coordination Sequence:
#
# PCOD9563933 Si02
#       8
#    16  16  16   8  16  16  16  16
#     4   9  18  32  53  82 115 150 185 220 261 315
#     4   9  18  33  54  81 116 153 185 221 265 315
#     4   9  19  34  53  78 105 139 182 226 273 325
#     4  11  24  38  52  68  96 140 178 222 283 344
#     4  10  19  34  55  79 107 141 184 229 276 328
#     4  11  23  35  53  80 107 137 180 230 282 340
#     4  11  23  37  53  75 102 135 178 229 286 343
#     4  11  21  35  56  78 105 139 181 231 286 340
#
# _framework density 17.951799999999999
#
# number of rings (size 3 to 8) (size 9 to 14) (size 15 to 20)
#    0.000    1.933    2.000    2.000    1.867    4.000 
#    0.000    2.000    0.000    0.800    0.000    7.467 
#    0.000    0.000    0.000    0.000    0.000    0.000 
#
# Total GULP energy -668478.731830 kJ/mol
# GULP energy per Si atom -5570.656099 kJ/mol
# Density = 1.791094 g / cm^3
# Si number density = 17.951800 Si / 1000 Ang^3
#
#
#
# Elastic Constant Matrix: (Units=GPa)
#
#
# Indices 1 2 3 4 5 6 
#
# 1 92.8842 60.7128 20.0884 0.0000 0.0000 0.0000
# 2 60.7128 92.8842 20.0884 0.0000 0.0000 0.0000
# 3 20.0884 20.0884 62.3992 0.0000 0.0000 0.0000
# 4 0.0000 0.0000 0.0000 26.6256 0.0000 0.0000
# 5 0.0000 0.0000 0.0000 0.0000 26.6256 0.0000
# 6 0.0000 0.0000 0.0000 0.0000 0.0000 26.4262
#
#
#
# Elastic Compliance Matrix: (Units=1/GPa)
#
#
# Indices 1 2 3 4 5 6 
#
# 1 0.019096 -0.011987 -0.002289 0.000000 0.000000 0.000000
# 2 -0.011987 0.019096 -0.002289 0.000000 0.000000 0.000000
# 3 -0.002289 -0.002289 0.017499 0.000000 0.000000 0.000000
# 4 0.000000 0.000000 0.000000 0.037558 0.000000 0.000000
# 5 0.000000 0.000000 0.000000 0.000000 0.037558 0.000000
# 6 0.000000 0.000000 0.000000 0.000000 0.000000 0.037841
#
#
# Mechanical properties :
#
#
# Convention : Reuss Voigt Hill
#
# Bulk Modulus (GPa) = 44.32016 49.99408 47.15712
# Shear Modulus (GPa) = 23.88927 25.75404 24.82165
#
# Velocity S-wave (km/s) = 3.65190 3.79175 3.72248
# Velocity P-wave (km/s) = 6.52103 6.86144 6.69340
#
# Compressibility (1/GPa) = 0.02256310
#
# Stress axis : x y z
#
# Youngs Moduli (GPa) = 52.36608 52.36608 57.14466
#
# Poissons Ratio (x) = 0.62772 0.13079
# Poissons Ratio (y) = 0.62772 0.13079
# Poissons Ratio (z) = 0.11985 0.11985
#
# Static dielectric constant tensor:
#      x y z
#    x 1.616250 0.000000 0.000000 
#    y 0.000000 1.616250 0.000000 
#    z 0.000000 0.000000 1.368970 
# 
# From -- ./inp_files/2403.got.cif
#   From: 2010.05.17/outbox.cif.g08.bks.cpg/sg127_2_cif.got.tgz:2403.got - 2010.05.20 12:03:00.
