data_PCOD9563238
_publ_section_title
;
Structure prediction by ZEFSAII (Michael W. Deem and Ramdas Pophale) SiO2 
 PCOD9563238
Probable space group: P 4/N B M
;
_chemical_formula_sum "Si O2"
_cell_formula_units_Z 88
_cell_length_a 13.149222
_cell_length_b 13.149222
_cell_length_c 26.872766
_cell_angle_alpha 90.000000
_cell_angle_beta 90.000000
_cell_angle_gamma 90.000000
_cell_volume 4646.356040
_symmetry_space_group_name_H-M "P 4/N B M"
_symmetry_group_IT_number 125
_space_group.IT_coordinate_system_code '2'
_symmetry_cell_setting 'tetragonal'
loop_
_space_group_symop_operation_xyz
x,y,z
1/2-y,x,z
1/2-x,1/2-y,z
y,1/2-x,z
x,1/2-y,-z
1/2-x,y,-z
y,x,-z
1/2-y,1/2-x,-z
-x,-y,-z
1/2+y,-x,-z
1/2+x,1/2+y,-z
-y,1/2+x,-z
-x,1/2+y,z
1/2+x,-y,z
-y,-x,z
1/2+y,1/2+x,z
loop_
_atom_site_type_symbol
_atom_site_label
_atom_site_fract_x
_atom_site_fract_y
_atom_site_fract_z
Si Si1 0.415137 0.283592 0.858381
Si Si2 0.843377 0.513760 0.032427
Si Si3 0.416125 0.750000 0.500000
Si Si4 0.724625 0.582077 0.301179
Si Si5 0.085048 0.750717 0.779926
Si Si6 0.725762 0.581996 0.417883
O O1 0.326723 0.365459 0.848322
O O2 0.445025 0.299725 0.915743
O O3 0.512762 0.290708 0.823495
O O4 0.928247 0.428247 0.041752
O O5 0.750000 0.472589 0.000000
O O6 0.897492 0.602509 0.000000
O O7 0.343307 0.656694 0.485552
O O8 0.487812 0.781748 0.454391
O O9 0.832385 0.638803 0.291959
O O10 0.715721 0.487167 0.265128
O O11 0.720828 0.554696 0.359536
O O12 0.154917 0.845084 0.797048
O O13 0.161857 0.661857 0.763806
O O14 0.833087 0.639378 0.426989
#
# Coordination Sequence:
#
# PCOD9563238 Si02
#       6
#    16  16   8  16  16  16
#     4  11  23  40  66  91 115 151 197 246 289 339
#     4  11  23  40  64  92 123 158 195 239 292 347
#     4  11  24  37  50  78 120 159 196 241 296 360
#     4   9  19  38  63  89 115 147 195 248 298 353
#     4  11  25  41  57  84 124 162 195 238 293 352
#     4   9  19  37  61  86 112 146 193 250 301 352
#
# _framework density 18.939571999999998
#
# number of rings (size 3 to 8) (size 9 to 14) (size 15 to 20)
#    0.000    1.727    1.818    3.273    0.000    9.818 
#    0.000    5.455    0.000    0.000    0.000    0.000 
#    0.000    0.000    0.000    0.000    0.000    0.000 
#
# Total GULP energy -491640.082778 kJ/mol
# GULP energy per Si atom -5586.819122 kJ/mol
# Density = 1.889647 g / cm^3
# Si number density = 18.939572 Si / 1000 Ang^3
#
#
#
# Elastic Constant Matrix: (Units=GPa)
#
#
# Indices 1 2 3 4 5 6 
#
# 1 63.7715 6.3768 16.4573 0.0000 0.0000 0.0000
# 2 6.3768 63.7709 16.4575 0.0000 0.0000 0.0000
# 3 16.4573 16.4575 37.9218 0.0000 0.0000 0.0000
# 4 0.0000 0.0000 0.0000 13.2666 0.0000 0.0000
# 5 0.0000 0.0000 0.0000 0.0000 13.2662 0.0000
# 6 0.0000 0.0000 0.0000 0.0000 0.0000 6.7600
#
#
#
# Elastic Compliance Matrix: (Units=1/GPa)
#
#
# Indices 1 2 3 4 5 6 
#
# 1 0.017662 0.000239 -0.007769 0.000000 0.000000 0.000000
# 2 0.000239 0.017662 -0.007769 0.000000 0.000000 0.000000
# 3 -0.007769 -0.007769 0.033113 0.000000 0.000000 0.000000
# 4 0.000000 0.000000 0.000000 0.075377 0.000000 0.000000
# 5 0.000000 0.000000 0.000000 0.000000 0.075379 0.000000
# 6 0.000000 0.000000 0.000000 0.000000 0.000000 0.147929
#
#
# Mechanical properties :
#
#
# Convention : Reuss Voigt Hill
#
# Bulk Modulus (GPa) = 26.42708 27.11640 26.77174
# Shear Modulus (GPa) = 12.18523 15.07007 13.62765
#
# Velocity S-wave (km/s) = 2.53923 2.82386 2.68532
# Velocity P-wave (km/s) = 4.75191 4.99807 4.87654
#
# Compressibility (1/GPa) = 0.03783997
#
# Stress axis : x y z
#
# Youngs Moduli (GPa) = 56.61901 56.61822 30.19965
#
# Poissons Ratio (x) = -0.01352 0.23461
# Poissons Ratio (y) = -0.01352 0.23461
# Poissons Ratio (z) = 0.43985 0.43985
#
# Static dielectric constant tensor:
#      x y z
#    x 1.641980 0.000000 0.000000 
#    y 0.000000 1.641980 0.000000 
#    z 0.000000 0.000000 1.642110 
# 
# From -- ./inp_files/6562.got.cif
#   From: 2010.05.17/outbox.cif.g08.bks.cpg/sg125_4_cif.got.tgz:6562.got - 2010.05.20 11:54:10.
