data_PCOD9563469
_publ_section_title
;
Structure prediction by ZEFSAII (Michael W. Deem and Ramdas Pophale) SiO2 
 PCOD9563469
Probable space group: P 4/N N C
;
_chemical_formula_sum "Si O2"
_cell_formula_units_Z 56
_cell_length_a 16.454310
_cell_length_b 16.454310
_cell_length_c 10.111779
_cell_angle_alpha 90.000000
_cell_angle_beta 90.000000
_cell_angle_gamma 90.000000
_cell_volume 2737.706705
_symmetry_space_group_name_H-M "P 4/N N C"
_symmetry_group_IT_number 126
_space_group.IT_coordinate_system_code '2'
_symmetry_cell_setting 'tetragonal'
loop_
_space_group_symop_operation_xyz
x,y,z
1/2-y,x,z
1/2-x,1/2-y,z
y,1/2-x,z
x,1/2-y,1/2-z
1/2-x,y,1/2-z
y,x,1/2-z
1/2-y,1/2-x,1/2-z
-x,-y,-z
1/2+y,-x,-z
1/2+x,1/2+y,-z
-y,1/2+x,-z
-x,1/2+y,1/2+z
1/2+x,-y,1/2+z
-y,-x,1/2+z
1/2+y,1/2+x,1/2+z
loop_
_atom_site_type_symbol
_atom_site_label
_atom_site_fract_x
_atom_site_fract_y
_atom_site_fract_z
Si Si1 0.199282 0.369507 0.468695
Si Si2 0.802096 0.047530 0.882927
Si Si3 0.076187 0.807423 0.136450
Si Si4 0.417338 0.250000 0.750000
O O1 0.147040 0.292414 0.424971
O O2 0.170751 0.456082 0.418002
O O3 0.206611 0.371857 0.629321
O O4 0.750000 0.047391 0.750000
O O5 0.876976 0.108915 0.873407
O O6 0.742785 0.075920 0.001155
O O7 0.114976 0.750000 0.250000
O O8 0.981863 0.812734 0.182173
#
# Coordination Sequence:
#
# PCOD9563469 Si02
#       4
#    16  16  16   8
#     4  10  21  39  65  89 118 164 214 258 305 370
#     4  11  22  36  60  90 127 158 203 254 314 366
#     4   9  20  37  59  90 121 161 205 248 298 374
#     4   8  18  37  61  92 118 152 214 258 302 360
#
# _framework density 20.455076999999999
#
# number of rings (size 3 to 8) (size 9 to 14) (size 15 to 20)
#    0.857    1.429    0.000    2.571    0.000    5.714 
#    0.000    7.143   12.571    0.000    0.000    0.000 
#    0.000    0.000    0.000    0.000    0.000    0.000 
#
# Total GULP energy -312565.488343 kJ/mol
# GULP energy per Si atom -5581.526578 kJ/mol
# Density = 2.040852 g / cm^3
# Si number density = 20.455077 Si / 1000 Ang^3
#
#
#
# Elastic Constant Matrix: (Units=GPa)
#
#
# Indices 1 2 3 4 5 6 
#
# 1 86.0849 42.3990 9.3447 0.0000 0.0000 0.0000
# 2 42.3990 86.0849 9.3447 0.0000 0.0000 0.0000
# 3 9.3447 9.3447 100.2619 0.0000 0.0000 0.0000
# 4 0.0000 0.0000 0.0000 -15.4345 0.0000 0.0000
# 5 0.0000 0.0000 0.0000 0.0000 -15.4345 0.0000
# 6 0.0000 0.0000 0.0000 0.0000 0.0000 -0.5571
#
#
#
# Elastic Compliance Matrix: (Units=1/GPa)
#
#
# Indices 1 2 3 4 5 6 
#
# 1 0.015390 -0.007500 -0.000735 0.000000 0.000000 0.000000
# 2 -0.007500 0.015390 -0.000735 0.000000 0.000000 0.000000
# 3 -0.000735 -0.000735 0.010111 0.000000 0.000000 0.000000
# 4 0.000000 0.000000 0.000000 -0.064790 0.000000 0.000000
# 5 0.000000 0.000000 0.000000 0.000000 -0.064790 0.000000
# 6 0.000000 0.000000 0.000000 0.000000 0.000000 -1.794962
#
#
# Mechanical properties :
#
#
# Convention : Reuss Voigt Hill
#
# Bulk Modulus (GPa) = 43.57385 43.84539 43.70962
# Shear Modulus (GPa) = -2.69098 7.80433 2.55667
#
# Velocity S-wave (km/s) = -1.14822 1.95541 1.11920
# Velocity P-wave (km/s) = 4.42612 5.15555 4.80470
#
# Compressibility (1/GPa) = 0.02294955
#
# Stress axis : x y z
#
# Youngs Moduli (GPa) = 64.97567 64.97567 98.90259
#
# Poissons Ratio (x) = 0.48734 0.07273
# Poissons Ratio (y) = 0.48734 0.07273
# Poissons Ratio (z) = 0.04778 0.04778
#
# Static dielectric constant tensor:
#      x y z
#    x 1.720750 0.000000 0.000000 
#    y 0.000000 1.720750 0.000000 
#    z 0.000000 0.000000 1.775240 
# 
# From -- ./inp_files/2494.got.cif
#   From: 2010.05.17/outbox.cif.g08.bks.cpg/sg126_2_cif.got.tgz:2494.got - 2010.05.20 11:58:20.
