data_PCOD9563454
_publ_section_title
;
Structure prediction by ZEFSAII (Michael W. Deem and Ramdas Pophale) SiO2 
 PCOD9563454
Probable space group: P 4/N N C
;
_chemical_formula_sum "Si O2"
_cell_formula_units_Z 112
_cell_length_a 15.363098
_cell_length_b 15.363098
_cell_length_c 22.504730
_cell_angle_alpha 90.000000
_cell_angle_beta 90.000000
_cell_angle_gamma 90.000000
_cell_volume 5311.673951
_symmetry_space_group_name_H-M "P 4/N N C"
_symmetry_group_IT_number 126
_space_group.IT_coordinate_system_code '2'
_symmetry_cell_setting 'tetragonal'
loop_
_space_group_symop_operation_xyz
x,y,z
1/2-y,x,z
1/2-x,1/2-y,z
y,1/2-x,z
x,1/2-y,1/2-z
1/2-x,y,1/2-z
y,x,1/2-z
1/2-y,1/2-x,1/2-z
-x,-y,-z
1/2+y,-x,-z
1/2+x,1/2+y,-z
-y,1/2+x,-z
-x,1/2+y,1/2+z
1/2+x,-y,1/2+z
-y,-x,1/2+z
1/2+y,1/2+x,1/2+z
loop_
_atom_site_type_symbol
_atom_site_label
_atom_site_fract_x
_atom_site_fract_y
_atom_site_fract_z
Si Si1 0.140071 0.344891 0.466268
Si Si2 0.233600 0.567280 0.871045
Si Si3 0.509698 0.908624 0.626035
Si Si4 0.008705 0.581846 0.296757
Si Si5 0.182716 0.853448 0.029533
Si Si6 0.627704 0.164430 0.289799
Si Si7 0.496025 0.378190 0.542418
O O1 0.131719 0.241720 0.470728
O O2 0.095832 0.371805 0.404241
O O3 0.099674 0.399513 0.521068
O O4 0.162724 0.505149 0.840889
O O5 0.183444 0.636844 0.912542
O O6 0.289057 0.624700 0.824262
O O7 0.300171 0.510439 0.910498
O O8 0.449921 0.837409 0.660582
O O9 0.521728 0.990451 0.669831
O O10 0.456598 0.952401 0.572134
O O11 0.092798 0.599997 0.257711
O O12 0.930374 0.569627 0.250000
O O13 0.287159 0.847176 0.023926
O O14 0.151491 0.949506 0.015337
O O15 0.640801 0.250000 0.250000
#
# Coordination Sequence:
#
# PCOD9563454 Si02
#       7
#    16  16  16  16  16  16  16
#     4  11  26  42  63  92 130 170 222 268 314 385
#     4  10  21  37  62  91 132 172 207 270 335 388
#     4  10  23  41  66  94 126 171 217 266 333 382
#     4  10  22  39  59  90 125 167 220 262 314 387
#     4   9  19  33  55  97 135 160 201 248 327 417
#     4  10  23  40  64  95 126 164 216 273 334 388
#     4  10  22  38  65  95 127 171 212 260 326 397
#
# _framework density 21.085629999999998
#
# number of rings (size 3 to 8) (size 9 to 14) (size 15 to 20)
#    0.000    2.000    0.000    1.714    8.000    6.857 
#    0.000    0.000    0.000    0.000    0.000    0.000 
#    0.000    0.000    0.000    0.000    0.000    0.000 
#
# Total GULP energy -625621.679015 kJ/mol
# GULP energy per Si atom -5585.907848 kJ/mol
# Density = 2.103764 g / cm^3
# Si number density = 21.085630 Si / 1000 Ang^3
#
#
#
# Elastic Constant Matrix: (Units=GPa)
#
#
# Indices 1 2 3 4 5 6 
#
# 1 81.3481 11.4017 43.8357 0.0000 0.0000 0.0000
# 2 11.4017 81.3470 43.8353 0.0000 0.0000 0.0000
# 3 43.8357 43.8353 84.8331 0.0000 0.0000 0.0000
# 4 0.0000 0.0000 0.0000 33.2370 0.0000 0.0000
# 5 0.0000 0.0000 0.0000 0.0000 33.2373 0.0000
# 6 0.0000 0.0000 0.0000 0.0000 0.0000 14.0122
#
#
#
# Elastic Compliance Matrix: (Units=1/GPa)
#
#
# Indices 1 2 3 4 5 6 
#
# 1 0.017686 0.003390 -0.010891 0.000000 0.000000 0.000000
# 2 0.003390 0.017686 -0.010891 0.000000 0.000000 0.000000
# 3 -0.010891 -0.010891 0.023043 0.000000 0.000000 0.000000
# 4 0.000000 0.000000 0.000000 0.030087 0.000000 0.000000
# 5 0.000000 0.000000 0.000000 0.000000 0.030087 0.000000
# 6 0.000000 0.000000 0.000000 0.000000 0.000000 0.071366
#
#
# Mechanical properties :
#
#
# Convention : Reuss Voigt Hill
#
# Bulk Modulus (GPa) = 46.22655 49.51931 47.87293
# Shear Modulus (GPa) = 21.37216 25.99433 23.68325
#
# Velocity S-wave (km/s) = 3.18714 3.51493 3.35504
# Velocity P-wave (km/s) = 5.95942 6.32525 6.14506
#
# Compressibility (1/GPa) = 0.02163259
#
# Stress axis : x y z
#
# Youngs Moduli (GPa) = 56.54102 56.54032 43.39772
#
# Poissons Ratio (x) = -0.19165 0.47262
# Poissons Ratio (y) = -0.19165 0.47262
# Poissons Ratio (z) = 0.61576 0.61575
#
# Static dielectric constant tensor:
#      x y z
#    x 1.826770 0.000000 0.000000 
#    y 0.000000 1.826780 0.000000 
#    z 0.000000 0.000000 1.807220 
# 
# From -- ./inp_files/5857.got.cif
#   From: 2010.05.17/outbox.cif.g08.bks.cpg/sg126_3_cif.got.tgz:5857.got - 2010.05.20 11:58:20.
