data_PCOD9563110
_publ_section_title
;
Structure prediction by ZEFSAII (Michael W. Deem and Ramdas Pophale) SiO2 
 PCOD9563110
Probable space group: P 4/N B M
;
_chemical_formula_sum "Si O2"
_cell_formula_units_Z 64
_cell_length_a 11.587941
_cell_length_b 11.587941
_cell_length_c 21.295765
_cell_angle_alpha 90.000000
_cell_angle_beta 90.000000
_cell_angle_gamma 90.000000
_cell_volume 2859.603345
_symmetry_space_group_name_H-M "P 4/N B M"
_symmetry_group_IT_number 125
_space_group.IT_coordinate_system_code '2'
_symmetry_cell_setting 'tetragonal'
loop_
_space_group_symop_operation_xyz
x,y,z
1/2-y,x,z
1/2-x,1/2-y,z
y,1/2-x,z
x,1/2-y,-z
1/2-x,y,-z
y,x,-z
1/2-y,1/2-x,-z
-x,-y,-z
1/2+y,-x,-z
1/2+x,1/2+y,-z
-y,1/2+x,-z
-x,1/2+y,z
1/2+x,-y,z
-y,-x,z
1/2+y,1/2+x,z
loop_
_atom_site_type_symbol
_atom_site_label
_atom_site_fract_x
_atom_site_fract_y
_atom_site_fract_z
Si Si1 0.938344 0.257440 0.663127
Si Si2 0.248974 0.446684 0.067481
Si Si3 0.445091 0.253102 0.203626
Si Si4 0.663698 0.523667 0.545408
O O1 0.838921 0.161080 0.655989
O O2 0.880080 0.380080 0.648632
O O3 0.978739 0.255552 0.734651
O O4 0.036070 0.225303 0.612454
O O5 0.138870 0.359971 0.067496
O O6 0.247336 0.506617 0.135359
O O7 0.250000 0.509346 0.000000
O O8 0.359292 0.362833 0.205823
O O9 0.750000 0.453171 0.500000
O O10 0.627886 0.627886 0.500000
O O11 0.547818 0.452183 0.556954
#
# Coordination Sequence:
#
# PCOD9563110 Si02
#       4
#    16  16  16  16
#     4  10  22  38  56  78 106 144 184 221 268 327
#     4   7  10  20  41  70 104 139 174 218 270 319
#     4   9  18  31  51  82 113 140 179 227 275 325
#     4  10  22  39  59  82 105 135 176 217 262 317
#
# _framework density 22.380725999999999
#
# number of rings (size 3 to 8) (size 9 to 14) (size 15 to 20)
#    0.000    3.000    0.000    3.000    3.500    2.500 
#    0.000    0.000    0.000    1.500    0.000    8.750 
#    0.000    0.000    0.000    0.000    0.000    0.000 
#
# Total GULP energy -356550.374742 kJ/mol
# GULP energy per Si atom -5571.099605 kJ/mol
# Density = 2.232979 g / cm^3
# Si number density = 22.380726 Si / 1000 Ang^3
#
#
#
# Elastic Constant Matrix: (Units=GPa)
#
#
# Indices 1 2 3 4 5 6 
#
# 1 21.5264 35.4103 42.1285 0.0000 0.0000 0.0000
# 2 35.4103 21.5264 42.1285 0.0000 0.0000 0.0000
# 3 42.1285 42.1285 249.1306 0.0000 0.0000 0.0000
# 4 0.0000 0.0000 0.0000 52.5928 0.0000 0.0000
# 5 0.0000 0.0000 0.0000 0.0000 52.5928 0.0000
# 6 0.0000 0.0000 0.0000 0.0000 0.0000 -16.8491
#
#
#
# Elastic Compliance Matrix: (Units=1/GPa)
#
#
# Indices 1 2 3 4 5 6 
#
# 1 -0.024300 0.047726 -0.003961 0.000000 0.000000 0.000000
# 2 0.047726 -0.024300 -0.003961 0.000000 0.000000 0.000000
# 3 -0.003961 -0.003961 0.005354 0.000000 0.000000 0.000000
# 4 0.000000 0.000000 0.000000 0.019014 0.000000 0.000000
# 5 0.000000 0.000000 0.000000 0.000000 0.019014 0.000000
# 6 0.000000 0.000000 0.000000 0.000000 0.000000 -0.059350
#
#
# Mechanical properties :
#
#
# Convention : Reuss Voigt Hill
#
# Bulk Modulus (GPa) = 27.50321 59.05755 43.28038
# Shear Modulus (GPa) = -37.86294 29.16838 -4.34728
#
# Velocity S-wave (km/s) = -4.11757 3.61401 -1.39522
# Velocity P-wave (km/s) = 3.20786 6.62267 4.09691
#
# Compressibility (1/GPa) = 0.03635939
#
# Stress axis : x y z
#
# Youngs Moduli (GPa) = -41.15192 -41.15192 186.78728
#
# Poissons Ratio (x) = 1.96400 0.73992
# Poissons Ratio (y) = 1.96400 0.73992
# Poissons Ratio (z) = -0.16301 -0.16301
#
# Static dielectric constant tensor:
#      x y z
#    x 1.877300 0.000000 0.000000 
#    y 0.000000 1.877300 0.000000 
#    z 0.000000 0.000000 1.866730 
# 
# From -- ./inp_files/5264.got.cif
#   From: 2010.05.17/outbox.cif.g08.bks.cpg/sg125_3_cif.got.tgz:5264.got - 2010.05.20 11:54:10.
