data_PCOD9563104
_publ_section_title
;
Structure prediction by ZEFSAII (Michael W. Deem and Ramdas Pophale) SiO2 
 PCOD9563104
Probable space group: P 4/N B M
;
_chemical_formula_sum "Si O2"
_cell_formula_units_Z 96
_cell_length_a 22.444183
_cell_length_b 22.444183
_cell_length_c 8.569783
_cell_angle_alpha 90.000000
_cell_angle_beta 90.000000
_cell_angle_gamma 90.000000
_cell_volume 4316.954062
_symmetry_space_group_name_H-M "P 4/N B M"
_symmetry_group_IT_number 125
_space_group.IT_coordinate_system_code '2'
_symmetry_cell_setting 'tetragonal'
loop_
_space_group_symop_operation_xyz
x,y,z
1/2-y,x,z
1/2-x,1/2-y,z
y,1/2-x,z
x,1/2-y,-z
1/2-x,y,-z
y,x,-z
1/2-y,1/2-x,-z
-x,-y,-z
1/2+y,-x,-z
1/2+x,1/2+y,-z
-y,1/2+x,-z
-x,1/2+y,z
1/2+x,-y,z
-y,-x,z
1/2+y,1/2+x,z
loop_
_atom_site_type_symbol
_atom_site_label
_atom_site_fract_x
_atom_site_fract_y
_atom_site_fract_z
Si Si1 0.319847 0.184689 0.812509
Si Si2 0.436151 0.661366 0.702984
Si Si3 0.270422 0.633492 0.179842
Si Si4 0.142392 0.544220 0.650154
Si Si5 0.993153 0.588087 0.097110
Si Si6 0.582335 0.599714 0.320411
O O1 0.331793 0.252633 0.759808
O O2 0.369253 0.138663 0.758716
O O3 0.316990 0.183011 0.000000
O O4 0.400165 0.599836 0.706029
O O5 0.387109 0.712253 0.727787
O O6 0.460329 0.667968 0.526864
O O7 0.480704 0.653241 0.853472
O O8 0.304223 0.695778 0.214145
O O9 0.317278 0.582906 0.233252
O O10 0.250000 0.633880 0.000000
O O11 0.079955 0.579955 0.640877
O O12 0.134849 0.478109 0.713176
O O13 0.967839 0.571259 0.266809
O O14 0.046503 0.546503 0.035124
O O15 0.934371 0.565630 0.000000
O O16 0.597089 0.597089 0.500000
#
# Coordination Sequence:
#
# PCOD9563104 Si02
#       6
#    16  16  16  16  16  16
#     4   9  21  45  69  90 126 173 217 267 323 386
#     4  10  21  41  66  93 128 174 225 277 337 411
#     4  11  25  44  67  96 131 175 229 294 355 407
#     4  10  23  43  64  92 134 178 221 277 345 412
#     4  10  22  38  62  95 136 178 221 274 337 408
#     4  12  23  38  64 100 134 175 220 273 331 416
#
# _framework density 22.237901999999998
#
# number of rings (size 3 to 8) (size 9 to 14) (size 15 to 20)
#    0.000    1.667    1.667    2.500    2.333    3.833 
#    6.000    1.667    0.000    6.000    0.000    0.000 
#    0.000    0.000    0.000    0.000    0.000    0.000 
#
# Total GULP energy -534762.504050 kJ/mol
# GULP energy per Si atom -5570.442751 kJ/mol
# Density = 2.218729 g / cm^3
# Si number density = 22.237902 Si / 1000 Ang^3
#
#
#
# Elastic Constant Matrix: (Units=GPa)
#
#
# Indices 1 2 3 4 5 6 
#
# 1 133.7420 1.2646 17.0877 0.0000 0.0000 0.0000
# 2 1.2646 133.7418 17.0930 0.0000 0.0000 0.0000
# 3 17.0877 17.0930 44.6122 0.0000 0.0000 0.0000
# 4 0.0000 0.0000 0.0000 31.2265 0.0000 0.0000
# 5 0.0000 0.0000 0.0000 0.0000 31.2266 0.0000
# 6 0.0000 0.0000 0.0000 0.0000 0.0000 39.3783
#
#
#
# Elastic Compliance Matrix: (Units=1/GPa)
#
#
# Indices 1 2 3 4 5 6 
#
# 1 0.007875 0.000327 -0.003142 0.000000 0.000000 0.000000
# 2 0.000327 0.007876 -0.003143 0.000000 0.000000 0.000000
# 3 -0.003142 -0.003143 0.024823 0.000000 0.000000 0.000000
# 4 0.000000 0.000000 0.000000 0.032024 0.000000 0.000000
# 5 0.000000 0.000000 0.000000 0.000000 0.032024 0.000000
# 6 0.000000 0.000000 0.000000 0.000000 0.000000 0.025395
#
#
# Mechanical properties :
#
#
# Convention : Reuss Voigt Hill
#
# Bulk Modulus (GPa) = 34.89315 42.55409 38.72362
# Shear Modulus (GPa) = 33.00657 38.80965 35.90811
#
# Velocity S-wave (km/s) = 3.85677 4.18209 4.02272
# Velocity P-wave (km/s) = 5.96304 6.51899 6.24720
#
# Compressibility (1/GPa) = 0.02865892
#
# Stress axis : x y z
#
# Youngs Moduli (GPa) = 126.97750 126.97328 40.28525
#
# Poissons Ratio (x) = -0.04153 0.12657
# Poissons Ratio (y) = -0.04153 0.12661
# Poissons Ratio (z) = 0.39894 0.39905
#
# Static dielectric constant tensor:
#      x y z
#    x 1.879300 0.000000 0.000000 
#    y 0.000000 1.879300 0.000000 
#    z 0.000000 0.000000 1.896850 
# 
# From -- ./inp_files/2840.got.cif
#   From: 2010.05.17/outbox.cif.g08.bks.cpg/sg125_2_cif.got.tgz:2840.got - 2010.05.20 11:54:10.
