data_PCOD9563936
_publ_section_title
;
Structure prediction by ZEFSAII (Michael W. Deem and Ramdas Pophale) SiO2 
 PCOD9563936
Probable space group: P 4/M B M
;
_chemical_formula_sum "Si O2"
_cell_formula_units_Z 96
_cell_length_a 26.605215
_cell_length_b 26.605215
_cell_length_c 7.975372
_cell_angle_alpha 90.000000
_cell_angle_beta 90.000000
_cell_angle_gamma 90.000000
_cell_volume 5645.267100
_symmetry_space_group_name_H-M "P 4/M B M"
_symmetry_group_IT_number 127
_symmetry_cell_setting 'tetragonal'
loop_
_space_group_symop_operation_xyz
x,y,z
-y,x,z
-x,-y,z
y,-x,z
1/2+x,1/2-y,-z
1/2-x,1/2+y,-z
1/2+y,1/2+x,-z
1/2-y,1/2-x,-z
-x,-y,-z
y,-x,-z
x,y,-z
-y,x,-z
1/2-x,1/2+y,z
1/2+x,1/2-y,z
1/2-y,1/2-x,z
1/2+y,1/2+x,z
loop_
_atom_site_type_symbol
_atom_site_label
_atom_site_fract_x
_atom_site_fract_y
_atom_site_fract_z
Si Si1 0.869857 0.933225 0.193066
Si Si2 0.852422 0.732388 0.810245
Si Si3 0.458149 0.635734 0.305917
Si Si4 0.430396 0.251454 0.803521
Si Si5 0.363679 0.221494 0.500000
Si Si6 0.281614 0.304198 0.500000
Si Si7 0.748398 0.042462 0.701982
O O1 0.909593 0.898862 0.288055
O O2 0.811195 0.928070 0.242212
O O3 0.882981 0.992197 0.211097
O O4 0.873353 0.918187 0.000000
O O5 0.815229 0.684771 0.793564
O O6 0.836385 0.772012 0.666974
O O7 0.910076 0.718790 0.774144
O O8 0.846818 0.751840 0.000000
O O9 0.473173 0.638086 0.500000
O O10 0.447864 0.692988 0.251686
O O11 0.396608 0.222371 0.669085
O O12 0.488331 0.235695 0.777019
O O13 0.416477 0.245938 0.000000
O O14 0.323875 0.176126 0.500000
O O15 0.332789 0.273827 0.500000
O O16 0.238209 0.261792 0.500000
O O17 0.744050 0.040916 0.500000
#
# Coordination Sequence:
#
# PCOD9563936 Si02
#       7
#    16  16  16  16   8   8  16
#     4  10  21  35  50  71  98 129 171 222 270 320
#     4  10  20  33  52  79 111 145 179 217 266 323
#     4  10  21  33  51  71  93 129 174 221 270 321
#     4  10  22  38  57  79 107 139 176 223 271 321
#     4  11  24  39  58  80 107 141 185 230 266 317
#     4   9  20  35  48  72 108 141 178 221 264 308
#     4  10  19  34  56  78 105 140 176 218 267 321
#
# _framework density 17.005396000000001
#
# number of rings (size 3 to 8) (size 9 to 14) (size 15 to 20)
#    0.000    2.000    1.667    1.500    4.667    3.333 
#    0.000    3.333    0.000    0.000    0.000    0.000 
#    0.000    1.333    0.000    3.500    0.000    0.000 
#
# Total GULP energy -535648.843410 kJ/mol
# GULP energy per Si atom -5579.675452 kJ/mol
# Density = 1.696669 g / cm^3
# Si number density = 17.005396 Si / 1000 Ang^3
#
#
#
# Elastic Constant Matrix: (Units=GPa)
#
#
# Indices 1 2 3 4 5 6 
#
# 1 59.1975 24.3554 37.2075 0.0000 0.0000 0.0000
# 2 24.3554 59.1970 37.2074 0.0000 0.0000 0.0000
# 3 37.2075 37.2074 102.2585 0.0000 0.0000 0.0000
# 4 0.0000 0.0000 0.0000 9.6075 0.0000 0.0000
# 5 0.0000 0.0000 0.0000 0.0000 9.6066 0.0000
# 6 0.0000 0.0000 0.0000 0.0000 0.0000 23.4559
#
#
#
# Elastic Compliance Matrix: (Units=1/GPa)
#
#
# Indices 1 2 3 4 5 6 
#
# 1 0.023204 -0.005497 -0.006443 0.000000 0.000000 0.000000
# 2 -0.005497 0.023204 -0.006443 0.000000 0.000000 0.000000
# 3 -0.006443 -0.006443 0.014468 0.000000 0.000000 0.000000
# 4 0.000000 0.000000 0.000000 0.104086 0.000000 0.000000
# 5 0.000000 0.000000 0.000000 0.000000 0.104095 0.000000
# 6 0.000000 0.000000 0.000000 0.000000 0.000000 0.042633
#
#
# Mechanical properties :
#
#
# Convention : Reuss Voigt Hill
#
# Bulk Modulus (GPa) = 41.47651 46.46598 43.97124
# Shear Modulus (GPa) = 14.02559 16.65951 15.34255
#
# Velocity S-wave (km/s) = 2.87500 3.13335 3.00695
# Velocity P-wave (km/s) = 5.95517 6.36192 6.16190
#
# Compressibility (1/GPa) = 0.02411003
#
# Stress axis : x y z
#
# Youngs Moduli (GPa) = 43.09650 43.09612 69.12022
#
# Poissons Ratio (x) = 0.23691 0.44532
# Poissons Ratio (y) = 0.23691 0.44532
# Poissons Ratio (z) = 0.27765 0.27765
#
# Static dielectric constant tensor:
#      x y z
#    x 1.576960 0.000000 0.000000 
#    y 0.000000 1.576960 0.000000 
#    z 0.000000 0.000000 1.589710 
# 
# From -- ./inp_files/2121.got.cif
#   From: 2010.05.17/outbox.cif.g08.bks.cpg/sg127_2_cif.got.tgz:2121.got - 2010.05.20 12:03:00.
