data_PCOD9563153
_publ_section_title
;
Structure prediction by ZEFSAII (Michael W. Deem and Ramdas Pophale) SiO2 
 PCOD9563153
Probable space group: P 4/N B M
;
_chemical_formula_sum "Si O2"
_cell_formula_units_Z 112
_cell_length_a 14.573798
_cell_length_b 14.573798
_cell_length_c 28.462684
_cell_angle_alpha 90.000000
_cell_angle_beta 90.000000
_cell_angle_gamma 90.000000
_cell_volume 6045.348508
_symmetry_space_group_name_H-M "P 4/N B M"
_symmetry_group_IT_number 125
_space_group.IT_coordinate_system_code '2'
_symmetry_cell_setting 'tetragonal'
loop_
_space_group_symop_operation_xyz
x,y,z
1/2-y,x,z
1/2-x,1/2-y,z
y,1/2-x,z
x,1/2-y,-z
1/2-x,y,-z
y,x,-z
1/2-y,1/2-x,-z
-x,-y,-z
1/2+y,-x,-z
1/2+x,1/2+y,-z
-y,1/2+x,-z
-x,1/2+y,z
1/2+x,-y,z
-y,-x,z
1/2+y,1/2+x,z
loop_
_atom_site_type_symbol
_atom_site_label
_atom_site_fract_x
_atom_site_fract_y
_atom_site_fract_z
Si Si1 0.678403 0.611380 0.116659
Si Si2 0.526722 0.261493 0.448824
Si Si3 0.877145 0.837618 0.778721
Si Si4 0.085989 0.065929 0.417220
Si Si5 0.465217 0.379438 0.318118
Si Si6 0.494587 0.352146 0.022965
Si Si7 0.257186 0.894522 0.651667
O O1 0.787774 0.631728 0.111636
O O2 0.648120 0.582271 0.169183
O O3 0.654983 0.537849 0.077043
O O4 0.569271 0.250000 0.500000
O O5 0.451069 0.181784 0.442258
O O6 0.477603 0.358921 0.442185
O O7 0.592676 0.248238 0.404398
O O8 0.772617 0.871898 0.776049
O O9 0.925860 0.879646 0.733734
O O10 0.098122 0.099414 0.363241
O O11 0.028824 0.971176 0.417456
O O12 0.544925 0.455076 0.322484
O O13 0.512342 0.280310 0.326473
O O14 0.587727 0.412274 0.017829
O O15 0.500560 0.250000 0.000000
O O16 0.412509 0.412509 0.000000
O O17 0.183391 0.816610 0.664640
O O18 0.356639 0.856639 0.665384
#
# Coordination Sequence:
#
# PCOD9563153 Si02
#       7
#    16  16  16  16  16  16  16
#     4   9  17  33  56  82 114 151 195 250 299 338
#     4  11  22  36  55  75 102 137 166 207 269 323
#     4   9  19  33  53  82 113 143 181 232 287 336
#     4  10  23  39  54  78 107 134 175 220 257 320
#     4   9  19  35  53  75 105 140 177 220 276 334
#     4  11  22  35  58  90 121 160 210 253 296 353
#     4   9  19  35  53  74  99 129 174 224 262 316
#
# _framework density 18.52664
#
# number of rings (size 3 to 8) (size 9 to 14) (size 15 to 20)
#    0.000    2.286    1.429    3.000    4.000    4.000 
#    0.000    1.429    0.000    1.714    0.000    2.000 
#    0.000    0.000    0.000    0.000    0.000    0.000 
#
# Total GULP energy -624318.650704 kJ/mol
# GULP energy per Si atom -5574.273667 kJ/mol
# Density = 1.848447 g / cm^3
# Si number density = 18.526640 Si / 1000 Ang^3
#
#
#
# Elastic Constant Matrix: (Units=GPa)
#
#
# Indices 1 2 3 4 5 6 
#
# 1 41.1054 26.8029 9.4469 0.0000 0.0000 0.0000
# 2 26.8029 41.1054 9.4469 0.0000 0.0000 0.0000
# 3 9.4469 9.4469 104.4129 0.0000 0.0000 0.0000
# 4 0.0000 0.0000 0.0000 9.9570 0.0000 0.0000
# 5 0.0000 0.0000 0.0000 0.0000 9.9570 0.0000
# 6 0.0000 0.0000 0.0000 0.0000 0.0000 1.7258
#
#
#
# Elastic Compliance Matrix: (Units=1/GPa)
#
#
# Indices 1 2 3 4 5 6 
#
# 1 0.042512 -0.027406 -0.001367 0.000000 0.000000 0.000000
# 2 -0.027406 0.042512 -0.001367 0.000000 0.000000 0.000000
# 3 -0.001367 -0.001367 0.009825 0.000000 0.000000 0.000000
# 4 0.000000 0.000000 0.000000 0.100432 0.000000 0.000000
# 5 0.000000 0.000000 0.000000 0.000000 0.100432 0.000000
# 6 0.000000 0.000000 0.000000 0.000000 0.000000 0.579449
#
#
# Mechanical properties :
#
#
# Convention : Reuss Voigt Hill
#
# Bulk Modulus (GPa) = 28.92707 30.89081 29.90894
# Shear Modulus (GPa) = 5.28004 13.72309 9.50156
#
# Velocity S-wave (km/s) = 1.69002 2.72457 2.26710
# Velocity P-wave (km/s) = 4.41088 5.15826 4.79914
#
# Compressibility (1/GPa) = 0.03456970
#
# Stress axis : x y z
#
# Youngs Moduli (GPa) = 23.52279 23.52279 101.78449
#
# Poissons Ratio (x) = 0.64467 0.13911
# Poissons Ratio (y) = 0.64467 0.13911
# Poissons Ratio (z) = 0.03215 0.03215
#
# Static dielectric constant tensor:
#      x y z
#    x 1.655650 0.000000 0.000000 
#    y 0.000000 1.655650 0.000000 
#    z 0.000000 0.000000 1.650330 
# 
# From -- ./inp_files/6416.got.cif
#   From: 2010.05.17/outbox.cif.g08.bks.cpg/sg125_4_cif.got.tgz:6416.got - 2010.05.20 11:54:10.
