data_PCOD9563723
_publ_section_title
;
Structure prediction by ZEFSAII (Michael W. Deem and Ramdas Pophale) SiO2 
 PCOD9563723
Probable space group: P 4/N N C
;
_chemical_formula_sum "Si O2"
_cell_formula_units_Z 56
_cell_length_a 18.141327
_cell_length_b 18.141327
_cell_length_c 8.040546
_cell_angle_alpha 90.000000
_cell_angle_beta 90.000000
_cell_angle_gamma 90.000000
_cell_volume 2646.205965
_symmetry_space_group_name_H-M "P 4/N N C"
_symmetry_group_IT_number 126
_space_group.IT_coordinate_system_code '2'
_symmetry_cell_setting 'tetragonal'
loop_
_space_group_symop_operation_xyz
x,y,z
1/2-y,x,z
1/2-x,1/2-y,z
y,1/2-x,z
x,1/2-y,1/2-z
1/2-x,y,1/2-z
y,x,1/2-z
1/2-y,1/2-x,1/2-z
-x,-y,-z
1/2+y,-x,-z
1/2+x,1/2+y,-z
-y,1/2+x,-z
-x,1/2+y,1/2+z
1/2+x,-y,1/2+z
-y,-x,1/2+z
1/2+y,1/2+x,1/2+z
loop_
_atom_site_type_symbol
_atom_site_label
_atom_site_fract_x
_atom_site_fract_y
_atom_site_fract_z
Si Si1 0.596370 0.304045 0.109291
Si Si2 0.525391 0.922686 0.575319
Si Si3 0.659544 0.674287 0.051866
Si Si4 0.136621 0.750000 0.250000
O O1 0.564102 0.250000 0.250000
O O2 0.548633 0.376884 0.103465
O O3 0.679164 0.320337 0.175664
O O4 0.595970 0.275413 0.919069
O O5 0.561467 0.938534 0.750000
O O6 0.588177 0.875518 0.482145
O O7 0.500000 0.000000 0.500000
O O8 0.741038 0.648586 0.989978
O O9 0.670985 0.670985 0.250000
#
# Coordination Sequence:
#
# PCOD9563723 Si02
#       4
#    16  16  16   8
#     4  12  27  45  74 108 146 195 244 303 375 448
#     4  12  28  46  67 100 147 186 241 304 372 440
#     4   9  21  44  75 104 136 184 238 295 365 441
#     4  12  25  46  76 104 144 189 244 298 365 454
#
# _framework density 21.162374
#
# number of rings (size 3 to 8) (size 9 to 14) (size 15 to 20)
#    0.000    0.857    2.857    3.857    4.000    2.286 
#    0.000    1.429    0.000    0.000    0.000    0.000 
#    0.000    0.000    0.000    0.000    0.000    0.000 
#
# Total GULP energy -312383.389388 kJ/mol
# GULP energy per Si atom -5578.274810 kJ/mol
# Density = 2.111421 g / cm^3
# Si number density = 21.162374 Si / 1000 Ang^3
#
#
#
# Elastic Constant Matrix: (Units=GPa)
#
#
# Indices 1 2 3 4 5 6 
#
# 1 122.9240 88.8754 21.2042 0.0000 0.0000 0.0000
# 2 88.8754 122.9246 21.2041 0.0000 0.0000 0.0000
# 3 21.2042 21.2041 117.1506 0.0000 0.0000 0.0000
# 4 0.0000 0.0000 0.0000 22.5740 0.0000 0.0000
# 5 0.0000 0.0000 0.0000 0.0000 22.5723 0.0000
# 6 0.0000 0.0000 0.0000 0.0000 0.0000 60.8141
#
#
#
# Elastic Compliance Matrix: (Units=1/GPa)
#
#
# Indices 1 2 3 4 5 6 
#
# 1 0.017134 -0.012235 -0.000887 0.000000 0.000000 0.000000
# 2 -0.012235 0.017134 -0.000887 0.000000 0.000000 0.000000
# 3 -0.000887 -0.000887 0.008857 0.000000 0.000000 0.000000
# 4 0.000000 0.000000 0.000000 0.044299 0.000000 0.000000
# 5 0.000000 0.000000 0.000000 0.000000 0.044302 0.000000
# 6 0.000000 0.000000 0.000000 0.000000 0.000000 0.016444
#
#
# Mechanical properties :
#
#
# Convention : Reuss Voigt Hill
#
# Bulk Modulus (GPa) = 66.18952 69.50741 67.84847
# Shear Modulus (GPa) = 27.59025 36.63977 32.11501
#
# Velocity S-wave (km/s) = 3.61465 4.16548 3.89980
# Velocity P-wave (km/s) = 6.98325 7.48673 7.23937
#
# Compressibility (1/GPa) = 0.01510813
#
# Stress axis : x y z
#
# Youngs Moduli (GPa) = 58.36246 58.36279 112.90486
#
# Poissons Ratio (x) = 0.71408 0.10012
# Poissons Ratio (y) = 0.71408 0.10011
# Poissons Ratio (z) = 0.05175 0.05175
#
# Static dielectric constant tensor:
#      x y z
#    x 1.562790 0.000000 0.000000 
#    y 0.000000 1.562780 0.000000 
#    z 0.000000 0.000000 1.810080 
# 
# From -- ./inp_files/1237.got.cif
#   From: 2010.05.17/outbox.cif.g08.bks.cpg/sg126_1_cif.got.tgz:1237.got - 2010.05.20 11:58:20.
