data_PCOD9563289
_publ_section_title
;
Structure prediction by ZEFSAII (Michael W. Deem and Ramdas Pophale) SiO2 
 PCOD9563289
Probable space group: P 4/N N C
;
_chemical_formula_sum "Si O2"
_cell_formula_units_Z 80
_cell_length_a 28.592637
_cell_length_b 28.592637
_cell_length_c 5.686304
_cell_angle_alpha 90.000000
_cell_angle_beta 90.000000
_cell_angle_gamma 90.000000
_cell_volume 4648.774664
_symmetry_space_group_name_H-M "P 4/N N C"
_symmetry_group_IT_number 126
_space_group.IT_coordinate_system_code '2'
_symmetry_cell_setting 'tetragonal'
loop_
_space_group_symop_operation_xyz
x,y,z
1/2-y,x,z
1/2-x,1/2-y,z
y,1/2-x,z
x,1/2-y,1/2-z
1/2-x,y,1/2-z
y,x,1/2-z
1/2-y,1/2-x,1/2-z
-x,-y,-z
1/2+y,-x,-z
1/2+x,1/2+y,-z
-y,1/2+x,-z
-x,1/2+y,1/2+z
1/2+x,-y,1/2+z
-y,-x,1/2+z
1/2+y,1/2+x,1/2+z
loop_
_atom_site_type_symbol
_atom_site_label
_atom_site_fract_x
_atom_site_fract_y
_atom_site_fract_z
Si Si1 0.463765 0.342336 0.482498
Si Si2 0.966184 0.750000 0.750000
Si Si3 0.416679 0.083322 0.750000
Si Si4 0.295471 0.967104 0.859254
Si Si5 0.088472 0.618954 0.556160
Si Si6 0.004842 0.427319 0.358351
O O1 0.443582 0.296636 0.354338
O O2 0.422645 0.368604 0.615940
O O3 0.504338 0.324251 0.659938
O O4 0.485108 0.383304 0.316768
O O5 0.997010 0.727919 0.540910
O O6 0.460764 0.080734 0.576703
O O7 0.250000 0.941718 0.750000
O O8 0.331902 0.936002 0.000365
O O9 0.118662 0.609557 0.319562
O O10 0.048476 0.578379 0.564267
O O11 0.023960 0.476041 0.250000
#
# Coordination Sequence:
#
# PCOD9563289 Si02
#       6
#    16   8   8  16  16  16
#     4  10  17  32  50  76  96 141 188 243 270 330
#     4  10  18  30  58  70  96 128 201 223 288 322
#     4  10  18  30  52  66 108 138 202 225 278 306
#     4  10  21  36  56  75 102 141 185 230 281 339
#     4  12  25  38  54  79 113 143 189 242 282 325
#     4  10  21  34  49  68 107 152 193 227 271 314
#
# _framework density 17.208838
#
# number of rings (size 3 to 8) (size 9 to 14) (size 15 to 20)
#    0.000    1.600    4.000    1.200    5.600    0.800 
#    0.000    0.000    0.000    0.000    0.000    0.000 
#    0.000    2.400    0.000    0.000    0.000 3605.000 
#
# Total GULP energy -445956.200693 kJ/mol
# GULP energy per Si atom -5574.452509 kJ/mol
# Density = 1.716967 g / cm^3
# Si number density = 17.208838 Si / 1000 Ang^3
#
#
#
# Elastic Constant Matrix: (Units=GPa)
#
#
# Indices 1 2 3 4 5 6 
#
# 1 59.5156 -5.2944 24.8336 0.0000 0.0000 0.0000
# 2 -5.2944 59.5153 24.8332 0.0000 0.0000 0.0000
# 3 24.8336 24.8332 100.0329 0.0000 0.0000 0.0000
# 4 0.0000 0.0000 0.0000 17.0982 0.0000 0.0000
# 5 0.0000 0.0000 0.0000 0.0000 17.0993 0.0000
# 6 0.0000 0.0000 0.0000 0.0000 0.0000 12.8374
#
#
#
# Elastic Compliance Matrix: (Units=1/GPa)
#
#
# Indices 1 2 3 4 5 6 
#
# 1 0.019651 0.004221 -0.005926 0.000000 0.000000 0.000000
# 2 0.004221 0.019651 -0.005926 0.000000 0.000000 0.000000
# 3 -0.005926 -0.005926 0.012939 0.000000 0.000000 0.000000
# 4 0.000000 0.000000 0.000000 0.058486 0.000000 0.000000
# 5 0.000000 0.000000 0.000000 0.000000 0.058482 0.000000
# 6 0.000000 0.000000 0.000000 0.000000 0.000000 0.077898
#
#
# Mechanical properties :
#
#
# Convention : Reuss Voigt Hill
#
# Bulk Modulus (GPa) = 27.04362 34.20097 30.62230
# Shear Modulus (GPa) = 18.20207 21.05307 19.62757
#
# Velocity S-wave (km/s) = 3.25578 3.50149 3.38087
# Velocity P-wave (km/s) = 5.46650 6.02200 5.75096
#
# Compressibility (1/GPa) = 0.03697730
#
# Stress axis : x y z
#
# Youngs Moduli (GPa) = 50.88917 50.88909 77.28541
#
# Poissons Ratio (x) = -0.21479 0.45800
# Poissons Ratio (y) = -0.21479 0.45800
# Poissons Ratio (z) = 0.30158 0.30157
#
# Static dielectric constant tensor:
#      x y z
#    x 1.584550 0.000000 0.000000 
#    y 0.000000 1.584550 0.000000 
#    z 0.000000 0.000000 1.872690 
# 
# From -- ./inp_files/628.got.cif
#   From: 2010.05.17/outbox.cif.g08.bks.cpg/sg126_1_cif.got.tgz:628.got - 2010.05.20 11:58:20.
