data_PCOD9563418
_publ_section_title
;
Structure prediction by ZEFSAII (Michael W. Deem and Ramdas Pophale) SiO2 
 PCOD9563418
Probable space group: P 4/N N C
;
_chemical_formula_sum "Si O2"
_cell_formula_units_Z 96
_cell_length_a 20.886134
_cell_length_b 20.886134
_cell_length_c 8.760229
_cell_angle_alpha 90.000000
_cell_angle_beta 90.000000
_cell_angle_gamma 90.000000
_cell_volume 3821.479896
_symmetry_space_group_name_H-M "P 4/N N C"
_symmetry_group_IT_number 126
_space_group.IT_coordinate_system_code '2'
_symmetry_cell_setting 'tetragonal'
loop_
_space_group_symop_operation_xyz
x,y,z
1/2-y,x,z
1/2-x,1/2-y,z
y,1/2-x,z
x,1/2-y,1/2-z
1/2-x,y,1/2-z
y,x,1/2-z
1/2-y,1/2-x,1/2-z
-x,-y,-z
1/2+y,-x,-z
1/2+x,1/2+y,-z
-y,1/2+x,-z
-x,1/2+y,1/2+z
1/2+x,-y,1/2+z
-y,-x,1/2+z
1/2+y,1/2+x,1/2+z
loop_
_atom_site_type_symbol
_atom_site_label
_atom_site_fract_x
_atom_site_fract_y
_atom_site_fract_z
Si Si1 0.089903 0.410098 0.750000
Si Si2 0.460342 0.298553 0.548661
Si Si3 0.970648 0.097164 0.968537
Si Si4 0.234653 0.903055 0.584872
Si Si5 0.611153 0.250000 0.250000
Si Si6 0.369730 0.982829 0.303912
Si Si7 0.740284 0.647483 0.568324
O O1 0.157429 0.425985 0.670858
O O2 0.084266 0.467291 0.870165
O O3 0.533910 0.281095 0.582197
O O4 0.458918 0.335003 0.385887
O O5 0.420133 0.235016 0.514145
O O6 0.934015 0.163652 0.923491
O O7 0.917738 0.044645 0.928966
O O8 0.991707 0.096578 0.143768
O O9 0.250000 0.871212 0.750000
O O10 0.245023 0.863240 0.426312
O O11 0.567629 0.313408 0.263807
O O12 0.805598 0.683648 0.522502
O O13 0.750000 0.642934 0.750000
#
# Coordination Sequence:
#
# PCOD9563418 Si02
#       7
#     8  16  16  16   8  16  16
#     4  12  26  40  56  95 130 172 214 265 334 406
#     4  11  24  39  64  91 129 167 222 270 330 406
#     4  11  24  40  63  91 128 168 209 269 330 391
#     4  10  20  39  62  87 123 165 209 259 314 390
#     4   8  20  38  64  92 121 157 214 248 310 388
#     4  10  23  42  65  94 127 167 214 265 324 405
#     4   9  21  38  59  87 121 166 224 284 334 377
#
# _framework density 25.121157
#
# number of rings (size 3 to 8) (size 9 to 14) (size 15 to 20)
#    0.000    1.833    1.667    1.500   11.667    4.667 
#    0.000    0.000    0.000    1.000    0.000    0.583 
#    0.000    0.000    0.000    0.000    0.000    0.000 
#
# Total GULP energy -536719.643517 kJ/mol
# GULP energy per Si atom -5590.829620 kJ/mol
# Density = 2.506398 g / cm^3
# Si number density = 25.121157 Si / 1000 Ang^3
#
#
#
# Elastic Constant Matrix: (Units=GPa)
#
#
# Indices 1 2 3 4 5 6 
#
# 1 192.3700 -136.3333 29.5407 0.0000 0.0000 0.0000
# 2 -136.3333 192.4056 29.4763 0.0000 0.0000 0.0000
# 3 29.5407 29.4763 169.3053 0.0000 0.0000 0.0000
# 4 0.0000 0.0000 0.0000 35.8557 0.0000 0.0000
# 5 0.0000 0.0000 0.0000 0.0000 35.8549 0.0000
# 6 0.0000 0.0000 0.0000 0.0000 0.0000 18.8558
#
#
#
# Elastic Compliance Matrix: (Units=1/GPa)
#
#
# Indices 1 2 3 4 5 6 
#
# 1 0.012448 0.009404 -0.003809 0.000000 0.000000 0.000000
# 2 0.009404 0.012444 -0.003807 0.000000 0.000000 0.000000
# 3 -0.003809 -0.003807 0.007234 0.000000 0.000000 0.000000
# 4 0.000000 0.000000 0.000000 0.027890 0.000000 0.000000
# 5 0.000000 0.000000 0.000000 0.000000 0.027890 0.000000
# 6 0.000000 0.000000 0.000000 0.000000 0.000000 0.053034
#
#
# Mechanical properties :
#
#
# Convention : Reuss Voigt Hill
#
# Bulk Modulus (GPa) = 28.01139 44.38314 36.19727
# Shear Modulus (GPa) = 33.49762 60.20643 46.85202
#
# Velocity S-wave (km/s) = 3.65559 4.90086 4.32330
# Velocity P-wave (km/s) = 5.38447 7.05199 6.27388
#
# Compressibility (1/GPa) = 0.03569976
#
# Stress axis : x y z
#
# Youngs Moduli (GPa) = 80.33703 80.36195 138.23725
#
# Poissons Ratio (x) = -0.75569 0.52655
# Poissons Ratio (y) = -0.75545 0.52630
# Poissons Ratio (z) = 0.30601 0.30596
#
# Static dielectric constant tensor:
#      x y z
#    x 2.006860 0.000000 0.000000 
#    y 0.000000 2.006870 0.000000 
#    z 0.000000 0.000000 2.075460 
# 
# From -- ./inp_files/1825.got.cif
#   From: 2010.05.17/outbox.cif.g08.bks.cpg/sg126_1_cif.got.tgz:1825.got - 2010.05.20 11:58:20.
