data_PCOD9563109
_publ_section_title
;
Structure prediction by ZEFSAII (Michael W. Deem and Ramdas Pophale) SiO2 
 PCOD9563109
Probable space group: P 4/N B M
;
_chemical_formula_sum "Si O2"
_cell_formula_units_Z 58
_cell_length_a 12.425898
_cell_length_b 12.425898
_cell_length_c 19.281479
_cell_angle_alpha 90.000000
_cell_angle_beta 90.000000
_cell_angle_gamma 90.000000
_cell_volume 2977.117066
_symmetry_space_group_name_H-M "P 4/N B M"
_symmetry_group_IT_number 125
_space_group.IT_coordinate_system_code '2'
_symmetry_cell_setting 'tetragonal'
loop_
_space_group_symop_operation_xyz
x,y,z
1/2-y,x,z
1/2-x,1/2-y,z
y,1/2-x,z
x,1/2-y,-z
1/2-x,y,-z
y,x,-z
1/2-y,1/2-x,-z
-x,-y,-z
1/2+y,-x,-z
1/2+x,1/2+y,-z
-y,1/2+x,-z
-x,1/2+y,z
1/2+x,-y,z
-y,-x,z
1/2+y,1/2+x,z
loop_
_atom_site_type_symbol
_atom_site_label
_atom_site_fract_x
_atom_site_fract_y
_atom_site_fract_z
Si Si1 0.499086 0.828740 0.845033
Si Si2 0.250000 0.750000 0.500000
Si Si3 0.662390 0.337611 0.634864
Si Si4 0.361977 0.468456 0.941026
Si Si5 0.073251 0.221015 0.692766
O O1 0.386756 0.886756 0.829615
O O2 0.581016 0.917673 0.873845
O O3 0.490778 0.748769 0.910085
O O4 0.546715 0.780623 0.774923
O O5 0.178679 0.678679 0.552221
O O6 0.750000 0.250000 0.664390
O O7 0.541048 0.305658 0.656713
O O8 0.430161 0.569840 0.967027
O O9 0.377261 0.377261 0.000000
O O10 0.163822 0.129545 0.677144
#
# Coordination Sequence:
#
# PCOD9563109 Si02
#       5
#    16   2   8  16  16
#     4  11  21  36  59  88 124 167 226 285 343 411
#     4   8  24  52  72 116 132 192 230 256 356 420
#     4  10  24  45  76 102 142 182 230 278 346 418
#     4  10  22  38  55  80 120 172 224 283 348 406
#     4  11  23  40  66 106 147 186 236 292 350 418
#
# _framework density 19.481936000000001
#
# number of rings (size 3 to 8) (size 9 to 14) (size 15 to 20)
#    0.414    1.103    4.138    0.828    1.931    2.207 
#    0.000    4.138    0.000    6.621    0.000    0.000 
#    0.000    0.000    0.000    0.000    0.000    0.000 
#
# Total GULP energy -322968.626672 kJ/mol
# GULP energy per Si atom -5568.424598 kJ/mol
# Density = 1.943759 g / cm^3
# Si number density = 19.481936 Si / 1000 Ang^3
#
#
#
# Elastic Constant Matrix: (Units=GPa)
#
#
# Indices 1 2 3 4 5 6 
#
# 1 133.3500 75.8585 38.5681 0.0000 0.0000 0.0000
# 2 75.8585 133.3500 38.5681 0.0000 0.0000 0.0000
# 3 38.5681 38.5681 92.0301 0.0000 0.0000 0.0000
# 4 0.0000 0.0000 0.0000 30.4620 0.0000 0.0000
# 5 0.0000 0.0000 0.0000 0.0000 30.4620 0.0000
# 6 0.0000 0.0000 0.0000 0.0000 0.0000 20.0987
#
#
#
# Elastic Compliance Matrix: (Units=1/GPa)
#
#
# Indices 1 2 3 4 5 6 
#
# 1 0.011524 -0.005870 -0.002369 0.000000 0.000000 0.000000
# 2 -0.005870 0.011524 -0.002369 0.000000 0.000000 0.000000
# 3 -0.002369 -0.002369 0.012852 0.000000 0.000000 0.000000
# 4 0.000000 0.000000 0.000000 0.032828 0.000000 0.000000
# 5 0.000000 0.000000 0.000000 0.000000 0.032828 0.000000
# 6 0.000000 0.000000 0.000000 0.000000 0.000000 0.049754
#
#
# Mechanical properties :
#
#
# Convention : Reuss Voigt Hill
#
# Bulk Modulus (GPa) = 68.11186 73.85773 70.98479
# Shear Modulus (GPa) = 28.18162 29.92023 29.05092
#
# Velocity S-wave (km/s) = 3.80748 3.92317 3.86576
# Velocity P-wave (km/s) = 7.37338 7.64950 7.51271
#
# Compressibility (1/GPa) = 0.01468173
#
# Stress axis : x y z
#
# Youngs Moduli (GPa) = 86.77777 86.77777 77.80982
#
# Poissons Ratio (x) = 0.50940 0.18435
# Poissons Ratio (y) = 0.50940 0.18435
# Poissons Ratio (z) = 0.20560 0.20560
#
# Static dielectric constant tensor:
#      x y z
#    x 1.741810 0.000000 0.000000 
#    y 0.000000 1.741810 0.000000 
#    z 0.000000 0.000000 1.674620 
# 
# From -- ./inp_files/5745.got.cif
#   From: 2010.05.17/outbox.cif.g08.bks.cpg/sg125_3_cif.got.tgz:5745.got - 2010.05.20 11:54:10.
