data_PCOD9563613
_publ_section_title
;
Structure prediction by ZEFSAII (Michael W. Deem and Ramdas Pophale) SiO2 
 PCOD9563613
Probable space group: P 4/N N C
;
_chemical_formula_sum "Si O2"
_cell_formula_units_Z 32
_cell_length_a 12.953573
_cell_length_b 12.953573
_cell_length_c 7.125251
_cell_angle_alpha 90.000000
_cell_angle_beta 90.000000
_cell_angle_gamma 90.000000
_cell_volume 1195.581873
_symmetry_space_group_name_H-M "P 4/N N C"
_symmetry_group_IT_number 126
_space_group.IT_coordinate_system_code '2'
_symmetry_cell_setting 'tetragonal'
loop_
_space_group_symop_operation_xyz
x,y,z
1/2-y,x,z
1/2-x,1/2-y,z
y,1/2-x,z
x,1/2-y,1/2-z
1/2-x,y,1/2-z
y,x,1/2-z
1/2-y,1/2-x,1/2-z
-x,-y,-z
1/2+y,-x,-z
1/2+x,1/2+y,-z
-y,1/2+x,-z
-x,1/2+y,1/2+z
1/2+x,-y,1/2+z
-y,-x,1/2+z
1/2+y,1/2+x,1/2+z
loop_
_atom_site_type_symbol
_atom_site_label
_atom_site_fract_x
_atom_site_fract_y
_atom_site_fract_z
Si Si1 0.098709 0.697130 0.050622
Si Si2 0.843822 0.885340 0.027067
O O1 0.071624 0.750000 0.250000
O O2 0.003036 0.627514 0.984782
O O3 0.130360 0.797906 0.932023
O O4 0.723694 0.886718 0.959787
O O5 0.865346 0.865346 0.250000
#
# Coordination Sequence:
#
# PCOD9563613 Si02
#       2
#    16  16
#     4  11  22  37  57  84 120 155 189 238 286 338
#     4   9  17  35  60  82 111 148 195 236 281 339
#
# _framework density 26.765208999999999
#
# number of rings (size 3 to 8) (size 9 to 14) (size 15 to 20)
#    0.000    2.000    5.000    4.500    0.000    2.000 
#    0.000    0.000    0.000    0.000    0.000   14.000 
#    0.000    0.000    0.000    0.000    0.000    0.000 
#
# Total GULP energy -178278.389399 kJ/mol
# GULP energy per Si atom -5571.199669 kJ/mol
# Density = 2.670429 g / cm^3
# Si number density = 26.765209 Si / 1000 Ang^3
#
#
#
# Elastic Constant Matrix: (Units=GPa)
#
#
# Indices 1 2 3 4 5 6 
#
# 1 168.0153 28.5356 18.0429 0.0000 0.0000 0.0000
# 2 28.5356 168.0153 18.0429 0.0000 0.0000 0.0000
# 3 18.0429 18.0429 62.6523 0.0000 0.0000 0.0000
# 4 0.0000 0.0000 0.0000 4.0755 0.0000 0.0000
# 5 0.0000 0.0000 0.0000 0.0000 4.0755 0.0000
# 6 0.0000 0.0000 0.0000 0.0000 0.0000 -5.0188
#
#
#
# Elastic Compliance Matrix: (Units=1/GPa)
#
#
# Indices 1 2 3 4 5 6 
#
# 1 0.006271 -0.000899 -0.001547 0.000000 0.000000 0.000000
# 2 -0.000899 0.006271 -0.001547 0.000000 0.000000 0.000000
# 3 -0.001547 -0.001547 0.016852 0.000000 0.000000 0.000000
# 4 0.000000 0.000000 0.000000 0.245371 0.000000 0.000000
# 5 0.000000 0.000000 0.000000 0.000000 0.245371 0.000000
# 6 0.000000 0.000000 0.000000 0.000000 0.000000 -0.199252
#
#
# Mechanical properties :
#
#
# Convention : Reuss Voigt Hill
#
# Bulk Modulus (GPa) = 46.71217 58.65844 52.68530
# Shear Modulus (GPa) = 14.88073 22.89720 18.88896
#
# Velocity S-wave (km/s) = 2.36047 2.92804 2.65944
# Velocity P-wave (km/s) = 4.99195 5.77882 5.39973
#
# Compressibility (1/GPa) = 0.02140770
#
# Stress axis : x y z
#
# Youngs Moduli (GPa) = 159.47361 159.47361 59.33969
#
# Poissons Ratio (x) = 0.14335 0.09180
# Poissons Ratio (y) = 0.14335 0.09180
# Poissons Ratio (z) = 0.24670 0.24670
#
# Static dielectric constant tensor:
#      x y z
#    x 2.107680 0.000000 0.000000 
#    y 0.000000 2.107680 0.000000 
#    z 0.000000 0.000000 2.261290 
# 
# From -- ./inp_files/794.got.cif
#   From: 2010.05.17/outbox.cif.g08.bks.cpg/sg126_1_cif.got.tgz:794.got - 2010.05.20 11:58:20.
