data_PCOD9563307
_publ_section_title
;
Structure prediction by ZEFSAII (Michael W. Deem and Ramdas Pophale) SiO2 
 PCOD9563307
Probable space group: P 4/N N C
;
_chemical_formula_sum "Si O2"
_cell_formula_units_Z 64
_cell_length_a 19.330603
_cell_length_b 19.330603
_cell_length_c 9.235751
_cell_angle_alpha 90.000000
_cell_angle_beta 90.000000
_cell_angle_gamma 90.000000
_cell_volume 3451.143509
_symmetry_space_group_name_H-M "P 4/N N C"
_symmetry_group_IT_number 126
_space_group.IT_coordinate_system_code '2'
_symmetry_cell_setting 'tetragonal'
loop_
_space_group_symop_operation_xyz
x,y,z
1/2-y,x,z
1/2-x,1/2-y,z
y,1/2-x,z
x,1/2-y,1/2-z
1/2-x,y,1/2-z
y,x,1/2-z
1/2-y,1/2-x,1/2-z
-x,-y,-z
1/2+y,-x,-z
1/2+x,1/2+y,-z
-y,1/2+x,-z
-x,1/2+y,1/2+z
1/2+x,-y,1/2+z
-y,-x,1/2+z
1/2+y,1/2+x,1/2+z
loop_
_atom_site_type_symbol
_atom_site_label
_atom_site_fract_x
_atom_site_fract_y
_atom_site_fract_z
Si Si1 0.876907 0.505177 0.278301
Si Si2 0.041867 0.566207 0.939706
Si Si3 0.587661 0.912340 0.750000
Si Si4 0.250000 0.101293 0.750000
Si Si5 0.303600 0.348053 0.448589
O O1 0.938191 0.561810 0.250000
O O2 0.887234 0.457327 0.418493
O O3 0.887532 0.457620 0.136381
O O4 0.809223 0.550142 0.307833
O O5 0.988032 0.595002 0.820465
O O6 0.000000 0.500000 0.000000
O O7 0.596944 0.853567 0.626098
O O8 0.209828 0.141755 0.621071
O O9 0.223758 0.340424 0.404568
#
# Coordination Sequence:
#
# PCOD9563307 Si02
#       5
#    16  16   8   8  16
#     4  10  20  34  55  79 108 150 192 244 298 351
#     4  10  18  34  54  78 103 142 193 247 310 348
#     4  12  20  33  58  76 110 152 207 252 298 340
#     4  12  22  35  56  80 118 159 212 236 298 356
#     4  11  23  36  50  77 120 173 208 235 271 343
#
# _framework density 18.544577
#
# number of rings (size 3 to 8) (size 9 to 14) (size 15 to 20)
#    0.000    1.250    3.750    7.500    0.000    2.000 
#    0.000    0.000    0.000    0.000    0.000    0.000 
#    0.000    3.000    0.000    0.000    0.000    0.000 
#
# Total GULP energy -356339.347532 kJ/mol
# GULP energy per Si atom -5567.802305 kJ/mol
# Density = 1.850237 g / cm^3
# Si number density = 18.544577 Si / 1000 Ang^3
#
#
#
# Elastic Constant Matrix: (Units=GPa)
#
#
# Indices 1 2 3 4 5 6 
#
# 1 30.2598 22.2309 18.5791 0.0000 0.0000 0.0000
# 2 22.2309 30.2599 18.5794 0.0000 0.0000 0.0000
# 3 18.5791 18.5794 92.5410 0.0000 0.0000 0.0000
# 4 0.0000 0.0000 0.0000 38.4340 0.0000 0.0000
# 5 0.0000 0.0000 0.0000 0.0000 38.4340 0.0000
# 6 0.0000 0.0000 0.0000 0.0000 0.0000 20.3770
#
#
#
# Elastic Compliance Matrix: (Units=1/GPa)
#
#
# Indices 1 2 3 4 5 6 
#
# 1 0.073378 -0.051171 -0.004458 0.000000 0.000000 0.000000
# 2 -0.051171 0.073378 -0.004459 0.000000 0.000000 0.000000
# 3 -0.004458 -0.004459 0.012596 0.000000 0.000000 0.000000
# 4 0.000000 0.000000 0.000000 0.026019 0.000000 0.000000
# 5 0.000000 0.000000 0.000000 0.000000 0.026019 0.000000
# 6 0.000000 0.000000 0.000000 0.000000 0.000000 0.049075
#
#
# Mechanical properties :
#
#
# Convention : Reuss Voigt Hill
#
# Bulk Modulus (GPa) = 25.52539 30.20437 27.86488
# Shear Modulus (GPa) = 12.70005 25.69378 19.19691
#
# Velocity S-wave (km/s) = 2.61978 3.72629 3.22091
# Velocity P-wave (km/s) = 4.79012 5.90224 5.37502
#
# Compressibility (1/GPa) = 0.03917668
#
# Stress axis : x y z
#
# Youngs Moduli (GPa) = 13.62804 13.62804 79.38873
#
# Poissons Ratio (x) = 0.69736 0.35394
# Poissons Ratio (y) = 0.69736 0.35397
# Poissons Ratio (z) = 0.06076 0.06076
#
# Static dielectric constant tensor:
#      x y z
#    x 1.658470 0.000000 0.000000 
#    y 0.000000 1.658470 0.000000 
#    z 0.000000 0.000000 1.822830 
# 
# From -- ./inp_files/1512.got.cif
#   From: 2010.05.17/outbox.cif.g08.bks.cpg/sg126_1_cif.got.tgz:1512.got - 2010.05.20 11:58:20.
