data_PCOD9563805
_publ_section_title
;
Structure prediction by ZEFSAII (Michael W. Deem and Ramdas Pophale) SiO2 
 PCOD9563805
Probable space group: P 4/M B M
;
_chemical_formula_sum "Si O2"
_cell_formula_units_Z 96
_cell_length_a 25.417046
_cell_length_b 25.417046
_cell_length_c 7.786155
_cell_angle_alpha 90.000000
_cell_angle_beta 90.000000
_cell_angle_gamma 90.000000
_cell_volume 5030.060340
_symmetry_space_group_name_H-M "P 4/M B M"
_symmetry_group_IT_number 127
_symmetry_cell_setting 'tetragonal'
loop_
_space_group_symop_operation_xyz
x,y,z
-y,x,z
-x,-y,z
y,-x,z
1/2+x,1/2-y,-z
1/2-x,1/2+y,-z
1/2+y,1/2+x,-z
1/2-y,1/2-x,-z
-x,-y,-z
y,-x,-z
x,y,-z
-y,x,-z
1/2-x,1/2+y,z
1/2+x,1/2-y,z
1/2-y,1/2-x,z
1/2+y,1/2+x,z
loop_
_atom_site_type_symbol
_atom_site_label
_atom_site_fract_x
_atom_site_fract_y
_atom_site_fract_z
Si Si1 0.893347 0.393347 0.796168
Si Si2 0.689345 0.106913 0.701713
Si Si3 0.143385 0.805649 0.207969
Si Si4 0.806709 0.306709 0.701880
Si Si5 0.525238 0.716197 0.209590
Si Si6 0.004036 0.662953 0.207963
Si Si7 0.412877 0.693444 0.198103
O O1 0.848531 0.348531 0.777858
O O2 0.873657 0.449112 0.727129
O O3 0.900331 0.400331 0.000000
O O4 0.700986 0.113410 0.500000
O O5 0.657248 0.157248 0.763761
O O6 0.654532 0.054553 0.724960
O O7 0.743987 0.097572 0.796915
O O8 0.176226 0.752911 0.251733
O O9 0.082767 0.801615 0.266583
O O10 0.167368 0.860582 0.274425
O O11 0.143324 0.807262 0.000000
O O12 0.811698 0.311698 0.500000
O O13 0.519337 0.777383 0.256626
O O14 0.471982 0.687215 0.271937
O O15 0.524475 0.713652 0.000000
O O16 0.002306 0.660744 0.000000
O O17 0.415818 0.675815 0.000000
#
# Coordination Sequence:
#
# PCOD9563805 Si02
#       7
#     8  16  16   8  16  16  16
#     4  10  18  34  55  75 100 131 166 210 259 301
#     4  10  21  35  49  67  99 137 168 207 259 304
#     4  10  19  34  54  74 103 137 170 210 254 302
#     4  12  24  32  46  77 113 136 164 206 255 314
#     4   8  14  29  51  73  96 125 164 207 246 290
#     4   9  17  31  53  74  94 126 170 212 249 299
#     4   9  19  33  53  77  96 130 177 211 246 301
#
# _framework density 19.085258
#
# number of rings (size 3 to 8) (size 9 to 14) (size 15 to 20)
#    0.000    2.500    1.667    2.250    1.167    2.667 
#    0.000    0.417    0.000    3.000    0.000    3.500 
#    0.000    0.000    0.000    5.833    0.000    7.333 
#
# Total GULP energy -535022.067492 kJ/mol
# GULP energy per Si atom -5573.146536 kJ/mol
# Density = 1.904182 g / cm^3
# Si number density = 19.085258 Si / 1000 Ang^3
#
#
#
# Elastic Constant Matrix: (Units=GPa)
#
#
# Indices 1 2 3 4 5 6 
#
# 1 84.5202 52.1158 -7.3373 0.0000 0.0000 0.0000
# 2 52.1158 84.5202 -7.3373 0.0000 0.0000 0.0000
# 3 -7.3373 -7.3373 20.7310 0.0000 0.0000 0.0000
# 4 0.0000 0.0000 0.0000 -60.5763 0.0000 0.0000
# 5 0.0000 0.0000 0.0000 0.0000 -60.5763 0.0000
# 6 0.0000 0.0000 0.0000 0.0000 0.0000 28.3208
#
#
#
# Elastic Compliance Matrix: (Units=1/GPa)
#
#
# Indices 1 2 3 4 5 6 
#
# 1 0.019234 -0.011626 0.002693 0.000000 0.000000 0.000000
# 2 -0.011626 0.019234 0.002693 0.000000 0.000000 0.000000
# 3 0.002693 0.002693 0.050143 0.000000 0.000000 0.000000
# 4 0.000000 0.000000 0.000000 -0.016508 0.000000 0.000000
# 5 0.000000 0.000000 0.000000 0.000000 -0.016508 0.000000
# 6 0.000000 0.000000 0.000000 0.000000 0.000000 0.035310
#
#
# Mechanical properties :
#
#
# Convention : Reuss Voigt Hill
#
# Bulk Modulus (GPa) = 13.13550 29.40597 21.27073
# Shear Modulus (GPa) = 38.83122 -8.41102 15.21010
#
# Velocity S-wave (km/s) = 4.51557 -2.10158 2.82610
# Velocity P-wave (km/s) = 5.83820 3.09068 4.67102
#
# Compressibility (1/GPa) = 0.07612956
#
# Stress axis : x y z
#
# Youngs Moduli (GPa) = 51.99146 51.99146 19.94293
#
# Poissons Ratio (x) = 0.60445 -0.05370
# Poissons Ratio (y) = 0.60445 -0.05370
# Poissons Ratio (z) = -0.14000 -0.14000
#
# Static dielectric constant tensor:
#      x y z
#    x 1.676090 0.000000 0.000000 
#    y 0.000000 1.676090 0.000000 
#    z 0.000000 0.000000 1.708300 
# 
# From -- ./inp_files/2090.got.cif
#   From: 2010.05.17/outbox.cif.g08.bks.cpg/sg127_2_cif.got.tgz:2090.got - 2010.05.20 12:03:00.
