data_PCOD9563033
_publ_section_title
;
Structure prediction by ZEFSAII (Michael W. Deem and Ramdas Pophale) SiO2 
 PCOD9563033
Probable space group: P 4/N B M
;
_chemical_formula_sum "Si O2"
_cell_formula_units_Z 72
_cell_length_a 20.019956
_cell_length_b 20.019956
_cell_length_c 10.064288
_cell_angle_alpha 90.000000
_cell_angle_beta 90.000000
_cell_angle_gamma 90.000000
_cell_volume 4033.752925
_symmetry_space_group_name_H-M "P 4/N B M"
_symmetry_group_IT_number 125
_space_group.IT_coordinate_system_code '2'
_symmetry_cell_setting 'tetragonal'
loop_
_space_group_symop_operation_xyz
x,y,z
1/2-y,x,z
1/2-x,1/2-y,z
y,1/2-x,z
x,1/2-y,-z
1/2-x,y,-z
y,x,-z
1/2-y,1/2-x,-z
-x,-y,-z
1/2+y,-x,-z
1/2+x,1/2+y,-z
-y,1/2+x,-z
-x,1/2+y,z
1/2+x,-y,z
-y,-x,z
1/2+y,1/2+x,z
loop_
_atom_site_type_symbol
_atom_site_label
_atom_site_fract_x
_atom_site_fract_y
_atom_site_fract_z
Si Si1 0.556454 0.056454 0.489385
Si Si2 0.489574 0.194130 0.887548
Si Si3 0.799102 0.045889 0.380498
Si Si4 0.059035 0.940966 0.171384
Si Si5 0.575963 0.924038 0.000000
Si Si6 0.694090 0.305911 0.263549
Si Si7 0.627682 0.372319 0.043368
O O1 0.625548 0.037440 0.564146
O O2 0.564207 0.064207 0.329483
O O3 0.500000 0.000000 0.500000
O O4 0.495365 0.218703 0.738309
O O5 0.556342 0.148722 0.898988
O O6 0.494270 0.250000 0.000000
O O7 0.430222 0.144304 0.920116
O O8 0.750000 0.034671 0.500000
O O9 0.788378 0.122228 0.328201
O O10 0.073293 0.014155 0.105753
O O11 0.112380 0.887620 0.109793
O O12 0.750000 0.250000 0.283956
O O13 0.679496 0.320505 0.106619
#
# Coordination Sequence:
#
# PCOD9563033 Si02
#       7
#     8  16  16   8   8   8   8
#     4  11  22  37  61  83 118 161 206 248 319 366
#     4  10  20  37  57  78 113 146 188 240 288 342
#     4  10  23  36  53  85 120 149 198 250 285 354
#     4   9  17  32  62  82 104 147 191 251 309 339
#     4   9  18  34  58  83 110 140 192 245 296 345
#     4   9  19  36  55  69 110 168 202 230 275 337
#     4   8  18  35  50  78 105 138 200 243 268 321
#
# _framework density 17.849381999999999
#
# number of rings (size 3 to 8) (size 9 to 14) (size 15 to 20)
#    0.000    2.444    0.000    2.667    9.333    1.778 
#    8.000    0.000    0.000    3.000    0.000    0.000 
#    0.000    0.444    0.000    0.000    0.000    0.000 
#
# Total GULP energy -401085.240496 kJ/mol
# GULP energy per Si atom -5570.628340 kJ/mol
# Density = 1.780876 g / cm^3
# Si number density = 17.849382 Si / 1000 Ang^3
#
#
#
# Elastic Constant Matrix: (Units=GPa)
#
#
# Indices 1 2 3 4 5 6 
#
# 1 33.2520 83.4022 46.3271 0.0000 0.0000 0.0000
# 2 83.4022 33.2453 46.3276 0.0000 0.0000 0.0000
# 3 46.3271 46.3276 167.5951 0.0000 0.0000 0.0000
# 4 0.0000 0.0000 0.0000 21.3194 0.0000 0.0000
# 5 0.0000 0.0000 0.0000 0.0000 21.3198 0.0000
# 6 0.0000 0.0000 0.0000 0.0000 0.0000 31.6661
#
#
#
# Elastic Compliance Matrix: (Units=1/GPa)
#
#
# Indices 1 2 3 4 5 6 
#
# 1 -0.004476 0.015462 -0.003037 0.000000 0.000000 0.000000
# 2 0.015462 -0.004478 -0.003036 0.000000 0.000000 0.000000
# 3 -0.003037 -0.003036 0.007645 0.000000 0.000000 0.000000
# 4 0.000000 0.000000 0.000000 0.046906 0.000000 0.000000
# 5 0.000000 0.000000 0.000000 0.000000 0.046905 0.000000
# 6 0.000000 0.000000 0.000000 0.000000 0.000000 0.031579
#
#
# Mechanical properties :
#
#
# Convention : Reuss Voigt Hill
#
# Bulk Modulus (GPa) = 57.24523 65.13403 61.18963
# Shear Modulus (GPa) = 44.99402 18.73011 31.86207
#
# Velocity S-wave (km/s) = 5.02616 3.24287 4.22957
# Velocity P-wave (km/s) = 8.11320 7.11279 7.62941
#
# Compressibility (1/GPa) = 0.01746870
#
# Stress axis : x y z
#
# Youngs Moduli (GPa) = -223.39001 -223.31458 130.79775
#
# Poissons Ratio (x) = 3.45279 0.39718
# Poissons Ratio (y) = 3.45396 0.39711
# Poissons Ratio (z) = -0.67834 -0.67800
#
# Static dielectric constant tensor:
#      x y z
#    x 1.592060 0.000000 0.000000 
#    y 0.000000 1.592050 0.000000 
#    z 0.000000 0.000000 1.676050 
# 
# From -- ./inp_files/2649.got.cif
#   From: 2010.05.17/outbox.cif.g08.bks.cpg/sg125_2_cif.got.tgz:2649.got - 2010.05.20 11:54:10.
