data_PCOD9563241
_publ_section_title
;
Structure prediction by ZEFSAII (Michael W. Deem and Ramdas Pophale) SiO2 
 PCOD9563241
Probable space group: P 4/N B M
;
_chemical_formula_sum "Si O2"
_cell_formula_units_Z 40
_cell_length_a 13.088296
_cell_length_b 13.088296
_cell_length_c 11.803757
_cell_angle_alpha 90.000000
_cell_angle_beta 90.000000
_cell_angle_gamma 90.000000
_cell_volume 2022.024795
_symmetry_space_group_name_H-M "P 4/N B M"
_symmetry_group_IT_number 125
_space_group.IT_coordinate_system_code '2'
_symmetry_cell_setting 'tetragonal'
loop_
_space_group_symop_operation_xyz
x,y,z
1/2-y,x,z
1/2-x,1/2-y,z
y,1/2-x,z
x,1/2-y,-z
1/2-x,y,-z
y,x,-z
1/2-y,1/2-x,-z
-x,-y,-z
1/2+y,-x,-z
1/2+x,1/2+y,-z
-y,1/2+x,-z
-x,1/2+y,z
1/2+x,-y,z
-y,-x,z
1/2+y,1/2+x,z
loop_
_atom_site_type_symbol
_atom_site_label
_atom_site_fract_x
_atom_site_fract_y
_atom_site_fract_z
Si Si1 0.285462 0.084640 0.323580
Si Si2 0.750000 0.086171 0.500000
Si Si3 0.485776 0.343176 0.074205
O O1 0.366840 0.174088 0.346848
O O2 0.300199 0.055326 0.192633
O O3 0.294320 0.986351 0.402445
O O4 0.660279 0.160279 0.455919
O O5 0.570906 0.429094 0.095267
O O6 0.527921 0.250000 0.000000
O O7 0.396294 0.396294 0.000000
#
# Coordination Sequence:
#
# PCOD9563241 Si02
#       3
#    16   8  16
#     4  11  23  41  69  97 126 167 220 273 323 386
#     4  11  26  45  64  92 134 177 216 267 330 392
#     4  11  23  40  65  96 131 172 215 264 325 387
#
# _framework density 19.782150999999999
#
# number of rings (size 3 to 8) (size 9 to 14) (size 15 to 20)
#    0.000    1.000    4.000    2.400    0.000    8.800 
#    0.000    0.000    0.000    0.000    0.000    0.000 
#    0.000    0.000    0.000    0.000    0.000    0.000 
#
# Total GULP energy -223617.066221 kJ/mol
# GULP energy per Si atom -5590.426656 kJ/mol
# Density = 1.973713 g / cm^3
# Si number density = 19.782151 Si / 1000 Ang^3
#
#
#
# Elastic Constant Matrix: (Units=GPa)
#
#
# Indices 1 2 3 4 5 6 
#
# 1 89.9374 33.8546 30.0470 0.0000 0.0000 0.0000
# 2 33.8546 89.9374 30.0470 0.0000 0.0000 0.0000
# 3 30.0470 30.0470 78.2915 0.0000 0.0000 0.0000
# 4 0.0000 0.0000 0.0000 25.1930 0.0000 0.0000
# 5 0.0000 0.0000 0.0000 0.0000 25.1930 0.0000
# 6 0.0000 0.0000 0.0000 0.0000 0.0000 11.4863
#
#
#
# Elastic Compliance Matrix: (Units=1/GPa)
#
#
# Indices 1 2 3 4 5 6 
#
# 1 0.013879 -0.003952 -0.003810 0.000000 0.000000 0.000000
# 2 -0.003952 0.013879 -0.003810 0.000000 0.000000 0.000000
# 3 -0.003810 -0.003810 0.015697 0.000000 0.000000 0.000000
# 4 0.000000 0.000000 0.000000 0.039694 0.000000 0.000000
# 5 0.000000 0.000000 0.000000 0.000000 0.039694 0.000000
# 6 0.000000 0.000000 0.000000 0.000000 0.000000 0.087060
#
#
# Mechanical properties :
#
#
# Convention : Reuss Voigt Hill
#
# Bulk Modulus (GPa) = 49.23131 49.56261 49.39696
# Shear Modulus (GPa) = 20.84925 23.32232 22.08578
#
# Velocity S-wave (km/s) = 3.24997 3.43732 3.34496
# Velocity P-wave (km/s) = 6.24691 6.39235 6.32005
#
# Compressibility (1/GPa) = 0.02031228
#
# Stress axis : x y z
#
# Youngs Moduli (GPa) = 72.05025 72.05025 63.70543
#
# Poissons Ratio (x) = 0.28471 0.24272
# Poissons Ratio (y) = 0.28471 0.24272
# Poissons Ratio (z) = 0.27452 0.27452
#
# Static dielectric constant tensor:
#      x y z
#    x 1.684080 0.000000 0.000000 
#    y 0.000000 1.684080 0.000000 
#    z 0.000000 0.000000 1.672090 
# 
# From -- ./inp_files/1638.got.cif
#   From: 2010.05.17/outbox.cif.g08.bks.cpg/sg125_1_cif.got.tgz:1638.got - 2010.05.20 11:54:10.
