data_PCOD9563704
_publ_section_title
;
Structure prediction by ZEFSAII (Michael W. Deem and Ramdas Pophale) SiO2 
 PCOD9563704
Probable space group: P 4/N N C
;
_chemical_formula_sum "Si O2"
_cell_formula_units_Z 64
_cell_length_a 11.785375
_cell_length_b 11.785375
_cell_length_c 19.259242
_cell_angle_alpha 90.000000
_cell_angle_beta 90.000000
_cell_angle_gamma 90.000000
_cell_volume 2675.013648
_symmetry_space_group_name_H-M "P 4/N N C"
_symmetry_group_IT_number 126
_space_group.IT_coordinate_system_code '2'
_symmetry_cell_setting 'tetragonal'
loop_
_space_group_symop_operation_xyz
x,y,z
1/2-y,x,z
1/2-x,1/2-y,z
y,1/2-x,z
x,1/2-y,1/2-z
1/2-x,y,1/2-z
y,x,1/2-z
1/2-y,1/2-x,1/2-z
-x,-y,-z
1/2+y,-x,-z
1/2+x,1/2+y,-z
-y,1/2+x,-z
-x,1/2+y,1/2+z
1/2+x,-y,1/2+z
-y,-x,1/2+z
1/2+y,1/2+x,1/2+z
loop_
_atom_site_type_symbol
_atom_site_label
_atom_site_fract_x
_atom_site_fract_y
_atom_site_fract_z
Si Si1 0.884007 0.439879 0.735705
Si Si2 0.813570 0.930791 0.168706
Si Si3 0.621643 0.213737 0.097374
Si Si4 0.937317 0.404871 0.957078
O O1 0.750000 0.426230 0.750000
O O2 0.619823 0.416268 0.847082
O O3 0.936506 0.563495 0.750000
O O4 0.965358 0.359396 0.782741
O O5 0.684461 0.887653 0.177992
O O6 0.833493 0.978444 0.091398
O O7 0.750000 0.250000 0.114876
O O8 0.554408 0.333338 0.092046
O O9 0.612407 0.167102 0.020261
O O10 0.000000 0.500000 0.000000
#
# Coordination Sequence:
#
# PCOD9563704 Si02
#       4
#    16  16  16  16
#     4  12  29  50  80 116 161 220 281 348 424 510
#     4  11  27  53  83 121 171 222 285 362 441 515
#     4  12  26  47  76 118 159 213 281 345 412 519
#     4  12  23  45  81 119 164 209 274 346 433 511
#
# _framework density 23.925111000000001
#
# number of rings (size 3 to 8) (size 9 to 14) (size 15 to 20)
#    0.000    0.250    5.000    3.000    3.500    3.750 
#    0.000    1.250    0.000    0.000    0.000    0.000 
#    0.000    0.000    0.000    0.000    0.000    0.000 
#
# Total GULP energy -357864.952412 kJ/mol
# GULP energy per Si atom -5591.639881 kJ/mol
# Density = 2.387066 g / cm^3
# Si number density = 23.925111 Si / 1000 Ang^3
#
#
#
# Elastic Constant Matrix: (Units=GPa)
#
#
# Indices 1 2 3 4 5 6 
#
# 1 171.1263 73.0502 84.4856 0.0000 0.0000 0.0000
# 2 73.0502 171.1240 84.4852 0.0000 0.0000 0.0000
# 3 84.4856 84.4852 183.7605 0.0000 0.0000 0.0000
# 4 0.0000 0.0000 0.0000 50.8283 0.0000 0.0000
# 5 0.0000 0.0000 0.0000 0.0000 50.8288 0.0000
# 6 0.0000 0.0000 0.0000 0.0000 0.0000 38.1663
#
#
#
# Elastic Compliance Matrix: (Units=1/GPa)
#
#
# Indices 1 2 3 4 5 6 
#
# 1 0.008101 -0.002095 -0.002761 0.000000 0.000000 0.000000
# 2 -0.002095 0.008101 -0.002761 0.000000 0.000000 0.000000
# 3 -0.002761 -0.002761 0.007981 0.000000 0.000000 0.000000
# 4 0.000000 0.000000 0.000000 0.019674 0.000000 0.000000
# 5 0.000000 0.000000 0.000000 0.000000 0.019674 0.000000
# 6 0.000000 0.000000 0.000000 0.000000 0.000000 0.026201
#
#
# Mechanical properties :
#
#
# Convention : Reuss Voigt Hill
#
# Bulk Modulus (GPa) = 111.75775 112.22807 111.99291
# Shear Modulus (GPa) = 46.31718 46.89734 46.60726
#
# Velocity S-wave (km/s) = 4.40469 4.43219 4.41846
# Velocity P-wave (km/s) = 8.52533 8.55583 8.54059
#
# Compressibility (1/GPa) = 0.00894793
#
# Stress axis : x y z
#
# Youngs Moduli (GPa) = 123.43742 123.43558 125.29614
#
# Poissons Ratio (x) = 0.25859 0.34600
# Poissons Ratio (y) = 0.25860 0.34600
# Poissons Ratio (z) = 0.34087 0.34087
#
# Static dielectric constant tensor:
#      x y z
#    x 2.019460 0.000000 0.000000 
#    y 0.000000 2.019460 0.000000 
#    z 0.000000 0.000000 1.984510 
# 
# From -- ./inp_files/4921.got.cif
#   From: 2010.05.17/outbox.cif.g08.bks.cpg/sg126_3_cif.got.tgz:4921.got - 2010.05.20 11:58:20.
