data_PCOD9563018
_publ_section_title
;
Structure prediction by ZEFSAII (Michael W. Deem and Ramdas Pophale) SiO2 
 PCOD9563018
Probable space group: P 4/N B M
;
_chemical_formula_sum "Si O2"
_cell_formula_units_Z 116
_cell_length_a 18.270745
_cell_length_b 18.270745
_cell_length_c 19.210838
_cell_angle_alpha 90.000000
_cell_angle_beta 90.000000
_cell_angle_gamma 90.000000
_cell_volume 6412.964301
_symmetry_space_group_name_H-M "P 4/N B M"
_symmetry_group_IT_number 125
_space_group.IT_coordinate_system_code '2'
_symmetry_cell_setting 'tetragonal'
loop_
_space_group_symop_operation_xyz
x,y,z
1/2-y,x,z
1/2-x,1/2-y,z
y,1/2-x,z
x,1/2-y,-z
1/2-x,y,-z
y,x,-z
1/2-y,1/2-x,-z
-x,-y,-z
1/2+y,-x,-z
1/2+x,1/2+y,-z
-y,1/2+x,-z
-x,1/2+y,z
1/2+x,-y,z
-y,-x,z
1/2+y,1/2+x,z
loop_
_atom_site_type_symbol
_atom_site_label
_atom_site_fract_x
_atom_site_fract_y
_atom_site_fract_z
Si Si1 0.785264 0.408969 0.212428
Si Si2 0.577549 0.299377 0.068692
Si Si3 0.971390 0.903708 0.216753
Si Si4 0.632559 0.872598 0.661394
Si Si5 0.082600 0.457018 0.074517
Si Si6 0.035013 0.254249 0.417704
Si Si7 0.750000 0.750000 0.702837
Si Si8 0.628878 0.253005 0.363390
O O1 0.847855 0.347855 0.207720
O O2 0.743778 0.407886 0.139648
O O3 0.827224 0.485537 0.223653
O O4 0.739506 0.389878 0.281107
O O5 0.641989 0.358012 0.057241
O O6 0.503097 0.343844 0.080292
O O7 0.572822 0.250000 0.000000
O O8 0.914266 0.911609 0.278834
O O9 0.932977 0.907835 0.141511
O O10 0.031648 0.968353 0.220054
O O11 0.682887 0.928285 0.617869
O O12 0.577269 0.824965 0.613407
O O13 0.687208 0.814639 0.696864
O O14 0.016218 0.516218 0.073581
O O15 0.081787 0.418214 0.000000
O O16 0.047126 0.250000 0.500000
O O17 0.948458 0.256505 0.401298
O O18 0.677488 0.322513 0.386233
O O19 0.681646 0.181646 0.370795
#
# Coordination Sequence:
#
# PCOD9563018 Si02
#       8
#    16  16  16  16  16  16   4  16
#     4  10  20  36  56  80 113 152 192 240 296 348
#     4  11  22  33  51  79 112 151 197 244 292 350
#     4  10  20  35  60  87 116 152 192 247 305 357
#     4  10  21  39  61  90 120 150 197 248 302 359
#     4   9  19  35  52  77 112 149 189 236 295 354
#     4  11  23  40  63  89 119 155 196 247 308 366
#     4   8  20  36  57  84 113 156 184 226 288 356
#     4  10  22  40  60  84 119 161 201 239 291 365
#
# _framework density 18.088360000000002
#
# number of rings (size 3 to 8) (size 9 to 14) (size 15 to 20)
#    0.000    1.931    1.379    2.069    1.931    4.828 
#    0.000    2.759    0.000    2.483    0.000    0.483 
#    0.000    0.000    0.000    0.000    0.000    0.000 
#
# Total GULP energy -646267.979298 kJ/mol
# GULP energy per Si atom -5571.275684 kJ/mol
# Density = 1.804719 g / cm^3
# Si number density = 18.088360 Si / 1000 Ang^3
#
#
#
# Elastic Constant Matrix: (Units=GPa)
#
#
# Indices 1 2 3 4 5 6 
#
# 1 73.5462 19.6675 16.4175 0.0000 0.0000 0.0000
# 2 19.6675 73.5459 16.4172 0.0000 0.0000 0.0000
# 3 16.4175 16.4172 78.2292 0.0000 0.0000 0.0000
# 4 0.0000 0.0000 0.0000 23.1165 0.0000 0.0000
# 5 0.0000 0.0000 0.0000 0.0000 23.1168 0.0000
# 6 0.0000 0.0000 0.0000 0.0000 0.0000 14.1516
#
#
#
# Elastic Compliance Matrix: (Units=1/GPa)
#
#
# Indices 1 2 3 4 5 6 
#
# 1 0.015072 -0.003488 -0.002431 0.000000 0.000000 0.000000
# 2 -0.003488 0.015072 -0.002431 0.000000 0.000000 0.000000
# 3 -0.002431 -0.002431 0.013803 0.000000 0.000000 0.000000
# 4 0.000000 0.000000 0.000000 0.043259 0.000000 0.000000
# 5 0.000000 0.000000 0.000000 0.000000 0.043259 0.000000
# 6 0.000000 0.000000 0.000000 0.000000 0.000000 0.070663
#
#
# Mechanical properties :
#
#
# Convention : Reuss Voigt Hill
#
# Bulk Modulus (GPa) = 36.70037 36.70285 36.70161
# Shear Modulus (GPa) = 22.03498 23.59827 22.81663
#
# Velocity S-wave (km/s) = 3.49404 3.61586 3.55547
# Velocity P-wave (km/s) = 6.05073 6.14553 6.09831
#
# Compressibility (1/GPa) = 0.02724768
#
# Stress axis : x y z
#
# Youngs Moduli (GPa) = 66.34681 66.34662 72.44614
#
# Poissons Ratio (x) = 0.23141 0.17613
# Poissons Ratio (y) = 0.23141 0.17612
# Poissons Ratio (z) = 0.16130 0.16130
#
# Static dielectric constant tensor:
#      x y z
#    x 1.615040 0.000000 0.000000 
#    y 0.000000 1.615040 0.000000 
#    z 0.000000 0.000000 1.618740 
# 
# From -- ./inp_files/5544.got.cif
#   From: 2010.05.17/outbox.cif.g08.bks.cpg/sg125_3_cif.got.tgz:5544.got - 2010.05.20 11:54:10.
