data_PCOD9563932
_publ_section_title
;
Structure prediction by ZEFSAII (Michael W. Deem and Ramdas Pophale) SiO2 
 PCOD9563932
Probable space group: P 4/M B M
;
_chemical_formula_sum "Si O2"
_cell_formula_units_Z 96
_cell_length_a 23.722286
_cell_length_b 23.722286
_cell_length_c 7.392738
_cell_angle_alpha 90.000000
_cell_angle_beta 90.000000
_cell_angle_gamma 90.000000
_cell_volume 4160.240045
_symmetry_space_group_name_H-M "P 4/M B M"
_symmetry_group_IT_number 127
_symmetry_cell_setting 'tetragonal'
loop_
_space_group_symop_operation_xyz
x,y,z
-y,x,z
-x,-y,z
y,-x,z
1/2+x,1/2-y,-z
1/2-x,1/2+y,-z
1/2+y,1/2+x,-z
1/2-y,1/2-x,-z
-x,-y,-z
y,-x,-z
x,y,-z
-y,x,-z
1/2-x,1/2+y,z
1/2+x,1/2-y,z
1/2-y,1/2-x,z
1/2+y,1/2+x,z
loop_
_atom_site_type_symbol
_atom_site_label
_atom_site_fract_x
_atom_site_fract_y
_atom_site_fract_z
Si Si1 0.343047 0.417462 0.277398
Si Si2 0.057786 0.557786 0.220254
Si Si3 0.777169 0.635022 0.709874
Si Si4 0.651683 0.848318 0.781119
Si Si5 0.430409 0.237931 0.783779
Si Si6 0.146489 0.471509 0.784533
Si Si7 0.956856 0.140439 0.699254
O O1 0.340022 0.418626 0.500000
O O2 0.282793 0.390144 0.217550
O O3 0.399601 0.384765 0.220403
O O4 0.356050 0.481308 0.214738
O O5 0.104842 0.604842 0.264683
O O6 0.087553 0.499606 0.280842
O O7 0.053846 0.553846 0.000000
O O8 0.765741 0.647499 0.500000
O O9 0.809374 0.690627 0.787083
O O10 0.824274 0.585184 0.716003
O O11 0.628158 0.789163 0.721706
O O12 0.652260 0.847741 0.000000
O O13 0.479901 0.192933 0.753609
O O14 0.443151 0.294233 0.684859
O O15 0.428475 0.247967 0.000000
O O16 0.139948 0.463628 0.000000
O O17 0.963478 0.113551 0.500000
#
# Coordination Sequence:
#
# PCOD9563932 Si02
#       7
#    16   8  16   8  16  16  16
#     4   9  19  35  55  78 102 131 168 212 259 307
#     4   7  12  24  44  72 101 130 168 216 256 290
#     4  10  20  35  53  73 105 145 174 204 256 312
#     4   7  12  24  43  68 100 133 166 200 248 303
#     4   9  16  29  50  75 102 135 169 208 257 302
#     4   9  16  29  52  77 102 135 176 217 255 299
#     4  10  19  34  55  77 102 131 167 212 259 307
#
# _framework density 23.075590999999999
#
# number of rings (size 3 to 8) (size 9 to 14) (size 15 to 20)
#    0.000    3.000    1.667    2.000    0.000    0.667 
#    1.500    4.583    0.000    5.500    0.000    1.167 
#    0.000    0.000    0.000    0.000    0.000    0.000 
#
# Total GULP energy -534537.006965 kJ/mol
# GULP energy per Si atom -5568.093823 kJ/mol
# Density = 2.302307 g / cm^3
# Si number density = 23.075591 Si / 1000 Ang^3
#
#
#
# Elastic Constant Matrix: (Units=GPa)
#
#
# Indices 1 2 3 4 5 6 
#
# 1 61.8750 133.1109 27.2425 0.0000 0.0000 0.0000
# 2 133.1109 61.8740 27.2430 0.0000 0.0000 0.0000
# 3 27.2425 27.2430 56.8199 0.0000 0.0000 0.0000
# 4 0.0000 0.0000 0.0000 241.3447 0.0000 0.0000
# 5 0.0000 0.0000 0.0000 0.0000 241.3374 0.0000
# 6 0.0000 0.0000 0.0000 0.0000 0.0000 32.4408
#
#
#
# Elastic Compliance Matrix: (Units=1/GPa)
#
#
# Indices 1 2 3 4 5 6 
#
# 1 -0.004058 0.009980 -0.002839 0.000000 0.000000 0.000000
# 2 0.009980 -0.004058 -0.002839 0.000000 0.000000 0.000000
# 3 -0.002839 -0.002839 0.020322 0.000000 0.000000 0.000000
# 4 0.000000 0.000000 0.000000 0.004143 0.000000 0.000000
# 5 0.000000 0.000000 0.000000 0.000000 0.004144 0.000000
# 6 0.000000 0.000000 0.000000 0.000000 0.000000 0.030825
#
#
# Mechanical properties :
#
#
# Convention : Reuss Voigt Hill
#
# Bulk Modulus (GPa) = 48.05665 61.75130 54.90397
# Shear Modulus (GPa) = 100.69948 102.55608 101.62778
#
# Velocity S-wave (km/s) = 6.61315 6.67383 6.64356
# Velocity P-wave (km/s) = 8.89846 9.28468 9.09362
#
# Compressibility (1/GPa) = 0.02080878
#
# Stress axis : x y z
#
# Youngs Moduli (GPa) = -246.43728 -246.43016 49.20734
#
# Poissons Ratio (x) = 2.45934 0.13972
# Poissons Ratio (y) = 2.45942 0.13971
# Poissons Ratio (z) = -0.69974 -0.69968
#
# Static dielectric constant tensor:
#      x y z
#    x 1.921320 0.000000 0.000000 
#    y 0.000000 1.921320 0.000000 
#    z 0.000000 0.000000 2.241500 
# 
# From -- ./inp_files/2103.got.cif
#   From: 2010.05.17/outbox.cif.g08.bks.cpg/sg127_2_cif.got.tgz:2103.got - 2010.05.20 12:03:00.
