data_PCOD9563148
_publ_section_title
;
Structure prediction by ZEFSAII (Michael W. Deem and Ramdas Pophale) SiO2 
 PCOD9563148
Probable space group: P 4/N B M
;
_chemical_formula_sum "Si O2"
_cell_formula_units_Z 64
_cell_length_a 16.244978
_cell_length_b 16.244978
_cell_length_c 10.965608
_cell_angle_alpha 90.000000
_cell_angle_beta 90.000000
_cell_angle_gamma 90.000000
_cell_volume 2893.816387
_symmetry_space_group_name_H-M "P 4/N B M"
_symmetry_group_IT_number 125
_space_group.IT_coordinate_system_code '2'
_symmetry_cell_setting 'tetragonal'
loop_
_space_group_symop_operation_xyz
x,y,z
1/2-y,x,z
1/2-x,1/2-y,z
y,1/2-x,z
x,1/2-y,-z
1/2-x,y,-z
y,x,-z
1/2-y,1/2-x,-z
-x,-y,-z
1/2+y,-x,-z
1/2+x,1/2+y,-z
-y,1/2+x,-z
-x,1/2+y,z
1/2+x,-y,z
-y,-x,z
1/2+y,1/2+x,z
loop_
_atom_site_type_symbol
_atom_site_label
_atom_site_fract_x
_atom_site_fract_y
_atom_site_fract_z
Si Si1 0.266566 0.542683 0.633816
Si Si2 0.628090 0.371911 0.724424
Si Si3 0.065021 0.565021 0.458750
Si Si4 0.495666 0.250000 0.000000
Si Si5 0.386278 0.231090 0.240856
Si Si6 0.929445 0.429445 0.021575
O O1 0.250000 0.577695 0.500000
O O2 0.224371 0.605230 0.727391
O O3 0.363109 0.529549 0.627286
O O4 0.223952 0.455096 0.655003
O O5 0.597067 0.402934 0.591874
O O6 0.582115 0.417886 0.832607
O O7 0.000000 0.500000 0.500000
O O8 0.437024 0.231219 0.115333
O O9 0.543986 0.163054 0.977431
O O10 0.338802 0.317781 0.248025
O O11 0.000000 0.500000 0.000000
#
# Coordination Sequence:
#
# PCOD9563148 Si02
#       6
#    16   8   8   8  16   8
#     4  10  23  41  67  98 131 180 229 291 349 432
#     4  10  22  47  64  94 142 177 234 287 354 428
#     4  10  24  39  70 103 133 183 232 287 352 433
#     4  12  26  44  70 104 138 190 244 295 356 443
#     4  11  24  41  65  96 138 185 233 296 362 431
#     4  12  26  47  74 103 145 195 238 301 364 436
#
# _framework density 22.116123000000002
#
# number of rings (size 3 to 8) (size 9 to 14) (size 15 to 20)
#    0.000    1.250    2.500    2.250    7.000    2.750 
#    0.000    5.000    0.000    0.000    0.000    0.000 
#    0.000    0.000    0.000    0.000    0.000    0.000 
#
# Total GULP energy -356764.954756 kJ/mol
# GULP energy per Si atom -5574.452418 kJ/mol
# Density = 2.206579 g / cm^3
# Si number density = 22.116123 Si / 1000 Ang^3
#
#
#
# Elastic Constant Matrix: (Units=GPa)
#
#
# Indices 1 2 3 4 5 6 
#
# 1 117.6998 63.0672 10.5998 0.0000 0.0000 0.0000
# 2 63.0672 117.6998 10.5998 0.0000 0.0000 0.0000
# 3 10.5998 10.5998 61.0315 0.0000 0.0000 0.0000
# 4 0.0000 0.0000 0.0000 29.6279 0.0000 0.0000
# 5 0.0000 0.0000 0.0000 0.0000 29.6279 0.0000
# 6 0.0000 0.0000 0.0000 0.0000 0.0000 32.0942
#
#
#
# Elastic Compliance Matrix: (Units=1/GPa)
#
#
# Indices 1 2 3 4 5 6 
#
# 1 0.011976 -0.006329 -0.000981 0.000000 0.000000 0.000000
# 2 -0.006329 0.011976 -0.000981 0.000000 0.000000 0.000000
# 3 -0.000981 -0.000981 0.016726 0.000000 0.000000 0.000000
# 4 0.000000 0.000000 0.000000 0.033752 0.000000 0.000000
# 5 0.000000 0.000000 0.000000 0.000000 0.033752 0.000000
# 6 0.000000 0.000000 0.000000 0.000000 0.000000 0.031158
#
#
# Mechanical properties :
#
#
# Convention : Reuss Voigt Hill
#
# Bulk Modulus (GPa) = 41.49959 51.66276 46.58117
# Shear Modulus (GPa) = 30.49688 32.41430 31.45559
#
# Velocity S-wave (km/s) = 3.71744 3.83252 3.77542
# Velocity P-wave (km/s) = 6.10172 6.55704 6.33347
#
# Compressibility (1/GPa) = 0.02409662
#
# Stress axis : x y z
#
# Youngs Moduli (GPa) = 83.50353 83.50353 59.78837
#
# Poissons Ratio (x) = 0.52846 0.05864
# Poissons Ratio (y) = 0.52846 0.05864
# Poissons Ratio (z) = 0.08190 0.08190
#
# Static dielectric constant tensor:
#      x y z
#    x 1.896810 0.000000 0.000000 
#    y 0.000000 1.896810 0.000000 
#    z 0.000000 0.000000 1.838690 
# 
# From -- ./inp_files/3756.got.cif
#   From: 2010.05.17/outbox.cif.g08.bks.cpg/sg125_2_cif.got.tgz:3756.got - 2010.05.20 11:54:10.
