data_PCOD9563622
_publ_section_title
;
Structure prediction by ZEFSAII (Michael W. Deem and Ramdas Pophale) SiO2 
 PCOD9563622
Probable space group: P 4/N N C
;
_chemical_formula_sum "Si O2"
_cell_formula_units_Z 88
_cell_length_a 17.337090
_cell_length_b 17.337090
_cell_length_c 14.834739
_cell_angle_alpha 90.000000
_cell_angle_beta 90.000000
_cell_angle_gamma 90.000000
_cell_volume 4458.947071
_symmetry_space_group_name_H-M "P 4/N N C"
_symmetry_group_IT_number 126
_space_group.IT_coordinate_system_code '2'
_symmetry_cell_setting 'tetragonal'
loop_
_space_group_symop_operation_xyz
x,y,z
1/2-y,x,z
1/2-x,1/2-y,z
y,1/2-x,z
x,1/2-y,1/2-z
1/2-x,y,1/2-z
y,x,1/2-z
1/2-y,1/2-x,1/2-z
-x,-y,-z
1/2+y,-x,-z
1/2+x,1/2+y,-z
-y,1/2+x,-z
-x,1/2+y,1/2+z
1/2+x,-y,1/2+z
-y,-x,1/2+z
1/2+y,1/2+x,1/2+z
loop_
_atom_site_type_symbol
_atom_site_label
_atom_site_fract_x
_atom_site_fract_y
_atom_site_fract_z
Si Si1 0.914754 0.588522 0.030803
Si Si2 0.757855 0.982838 0.437662
Si Si3 0.042080 0.498350 0.353614
Si Si4 0.574463 0.250000 0.750000
Si Si5 0.862153 0.260970 0.463642
Si Si6 0.109144 0.824308 0.706339
O O1 0.824567 0.580246 0.051541
O O2 0.948901 0.673374 0.045335
O O3 0.956727 0.529371 0.100327
O O4 0.933590 0.562365 0.927985
O O5 0.760841 0.022717 0.339256
O O6 0.777143 0.050432 0.510249
O O7 0.116120 0.553441 0.343184
O O8 0.025314 0.474687 0.250000
O O9 0.626029 0.172370 0.759804
O O10 0.833799 0.192819 0.529335
O O11 0.845189 0.221140 0.369698
O O12 0.066812 0.750000 0.750000
#
# Coordination Sequence:
#
# PCOD9563622 Si02
#       6
#    16  16  16   8  16  16
#     4  11  26  45  69  98 138 180 239 291 346 409
#     4  12  25  44  69  95 134 182 231 295 340 412
#     4  11  24  44  68  99 134 182 229 280 349 422
#     4  12  23  42  64  99 138 178 232 270 349 422
#     4  11  22  39  60  95 135 173 213 270 354 413
#     4  12  24  38  63  99 135 175 217 275 344 421
#
# _framework density 19.735600999999999
#
# number of rings (size 3 to 8) (size 9 to 14) (size 15 to 20)
#    0.000    0.545    5.455    2.455    7.636    0.364 
#    0.000    0.000    0.000    1.091    0.000    1.273 
#    0.000    0.000    0.000    0.000    0.000    0.000 
#
# Total GULP energy -491067.645540 kJ/mol
# GULP energy per Si atom -5580.314154 kJ/mol
# Density = 1.969068 g / cm^3
# Si number density = 19.735601 Si / 1000 Ang^3
#
#
#
# Elastic Constant Matrix: (Units=GPa)
#
#
# Indices 1 2 3 4 5 6 
#
# 1 82.3855 21.3105 19.1857 0.0000 0.0000 0.0000
# 2 21.3105 82.3856 19.1858 0.0000 0.0000 0.0000
# 3 19.1857 19.1858 110.3807 0.0000 0.0000 0.0000
# 4 0.0000 0.0000 0.0000 38.2418 0.0000 0.0000
# 5 0.0000 0.0000 0.0000 0.0000 38.2398 0.0000
# 6 0.0000 0.0000 0.0000 0.0000 0.0000 35.3931
#
#
#
# Elastic Compliance Matrix: (Units=1/GPa)
#
#
# Indices 1 2 3 4 5 6 
#
# 1 0.013340 -0.003033 -0.001791 0.000000 0.000000 0.000000
# 2 -0.003033 0.013340 -0.001791 0.000000 0.000000 0.000000
# 3 -0.001791 -0.001791 0.009682 0.000000 0.000000 0.000000
# 4 0.000000 0.000000 0.000000 0.026149 0.000000 0.000000
# 5 0.000000 0.000000 0.000000 0.000000 0.026151 0.000000
# 6 0.000000 0.000000 0.000000 0.000000 0.000000 0.028254
#
#
# Mechanical properties :
#
#
# Convention : Reuss Voigt Hill
#
# Bulk Modulus (GPa) = 43.23467 43.83508 43.53487
# Shear Modulus (GPa) = 36.26903 36.73960 36.50432
#
# Velocity S-wave (km/s) = 4.29155 4.31930 4.30544
# Velocity P-wave (km/s) = 6.81990 6.86545 6.84271
#
# Compressibility (1/GPa) = 0.02312958
#
# Stress axis : x y z
#
# Youngs Moduli (GPa) = 74.96315 74.96323 103.28125
#
# Poissons Ratio (x) = 0.22739 0.18502
# Poissons Ratio (y) = 0.22739 0.18502
# Poissons Ratio (z) = 0.13429 0.13429
#
# Static dielectric constant tensor:
#      x y z
#    x 1.714960 0.000000 0.000000 
#    y 0.000000 1.714960 0.000000 
#    z 0.000000 0.000000 1.900440 
# 
# From -- ./inp_files/3755.got.cif
#   From: 2010.05.17/outbox.cif.g08.bks.cpg/sg126_2_cif.got.tgz:3755.got - 2010.05.20 11:58:20.
