data_PCOD9563458
_publ_section_title
;
Structure prediction by ZEFSAII (Michael W. Deem and Ramdas Pophale) SiO2 
 PCOD9563458
Probable space group: P 4/N N C
;
_chemical_formula_sum "Si O2"
_cell_formula_units_Z 96
_cell_length_a 24.906379
_cell_length_b 24.906379
_cell_length_c 8.442126
_cell_angle_alpha 90.000000
_cell_angle_beta 90.000000
_cell_angle_gamma 90.000000
_cell_volume 5236.884730
_symmetry_space_group_name_H-M "P 4/N N C"
_symmetry_group_IT_number 126
_space_group.IT_coordinate_system_code '2'
_symmetry_cell_setting 'tetragonal'
loop_
_space_group_symop_operation_xyz
x,y,z
1/2-y,x,z
1/2-x,1/2-y,z
y,1/2-x,z
x,1/2-y,1/2-z
1/2-x,y,1/2-z
y,x,1/2-z
1/2-y,1/2-x,1/2-z
-x,-y,-z
1/2+y,-x,-z
1/2+x,1/2+y,-z
-y,1/2+x,-z
-x,1/2+y,1/2+z
1/2+x,-y,1/2+z
-y,-x,1/2+z
1/2+y,1/2+x,1/2+z
loop_
_atom_site_type_symbol
_atom_site_label
_atom_site_fract_x
_atom_site_fract_y
_atom_site_fract_z
Si Si1 0.233466 0.482001 0.433027
Si Si2 0.951114 0.965363 0.567854
Si Si3 0.989368 0.349099 0.573184
Si Si4 0.174092 0.625957 0.856212
Si Si5 0.604473 0.287484 0.499252
Si Si6 0.567539 0.860213 0.137757
O O1 0.250000 0.468407 0.250000
O O2 0.289743 0.492033 0.523199
O O3 0.208630 0.542499 0.443471
O O4 0.194531 0.440107 0.529724
O O5 0.960141 0.960141 0.750000
O O6 0.893409 0.992019 0.547810
O O7 0.944619 0.908864 0.479799
O O8 0.000000 0.000000 0.500000
O O9 0.019099 0.358583 0.738137
O O10 0.926298 0.357524 0.588785
O O11 0.188075 0.613417 0.674433
O O12 0.226697 0.623536 0.968405
O O13 0.141850 0.680241 0.879590
O O14 0.619539 0.880462 0.250000
#
# Coordination Sequence:
#
# PCOD9563458 Si02
#       6
#    16  16  16  16  16  16
#     4  11  22  38  60  89 121 161 212 265 318 387
#     4  11  23  37  55  86 122 162 207 254 313 375
#     4  10  21  38  58  82 119 160 203 258 313 377
#     4  10  22  38  54  79 105 150 204 266 323 380
#     4  10  23  37  56  76 109 147 210 265 331 378
#     4  10  21  39  60  86 119 161 207 256 316 384
#
# _framework density 18.331509
#
# number of rings (size 3 to 8) (size 9 to 14) (size 15 to 20)
#    0.000    1.667    1.667    3.000    7.000    1.667 
#    0.000    1.667    0.000    0.000    0.000    0.000 
#    0.000   64.667    0.000   94.833    0.000    0.000 
#
# Total GULP energy -534789.465456 kJ/mol
# GULP energy per Si atom -5570.723599 kJ/mol
# Density = 1.828979 g / cm^3
# Si number density = 18.331509 Si / 1000 Ang^3
#
#
#
# Elastic Constant Matrix: (Units=GPa)
#
#
# Indices 1 2 3 4 5 6 
#
# 1 46.6336 38.0456 22.4924 0.0000 0.0000 0.0000
# 2 38.0456 46.6342 22.4927 0.0000 0.0000 0.0000
# 3 22.4924 22.4927 105.7572 0.0000 0.0000 0.0000
# 4 0.0000 0.0000 0.0000 23.4124 0.0000 0.0000
# 5 0.0000 0.0000 0.0000 0.0000 23.4118 0.0000
# 6 0.0000 0.0000 0.0000 0.0000 0.0000 31.4974
#
#
#
# Elastic Compliance Matrix: (Units=1/GPa)
#
#
# Indices 1 2 3 4 5 6 
#
# 1 0.064876 -0.051562 -0.002831 0.000000 0.000000 0.000000
# 2 -0.051562 0.064875 -0.002832 0.000000 0.000000 0.000000
# 3 -0.002831 -0.002832 0.010660 0.000000 0.000000 0.000000
# 4 0.000000 0.000000 0.000000 0.042712 0.000000 0.000000
# 5 0.000000 0.000000 0.000000 0.000000 0.042714 0.000000
# 6 0.000000 0.000000 0.000000 0.000000 0.000000 0.031749
#
#
# Mechanical properties :
#
#
# Convention : Reuss Voigt Hill
#
# Bulk Modulus (GPa) = 38.51953 40.56516 39.54235
# Shear Modulus (GPa) = 13.13404 23.39729 18.26567
#
# Velocity S-wave (km/s) = 2.67961 3.57647 3.16002
# Velocity P-wave (km/s) = 5.53463 6.26351 5.91031
#
# Compressibility (1/GPa) = 0.02596086
#
# Stress axis : x y z
#
# Youngs Moduli (GPa) = 15.41403 15.41416 93.80833
#
# Poissons Ratio (x) = 0.79479 0.26561
# Poissons Ratio (y) = 0.79478 0.26563
# Poissons Ratio (z) = 0.04364 0.04365
#
# Static dielectric constant tensor:
#      x y z
#    x 1.643290 0.000000 0.000000 
#    y 0.000000 1.643290 0.000000 
#    z 0.000000 0.000000 1.657780 
# 
# From -- ./inp_files/1770.got.cif
#   From: 2010.05.17/outbox.cif.g08.bks.cpg/sg126_1_cif.got.tgz:1770.got - 2010.05.20 11:58:20.
