data_PCOD9563746
_publ_section_title
;
Structure prediction by ZEFSAII (Michael W. Deem and Ramdas Pophale) SiO2 
 PCOD9563746
Probable space group: P 4/M B M
;
_chemical_formula_sum "Si O2"
_cell_formula_units_Z 96
_cell_length_a 17.434272
_cell_length_b 17.434272
_cell_length_c 14.937814
_cell_angle_alpha 90.000000
_cell_angle_beta 90.000000
_cell_angle_gamma 90.000000
_cell_volume 4540.405929
_symmetry_space_group_name_H-M "P 4/M B M"
_symmetry_group_IT_number 127
_symmetry_cell_setting 'tetragonal'
loop_
_space_group_symop_operation_xyz
x,y,z
-y,x,z
-x,-y,z
y,-x,z
1/2+x,1/2-y,-z
1/2-x,1/2+y,-z
1/2+y,1/2+x,-z
1/2-y,1/2-x,-z
-x,-y,-z
y,-x,-z
x,y,-z
-y,x,-z
1/2-x,1/2+y,z
1/2+x,1/2-y,z
1/2-y,1/2-x,z
1/2+y,1/2+x,z
loop_
_atom_site_type_symbol
_atom_site_label
_atom_site_fract_x
_atom_site_fract_y
_atom_site_fract_z
Si Si1 0.373402 0.994325 0.784691
Si Si2 0.791821 0.164502 0.790327
Si Si3 0.115665 0.949242 0.893138
Si Si4 0.403068 0.225128 0.099877
Si Si5 0.956384 0.324044 0.598878
Si Si6 0.170761 0.802115 0.597950
O O1 0.416760 0.916760 0.808725
O O2 0.438950 0.061051 0.782168
O O3 0.310501 0.022537 0.854456
O O4 0.338966 0.991260 0.684584
O O5 0.711512 0.211512 0.799447
O O6 0.811863 0.088456 0.845098
O O7 0.855666 0.222181 0.831967
O O8 0.810586 0.150531 0.686240
O O9 0.037441 0.902671 0.869802
O O10 0.124290 0.944434 0.000000
O O11 0.346879 0.153122 0.088573
O O12 0.414920 0.258584 0.000000
O O13 0.993037 0.326060 0.500000
O O14 0.891767 0.391767 0.599506
O O15 0.908411 0.245380 0.608334
O O16 0.171088 0.840241 0.500000
O O17 0.236259 0.736259 0.596785
#
# Coordination Sequence:
#
# PCOD9563746 Si02
#       6
#    16  16  16  16  16  16
#     4   9  15  21  28  41  68 109 153 194 240 297
#     4  10  17  28  52  82 105 129 170 223 271 314
#     4   9  19  36  56  79 110 148 185 220 267 328
#     4   9  16  24  34  54  84 114 149 197 249 297
#     4   8  12  19  30  45  71 107 147 195 247 294
#     4   8  13  22  39  66 100 131 160 204 263 320
#
# _framework density 21.143481999999999
#
# number of rings (size 3 to 8) (size 9 to 14) (size 15 to 20)
#    0.000    3.167    1.667    2.000    0.000    1.667 
#    0.000    3.333    0.000    2.000    0.000    3.500 
#    0.000    0.000    0.000    0.000    0.000    0.000 
#
# Total GULP energy -535211.292870 kJ/mol
# GULP energy per Si atom -5575.117634 kJ/mol
# Density = 2.109536 g / cm^3
# Si number density = 21.143482 Si / 1000 Ang^3
#
#
#
# Elastic Constant Matrix: (Units=GPa)
#
#
# Indices 1 2 3 4 5 6 
#
# 1 44.8637 63.0218 28.3123 0.0000 0.0000 0.0000
# 2 63.0218 44.8637 28.3123 0.0000 0.0000 0.0000
# 3 28.3123 28.3123 105.9040 0.0000 0.0000 0.0000
# 4 0.0000 0.0000 0.0000 4.4310 0.0000 0.0000
# 5 0.0000 0.0000 0.0000 0.0000 4.4310 0.0000
# 6 0.0000 0.0000 0.0000 0.0000 0.0000 34.3622
#
#
#
# Elastic Compliance Matrix: (Units=1/GPa)
#
#
# Indices 1 2 3 4 5 6 
#
# 1 -0.022145 0.032927 -0.002882 0.000000 0.000000 0.000000
# 2 0.032927 -0.022145 -0.002882 0.000000 0.000000 0.000000
# 3 -0.002882 -0.002882 0.010984 0.000000 0.000000 0.000000
# 4 0.000000 0.000000 0.000000 0.225684 0.000000 0.000000
# 5 0.000000 0.000000 0.000000 0.000000 0.225684 0.000000
# 6 0.000000 0.000000 0.000000 0.000000 0.000000 0.029102
#
#
# Mechanical properties :
#
#
# Convention : Reuss Voigt Hill
#
# Bulk Modulus (GPa) = 47.57858 48.32488 47.95173
# Shear Modulus (GPa) = 12.50484 13.71049 13.10767
#
# Velocity S-wave (km/s) = 2.43457 2.54923 2.49256
# Velocity P-wave (km/s) = 5.51855 5.61873 5.56886
#
# Compressibility (1/GPa) = 0.02101786
#
# Stress axis : x y z
#
# Youngs Moduli (GPa) = -45.15707 -45.15707 91.04402
#
# Poissons Ratio (x) = 1.48688 0.26243
# Poissons Ratio (y) = 1.48688 0.26243
# Poissons Ratio (z) = -0.13016 -0.13016
#
# Static dielectric constant tensor:
#      x y z
#    x 1.796500 0.000000 0.000000 
#    y 0.000000 1.796500 0.000000 
#    z 0.000000 0.000000 1.768750 
# 
# From -- ./inp_files/4546.got.cif
#   From: 2010.05.17/outbox.cif.g08.bks.cpg/sg127_3_cif.got.tgz:4546.got - 2010.05.20 12:03:00.
