data_PCOD9563471
_publ_section_title
;
Structure prediction by ZEFSAII (Michael W. Deem and Ramdas Pophale) SiO2 
 PCOD9563471
Probable space group: P 4/N N C
;
_chemical_formula_sum "Si O2"
_cell_formula_units_Z 96
_cell_length_a 15.293014
_cell_length_b 15.293014
_cell_length_c 19.782914
_cell_angle_alpha 90.000000
_cell_angle_beta 90.000000
_cell_angle_gamma 90.000000
_cell_volume 4626.754279
_symmetry_space_group_name_H-M "P 4/N N C"
_symmetry_group_IT_number 126
_space_group.IT_coordinate_system_code '2'
_symmetry_cell_setting 'tetragonal'
loop_
_space_group_symop_operation_xyz
x,y,z
1/2-y,x,z
1/2-x,1/2-y,z
y,1/2-x,z
x,1/2-y,1/2-z
1/2-x,y,1/2-z
y,x,1/2-z
1/2-y,1/2-x,1/2-z
-x,-y,-z
1/2+y,-x,-z
1/2+x,1/2+y,-z
-y,1/2+x,-z
-x,1/2+y,1/2+z
1/2+x,-y,1/2+z
-y,-x,1/2+z
1/2+y,1/2+x,1/2+z
loop_
_atom_site_type_symbol
_atom_site_label
_atom_site_fract_x
_atom_site_fract_y
_atom_site_fract_z
Si Si1 0.728381 0.485173 0.673118
Si Si2 0.962140 0.097017 0.989064
Si Si3 0.889427 0.788934 0.946553
Si Si4 0.658732 0.980872 0.268914
Si Si5 0.617145 0.150774 0.648404
Si Si6 0.100768 0.845579 0.384701
O O1 0.750000 0.506306 0.750000
O O2 0.716049 0.572242 0.629414
O O3 0.805748 0.419380 0.651075
O O4 0.645354 0.424223 0.657311
O O5 0.876786 0.102376 0.037873
O O6 0.029226 0.172248 0.012437
O O7 0.943285 0.115006 0.911372
O O8 0.000000 0.000000 0.000000
O O9 0.808418 0.853968 0.959353
O O10 0.750000 0.935587 0.250000
O O11 0.577292 0.922709 0.250000
O O12 0.656500 0.066009 0.219458
O O13 0.661169 0.007248 0.347599
O O14 0.642666 0.250251 0.628040
#
# Coordination Sequence:
#
# PCOD9563471 Si02
#       6
#    16  16  16  16  16  16
#     4  11  22  41  65  97 130 171 211 261 334 397
#     4  11  24  40  66  93 128 171 220 269 326 396
#     4  10  24  45  66  94 134 175 217 267 324 394
#     4  10  21  40  61  86 119 162 210 265 325 381
#     4  11  23  38  64  91 129 164 216 270 322 391
#     4  10  23  39  61  94 126 165 210 270 328 388
#
# _framework density 20.748885999999999
#
# number of rings (size 3 to 8) (size 9 to 14) (size 15 to 20)
#    0.000    1.500    1.667    2.500    7.000    2.833 
#    0.000    0.833    0.000    0.000    0.000    0.000 
#    0.000    0.000    0.000    0.000    0.000    0.000 
#
# Total GULP energy -535734.427860 kJ/mol
# GULP energy per Si atom -5580.566957 kJ/mol
# Density = 2.070166 g / cm^3
# Si number density = 20.748886 Si / 1000 Ang^3
#
#
#
# Elastic Constant Matrix: (Units=GPa)
#
#
# Indices 1 2 3 4 5 6 
#
# 1 63.3539 11.9328 -3.7620 0.0000 0.0000 0.0000
# 2 11.9328 63.3509 -3.7625 0.0000 0.0000 0.0000
# 3 -3.7620 -3.7625 59.5839 0.0000 0.0000 0.0000
# 4 0.0000 0.0000 0.0000 18.1435 0.0000 0.0000
# 5 0.0000 0.0000 0.0000 0.0000 18.1439 0.0000
# 6 0.0000 0.0000 0.0000 0.0000 0.0000 31.0916
#
#
#
# Elastic Compliance Matrix: (Units=1/GPa)
#
#
# Indices 1 2 3 4 5 6 
#
# 1 0.016407 -0.003040 0.000844 0.000000 0.000000 0.000000
# 2 -0.003040 0.016408 0.000844 0.000000 0.000000 0.000000
# 3 0.000844 0.000844 0.016890 0.000000 0.000000 0.000000
# 4 0.000000 0.000000 0.000000 0.055116 0.000000 0.000000
# 5 0.000000 0.000000 0.000000 0.000000 0.055115 0.000000
# 6 0.000000 0.000000 0.000000 0.000000 0.000000 0.032163
#
#
# Mechanical properties :
#
#
# Convention : Reuss Voigt Hill
#
# Bulk Modulus (GPa) = 21.27656 21.67839 21.47748
# Shear Modulus (GPa) = 23.75635 25.60116 24.67876
#
# Velocity S-wave (km/s) = 3.38738 3.51644 3.45251
# Velocity P-wave (km/s) = 5.05724 5.19209 5.12511
#
# Compressibility (1/GPa) = 0.04700007
#
# Stress axis : x y z
#
# Youngs Moduli (GPa) = 60.94918 60.94625 59.20791
#
# Poissons Ratio (x) = 0.18530 -0.04997
# Poissons Ratio (y) = 0.18531 -0.04998
# Poissons Ratio (z) = -0.05144 -0.05145
#
# Static dielectric constant tensor:
#      x y z
#    x 1.751830 0.000000 0.000000 
#    y 0.000000 1.751830 0.000000 
#    z 0.000000 0.000000 1.729250 
# 
# From -- ./inp_files/5223.got.cif
#   From: 2010.05.17/outbox.cif.g08.bks.cpg/sg126_3_cif.got.tgz:5223.got - 2010.05.20 11:58:20.
