data_PCOD9563226
_publ_section_title
;
Structure prediction by ZEFSAII (Michael W. Deem and Ramdas Pophale) SiO2 
 PCOD9563226
Probable space group: P 4/N B M
;
_chemical_formula_sum "Si O2"
_cell_formula_units_Z 96
_cell_length_a 14.359070
_cell_length_b 14.359070
_cell_length_c 21.821126
_cell_angle_alpha 90.000000
_cell_angle_beta 90.000000
_cell_angle_gamma 90.000000
_cell_volume 4499.142849
_symmetry_space_group_name_H-M "P 4/N B M"
_symmetry_group_IT_number 125
_space_group.IT_coordinate_system_code '2'
_symmetry_cell_setting 'tetragonal'
loop_
_space_group_symop_operation_xyz
x,y,z
1/2-y,x,z
1/2-x,1/2-y,z
y,1/2-x,z
x,1/2-y,-z
1/2-x,y,-z
y,x,-z
1/2-y,1/2-x,-z
-x,-y,-z
1/2+y,-x,-z
1/2+x,1/2+y,-z
-y,1/2+x,-z
-x,1/2+y,z
1/2+x,-y,z
-y,-x,z
1/2+y,1/2+x,z
loop_
_atom_site_type_symbol
_atom_site_label
_atom_site_fract_x
_atom_site_fract_y
_atom_site_fract_z
Si Si1 0.777041 0.902657 0.861462
Si Si2 0.400978 0.752443 0.073814
Si Si3 0.343341 0.508152 0.538512
Si Si4 0.747509 0.393267 0.344521
Si Si5 0.628403 0.977825 0.259282
Si Si6 0.145637 0.133383 0.629685
O O1 0.677783 0.853277 0.874038
O O2 0.808301 0.930841 0.792594
O O3 0.771503 0.999386 0.897922
O O4 0.327602 0.672399 0.092250
O O5 0.351111 0.851111 0.090656
O O6 0.407852 0.750000 0.000000
O O7 0.250000 0.492307 0.500000
O O8 0.418878 0.581123 0.512888
O O9 0.304128 0.554071 0.601493
O O10 0.389431 0.414945 0.567213
O O11 0.671499 0.328502 0.311663
O O12 0.823708 0.323708 0.373594
O O13 0.803511 0.455684 0.297709
O O14 0.593202 0.902594 0.309400
O O15 0.542155 0.042155 0.236576
O O16 0.256877 0.125934 0.630262
#
# Coordination Sequence:
#
# PCOD9563226 Si02
#       6
#    16  16  16  16  16  16
#     4  11  25  42  62  96 141 186 234 289 351 417
#     4   9  20  42  71 103 142 188 238 293 349 406
#     4  11  23  41  65  93 119 152 201 261 328 401
#     4   9  19  37  60  87 118 152 197 259 330 396
#     4  11  22  40  65  93 124 166 222 278 336 403
#     4  11  23  42  62  84 122 167 206 255 325 402
#
# _framework density 21.337396999999999
#
# number of rings (size 3 to 8) (size 9 to 14) (size 15 to 20)
#    0.000    1.667    1.667    3.000    0.000    5.500 
#    0.000    5.833    0.000    0.000    0.000    0.000 
#    0.000    0.000    0.000    0.000    0.000    0.000 
#
# Total GULP energy -535702.417587 kJ/mol
# GULP energy per Si atom -5580.233517 kJ/mol
# Density = 2.128883 g / cm^3
# Si number density = 21.337397 Si / 1000 Ang^3
#
#
#
# Elastic Constant Matrix: (Units=GPa)
#
#
# Indices 1 2 3 4 5 6 
#
# 1 129.8486 52.9355 35.7121 0.0000 0.0000 0.0000
# 2 52.9355 129.8486 35.7121 0.0000 0.0000 0.0000
# 3 35.7121 35.7121 52.0026 0.0000 0.0000 0.0000
# 4 0.0000 0.0000 0.0000 32.5662 0.0000 0.0000
# 5 0.0000 0.0000 0.0000 0.0000 32.5662 0.0000
# 6 0.0000 0.0000 0.0000 0.0000 0.0000 16.7676
#
#
#
# Elastic Compliance Matrix: (Units=1/GPa)
#
#
# Indices 1 2 3 4 5 6 
#
# 1 0.010240 -0.002762 -0.005135 0.000000 0.000000 0.000000
# 2 -0.002762 0.010240 -0.005135 0.000000 0.000000 0.000000
# 3 -0.005135 -0.005135 0.026283 0.000000 0.000000 0.000000
# 4 0.000000 0.000000 0.000000 0.030707 0.000000 0.000000
# 5 0.000000 0.000000 0.000000 0.000000 0.030707 0.000000
# 6 0.000000 0.000000 0.000000 0.000000 0.000000 0.059639
#
#
# Mechanical properties :
#
#
# Convention : Reuss Voigt Hill
#
# Bulk Modulus (GPa) = 48.31525 62.26880 55.29202
# Shear Modulus (GPa) = 24.90315 28.86933 26.88624
#
# Velocity S-wave (km/s) = 3.42001 3.68229 3.55357
# Velocity P-wave (km/s) = 6.18772 6.87934 6.54268
#
# Compressibility (1/GPa) = 0.02069740
#
# Stress axis : x y z
#
# Youngs Moduli (GPa) = 97.66019 97.66019 38.04786
#
# Poissons Ratio (x) = 0.26975 0.19538
# Poissons Ratio (y) = 0.26975 0.19538
# Poissons Ratio (z) = 0.50149 0.50149
#
# Static dielectric constant tensor:
#      x y z
#    x 1.839500 0.000000 0.000000 
#    y 0.000000 1.839500 0.000000 
#    z 0.000000 0.000000 1.764630 
# 
# From -- ./inp_files/5947.got.cif
#   From: 2010.05.17/outbox.cif.g08.bks.cpg/sg125_3_cif.got.tgz:5947.got - 2010.05.20 11:54:10.
