data_PCOD9563054
_publ_section_title
;
Structure prediction by ZEFSAII (Michael W. Deem and Ramdas Pophale) SiO2 
 PCOD9563054
Probable space group: P 4/N B M
;
_chemical_formula_sum "Si O2"
_cell_formula_units_Z 96
_cell_length_a 23.307343
_cell_length_b 23.307343
_cell_length_c 9.237371
_cell_angle_alpha 90.000000
_cell_angle_beta 90.000000
_cell_angle_gamma 90.000000
_cell_volume 5018.037719
_symmetry_space_group_name_H-M "P 4/N B M"
_symmetry_group_IT_number 125
_space_group.IT_coordinate_system_code '2'
_symmetry_cell_setting 'tetragonal'
loop_
_space_group_symop_operation_xyz
x,y,z
1/2-y,x,z
1/2-x,1/2-y,z
y,1/2-x,z
x,1/2-y,-z
1/2-x,y,-z
y,x,-z
1/2-y,1/2-x,-z
-x,-y,-z
1/2+y,-x,-z
1/2+x,1/2+y,-z
-y,1/2+x,-z
-x,1/2+y,z
1/2+x,-y,z
-y,-x,z
1/2+y,1/2+x,z
loop_
_atom_site_type_symbol
_atom_site_label
_atom_site_fract_x
_atom_site_fract_y
_atom_site_fract_z
Si Si1 0.458493 0.047460 0.174009
Si Si2 0.094207 0.811153 0.082477
Si Si3 0.364270 0.953504 0.185810
Si Si4 0.248008 0.397377 0.332978
Si Si5 0.244113 0.531706 0.661689
Si Si6 0.632346 0.639636 0.175074
O O1 0.428252 0.107636 0.213230
O O2 0.520663 0.020663 0.219490
O O3 0.410639 0.001252 0.221616
O O4 0.456577 0.043424 0.000000
O O5 0.152416 0.847585 0.090873
O O6 0.066419 0.799079 0.237182
O O7 0.102318 0.750000 0.000000
O O8 0.049995 0.848183 0.984336
O O9 0.392533 0.892533 0.220788
O O10 0.306172 0.962654 0.267414
O O11 0.250000 0.376083 0.500000
O O12 0.267091 0.463907 0.340175
O O13 0.185929 0.391083 0.256229
O O14 0.295781 0.367429 0.234140
O O15 0.250000 0.554018 0.500000
O O16 0.638009 0.638009 0.000000
#
# Coordination Sequence:
#
# PCOD9563054 Si02
#       6
#    16  16  16  16  16  16
#     4   9  18  32  55  88 119 145 180 236 297 340
#     4   9  19  33  55  81 110 147 191 239 288 343
#     4   9  17  33  56  81 111 146 186 232 286 339
#     4  11  24  42  59  83 120 160 193 237 300 356
#     4  10  21  35  54  81 116 155 194 233 285 353
#     4  11  23  38  65  91 115 151 202 252 287 344
#
# _framework density 19.130984000000002
#
# number of rings (size 3 to 8) (size 9 to 14) (size 15 to 20)
#    0.000    2.167    1.667    1.000    4.667    2.500 
#    0.000    1.667    0.000    3.000    0.000    2.333 
#    0.000    0.000    0.000    0.000    0.000    0.000 
#
# Total GULP energy -534864.860233 kJ/mol
# GULP energy per Si atom -5571.508961 kJ/mol
# Density = 1.908744 g / cm^3
# Si number density = 19.130984 Si / 1000 Ang^3
#
#
#
# Elastic Constant Matrix: (Units=GPa)
#
#
# Indices 1 2 3 4 5 6 
#
# 1 49.2393 15.3879 22.8339 0.0000 0.0000 0.0000
# 2 15.3879 49.2395 22.8337 0.0000 0.0000 0.0000
# 3 22.8339 22.8337 103.7793 0.0000 0.0000 0.0000
# 4 0.0000 0.0000 0.0000 21.0255 0.0000 0.0000
# 5 0.0000 0.0000 0.0000 0.0000 21.0251 0.0000
# 6 0.0000 0.0000 0.0000 0.0000 0.0000 20.6476
#
#
#
# Elastic Compliance Matrix: (Units=1/GPa)
#
#
# Indices 1 2 3 4 5 6 
#
# 1 0.023931 -0.005609 -0.004031 0.000000 0.000000 0.000000
# 2 -0.005609 0.023931 -0.004031 0.000000 0.000000 0.000000
# 3 -0.004031 -0.004031 0.011410 0.000000 0.000000 0.000000
# 4 0.000000 0.000000 0.000000 0.047561 0.000000 0.000000
# 5 0.000000 0.000000 0.000000 0.000000 0.047562 0.000000
# 6 0.000000 0.000000 0.000000 0.000000 0.000000 0.048432
#
#
# Mechanical properties :
#
#
# Convention : Reuss Voigt Hill
#
# Bulk Modulus (GPa) = 31.31980 36.04100 33.68040
# Shear Modulus (GPa) = 20.76287 21.95314 21.35801
#
# Velocity S-wave (km/s) = 3.29796 3.39118 3.34490
# Velocity P-wave (km/s) = 5.55958 5.84922 5.70624
#
# Compressibility (1/GPa) = 0.03192869
#
# Stress axis : x y z
#
# Youngs Moduli (GPa) = 41.78606 41.78628 87.64417
#
# Poissons Ratio (x) = 0.23440 0.35332
# Poissons Ratio (y) = 0.23439 0.35331
# Poissons Ratio (z) = 0.16845 0.16845
#
# Static dielectric constant tensor:
#      x y z
#    x 1.688690 0.000000 0.000000 
#    y 0.000000 1.688690 0.000000 
#    z 0.000000 0.000000 1.683180 
# 
# From -- ./inp_files/2839.got.cif
#   From: 2010.05.17/outbox.cif.g08.bks.cpg/sg125_2_cif.got.tgz:2839.got - 2010.05.20 11:54:10.
