data_PCOD9563180
_publ_section_title
;
Structure prediction by ZEFSAII (Michael W. Deem and Ramdas Pophale) SiO2 
 PCOD9563180
Probable space group: P 4/N B M
;
_chemical_formula_sum "Si O2"
_cell_formula_units_Z 96
_cell_length_a 15.389725
_cell_length_b 15.389725
_cell_length_c 20.207609
_cell_angle_alpha 90.000000
_cell_angle_beta 90.000000
_cell_angle_gamma 90.000000
_cell_volume 4786.043582
_symmetry_space_group_name_H-M "P 4/N B M"
_symmetry_group_IT_number 125
_space_group.IT_coordinate_system_code '2'
_symmetry_cell_setting 'tetragonal'
loop_
_space_group_symop_operation_xyz
x,y,z
1/2-y,x,z
1/2-x,1/2-y,z
y,1/2-x,z
x,1/2-y,-z
1/2-x,y,-z
y,x,-z
1/2-y,1/2-x,-z
-x,-y,-z
1/2+y,-x,-z
1/2+x,1/2+y,-z
-y,1/2+x,-z
-x,1/2+y,z
1/2+x,-y,z
-y,-x,z
1/2+y,1/2+x,z
loop_
_atom_site_type_symbol
_atom_site_label
_atom_site_fract_x
_atom_site_fract_y
_atom_site_fract_z
Si Si1 0.741290 0.895488 0.577911
Si Si2 0.838847 0.481603 0.680341
Si Si3 0.139171 0.160556 0.904060
Si Si4 0.319246 0.536572 0.058566
Si Si5 0.893790 0.249818 0.806160
Si Si6 0.145736 0.348281 0.747127
O O1 0.661426 0.828087 0.591013
O O2 0.750000 0.915784 0.500000
O O3 0.719301 0.980366 0.620757
O O4 0.905856 0.405856 0.660650
O O5 0.781351 0.445178 0.741524
O O6 0.891050 0.564845 0.710602
O O7 0.236563 0.134027 0.921394
O O8 0.136652 0.142795 0.825584
O O9 0.052310 0.125825 0.936646
O O10 0.381635 0.618366 0.050146
O O11 0.272538 0.547860 0.130326
O O12 0.250000 0.535729 0.000000
O O13 0.834166 0.165835 0.791480
O O14 0.827641 0.327641 0.824345
O O15 0.133152 0.245675 0.730906
#
# Coordination Sequence:
#
# PCOD9563180 Si02
#       6
#    16  16  16  16  16  16
#     4   9  19  39  64  85 111 152 197 233 273 336
#     4  11  21  33  55  89 123 149 184 237 290 336
#     4   9  19  37  58  80 111 148 183 226 290 361
#     4  11  23  39  60  83 108 145 198 253 301 353
#     4   9  19  36  55  76 109 154 197 235 282 346
#     4   9  17  32  55  80 109 147 187 225 273 338
#
# _framework density 20.058320999999999
#
# number of rings (size 3 to 8) (size 9 to 14) (size 15 to 20)
#    0.000    2.333    0.000    5.000    0.000    3.500 
#    0.000   10.833    0.000    0.000    0.000    0.000 
#    0.000    0.000    0.000    0.000    0.000    0.000 
#
# Total GULP energy -535562.093217 kJ/mol
# GULP energy per Si atom -5578.771804 kJ/mol
# Density = 2.001267 g / cm^3
# Si number density = 20.058321 Si / 1000 Ang^3
#
#
#
# Elastic Constant Matrix: (Units=GPa)
#
#
# Indices 1 2 3 4 5 6 
#
# 1 79.9316 27.1281 51.8305 0.0000 0.0000 0.0000
# 2 27.1281 79.9316 51.8305 0.0000 0.0000 0.0000
# 3 51.8305 51.8305 133.7464 0.0000 0.0000 0.0000
# 4 0.0000 0.0000 0.0000 32.5904 0.0000 0.0000
# 5 0.0000 0.0000 0.0000 0.0000 32.5904 0.0000
# 6 0.0000 0.0000 0.0000 0.0000 0.0000 7.2332
#
#
#
# Elastic Compliance Matrix: (Units=1/GPa)
#
#
# Indices 1 2 3 4 5 6 
#
# 1 0.016944 -0.001994 -0.005794 0.000000 0.000000 0.000000
# 2 -0.001994 0.016944 -0.005794 0.000000 0.000000 0.000000
# 3 -0.005794 -0.005794 0.011967 0.000000 0.000000 0.000000
# 4 0.000000 0.000000 0.000000 0.030684 0.000000 0.000000
# 5 0.000000 0.000000 0.000000 0.000000 0.030684 0.000000
# 6 0.000000 0.000000 0.000000 0.000000 0.000000 0.138252
#
#
# Mechanical properties :
#
#
# Convention : Reuss Voigt Hill
#
# Bulk Modulus (GPa) = 53.49532 61.68754 57.59143
# Shear Modulus (GPa) = 17.92958 25.33749 21.63354
#
# Velocity S-wave (km/s) = 2.99301 3.55800 3.28766
# Velocity P-wave (km/s) = 6.21868 6.90652 6.57160
#
# Compressibility (1/GPa) = 0.01869322
#
# Stress axis : x y z
#
# Youngs Moduli (GPa) = 59.01706 59.01706 83.56129
#
# Poissons Ratio (x) = 0.11768 0.48413
# Poissons Ratio (y) = 0.11768 0.48413
# Poissons Ratio (z) = 0.34193 0.34193
#
# Static dielectric constant tensor:
#      x y z
#    x 1.729350 0.000000 0.000000 
#    y 0.000000 1.729350 0.000000 
#    z 0.000000 0.000000 1.760880 
# 
# From -- ./inp_files/5911.got.cif
#   From: 2010.05.17/outbox.cif.g08.bks.cpg/sg125_3_cif.got.tgz:5911.got - 2010.05.20 11:54:10.
