data_PCOD9563616
_publ_section_title
;
Structure prediction by ZEFSAII (Michael W. Deem and Ramdas Pophale) SiO2 
 PCOD9563616
Probable space group: P 4/N N C
;
_chemical_formula_sum "Si O2"
_cell_formula_units_Z 80
_cell_length_a 11.043696
_cell_length_b 11.043696
_cell_length_c 31.742350
_cell_angle_alpha 90.000000
_cell_angle_beta 90.000000
_cell_angle_gamma 90.000000
_cell_volume 3871.399259
_symmetry_space_group_name_H-M "P 4/N N C"
_symmetry_group_IT_number 126
_space_group.IT_coordinate_system_code '2'
_symmetry_cell_setting 'tetragonal'
loop_
_space_group_symop_operation_xyz
x,y,z
1/2-y,x,z
1/2-x,1/2-y,z
y,1/2-x,z
x,1/2-y,1/2-z
1/2-x,y,1/2-z
y,x,1/2-z
1/2-y,1/2-x,1/2-z
-x,-y,-z
1/2+y,-x,-z
1/2+x,1/2+y,-z
-y,1/2+x,-z
-x,1/2+y,1/2+z
1/2+x,-y,1/2+z
-y,-x,1/2+z
1/2+y,1/2+x,1/2+z
loop_
_atom_site_type_symbol
_atom_site_label
_atom_site_fract_x
_atom_site_fract_y
_atom_site_fract_z
Si Si1 0.719196 0.945813 0.906604
Si Si2 0.085230 0.365395 0.798909
Si Si3 0.771661 0.452202 0.999288
Si Si4 0.669307 0.143117 0.350612
Si Si5 0.552945 0.765212 0.408463
O O1 0.615773 0.847556 0.897296
O O2 0.712766 0.975245 0.956285
O O3 0.699019 0.065206 0.879676
O O4 0.090700 0.221007 0.809729
O O5 0.092063 0.407938 0.750000
O O6 0.956259 0.393586 0.819986
O O7 0.878420 0.353784 0.002721
O O8 0.770830 0.529327 0.041746
O O9 0.750000 0.250000 0.330105
O O10 0.757396 0.070958 0.383013
O O11 0.624208 0.641219 0.398074
#
# Coordination Sequence:
#
# PCOD9563616 Si02
#       5
#    16  16  16  16  16
#     4  11  26  43  60  85 130 189 237 279 343 416
#     4   9  20  43  75 105 137 167 205 272 353 414
#     4  11  22  37  59  88 123 174 238 304 355 402
#     4  12  25  39  67 102 137 176 225 280 342 408
#     4  11  24  39  61  92 126 173 238 297 353 399
#
# _framework density 20.664361
#
# number of rings (size 3 to 8) (size 9 to 14) (size 15 to 20)
#    0.000    1.200    2.000    4.200    8.400    4.800 
#    0.000    2.000    0.000    0.000    0.000    1.400 
#    0.000    0.000    0.000    0.000    0.000    0.000 
#
# Total GULP energy -446750.212777 kJ/mol
# GULP energy per Si atom -5584.377660 kJ/mol
# Density = 2.061733 g / cm^3
# Si number density = 20.664361 Si / 1000 Ang^3
#
#
#
# Elastic Constant Matrix: (Units=GPa)
#
#
# Indices 1 2 3 4 5 6 
#
# 1 56.8851 56.8090 33.2457 0.0000 0.0000 0.0000
# 2 56.8090 56.8847 33.2456 0.0000 0.0000 0.0000
# 3 33.2457 33.2456 87.2971 0.0000 0.0000 0.0000
# 4 0.0000 0.0000 0.0000 22.5455 0.0000 0.0000
# 5 0.0000 0.0000 0.0000 0.0000 22.5453 0.0000
# 6 0.0000 0.0000 0.0000 0.0000 0.0000 -11.3116
#
#
#
# Elastic Compliance Matrix: (Units=1/GPa)
#
#
# Indices 1 2 3 4 5 6 
#
# 1 6.592160 -6.580867 -0.004312 0.000000 0.000000 0.000000
# 2 -6.580867 6.592205 -0.004307 0.000000 0.000000 0.000000
# 3 -0.004312 -0.004307 0.014738 0.000000 0.000000 0.000000
# 4 0.000000 0.000000 0.000000 0.044355 0.000000 0.000000
# 5 0.000000 0.000000 0.000000 0.000000 0.044355 0.000000
# 6 0.000000 0.000000 0.000000 0.000000 0.000000 -0.088405
#
#
# Mechanical properties :
#
#
# Convention : Reuss Voigt Hill
#
# Bulk Modulus (GPa) = 49.67372 49.74084 49.70728
# Shear Modulus (GPa) = 0.18950 11.94028 6.06489
#
# Velocity S-wave (km/s) = 0.30316 2.40640 1.71503
# Velocity P-wave (km/s) = 4.92068 5.64306 5.29420
#
# Compressibility (1/GPa) = 0.02013137
#
# Stress axis : x y z
#
# Youngs Moduli (GPa) = 0.15170 0.15169 67.85410
#
# Poissons Ratio (x) = 0.99828 0.29258
# Poissons Ratio (y) = 0.99829 0.29225
# Poissons Ratio (z) = 0.00065 0.00065
#
# Static dielectric constant tensor:
#      x y z
#    x 1.761090 0.000000 0.000000 
#    y 0.000000 1.761090 0.000000 
#    z 0.000000 0.000000 1.785510 
# 
# From -- ./inp_files/6427.got.cif
#   From: 2010.05.17/outbox.cif.g08.bks.cpg/sg126_4_cif.got.tgz:6427.got - 2010.05.20 11:58:20.
