data_PCOD9563050
_publ_section_title
;
Structure prediction by ZEFSAII (Michael W. Deem and Ramdas Pophale) SiO2 
 PCOD9563050
Probable space group: P 4/N B M
;
_chemical_formula_sum "Si O2"
_cell_formula_units_Z 96
_cell_length_a 25.522518
_cell_length_b 25.522518
_cell_length_c 8.364344
_cell_angle_alpha 90.000000
_cell_angle_beta 90.000000
_cell_angle_gamma 90.000000
_cell_volume 5448.524690
_symmetry_space_group_name_H-M "P 4/N B M"
_symmetry_group_IT_number 125
_space_group.IT_coordinate_system_code '2'
_symmetry_cell_setting 'tetragonal'
loop_
_space_group_symop_operation_xyz
x,y,z
1/2-y,x,z
1/2-x,1/2-y,z
y,1/2-x,z
x,1/2-y,-z
1/2-x,y,-z
y,x,-z
1/2-y,1/2-x,-z
-x,-y,-z
1/2+y,-x,-z
1/2+x,1/2+y,-z
-y,1/2+x,-z
-x,1/2+y,z
1/2+x,-y,z
-y,-x,z
1/2+y,1/2+x,z
loop_
_atom_site_type_symbol
_atom_site_label
_atom_site_fract_x
_atom_site_fract_y
_atom_site_fract_z
Si Si1 0.596467 0.491143 0.143560
Si Si2 0.216885 0.126611 0.839468
Si Si3 0.313346 0.359865 0.338256
Si Si4 0.817105 0.515338 0.366628
Si Si5 0.291816 0.493697 0.739721
Si Si6 0.928997 0.515574 0.226039
O O1 0.558819 0.441182 0.176468
O O2 0.657614 0.480686 0.176430
O O3 0.571838 0.541320 0.239605
O O4 0.587326 0.506664 0.958774
O O5 0.253190 0.152918 0.701260
O O6 0.161468 0.153495 0.811440
O O7 0.209252 0.065350 0.807777
O O8 0.250000 0.134193 0.000000
O O9 0.338644 0.338644 0.500000
O O10 0.313189 0.422330 0.341817
O O11 0.769924 0.489806 0.260810
O O12 0.805871 0.505613 0.552172
O O13 0.876813 0.504028 0.323993
O O14 0.973242 0.473242 0.265665
#
# Coordination Sequence:
#
# PCOD9563050 Si02
#       6
#    16  16  16  16  16  16
#     4   9  19  34  52  77 106 134 167 215 265 312
#     4  11  23  35  50  71  91 124 169 218 263 311
#     4  11  21  37  51  66  94 124 167 216 266 303
#     4  10  21  35  52  73 100 134 171 213 256 310
#     4  10  21  35  50  73 103 127 171 212 256 311
#     4   9  19  34  52  77 105 134 171 211 260 313
#
# _framework density 17.619448999999999
#
# number of rings (size 3 to 8) (size 9 to 14) (size 15 to 20)
#    0.000    2.000    1.667    3.000    4.667    1.000 
#    0.000    3.333    0.000    0.000    0.000    0.000 
#    0.000    0.667    0.000    7.333    0.000    5.333 
#
# Total GULP energy -534827.626446 kJ/mol
# GULP energy per Si atom -5571.121109 kJ/mol
# Density = 1.757935 g / cm^3
# Si number density = 17.619449 Si / 1000 Ang^3
#
#
#
# Elastic Constant Matrix: (Units=GPa)
#
#
# Indices 1 2 3 4 5 6 
#
# 1 45.3844 6.3206 17.1435 0.0000 0.0000 0.0000
# 2 6.3206 45.3844 17.1435 0.0000 0.0000 0.0000
# 3 17.1435 17.1435 37.3912 0.0000 0.0000 0.0000
# 4 0.0000 0.0000 0.0000 22.5816 0.0000 0.0000
# 5 0.0000 0.0000 0.0000 0.0000 22.5816 0.0000
# 6 0.0000 0.0000 0.0000 0.0000 0.0000 19.5933
#
#
#
# Elastic Compliance Matrix: (Units=1/GPa)
#
#
# Indices 1 2 3 4 5 6 
#
# 1 0.026694 0.001095 -0.012741 0.000000 0.000000 0.000000
# 2 0.001095 0.026694 -0.012741 0.000000 0.000000 0.000000
# 3 -0.012741 -0.012741 0.038428 0.000000 0.000000 0.000000
# 4 0.000000 0.000000 0.000000 0.044284 0.000000 0.000000
# 5 0.000000 0.000000 0.000000 0.000000 0.044284 0.000000
# 6 0.000000 0.000000 0.000000 0.000000 0.000000 0.051038
#
#
# Mechanical properties :
#
#
# Convention : Reuss Voigt Hill
#
# Bulk Modulus (GPa) = 23.23317 23.26390 23.24853
# Shear Modulus (GPa) = 16.97544 18.78815 17.88180
#
# Velocity S-wave (km/s) = 3.10731 3.26901 3.18919
# Velocity P-wave (km/s) = 5.10770 5.24221 5.17539
#
# Compressibility (1/GPa) = 0.04304191
#
# Stress axis : x y z
#
# Youngs Moduli (GPa) = 37.46116 37.46116 26.02296
#
# Poissons Ratio (x) = -0.04103 0.33156
# Poissons Ratio (y) = -0.04103 0.33156
# Poissons Ratio (z) = 0.47730 0.47730
#
# Static dielectric constant tensor:
#      x y z
#    x 1.641090 0.000000 0.000000 
#    y 0.000000 1.641090 0.000000 
#    z 0.000000 0.000000 1.677080 
# 
# From -- ./inp_files/2888.got.cif
#   From: 2010.05.17/outbox.cif.g08.bks.cpg/sg125_2_cif.got.tgz:2888.got - 2010.05.20 11:54:10.
