data_PCOD9563377
_publ_section_title
;
Structure prediction by ZEFSAII (Michael W. Deem and Ramdas Pophale) SiO2 
 PCOD9563377
Probable space group: P 4/N N C
;
_chemical_formula_sum "Si O2"
_cell_formula_units_Z 96
_cell_length_a 14.069560
_cell_length_b 14.069560
_cell_length_c 23.484193
_cell_angle_alpha 90.000000
_cell_angle_beta 90.000000
_cell_angle_gamma 90.000000
_cell_volume 4648.755151
_symmetry_space_group_name_H-M "P 4/N N C"
_symmetry_group_IT_number 126
_space_group.IT_coordinate_system_code '2'
_symmetry_cell_setting 'tetragonal'
loop_
_space_group_symop_operation_xyz
x,y,z
1/2-y,x,z
1/2-x,1/2-y,z
y,1/2-x,z
x,1/2-y,1/2-z
1/2-x,y,1/2-z
y,x,1/2-z
1/2-y,1/2-x,1/2-z
-x,-y,-z
1/2+y,-x,-z
1/2+x,1/2+y,-z
-y,1/2+x,-z
-x,1/2+y,1/2+z
1/2+x,-y,1/2+z
-y,-x,1/2+z
1/2+y,1/2+x,1/2+z
loop_
_atom_site_type_symbol
_atom_site_label
_atom_site_fract_x
_atom_site_fract_y
_atom_site_fract_z
Si Si1 0.668084 0.616319 0.462274
Si Si2 0.381544 0.824230 0.166352
Si Si3 0.986925 0.256679 0.374725
Si Si4 0.561776 0.940051 0.359736
Si Si5 0.426504 0.077418 0.074231
Si Si6 0.379835 0.612536 0.204371
O O1 0.779422 0.624376 0.471185
O O2 0.649955 0.589454 0.397030
O O3 0.618296 0.557421 0.512601
O O4 0.316826 0.887663 0.123824
O O5 0.491702 0.851355 0.156429
O O6 0.364440 0.711604 0.169449
O O7 0.362422 0.863832 0.230085
O O8 0.968267 0.190255 0.319589
O O9 0.017867 0.176904 0.420222
O O10 0.067030 0.338156 0.380985
O O11 0.488301 0.917468 0.309204
O O12 0.501321 0.000639 0.405273
#
# Coordination Sequence:
#
# PCOD9563377 Si02
#       6
#    16  16  16  16  16  16
#     4  11  21  35  57  80 108 143 189 227 281 341
#     4  10  20  36  58  83 115 150 188 232 284 341
#     4  10  20  34  56  84 111 152 189 232 283 341
#     4  10  21  35  56  82 110 144 188 233 280 335
#     4  10  20  36  55  78 113 147 184 236 285 334
#     4  10  20  36  58  83 115 150 188 232 284 341
#
# _framework density 20.650690999999998
#
# number of rings (size 3 to 8) (size 9 to 14) (size 15 to 20)
#    0.000    1.833    1.667    3.000    0.000    1.667 
#    0.000    2.500    0.000    0.000    0.000   16.333 
#    0.000    0.000    0.000    0.000    0.000    0.000 
#
# Total GULP energy -534495.923379 kJ/mol
# GULP energy per Si atom -5567.665869 kJ/mol
# Density = 2.060369 g / cm^3
# Si number density = 20.650691 Si / 1000 Ang^3
#
#
#
# Elastic Constant Matrix: (Units=GPa)
#
#
# Indices 1 2 3 4 5 6 
#
# 1 85.2758 -23.0747 17.9135 0.0000 0.0000 0.0000
# 2 -23.0747 85.2758 17.9135 0.0000 0.0000 0.0000
# 3 17.9135 17.9135 52.5773 0.0000 0.0000 0.0000
# 4 0.0000 0.0000 0.0000 25.7107 0.0000 0.0000
# 5 0.0000 0.0000 0.0000 0.0000 25.7107 0.0000
# 6 0.0000 0.0000 0.0000 0.0000 0.0000 32.8208
#
#
#
# Elastic Compliance Matrix: (Units=1/GPa)
#
#
# Indices 1 2 3 4 5 6 
#
# 1 0.014616 0.005386 -0.006815 0.000000 0.000000 0.000000
# 2 0.005386 0.014616 -0.006815 0.000000 0.000000 0.000000
# 3 -0.006815 -0.006815 0.023663 0.000000 0.000000 0.000000
# 4 0.000000 0.000000 0.000000 0.038894 0.000000 0.000000
# 5 0.000000 0.000000 0.000000 0.000000 0.038894 0.000000
# 6 0.000000 0.000000 0.000000 0.000000 0.000000 0.030468
#
#
# Mechanical properties :
#
#
# Convention : Reuss Voigt Hill
#
# Bulk Modulus (GPa) = 27.46641 27.62598 27.54620
# Shear Modulus (GPa) = 26.34704 30.87357 28.61030
#
# Velocity S-wave (km/s) = 3.57577 3.87077 3.72619
# Velocity P-wave (km/s) = 5.51158 5.77788 5.64630
#
# Compressibility (1/GPa) = 0.03640810
#
# Stress axis : x y z
#
# Youngs Moduli (GPa) = 68.41939 68.41939 42.25935
#
# Poissons Ratio (x) = -0.36854 0.28799
# Poissons Ratio (y) = -0.36854 0.28799
# Poissons Ratio (z) = 0.46627 0.46627
#
# Static dielectric constant tensor:
#      x y z
#    x 1.789370 0.000000 0.000000 
#    y 0.000000 1.789370 0.000000 
#    z 0.000000 0.000000 1.743580 
# 
# From -- ./inp_files/5220.got.cif
#   From: 2010.05.17/outbox.cif.g08.bks.cpg/sg126_3_cif.got.tgz:5220.got - 2010.05.20 11:58:20.
