data_PCOD9563014
_publ_section_title
;
Structure prediction by ZEFSAII (Michael W. Deem and Ramdas Pophale) SiO2 
 PCOD9563014
Probable space group: P 4/N B M
;
_chemical_formula_sum "Si O2"
_cell_formula_units_Z 56
_cell_length_a 20.083271
_cell_length_b 20.083271
_cell_length_c 7.785056
_cell_angle_alpha 90.000000
_cell_angle_beta 90.000000
_cell_angle_gamma 90.000000
_cell_volume 3140.007158
_symmetry_space_group_name_H-M "P 4/N B M"
_symmetry_group_IT_number 125
_space_group.IT_coordinate_system_code '2'
_symmetry_cell_setting 'tetragonal'
loop_
_space_group_symop_operation_xyz
x,y,z
1/2-y,x,z
1/2-x,1/2-y,z
y,1/2-x,z
x,1/2-y,-z
1/2-x,y,-z
y,x,-z
1/2-y,1/2-x,-z
-x,-y,-z
1/2+y,-x,-z
1/2+x,1/2+y,-z
-y,1/2+x,-z
-x,1/2+y,z
1/2+x,-y,z
-y,-x,z
1/2+y,1/2+x,z
loop_
_atom_site_type_symbol
_atom_site_label
_atom_site_fract_x
_atom_site_fract_y
_atom_site_fract_z
Si Si1 0.606413 0.503430 0.524932
Si Si2 0.250000 0.538649 0.000000
Si Si3 0.703465 0.092352 0.653829
Si Si4 0.606854 0.500593 0.935257
O O1 0.577385 0.577385 0.500000
O O2 0.547685 0.452316 0.470135
O O3 0.669292 0.476051 0.419234
O O4 0.613658 0.497253 0.729491
O O5 0.254063 0.580791 0.825131
O O6 0.181323 0.498255 0.004449
O O7 0.750000 0.116800 0.500000
O O8 0.645374 0.145374 0.686660
O O9 0.565723 0.434278 0.989979
O O10 0.561655 0.561655 0.000000
#
# Coordination Sequence:
#
# PCOD9563014 Si02
#       4
#    16   8  16  16
#     4   9  17  33  56  80 108 142 183 236 292 341
#     4  12  22  36  60  86 116 150 198 244 294 348
#     4  11  23  38  55  79 115 156 196 240 288 347
#     4  10  20  35  57  86 116 148 191 242 295 350
#
# _framework density 17.834354000000001
#
# number of rings (size 3 to 8) (size 9 to 14) (size 15 to 20)
#    0.000    1.714    2.857    2.571    0.000    6.000 
#    0.000    0.000    0.000    4.286    0.000    0.000 
#    0.000    0.571    0.000    0.000    0.000    0.000 
#
# Total GULP energy -312171.100480 kJ/mol
# GULP energy per Si atom -5574.483937 kJ/mol
# Density = 1.779376 g / cm^3
# Si number density = 17.834354 Si / 1000 Ang^3
#
#
#
# Elastic Constant Matrix: (Units=GPa)
#
#
# Indices 1 2 3 4 5 6 
#
# 1 75.4619 39.4325 24.6128 0.0000 0.0000 0.0000
# 2 39.4325 75.4619 24.6128 0.0000 0.0000 0.0000
# 3 24.6128 24.6128 104.4075 0.0000 0.0000 0.0000
# 4 0.0000 0.0000 0.0000 23.9244 0.0000 0.0000
# 5 0.0000 0.0000 0.0000 0.0000 23.9244 0.0000
# 6 0.0000 0.0000 0.0000 0.0000 0.0000 15.1488
#
#
#
# Elastic Compliance Matrix: (Units=1/GPa)
#
#
# Indices 1 2 3 4 5 6 
#
# 1 0.018718 -0.009037 -0.002282 0.000000 0.000000 0.000000
# 2 -0.009037 0.018718 -0.002282 0.000000 0.000000 0.000000
# 3 -0.002282 -0.002282 0.010654 0.000000 0.000000 0.000000
# 4 0.000000 0.000000 0.000000 0.041798 0.000000 0.000000
# 5 0.000000 0.000000 0.000000 0.000000 0.041798 0.000000
# 6 0.000000 0.000000 0.000000 0.000000 0.000000 0.066012
#
#
# Mechanical properties :
#
#
# Convention : Reuss Voigt Hill
#
# Bulk Modulus (GPa) = 47.87511 48.07197 47.97354
# Shear Modulus (GPa) = 21.56435 23.71108 22.63772
#
# Velocity S-wave (km/s) = 3.48105 3.65021 3.56663
# Velocity P-wave (km/s) = 6.56198 6.69168 6.62715
#
# Compressibility (1/GPa) = 0.02088768
#
# Stress axis : x y z
#
# Youngs Moduli (GPa) = 53.42359 53.42359 93.86233
#
# Poissons Ratio (x) = 0.48278 0.21422
# Poissons Ratio (y) = 0.48278 0.21422
# Poissons Ratio (z) = 0.12193 0.12193
#
# Static dielectric constant tensor:
#      x y z
#    x 1.627420 0.000000 0.000000 
#    y 0.000000 1.627420 0.000000 
#    z 0.000000 0.000000 1.658460 
# 
# From -- ./inp_files/2055.got.cif
#   From: 2010.05.17/outbox.cif.g08.bks.cpg/sg125_2_cif.got.tgz:2055.got - 2010.05.20 11:54:10.
