data_PCOD9563673
_publ_section_title
;
Structure prediction by ZEFSAII (Michael W. Deem and Ramdas Pophale) SiO2 
 PCOD9563673
Probable space group: P 4/N N C
;
_chemical_formula_sum "Si O2"
_cell_formula_units_Z 40
_cell_length_a 15.493937
_cell_length_b 15.493937
_cell_length_c 7.654884
_cell_angle_alpha 90.000000
_cell_angle_beta 90.000000
_cell_angle_gamma 90.000000
_cell_volume 1837.647404
_symmetry_space_group_name_H-M "P 4/N N C"
_symmetry_group_IT_number 126
_space_group.IT_coordinate_system_code '2'
_symmetry_cell_setting 'tetragonal'
loop_
_space_group_symop_operation_xyz
x,y,z
1/2-y,x,z
1/2-x,1/2-y,z
y,1/2-x,z
x,1/2-y,1/2-z
1/2-x,y,1/2-z
y,x,1/2-z
1/2-y,1/2-x,1/2-z
-x,-y,-z
1/2+y,-x,-z
1/2+x,1/2+y,-z
-y,1/2+x,-z
-x,1/2+y,1/2+z
1/2+x,-y,1/2+z
-y,-x,1/2+z
1/2+y,1/2+x,1/2+z
loop_
_atom_site_type_symbol
_atom_site_label
_atom_site_fract_x
_atom_site_fract_y
_atom_site_fract_z
Si Si1 0.850245 0.850245 0.250000
Si Si2 0.591730 0.963376 0.939433
Si Si3 0.383206 0.783303 0.448070
O O1 0.750000 0.867407 0.250000
O O2 0.888554 0.889783 0.423021
O O3 0.577120 0.922881 0.750000
O O4 0.500000 0.000000 0.000000
O O5 0.665135 0.037266 0.965029
O O6 0.402038 0.750000 0.250000
O O7 0.349161 0.698693 0.551593
#
# Coordination Sequence:
#
# PCOD9563673 Si02
#       3
#     8  16  16
#     4  11  28  54  74 104 150 203 252 306 362 437
#     4  12  26  46  75 114 150 200 248 306 375 443
#     4  11  24  45  71 110 150 191 244 314 388 447
#
# _framework density 21.766964000000002
#
# number of rings (size 3 to 8) (size 9 to 14) (size 15 to 20)
#    0.000    0.600    2.000    6.000    5.600    1.600 
#    0.000    2.000    0.000    0.000    0.000    0.000 
#    0.000    0.000    0.000    0.000    0.000    0.000 
#
# Total GULP energy -223981.311827 kJ/mol
# GULP energy per Si atom -5599.532796 kJ/mol
# Density = 2.171742 g / cm^3
# Si number density = 21.766964 Si / 1000 Ang^3
#
#
#
# Elastic Constant Matrix: (Units=GPa)
#
#
# Indices 1 2 3 4 5 6 
#
# 1 162.1458 79.6693 103.1058 0.0000 0.0000 0.0000
# 2 79.6693 162.1470 103.1065 0.0000 0.0000 0.0000
# 3 103.1058 103.1065 239.1566 0.0000 0.0000 0.0000
# 4 0.0000 0.0000 0.0000 40.9095 0.0000 0.0000
# 5 0.0000 0.0000 0.0000 0.0000 40.9097 0.0000
# 6 0.0000 0.0000 0.0000 0.0000 0.0000 -232.1137
#
#
#
# Elastic Compliance Matrix: (Units=1/GPa)
#
#
# Indices 1 2 3 4 5 6 
#
# 1 0.009332 -0.002792 -0.002819 0.000000 0.000000 0.000000
# 2 -0.002792 0.009332 -0.002819 0.000000 0.000000 0.000000
# 3 -0.002819 -0.002819 0.006612 0.000000 0.000000 0.000000
# 4 0.000000 0.000000 0.000000 0.024444 0.000000 0.000000
# 5 0.000000 0.000000 0.000000 0.000000 0.024444 0.000000
# 6 0.000000 0.000000 0.000000 0.000000 0.000000 -0.004308
#
#
# Mechanical properties :
#
#
# Convention : Reuss Voigt Hill
#
# Bulk Modulus (GPa) = 118.84807 126.13473 122.49140
# Shear Modulus (GPa) = 55.85098 -11.55438 22.14830
#
# Velocity S-wave (km/s) = 5.07093 -2.30646 3.19332
# Velocity P-wave (km/s) = 9.43422 7.14007 8.36615
#
# Compressibility (1/GPa) = 0.00841410
#
# Stress axis : x y z
#
# Youngs Moduli (GPa) = 107.15638 107.15694 151.23115
#
# Poissons Ratio (x) = 0.29923 0.42638
# Poissons Ratio (y) = 0.29923 0.42638
# Poissons Ratio (z) = 0.30212 0.30212
#
# Static dielectric constant tensor:
#      x y z
#    x 1.774550 0.000000 0.000000 
#    y 0.000000 1.774550 0.000000 
#    z 0.000000 0.000000 0.852090 
# 
# From -- ./inp_files/941.got.cif
#   From: 2010.05.17/outbox.cif.g08.bks.cpg/sg126_1_cif.got.tgz:941.got - 2010.05.20 11:58:20.
