data_PCOD9563939
_publ_section_title
;
Structure prediction by ZEFSAII (Michael W. Deem and Ramdas Pophale) SiO2 
 PCOD9563939
Probable space group: P 4/M B M
;
_chemical_formula_sum "Si O2"
_cell_formula_units_Z 96
_cell_length_a 15.373952
_cell_length_b 15.373952
_cell_length_c 23.149509
_cell_angle_alpha 90.000000
_cell_angle_beta 90.000000
_cell_angle_gamma 90.000000
_cell_volume 5471.580910
_symmetry_space_group_name_H-M "P 4/M B M"
_symmetry_group_IT_number 127
_symmetry_cell_setting 'tetragonal'
loop_
_space_group_symop_operation_xyz
x,y,z
-y,x,z
-x,-y,z
y,-x,z
1/2+x,1/2-y,-z
1/2-x,1/2+y,-z
1/2+y,1/2+x,-z
1/2-y,1/2-x,-z
-x,-y,-z
y,-x,-z
x,y,-z
-y,x,-z
1/2-x,1/2+y,z
1/2+x,1/2-y,z
1/2-y,1/2-x,z
1/2+y,1/2+x,z
loop_
_atom_site_type_symbol
_atom_site_label
_atom_site_fract_x
_atom_site_fract_y
_atom_site_fract_z
Si Si1 0.817427 0.169784 0.430512
Si Si2 0.074754 0.574754 0.065589
Si Si3 0.250710 0.512863 0.618344
Si Si4 0.452038 0.638176 0.933675
Si Si5 0.953333 0.693574 0.862293
Si Si6 0.567690 0.932311 0.431748
Si Si7 0.352945 0.999234 0.732701
O O1 0.830982 0.167322 0.500000
O O2 0.748147 0.248147 0.419208
O O3 0.779808 0.078798 0.407840
O O4 0.908136 0.185610 0.397524
O O5 0.154251 0.531618 0.099288
O O6 0.000000 0.500000 0.064939
O O7 0.097046 0.597046 0.000000
O O8 0.162233 0.541368 0.587305
O O9 0.222213 0.505462 0.684997
O O10 0.393693 0.551835 0.927264
O O11 0.431977 0.712221 0.887431
O O12 0.441107 0.670201 0.000000
O O13 0.871367 0.628634 0.868718
O O14 0.983258 0.686763 0.795981
O O15 0.563627 0.936374 0.500000
O O16 0.500000 0.000000 0.405264
O O17 0.417924 0.917924 0.720330
O O18 0.415088 0.084913 0.732156
#
# Coordination Sequence:
#
# PCOD9563939 Si02
#       7
#    16   8  16  16  16   8  16
#     4  11  23  40  62  91 125 155 194 246 302 362
#     4   9  16  27  49  81 117 148 175 219 292 354
#     4  12  23  39  61  86 118 162 197 242 301 357
#     4   9  19  38  60  81 113 159 200 238 288 343
#     4  10  19  34  56  85 116 150 187 240 297 343
#     4  11  20  33  59  91 113 141 196 249 296 347
#     4  10  19  36  60  84 115 154 199 248 297 352
#
# _framework density 17.545202
#
# number of rings (size 3 to 8) (size 9 to 14) (size 15 to 20)
#    0.000    1.667    2.500    4.000    0.000    2.667 
#    4.500    0.833    0.000    0.000    0.000    0.000 
#    0.000    0.000    0.000    0.000    0.000    0.000 
#
# Total GULP energy -535820.938649 kJ/mol
# GULP energy per Si atom -5581.468111 kJ/mol
# Density = 1.750527 g / cm^3
# Si number density = 17.545202 Si / 1000 Ang^3
#
#
#
# Elastic Constant Matrix: (Units=GPa)
#
#
# Indices 1 2 3 4 5 6 
#
# 1 80.8949 17.2961 46.3189 0.0000 0.0000 0.0000
# 2 17.2961 80.8950 46.3189 0.0000 0.0000 0.0000
# 3 46.3189 46.3189 138.4013 0.0000 0.0000 0.0000
# 4 0.0000 0.0000 0.0000 29.4144 0.0000 0.0000
# 5 0.0000 0.0000 0.0000 0.0000 29.4145 0.0000
# 6 0.0000 0.0000 0.0000 0.0000 0.0000 24.0107
#
#
#
# Elastic Compliance Matrix: (Units=1/GPa)
#
#
# Indices 1 2 3 4 5 6 
#
# 1 0.015304 -0.000420 -0.004981 0.000000 0.000000 0.000000
# 2 -0.000420 0.015304 -0.004981 0.000000 0.000000 0.000000
# 3 -0.004981 -0.004981 0.010559 0.000000 0.000000 0.000000
# 4 0.000000 0.000000 0.000000 0.033997 0.000000 0.000000
# 5 0.000000 0.000000 0.000000 0.000000 0.033997 0.000000
# 6 0.000000 0.000000 0.000000 0.000000 0.000000 0.041648
#
#
# Mechanical properties :
#
#
# Convention : Reuss Voigt Hill
#
# Bulk Modulus (GPa) = 49.01425 57.78432 53.39929
# Shear Modulus (GPa) = 28.03104 29.25174 28.64139
#
# Velocity S-wave (km/s) = 4.00139 4.08759 4.04472
# Velocity P-wave (km/s) = 7.02459 7.43532 7.23287
#
# Compressibility (1/GPa) = 0.02040223
#
# Stress axis : x y z
#
# Youngs Moduli (GPa) = 65.34412 65.34413 94.70202
#
# Poissons Ratio (x) = 0.02744 0.47172
# Poissons Ratio (y) = 0.02744 0.47172
# Poissons Ratio (z) = 0.32549 0.32549
#
# Static dielectric constant tensor:
#      x y z
#    x 1.598070 0.000000 0.000000 
#    y 0.000000 1.598070 0.000000 
#    z 0.000000 0.000000 1.603880 
# 
# From -- ./inp_files/6126.got.cif
#   From: 2010.05.17/outbox.cif.g08.bks.cpg/sg127_4_cif.got.tgz:6126.got - 2010.05.20 12:03:00.
