data_PCOD9563822
_publ_section_title
;
Structure prediction by ZEFSAII (Michael W. Deem and Ramdas Pophale) SiO2 
 PCOD9563822
Probable space group: P 4/M B M
;
_chemical_formula_sum "Si O2"
_cell_formula_units_Z 104
_cell_length_a 15.261509
_cell_length_b 15.261509
_cell_length_c 27.448660
_cell_angle_alpha 90.000000
_cell_angle_beta 90.000000
_cell_angle_gamma 90.000000
_cell_volume 6393.167779
_symmetry_space_group_name_H-M "P 4/M B M"
_symmetry_group_IT_number 127
_symmetry_cell_setting 'tetragonal'
loop_
_space_group_symop_operation_xyz
x,y,z
-y,x,z
-x,-y,z
y,-x,z
1/2+x,1/2-y,-z
1/2-x,1/2+y,-z
1/2+y,1/2+x,-z
1/2-y,1/2-x,-z
-x,-y,-z
y,-x,-z
x,y,-z
-y,x,-z
1/2-x,1/2+y,z
1/2+x,1/2-y,z
1/2-y,1/2-x,z
1/2+y,1/2+x,z
loop_
_atom_site_type_symbol
_atom_site_label
_atom_site_fract_x
_atom_site_fract_y
_atom_site_fract_z
Si Si1 0.672069 0.025163 0.277133
Si Si2 0.972813 0.145431 0.000000
Si Si3 0.972507 0.146531 0.107633
Si Si4 0.762060 0.405384 0.806267
Si Si5 0.644997 0.476878 0.443111
Si Si6 0.681705 0.669200 0.278695
Si Si7 0.735054 0.907241 0.361678
O O1 0.589595 0.089595 0.276541
O O2 0.760468 0.083246 0.278539
O O3 0.679469 0.966766 0.228774
O O4 0.676804 0.966036 0.325276
O O5 0.066872 0.097624 0.000000
O O6 0.964869 0.187728 0.946801
O O7 0.901386 0.067150 0.111961
O O8 0.954199 0.218307 0.148588
O O9 0.822160 0.322160 0.820752
O O10 0.684044 0.373495 0.770171
O O11 0.596971 0.569930 0.435170
O O12 0.670712 0.472863 0.500000
O O13 0.724435 0.458725 0.406801
O O14 0.749363 0.750638 0.278944
O O15 0.624646 0.684982 0.326820
O O16 0.676185 0.823816 0.376764
#
# Coordination Sequence:
#
# PCOD9563822 Si02
#       7
#    16   8  16  16  16  16  16
#     4  10  19  32  49  66  90 125 158 185 219 267
#     4   7  12  24  43  66  88 111 143 185 230 273
#     4   9  16  28  47  68  89 115 149 188 230 273
#     4  10  19  29  42  65  95 122 152 188 225 267
#     4   9  18  33  52  72  93 118 150 188 229 271
#     4   8  16  29  43  62  88 117 150 188 224 255
#     4  10  19  30  47  71  96 121 151 187 225 267
#
# _framework density 16.267365000000002
#
# number of rings (size 3 to 8) (size 9 to 14) (size 15 to 20)
#    0.000    2.846    0.000    4.615    0.000    1.538 
#    0.000    0.385    0.000    8.769    0.000    2.692 
#    0.000    1.231    0.000    0.000    0.000    0.000 
#
# Total GULP energy -579126.400495 kJ/mol
# GULP energy per Si atom -5568.523082 kJ/mol
# Density = 1.623034 g / cm^3
# Si number density = 16.267365 Si / 1000 Ang^3
#
#
#
# Elastic Constant Matrix: (Units=GPa)
#
#
# Indices 1 2 3 4 5 6 
#
# 1 50.3186 15.4770 37.6473 0.0000 0.0000 0.0000
# 2 15.4770 50.3186 37.6473 0.0000 0.0000 0.0000
# 3 37.6473 37.6473 117.1885 0.0000 0.0000 0.0000
# 4 0.0000 0.0000 0.0000 6.4021 0.0000 0.0000
# 5 0.0000 0.0000 0.0000 0.0000 6.4021 0.0000
# 6 0.0000 0.0000 0.0000 0.0000 0.0000 23.6750
#
#
#
# Elastic Compliance Matrix: (Units=1/GPa)
#
#
# Indices 1 2 3 4 5 6 
#
# 1 0.026368 -0.002333 -0.007721 0.000000 0.000000 0.000000
# 2 -0.002333 0.026368 -0.007721 0.000000 0.000000 0.000000
# 3 -0.007721 -0.007721 0.013494 0.000000 0.000000 0.000000
# 4 0.000000 0.000000 0.000000 0.156199 0.000000 0.000000
# 5 0.000000 0.000000 0.000000 0.000000 0.156199 0.000000
# 6 0.000000 0.000000 0.000000 0.000000 0.000000 0.042239
#
#
# Mechanical properties :
#
#
# Convention : Reuss Voigt Hill
#
# Bulk Modulus (GPa) = 32.59617 44.37433 38.48525
# Shear Modulus (GPa) = 10.71478 15.76611 13.24045
#
# Velocity S-wave (km/s) = 2.56924 3.11655 2.85604
# Velocity P-wave (km/s) = 5.37425 6.34727 5.88092
#
# Compressibility (1/GPa) = 0.03067845
#
# Stress axis : x y z
#
# Youngs Moduli (GPa) = 37.92486 37.92486 74.10591
#
# Poissons Ratio (x) = 0.08849 0.57219
# Poissons Ratio (y) = 0.08849 0.57219
# Poissons Ratio (z) = 0.29283 0.29283
#
# Static dielectric constant tensor:
#      x y z
#    x 1.547110 0.000000 0.000000 
#    y 0.000000 1.547110 0.000000 
#    z 0.000000 0.000000 1.556290 
# 
# From -- ./inp_files/6190.got.cif
#   From: 2010.05.17/outbox.cif.g08.bks.cpg/sg127_4_cif.got.tgz:6190.got - 2010.05.20 12:03:00.
