data_PCOD9563718
_publ_section_title
;
Structure prediction by ZEFSAII (Michael W. Deem and Ramdas Pophale) SiO2 
 PCOD9563718
Probable space group: P 4/N N C
;
_chemical_formula_sum "Si O2"
_cell_formula_units_Z 96
_cell_length_a 14.968183
_cell_length_b 14.968183
_cell_length_c 18.139893
_cell_angle_alpha 90.000000
_cell_angle_beta 90.000000
_cell_angle_gamma 90.000000
_cell_volume 4064.179579
_symmetry_space_group_name_H-M "P 4/N N C"
_symmetry_group_IT_number 126
_space_group.IT_coordinate_system_code '2'
_symmetry_cell_setting 'tetragonal'
loop_
_space_group_symop_operation_xyz
x,y,z
1/2-y,x,z
1/2-x,1/2-y,z
y,1/2-x,z
x,1/2-y,1/2-z
1/2-x,y,1/2-z
y,x,1/2-z
1/2-y,1/2-x,1/2-z
-x,-y,-z
1/2+y,-x,-z
1/2+x,1/2+y,-z
-y,1/2+x,-z
-x,1/2+y,1/2+z
1/2+x,-y,1/2+z
-y,-x,1/2+z
1/2+y,1/2+x,1/2+z
loop_
_atom_site_type_symbol
_atom_site_label
_atom_site_fract_x
_atom_site_fract_y
_atom_site_fract_z
Si Si1 0.170932 0.916193 0.039230
Si Si2 0.390720 0.271622 0.462196
Si Si3 0.674376 0.086079 0.160828
Si Si4 0.354842 0.993505 0.238311
Si Si5 0.892751 0.764827 0.139834
Si Si6 0.847333 0.354210 0.886969
O O1 0.088431 0.868562 0.078575
O O2 0.255133 0.859269 0.067851
O O3 0.195194 0.014707 0.064887
O O4 0.156654 0.918487 0.952336
O O5 0.321142 0.347636 0.437425
O O6 0.396418 0.251013 0.550612
O O7 0.591470 0.120676 0.208843
O O8 0.764867 0.144701 0.161769
O O9 0.710024 0.987264 0.172853
O O10 0.250000 0.018158 0.250000
O O11 0.361751 0.944032 0.159026
O O12 0.425535 0.074466 0.250000
O O13 0.826452 0.844739 0.161906
#
# Coordination Sequence:
#
# PCOD9563718 Si02
#       6
#    16  16  16  16  16  16
#     4  12  23  41  76 111 151 197 252 317 397 469
#     4   9  19  38  61  96 148 197 243 307 377 445
#     4  12  25  44  77 111 151 196 251 325 384 468
#     4  12  31  55  80 110 153 209 267 321 389 475
#     4   9  19  39  67 100 144 194 239 299 384 461
#     4  12  25  46  75 114 156 197 248 314 402 469
#
# _framework density 23.621005
#
# number of rings (size 3 to 8) (size 9 to 14) (size 15 to 20)
#    0.000    1.000    5.000    2.000    2.333    2.167 
#    0.000    3.333    0.000    0.000    0.000    0.000 
#    0.000    0.000    0.000    0.000    0.000    0.000 
#
# Total GULP energy -536404.436610 kJ/mol
# GULP energy per Si atom -5587.546215 kJ/mol
# Density = 2.356724 g / cm^3
# Si number density = 23.621005 Si / 1000 Ang^3
#
#
#
# Elastic Constant Matrix: (Units=GPa)
#
#
# Indices 1 2 3 4 5 6 
#
# 1 103.7397 149.3248 36.1798 0.0000 0.0000 0.0000
# 2 149.3248 103.7390 36.1799 0.0000 0.0000 0.0000
# 3 36.1798 36.1799 78.0034 0.0000 0.0000 0.0000
# 4 0.0000 0.0000 0.0000 16.1744 0.0000 0.0000
# 5 0.0000 0.0000 0.0000 0.0000 16.1741 0.0000
# 6 0.0000 0.0000 0.0000 0.0000 0.0000 -20.0602
#
#
#
# Elastic Compliance Matrix: (Units=1/GPa)
#
#
# Indices 1 2 3 4 5 6 
#
# 1 -0.008690 0.013246 -0.002113 0.000000 0.000000 0.000000
# 2 0.013246 -0.008691 -0.002113 0.000000 0.000000 0.000000
# 3 -0.002113 -0.002113 0.014780 0.000000 0.000000 0.000000
# 4 0.000000 0.000000 0.000000 0.061826 0.000000 0.000000
# 5 0.000000 0.000000 0.000000 0.000000 0.061827 0.000000
# 6 0.000000 0.000000 0.000000 0.000000 0.000000 -0.049850
#
#
# Mechanical properties :
#
#
# Convention : Reuss Voigt Hill
#
# Bulk Modulus (GPa) = 64.76940 80.98344 72.87642
# Shear Modulus (GPa) = 85.75000 6.71081 46.23041
#
# Velocity S-wave (km/s) = 6.03169 1.68737 4.42879
# Velocity P-wave (km/s) = 8.71712 6.17699 7.55458
#
# Compressibility (1/GPa) = 0.01543939
#
# Stress axis : x y z
#
# Youngs Moduli (GPa) = -115.06837 -115.06735 67.65832
#
# Poissons Ratio (x) = 1.52422 0.14297
# Poissons Ratio (y) = 1.52423 0.14296
# Poissons Ratio (z) = -0.24315 -0.24314
#
# Static dielectric constant tensor:
#      x y z
#    x 1.882040 0.000000 0.000000 
#    y 0.000000 1.882040 0.000000 
#    z 0.000000 0.000000 2.024960 
# 
# From -- ./inp_files/5259.got.cif
#   From: 2010.05.17/outbox.cif.g08.bks.cpg/sg126_3_cif.got.tgz:5259.got - 2010.05.20 11:58:20.
