data_PCOD9563062
_publ_section_title
;
Structure prediction by ZEFSAII (Michael W. Deem and Ramdas Pophale) SiO2 
 PCOD9563062
Probable space group: P 4/N B M
;
_chemical_formula_sum "Si O2"
_cell_formula_units_Z 90
_cell_length_a 17.046993
_cell_length_b 17.046993
_cell_length_c 14.316505
_cell_angle_alpha 90.000000
_cell_angle_beta 90.000000
_cell_angle_gamma 90.000000
_cell_volume 4160.375928
_symmetry_space_group_name_H-M "P 4/N B M"
_symmetry_group_IT_number 125
_space_group.IT_coordinate_system_code '2'
_symmetry_cell_setting 'tetragonal'
loop_
_space_group_symop_operation_xyz
x,y,z
1/2-y,x,z
1/2-x,1/2-y,z
y,1/2-x,z
x,1/2-y,-z
1/2-x,y,-z
y,x,-z
1/2-y,1/2-x,-z
-x,-y,-z
1/2+y,-x,-z
1/2+x,1/2+y,-z
-y,1/2+x,-z
-x,1/2+y,z
1/2+x,-y,z
-y,-x,z
1/2+y,1/2+x,z
loop_
_atom_site_type_symbol
_atom_site_label
_atom_site_fract_x
_atom_site_fract_y
_atom_site_fract_z
Si Si1 0.340043 0.659958 0.161241
Si Si2 0.750000 0.045536 0.500000
Si Si3 0.928149 0.200939 0.173982
Si Si4 0.665818 0.846858 0.735078
Si Si5 0.185431 0.814570 0.378414
Si Si6 0.578256 0.827667 0.062228
Si Si7 0.625781 0.996518 0.641168
Si Si8 0.250000 0.750000 0.000000
O O1 0.295414 0.576775 0.162426
O O2 0.315423 0.684578 0.266677
O O3 0.302592 0.697409 0.068278
O O4 0.711334 0.103768 0.423691
O O5 0.681493 0.998531 0.551277
O O6 0.845060 0.154941 0.162762
O O7 0.960985 0.173406 0.273971
O O8 0.989690 0.172825 0.097695
O O9 0.642770 0.758176 0.712414
O O10 0.665091 0.867638 0.845215
O O11 0.614130 0.909031 0.678743
O O12 0.250000 0.750000 0.403166
O O13 0.594855 0.750000 0.000000
O O14 0.598107 0.901894 0.000000
O O15 0.547885 0.047885 0.625883
#
# Coordination Sequence:
#
# PCOD9563062 Si02
#       8
#     8   8  16  16   8  16  16   2
#     4  12  22  36  53  86 130 187 235 265 312 398
#     4  12  19  32  62  97 130 176 222 278 342 393
#     4  10  21  36  56  83 132 178 212 263 329 407
#     4  10  21  41  71  96 124 171 228 284 335 398
#     4  12  18  29  54  88 128 170 238 285 311 381
#     4  11  22  37  61  91 120 154 222 296 338 380
#     4  10  21  37  62  99 138 171 208 275 355 409
#     4  12  24  28  52  74 132 192 216 260 320 378
#
# _framework density 21.632660999999999
#
# number of rings (size 3 to 8) (size 9 to 14) (size 15 to 20)
#    0.000    1.244    6.667    0.000    1.244    0.533 
#    0.000    0.889    9.778    2.133    0.000    0.000 
#    0.000    0.000    0.000    0.000    0.000    0.000 
#
# Total GULP energy -502016.348315 kJ/mol
# GULP energy per Si atom -5577.959426 kJ/mol
# Density = 2.158342 g / cm^3
# Si number density = 21.632661 Si / 1000 Ang^3
#
#
#
# Elastic Constant Matrix: (Units=GPa)
#
#
# Indices 1 2 3 4 5 6 
#
# 1 51.0807 9.9375 15.7139 0.0000 0.0000 0.0000
# 2 9.9375 51.0788 15.7138 0.0000 0.0000 0.0000
# 3 15.7139 15.7138 106.4700 0.0000 0.0000 0.0000
# 4 0.0000 0.0000 0.0000 28.7925 0.0000 0.0000
# 5 0.0000 0.0000 0.0000 0.0000 28.7937 0.0000
# 6 0.0000 0.0000 0.0000 0.0000 0.0000 6.9641
#
#
#
# Elastic Compliance Matrix: (Units=1/GPa)
#
#
# Indices 1 2 3 4 5 6 
#
# 1 0.021021 -0.003284 -0.002618 0.000000 0.000000 0.000000
# 2 -0.003284 0.021022 -0.002618 0.000000 0.000000 0.000000
# 3 -0.002618 -0.002618 0.010165 0.000000 0.000000 0.000000
# 4 0.000000 0.000000 0.000000 0.034731 0.000000 0.000000
# 5 0.000000 0.000000 0.000000 0.000000 0.034730 0.000000
# 6 0.000000 0.000000 0.000000 0.000000 0.000000 0.143595
#
#
# Mechanical properties :
#
#
# Convention : Reuss Voigt Hill
#
# Bulk Modulus (GPa) = 28.43489 32.37333 30.40411
# Shear Modulus (GPa) = 17.00528 24.06102 20.53315
#
# Velocity S-wave (km/s) = 2.80678 3.33867 3.08421
# Velocity P-wave (km/s) = 4.86590 5.46441 5.17381
#
# Compressibility (1/GPa) = 0.03516807
#
# Stress axis : x y z
#
# Youngs Moduli (GPa) = 47.57116 47.56940 98.37639
#
# Poissons Ratio (x) = 0.15624 0.25753
# Poissons Ratio (y) = 0.15624 0.25754
# Poissons Ratio (z) = 0.12453 0.12453
#
# Static dielectric constant tensor:
#      x y z
#    x 1.802100 0.000000 0.000000 
#    y 0.000000 1.802100 0.000000 
#    z 0.000000 0.000000 1.790130 
# 
# From -- ./inp_files/4951.got.cif
#   From: 2010.05.17/outbox.cif.g08.bks.cpg/sg125_3_cif.got.tgz:4951.got - 2010.05.20 11:54:10.
