data_PCOD9563755
_publ_section_title
;
Structure prediction by ZEFSAII (Michael W. Deem and Ramdas Pophale) SiO2 
 PCOD9563755
Probable space group: P 4/M B M
;
_chemical_formula_sum "Si O2"
_cell_formula_units_Z 96
_cell_length_a 15.322159
_cell_length_b 15.322159
_cell_length_c 24.453567
_cell_angle_alpha 90.000000
_cell_angle_beta 90.000000
_cell_angle_gamma 90.000000
_cell_volume 5740.928624
_symmetry_space_group_name_H-M "P 4/M B M"
_symmetry_group_IT_number 127
_symmetry_cell_setting 'tetragonal'
loop_
_space_group_symop_operation_xyz
x,y,z
-y,x,z
-x,-y,z
y,-x,z
1/2+x,1/2-y,-z
1/2-x,1/2+y,-z
1/2+y,1/2+x,-z
1/2-y,1/2-x,-z
-x,-y,-z
y,-x,-z
x,y,-z
-y,x,-z
1/2-x,1/2+y,z
1/2+x,1/2-y,z
1/2-y,1/2-x,z
1/2+y,1/2+x,z
loop_
_atom_site_type_symbol
_atom_site_label
_atom_site_fract_x
_atom_site_fract_y
_atom_site_fract_z
Si Si1 0.825752 0.528307 0.749323
Si Si2 0.355471 0.994105 0.936249
Si Si3 0.770000 0.410123 0.846265
Si Si4 0.858142 0.962888 0.436956
Si Si5 0.260572 0.095188 0.660806
Si Si6 0.171279 0.179459 0.760782
O O1 0.908214 0.591787 0.751533
O O2 0.823587 0.459622 0.798503
O O3 0.817661 0.476882 0.692599
O O4 0.738493 0.586372 0.757031
O O5 0.430489 0.069512 0.932732
O O6 0.276956 0.025063 0.897561
O O7 0.404909 0.904909 0.918870
O O8 0.331661 0.986355 0.000000
O O9 0.822983 0.322983 0.862377
O O10 0.682590 0.379570 0.815046
O O11 0.828530 0.955120 0.500000
O O12 0.785237 0.940988 0.392867
O O13 0.940117 0.897384 0.429608
O O14 0.321697 0.178304 0.649046
O O15 0.188206 0.123632 0.706120
O O16 0.252729 0.247272 0.762414
#
# Coordination Sequence:
#
# PCOD9563755 Si02
#       6
#    16  16  16  16  16  16
#     4  10  18  28  44  64  88 117 145 178 222 269
#     4   8  13  21  35  57  83 109 139 177 220 267
#     4   9  16  26  41  60  82 110 145 182 220 265
#     4   9  18  33  52  71  90 116 153 193 227 261
#     4  10  19  30  46  68  93 119 146 180 224 273
#     4   8  16  28  40  59  86 114 143 174 213 262
#
# _framework density 16.722033
#
# number of rings (size 3 to 8) (size 9 to 14) (size 15 to 20)
#    0.000    3.000    0.000    4.000    0.000    2.333 
#    0.000    0.000    0.000    7.000    0.000    5.833 
#    0.000    0.000    0.000    6.000    0.000    5.333 
#
# Total GULP energy -534404.929720 kJ/mol
# GULP energy per Si atom -5566.718018 kJ/mol
# Density = 1.668397 g / cm^3
# Si number density = 16.722033 Si / 1000 Ang^3
#
#
#
# Elastic Constant Matrix: (Units=GPa)
#
#
# Indices 1 2 3 4 5 6 
#
# 1 25.4460 4.1297 11.0638 0.0000 0.0000 0.0000
# 2 4.1297 25.4460 11.0638 0.0000 0.0000 0.0000
# 3 11.0638 11.0638 76.3899 0.0000 0.0000 0.0000
# 4 0.0000 0.0000 0.0000 21.0831 0.0000 0.0000
# 5 0.0000 0.0000 0.0000 0.0000 21.0831 0.0000
# 6 0.0000 0.0000 0.0000 0.0000 0.0000 20.5990
#
#
#
# Elastic Compliance Matrix: (Units=1/GPa)
#
#
# Indices 1 2 3 4 5 6 
#
# 1 0.042417 -0.004496 -0.005492 0.000000 0.000000 0.000000
# 2 -0.004496 0.042417 -0.005492 0.000000 0.000000 0.000000
# 3 -0.005492 -0.005492 0.014682 0.000000 0.000000 0.000000
# 4 0.000000 0.000000 0.000000 0.047431 0.000000 0.000000
# 5 0.000000 0.000000 0.000000 0.000000 0.047431 0.000000
# 6 0.000000 0.000000 0.000000 0.000000 0.000000 0.048546
#
#
# Mechanical properties :
#
#
# Convention : Reuss Voigt Hill
#
# Bulk Modulus (GPa) = 14.58701 19.97739 17.28220
# Shear Modulus (GPa) = 16.85002 19.28800 18.06901
#
# Velocity S-wave (km/s) = 3.17780 3.39993 3.29074
# Velocity P-wave (km/s) = 4.71240 5.23310 4.97956
#
# Compressibility (1/GPa) = 0.06855416
#
# Stress axis : x y z
#
# Youngs Moduli (GPa) = 23.57571 23.57571 68.11233
#
# Poissons Ratio (x) = 0.10600 0.37408
# Poissons Ratio (y) = 0.10600 0.37408
# Poissons Ratio (z) = 0.12948 0.12948
#
# Static dielectric constant tensor:
#      x y z
#    x 1.575010 0.000000 0.000000 
#    y 0.000000 1.575010 0.000000 
#    z 0.000000 0.000000 1.566430 
# 
# From -- ./inp_files/5791.got.cif
#   From: 2010.05.17/outbox.cif.g08.bks.cpg/sg127_3_cif.got.tgz:5791.got - 2010.05.20 12:03:00.
