data_PCOD9563434
_publ_section_title
;
Structure prediction by ZEFSAII (Michael W. Deem and Ramdas Pophale) SiO2 
 PCOD9563434
Probable space group: P 4/N N C
;
_chemical_formula_sum "Si O2"
_cell_formula_units_Z 96
_cell_length_a 15.177319
_cell_length_b 15.177319
_cell_length_c 20.129387
_cell_angle_alpha 90.000000
_cell_angle_beta 90.000000
_cell_angle_gamma 90.000000
_cell_volume 4636.824667
_symmetry_space_group_name_H-M "P 4/N N C"
_symmetry_group_IT_number 126
_space_group.IT_coordinate_system_code '2'
_symmetry_cell_setting 'tetragonal'
loop_
_space_group_symop_operation_xyz
x,y,z
1/2-y,x,z
1/2-x,1/2-y,z
y,1/2-x,z
x,1/2-y,1/2-z
1/2-x,y,1/2-z
y,x,1/2-z
1/2-y,1/2-x,1/2-z
-x,-y,-z
1/2+y,-x,-z
1/2+x,1/2+y,-z
-y,1/2+x,-z
-x,1/2+y,1/2+z
1/2+x,-y,1/2+z
-y,-x,1/2+z
1/2+y,1/2+x,1/2+z
loop_
_atom_site_type_symbol
_atom_site_label
_atom_site_fract_x
_atom_site_fract_y
_atom_site_fract_z
Si Si1 0.250000 0.100852 0.250000
Si Si2 0.660517 0.190005 0.668982
Si Si3 0.704575 0.891794 0.145637
Si Si4 0.753748 0.027681 0.623072
Si Si5 0.635006 0.405928 0.186059
Si Si6 0.926851 0.573150 0.250000
Si Si7 0.274362 0.397024 0.497228
O O1 0.335058 0.164943 0.250000
O O2 0.257976 0.039906 0.315307
O O3 0.750000 0.250000 0.667905
O O4 0.678379 0.104103 0.623947
O O5 0.640288 0.150224 0.741889
O O6 0.587181 0.265817 0.656724
O O7 0.644198 0.803283 0.151148
O O8 0.662316 0.940609 0.207767
O O9 0.703499 0.929820 0.071635
O O10 0.842165 0.080287 0.639839
O O11 0.769209 0.973251 0.556556
O O12 0.578561 0.493015 0.198783
O O13 0.180723 0.346473 0.489424
#
# Coordination Sequence:
#
# PCOD9563434 Si02
#       7
#     8  16  16  16  16   8  16
#     4  11  22  30  45  82 128 158 199 260 312 385
#     4   9  18  37  56  80 118 172 211 258 319 386
#     4   9  20  39  59  84 117 153 199 242 315 396
#     4  11  18  34  58  82 120 166 209 249 313 383
#     4  10  21  33  53  90 121 155 211 265 327 368
#     4  12  24  33  60  96 117 152 198 284 328 370
#     4   9  19  36  59  86 122 164 203 246 312 396
#
# _framework density 20.703824000000001
#
# number of rings (size 3 to 8) (size 9 to 14) (size 15 to 20)
#    0.000    2.083    1.667    5.500    5.833    3.333 
#    0.000    0.833    0.000    0.000    0.000   10.500 
#    0.000    0.000    0.000    0.000    0.000    0.000 
#
# Total GULP energy -534969.119222 kJ/mol
# GULP energy per Si atom -5572.594992 kJ/mol
# Density = 2.065670 g / cm^3
# Si number density = 20.703824 Si / 1000 Ang^3
#
#
#
# Elastic Constant Matrix: (Units=GPa)
#
#
# Indices 1 2 3 4 5 6 
#
# 1 93.0633 31.1872 34.6527 0.0000 0.0000 0.0000
# 2 31.1872 93.0641 34.6533 0.0000 0.0000 0.0000
# 3 34.6527 34.6533 84.1301 0.0000 0.0000 0.0000
# 4 0.0000 0.0000 0.0000 24.7611 0.0000 0.0000
# 5 0.0000 0.0000 0.0000 0.0000 24.7608 0.0000
# 6 0.0000 0.0000 0.0000 0.0000 0.0000 22.3886
#
#
#
# Elastic Compliance Matrix: (Units=1/GPa)
#
#
# Indices 1 2 3 4 5 6 
#
# 1 0.013305 -0.002856 -0.004304 0.000000 0.000000 0.000000
# 2 -0.002856 0.013305 -0.004304 0.000000 0.000000 0.000000
# 3 -0.004304 -0.004304 0.015432 0.000000 0.000000 0.000000
# 4 0.000000 0.000000 0.000000 0.040386 0.000000 0.000000
# 5 0.000000 0.000000 0.000000 0.000000 0.040386 0.000000
# 6 0.000000 0.000000 0.000000 0.000000 0.000000 0.044666
#
#
# Mechanical properties :
#
#
# Convention : Reuss Voigt Hill
#
# Bulk Modulus (GPa) = 52.31728 52.36045 52.33887
# Shear Modulus (GPa) = 25.40921 25.69973 25.55447
#
# Velocity S-wave (km/s) = 3.50704 3.52704 3.51705
# Velocity P-wave (km/s) = 6.45936 6.47548 6.46742
#
# Compressibility (1/GPa) = 0.01911414
#
# Stress axis : x y z
#
# Youngs Moduli (GPa) = 75.15915 75.15953 64.80092
#
# Poissons Ratio (x) = 0.21467 0.27889
# Poissons Ratio (y) = 0.21467 0.27890
# Poissons Ratio (z) = 0.32347 0.32348
#
# Static dielectric constant tensor:
#      x y z
#    x 1.823600 0.000000 0.000000 
#    y 0.000000 1.823590 0.000000 
#    z 0.000000 0.000000 1.728150 
# 
# From -- ./inp_files/5325.got.cif
#   From: 2010.05.17/outbox.cif.g08.bks.cpg/sg126_3_cif.got.tgz:5325.got - 2010.05.20 11:58:20.
