data_PCOD9563843
_publ_section_title
;
Structure prediction by ZEFSAII (Michael W. Deem and Ramdas Pophale) SiO2 
 PCOD9563843
Probable space group: P 4/M B M
;
_chemical_formula_sum "Si O2"
_cell_formula_units_Z 104
_cell_length_a 26.909518
_cell_length_b 26.909518
_cell_length_c 7.983113
_cell_angle_alpha 90.000000
_cell_angle_beta 90.000000
_cell_angle_gamma 90.000000
_cell_volume 5780.749021
_symmetry_space_group_name_H-M "P 4/M B M"
_symmetry_group_IT_number 127
_symmetry_cell_setting 'tetragonal'
loop_
_space_group_symop_operation_xyz
x,y,z
-y,x,z
-x,-y,z
y,-x,z
1/2+x,1/2-y,-z
1/2-x,1/2+y,-z
1/2+y,1/2+x,-z
1/2-y,1/2-x,-z
-x,-y,-z
y,-x,-z
x,y,-z
-y,x,-z
1/2-x,1/2+y,z
1/2+x,1/2-y,z
1/2-y,1/2-x,z
1/2+y,1/2+x,z
loop_
_atom_site_type_symbol
_atom_site_label
_atom_site_fract_x
_atom_site_fract_y
_atom_site_fract_z
Si Si1 0.175723 0.675723 0.206445
Si Si2 0.471673 0.577328 0.000000
Si Si3 0.499738 0.632127 0.313436
Si Si4 0.026476 0.240713 0.794779
Si Si5 0.281288 0.364493 0.798880
Si Si6 0.772419 0.421918 0.196702
Si Si7 0.742026 0.242026 0.205029
Si Si8 0.662525 0.391212 0.697103
O O1 0.192742 0.621460 0.267492
O O2 0.216974 0.716974 0.255063
O O3 0.175685 0.675685 0.000000
O O4 0.439858 0.528632 0.000000
O O5 0.467617 0.607471 0.830442
O O6 0.489727 0.612980 0.500000
O O7 0.487121 0.689802 0.297493
O O8 0.558847 0.630420 0.277729
O O9 0.084623 0.247284 0.750945
O O10 0.979455 0.275212 0.744996
O O11 0.023801 0.234637 0.000000
O O12 0.257410 0.312970 0.737213
O O13 0.339535 0.362413 0.749945
O O14 0.280182 0.363088 0.000000
O O15 0.715702 0.401675 0.215935
O O16 0.783238 0.424095 0.000000
O O17 0.741781 0.241781 0.000000
O O18 0.672774 0.388366 0.500000
#
# Coordination Sequence:
#
# PCOD9563843 Si02
#       8
#     8   8  16  16  16  16   8  16
#     4   9  14  24  46  68  88 119 149 191 240 287
#     4  11  26  42  54  68  90 120 164 216 268 313
#     4  10  22  37  55  74  95 122 163 211 255 305
#     4   9  18  31  49  71  93 124 161 201 242 293
#     4  10  19  30  49  69  94 128 161 196 238 293
#     4   9  16  29  46  65  90 119 156 193 236 287
#     4   9  16  28  44  72  98 123 161 193 238 295
#     4  10  20  30  44  70  94 119 154 195 241 288
#
# _framework density 17.990748
#
# number of rings (size 3 to 8) (size 9 to 14) (size 15 to 20)
#    0.000    2.385    2.308    0.462    4.308    1.231 
#    0.000    2.308    0.000    0.000    0.000    0.000 
#    0.000    0.615    0.000    8.615    0.000    0.000 
#
# Total GULP energy -579491.606602 kJ/mol
# GULP energy per Si atom -5572.034679 kJ/mol
# Density = 1.794980 g / cm^3
# Si number density = 17.990748 Si / 1000 Ang^3
#
#
#
# Elastic Constant Matrix: (Units=GPa)
#
#
# Indices 1 2 3 4 5 6 
#
# 1 77.1350 28.8595 12.7266 0.0000 0.0000 0.0000
# 2 28.8595 77.1350 12.7266 0.0000 0.0000 0.0000
# 3 12.7266 12.7266 24.0943 0.0000 0.0000 0.0000
# 4 0.0000 0.0000 0.0000 93.3008 0.0000 0.0000
# 5 0.0000 0.0000 0.0000 0.0000 93.3008 0.0000
# 6 0.0000 0.0000 0.0000 0.0000 0.0000 60.9026
#
#
#
# Elastic Compliance Matrix: (Units=1/GPa)
#
#
# Indices 1 2 3 4 5 6 
#
# 1 0.015760 -0.004955 -0.005707 0.000000 0.000000 0.000000
# 2 -0.004955 0.015760 -0.005707 0.000000 0.000000 0.000000
# 3 -0.005707 -0.005707 0.047533 0.000000 0.000000 0.000000
# 4 0.000000 0.000000 0.000000 0.010718 0.000000 0.000000
# 5 0.000000 0.000000 0.000000 0.000000 0.010718 0.000000
# 6 0.000000 0.000000 0.000000 0.000000 0.000000 0.016420
#
#
# Mechanical properties :
#
#
# Convention : Reuss Voigt Hill
#
# Bulk Modulus (GPa) = 21.59182 31.88775 26.73979
# Shear Modulus (GPa) = 30.28767 57.77094 44.02931
#
# Velocity S-wave (km/s) = 4.10752 5.67285 4.95242
# Velocity P-wave (km/s) = 5.87565 7.78918 6.89908
#
# Compressibility (1/GPa) = 0.04631383
#
# Stress axis : x y z
#
# Youngs Moduli (GPa) = 63.45302 63.45302 21.03822
#
# Poissons Ratio (x) = 0.31439 0.12007
# Poissons Ratio (y) = 0.31439 0.12007
# Poissons Ratio (z) = 0.36214 0.36214
#
# Static dielectric constant tensor:
#      x y z
#    x 1.646090 0.000000 0.000000 
#    y 0.000000 1.646090 0.000000 
#    z 0.000000 0.000000 1.461090 
# 
# From -- ./inp_files/2349.got.cif
#   From: 2010.05.17/outbox.cif.g08.bks.cpg/sg127_2_cif.got.tgz:2349.got - 2010.05.20 12:03:00.
