data_PCOD9563269
_publ_section_title
;
Structure prediction by ZEFSAII (Michael W. Deem and Ramdas Pophale) SiO2 
 PCOD9563269
Probable space group: P 4/N B M
;
_chemical_formula_sum "Si O2"
_cell_formula_units_Z 50
_cell_length_a 16.199570
_cell_length_b 16.199570
_cell_length_c 8.678383
_cell_angle_alpha 90.000000
_cell_angle_beta 90.000000
_cell_angle_gamma 90.000000
_cell_volume 2277.433929
_symmetry_space_group_name_H-M "P 4/N B M"
_symmetry_group_IT_number 125
_space_group.IT_coordinate_system_code '2'
_symmetry_cell_setting 'tetragonal'
loop_
_space_group_symop_operation_xyz
x,y,z
1/2-y,x,z
1/2-x,1/2-y,z
y,1/2-x,z
x,1/2-y,-z
1/2-x,y,-z
y,x,-z
1/2-y,1/2-x,-z
-x,-y,-z
1/2+y,-x,-z
1/2+x,1/2+y,-z
-y,1/2+x,-z
-x,1/2+y,z
1/2+x,-y,z
-y,-x,z
1/2+y,1/2+x,z
loop_
_atom_site_type_symbol
_atom_site_label
_atom_site_fract_x
_atom_site_fract_y
_atom_site_fract_z
Si Si1 0.489977 0.510024 0.183997
Si Si2 0.250000 0.750000 0.500000
Si Si3 0.388988 0.251042 0.165569
Si Si4 0.118441 0.881560 0.397137
Si Si5 0.851998 0.959485 0.398172
O O1 0.421956 0.578045 0.241380
O O2 0.576673 0.531655 0.267057
O O3 0.500000 0.500000 0.000000
O O4 0.189129 0.810872 0.400569
O O5 0.326795 0.329088 0.170565
O O6 0.446214 0.266727 0.309632
O O7 0.432668 0.250000 0.000000
O O8 0.040411 0.852234 0.498667
O O9 0.882151 0.882151 0.500000
#
# Coordination Sequence:
#
# PCOD9563269 Si02
#       5
#     8   2  16   8  16
#     4   9  19  36  65  94 116 150 215 276 322 375
#     4  12  24  44  64  82 132 180 224 254 336 420
#     4   9  19  33  51  83 125 158 189 241 314 387
#     4   9  22  42  61  89 118 161 211 274 316 387
#     4   9  19  37  59  86 119 153 212 267 312 380
#
# _framework density 21.954533999999999
#
# number of rings (size 3 to 8) (size 9 to 14) (size 15 to 20)
#    0.000    2.880    0.000    2.880    4.480    6.400 
#    0.000    1.600    0.000    3.840    0.000    0.000 
#    0.000    0.000    0.000    0.000    0.000    0.000 
#
# Total GULP energy -279147.064111 kJ/mol
# GULP energy per Si atom -5582.941282 kJ/mol
# Density = 2.190456 g / cm^3
# Si number density = 21.954534 Si / 1000 Ang^3
#
#
#
# Elastic Constant Matrix: (Units=GPa)
#
#
# Indices 1 2 3 4 5 6 
#
# 1 88.8054 51.3270 55.0300 0.0000 0.0000 0.0000
# 2 51.3270 88.8054 55.0300 0.0000 0.0000 0.0000
# 3 55.0300 55.0300 174.7402 0.0000 0.0000 0.0000
# 4 0.0000 0.0000 0.0000 30.2495 0.0000 0.0000
# 5 0.0000 0.0000 0.0000 0.0000 30.2495 0.0000
# 6 0.0000 0.0000 0.0000 0.0000 0.0000 51.5925
#
#
#
# Elastic Compliance Matrix: (Units=1/GPa)
#
#
# Indices 1 2 3 4 5 6 
#
# 1 0.018082 -0.008600 -0.002986 0.000000 0.000000 0.000000
# 2 -0.008600 0.018082 -0.002986 0.000000 0.000000 0.000000
# 3 -0.002986 -0.002986 0.007603 0.000000 0.000000 0.000000
# 4 0.000000 0.000000 0.000000 0.033058 0.000000 0.000000
# 5 0.000000 0.000000 0.000000 0.000000 0.033058 0.000000
# 6 0.000000 0.000000 0.000000 0.000000 0.000000 0.019383
#
#
# Mechanical properties :
#
#
# Convention : Reuss Voigt Hill
#
# Bulk Modulus (GPa) = 68.38830 75.01388 71.70109
# Shear Modulus (GPa) = 30.62139 35.14924 32.88531
#
# Velocity S-wave (km/s) = 3.73871 4.00559 3.87445
# Velocity P-wave (km/s) = 7.06079 7.45889 7.26257
#
# Compressibility (1/GPa) = 0.01462238
#
# Stress axis : x y z
#
# Youngs Moduli (GPa) = 55.30474 55.30474 131.51961
#
# Poissons Ratio (x) = 0.47564 0.39270
# Poissons Ratio (y) = 0.47564 0.39270
# Poissons Ratio (z) = 0.16513 0.16513
#
# Static dielectric constant tensor:
#      x y z
#    x 1.861630 0.000000 0.000000 
#    y 0.000000 1.861630 0.000000 
#    z 0.000000 0.000000 1.869450 
# 
# From -- ./inp_files/2023.got.cif
#   From: 2010.05.17/outbox.cif.g08.bks.cpg/sg125_2_cif.got.tgz:2023.got - 2010.05.20 11:54:10.
