data_PCOD9563854
_publ_section_title
;
Structure prediction by ZEFSAII (Michael W. Deem and Ramdas Pophale) SiO2 
 PCOD9563854
Probable space group: P 4/M B M
;
_chemical_formula_sum "Si O2"
_cell_formula_units_Z 112
_cell_length_a 15.950372
_cell_length_b 15.950372
_cell_length_c 26.066258
_cell_angle_alpha 90.000000
_cell_angle_beta 90.000000
_cell_angle_gamma 90.000000
_cell_volume 6631.630528
_symmetry_space_group_name_H-M "P 4/M B M"
_symmetry_group_IT_number 127
_symmetry_cell_setting 'tetragonal'
loop_
_space_group_symop_operation_xyz
x,y,z
-y,x,z
-x,-y,z
y,-x,z
1/2+x,1/2-y,-z
1/2-x,1/2+y,-z
1/2+y,1/2+x,-z
1/2-y,1/2-x,-z
-x,-y,-z
y,-x,-z
x,y,-z
-y,x,-z
1/2-x,1/2+y,z
1/2+x,1/2-y,z
1/2-y,1/2-x,z
1/2+y,1/2+x,z
loop_
_atom_site_type_symbol
_atom_site_label
_atom_site_fract_x
_atom_site_fract_y
_atom_site_fract_z
Si Si1 0.504016 0.134426 0.324465
Si Si2 0.585974 0.611833 0.441137
Si Si3 0.325809 0.682439 0.243931
Si Si4 0.944284 0.128628 0.060094
Si Si5 0.101246 0.742164 0.852907
Si Si6 0.733113 0.377133 0.648945
Si Si7 0.684050 0.045819 0.787608
O O1 0.596647 0.096647 0.336133
O O2 0.466566 0.218107 0.349215
O O3 0.500892 0.147899 0.263094
O O4 0.437967 0.062034 0.337921
O O5 0.484975 0.612824 0.434695
O O6 0.604694 0.636309 0.500000
O O7 0.626271 0.672317 0.399398
O O8 0.255961 0.755961 0.246996
O O9 0.299570 0.625919 0.195957
O O10 0.318264 0.635480 0.298093
O O11 0.412088 0.729211 0.231157
O O12 0.914147 0.200596 0.097948
O O13 0.042069 0.106235 0.069066
O O14 0.934797 0.150379 0.000000
O O15 0.175345 0.675345 0.860837
O O16 0.017393 0.696041 0.833989
O O17 0.804356 0.304356 0.647209
O O18 0.620078 0.120078 0.801341
#
# Coordination Sequence:
#
# PCOD9563854 Si02
#       7
#    16  16  16  16  16  16  16
#     4   9  17  30  48  71 101 136 169 199 243 309
#     4   9  20  38  55  71  96 133 173 213 262 317
#     4   9  19  31  44  72 107 135 163 207 257 296
#     4   9  19  37  58  77  99 133 177 220 264 314
#     4  11  20  32  51  76 108 137 171 214 257 309
#     4  10  19  32  52  78 105 132 171 219 260 305
#     4  10  19  31  48  70 103 142 172 201 247 304
#
# _framework density 16.888759
#
# number of rings (size 3 to 8) (size 9 to 14) (size 15 to 20)
#    0.000    2.429    1.429    2.143    2.000    1.429 
#    0.000    0.000    0.000    4.286    0.000    3.000 
#    0.000    0.000    0.000    0.000    0.000    0.000 
#
# Total GULP energy -624250.327118 kJ/mol
# GULP energy per Si atom -5573.663635 kJ/mol
# Density = 1.685032 g / cm^3
# Si number density = 16.888759 Si / 1000 Ang^3
#
#
#
# Elastic Constant Matrix: (Units=GPa)
#
#
# Indices 1 2 3 4 5 6 
#
# 1 40.8639 7.7342 32.7315 0.0000 0.0000 0.0000
# 2 7.7342 40.8639 32.7315 0.0000 0.0000 0.0000
# 3 32.7315 32.7315 89.8092 0.0000 0.0000 0.0000
# 4 0.0000 0.0000 0.0000 27.9848 0.0000 0.0000
# 5 0.0000 0.0000 0.0000 0.0000 27.9848 0.0000
# 6 0.0000 0.0000 0.0000 0.0000 0.0000 17.3010
#
#
#
# Elastic Compliance Matrix: (Units=1/GPa)
#
#
# Indices 1 2 3 4 5 6 
#
# 1 0.035303 0.005118 -0.014732 0.000000 0.000000 0.000000
# 2 0.005118 0.035303 -0.014732 0.000000 0.000000 0.000000
# 3 -0.014732 -0.014732 0.021873 0.000000 0.000000 0.000000
# 4 0.000000 0.000000 0.000000 0.035734 0.000000 0.000000
# 5 0.000000 0.000000 0.000000 0.000000 0.035734 0.000000
# 6 0.000000 0.000000 0.000000 0.000000 0.000000 0.057800
#
#
# Mechanical properties :
#
#
# Convention : Reuss Voigt Hill
#
# Bulk Modulus (GPa) = 22.83733 35.32573 29.08153
# Shear Modulus (GPa) = 17.54193 21.21011 19.37602
#
# Velocity S-wave (km/s) = 3.22634 3.54767 3.39082
# Velocity P-wave (km/s) = 5.23743 6.14357 5.70850
#
# Compressibility (1/GPa) = 0.04378796
#
# Stress axis : x y z
#
# Youngs Moduli (GPa) = 28.32653 28.32653 45.71891
#
# Poissons Ratio (x) = -0.14498 0.67351
# Poissons Ratio (y) = -0.14498 0.67351
# Poissons Ratio (z) = 0.41730 0.41730
#
# Static dielectric constant tensor:
#      x y z
#    x 1.596380 0.000000 0.000000 
#    y 0.000000 1.596380 0.000000 
#    z 0.000000 0.000000 1.534680 
# 
# From -- ./inp_files/6163.got.cif
#   From: 2010.05.17/outbox.cif.g08.bks.cpg/sg127_4_cif.got.tgz:6163.got - 2010.05.20 12:03:00.
