data_PCOD9563801
_publ_section_title
;
Structure prediction by ZEFSAII (Michael W. Deem and Ramdas Pophale) SiO2 
 PCOD9563801
Probable space group: P 4/M B M
;
_chemical_formula_sum "Si O2"
_cell_formula_units_Z 112
_cell_length_a 14.732129
_cell_length_b 14.732129
_cell_length_c 29.081838
_cell_angle_alpha 90.000000
_cell_angle_beta 90.000000
_cell_angle_gamma 90.000000
_cell_volume 6311.794883
_symmetry_space_group_name_H-M "P 4/M B M"
_symmetry_group_IT_number 127
_symmetry_cell_setting 'tetragonal'
loop_
_space_group_symop_operation_xyz
x,y,z
-y,x,z
-x,-y,z
y,-x,z
1/2+x,1/2-y,-z
1/2-x,1/2+y,-z
1/2+y,1/2+x,-z
1/2-y,1/2-x,-z
-x,-y,-z
y,-x,-z
x,y,-z
-y,x,-z
1/2-x,1/2+y,z
1/2+x,1/2-y,z
1/2-y,1/2-x,z
1/2+y,1/2+x,z
loop_
_atom_site_type_symbol
_atom_site_label
_atom_site_fract_x
_atom_site_fract_y
_atom_site_fract_z
Si Si1 0.430030 0.636231 0.214124
Si Si2 0.150787 0.029222 0.448096
Si Si3 0.503237 0.847245 0.051256
Si Si4 0.313328 0.339475 0.307555
Si Si5 0.051858 0.293096 0.147113
Si Si6 0.078059 0.578059 0.202633
Si Si7 0.575457 0.924544 0.307431
Si Si8 0.743171 0.483471 0.354291
O O1 0.382778 0.537912 0.214809
O O2 0.390383 0.687682 0.258635
O O3 0.415374 0.700656 0.170386
O O4 0.187560 0.036458 0.500000
O O5 0.221315 0.039762 0.406937
O O6 0.068905 0.101719 0.443536
O O7 0.424441 0.924441 0.051303
O O8 0.481805 0.784770 0.094644
O O9 0.596216 0.903785 0.058385
O O10 0.504619 0.806460 0.000000
O O11 0.249526 0.250475 0.307200
O O12 0.278603 0.412461 0.344224
O O13 0.415764 0.316752 0.322717
O O14 0.133126 0.366875 0.148464
O O15 0.968913 0.337940 0.176381
O O16 0.102656 0.602656 0.255174
O O17 0.000000 0.500000 0.202625
O O18 0.535501 0.842874 0.336489
O O19 0.500000 0.000000 0.301400
#
# Coordination Sequence:
#
# PCOD9563801 Si02
#       8
#    16  16  16  16  16   8   8  16
#     4  11  24  40  55  76 112 153 194 242 290 343
#     4   9  18  34  60  91 117 144 186 246 306 353
#     4   8  13  24  47  81 115 145 182 234 295 349
#     4  12  24  39  60  88 119 157 198 245 299 357
#     4  10  18  33  55  82 113 149 191 238 292 348
#     4   9  18  32  53  79 113 153 185 223 275 335
#     4  11  24  40  55  83 125 170 201 232 291 370
#     4  12  22  38  63  88 121 152 196 250 297 355
#
# _framework density 17.744554999999998
#
# number of rings (size 3 to 8) (size 9 to 14) (size 15 to 20)
#    0.000    1.714    4.286    2.571    0.000    1.429 
#    1.286    0.357    0.000    3.857    0.000    3.000 
#    0.000    0.000    0.000    0.000    0.000    0.000 
#
# Total GULP energy -624607.859291 kJ/mol
# GULP energy per Si atom -5576.855887 kJ/mol
# Density = 1.770417 g / cm^3
# Si number density = 17.744555 Si / 1000 Ang^3
#
#
#
# Elastic Constant Matrix: (Units=GPa)
#
#
# Indices 1 2 3 4 5 6 
#
# 1 51.5405 -8.9626 25.5009 0.0000 0.0000 0.0000
# 2 -8.9626 51.5405 25.5009 0.0000 0.0000 0.0000
# 3 25.5009 25.5009 156.3055 0.0000 0.0000 0.0000
# 4 0.0000 0.0000 0.0000 26.1281 0.0000 0.0000
# 5 0.0000 0.0000 0.0000 0.0000 26.1281 0.0000
# 6 0.0000 0.0000 0.0000 0.0000 0.0000 12.9746
#
#
#
# Elastic Compliance Matrix: (Units=1/GPa)
#
#
# Indices 1 2 3 4 5 6 
#
# 1 0.022860 0.006332 -0.004762 0.000000 0.000000 0.000000
# 2 0.006332 0.022860 -0.004762 0.000000 0.000000 0.000000
# 3 -0.004762 -0.004762 0.007952 0.000000 0.000000 0.000000
# 4 0.000000 0.000000 0.000000 0.038273 0.000000 0.000000
# 5 0.000000 0.000000 0.000000 0.000000 0.038273 0.000000
# 6 0.000000 0.000000 0.000000 0.000000 0.000000 0.077074
#
#
# Mechanical properties :
#
#
# Convention : Reuss Voigt Hill
#
# Bulk Modulus (GPa) = 21.14877 38.16277 29.65577
# Shear Modulus (GPa) = 21.79230 27.53598 24.66414
#
# Velocity S-wave (km/s) = 3.50824 3.94356 3.73225
# Velocity P-wave (km/s) = 5.32491 6.50300 5.94322
#
# Compressibility (1/GPa) = 0.04728407
#
# Stress axis : x y z
#
# Youngs Moduli (GPa) = 43.74528 43.74528 125.75920
#
# Poissons Ratio (x) = -0.27697 0.59893
# Poissons Ratio (y) = -0.27697 0.59893
# Poissons Ratio (z) = 0.20834 0.20834
#
# Static dielectric constant tensor:
#      x y z
#    x 1.603020 0.000000 0.000000 
#    y 0.000000 1.603020 0.000000 
#    z 0.000000 0.000000 1.615380 
# 
# From -- ./inp_files/6433.got.cif
#   From: 2010.05.17/outbox.cif.g08.bks.cpg/sg127_4_cif.got.tgz:6433.got - 2010.05.20 12:03:00.
