data_PCOD9563211
_publ_section_title
;
Structure prediction by ZEFSAII (Michael W. Deem and Ramdas Pophale) SiO2 
 PCOD9563211
Probable space group: P 4/N B M
;
_chemical_formula_sum "Si O2"
_cell_formula_units_Z 80
_cell_length_a 13.676780
_cell_length_b 13.676780
_cell_length_c 24.663199
_cell_angle_alpha 90.000000
_cell_angle_beta 90.000000
_cell_angle_gamma 90.000000
_cell_volume 4613.357700
_symmetry_space_group_name_H-M "P 4/N B M"
_symmetry_group_IT_number 125
_space_group.IT_coordinate_system_code '2'
_symmetry_cell_setting 'tetragonal'
loop_
_space_group_symop_operation_xyz
x,y,z
1/2-y,x,z
1/2-x,1/2-y,z
y,1/2-x,z
x,1/2-y,-z
1/2-x,y,-z
y,x,-z
1/2-y,1/2-x,-z
-x,-y,-z
1/2+y,-x,-z
1/2+x,1/2+y,-z
-y,1/2+x,-z
-x,1/2+y,z
1/2+x,-y,z
-y,-x,z
1/2+y,1/2+x,z
loop_
_atom_site_type_symbol
_atom_site_label
_atom_site_fract_x
_atom_site_fract_y
_atom_site_fract_z
Si Si1 0.150736 0.005526 0.968523
Si Si2 0.907109 0.797239 0.855993
Si Si3 0.089033 0.255017 0.434990
Si Si4 0.913499 0.722657 0.267946
Si Si5 0.414515 0.749130 0.353444
O O1 0.171084 0.025998 0.905423
O O2 0.250000 0.003759 0.000000
O O3 0.086058 0.086058 0.000000
O O4 0.094667 0.905334 0.973883
O O5 0.812599 0.866680 0.861770
O O6 0.944908 0.797339 0.794376
O O7 0.152652 0.158443 0.420153
O O8 0.078350 0.250000 0.500000
O O9 0.985819 0.260988 0.405286
O O10 0.857914 0.827245 0.276370
O O11 0.008064 0.724862 0.305944
O O12 0.348895 0.651106 0.344355
O O13 0.337290 0.837290 0.360024
#
# Coordination Sequence:
#
# PCOD9563211 Si02
#       5
#    16  16  16  16  16
#     4  11  22  35  55  83 112 146 185 224 274 334
#     4   9  17  33  58  84 106 134 177 231 280 319
#     4   9  19  37  61  87 112 140 181 235 289 337
#     4   9  19  36  59  86 109 135 182 236 281 327
#     4  11  24  38  52  77 115 156 192 225 272 333
#
# _framework density 17.340948999999998
#
# number of rings (size 3 to 8) (size 9 to 14) (size 15 to 20)
#    0.000    2.200    2.000    3.000    0.000    6.800 
#    0.000    7.000    0.000    0.000    0.000    0.000 
#    0.000    0.000    0.000    0.000    0.000    0.000 
#
# Total GULP energy -445737.301506 kJ/mol
# GULP energy per Si atom -5571.716269 kJ/mol
# Density = 1.730148 g / cm^3
# Si number density = 17.340949 Si / 1000 Ang^3
#
#
#
# Elastic Constant Matrix: (Units=GPa)
#
#
# Indices 1 2 3 4 5 6 
#
# 1 94.5812 77.6402 60.2285 0.0000 0.0000 0.0000
# 2 77.6402 94.5812 60.2285 0.0000 0.0000 0.0000
# 3 60.2285 60.2285 102.4492 0.0000 0.0000 0.0000
# 4 0.0000 0.0000 0.0000 22.4149 0.0000 0.0000
# 5 0.0000 0.0000 0.0000 0.0000 22.4149 0.0000
# 6 0.0000 0.0000 0.0000 0.0000 0.0000 -1.8434
#
#
#
# Elastic Compliance Matrix: (Units=1/GPa)
#
#
# Indices 1 2 3 4 5 6 
#
# 1 0.034445 -0.024584 -0.005797 0.000000 0.000000 0.000000
# 2 -0.024584 0.034445 -0.005797 0.000000 0.000000 0.000000
# 3 -0.005797 -0.005797 0.016577 0.000000 0.000000 0.000000
# 4 0.000000 0.000000 0.000000 0.044613 0.000000 0.000000
# 5 0.000000 0.000000 0.000000 0.000000 0.044613 0.000000
# 6 0.000000 0.000000 0.000000 0.000000 0.000000 -0.542490
#
#
# Mechanical properties :
#
#
# Convention : Reuss Voigt Hill
#
# Bulk Modulus (GPa) = 76.27427 76.42288 76.34857
# Shear Modulus (GPa) = -17.17797 14.83160 -1.17319
#
# Velocity S-wave (km/s) = -3.15080 2.92771 -0.82341
# Velocity P-wave (km/s) = 5.55372 7.45621 6.57415
#
# Compressibility (1/GPa) = 0.01311058
#
# Stress axis : x y z
#
# Youngs Moduli (GPa) = 29.03189 29.03189 60.32351
#
# Poissons Ratio (x) = 0.71371 0.34972
# Poissons Ratio (y) = 0.71371 0.34972
# Poissons Ratio (z) = 0.16831 0.16831
#
# Static dielectric constant tensor:
#      x y z
#    x 1.578930 0.000000 0.000000 
#    y 0.000000 1.578930 0.000000 
#    z 0.000000 0.000000 1.617710 
# 
# From -- ./inp_files/6489.got.cif
#   From: 2010.05.17/outbox.cif.g08.bks.cpg/sg125_4_cif.got.tgz:6489.got - 2010.05.20 11:54:10.
