data_PCOD9563862
_publ_section_title
;
Structure prediction by ZEFSAII (Michael W. Deem and Ramdas Pophale) SiO2 
 PCOD9563862
Probable space group: P 4/M B M
;
_chemical_formula_sum "Si O2"
_cell_formula_units_Z 104
_cell_length_a 27.365763
_cell_length_b 27.365763
_cell_length_c 8.080233
_cell_angle_alpha 90.000000
_cell_angle_beta 90.000000
_cell_angle_gamma 90.000000
_cell_volume 6051.165166
_symmetry_space_group_name_H-M "P 4/M B M"
_symmetry_group_IT_number 127
_symmetry_cell_setting 'tetragonal'
loop_
_space_group_symop_operation_xyz
x,y,z
-y,x,z
-x,-y,z
y,-x,z
1/2+x,1/2-y,-z
1/2-x,1/2+y,-z
1/2+y,1/2+x,-z
1/2-y,1/2-x,-z
-x,-y,-z
y,-x,-z
x,y,-z
-y,x,-z
1/2-x,1/2+y,z
1/2+x,1/2-y,z
1/2-y,1/2-x,z
1/2+y,1/2+x,z
loop_
_atom_site_type_symbol
_atom_site_label
_atom_site_fract_x
_atom_site_fract_y
_atom_site_fract_z
Si Si1 0.078797 0.499516 0.199893
Si Si2 0.507268 0.289248 0.191083
Si Si3 0.317132 0.600341 0.301572
Si Si4 0.867865 0.074241 0.310501
Si Si5 0.925726 0.033181 0.000000
Si Si6 0.473257 0.185524 0.696289
Si Si7 0.287419 0.135108 0.298322
O O1 0.046177 0.546177 0.253081
O O2 0.133511 0.503768 0.263098
O O3 0.048461 0.451540 0.252179
O O4 0.079806 0.499767 0.000000
O O5 0.454439 0.313744 0.229745
O O6 0.549748 0.314592 0.296804
O O7 0.500017 0.231948 0.225001
O O8 0.518931 0.297102 0.000000
O O9 0.313014 0.594555 0.500000
O O10 0.368293 0.626997 0.269396
O O11 0.269017 0.629970 0.245101
O O12 0.885728 0.067622 0.500000
O O13 0.898074 0.046793 0.168621
O O14 0.976232 0.062512 0.000000
O O15 0.473550 0.193440 0.500000
O O16 0.416279 0.187384 0.749986
O O17 0.287514 0.137243 0.500000
O O18 0.319082 0.180919 0.238239
#
# Coordination Sequence:
#
# PCOD9563862 Si02
#       7
#    16  16  16  16   8  16  16
#     4   9  18  32  49  72 106 145 180 217 268 327
#     4  11  21  34  54  77 102 137 179 221 266 321
#     4   9  19  33  52  78 105 137 174 217 269 319
#     4  11  22  37  56  78 108 143 179 224 271 319
#     4  11  24  38  54  80 107 138 180 217 263 326
#     4  10  19  31  49  76 106 137 177 222 267 318
#     4   8  14  27  48  75 105 133 165 211 266 320
#
# _framework density 17.186772000000001
#
# number of rings (size 3 to 8) (size 9 to 14) (size 15 to 20)
#    0.000    2.231    0.769    4.615    1.077    3.077 
#    0.000    1.538    0.000    5.077    0.000    2.154 
#    0.000    0.000    0.000    0.000    0.000    0.000 
#
# Total GULP energy -580016.501588 kJ/mol
# GULP energy per Si atom -5577.081746 kJ/mol
# Density = 1.714765 g / cm^3
# Si number density = 17.186772 Si / 1000 Ang^3
#
#
#
# Elastic Constant Matrix: (Units=GPa)
#
#
# Indices 1 2 3 4 5 6 
#
# 1 112.9984 44.9922 19.8653 0.0000 0.0000 0.0000
# 2 44.9922 112.9984 19.8653 0.0000 0.0000 0.0000
# 3 19.8653 19.8653 50.3297 0.0000 0.0000 0.0000
# 4 0.0000 0.0000 0.0000 19.4214 0.0000 0.0000
# 5 0.0000 0.0000 0.0000 0.0000 19.4214 0.0000
# 6 0.0000 0.0000 0.0000 0.0000 0.0000 36.0032
#
#
#
# Elastic Compliance Matrix: (Units=1/GPa)
#
#
# Indices 1 2 3 4 5 6 
#
# 1 0.010866 -0.003839 -0.002774 0.000000 0.000000 0.000000
# 2 -0.003839 0.010866 -0.002774 0.000000 0.000000 0.000000
# 3 -0.002774 -0.002774 0.022058 0.000000 0.000000 0.000000
# 4 0.000000 0.000000 0.000000 0.051489 0.000000 0.000000
# 5 0.000000 0.000000 0.000000 0.000000 0.051489 0.000000
# 6 0.000000 0.000000 0.000000 0.000000 0.000000 0.027775
#
#
# Mechanical properties :
#
#
# Convention : Reuss Voigt Hill
#
# Bulk Modulus (GPa) = 39.97104 49.53026 44.75065
# Shear Modulus (GPa) = 24.79476 27.74279 26.26877
#
# Velocity S-wave (km/s) = 3.80236 4.02206 3.91375
# Velocity P-wave (km/s) = 6.52569 7.10287 6.82039
#
# Compressibility (1/GPa) = 0.02501811
#
# Stress axis : x y z
#
# Youngs Moduli (GPa) = 92.03225 92.03225 45.33405
#
# Poissons Ratio (x) = 0.35329 0.12574
# Poissons Ratio (y) = 0.35329 0.12574
# Poissons Ratio (z) = 0.25526 0.25526
#
# Static dielectric constant tensor:
#      x y z
#    x 1.581020 0.000000 0.000000 
#    y 0.000000 1.581020 0.000000 
#    z 0.000000 0.000000 1.601580 
# 
# From -- ./inp_files/2308.got.cif
#   From: 2010.05.17/outbox.cif.g08.bks.cpg/sg127_2_cif.got.tgz:2308.got - 2010.05.20 12:03:00.
