data_PCOD9563633
_publ_section_title
;
Structure prediction by ZEFSAII (Michael W. Deem and Ramdas Pophale) SiO2 
 PCOD9563633
Probable space group: P 4/N N C
;
_chemical_formula_sum "Si O2"
_cell_formula_units_Z 72
_cell_length_a 11.780016
_cell_length_b 11.780016
_cell_length_c 26.481425
_cell_angle_alpha 90.000000
_cell_angle_beta 90.000000
_cell_angle_gamma 90.000000
_cell_volume 3674.794959
_symmetry_space_group_name_H-M "P 4/N N C"
_symmetry_group_IT_number 126
_space_group.IT_coordinate_system_code '2'
_symmetry_cell_setting 'tetragonal'
loop_
_space_group_symop_operation_xyz
x,y,z
1/2-y,x,z
1/2-x,1/2-y,z
y,1/2-x,z
x,1/2-y,1/2-z
1/2-x,y,1/2-z
y,x,1/2-z
1/2-y,1/2-x,1/2-z
-x,-y,-z
1/2+y,-x,-z
1/2+x,1/2+y,-z
-y,1/2+x,-z
-x,1/2+y,1/2+z
1/2+x,-y,1/2+z
-y,-x,1/2+z
1/2+y,1/2+x,1/2+z
loop_
_atom_site_type_symbol
_atom_site_label
_atom_site_fract_x
_atom_site_fract_y
_atom_site_fract_z
Si Si1 0.750000 0.750000 0.900809
Si Si2 0.095074 0.049180 0.427223
Si Si3 0.694886 0.372005 0.109593
Si Si4 0.440561 0.252792 0.691281
Si Si5 0.509076 0.842421 0.458005
Si Si6 0.750000 0.750000 0.072121
O O1 0.862864 0.667205 0.904589
O O2 0.151495 0.033659 0.482554
O O3 0.127006 0.940684 0.393477
O O4 0.960217 0.043335 0.438116
O O5 0.750000 0.250000 0.116519
O O6 0.738102 0.455852 0.153455
O O7 0.741464 0.425308 0.057302
O O8 0.356478 0.359962 0.683267
O O9 0.475586 0.250000 0.750000
O O10 0.630622 0.821742 0.432277
#
# Coordination Sequence:
#
# PCOD9563633 Si02
#       6
#     4  16  16  16  16   4
#     4  12  25  44  56  76 128 190 230 264 316 372
#     4  11  24  38  56  81 121 172 224 257 315 378
#     4  12  25  35  57  90 126 166 209 259 317 386
#     4   9  20  41  68  95 121 151 200 267 335 394
#     4  11  23  37  58  87 117 164 215 273 322 381
#     4  12  21  40  64  84 117 169 221 289 336 380
#
# _framework density 19.592929000000002
#
# number of rings (size 3 to 8) (size 9 to 14) (size 15 to 20)
#    0.000    1.111    2.222    5.333    6.222    0.444 
#    0.000    0.000    0.000    0.000    0.000    0.000 
#    0.000    7.111    0.000    0.000    0.000    0.000 
#
# Total GULP energy -400854.662769 kJ/mol
# GULP energy per Si atom -5567.425872 kJ/mol
# Density = 1.954833 g / cm^3
# Si number density = 19.592929 Si / 1000 Ang^3
#
#
#
# Elastic Constant Matrix: (Units=GPa)
#
#
# Indices 1 2 3 4 5 6 
#
# 1 86.3233 5.2995 2.7939 0.0000 0.0000 0.0000
# 2 5.2995 86.3233 2.7939 0.0000 0.0000 0.0000
# 3 2.7939 2.7939 49.5153 0.0000 0.0000 0.0000
# 4 0.0000 0.0000 0.0000 86.2500 0.0000 0.0000
# 5 0.0000 0.0000 0.0000 0.0000 86.2500 0.0000
# 6 0.0000 0.0000 0.0000 0.0000 0.0000 32.9708
#
#
#
# Elastic Compliance Matrix: (Units=1/GPa)
#
#
# Indices 1 2 3 4 5 6 
#
# 1 0.011647 -0.000695 -0.000618 0.000000 0.000000 0.000000
# 2 -0.000695 0.011647 -0.000618 0.000000 0.000000 0.000000
# 3 -0.000618 -0.000618 0.020266 0.000000 0.000000 0.000000
# 4 0.000000 0.000000 0.000000 0.011594 0.000000 0.000000
# 5 0.000000 0.000000 0.000000 0.000000 0.011594 0.000000
# 6 0.000000 0.000000 0.000000 0.000000 0.000000 0.030330
#
#
# Mechanical properties :
#
#
# Convention : Reuss Voigt Hill
#
# Bulk Modulus (GPa) = 25.19040 27.10405 26.14723
# Shear Modulus (GPa) = 43.79347 55.17916 49.48632
#
# Velocity S-wave (km/s) = 4.73288 5.31262 5.03111
# Velocity P-wave (km/s) = 6.53848 7.17604 6.86467
#
# Compressibility (1/GPa) = 0.03969766
#
# Stress axis : x y z
#
# Youngs Moduli (GPa) = 85.85886 85.85886 49.34492
#
# Poissons Ratio (x) = 0.05967 0.03049
# Poissons Ratio (y) = 0.05967 0.03049
# Poissons Ratio (z) = 0.05306 0.05306
#
# Static dielectric constant tensor:
#      x y z
#    x 1.688150 0.000000 0.000000 
#    y 0.000000 1.688150 0.000000 
#    z 0.000000 0.000000 1.734240 
# 
# From -- ./inp_files/6401.got.cif
#   From: 2010.05.17/outbox.cif.g08.bks.cpg/sg126_4_cif.got.tgz:6401.got - 2010.05.20 11:58:20.
