data_PCOD9563973
_publ_section_title
;
Structure prediction by ZEFSAII (Michael W. Deem and Ramdas Pophale) SiO2 
 PCOD9563973
Probable space group: P 4/M B M
;
_chemical_formula_sum "Si O2"
_cell_formula_units_Z 96
_cell_length_a 24.645823
_cell_length_b 24.645823
_cell_length_c 7.452522
_cell_angle_alpha 90.000000
_cell_angle_beta 90.000000
_cell_angle_gamma 90.000000
_cell_volume 4526.785510
_symmetry_space_group_name_H-M "P 4/M B M"
_symmetry_group_IT_number 127
_symmetry_cell_setting 'tetragonal'
loop_
_space_group_symop_operation_xyz
x,y,z
-y,x,z
-x,-y,z
y,-x,z
1/2+x,1/2-y,-z
1/2-x,1/2+y,-z
1/2+y,1/2+x,-z
1/2-y,1/2-x,-z
-x,-y,-z
y,-x,-z
x,y,-z
-y,x,-z
1/2-x,1/2+y,z
1/2+x,1/2-y,z
1/2-y,1/2-x,z
1/2+y,1/2+x,z
loop_
_atom_site_type_symbol
_atom_site_label
_atom_site_fract_x
_atom_site_fract_y
_atom_site_fract_z
Si Si1 0.999390 0.412633 0.780993
Si Si2 0.366889 0.219734 0.716678
Si Si3 0.192541 0.221262 0.716507
Si Si4 0.036174 0.079611 0.218849
Si Si5 0.302569 0.431318 0.789158
Si Si6 0.008036 0.708923 0.209779
O O1 0.051033 0.448968 0.728739
O O2 0.945750 0.445750 0.724644
O O3 0.000687 0.351306 0.714227
O O4 0.998341 0.411804 0.000000
O O5 0.367507 0.219569 0.500000
O O6 0.334539 0.165462 0.774550
O O7 0.329970 0.270659 0.774414
O O8 0.428346 0.222097 0.778999
O O9 0.193055 0.221404 0.500000
O O10 0.224735 0.275266 0.775970
O O11 0.130847 0.215495 0.773776
O O12 0.059058 0.136913 0.283855
O O13 0.973706 0.069817 0.273833
O O14 0.037473 0.079112 0.000000
O O15 0.256728 0.471160 0.711964
O O16 0.306935 0.444736 0.000000
O O17 0.993072 0.704813 0.000000
#
# Coordination Sequence:
#
# PCOD9563973 Si02
#       6
#    16  16  16  16  16  16
#     4   8  14  26  44  65  94 134 170 198 239 298
#     4   9  19  36  56  76 100 136 180 221 261 307
#     4   9  20  39  57  72  98 140 182 216 259 313
#     4   8  15  29  48  69  98 136 169 201 250 311
#     4  10  21  32  50  81 108 134 171 216 262 313
#     4  10  20  31  48  80 111 132 163 213 266 311
#
# _framework density 21.207101000000002
#
# number of rings (size 3 to 8) (size 9 to 14) (size 15 to 20)
#    0.000    3.000    0.000    2.500    2.333    3.333 
#    0.000    3.333    0.000    0.500    0.000    3.500 
#    0.000    0.000    0.000    0.000    0.000    0.000 
#
# Total GULP energy -535848.018038 kJ/mol
# GULP energy per Si atom -5581.750188 kJ/mol
# Density = 2.115883 g / cm^3
# Si number density = 21.207101 Si / 1000 Ang^3
#
#
#
# Elastic Constant Matrix: (Units=GPa)
#
#
# Indices 1 2 3 4 5 6 
#
# 1 121.0046 135.8478 -9.3216 0.0000 0.0000 0.0000
# 2 135.8478 121.0046 -9.3216 0.0000 0.0000 0.0000
# 3 -9.3216 -9.3216 59.3514 0.0000 0.0000 0.0000
# 4 0.0000 0.0000 0.0000 4.7775 0.0000 0.0000
# 5 0.0000 0.0000 0.0000 0.0000 4.7775 0.0000
# 6 0.0000 0.0000 0.0000 0.0000 0.0000 17.1745
#
#
#
# Elastic Compliance Matrix: (Units=1/GPa)
#
#
# Indices 1 2 3 4 5 6 
#
# 1 -0.031717 0.035655 0.000619 0.000000 0.000000 0.000000
# 2 0.035655 -0.031717 0.000619 0.000000 0.000000 0.000000
# 3 0.000619 0.000619 0.017043 0.000000 0.000000 0.000000
# 4 0.000000 0.000000 0.000000 0.209316 0.000000 0.000000
# 5 0.000000 0.000000 0.000000 0.000000 0.209316 0.000000
# 6 0.000000 0.000000 0.000000 0.000000 0.000000 0.058226
#
#
# Mechanical properties :
#
#
# Convention : Reuss Voigt Hill
#
# Bulk Modulus (GPa) = 36.50494 59.52997 48.01746
# Shear Modulus (GPa) = 13.66810 17.62295 15.64553
#
# Velocity S-wave (km/s) = 2.54147 2.88582 2.71910
# Velocity P-wave (km/s) = 5.08557 6.26384 5.70520
#
# Compressibility (1/GPa) = 0.02739355
#
# Stress axis : x y z
#
# Youngs Moduli (GPa) = -31.52931 -31.52931 58.67476
#
# Poissons Ratio (x) = 1.12417 -0.03629
# Poissons Ratio (y) = 1.12417 -0.03629
# Poissons Ratio (z) = 0.01950 0.01950
#
# Static dielectric constant tensor:
#      x y z
#    x 1.739410 0.000000 0.000000 
#    y 0.000000 1.739410 0.000000 
#    z 0.000000 0.000000 1.814800 
# 
# From -- ./inp_files/1949.got.cif
#   From: 2010.05.17/outbox.cif.g08.bks.cpg/sg127_1_cif.got.tgz:1949.got - 2010.05.20 12:03:00.
