data_PCOD9563678
_publ_section_title
;
Structure prediction by ZEFSAII (Michael W. Deem and Ramdas Pophale) SiO2 
 PCOD9563678
Probable space group: P 4/N N C
;
_chemical_formula_sum "Si O2"
_cell_formula_units_Z 64
_cell_length_a 13.987441
_cell_length_b 13.987441
_cell_length_c 19.495271
_cell_angle_alpha 90.000000
_cell_angle_beta 90.000000
_cell_angle_gamma 90.000000
_cell_volume 3814.220640
_symmetry_space_group_name_H-M "P 4/N N C"
_symmetry_group_IT_number 126
_space_group.IT_coordinate_system_code '2'
_symmetry_cell_setting 'tetragonal'
loop_
_space_group_symop_operation_xyz
x,y,z
1/2-y,x,z
1/2-x,1/2-y,z
y,1/2-x,z
x,1/2-y,1/2-z
1/2-x,y,1/2-z
y,x,1/2-z
1/2-y,1/2-x,1/2-z
-x,-y,-z
1/2+y,-x,-z
1/2+x,1/2+y,-z
-y,1/2+x,-z
-x,1/2+y,1/2+z
1/2+x,-y,1/2+z
-y,-x,1/2+z
1/2+y,1/2+x,1/2+z
loop_
_atom_site_type_symbol
_atom_site_label
_atom_site_fract_x
_atom_site_fract_y
_atom_site_fract_z
Si Si1 0.135428 0.748392 0.329347
Si Si2 0.887220 0.464401 0.431275
Si Si3 0.412349 0.566021 0.081809
Si Si4 0.596985 0.704902 0.534229
O O1 0.250000 0.750000 0.332305
O O2 0.105628 0.750000 0.250000
O O3 0.093774 0.837130 0.371918
O O4 0.100903 0.652940 0.367696
O O5 0.907091 0.403225 0.501006
O O6 0.817107 0.547436 0.460826
O O7 0.986601 0.512886 0.410398
O O8 0.329073 0.485733 0.086376
O O9 0.688302 0.635111 0.541242
#
# Coordination Sequence:
#
# PCOD9563678 Si02
#       4
#    16  16  16  16
#     4  11  25  38  55  85 118 153 195 238 295 351
#     4   9  20  34  57  82 113 148 192 236 286 338
#     4   9  21  34  58  87 111 150 196 236 285 338
#     4   9  17  30  54  88 115 139 187 239 282 334
#
# _framework density 16.779312000000001
#
# number of rings (size 3 to 8) (size 9 to 14) (size 15 to 20)
#    1.500    1.000    0.000    1.500    7.000    1.000 
#    0.000    0.000    0.000    0.000    0.000    1.750 
#    0.000    0.000    0.000    0.000    0.000    0.000 
#
# Total GULP energy -356325.688741 kJ/mol
# GULP energy per Si atom -5567.588887 kJ/mol
# Density = 1.674112 g / cm^3
# Si number density = 16.779312 Si / 1000 Ang^3
#
#
#
# Elastic Constant Matrix: (Units=GPa)
#
#
# Indices 1 2 3 4 5 6 
#
# 1 70.8045 16.5990 66.4465 0.0000 0.0000 0.0000
# 2 16.5990 70.8045 66.4465 0.0000 0.0000 0.0000
# 3 66.4465 66.4465 129.9178 0.0000 0.0000 0.0000
# 4 0.0000 0.0000 0.0000 14.0462 0.0000 0.0000
# 5 0.0000 0.0000 0.0000 0.0000 14.0462 0.0000
# 6 0.0000 0.0000 0.0000 0.0000 0.0000 24.3455
#
#
#
# Elastic Compliance Matrix: (Units=1/GPa)
#
#
# Indices 1 2 3 4 5 6 
#
# 1 0.034950 0.016502 -0.026315 0.000000 0.000000 0.000000
# 2 0.016502 0.034950 -0.026315 0.000000 0.000000 0.000000
# 3 -0.026315 -0.026315 0.034615 0.000000 0.000000 0.000000
# 4 0.000000 0.000000 0.000000 0.071194 0.000000 0.000000
# 5 0.000000 0.000000 0.000000 0.000000 0.071194 0.000000
# 6 0.000000 0.000000 0.000000 0.000000 0.000000 0.041075
#
#
# Mechanical properties :
#
#
# Convention : Reuss Voigt Hill
#
# Bulk Modulus (GPa) = 30.99943 63.39009 47.19476
# Shear Modulus (GPa) = 13.47750 18.62324 16.05037
#
# Velocity S-wave (km/s) = 2.83719 3.33512 3.09618
# Velocity P-wave (km/s) = 5.40812 7.25889 6.40075
#
# Compressibility (1/GPa) = 0.03225866
#
# Stress axis : x y z
#
# Youngs Moduli (GPa) = 28.61195 28.61195 28.88903
#
# Poissons Ratio (x) = -0.47216 0.76023
# Poissons Ratio (y) = -0.47216 0.76023
# Poissons Ratio (z) = 0.75294 0.75294
#
# Static dielectric constant tensor:
#      x y z
#    x 1.577250 0.000000 0.000000 
#    y 0.000000 1.577250 0.000000 
#    z 0.000000 0.000000 1.546470 
# 
# From -- ./inp_files/4247.got.cif
#   From: 2010.05.17/outbox.cif.g08.bks.cpg/sg126_3_cif.got.tgz:4247.got - 2010.05.20 11:58:20.
