data_PCOD9563406
_publ_section_title
;
Structure prediction by ZEFSAII (Michael W. Deem and Ramdas Pophale) SiO2 
 PCOD9563406
Probable space group: P 4/N N C
;
_chemical_formula_sum "Si O2"
_cell_formula_units_Z 128
_cell_length_a 17.196295
_cell_length_b 17.196295
_cell_length_c 21.304271
_cell_angle_alpha 90.000000
_cell_angle_beta 90.000000
_cell_angle_gamma 90.000000
_cell_volume 6299.940553
_symmetry_space_group_name_H-M "P 4/N N C"
_symmetry_group_IT_number 126
_space_group.IT_coordinate_system_code '2'
_symmetry_cell_setting 'tetragonal'
loop_
_space_group_symop_operation_xyz
x,y,z
1/2-y,x,z
1/2-x,1/2-y,z
y,1/2-x,z
x,1/2-y,1/2-z
1/2-x,y,1/2-z
y,x,1/2-z
1/2-y,1/2-x,1/2-z
-x,-y,-z
1/2+y,-x,-z
1/2+x,1/2+y,-z
-y,1/2+x,-z
-x,1/2+y,1/2+z
1/2+x,-y,1/2+z
-y,-x,1/2+z
1/2+y,1/2+x,1/2+z
loop_
_atom_site_type_symbol
_atom_site_label
_atom_site_fract_x
_atom_site_fract_y
_atom_site_fract_z
Si Si1 0.836292 0.338911 0.113666
Si Si2 0.656892 0.339549 0.605291
Si Si3 0.999662 0.609199 0.050240
Si Si4 0.640802 0.958401 0.706500
Si Si5 0.774165 0.878787 0.023591
Si Si6 0.157819 0.628776 0.247010
Si Si7 0.120921 0.239968 0.377871
Si Si8 0.520521 0.444048 0.413070
O O1 0.750699 0.343893 0.085695
O O2 0.863833 0.248477 0.105325
O O3 0.830980 0.364296 0.187264
O O4 0.899046 0.397177 0.086510
O O5 0.591575 0.382480 0.564495
O O6 0.631220 0.345791 0.678418
O O7 0.953092 0.689935 0.059106
O O8 0.969970 0.536412 0.090771
O O9 0.982557 0.580587 0.979124
O O10 0.609714 0.890287 0.750000
O O11 0.724538 0.943292 0.674475
O O12 0.639153 0.038432 0.743897
O O13 0.585934 0.971416 0.645866
O O14 0.690716 0.837462 0.034754
O O15 0.766226 0.903310 0.950188
O O16 0.250000 0.640578 0.250000
O O17 0.182305 0.169683 0.369049
#
# Coordination Sequence:
#
# PCOD9563406 Si02
#       8
#    16  16  16  16  16  16  16  16
#     4   9  20  39  61  82 120 148 198 237 289 356
#     4  10  20  37  61  90 110 155 193 242 294 348
#     4  11  22  37  59  84 119 148 194 245 294 358
#     4  11  21  33  52  74 110 148 186 237 284 346
#     4   9  19  38  60  84 112 155 200 239 293 353
#     4   9  19  35  54  80 109 146 187 229 284 348
#     4   9  19  35  52  76 109 146 195 238 283 345
#     4  10  23  40  49  85 115 154 185 236 302 344
#
# _framework density 20.317651999999999
#
# number of rings (size 3 to 8) (size 9 to 14) (size 15 to 20)
#    0.000    2.250    1.250    1.875    3.500    2.500 
#    4.500    1.875    0.000    0.000    0.000    0.000 
#    0.000    0.000    0.000    0.000    0.000    0.000 
#
# Total GULP energy -713574.291958 kJ/mol
# GULP energy per Si atom -5574.799156 kJ/mol
# Density = 2.027141 g / cm^3
# Si number density = 20.317652 Si / 1000 Ang^3
#
#
#
# Elastic Constant Matrix: (Units=GPa)
#
#
# Indices 1 2 3 4 5 6 
#
# 1 131.5550 -51.9310 9.1791 0.0000 0.0000 0.0000
# 2 -51.9310 131.5609 9.1729 0.0000 0.0000 0.0000
# 3 9.1791 9.1729 36.3399 0.0000 0.0000 0.0000
# 4 0.0000 0.0000 0.0000 22.3381 0.0000 0.0000
# 5 0.0000 0.0000 0.0000 0.0000 22.3382 0.0000
# 6 0.0000 0.0000 0.0000 0.0000 0.0000 26.1819
#
#
#
# Elastic Compliance Matrix: (Units=1/GPa)
#
#
# Indices 1 2 3 4 5 6 
#
# 1 0.009393 0.003942 -0.003368 0.000000 0.000000 0.000000
# 2 0.003942 0.009392 -0.003366 0.000000 0.000000 0.000000
# 3 -0.003368 -0.003366 0.029218 0.000000 0.000000 0.000000
# 4 0.000000 0.000000 0.000000 0.044767 0.000000 0.000000
# 5 0.000000 0.000000 0.000000 0.000000 0.044766 0.000000
# 6 0.000000 0.000000 0.000000 0.000000 0.000000 0.038194
#
#
# Mechanical properties :
#
#
# Convention : Reuss Voigt Hill
#
# Bulk Modulus (GPa) = 23.57415 25.81085 24.69250
# Shear Modulus (GPa) = 25.58152 36.37394 30.97773
#
# Velocity S-wave (km/s) = 3.55220 4.23574 3.90894
# Velocity P-wave (km/s) = 5.33405 6.05419 5.70550
#
# Compressibility (1/GPa) = 0.04241935
#
# Stress axis : x y z
#
# Youngs Moduli (GPa) = 106.46697 106.47446 34.22505
#
# Poissons Ratio (x) = -0.41976 0.11526
# Poissons Ratio (y) = -0.41973 0.11522
# Poissons Ratio (z) = 0.35854 0.35845
#
# Static dielectric constant tensor:
#      x y z
#    x 1.753590 0.000000 0.000000 
#    y 0.000000 1.753590 0.000000 
#    z 0.000000 0.000000 1.754470 
# 
# From -- ./inp_files/5958.got.cif
#   From: 2010.05.17/outbox.cif.g08.bks.cpg/sg126_3_cif.got.tgz:5958.got - 2010.05.20 11:58:20.
