data_PCOD9563563
_publ_section_title
;
Structure prediction by ZEFSAII (Michael W. Deem and Ramdas Pophale) SiO2 
 PCOD9563563
Probable space group: P 4/N N C
;
_chemical_formula_sum "Si O2"
_cell_formula_units_Z 68
_cell_length_a 16.831360
_cell_length_b 16.831360
_cell_length_c 13.125448
_cell_angle_alpha 90.000000
_cell_angle_beta 90.000000
_cell_angle_gamma 90.000000
_cell_volume 3718.369584
_symmetry_space_group_name_H-M "P 4/N N C"
_symmetry_group_IT_number 126
_space_group.IT_coordinate_system_code '2'
_symmetry_cell_setting 'tetragonal'
loop_
_space_group_symop_operation_xyz
x,y,z
1/2-y,x,z
1/2-x,1/2-y,z
y,1/2-x,z
x,1/2-y,1/2-z
1/2-x,y,1/2-z
y,x,1/2-z
1/2-y,1/2-x,1/2-z
-x,-y,-z
1/2+y,-x,-z
1/2+x,1/2+y,-z
-y,1/2+x,-z
-x,1/2+y,1/2+z
1/2+x,-y,1/2+z
-y,-x,1/2+z
1/2+y,1/2+x,1/2+z
loop_
_atom_site_type_symbol
_atom_site_label
_atom_site_fract_x
_atom_site_fract_y
_atom_site_fract_z
Si Si1 0.340657 0.471042 0.224371
Si Si2 0.750000 0.250000 0.750000
Si Si3 0.617339 0.752116 0.130611
Si Si4 0.703208 0.470705 0.993736
Si Si5 0.158324 0.882118 0.376257
O O1 0.250000 0.446055 0.250000
O O2 0.402574 0.402574 0.250000
O O3 0.356856 0.548514 0.293932
O O4 0.340718 0.495439 0.106133
O O5 0.804614 0.193198 0.681669
O O6 0.672096 0.674852 0.113082
O O7 0.594403 0.750000 0.250000
O O8 0.542258 0.759487 0.058351
O O9 0.644638 0.419094 0.063009
O O10 0.774189 0.415218 0.952188
#
# Coordination Sequence:
#
# PCOD9563563 Si02
#       5
#    16   4  16  16  16
#     4  10  24  45  61  95 135 164 213 268 316 383
#     4  12  20  46  64  84 128 174 204 270 308 380
#     4   9  21  42  65  93 128 166 216 263 309 390
#     4  11  23  40  66  94 121 174 209 266 326 379
#     4  11  24  41  63  93 127 164 220 265 314 387
#
# _framework density 18.287586000000001
#
# number of rings (size 3 to 8) (size 9 to 14) (size 15 to 20)
#    0.000    1.647    3.529    2.118    8.235    1.176 
#    4.235    0.000    0.000    0.000    0.000    0.000 
#    0.000    0.000    0.000    0.000    0.000    0.000 
#
# Total GULP energy -379941.449165 kJ/mol
# GULP energy per Si atom -5587.374252 kJ/mol
# Density = 1.824596 g / cm^3
# Si number density = 18.287586 Si / 1000 Ang^3
#
#
#
# Elastic Constant Matrix: (Units=GPa)
#
#
# Indices 1 2 3 4 5 6 
#
# 1 118.0892 77.7409 86.5584 0.0000 0.0000 0.0000
# 2 77.7409 118.0892 86.5584 0.0000 0.0000 0.0000
# 3 86.5584 86.5584 127.0594 0.0000 0.0000 0.0000
# 4 0.0000 0.0000 0.0000 17.8000 0.0000 0.0000
# 5 0.0000 0.0000 0.0000 0.0000 17.8000 0.0000
# 6 0.0000 0.0000 0.0000 0.0000 0.0000 25.7862
#
#
#
# Elastic Compliance Matrix: (Units=1/GPa)
#
#
# Indices 1 2 3 4 5 6 
#
# 1 0.018811 -0.005973 -0.008746 0.000000 0.000000 0.000000
# 2 -0.005973 0.018811 -0.008746 0.000000 0.000000 0.000000
# 3 -0.008746 -0.008746 0.019786 0.000000 0.000000 0.000000
# 4 0.000000 0.000000 0.000000 0.056180 0.000000 0.000000
# 5 0.000000 0.000000 0.000000 0.000000 0.056180 0.000000
# 6 0.000000 0.000000 0.000000 0.000000 0.000000 0.038780
#
#
# Mechanical properties :
#
#
# Convention : Reuss Voigt Hill
#
# Bulk Modulus (GPa) = 95.42799 96.10592 95.76695
# Shear Modulus (GPa) = 19.30724 19.76924 19.53824
#
# Velocity S-wave (km/s) = 3.25277 3.29145 3.27217
# Velocity P-wave (km/s) = 8.14877 8.19216 8.17049
#
# Compressibility (1/GPa) = 0.01047911
#
# Stress axis : x y z
#
# Youngs Moduli (GPa) = 53.16052 53.16052 50.54040
#
# Poissons Ratio (x) = 0.31754 0.44201
# Poissons Ratio (y) = 0.31754 0.44201
# Poissons Ratio (z) = 0.46492 0.46492
#
# Static dielectric constant tensor:
#      x y z
#    x 1.602480 0.000000 0.000000 
#    y 0.000000 1.602480 0.000000 
#    z 0.000000 0.000000 1.628190 
# 
# From -- ./inp_files/2656.got.cif
#   From: 2010.05.17/outbox.cif.g08.bks.cpg/sg126_2_cif.got.tgz:2656.got - 2010.05.20 11:58:20.
