data_PCOD9563975
_publ_section_title
;
Structure prediction by ZEFSAII (Michael W. Deem and Ramdas Pophale) SiO2 
 PCOD9563975
Probable space group: P 4/M B M
;
_chemical_formula_sum "Si O2"
_cell_formula_units_Z 80
_cell_length_a 27.902563
_cell_length_b 27.902563
_cell_length_c 8.129056
_cell_angle_alpha 90.000000
_cell_angle_beta 90.000000
_cell_angle_gamma 90.000000
_cell_volume 6328.901115
_symmetry_space_group_name_H-M "P 4/M B M"
_symmetry_group_IT_number 127
_symmetry_cell_setting 'tetragonal'
loop_
_space_group_symop_operation_xyz
x,y,z
-y,x,z
-x,-y,z
y,-x,z
1/2+x,1/2-y,-z
1/2-x,1/2+y,-z
1/2+y,1/2+x,-z
1/2-y,1/2-x,-z
-x,-y,-z
y,-x,-z
x,y,-z
-y,x,-z
1/2-x,1/2+y,z
1/2+x,1/2-y,z
1/2-y,1/2-x,z
1/2+y,1/2+x,z
loop_
_atom_site_type_symbol
_atom_site_label
_atom_site_fract_x
_atom_site_fract_y
_atom_site_fract_z
Si Si1 0.792769 0.129987 0.681663
Si Si2 0.629012 0.451357 0.304259
Si Si3 0.327881 0.749341 0.000000
Si Si4 0.368112 0.440890 0.191177
Si Si5 0.333355 0.245154 0.000000
Si Si6 0.623480 0.710751 0.312940
O O1 0.770349 0.129767 0.500000
O O2 0.823584 0.082011 0.710965
O O3 0.833004 0.172096 0.682750
O O4 0.758596 0.141360 0.834827
O O5 0.624871 0.457690 0.500000
O O6 0.586738 0.416075 0.246544
O O7 0.627454 0.502784 0.220256
O O8 0.678753 0.423148 0.272743
O O9 0.287480 0.707034 0.000000
O O10 0.298657 0.798657 0.000000
O O11 0.360204 0.429848 0.000000
O O12 0.363920 0.253255 0.834035
O O13 0.304213 0.195788 0.000000
O O14 0.619461 0.730203 0.500000
#
# Coordination Sequence:
#
# PCOD9563975 Si02
#       6
#    16  16   8  16   8  16
#     4   9  16  28  41  55  75  98 118 145 185 227
#     4  10  20  32  43  56  73  98 126 159 197 236
#     4   9  16  26  39  58  75  91 116 145 177 224
#     4  11  20  30  44  59  73  96 127 161 197 237
#     4   9  16  24  39  56  73  91 110 139 177 220
#     4   8  16  27  40  54  72  94 117 143 179 223
#
# _framework density 12.640425
#
# number of rings (size 3 to 8) (size 9 to 14) (size 15 to 20)
#    0.000    2.600    1.000    3.600    5.600    1.200 
#    0.000    6.000    0.000    0.000    0.000    0.000 
#    0.000    0.000    0.000    0.000    0.000    0.000 
#
# Total GULP energy -445545.004993 kJ/mol
# GULP energy per Si atom -5569.312562 kJ/mol
# Density = 1.261165 g / cm^3
# Si number density = 12.640425 Si / 1000 Ang^3
#
#
#
# Elastic Constant Matrix: (Units=GPa)
#
#
# Indices 1 2 3 4 5 6 
#
# 1 29.6910 30.5812 26.7696 0.0000 0.0000 0.0000
# 2 30.5812 29.6912 26.7700 0.0000 0.0000 0.0000
# 3 26.7696 26.7700 82.4841 0.0000 0.0000 0.0000
# 4 0.0000 0.0000 0.0000 11.0828 0.0000 0.0000
# 5 0.0000 0.0000 0.0000 0.0000 11.0839 0.0000
# 6 0.0000 0.0000 0.0000 0.0000 0.0000 10.8663
#
#
#
# Elastic Compliance Matrix: (Units=1/GPa)
#
#
# Indices 1 2 3 4 5 6 
#
# 1 -0.550054 0.573367 -0.007569 0.000000 0.000000 0.000000
# 2 0.573367 -0.550057 -0.007563 0.000000 0.000000 0.000000
# 3 -0.007569 -0.007563 0.017034 0.000000 0.000000 0.000000
# 4 0.000000 0.000000 0.000000 0.090230 0.000000 0.000000
# 5 0.000000 0.000000 0.000000 0.000000 0.090221 0.000000
# 6 0.000000 0.000000 0.000000 0.000000 0.000000 0.092028
#
#
# Mechanical properties :
#
#
# Convention : Reuss Voigt Hill
#
# Bulk Modulus (GPa) = 29.94435 34.45645 32.20040
# Shear Modulus (GPa) = -2.60969 10.45629 3.92330
#
# Velocity S-wave (km/s) = -1.43842 2.87925 1.76366
# Velocity P-wave (km/s) = 4.58062 6.19448 5.44764
#
# Compressibility (1/GPa) = 0.03339528
#
# Stress axis : x y z
#
# Youngs Moduli (GPa) = -1.81800 -1.81799 58.70461
#
# Poissons Ratio (x) = 1.04238 0.44434
# Poissons Ratio (y) = 1.04238 0.44396
# Poissons Ratio (z) = -0.01376 -0.01375
#
# Static dielectric constant tensor:
#      x y z
#    x 1.392170 0.000000 0.000000 
#    y 0.000000 1.392170 0.000000 
#    z 0.000000 0.000000 1.445310 
# 
# From -- ./inp_files/1888.got.cif
#   From: 2010.05.17/outbox.cif.g08.bks.cpg/sg127_1_cif.got.tgz:1888.got - 2010.05.20 12:03:00.
