data_PCOD9563440
_publ_section_title
;
Structure prediction by ZEFSAII (Michael W. Deem and Ramdas Pophale) SiO2 
 PCOD9563440
Probable space group: P 4/N N C
;
_chemical_formula_sum "Si O2"
_cell_formula_units_Z 116
_cell_length_a 17.397569
_cell_length_b 17.397569
_cell_length_c 18.568357
_cell_angle_alpha 90.000000
_cell_angle_beta 90.000000
_cell_angle_gamma 90.000000
_cell_volume 5620.185014
_symmetry_space_group_name_H-M "P 4/N N C"
_symmetry_group_IT_number 126
_space_group.IT_coordinate_system_code '2'
_symmetry_cell_setting 'tetragonal'
loop_
_space_group_symop_operation_xyz
x,y,z
1/2-y,x,z
1/2-x,1/2-y,z
y,1/2-x,z
x,1/2-y,1/2-z
1/2-x,y,1/2-z
y,x,1/2-z
1/2-y,1/2-x,1/2-z
-x,-y,-z
1/2+y,-x,-z
1/2+x,1/2+y,-z
-y,1/2+x,-z
-x,1/2+y,1/2+z
1/2+x,-y,1/2+z
-y,-x,1/2+z
1/2+y,1/2+x,1/2+z
loop_
_atom_site_type_symbol
_atom_site_label
_atom_site_fract_x
_atom_site_fract_y
_atom_site_fract_z
Si Si1 0.151212 0.173785 0.663547
Si Si2 0.070984 0.917019 0.193614
Si Si3 0.582483 0.004842 0.342796
Si Si4 0.680413 0.914311 0.947318
Si Si5 0.750000 0.750000 0.510906
Si Si6 0.532400 0.842231 0.888821
Si Si7 0.638393 0.425627 0.024957
Si Si8 0.947533 0.311016 0.557166
O O1 0.236682 0.146839 0.640617
O O2 0.160301 0.160301 0.750000
O O3 0.072445 0.132565 0.643335
O O4 0.061261 0.849407 0.135169
O O5 0.054866 0.889109 0.274624
O O6 0.000300 0.972934 0.175993
O O7 0.142899 0.972829 0.176539
O O8 0.578317 0.054903 0.413676
O O9 0.703430 0.832752 0.982247
O O10 0.609657 0.893120 0.894396
O O11 0.753297 0.945722 0.901766
O O12 0.666382 0.975392 0.012297
O O13 0.484211 0.867973 0.959043
O O14 0.720397 0.439664 0.060510
O O15 0.621710 0.343211 0.991902
#
# Coordination Sequence:
#
# PCOD9563440 Si02
#       8
#    16  16  16  16   4  16  16  16
#     4   9  18  32  49  71 114 160 192 221 262 328
#     4  10  21  35  53  83 119 148 191 231 279 332
#     4  11  21  34  57  83 111 158 189 232 274 346
#     4   9  16  31  58  79 112 146 183 229 287 335
#     4   8  16  28  52  88 112 138 184 232 280 342
#     4   9  18  35  55  82 112 146 184 232 280 342
#     4  10  22  36  58  84 108 146 198 233 295 333
#     4  10  21  37  57  80 111 152 190 247 280 342
#
# _framework density 20.639890000000001
#
# number of rings (size 3 to 8) (size 9 to 14) (size 15 to 20)
#    0.000    2.345    1.379    2.069    1.931    3.034 
#    0.000    0.000    3.034   20.690    0.000    5.793 
#    0.000   32.000    0.000    0.000    0.000    0.000 
#
# Total GULP energy -646082.946822 kJ/mol
# GULP energy per Si atom -5569.680576 kJ/mol
# Density = 2.059291 g / cm^3
# Si number density = 20.639890 Si / 1000 Ang^3
#
#
#
# Elastic Constant Matrix: (Units=GPa)
#
#
# Indices 1 2 3 4 5 6 
#
# 1 46.9539 16.5259 4.2162 0.0000 0.0000 0.0000
# 2 16.5259 46.9539 4.2162 0.0000 0.0000 0.0000
# 3 4.2162 4.2162 22.7211 0.0000 0.0000 0.0000
# 4 0.0000 0.0000 0.0000 12.4444 0.0000 0.0000
# 5 0.0000 0.0000 0.0000 0.0000 12.4444 0.0000
# 6 0.0000 0.0000 0.0000 0.0000 0.0000 35.9958
#
#
#
# Elastic Compliance Matrix: (Units=1/GPa)
#
#
# Indices 1 2 3 4 5 6 
#
# 1 0.024508 -0.008357 -0.002997 0.000000 0.000000 0.000000
# 2 -0.008357 0.024508 -0.002997 0.000000 0.000000 0.000000
# 3 -0.002997 -0.002997 0.045124 0.000000 0.000000 0.000000
# 4 0.000000 0.000000 0.000000 0.080357 0.000000 0.000000
# 5 0.000000 0.000000 0.000000 0.000000 0.080357 0.000000
# 6 0.000000 0.000000 0.000000 0.000000 0.000000 0.027781
#
#
# Mechanical properties :
#
#
# Convention : Reuss Voigt Hill
#
# Bulk Modulus (GPa) = 15.28159 18.50507 16.89333
# Shear Modulus (GPa) = 15.00825 18.28829 16.64827
#
# Velocity S-wave (km/s) = 2.69949 2.97991 2.84316
# Velocity P-wave (km/s) = 4.13961 4.56344 4.35668
#
# Compressibility (1/GPa) = 0.06543820
#
# Stress axis : x y z
#
# Youngs Moduli (GPa) = 40.80325 40.80325 22.16107
#
# Poissons Ratio (x) = 0.34098 0.06642
# Poissons Ratio (y) = 0.34098 0.06642
# Poissons Ratio (z) = 0.12229 0.12229
#
# Static dielectric constant tensor:
#      x y z
#    x 1.775170 0.000000 0.000000 
#    y 0.000000 1.775170 0.000000 
#    z 0.000000 0.000000 1.781730 
# 
# From -- ./inp_files/4606.got.cif
#   From: 2010.05.17/outbox.cif.g08.bks.cpg/sg126_3_cif.got.tgz:4606.got - 2010.05.20 11:58:20.
