data_PCOD9563337
_publ_section_title
;
Structure prediction by ZEFSAII (Michael W. Deem and Ramdas Pophale) SiO2 
 PCOD9563337
Probable space group: P 4/N N C
;
_chemical_formula_sum "Si O2"
_cell_formula_units_Z 56
_cell_length_a 17.579316
_cell_length_b 17.579316
_cell_length_c 10.193302
_cell_angle_alpha 90.000000
_cell_angle_beta 90.000000
_cell_angle_gamma 90.000000
_cell_volume 3150.060082
_symmetry_space_group_name_H-M "P 4/N N C"
_symmetry_group_IT_number 126
_space_group.IT_coordinate_system_code '2'
_symmetry_cell_setting 'tetragonal'
loop_
_space_group_symop_operation_xyz
x,y,z
1/2-y,x,z
1/2-x,1/2-y,z
y,1/2-x,z
x,1/2-y,1/2-z
1/2-x,y,1/2-z
y,x,1/2-z
1/2-y,1/2-x,1/2-z
-x,-y,-z
1/2+y,-x,-z
1/2+x,1/2+y,-z
-y,1/2+x,-z
-x,1/2+y,1/2+z
1/2+x,-y,1/2+z
-y,-x,1/2+z
1/2+y,1/2+x,1/2+z
loop_
_atom_site_type_symbol
_atom_site_label
_atom_site_fract_x
_atom_site_fract_y
_atom_site_fract_z
Si Si1 0.060514 0.250000 0.750000
Si Si2 0.599191 0.533745 0.616370
Si Si3 0.095256 0.007015 0.865424
Si Si4 0.782647 0.869873 0.520966
O O1 0.112580 0.284271 0.634414
O O2 0.012927 0.317259 0.820752
O O3 0.571156 0.571156 0.750000
O O4 0.574716 0.445437 0.618085
O O5 0.552994 0.574296 0.497331
O O6 0.686517 0.555241 0.591553
O O7 0.048924 0.048924 0.750000
O O8 0.699352 0.839455 0.554068
#
# Coordination Sequence:
#
# PCOD9563337 Si02
#       4
#     8  16  16  16
#     4  12  18  35  58  86 106 153 206 240 270 349
#     4  10  21  35  51  75 116 157 186 234 289 339
#     4  10  19  35  55  77 109 154 195 236 272 342
#     4  11  21  33  52  80 116 151 187 229 280 350
#
# _framework density 17.777438
#
# number of rings (size 3 to 8) (size 9 to 14) (size 15 to 20)
#    0.000    1.429    5.714    0.857    0.000    2.286 
#    0.000    1.429    0.000    0.000    0.000    0.000 
#    0.000   44.571    0.000    0.000    0.000    0.000 
#
# Total GULP energy -312169.448121 kJ/mol
# GULP energy per Si atom -5574.454431 kJ/mol
# Density = 1.773698 g / cm^3
# Si number density = 17.777438 Si / 1000 Ang^3
#
#
#
# Elastic Constant Matrix: (Units=GPa)
#
#
# Indices 1 2 3 4 5 6 
#
# 1 56.1164 85.0707 10.6861 0.0000 0.0000 0.0000
# 2 85.0707 56.1164 10.6861 0.0000 0.0000 0.0000
# 3 10.6861 10.6861 88.6605 0.0000 0.0000 0.0000
# 4 0.0000 0.0000 0.0000 995.4289 0.0000 0.0000
# 5 0.0000 0.0000 0.0000 0.0000 995.4289 0.0000
# 6 0.0000 0.0000 0.0000 0.0000 0.0000 43.9263
#
#
#
# Elastic Compliance Matrix: (Units=1/GPa)
#
#
# Indices 1 2 3 4 5 6 
#
# 1 -0.013661 0.020876 -0.000870 0.000000 0.000000 0.000000
# 2 0.020876 -0.013661 -0.000870 0.000000 0.000000 0.000000
# 3 -0.000870 -0.000870 0.011489 0.000000 0.000000 0.000000
# 4 0.000000 0.000000 0.000000 0.001005 0.000000 0.000000
# 5 0.000000 0.000000 0.000000 0.000000 0.001005 0.000000
# 6 0.000000 0.000000 0.000000 0.000000 0.000000 0.022765
#
#
# Mechanical properties :
#
#
# Convention : Reuss Voigt Hill
#
# Bulk Modulus (GPa) = 44.56470 45.97543 45.27007
# Shear Modulus (GPa) = -228.80112 413.25351 92.22620
#
# Velocity S-wave (km/s) = -11.35705 15.26316 7.21047
# Velocity P-wave (km/s) = 12.11834 18.34494 9.73865
#
# Compressibility (1/GPa) = 0.02243929
#
# Stress axis : x y z
#
# Youngs Moduli (GPa) = -73.19935 -73.19935 87.04287
#
# Poissons Ratio (x) = 1.52809 0.07569
# Poissons Ratio (y) = 1.52809 0.07569
# Poissons Ratio (z) = -0.06365 -0.06365
#
# Static dielectric constant tensor:
#      x y z
#    x 1.654090 0.000000 0.000000 
#    y 0.000000 1.654090 0.000000 
#    z 0.000000 0.000000 1.633380 
# 
# From -- ./inp_files/1251.got.cif
#   From: 2010.05.17/outbox.cif.g08.bks.cpg/sg126_1_cif.got.tgz:1251.got - 2010.05.20 11:58:20.
