data_PCOD9563763
_publ_section_title
;
Structure prediction by ZEFSAII (Michael W. Deem and Ramdas Pophale) SiO2 
 PCOD9563763
Probable space group: P 4/M B M
;
_chemical_formula_sum "Si O2"
_cell_formula_units_Z 104
_cell_length_a 25.827596
_cell_length_b 25.827596
_cell_length_c 7.436466
_cell_angle_alpha 90.000000
_cell_angle_beta 90.000000
_cell_angle_gamma 90.000000
_cell_volume 4960.604074
_symmetry_space_group_name_H-M "P 4/M B M"
_symmetry_group_IT_number 127
_symmetry_cell_setting 'tetragonal'
loop_
_space_group_symop_operation_xyz
x,y,z
-y,x,z
-x,-y,z
y,-x,z
1/2+x,1/2-y,-z
1/2-x,1/2+y,-z
1/2+y,1/2+x,-z
1/2-y,1/2-x,-z
-x,-y,-z
y,-x,-z
x,y,-z
-y,x,-z
1/2-x,1/2+y,z
1/2+x,1/2-y,z
1/2-y,1/2-x,z
1/2+y,1/2+x,z
loop_
_atom_site_type_symbol
_atom_site_label
_atom_site_fract_x
_atom_site_fract_y
_atom_site_fract_z
Si Si1 0.341794 0.615630 0.298922
Si Si2 0.499846 0.847273 0.283119
Si Si3 0.042522 0.542522 0.280060
Si Si4 0.465423 0.266156 0.278994
Si Si5 0.195071 0.924610 0.294785
Si Si6 0.388554 0.807811 0.210848
Si Si7 0.463395 0.424463 0.216574
O O1 0.328923 0.634949 0.500000
O O2 0.290596 0.589152 0.218089
O O3 0.380852 0.657440 0.212044
O O4 0.377449 0.564646 0.307458
O O5 0.501404 0.847326 0.500000
O O6 0.525922 0.900187 0.220609
O O7 0.526357 0.793426 0.224467
O O8 0.439777 0.842790 0.230552
O O9 0.042821 0.542821 0.500000
O O10 0.000000 0.500000 0.225613
O O11 0.465885 0.267701 0.500000
O O12 0.517436 0.297267 0.217321
O O13 0.176466 0.931446 0.500000
O O14 0.252842 0.901348 0.297301
O O15 0.339525 0.839525 0.281479
O O16 0.380511 0.797770 0.000000
O O17 0.522850 0.433300 0.264058
O O18 0.460763 0.418733 0.000000
#
# Coordination Sequence:
#
# PCOD9563763 Si02
#       7
#    16  16   8  16  16  16  16
#     4  10  18  29  47  68  92 120 158 202 242 286
#     4   9  17  31  51  74 102 133 160 191 234 290
#     4   9  16  26  47  79 105 127 161 195 227 283
#     4   8  15  28  45  66  94 125 156 194 241 285
#     4   9  18  31  48  70  95 125 159 198 242 289
#     4  10  20  33  50  72  97 124 157 201 248 287
#     4   9  18  30  41  58  88 122 155 194 241 290
#
# _framework density 20.96519
#
# number of rings (size 3 to 8) (size 9 to 14) (size 15 to 20)
#    0.000    2.846    0.000    3.231    0.000    4.308 
#    0.000    5.769    1.692    1.385    0.000    0.000 
#    0.000    0.000    0.000    0.000    0.000    0.000 
#
# Total GULP energy -580014.003753 kJ/mol
# GULP energy per Si atom -5577.057728 kJ/mol
# Density = 2.091747 g / cm^3
# Si number density = 20.965190 Si / 1000 Ang^3
#
#
#
# Elastic Constant Matrix: (Units=GPa)
#
#
# Indices 1 2 3 4 5 6 
#
# 1 94.2259 70.5852 1.8272 0.0000 0.0000 0.0000
# 2 70.5852 94.2259 1.8272 0.0000 0.0000 0.0000
# 3 1.8272 1.8272 67.5557 0.0000 0.0000 0.0000
# 4 0.0000 0.0000 0.0000 29.3049 0.0000 0.0000
# 5 0.0000 0.0000 0.0000 0.0000 29.3049 0.0000
# 6 0.0000 0.0000 0.0000 0.0000 0.0000 42.3631
#
#
#
# Elastic Compliance Matrix: (Units=1/GPa)
#
#
# Indices 1 2 3 4 5 6 
#
# 1 0.024186 -0.018114 -0.000164 0.000000 0.000000 0.000000
# 2 -0.018114 0.024186 -0.000164 0.000000 0.000000 0.000000
# 3 -0.000164 -0.000164 0.014811 0.000000 0.000000 0.000000
# 4 0.000000 0.000000 0.000000 0.034124 0.000000 0.000000
# 5 0.000000 0.000000 0.000000 0.000000 0.034124 0.000000
# 6 0.000000 0.000000 0.000000 0.000000 0.000000 0.023605
#
#
# Mechanical properties :
#
#
# Convention : Reuss Voigt Hill
#
# Bulk Modulus (GPa) = 38.02710 44.94297 41.48503
# Shear Modulus (GPa) = 24.91439 32.31244 28.61342
#
# Velocity S-wave (km/s) = 3.45101 3.93013 3.69834
# Velocity P-wave (km/s) = 5.83583 6.48676 6.16988
#
# Compressibility (1/GPa) = 0.02629704
#
# Stress axis : x y z
#
# Youngs Moduli (GPa) = 41.34700 41.34700 67.51519
#
# Poissons Ratio (x) = 0.74897 0.01109
# Poissons Ratio (y) = 0.74897 0.01109
# Poissons Ratio (z) = 0.00679 0.00679
#
# Static dielectric constant tensor:
#      x y z
#    x 1.756720 0.000000 0.000000 
#    y 0.000000 1.756720 0.000000 
#    z 0.000000 0.000000 1.781420 
# 
# From -- ./inp_files/2289.got.cif
#   From: 2010.05.17/outbox.cif.g08.bks.cpg/sg127_2_cif.got.tgz:2289.got - 2010.05.20 12:03:00.
