data_PCOD9563994
_publ_section_title
;
Structure prediction by ZEFSAII (Michael W. Deem and Ramdas Pophale) SiO2 
 PCOD9563994
Probable space group: P 4/M B M
;
_chemical_formula_sum "Si O2"
_cell_formula_units_Z 72
_cell_length_a 19.940655
_cell_length_b 19.940655
_cell_length_c 7.418171
_cell_angle_alpha 90.000000
_cell_angle_beta 90.000000
_cell_angle_gamma 90.000000
_cell_volume 2949.685271
_symmetry_space_group_name_H-M "P 4/M B M"
_symmetry_group_IT_number 127
_symmetry_cell_setting 'tetragonal'
loop_
_space_group_symop_operation_xyz
x,y,z
-y,x,z
-x,-y,z
y,-x,z
1/2+x,1/2-y,-z
1/2-x,1/2+y,-z
1/2+y,1/2+x,-z
1/2-y,1/2-x,-z
-x,-y,-z
y,-x,-z
x,y,-z
-y,x,-z
1/2-x,1/2+y,z
1/2+x,1/2-y,z
1/2-y,1/2-x,z
1/2+y,1/2+x,z
loop_
_atom_site_type_symbol
_atom_site_label
_atom_site_fract_x
_atom_site_fract_y
_atom_site_fract_z
Si Si1 0.116805 0.770507 0.798419
Si Si2 0.601612 0.462888 0.717462
Si Si3 0.491215 0.795724 0.787308
Si Si4 0.244227 0.852157 0.219403
Si Si5 0.946217 0.553784 0.284634
O O1 0.065902 0.832870 0.804317
O O2 0.182976 0.805047 0.715649
O O3 0.066548 0.715978 0.712516
O O4 0.136378 0.748082 0.000000
O O5 0.582825 0.538224 0.767836
O O6 0.608117 0.460557 0.500000
O O7 0.429028 0.750373 0.715678
O O8 0.467089 0.871790 0.771160
O O9 0.496929 0.781203 0.000000
O O10 0.312486 0.812486 0.262163
O O11 0.238372 0.854994 0.000000
O O12 0.947295 0.552706 0.500000
O O13 0.000000 0.500000 0.216137
#
# Coordination Sequence:
#
# PCOD9563994 Si02
#       5
#    16  16  16  16   8
#     4  10  20  32  54  87 113 140 185 239 292 346
#     4   9  18  32  48  69 105 153 193 224 270 332
#     4  10  20  37  61  87 117 156 197 238 294 363
#     4   9  17  32  54  79 114 152 186 234 297 355
#     4  11  25  43  63  87 115 151 197 254 307 348
#
# _framework density 24.409382999999998
#
# number of rings (size 3 to 8) (size 9 to 14) (size 15 to 20)
#    0.000    2.333    1.111    2.333    0.000    5.333 
#    0.000    4.444    0.000    0.000    0.000    0.000 
#    0.000    0.000    0.000    0.000    0.000    0.000 
#
# Total GULP energy -402145.626713 kJ/mol
# GULP energy per Si atom -5585.355927 kJ/mol
# Density = 2.435383 g / cm^3
# Si number density = 24.409383 Si / 1000 Ang^3
#
#
#
# Elastic Constant Matrix: (Units=GPa)
#
#
# Indices 1 2 3 4 5 6 
#
# 1 94.5378 65.3548 2.1625 0.0000 0.0000 0.0000
# 2 65.3548 94.5376 2.1625 0.0000 0.0000 0.0000
# 3 2.1625 2.1625 81.5280 0.0000 0.0000 0.0000
# 4 0.0000 0.0000 0.0000 5.3058 0.0000 0.0000
# 5 0.0000 0.0000 0.0000 0.0000 5.3005 0.0000
# 6 0.0000 0.0000 0.0000 0.0000 0.0000 27.0196
#
#
#
# Elastic Compliance Matrix: (Units=1/GPa)
#
#
# Indices 1 2 3 4 5 6 
#
# 1 0.020263 -0.014004 -0.000166 0.000000 0.000000 0.000000
# 2 -0.014004 0.020263 -0.000166 0.000000 0.000000 0.000000
# 3 -0.000166 -0.000166 0.012275 0.000000 0.000000 0.000000
# 4 0.000000 0.000000 0.000000 0.188474 0.000000 0.000000
# 5 0.000000 0.000000 0.000000 0.000000 0.188662 0.000000
# 6 0.000000 0.000000 0.000000 0.000000 0.000000 0.037010
#
#
# Mechanical properties :
#
#
# Convention : Reuss Voigt Hill
#
# Bulk Modulus (GPa) = 41.44582 45.55145 43.49863
# Shear Modulus (GPa) = 9.92732 20.92007 15.42370
#
# Velocity S-wave (km/s) = 2.01887 2.93072 2.51644
# Velocity P-wave (km/s) = 4.73822 5.49128 5.12859
#
# Compressibility (1/GPa) = 0.02412788
#
# Stress axis : x y z
#
# Youngs Moduli (GPa) = 49.35189 49.35179 81.46946
#
# Poissons Ratio (x) = 0.69112 0.01352
# Poissons Ratio (y) = 0.69112 0.01352
# Poissons Ratio (z) = 0.00819 0.00819
#
# Static dielectric constant tensor:
#      x y z
#    x 1.961560 0.000000 0.000000 
#    y 0.000000 1.961570 0.000000 
#    z 0.000000 0.000000 1.913890 
# 
# From -- ./inp_files/1536.got.cif
#   From: 2010.05.17/outbox.cif.g08.bks.cpg/sg127_1_cif.got.tgz:1536.got - 2010.05.20 12:03:00.
