data_PCOD9563642
_publ_section_title
;
Structure prediction by ZEFSAII (Michael W. Deem and Ramdas Pophale) SiO2 
 PCOD9563642
Probable space group: P 4/N N C
;
_chemical_formula_sum "Si O2"
_cell_formula_units_Z 48
_cell_length_a 13.266668
_cell_length_b 13.266668
_cell_length_c 11.971355
_cell_angle_alpha 90.000000
_cell_angle_beta 90.000000
_cell_angle_gamma 90.000000
_cell_volume 2107.012110
_symmetry_space_group_name_H-M "P 4/N N C"
_symmetry_group_IT_number 126
_space_group.IT_coordinate_system_code '2'
_symmetry_cell_setting 'tetragonal'
loop_
_space_group_symop_operation_xyz
x,y,z
1/2-y,x,z
1/2-x,1/2-y,z
y,1/2-x,z
x,1/2-y,1/2-z
1/2-x,y,1/2-z
y,x,1/2-z
1/2-y,1/2-x,1/2-z
-x,-y,-z
1/2+y,-x,-z
1/2+x,1/2+y,-z
-y,1/2+x,-z
-x,1/2+y,1/2+z
1/2+x,-y,1/2+z
-y,-x,1/2+z
1/2+y,1/2+x,1/2+z
loop_
_atom_site_type_symbol
_atom_site_label
_atom_site_fract_x
_atom_site_fract_y
_atom_site_fract_z
Si Si1 0.914745 0.078567 0.283645
Si Si2 0.910603 0.703656 0.401516
Si Si3 0.488368 0.768354 0.632369
O O1 0.940158 0.158084 0.382625
O O2 0.904434 0.151295 0.175304
O O3 0.830661 0.004531 0.328295
O O4 0.009467 0.009467 0.250000
O O5 0.870092 0.816110 0.381362
O O6 0.946107 0.697031 0.529983
O O7 0.548058 0.750000 0.750000
#
# Coordination Sequence:
#
# PCOD9563642 Si02
#       3
#    16  16  16
#     4   9  20  40  64  93 133 174 215 271 332 398
#     4  11  23  38  67 105 134 170 221 282 346 402
#     4   8  21  40  66  98 119 179 229 271 325 395
#
# _framework density 22.781072999999999
#
# number of rings (size 3 to 8) (size 9 to 14) (size 15 to 20)
#    2.000    0.333    0.000    2.000    0.000    6.667 
#    0.000    3.333    0.000   41.000    0.000    0.000 
#    0.000    0.000    0.000    0.000    0.000    0.000 
#
# Total GULP energy -267399.012187 kJ/mol
# GULP energy per Si atom -5570.812754 kJ/mol
# Density = 2.272922 g / cm^3
# Si number density = 22.781073 Si / 1000 Ang^3
#
#
#
# Elastic Constant Matrix: (Units=GPa)
#
#
# Indices 1 2 3 4 5 6 
#
# 1 122.6546 94.7105 59.7181 0.0000 0.0000 0.0000
# 2 94.7105 122.6546 59.7181 0.0000 0.0000 0.0000
# 3 59.7181 59.7181 101.4911 0.0000 0.0000 0.0000
# 4 0.0000 0.0000 0.0000 27.0370 0.0000 0.0000
# 5 0.0000 0.0000 0.0000 0.0000 27.0370 0.0000
# 6 0.0000 0.0000 0.0000 0.0000 0.0000 19.3173
#
#
#
# Elastic Compliance Matrix: (Units=1/GPa)
#
#
# Indices 1 2 3 4 5 6 
#
# 1 0.021292 -0.014494 -0.004000 0.000000 0.000000 0.000000
# 2 -0.014494 0.021292 -0.004000 0.000000 0.000000 0.000000
# 3 -0.004000 -0.004000 0.014561 0.000000 0.000000 0.000000
# 4 0.000000 0.000000 0.000000 0.036986 0.000000 0.000000
# 5 0.000000 0.000000 0.000000 0.000000 0.036986 0.000000
# 6 0.000000 0.000000 0.000000 0.000000 0.000000 0.051767
#
#
# Mechanical properties :
#
#
# Convention : Reuss Voigt Hill
#
# Bulk Modulus (GPa) = 82.25995 86.12150 84.19073
# Shear Modulus (GPa) = 21.55861 23.52182 22.54022
#
# Velocity S-wave (km/s) = 3.07960 3.21676 3.14893
# Velocity P-wave (km/s) = 6.98803 7.18908 7.08926
#
# Compressibility (1/GPa) = 0.01215658
#
# Stress axis : x y z
#
# Youngs Moduli (GPa) = 46.96546 46.96546 68.67767
#
# Poissons Ratio (x) = 0.68070 0.27474
# Poissons Ratio (y) = 0.68070 0.27474
# Poissons Ratio (z) = 0.18788 0.18788
#
# Static dielectric constant tensor:
#      x y z
#    x 1.881060 0.000000 0.000000 
#    y 0.000000 1.881060 0.000000 
#    z 0.000000 0.000000 1.878980 
# 
# From -- ./inp_files/2304.got.cif
#   From: 2010.05.17/outbox.cif.g08.bks.cpg/sg126_2_cif.got.tgz:2304.got - 2010.05.20 11:58:20.
