data_PCOD9563511
_publ_section_title
;
Structure prediction by ZEFSAII (Michael W. Deem and Ramdas Pophale) SiO2 
 PCOD9563511
Probable space group: P 4/N N C
;
_chemical_formula_sum "Si O2"
_cell_formula_units_Z 96
_cell_length_a 15.527025
_cell_length_b 15.527025
_cell_length_c 20.613011
_cell_angle_alpha 90.000000
_cell_angle_beta 90.000000
_cell_angle_gamma 90.000000
_cell_volume 4969.560013
_symmetry_space_group_name_H-M "P 4/N N C"
_symmetry_group_IT_number 126
_space_group.IT_coordinate_system_code '2'
_symmetry_cell_setting 'tetragonal'
loop_
_space_group_symop_operation_xyz
x,y,z
1/2-y,x,z
1/2-x,1/2-y,z
y,1/2-x,z
x,1/2-y,1/2-z
1/2-x,y,1/2-z
y,x,1/2-z
1/2-y,1/2-x,1/2-z
-x,-y,-z
1/2+y,-x,-z
1/2+x,1/2+y,-z
-y,1/2+x,-z
-x,1/2+y,1/2+z
1/2+x,-y,1/2+z
-y,-x,1/2+z
1/2+y,1/2+x,1/2+z
loop_
_atom_site_type_symbol
_atom_site_label
_atom_site_fract_x
_atom_site_fract_y
_atom_site_fract_z
Si Si1 0.677222 0.066227 0.201500
Si Si2 0.875746 0.250000 0.250000
Si Si3 0.084087 0.941372 0.976141
Si Si4 0.780750 0.022572 0.446595
Si Si5 0.788718 0.613901 0.959485
Si Si6 0.988377 0.511624 0.750000
Si Si7 0.143749 0.984855 0.353858
O O1 0.750000 0.032631 0.250000
O O2 0.670837 0.169664 0.214416
O O3 0.706249 0.043113 0.128756
O O4 0.584518 0.027861 0.222707
O O5 0.931234 0.294335 0.307073
O O6 0.183817 0.970879 0.975946
O O7 0.070673 0.916915 0.900964
O O8 0.079839 0.852516 0.016708
O O9 0.000000 0.000000 0.000000
O O10 0.805696 0.926786 0.469922
O O11 0.851994 0.693211 0.951870
O O12 0.806576 0.545267 0.903562
O O13 0.922066 0.532795 0.807038
#
# Coordination Sequence:
#
# PCOD9563511 Si02
#       7
#    16   8  16  16  16   8  16
#     4  11  24  41  66  96 130 171 217 271 331 400
#     4  10  23  40  64  93 136 168 210 275 336 400
#     4  11  24  42  63  95 130 171 223 274 329 395
#     4  11  23  39  66  91 127 173 215 274 327 395
#     4  10  23  40  62  93 129 172 226 281 330 389
#     4  10  22  40  64  94 126 176 218 270 330 408
#     4  10  22  39  65  91 129 175 219 273 333 393
#
# _framework density 19.317605
#
# number of rings (size 3 to 8) (size 9 to 14) (size 15 to 20)
#    0.000    1.500    0.000    5.250    9.333    1.667 
#    0.000    0.000    0.000    0.250    0.000    0.000 
#    0.000    0.000    0.000    0.000    0.000    0.000 
#
# Total GULP energy -534904.676813 kJ/mol
# GULP energy per Si atom -5571.923717 kJ/mol
# Density = 1.927364 g / cm^3
# Si number density = 19.317605 Si / 1000 Ang^3
#
#
#
# Elastic Constant Matrix: (Units=GPa)
#
#
# Indices 1 2 3 4 5 6 
#
# 1 105.5867 34.4187 40.2014 0.0000 0.0000 0.0000
# 2 34.4187 105.5861 40.2014 0.0000 0.0000 0.0000
# 3 40.2014 40.2014 144.8060 0.0000 0.0000 0.0000
# 4 0.0000 0.0000 0.0000 32.6580 0.0000 0.0000
# 5 0.0000 0.0000 0.0000 0.0000 32.6578 0.0000
# 6 0.0000 0.0000 0.0000 0.0000 0.0000 29.0556
#
#
#
# Elastic Compliance Matrix: (Units=1/GPa)
#
#
# Indices 1 2 3 4 5 6 
#
# 1 0.011274 -0.002777 -0.002359 0.000000 0.000000 0.000000
# 2 -0.002777 0.011274 -0.002359 0.000000 0.000000 0.000000
# 3 -0.002359 -0.002359 0.008216 0.000000 0.000000 0.000000
# 4 0.000000 0.000000 0.000000 0.030620 0.000000 0.000000
# 5 0.000000 0.000000 0.000000 0.000000 0.030621 0.000000
# 6 0.000000 0.000000 0.000000 0.000000 0.000000 0.034417
#
#
# Mechanical properties :
#
#
# Convention : Reuss Voigt Hill
#
# Bulk Modulus (GPa) = 63.39489 65.06910 64.23200
# Shear Modulus (GPa) = 34.09007 34.95143 34.52075
#
# Velocity S-wave (km/s) = 4.20541 4.25821 4.23189
# Velocity P-wave (km/s) = 7.51459 7.61140 7.56315
#
# Compressibility (1/GPa) = 0.01577414
#
# Stress axis : x y z
#
# Youngs Moduli (GPa) = 88.69726 88.69669 121.71894
#
# Poissons Ratio (x) = 0.24631 0.28714
# Poissons Ratio (y) = 0.24631 0.28714
# Poissons Ratio (z) = 0.20924 0.20924
#
# Static dielectric constant tensor:
#      x y z
#    x 1.717150 0.000000 0.000000 
#    y 0.000000 1.717150 0.000000 
#    z 0.000000 0.000000 1.497650 
# 
# From -- ./inp_files/5324.got.cif
#   From: 2010.05.17/outbox.cif.g08.bks.cpg/sg126_3_cif.got.tgz:5324.got - 2010.05.20 11:58:20.
