data_PCOD9563993
_publ_section_title
;
Structure prediction by ZEFSAII (Michael W. Deem and Ramdas Pophale) SiO2 
 PCOD9563993
Probable space group: P 4/M B M
;
_chemical_formula_sum "Si O2"
_cell_formula_units_Z 72
_cell_length_a 20.815191
_cell_length_b 20.815191
_cell_length_c 7.332130
_cell_angle_alpha 90.000000
_cell_angle_beta 90.000000
_cell_angle_gamma 90.000000
_cell_volume 3176.807923
_symmetry_space_group_name_H-M "P 4/M B M"
_symmetry_group_IT_number 127
_symmetry_cell_setting 'tetragonal'
loop_
_space_group_symop_operation_xyz
x,y,z
-y,x,z
-x,-y,z
y,-x,z
1/2+x,1/2-y,-z
1/2-x,1/2+y,-z
1/2+y,1/2+x,-z
1/2-y,1/2-x,-z
-x,-y,-z
y,-x,-z
x,y,-z
-y,x,-z
1/2-x,1/2+y,z
1/2+x,1/2-y,z
1/2-y,1/2-x,z
1/2+y,1/2+x,z
loop_
_atom_site_type_symbol
_atom_site_label
_atom_site_fract_x
_atom_site_fract_y
_atom_site_fract_z
Si Si1 0.339954 0.160047 0.722744
Si Si2 0.585199 0.557272 0.780163
Si Si3 0.986321 0.315316 0.722083
Si Si4 0.404474 0.724704 0.289661
Si Si5 0.765471 0.734530 0.275808
Si Si6 0.052355 0.447646 0.278692
O O1 0.340494 0.159507 0.500000
O O2 0.321669 0.087569 0.782448
O O3 0.287348 0.212653 0.779497
O O4 0.517187 0.586151 0.720578
O O5 0.648197 0.593007 0.717352
O O6 0.585203 0.557722 0.000000
O O7 0.982182 0.314874 0.500000
O O8 0.029223 0.254845 0.783907
O O9 0.027576 0.377906 0.777258
O O10 0.403180 0.745761 0.500000
O O11 0.337069 0.748311 0.212306
O O12 0.764612 0.735389 0.500000
O O13 0.053223 0.446778 0.500000
O O14 0.000000 0.500000 0.222064
#
# Coordination Sequence:
#
# PCOD9563993 Si02
#       6
#     8  16  16  16   8   8
#     4   9  16  26  40  61  97 137 163 195 253 307
#     4   9  20  39  58  75  99 133 173 219 269 314
#     4   9  16  25  40  66  96 130 168 204 244 296
#     4  10  20  32  52  79 107 138 172 211 258 313
#     4   9  19  32  43  67 113 145 157 200 271 318
#     4   9  13  21  37  58  93 134 170 203 238 288
#
# _framework density 22.664259999999999
#
# number of rings (size 3 to 8) (size 9 to 14) (size 15 to 20)
#    0.000    2.778    1.111    1.333    3.111    3.556 
#    0.000    1.667    0.000    0.000    0.000    0.778 
#    0.000    0.889    0.000    0.000    0.000    0.000 
#
# Total GULP energy -402087.901366 kJ/mol
# GULP energy per Si atom -5584.554186 kJ/mol
# Density = 2.261267 g / cm^3
# Si number density = 22.664260 Si / 1000 Ang^3
#
#
#
# Elastic Constant Matrix: (Units=GPa)
#
#
# Indices 1 2 3 4 5 6 
#
# 1 117.0608 82.8187 3.6263 0.0000 0.0000 0.0000
# 2 82.8187 117.0604 3.6263 0.0000 0.0000 0.0000
# 3 3.6263 3.6263 84.3463 0.0000 0.0000 0.0000
# 4 0.0000 0.0000 0.0000 -5.0639 0.0000 0.0000
# 5 0.0000 0.0000 0.0000 0.0000 -5.0638 0.0000
# 6 0.0000 0.0000 0.0000 0.0000 0.0000 38.2251
#
#
#
# Elastic Compliance Matrix: (Units=1/GPa)
#
#
# Indices 1 2 3 4 5 6 
#
# 1 0.017107 -0.012097 -0.000215 0.000000 0.000000 0.000000
# 2 -0.012097 0.017107 -0.000215 0.000000 0.000000 0.000000
# 3 -0.000215 -0.000215 0.011874 0.000000 0.000000 0.000000
# 4 0.000000 0.000000 0.000000 -0.197476 0.000000 0.000000
# 5 0.000000 0.000000 0.000000 0.000000 -0.197479 0.000000
# 6 0.000000 0.000000 0.000000 0.000000 0.000000 0.026161
#
#
# Mechanical properties :
#
#
# Convention : Reuss Voigt Hill
#
# Bulk Modulus (GPa) = 47.54127 55.40111 51.47119
# Shear Modulus (GPa) = -17.20355 20.84588 1.82116
#
# Velocity S-wave (km/s) = -2.75809 3.03606 0.89738
# Velocity P-wave (km/s) = 3.29834 6.06527 4.88194
#
# Compressibility (1/GPa) = 0.02103436
#
# Stress axis : x y z
#
# Youngs Moduli (GPa) = 58.45427 58.45407 84.21473
#
# Poissons Ratio (x) = 0.70709 0.01814
# Poissons Ratio (y) = 0.70710 0.01814
# Poissons Ratio (z) = 0.01259 0.01259
#
# Static dielectric constant tensor:
#      x y z
#    x 1.800080 0.000000 0.000000 
#    y 0.000000 1.800080 0.000000 
#    z 0.000000 0.000000 1.896270 
# 
# From -- ./inp_files/1610.got.cif
#   From: 2010.05.17/outbox.cif.g08.bks.cpg/sg127_1_cif.got.tgz:1610.got - 2010.05.20 12:03:00.
