data_PCOD9563877
_publ_section_title
;
Structure prediction by ZEFSAII (Michael W. Deem and Ramdas Pophale) SiO2 
 PCOD9563877
Probable space group: P 4/M B M
;
_chemical_formula_sum "Si O2"
_cell_formula_units_Z 96
_cell_length_a 25.021080
_cell_length_b 25.021080
_cell_length_c 8.159025
_cell_angle_alpha 90.000000
_cell_angle_beta 90.000000
_cell_angle_gamma 90.000000
_cell_volume 5107.993863
_symmetry_space_group_name_H-M "P 4/M B M"
_symmetry_group_IT_number 127
_symmetry_cell_setting 'tetragonal'
loop_
_space_group_symop_operation_xyz
x,y,z
-y,x,z
-x,-y,z
y,-x,z
1/2+x,1/2-y,-z
1/2-x,1/2+y,-z
1/2+y,1/2+x,-z
1/2-y,1/2-x,-z
-x,-y,-z
y,-x,-z
x,y,-z
-y,x,-z
1/2-x,1/2+y,z
1/2+x,1/2-y,z
1/2-y,1/2-x,z
1/2+y,1/2+x,z
loop_
_atom_site_type_symbol
_atom_site_label
_atom_site_fract_x
_atom_site_fract_y
_atom_site_fract_z
Si Si1 0.143659 0.271599 0.800304
Si Si2 0.645914 0.349851 0.801648
Si Si3 0.935980 0.350876 0.305571
Si Si4 0.858940 0.556877 0.802159
Si Si5 0.059912 0.062053 0.302497
Si Si6 0.766687 0.351825 0.805069
O O1 0.198872 0.301129 0.749597
O O2 0.134838 0.211053 0.746275
O O3 0.095336 0.310290 0.750277
O O4 0.144835 0.270862 0.000000
O O5 0.602793 0.393639 0.748433
O O6 0.706707 0.359907 0.742595
O O7 0.645610 0.350434 0.000000
O O8 0.930272 0.344999 0.500000
O O9 0.904640 0.404640 0.254413
O O10 0.904042 0.302232 0.224583
O O11 0.997517 0.353314 0.261020
O O12 0.913210 0.586791 0.749787
O O13 0.858492 0.555682 0.000000
O O14 0.059014 0.061128 0.500000
O O15 0.998711 0.073598 0.247296
O O16 0.801442 0.301442 0.738726
O O17 0.761888 0.342937 0.000000
#
# Coordination Sequence:
#
# PCOD9563877 Si02
#       6
#    16  16  16  16  16  16
#     4   8  15  30  51  75 104 133 160 196 245 298
#     4  10  19  31  54  84 104 124 161 206 248 292
#     4  10  21  35  50  70  99 135 172 212 255 293
#     4   9  18  33  53  75 100 133 170 208 252 302
#     4   9  20  39  56  69  95 136 172 201 241 295
#     4   9  18  33  52  74 102 134 165 199 243 297
#
# _framework density 18.794072
#
# number of rings (size 3 to 8) (size 9 to 14) (size 15 to 20)
#    0.000    2.833    0.000    2.500    0.000    6.333 
#    0.000    8.333    0.000    2.500    0.000    0.000 
#    0.000    0.000    0.000    0.000    0.000    0.000 
#
# Total GULP energy -535157.716094 kJ/mol
# GULP energy per Si atom -5574.559543 kJ/mol
# Density = 1.875130 g / cm^3
# Si number density = 18.794072 Si / 1000 Ang^3
#
#
#
# Elastic Constant Matrix: (Units=GPa)
#
#
# Indices 1 2 3 4 5 6 
#
# 1 159.4988 97.4862 11.2367 0.0000 0.0000 0.0000
# 2 97.4862 159.4988 11.2367 0.0000 0.0000 0.0000
# 3 11.2367 11.2367 8.6904 0.0000 0.0000 0.0000
# 4 0.0000 0.0000 0.0000 -15.0260 0.0000 0.0000
# 5 0.0000 0.0000 0.0000 0.0000 -15.0260 0.0000
# 6 0.0000 0.0000 0.0000 0.0000 0.0000 20.6516
#
#
#
# Elastic Compliance Matrix: (Units=1/GPa)
#
#
# Indices 1 2 3 4 5 6 
#
# 1 0.010257 -0.005869 -0.005673 0.000000 0.000000 0.000000
# 2 -0.005869 0.010257 -0.005673 0.000000 0.000000 0.000000
# 3 -0.005673 -0.005673 0.129739 0.000000 0.000000 0.000000
# 4 0.000000 0.000000 0.000000 -0.066551 0.000000 0.000000
# 5 0.000000 0.000000 0.000000 0.000000 -0.066551 0.000000
# 6 0.000000 0.000000 0.000000 0.000000 0.000000 0.048422
#
#
# Mechanical properties :
#
#
# Convention : Reuss Voigt Hill
#
# Bulk Modulus (GPa) = 8.63389 63.06748 35.85068
# Shear Modulus (GPa) = 36.07240 11.96846 24.02043
#
# Velocity S-wave (km/s) = 4.38579 2.52627 3.57891
# Velocity P-wave (km/s) = 5.50007 6.49148 6.01623
#
# Compressibility (1/GPa) = 0.11582268
#
# Stress axis : x y z
#
# Youngs Moduli (GPa) = 97.49856 97.49856 7.70776
#
# Poissons Ratio (x) = 0.57224 0.04373
# Poissons Ratio (y) = 0.57224 0.04373
# Poissons Ratio (z) = 0.55310 0.55310
#
# Static dielectric constant tensor:
#      x y z
#    x 1.641810 0.000000 0.000000 
#    y 0.000000 1.641810 0.000000 
#    z 0.000000 0.000000 1.671860 
# 
# From -- ./inp_files/1933.got.cif
#   From: 2010.05.17/outbox.cif.g08.bks.cpg/sg127_1_cif.got.tgz:1933.got - 2010.05.20 12:03:00.
