data_PCOD9563646
_publ_section_title
;
Structure prediction by ZEFSAII (Michael W. Deem and Ramdas Pophale) SiO2 
 PCOD9563646
Probable space group: P 4/N N C
;
_chemical_formula_sum "Si O2"
_cell_formula_units_Z 76
_cell_length_a 11.767696
_cell_length_b 11.767696
_cell_length_c 27.066190
_cell_angle_alpha 90.000000
_cell_angle_beta 90.000000
_cell_angle_gamma 90.000000
_cell_volume 3748.089970
_symmetry_space_group_name_H-M "P 4/N N C"
_symmetry_group_IT_number 126
_space_group.IT_coordinate_system_code '2'
_symmetry_cell_setting 'tetragonal'
loop_
_space_group_symop_operation_xyz
x,y,z
1/2-y,x,z
1/2-x,1/2-y,z
y,1/2-x,z
x,1/2-y,1/2-z
1/2-x,y,1/2-z
y,x,1/2-z
1/2-y,1/2-x,1/2-z
-x,-y,-z
1/2+y,-x,-z
1/2+x,1/2+y,-z
-y,1/2+x,-z
-x,1/2+y,1/2+z
1/2+x,-y,1/2+z
-y,-x,1/2+z
1/2+y,1/2+x,1/2+z
loop_
_atom_site_type_symbol
_atom_site_label
_atom_site_fract_x
_atom_site_fract_y
_atom_site_fract_z
Si Si1 0.834578 0.078181 0.993449
Si Si2 0.509154 0.271960 0.385802
Si Si3 0.598356 0.021318 0.404680
Si Si4 0.547117 0.169451 0.649304
Si Si5 0.750000 0.750000 0.860498
Si Si6 0.250000 0.442329 0.750000
O O1 0.832623 0.021220 0.939625
O O2 0.702014 0.105536 0.006205
O O3 0.892382 0.003111 0.036330
O O4 0.536669 0.140417 0.394562
O O5 0.603886 0.333403 0.352409
O O6 0.385230 0.285137 0.363647
O O7 0.726835 0.043339 0.388182
O O8 0.543899 0.922378 0.371589
O O9 0.516554 0.225324 0.701647
O O10 0.141372 0.358629 0.750000
#
# Coordination Sequence:
#
# PCOD9563646 Si02
#       6
#    16  16  16  16   4   8
#     4   9  18  35  61  92 136 189 234 280 336 414
#     4  11  23  42  65  96 143 188 237 281 347 415
#     4  11  23  39  66  99 134 186 234 284 348 418
#     4  12  23  42  70  99 136 178 227 293 358 417
#     4  12  24  40  64 100 133 192 224 293 336 408
#     4  11  24  44  71  96 132 169 218 289 364 420
#
# _framework density 20.276994999999999
#
# number of rings (size 3 to 8) (size 9 to 14) (size 15 to 20)
#    0.000    1.158    6.316    0.632    0.000    2.947 
#    0.000    2.105    0.000    0.000    0.000    1.474 
#    0.000    0.000    0.000    0.000    0.000    0.000 
#
# Total GULP energy -423442.675071 kJ/mol
# GULP energy per Si atom -5571.614146 kJ/mol
# Density = 2.023084 g / cm^3
# Si number density = 20.276995 Si / 1000 Ang^3
#
#
#
# Elastic Constant Matrix: (Units=GPa)
#
#
# Indices 1 2 3 4 5 6 
#
# 1 88.4462 8.8437 23.1993 0.0000 0.0000 0.0000
# 2 8.8437 88.4462 23.1994 0.0000 0.0000 0.0000
# 3 23.1993 23.1994 119.1229 0.0000 0.0000 0.0000
# 4 0.0000 0.0000 0.0000 24.4461 0.0000 0.0000
# 5 0.0000 0.0000 0.0000 0.0000 24.4463 0.0000
# 6 0.0000 0.0000 0.0000 0.0000 0.0000 36.2181
#
#
#
# Elastic Compliance Matrix: (Units=1/GPa)
#
#
# Indices 1 2 3 4 5 6 
#
# 1 0.011947 -0.000616 -0.002207 0.000000 0.000000 0.000000
# 2 -0.000616 0.011947 -0.002207 0.000000 0.000000 0.000000
# 3 -0.002207 -0.002207 0.009254 0.000000 0.000000 0.000000
# 4 0.000000 0.000000 0.000000 0.040906 0.000000 0.000000
# 5 0.000000 0.000000 0.000000 0.000000 0.040906 0.000000
# 6 0.000000 0.000000 0.000000 0.000000 0.000000 0.027611
#
#
# Mechanical properties :
#
#
# Convention : Reuss Voigt Hill
#
# Bulk Modulus (GPa) = 43.31018 45.16669 44.23844
# Shear Modulus (GPa) = 31.18661 33.07362 32.13011
#
# Velocity S-wave (km/s) = 3.92603 4.04306 3.98497
# Velocity P-wave (km/s) = 6.47744 6.64216 6.56032
#
# Compressibility (1/GPa) = 0.02308926
#
# Stress axis : x y z
#
# Youngs Moduli (GPa) = 83.70522 83.70510 108.05887
#
# Poissons Ratio (x) = 0.05154 0.23845
# Poissons Ratio (y) = 0.05154 0.23846
# Poissons Ratio (z) = 0.18471 0.18471
#
# Static dielectric constant tensor:
#      x y z
#    x 1.727560 0.000000 0.000000 
#    y 0.000000 1.727560 0.000000 
#    z 0.000000 0.000000 1.760800 
# 
# From -- ./inp_files/6460.got.cif
#   From: 2010.05.17/outbox.cif.g08.bks.cpg/sg126_4_cif.got.tgz:6460.got - 2010.05.20 11:58:20.
