data_PCOD9563139
_publ_section_title
;
Structure prediction by ZEFSAII (Michael W. Deem and Ramdas Pophale) SiO2 
 PCOD9563139
Probable space group: P 4/N B M
;
_chemical_formula_sum "Si O2"
_cell_formula_units_Z 72
_cell_length_a 14.418553
_cell_length_b 14.418553
_cell_length_c 17.206984
_cell_angle_alpha 90.000000
_cell_angle_beta 90.000000
_cell_angle_gamma 90.000000
_cell_volume 3577.240271
_symmetry_space_group_name_H-M "P 4/N B M"
_symmetry_group_IT_number 125
_space_group.IT_coordinate_system_code '2'
_symmetry_cell_setting 'tetragonal'
loop_
_space_group_symop_operation_xyz
x,y,z
1/2-y,x,z
1/2-x,1/2-y,z
y,1/2-x,z
x,1/2-y,-z
1/2-x,y,-z
y,x,-z
1/2-y,1/2-x,-z
-x,-y,-z
1/2+y,-x,-z
1/2+x,1/2+y,-z
-y,1/2+x,-z
-x,1/2+y,z
1/2+x,-y,z
-y,-x,z
1/2+y,1/2+x,z
loop_
_atom_site_type_symbol
_atom_site_label
_atom_site_fract_x
_atom_site_fract_y
_atom_site_fract_z
Si Si1 0.750000 0.005246 0.500000
Si Si2 0.699442 0.897008 0.642120
Si Si3 0.506229 0.851727 0.037046
Si Si4 0.828626 0.171375 0.596943
Si Si5 0.827161 0.327161 0.217754
Si Si6 0.816139 0.472823 0.791053
O O1 0.801069 0.074607 0.558939
O O2 0.687918 0.944551 0.558001
O O3 0.636484 0.806047 0.646465
O O4 0.682930 0.964596 0.714617
O O5 0.522742 0.843839 0.129576
O O6 0.411442 0.911442 0.026464
O O7 0.498673 0.750000 0.000000
O O8 0.588644 0.911357 0.000000
O O9 0.750000 0.250000 0.581405
O O10 0.833586 0.166415 0.689179
O O11 0.750000 0.250000 0.195557
O O12 0.784084 0.424810 0.192878
O O13 0.889326 0.389326 0.777367
#
# Coordination Sequence:
#
# PCOD9563139 Si02
#       6
#     8  16  16   8   8  16
#     4  12  21  39  62  88 122 172 214 259 317 380
#     4  11  26  45  62  85 126 175 215 262 323 384
#     4  10  24  44  67 100 138 173 217 273 330 400
#     4  11  20  34  62  94 133 164 202 274 336 368
#     4   9  18  36  63  95 129 161 206 267 324 377
#     4  10  22  42  68  99 128 164 213 265 325 387
#
# _framework density 20.127247000000001
#
# number of rings (size 3 to 8) (size 9 to 14) (size 15 to 20)
#    0.000    1.556    3.333    0.667    6.222    1.333 
#    4.000    1.111    0.000    0.000    0.000    0.000 
#    0.000    0.000    0.000    0.000    0.000    0.000 
#
# Total GULP energy -402060.811234 kJ/mol
# GULP energy per Si atom -5584.177934 kJ/mol
# Density = 2.008144 g / cm^3
# Si number density = 20.127247 Si / 1000 Ang^3
#
#
#
# Elastic Constant Matrix: (Units=GPa)
#
#
# Indices 1 2 3 4 5 6 
#
# 1 94.7318 30.4399 54.4498 0.0000 0.0000 0.0000
# 2 30.4399 94.7300 54.4506 0.0000 0.0000 0.0000
# 3 54.4498 54.4506 121.4982 0.0000 0.0000 0.0000
# 4 0.0000 0.0000 0.0000-1567.1383 0.0000 0.0000
# 5 0.0000 0.0000 0.0000 0.0000-1568.8855 0.0000
# 6 0.0000 0.0000 0.0000 0.0000 0.0000 8.9525
#
#
#
# Elastic Compliance Matrix: (Units=1/GPa)
#
#
# Indices 1 2 3 4 5 6 
#
# 1 0.014324 -0.001230 -0.005868 0.000000 0.000000 0.000000
# 2 -0.001230 0.014325 -0.005869 0.000000 0.000000 0.000000
# 3 -0.005868 -0.005869 0.013491 0.000000 0.000000 0.000000
# 4 0.000000 0.000000 0.000000 -0.000638 0.000000 0.000000
# 5 0.000000 0.000000 0.000000 0.000000 -0.000637 0.000000
# 6 0.000000 0.000000 0.000000 0.000000 0.000000 0.111700
#
#
# Mechanical properties :
#
#
# Convention : Reuss Voigt Hill
#
# Bulk Modulus (GPa) = 61.70516 65.51565 63.61040
# Shear Modulus (GPa) = 27.18872 -613.97293 -293.39210
#
# Velocity S-wave (km/s) = 3.67937 -17.48450 -12.08657
# Velocity P-wave (km/s) = 6.98387 19.36464 12.77135
#
# Compressibility (1/GPa) = 0.01620610
#
# Stress axis : x y z
#
# Youngs Moduli (GPa) = 69.81161 69.80908 74.12567
#
# Poissons Ratio (x) = 0.08585 0.43499
# Poissons Ratio (y) = 0.08585 0.43502
# Poissons Ratio (z) = 0.40968 0.40969
#
# Static dielectric constant tensor:
#      x y z
#    x 1.727850 0.000000 0.000000 
#    y 0.000000 1.727850 0.000000 
#    z 0.000000 0.000000 1.700040 
# 
# From -- ./inp_files/5366.got.cif
#   From: 2010.05.17/outbox.cif.g08.bks.cpg/sg125_3_cif.got.tgz:5366.got - 2010.05.20 11:54:10.
