data_PCOD9563300
_publ_section_title
;
Structure prediction by ZEFSAII (Michael W. Deem and Ramdas Pophale) SiO2 
 PCOD9563300
Probable space group: P 4/N N C
;
_chemical_formula_sum "Si O2"
_cell_formula_units_Z 56
_cell_length_a 13.169813
_cell_length_b 13.169813
_cell_length_c 14.597532
_cell_angle_alpha 90.000000
_cell_angle_beta 90.000000
_cell_angle_gamma 90.000000
_cell_volume 2531.853967
_symmetry_space_group_name_H-M "P 4/N N C"
_symmetry_group_IT_number 126
_space_group.IT_coordinate_system_code '2'
_symmetry_cell_setting 'tetragonal'
loop_
_space_group_symop_operation_xyz
x,y,z
1/2-y,x,z
1/2-x,1/2-y,z
y,1/2-x,z
x,1/2-y,1/2-z
1/2-x,y,1/2-z
y,x,1/2-z
1/2-y,1/2-x,1/2-z
-x,-y,-z
1/2+y,-x,-z
1/2+x,1/2+y,-z
-y,1/2+x,-z
-x,1/2+y,1/2+z
1/2+x,-y,1/2+z
-y,-x,1/2+z
1/2+y,1/2+x,1/2+z
loop_
_atom_site_type_symbol
_atom_site_label
_atom_site_fract_x
_atom_site_fract_y
_atom_site_fract_z
Si Si1 0.327971 0.397061 0.053437
Si Si2 0.924666 0.575335 0.750000
Si Si3 0.370385 0.639866 0.230849
Si Si4 0.114766 0.663979 0.976588
O O1 0.208811 0.382283 0.033398
O O2 0.349047 0.410470 0.163616
O O3 0.360202 0.498540 0.999485
O O4 0.911521 0.459124 0.781478
O O5 0.414932 0.750000 0.250000
O O6 0.250000 0.642770 0.250000
O O7 0.383797 0.626629 0.122947
O O8 0.128338 0.786947 0.967194
#
# Coordination Sequence:
#
# PCOD9563300 Si02
#       4
#    16   8  16  16
#     4  10  20  33  51  78 109 139 175 223 278 332
#     4  10  18  31  54  81 106 138 176 224 282 323
#     4  10  19  33  55  80 108 139 183 231 269 320
#     4  10  20  34  52  76 107 145 184 222 270 330
#
# _framework density 22.118181
#
# number of rings (size 3 to 8) (size 9 to 14) (size 15 to 20)
#    0.000    2.000    0.000    7.714    0.000    2.286 
#    0.000    2.857    0.000    0.429    0.000    0.000 
#    0.000    0.000    0.000    1.143    0.000    0.000 
#
# Total GULP energy -312356.233584 kJ/mol
# GULP energy per Si atom -5577.789885 kJ/mol
# Density = 2.206784 g / cm^3
# Si number density = 22.118181 Si / 1000 Ang^3
#
#
#
# Elastic Constant Matrix: (Units=GPa)
#
#
# Indices 1 2 3 4 5 6 
#
# 1 116.7531 29.3124 2.4080 0.0000 0.0000 0.0000
# 2 29.3124 116.7515 2.4081 0.0000 0.0000 0.0000
# 3 2.4080 2.4081 27.8060 0.0000 0.0000 0.0000
# 4 0.0000 0.0000 0.0000 12.1713 0.0000 0.0000
# 5 0.0000 0.0000 0.0000 0.0000 12.1709 0.0000
# 6 0.0000 0.0000 0.0000 0.0000 0.0000 6.2970
#
#
#
# Elastic Compliance Matrix: (Units=1/GPa)
#
#
# Indices 1 2 3 4 5 6 
#
# 1 0.009151 -0.002285 -0.000595 0.000000 0.000000 0.000000
# 2 -0.002285 0.009151 -0.000595 0.000000 0.000000 0.000000
# 3 -0.000595 -0.000595 0.036066 0.000000 0.000000 0.000000
# 4 0.000000 0.000000 0.000000 0.082161 0.000000 0.000000
# 5 0.000000 0.000000 0.000000 0.000000 0.082163 0.000000
# 6 0.000000 0.000000 0.000000 0.000000 0.000000 0.158806
#
#
# Mechanical properties :
#
#
# Convention : Reuss Voigt Hill
#
# Bulk Modulus (GPa) = 21.08821 36.61862 28.85341
# Shear Modulus (GPa) = 12.49205 21.27330 16.88267
#
# Velocity S-wave (km/s) = 2.37910 3.10466 2.76577
# Velocity P-wave (km/s) = 4.13544 5.42620 4.82419
#
# Compressibility (1/GPa) = 0.04741986
#
# Stress axis : x y z
#
# Youngs Moduli (GPa) = 109.27651 109.27505 27.72658
#
# Poissons Ratio (x) = 0.24972 0.01649
# Poissons Ratio (y) = 0.24973 0.01649
# Poissons Ratio (z) = 0.06497 0.06498
#
# Static dielectric constant tensor:
#      x y z
#    x 1.853470 0.000000 0.000000 
#    y 0.000000 1.853470 0.000000 
#    z 0.000000 0.000000 1.824570 
# 
# From -- ./inp_files/4224.got.cif
#   From: 2010.05.17/outbox.cif.g08.bks.cpg/sg126_3_cif.got.tgz:4224.got - 2010.05.20 11:58:20.
