data_PCOD9563980
_publ_section_title
;
Structure prediction by ZEFSAII (Michael W. Deem and Ramdas Pophale) SiO2 
 PCOD9563980
Probable space group: P 4/M B M
;
_chemical_formula_sum "Si O2"
_cell_formula_units_Z 104
_cell_length_a 20.262588
_cell_length_b 20.262588
_cell_length_c 15.824972
_cell_angle_alpha 90.000000
_cell_angle_beta 90.000000
_cell_angle_gamma 90.000000
_cell_volume 6497.297881
_symmetry_space_group_name_H-M "P 4/M B M"
_symmetry_group_IT_number 127
_symmetry_cell_setting 'tetragonal'
loop_
_space_group_symop_operation_xyz
x,y,z
-y,x,z
-x,-y,z
y,-x,z
1/2+x,1/2-y,-z
1/2-x,1/2+y,-z
1/2+y,1/2+x,-z
1/2-y,1/2-x,-z
-x,-y,-z
y,-x,-z
x,y,-z
-y,x,-z
1/2-x,1/2+y,z
1/2+x,1/2-y,z
1/2-y,1/2-x,z
1/2+y,1/2+x,z
loop_
_atom_site_type_symbol
_atom_site_label
_atom_site_fract_x
_atom_site_fract_y
_atom_site_fract_z
Si Si1 0.099557 0.295062 0.601896
Si Si2 0.889530 0.995498 0.500000
Si Si3 0.540234 0.333477 0.668110
Si Si4 0.907700 0.154072 0.261823
Si Si5 0.086931 0.069998 0.097779
Si Si6 0.366185 0.031849 0.401071
Si Si7 0.640803 0.749826 0.404111
O O1 0.093922 0.283962 0.500000
O O2 0.167838 0.332163 0.617219
O O3 0.088395 0.227085 0.650229
O O4 0.039118 0.342614 0.629858
O O5 0.845310 0.999898 0.417676
O O6 0.934510 0.061224 0.500000
O O7 0.482827 0.321064 0.734573
O O8 0.582653 0.397036 0.693582
O O9 0.894375 0.135208 0.164557
O O10 0.867386 0.203018 0.323066
O O11 0.009729 0.088888 0.110491
O O12 0.103342 0.083350 0.000000
O O13 0.381399 0.021256 0.500000
O O14 0.428689 0.071312 0.363422
O O15 0.303897 0.081806 0.398777
O O16 0.637645 0.719281 0.500000
O O17 0.708112 0.791889 0.400672
#
# Coordination Sequence:
#
# PCOD9563980 Si02
#       7
#    16   8  16  16  16  16  16
#     4  10  20  32  45  62  90 129 172 210 246 288
#     4  11  22  32  41  60  92 131 163 204 242 284
#     4  12  23  31  44  66  96 128 168 202 246 286
#     4  12  22  32  51  72  97 129 167 207 244 298
#     4   9  18  34  53  75 103 127 155 204 261 313
#     4   8  14  27  46  64  84 115 160 208 250 285
#     4   9  19  33  48  68  97 138 176 202 240 296
#
# _framework density 16.006654000000001
#
# number of rings (size 3 to 8) (size 9 to 14) (size 15 to 20)
#    0.000    1.923    5.385    1.385    2.154    1.231 
#    0.000    3.077    0.000    0.462    0.000    0.000 
#    0.000    0.615    0.000    0.000    0.000    5.231 
#
# Total GULP energy -579259.993081 kJ/mol
# GULP energy per Si atom -5569.807626 kJ/mol
# Density = 1.597022 g / cm^3
# Si number density = 16.006654 Si / 1000 Ang^3
#
#
#
# Elastic Constant Matrix: (Units=GPa)
#
#
# Indices 1 2 3 4 5 6 
#
# 1 49.2512 17.1812 18.8994 0.0000 0.0000 0.0000
# 2 17.1812 49.2512 18.8994 0.0000 0.0000 0.0000
# 3 18.8994 18.8994 91.0232 0.0000 0.0000 0.0000
# 4 0.0000 0.0000 0.0000 15.6323 0.0000 0.0000
# 5 0.0000 0.0000 0.0000 0.0000 15.6323 0.0000
# 6 0.0000 0.0000 0.0000 0.0000 0.0000 25.4476
#
#
#
# Elastic Compliance Matrix: (Units=1/GPa)
#
#
# Indices 1 2 3 4 5 6 
#
# 1 0.024126 -0.007056 -0.003544 0.000000 0.000000 0.000000
# 2 -0.007056 0.024126 -0.003544 0.000000 0.000000 0.000000
# 3 -0.003544 -0.003544 0.012458 0.000000 0.000000 0.000000
# 4 0.000000 0.000000 0.000000 0.063970 0.000000 0.000000
# 5 0.000000 0.000000 0.000000 0.000000 0.063970 0.000000
# 6 0.000000 0.000000 0.000000 0.000000 0.000000 0.039296
#
#
# Mechanical properties :
#
#
# Convention : Reuss Voigt Hill
#
# Bulk Modulus (GPa) = 30.84496 33.27617 32.06056
# Shear Modulus (GPa) = 18.72364 20.31212 19.51788
#
# Velocity S-wave (km/s) = 3.42386 3.56614 3.49572
# Velocity P-wave (km/s) = 5.91120 6.14740 6.03046
#
# Compressibility (1/GPa) = 0.03242021
#
# Stress axis : x y z
#
# Youngs Moduli (GPa) = 41.44966 41.44966 80.26975
#
# Poissons Ratio (x) = 0.29248 0.28449
# Poissons Ratio (y) = 0.29248 0.28449
# Poissons Ratio (z) = 0.14691 0.14691
#
# Static dielectric constant tensor:
#      x y z
#    x 1.574820 0.000000 0.000000 
#    y 0.000000 1.574820 0.000000 
#    z 0.000000 0.000000 1.531780 
# 
# From -- ./inp_files/4577.got.cif
#   From: 2010.05.17/outbox.cif.g08.bks.cpg/sg127_3_cif.got.tgz:4577.got - 2010.05.20 12:03:00.
