data_PCOD9563804
_publ_section_title
;
Structure prediction by ZEFSAII (Michael W. Deem and Ramdas Pophale) SiO2 
 PCOD9563804
Probable space group: P 4/M B M
;
_chemical_formula_sum "Si O2"
_cell_formula_units_Z 58
_cell_length_a 21.623787
_cell_length_b 21.623787
_cell_length_c 7.581338
_cell_angle_alpha 90.000000
_cell_angle_beta 90.000000
_cell_angle_gamma 90.000000
_cell_volume 3544.943918
_symmetry_space_group_name_H-M "P 4/M B M"
_symmetry_group_IT_number 127
_symmetry_cell_setting 'tetragonal'
loop_
_space_group_symop_operation_xyz
x,y,z
-y,x,z
-x,-y,z
y,-x,z
1/2+x,1/2-y,-z
1/2-x,1/2+y,-z
1/2+y,1/2+x,-z
1/2-y,1/2-x,-z
-x,-y,-z
y,-x,-z
x,y,-z
-y,x,-z
1/2-x,1/2+y,z
1/2+x,1/2-y,z
1/2-y,1/2-x,z
1/2+y,1/2+x,z
loop_
_atom_site_type_symbol
_atom_site_label
_atom_site_fract_x
_atom_site_fract_y
_atom_site_fract_z
Si Si1 0.705702 0.695230 0.293813
Si Si2 0.923064 0.576937 0.796413
Si Si3 0.432561 0.778838 0.293854
Si Si4 0.190130 0.980493 0.000000
Si Si5 0.852346 0.881951 0.000000
Si Si6 0.500000 0.000000 0.500000
O O1 0.688927 0.698630 0.500000
O O2 0.743195 0.756806 0.244659
O O3 0.752971 0.637471 0.273680
O O4 0.648404 0.680794 0.169466
O O5 0.934625 0.650065 0.764099
O O6 0.961682 0.538319 0.655102
O O7 0.937766 0.562235 0.000000
O O8 0.449044 0.774003 0.500000
O O9 0.473063 0.734853 0.169334
O O10 0.142996 0.922625 0.000000
O O11 0.155067 0.045060 0.000000
#
# Coordination Sequence:
#
# PCOD9563804 Si02
#       6
#    16   8  16   8   8   2
#     4   9  17  30  56  86 108 129 171 234 296 327
#     4  12  21  35  59  84 115 150 200 235 263 325
#     4  10  18  33  59  86 107 138 181 237 285 321
#     4  10  22  36  56  82 108 149 188 236 288 343
#     4  10  21  35  53  80 113 144 187 230 279 346
#     4  12  26  36  52  82 124 164 178 224 276 326
#
# _framework density 16.361331
#
# number of rings (size 3 to 8) (size 9 to 14) (size 15 to 20)
#    0.000    1.931    4.138    0.621    0.000    1.379 
#    0.000    0.000    6.069    0.000    0.000    7.724 
#    0.000    0.000    0.000    0.000    0.000    0.000 
#
# Total GULP energy -323017.000334 kJ/mol
# GULP energy per Si atom -5569.258626 kJ/mol
# Density = 1.632409 g / cm^3
# Si number density = 16.361331 Si / 1000 Ang^3
#
#
#
# Elastic Constant Matrix: (Units=GPa)
#
#
# Indices 1 2 3 4 5 6 
#
# 1 79.1280 77.4923 54.2096 0.0000 0.0000 0.0000
# 2 77.4923 79.1285 54.2100 0.0000 0.0000 0.0000
# 3 54.2096 54.2100 125.8730 0.0000 0.0000 0.0000
# 4 0.0000 0.0000 0.0000 13.8032 0.0000 0.0000
# 5 0.0000 0.0000 0.0000 0.0000 13.8032 0.0000
# 6 0.0000 0.0000 0.0000 0.0000 0.0000 21.6975
#
#
#
# Elastic Compliance Matrix: (Units=1/GPa)
#
#
# Indices 1 2 3 4 5 6 
#
# 1 0.310190 -0.301093 -0.003917 0.000000 0.000000 0.000000
# 2 -0.301093 0.310189 -0.003919 0.000000 0.000000 0.000000
# 3 -0.003917 -0.003919 0.011319 0.000000 0.000000 0.000000
# 4 0.000000 0.000000 0.000000 0.072447 0.000000 0.000000
# 5 0.000000 0.000000 0.000000 0.000000 0.072447 0.000000
# 6 0.000000 0.000000 0.000000 0.000000 0.000000 0.046088
#
#
# Mechanical properties :
#
#
# Convention : Reuss Voigt Hill
#
# Bulk Modulus (GPa) = 72.24501 72.88371 72.56436
# Shear Modulus (GPa) = 3.45985 16.40863 9.93424
#
# Velocity S-wave (km/s) = 1.45576 3.17028 2.46677
# Velocity P-wave (km/s) = 6.86130 7.61866 7.24988
#
# Compressibility (1/GPa) = 0.01384179
#
# Stress axis : x y z
#
# Youngs Moduli (GPa) = 3.22383 3.22384 88.34651
#
# Poissons Ratio (x) = 0.97067 0.34605
# Poissons Ratio (y) = 0.97067 0.34619
# Poissons Ratio (z) = 0.01263 0.01263
#
# Static dielectric constant tensor:
#      x y z
#    x 1.524600 0.000000 0.000000 
#    y 0.000000 1.524600 0.000000 
#    z 0.000000 0.000000 1.567190 
# 
# From -- ./inp_files/1347.got.cif
#   From: 2010.05.17/outbox.cif.g08.bks.cpg/sg127_1_cif.got.tgz:1347.got - 2010.05.20 12:03:00.
