data_PCOD9563779
_publ_section_title
;
Structure prediction by ZEFSAII (Michael W. Deem and Ramdas Pophale) SiO2 
 PCOD9563779
Probable space group: P 4/M B M
;
_chemical_formula_sum "Si O2"
_cell_formula_units_Z 96
_cell_length_a 23.743687
_cell_length_b 23.743687
_cell_length_c 7.368297
_cell_angle_alpha 90.000000
_cell_angle_beta 90.000000
_cell_angle_gamma 90.000000
_cell_volume 4153.970807
_symmetry_space_group_name_H-M "P 4/M B M"
_symmetry_group_IT_number 127
_symmetry_cell_setting 'tetragonal'
loop_
_space_group_symop_operation_xyz
x,y,z
-y,x,z
-x,-y,z
y,-x,z
1/2+x,1/2-y,-z
1/2-x,1/2+y,-z
1/2+y,1/2+x,-z
1/2-y,1/2-x,-z
-x,-y,-z
y,-x,-z
x,y,-z
-y,x,-z
1/2-x,1/2+y,z
1/2+x,1/2-y,z
1/2-y,1/2-x,z
1/2+y,1/2+x,z
loop_
_atom_site_type_symbol
_atom_site_label
_atom_site_fract_x
_atom_site_fract_y
_atom_site_fract_z
Si Si1 0.344137 0.415263 0.276990
Si Si2 0.054855 0.554855 0.290667
Si Si3 0.778982 0.632614 0.721120
Si Si4 0.648200 0.851801 0.780639
Si Si5 0.429672 0.238625 0.786650
Si Si6 0.146999 0.473470 0.717421
Si Si7 0.958309 0.141121 0.699511
O O1 0.341985 0.415054 0.500000
O O2 0.284434 0.386410 0.220628
O O3 0.402039 0.385452 0.217818
O O4 0.353591 0.479799 0.215887
O O5 0.042280 0.542280 0.500000
O O6 0.103028 0.603028 0.288762
O O7 0.000699 0.588201 0.212984
O O8 0.777707 0.631711 0.500000
O O9 0.807347 0.692654 0.774125
O O10 0.824223 0.584446 0.779178
O O11 0.627715 0.790976 0.726065
O O12 0.644754 0.855247 0.000000
O O13 0.479315 0.193907 0.756711
O O14 0.442142 0.294187 0.682678
O O15 0.426642 0.251259 0.000000
O O16 0.139862 0.468166 0.500000
O O17 0.965703 0.114113 0.500000
#
# Coordination Sequence:
#
# PCOD9563779 Si02
#       7
#    16   8  16   8  16  16  16
#     4   9  18  32  52  76 102 129 162 206 250 299
#     4   8  14  22  39  68  96 122 164 210 244 274
#     4   9  16  28  48  73 103 137 167 198 246 297
#     4   8  16  28  42  65  97 131 168 200 242 297
#     4  10  18  30  49  72  99 134 168 205 251 298
#     4   9  15  27  47  70  98 132 167 207 244 289
#     4  10  19  34  54  76 100 128 162 205 254 298
#
# _framework density 23.110417999999999
#
# number of rings (size 3 to 8) (size 9 to 14) (size 15 to 20)
#    0.000    2.833    1.667    0.500    0.000    1.000 
#    1.500    2.917    0.000    3.000    0.000    1.167 
#    0.000    6.667    0.000    0.000    0.000    0.000 
#
# Total GULP energy -534789.991415 kJ/mol
# GULP energy per Si atom -5570.729077 kJ/mol
# Density = 2.305782 g / cm^3
# Si number density = 23.110418 Si / 1000 Ang^3
#
#
#
# Elastic Constant Matrix: (Units=GPa)
#
#
# Indices 1 2 3 4 5 6 
#
# 1 111.1208 139.9757 12.3833 0.0000 0.0000 0.0000
# 2 139.9757 111.1205 12.3837 0.0000 0.0000 0.0000
# 3 12.3833 12.3837 73.7389 0.0000 0.0000 0.0000
# 4 0.0000 0.0000 0.0000 -2.8360 0.0000 0.0000
# 5 0.0000 0.0000 0.0000 0.0000 -2.8360 0.0000
# 6 0.0000 0.0000 0.0000 0.0000 0.0000 36.6950
#
#
#
# Elastic Compliance Matrix: (Units=1/GPa)
#
#
# Indices 1 2 3 4 5 6 
#
# 1 -0.015303 0.019353 -0.000680 0.000000 0.000000 0.000000
# 2 0.019353 -0.015303 -0.000680 0.000000 0.000000 0.000000
# 3 -0.000680 -0.000680 0.013790 0.000000 0.000000 0.000000
# 4 0.000000 0.000000 0.000000 -0.352609 0.000000 0.000000
# 5 0.000000 0.000000 0.000000 0.000000 -0.352608 0.000000
# 6 0.000000 0.000000 0.000000 0.000000 0.000000 0.027252
#
#
# Mechanical properties :
#
#
# Convention : Reuss Voigt Hill
#
# Bulk Modulus (GPa) = 52.16838 69.49618 60.83228
# Shear Modulus (GPa) = -6.90248 14.95376 4.02564
#
# Velocity S-wave (km/s) = -1.73009 2.54649 1.32125
# Velocity P-wave (km/s) = 4.31643 6.22758 5.35791
#
# Compressibility (1/GPa) = 0.01916870
#
# Stress axis : x y z
#
# Youngs Moduli (GPa) = -65.34607 -65.34583 72.51740
#
# Poissons Ratio (x) = 1.26462 0.04932
# Poissons Ratio (y) = 1.26463 0.04931
# Poissons Ratio (z) = -0.04445 -0.04443
#
# Static dielectric constant tensor:
#      x y z
#    x 1.884670 0.000000 0.000000 
#    y 0.000000 1.884670 0.000000 
#    z 0.000000 0.000000 1.868880 
# 
# From -- ./inp_files/2101.got.cif
#   From: 2010.05.17/outbox.cif.g08.bks.cpg/sg127_2_cif.got.tgz:2101.got - 2010.05.20 12:03:00.
