data_PCOD9563668
_publ_section_title
;
Structure prediction by ZEFSAII (Michael W. Deem and Ramdas Pophale) SiO2 
 PCOD9563668
Probable space group: P 4/N N C
;
_chemical_formula_sum "Si O2"
_cell_formula_units_Z 88
_cell_length_a 11.446774
_cell_length_b 11.446774
_cell_length_c 31.312569
_cell_angle_alpha 90.000000
_cell_angle_beta 90.000000
_cell_angle_gamma 90.000000
_cell_volume 4102.843175
_symmetry_space_group_name_H-M "P 4/N N C"
_symmetry_group_IT_number 126
_space_group.IT_coordinate_system_code '2'
_symmetry_cell_setting 'tetragonal'
loop_
_space_group_symop_operation_xyz
x,y,z
1/2-y,x,z
1/2-x,1/2-y,z
y,1/2-x,z
x,1/2-y,1/2-z
1/2-x,y,1/2-z
y,x,1/2-z
1/2-y,1/2-x,1/2-z
-x,-y,-z
1/2+y,-x,-z
1/2+x,1/2+y,-z
-y,1/2+x,-z
-x,1/2+y,1/2+z
1/2+x,-y,1/2+z
-y,-x,1/2+z
1/2+y,1/2+x,1/2+z
loop_
_atom_site_type_symbol
_atom_site_label
_atom_site_fract_x
_atom_site_fract_y
_atom_site_fract_z
Si Si1 0.614171 0.268901 0.946597
Si Si2 0.696297 0.026201 0.610517
Si Si3 0.109311 0.109311 0.250000
Si Si4 0.514501 0.080806 0.338761
Si Si5 0.217078 0.059978 0.479616
Si Si6 0.430797 0.172248 0.892495
O O1 0.750000 0.250000 0.954737
O O2 0.626224 0.365491 0.909387
O O3 0.534631 0.164037 0.927676
O O4 0.547257 0.308100 0.989066
O O5 0.790179 0.055967 0.647061
O O6 0.598549 0.944877 0.631445
O O7 0.765468 0.973929 0.569759
O O8 0.250000 0.092206 0.250000
O O9 0.036988 0.069932 0.208517
O O10 0.618240 0.991507 0.350578
O O11 0.341929 0.120862 0.488743
O O12 0.393670 0.307825 0.896678
#
# Coordination Sequence:
#
# PCOD9563668 Si02
#       6
#    16  16   8  16  16  16
#     4  12  26  42  66 103 142 194 252 312 369 441
#     4  12  25  41  70 104 151 194 249 310 380 459
#     4  11  24  42  76 117 156 198 242 311 392 478
#     4  12  24  46  73 111 151 192 248 310 388 465
#     4  11  26  44  65  97 144 201 252 308 368 443
#     4  11  24  46  75 104 142 197 248 308 382 457
#
# _framework density 21.448542
#
# number of rings (size 3 to 8) (size 9 to 14) (size 15 to 20)
#    0.000    0.455    7.273    1.091    2.545    2.545 
#    0.000    0.909    0.000    2.182    0.000    0.000 
#    0.000    0.000    0.000    0.000    0.000    0.000 
#
# Total GULP energy -491351.223623 kJ/mol
# GULP energy per Si atom -5583.536632 kJ/mol
# Density = 2.139972 g / cm^3
# Si number density = 21.448542 Si / 1000 Ang^3
#
#
#
# Elastic Constant Matrix: (Units=GPa)
#
#
# Indices 1 2 3 4 5 6 
#
# 1 109.1869 54.9949 50.0871 0.0000 0.0000 0.0000
# 2 54.9949 109.1869 50.0871 0.0000 0.0000 0.0000
# 3 50.0871 50.0871 150.3491 0.0000 0.0000 0.0000
# 4 0.0000 0.0000 0.0000 32.7600 0.0000 0.0000
# 5 0.0000 0.0000 0.0000 0.0000 32.7600 0.0000
# 6 0.0000 0.0000 0.0000 0.0000 0.0000 26.2707
#
#
#
# Elastic Compliance Matrix: (Units=1/GPa)
#
#
# Indices 1 2 3 4 5 6 
#
# 1 0.013049 -0.005404 -0.002547 0.000000 0.000000 0.000000
# 2 -0.005404 0.013049 -0.002547 0.000000 0.000000 0.000000
# 3 -0.002547 -0.002547 0.008348 0.000000 0.000000 0.000000
# 4 0.000000 0.000000 0.000000 0.030525 0.000000 0.000000
# 5 0.000000 0.000000 0.000000 0.000000 0.030525 0.000000
# 6 0.000000 0.000000 0.000000 0.000000 0.000000 0.038065
#
#
# Mechanical properties :
#
#
# Convention : Reuss Voigt Hill
#
# Bulk Modulus (GPa) = 74.34708 75.45125 74.89916
# Shear Modulus (GPa) = 31.43872 32.59505 32.01688
#
# Velocity S-wave (km/s) = 3.83270 3.90254 3.86778
# Velocity P-wave (km/s) = 7.37050 7.45390 7.41232
#
# Compressibility (1/GPa) = 0.01345043
#
# Stress axis : x y z
#
# Youngs Moduli (GPa) = 76.63542 76.63542 119.78883
#
# Poissons Ratio (x) = 0.41415 0.30507
# Poissons Ratio (y) = 0.41415 0.30507
# Poissons Ratio (z) = 0.19517 0.19517
#
# Static dielectric constant tensor:
#      x y z
#    x 1.857420 0.000000 0.000000 
#    y 0.000000 1.857420 0.000000 
#    z 0.000000 0.000000 1.790890 
# 
# From -- ./inp_files/6502.got.cif
#   From: 2010.05.17/outbox.cif.g08.bks.cpg/sg126_4_cif.got.tgz:6502.got - 2010.05.20 11:58:20.
