data_PCOD9563427
_publ_section_title
;
Structure prediction by ZEFSAII (Michael W. Deem and Ramdas Pophale) SiO2 
 PCOD9563427
Probable space group: P 4/N N C
;
_chemical_formula_sum "Si O2"
_cell_formula_units_Z 112
_cell_length_a 13.855837
_cell_length_b 13.855837
_cell_length_c 24.278810
_cell_angle_alpha 90.000000
_cell_angle_beta 90.000000
_cell_angle_gamma 90.000000
_cell_volume 4661.148375
_symmetry_space_group_name_H-M "P 4/N N C"
_symmetry_group_IT_number 126
_space_group.IT_coordinate_system_code '2'
_symmetry_cell_setting 'tetragonal'
loop_
_space_group_symop_operation_xyz
x,y,z
1/2-y,x,z
1/2-x,1/2-y,z
y,1/2-x,z
x,1/2-y,1/2-z
1/2-x,y,1/2-z
y,x,1/2-z
1/2-y,1/2-x,1/2-z
-x,-y,-z
1/2+y,-x,-z
1/2+x,1/2+y,-z
-y,1/2+x,-z
-x,1/2+y,1/2+z
1/2+x,-y,1/2+z
-y,-x,1/2+z
1/2+y,1/2+x,1/2+z
loop_
_atom_site_type_symbol
_atom_site_label
_atom_site_fract_x
_atom_site_fract_y
_atom_site_fract_z
Si Si1 0.397420 0.313999 0.098037
Si Si2 0.928084 0.560447 0.460236
Si Si3 0.652026 0.516804 0.716126
Si Si4 0.101271 0.808934 0.079473
Si Si5 0.305570 0.588310 0.805080
Si Si6 0.463329 0.727917 0.525233
Si Si7 0.323035 0.396599 0.851300
O O1 0.298059 0.370481 0.093477
O O2 0.431443 0.341033 0.158048
O O3 0.485629 0.319897 0.054249
O O4 0.833751 0.551471 0.498569
O O5 0.872691 0.543254 0.401590
O O6 0.000000 0.500000 0.500000
O O7 0.997788 0.645350 0.438281
O O8 0.750000 0.533995 0.750000
O O9 0.562480 0.562480 0.750000
O O10 0.643116 0.405707 0.699359
O O11 0.105996 0.758259 0.139127
O O12 0.174444 0.898710 0.071565
O O13 0.109241 0.737801 0.027071
O O14 0.250000 0.614636 0.750000
O O15 0.331868 0.473875 0.802866
O O16 0.208517 0.372073 0.851999
#
# Coordination Sequence:
#
# PCOD9563427 Si02
#       7
#    16  16  16  16  16  16  16
#     4  11  25  47  80 115 146 188 259 343 418 492
#     4  10  20  41  74 106 154 205 262 324 399 467
#     4  12  29  54  85 114 154 210 269 347 425 491
#     4  11  25  47  70 108 157 212 263 320 388 482
#     4  12  30  50  78 115 163 214 277 329 407 497
#     4  11  24  42  73 114 154 203 257 323 404 485
#     4  11  23  44  75 111 158 213 272 335 394 470
#
# _framework density 24.028411999999999
#
# number of rings (size 3 to 8) (size 9 to 14) (size 15 to 20)
#    0.000    0.857    4.286    0.857    6.000    3.000 
#    0.000    2.143    0.000    0.000    0.000    0.000 
#    0.000    0.000    0.000    0.000    0.000    0.000 
#
# Total GULP energy -623669.725144 kJ/mol
# GULP energy per Si atom -5568.479689 kJ/mol
# Density = 2.397372 g / cm^3
# Si number density = 24.028412 Si / 1000 Ang^3
#
#
#
# Elastic Constant Matrix: (Units=GPa)
#
#
# Indices 1 2 3 4 5 6 
#
# 1 71.9609 3.8647 37.4813 0.0000 0.0000 0.0000
# 2 3.8647 71.9609 37.4813 0.0000 0.0000 0.0000
# 3 37.4813 37.4813 146.5034 0.0000 0.0000 0.0000
# 4 0.0000 0.0000 0.0000 45.6688 0.0000 0.0000
# 5 0.0000 0.0000 0.0000 0.0000 45.6688 0.0000
# 6 0.0000 0.0000 0.0000 0.0000 0.0000 16.1757
#
#
#
# Elastic Compliance Matrix: (Units=1/GPa)
#
#
# Indices 1 2 3 4 5 6 
#
# 1 0.016169 0.001484 -0.004516 0.000000 0.000000 0.000000
# 2 0.001484 0.016169 -0.004516 0.000000 0.000000 0.000000
# 3 -0.004516 -0.004516 0.009137 0.000000 0.000000 0.000000
# 4 0.000000 0.000000 0.000000 0.021897 0.000000 0.000000
# 5 0.000000 0.000000 0.000000 0.000000 0.021897 0.000000
# 6 0.000000 0.000000 0.000000 0.000000 0.000000 0.061821
#
#
# Mechanical properties :
#
#
# Convention : Reuss Voigt Hill
#
# Bulk Modulus (GPa) = 37.91112 49.78663 43.84887
# Shear Modulus (GPa) = 29.24325 35.60917 32.42621
#
# Velocity S-wave (km/s) = 3.49238 3.85380 3.67753
# Velocity P-wave (km/s) = 5.66340 6.36924 6.02667
#
# Compressibility (1/GPa) = 0.02637749
#
# Stress axis : x y z
#
# Youngs Moduli (GPa) = 61.84637 61.84637 109.44880
#
# Poissons Ratio (x) = -0.09178 0.49431
# Poissons Ratio (y) = -0.09178 0.49431
# Poissons Ratio (z) = 0.27932 0.27932
#
# Static dielectric constant tensor:
#      x y z
#    x 2.145510 0.000000 0.000000 
#    y 0.000000 2.145510 0.000000 
#    z 0.000000 0.000000 1.951830 
# 
# From -- ./inp_files/6212.got.cif
#   From: 2010.05.17/outbox.cif.g08.bks.cpg/sg126_4_cif.got.tgz:6212.got - 2010.05.20 11:58:20.
