data_PCOD9563617
_publ_section_title
;
Structure prediction by ZEFSAII (Michael W. Deem and Ramdas Pophale) SiO2 
 PCOD9563617
Probable space group: P 4/N N C
;
_chemical_formula_sum "Si O2"
_cell_formula_units_Z 72
_cell_length_a 10.970735
_cell_length_b 10.970735
_cell_length_c 28.066960
_cell_angle_alpha 90.000000
_cell_angle_beta 90.000000
_cell_angle_gamma 90.000000
_cell_volume 3378.055847
_symmetry_space_group_name_H-M "P 4/N N C"
_symmetry_group_IT_number 126
_space_group.IT_coordinate_system_code '2'
_symmetry_cell_setting 'tetragonal'
loop_
_space_group_symop_operation_xyz
x,y,z
1/2-y,x,z
1/2-x,1/2-y,z
y,1/2-x,z
x,1/2-y,1/2-z
1/2-x,y,1/2-z
y,x,1/2-z
1/2-y,1/2-x,1/2-z
-x,-y,-z
1/2+y,-x,-z
1/2+x,1/2+y,-z
-y,1/2+x,-z
-x,1/2+y,1/2+z
1/2+x,-y,1/2+z
-y,-x,1/2+z
1/2+y,1/2+x,1/2+z
loop_
_atom_site_type_symbol
_atom_site_label
_atom_site_fract_x
_atom_site_fract_y
_atom_site_fract_z
Si Si1 0.696500 0.378040 0.839361
Si Si2 0.250000 0.452940 0.250000
Si Si3 0.556505 0.681455 0.112669
Si Si4 0.551958 0.292794 0.992233
Si Si5 0.722292 0.943131 0.909072
O O1 0.750000 0.250000 0.824856
O O2 0.730651 0.468685 0.797244
O O3 0.554966 0.360374 0.853666
O O4 0.771641 0.425143 0.885636
O O5 0.133342 0.366659 0.250000
O O6 0.677733 0.599341 0.119385
O O7 0.505871 0.673795 0.058411
O O8 0.659044 0.386713 0.006573
O O9 0.454958 0.291810 0.034594
O O10 0.617934 0.850136 0.893617
#
# Coordination Sequence:
#
# PCOD9563617 Si02
#       5
#    16   8  16  16  16
#     4  12  26  45  74 107 139 182 232 288 359 423
#     4  11  27  52  82 112 139 173 224 296 366 421
#     4  11  26  44  67 101 146 195 238 286 349 421
#     4  11  22  37  61  99 141 190 244 293 344 408
#     4  11  24  40  65  99 137 186 241 297 350 404
#
# _framework density 21.314036000000002
#
# number of rings (size 3 to 8) (size 9 to 14) (size 15 to 20)
#    0.000    0.778    2.222    4.333    9.333    5.333 
#    0.000    0.000    0.000    0.000    0.000    0.000 
#    0.000    0.000    0.000    0.000    0.000    0.000 
#
# Total GULP energy -402837.327540 kJ/mol
# GULP energy per Si atom -5594.962882 kJ/mol
# Density = 2.126552 g / cm^3
# Si number density = 21.314036 Si / 1000 Ang^3
#
#
#
# Elastic Constant Matrix: (Units=GPa)
#
#
# Indices 1 2 3 4 5 6 
#
# 1 93.6803 40.7532 50.3052 0.0000 0.0000 0.0000
# 2 40.7532 93.6800 50.3055 0.0000 0.0000 0.0000
# 3 50.3052 50.3055 110.1481 0.0000 0.0000 0.0000
# 4 0.0000 0.0000 0.0000 31.7187 0.0000 0.0000
# 5 0.0000 0.0000 0.0000 0.0000 31.7153 0.0000
# 6 0.0000 0.0000 0.0000 0.0000 0.0000 25.5046
#
#
#
# Elastic Compliance Matrix: (Units=1/GPa)
#
#
# Indices 1 2 3 4 5 6 
#
# 1 0.015098 -0.003796 -0.005161 0.000000 0.000000 0.000000
# 2 -0.003796 0.015098 -0.005162 0.000000 0.000000 0.000000
# 3 -0.005161 -0.005162 0.013793 0.000000 0.000000 0.000000
# 4 0.000000 0.000000 0.000000 0.031527 0.000000 0.000000
# 5 0.000000 0.000000 0.000000 0.000000 0.031531 0.000000
# 6 0.000000 0.000000 0.000000 0.000000 0.000000 0.039209
#
#
# Mechanical properties :
#
#
# Convention : Reuss Voigt Hill
#
# Bulk Modulus (GPa) = 63.49057 64.47067 63.98062
# Shear Modulus (GPa) = 27.81743 28.19736 28.00739
#
# Velocity S-wave (km/s) = 3.61657 3.64118 3.62890
# Velocity P-wave (km/s) = 6.87693 6.92757 6.90230
#
# Compressibility (1/GPa) = 0.01575037
#
# Stress axis : x y z
#
# Youngs Moduli (GPa) = 66.23536 66.23485 72.49928
#
# Poissons Ratio (x) = 0.25144 0.37420
# Poissons Ratio (y) = 0.25144 0.37421
# Poissons Ratio (z) = 0.34187 0.34187
#
# Static dielectric constant tensor:
#      x y z
#    x 1.831440 0.000000 0.000000 
#    y 0.000000 1.831170 0.000000 
#    z 0.000000 0.000000 1.784740 
# 
# From -- ./inp_files/6150.got.cif
#   From: 2010.05.17/outbox.cif.g08.bks.cpg/sg126_4_cif.got.tgz:6150.got - 2010.05.20 11:58:20.
