data_PCOD9563958
_publ_section_title
;
Structure prediction by ZEFSAII (Michael W. Deem and Ramdas Pophale) SiO2 
 PCOD9563958
Probable space group: P 4/M B M
;
_chemical_formula_sum "Si O2"
_cell_formula_units_Z 72
_cell_length_a 21.050197
_cell_length_b 21.050197
_cell_length_c 7.821527
_cell_angle_alpha 90.000000
_cell_angle_beta 90.000000
_cell_angle_gamma 90.000000
_cell_volume 3465.803037
_symmetry_space_group_name_H-M "P 4/M B M"
_symmetry_group_IT_number 127
_symmetry_cell_setting 'tetragonal'
loop_
_space_group_symop_operation_xyz
x,y,z
-y,x,z
-x,-y,z
y,-x,z
1/2+x,1/2-y,-z
1/2-x,1/2+y,-z
1/2+y,1/2+x,-z
1/2-y,1/2-x,-z
-x,-y,-z
y,-x,-z
x,y,-z
-y,x,-z
1/2-x,1/2+y,z
1/2+x,1/2-y,z
1/2-y,1/2-x,z
1/2+y,1/2+x,z
loop_
_atom_site_type_symbol
_atom_site_label
_atom_site_fract_x
_atom_site_fract_y
_atom_site_fract_z
Si Si1 0.000808 0.397906 0.708463
Si Si2 0.519260 0.753500 0.707966
Si Si3 0.336108 0.402620 0.190512
Si Si4 0.165625 0.768446 0.292576
Si Si5 0.572304 0.423630 0.500000
O O1 0.000617 0.397467 0.500000
O O2 0.063535 0.436466 0.762465
O O3 0.940327 0.440327 0.761128
O O4 0.995752 0.325532 0.763092
O O5 0.517626 0.750231 0.500000
O O6 0.463276 0.708293 0.774650
O O7 0.591648 0.737662 0.760498
O O8 0.304989 0.333383 0.218040
O O9 0.390893 0.402037 0.331570
O O10 0.361718 0.407115 0.000000
O O11 0.166801 0.772051 0.500000
O O12 0.207376 0.707376 0.243303
O O13 0.586389 0.497197 0.500000
#
# Coordination Sequence:
#
# PCOD9563958 Si02
#       5
#    16  16  16  16   8
#     4   8  14  26  49  85 123 157 200 253 309 376
#     4  10  19  35  60  89 123 166 214 263 317 383
#     4  12  25  41  63  93 128 166 210 263 323 386
#     4  10  21  39  64  92 125 168 218 271 324 381
#     4  11  24  44  67  90 120 157 203 260 318 380
#
# _framework density 20.774405999999999
#
# number of rings (size 3 to 8) (size 9 to 14) (size 15 to 20)
#    0.000    1.889    2.222    2.667    0.000    7.556 
#    0.000    3.333    0.000    2.000    0.000    1.556 
#    0.000    0.000    0.000    0.000    0.000    0.000 
#
# Total GULP energy -402234.208032 kJ/mol
# GULP energy per Si atom -5586.586223 kJ/mol
# Density = 2.072712 g / cm^3
# Si number density = 20.774406 Si / 1000 Ang^3
#
#
#
# Elastic Constant Matrix: (Units=GPa)
#
#
# Indices 1 2 3 4 5 6 
#
# 1 146.2274 32.0834 23.0764 0.0000 0.0000 0.0000
# 2 32.0834 146.2274 23.0764 0.0000 0.0000 0.0000
# 3 23.0764 23.0764 79.1895 0.0000 0.0000 0.0000
# 4 0.0000 0.0000 0.0000 -42.6355 0.0000 0.0000
# 5 0.0000 0.0000 0.0000 0.0000 -42.6355 0.0000
# 6 0.0000 0.0000 0.0000 0.0000 0.0000-1611.1672
#
#
#
# Elastic Compliance Matrix: (Units=1/GPa)
#
#
# Indices 1 2 3 4 5 6 
#
# 1 0.007413 -0.001348 -0.001768 0.000000 0.000000 0.000000
# 2 -0.001348 0.007413 -0.001768 0.000000 0.000000 0.000000
# 3 -0.001768 -0.001768 0.013658 0.000000 0.000000 0.000000
# 4 0.000000 0.000000 0.000000 -0.023455 0.000000 0.000000
# 5 0.000000 0.000000 0.000000 0.000000 -0.023455 0.000000
# 6 0.000000 0.000000 0.000000 0.000000 0.000000 -0.000621
#
#
# Mechanical properties :
#
#
# Convention : Reuss Voigt Hill
#
# Bulk Modulus (GPa) = 53.42120 58.67961 56.05041
# Shear Modulus (GPa) = -1644.71273 -319.72709 -982.21991
#
# Velocity S-wave (km/s) = -28.16771 -12.41928 -21.76762
# Velocity P-wave (km/s) = 32.12667 13.31705 24.59133
#
# Compressibility (1/GPa) = 0.01871916
#
# Stress axis : x y z
#
# Youngs Moduli (GPa) = 134.89312 134.89312 73.21654
#
# Poissons Ratio (x) = 0.18178 0.12942
# Poissons Ratio (y) = 0.18178 0.12942
# Poissons Ratio (z) = 0.23844 0.23844
#
# Static dielectric constant tensor:
#      x y z
#    x 1.744910 0.000000 0.000000 
#    y 0.000000 1.744910 0.000000 
#    z 0.000000 0.000000 1.508430 
# 
# From -- ./inp_files/1560.got.cif
#   From: 2010.05.17/outbox.cif.g08.bks.cpg/sg127_1_cif.got.tgz:1560.got - 2010.05.20 12:03:00.
