data_PCOD9563690
_publ_section_title
;
Structure prediction by ZEFSAII (Michael W. Deem and Ramdas Pophale) SiO2 
 PCOD9563690
Probable space group: P 4/N N C
;
_chemical_formula_sum "Si O2"
_cell_formula_units_Z 48
_cell_length_a 10.377151
_cell_length_b 10.377151
_cell_length_c 19.028415
_cell_angle_alpha 90.000000
_cell_angle_beta 90.000000
_cell_angle_gamma 90.000000
_cell_volume 2049.079871
_symmetry_space_group_name_H-M "P 4/N N C"
_symmetry_group_IT_number 126
_space_group.IT_coordinate_system_code '2'
_symmetry_cell_setting 'tetragonal'
loop_
_space_group_symop_operation_xyz
x,y,z
1/2-y,x,z
1/2-x,1/2-y,z
y,1/2-x,z
x,1/2-y,1/2-z
1/2-x,y,1/2-z
y,x,1/2-z
1/2-y,1/2-x,1/2-z
-x,-y,-z
1/2+y,-x,-z
1/2+x,1/2+y,-z
-y,1/2+x,-z
-x,1/2+y,1/2+z
1/2+x,-y,1/2+z
-y,-x,1/2+z
1/2+y,1/2+x,1/2+z
loop_
_atom_site_type_symbol
_atom_site_label
_atom_site_fract_x
_atom_site_fract_y
_atom_site_fract_z
Si Si1 0.100836 0.784628 0.324499
Si Si2 0.539968 0.698522 0.042576
Si Si3 0.668040 0.547460 0.614378
O O1 0.250000 0.750000 0.321070
O O2 0.037436 0.750000 0.250000
O O3 0.046946 0.700411 0.389070
O O4 0.105466 0.937897 0.338009
O O5 0.659727 0.602060 0.045509
O O6 0.487135 0.669556 0.964943
O O7 0.818079 0.590122 0.623124
#
# Coordination Sequence:
#
# PCOD9563690 Si02
#       3
#    16  16  16
#     4  11  26  41  58  98 137 172 220 269 328 395
#     4   9  21  41  68 100 128 169 220 269 334 400
#     4   9  21  43  72  99 129 173 226 273 327 393
#
# _framework density 23.425146999999999
#
# number of rings (size 3 to 8) (size 9 to 14) (size 15 to 20)
#    0.000    2.333    0.000    2.000    9.333    4.000 
#    6.000    1.667    0.000    8.000    0.000    0.000 
#    0.000    0.000    0.000    0.000    0.000    0.000 
#
# Total GULP energy -268089.258742 kJ/mol
# GULP energy per Si atom -5585.192890 kJ/mol
# Density = 2.337183 g / cm^3
# Si number density = 23.425147 Si / 1000 Ang^3
#
#
#
# Elastic Constant Matrix: (Units=GPa)
#
#
# Indices 1 2 3 4 5 6 
#
# 1 -130.0041 239.3921 54.7724 0.0000 0.0000 0.0000
# 2 239.3921 -130.0041 54.7724 0.0000 0.0000 0.0000
# 3 54.7724 54.7724 144.6600 0.0000 0.0000 0.0000
# 4 0.0000 0.0000 0.0000 99.0989 0.0000 0.0000
# 5 0.0000 0.0000 0.0000 0.0000 99.0989 0.0000
# 6 0.0000 0.0000 0.0000 0.0000 0.0000 -28.0225
#
#
#
# Elastic Compliance Matrix: (Units=1/GPa)
#
#
# Indices 1 2 3 4 5 6 
#
# 1 0.006009 0.008716 -0.005575 0.000000 0.000000 0.000000
# 2 0.008716 0.006009 -0.005575 0.000000 0.000000 0.000000
# 3 -0.005575 -0.005575 0.011135 0.000000 0.000000 0.000000
# 4 0.000000 0.000000 0.000000 0.010091 0.000000 0.000000
# 5 0.000000 0.000000 0.000000 0.000000 0.010091 0.000000
# 6 0.000000 0.000000 0.000000 0.000000 0.000000 -0.035686
#
#
# Mechanical properties :
#
#
# Convention : Reuss Voigt Hill
#
# Bulk Modulus (GPa) = 54.69392 64.72507 59.70950
# Shear Modulus (GPa) = 268.63409 3.08271 135.85840
#
# Velocity S-wave (km/s) = 10.72038 1.14841 7.62383
# Velocity P-wave (km/s) = 13.29039 5.42670 10.15095
#
# Compressibility (1/GPa) = 0.01828357
#
# Stress axis : x y z
#
# Youngs Moduli (GPa) = 166.41703 166.41703 89.80901
#
# Poissons Ratio (x) = -1.45051 0.50072
# Poissons Ratio (y) = -1.45051 0.50072
# Poissons Ratio (z) = 0.92783 0.92783
#
# Static dielectric constant tensor:
#      x y z
#    x 1.908470 0.000000 0.000000 
#    y 0.000000 1.908470 0.000000 
#    z 0.000000 0.000000 2.058950 
# 
# From -- ./inp_files/4124.got.cif
#   From: 2010.05.17/outbox.cif.g08.bks.cpg/sg126_3_cif.got.tgz:4124.got - 2010.05.20 11:58:20.
