data_PCOD9563310
_publ_section_title
;
Structure prediction by ZEFSAII (Michael W. Deem and Ramdas Pophale) SiO2 
 PCOD9563310
Probable space group: P 4/N N C
;
_chemical_formula_sum "Si O2"
_cell_formula_units_Z 80
_cell_length_a 27.053130
_cell_length_b 27.053130
_cell_length_c 5.065058
_cell_angle_alpha 90.000000
_cell_angle_beta 90.000000
_cell_angle_gamma 90.000000
_cell_volume 3706.973332
_symmetry_space_group_name_H-M "P 4/N N C"
_symmetry_group_IT_number 126
_space_group.IT_coordinate_system_code '2'
_symmetry_cell_setting 'tetragonal'
loop_
_space_group_symop_operation_xyz
x,y,z
1/2-y,x,z
1/2-x,1/2-y,z
y,1/2-x,z
x,1/2-y,1/2-z
1/2-x,y,1/2-z
y,x,1/2-z
1/2-y,1/2-x,1/2-z
-x,-y,-z
1/2+y,-x,-z
1/2+x,1/2+y,-z
-y,1/2+x,-z
-x,1/2+y,1/2+z
1/2+x,-y,1/2+z
-y,-x,1/2+z
1/2+y,1/2+x,1/2+z
loop_
_atom_site_type_symbol
_atom_site_label
_atom_site_fract_x
_atom_site_fract_y
_atom_site_fract_z
Si Si1 0.435389 0.360006 0.848606
Si Si2 0.514808 0.250000 0.250000
Si Si3 0.577227 0.250000 0.750000
Si Si4 0.332997 0.250000 0.250000
Si Si5 0.642261 0.504581 0.865677
Si Si6 0.750000 0.597238 0.250000
Si Si7 0.610846 0.156274 0.076740
O O1 0.383868 0.383868 0.750000
O O2 0.473223 0.378785 0.629991
O O3 0.430773 0.300572 0.827023
O O4 0.460926 0.374414 0.123934
O O5 0.544296 0.228475 0.507856
O O6 0.488373 0.202065 0.140201
O O7 0.605447 0.209131 0.926883
O O8 0.297376 0.297376 0.250000
O O9 0.367577 0.257680 0.500211
O O10 0.635989 0.445393 0.893278
O O11 0.648682 0.129698 0.874901
#
# Coordination Sequence:
#
# PCOD9563310 Si02
#       7
#    16   8   8   8  16   8  16
#     4  12  24  39  60  86 120 158 200 260 325 382
#     4  10  18  35  60  89 120 152 190 259 324 359
#     4  10  20  35  60  97 132 154 194 249 300 345
#     4  11  22  37  56  79 114 158 204 253 302 376
#     4  11  22  39  61  89 122 155 203 256 312 369
#     4  12  24  40  60  84 114 154 206 255 322 401
#     4  11  22  39  66  95 126 165 204 245 293 355
#
# _framework density 21.580950000000001
#
# number of rings (size 3 to 8) (size 9 to 14) (size 15 to 20)
#    0.000    0.900    0.000   10.800    0.000    1.600 
#    0.000    0.000    0.000   13.800    0.000    0.000 
#    0.000    0.000    0.000    0.000    0.000    0.000 
#
# Total GULP energy -445662.963567 kJ/mol
# GULP energy per Si atom -5570.787045 kJ/mol
# Density = 2.153183 g / cm^3
# Si number density = 21.580950 Si / 1000 Ang^3
#
#
#
# Elastic Constant Matrix: (Units=GPa)
#
#
# Indices 1 2 3 4 5 6 
#
# 1 54.7061 0.3752 11.3066 0.0000 0.0000 0.0000
# 2 0.3752 54.7061 11.3066 0.0000 0.0000 0.0000
# 3 11.3066 11.3066 119.3973 0.0000 0.0000 0.0000
# 4 0.0000 0.0000 0.0000 31.0240 0.0000 0.0000
# 5 0.0000 0.0000 0.0000 0.0000 31.0240 0.0000
# 6 0.0000 0.0000 0.0000 0.0000 0.0000 22.9961
#
#
#
# Elastic Compliance Matrix: (Units=1/GPa)
#
#
# Indices 1 2 3 4 5 6 
#
# 1 0.018648 0.000242 -0.001789 0.000000 0.000000 0.000000
# 2 0.000242 0.018648 -0.001789 0.000000 0.000000 0.000000
# 3 -0.001789 -0.001789 0.008714 0.000000 0.000000 0.000000
# 4 0.000000 0.000000 0.000000 0.032233 0.000000 0.000000
# 5 0.000000 0.000000 0.000000 0.000000 0.032233 0.000000
# 6 0.000000 0.000000 0.000000 0.000000 0.000000 0.043486
#
#
# Mechanical properties :
#
#
# Convention : Reuss Voigt Hill
#
# Bulk Modulus (GPa) = 25.42082 30.53179 27.97631
# Shear Modulus (GPa) = 28.77778 30.73024 29.75401
#
# Velocity S-wave (km/s) = 3.65565 3.77762 3.71714
# Velocity P-wave (km/s) = 5.44272 5.76242 5.60485
#
# Compressibility (1/GPa) = 0.03933783
#
# Stress axis : x y z
#
# Youngs Moduli (GPa) = 53.62639 53.62639 114.75550
#
# Poissons Ratio (x) = -0.01297 0.20527
# Poissons Ratio (y) = -0.01297 0.20527
# Poissons Ratio (z) = 0.09593 0.09593
#
# Static dielectric constant tensor:
#      x y z
#    x 1.862080 0.000000 0.000000 
#    y 0.000000 1.862080 0.000000 
#    z 0.000000 0.000000 1.797100 
# 
# From -- ./inp_files/638.got.cif
#   From: 2010.05.17/outbox.cif.g08.bks.cpg/sg126_1_cif.got.tgz:638.got - 2010.05.20 11:58:20.
