data_PCOD9563231
_publ_section_title
;
Structure prediction by ZEFSAII (Michael W. Deem and Ramdas Pophale) SiO2 
 PCOD9563231
Probable space group: P 4/N B M
;
_chemical_formula_sum "Si O2"
_cell_formula_units_Z 56
_cell_length_a 13.200181
_cell_length_b 13.200181
_cell_length_c 17.838781
_cell_angle_alpha 90.000000
_cell_angle_beta 90.000000
_cell_angle_gamma 90.000000
_cell_volume 3108.314443
_symmetry_space_group_name_H-M "P 4/N B M"
_symmetry_group_IT_number 125
_space_group.IT_coordinate_system_code '2'
_symmetry_cell_setting 'tetragonal'
loop_
_space_group_symop_operation_xyz
x,y,z
1/2-y,x,z
1/2-x,1/2-y,z
y,1/2-x,z
x,1/2-y,-z
1/2-x,y,-z
y,x,-z
1/2-y,1/2-x,-z
-x,-y,-z
1/2+y,-x,-z
1/2+x,1/2+y,-z
-y,1/2+x,-z
-x,1/2+y,z
1/2+x,-y,z
-y,-x,z
1/2+y,1/2+x,z
loop_
_atom_site_type_symbol
_atom_site_label
_atom_site_fract_x
_atom_site_fract_y
_atom_site_fract_z
Si Si1 0.222750 0.416170 0.211905
Si Si2 0.250000 0.921486 0.500000
Si Si3 0.081085 0.753329 0.336811
Si Si4 0.513522 0.656663 0.951951
O O1 0.137847 0.330728 0.223375
O O2 0.222179 0.507560 0.270247
O O3 0.202885 0.451947 0.127050
O O4 0.347094 0.847094 0.502225
O O5 0.251908 0.973239 0.581381
O O6 0.139377 0.860624 0.324775
O O7 0.170130 0.670130 0.341258
O O8 0.430327 0.569674 0.939949
O O9 0.471734 0.750000 0.000000
O O10 0.604898 0.604898 0.000000
#
# Coordination Sequence:
#
# PCOD9563231 Si02
#       4
#    16   8  16  16
#     4  11  23  38  58  81 112 153 192 229 279 341
#     4   7  12  28  54  81 110 148 188 227 282 341
#     4   9  18  34  58  86 115 147 188 239 287 335
#     4  11  23  40  63  86 111 148 190 233 282 335
#
# _framework density 18.016195
#
# number of rings (size 3 to 8) (size 9 to 14) (size 15 to 20)
#    0.000    2.143    2.857    2.571    0.000    4.000 
#    0.000    1.429    0.000    6.857    0.000    0.000 
#    0.000    0.000    0.000    0.000    0.000    0.000 
#
# Total GULP energy -311952.315874 kJ/mol
# GULP energy per Si atom -5570.577069 kJ/mol
# Density = 1.797519 g / cm^3
# Si number density = 18.016195 Si / 1000 Ang^3
#
#
#
# Elastic Constant Matrix: (Units=GPa)
#
#
# Indices 1 2 3 4 5 6 
#
# 1 61.0259 14.6576 45.9914 0.0000 0.0000 0.0000
# 2 14.6576 61.0259 45.9914 0.0000 0.0000 0.0000
# 3 45.9914 45.9914 156.5654 0.0000 0.0000 0.0000
# 4 0.0000 0.0000 0.0000 9.1269 0.0000 0.0000
# 5 0.0000 0.0000 0.0000 0.0000 9.1269 0.0000
# 6 0.0000 0.0000 0.0000 0.0000 0.0000 -10.1437
#
#
#
# Elastic Compliance Matrix: (Units=1/GPa)
#
#
# Indices 1 2 3 4 5 6 
#
# 1 0.021058 -0.000509 -0.006036 0.000000 0.000000 0.000000
# 2 -0.000509 0.021058 -0.006036 0.000000 0.000000 0.000000
# 3 -0.006036 -0.006036 0.009934 0.000000 0.000000 0.000000
# 4 0.000000 0.000000 0.000000 0.109566 0.000000 0.000000
# 5 0.000000 0.000000 0.000000 0.000000 0.109566 0.000000
# 6 0.000000 0.000000 0.000000 0.000000 0.000000 -0.098584
#
#
# Mechanical properties :
#
#
# Convention : Reuss Voigt Hill
#
# Bulk Modulus (GPa) = 37.19330 54.65532 45.92431
# Shear Modulus (GPa) = 24.18692 13.08715 18.63703
#
# Velocity S-wave (km/s) = 3.66800 2.69812 3.21979
# Velocity P-wave (km/s) = 6.21516 6.33318 6.27444
#
# Compressibility (1/GPa) = 0.02688656
#
# Stress axis : x y z
#
# Youngs Moduli (GPa) = 47.48817 47.48817 100.66932
#
# Poissons Ratio (x) = 0.02415 0.60768
# Poissons Ratio (y) = 0.02415 0.60768
# Poissons Ratio (z) = 0.28666 0.28666
#
# Static dielectric constant tensor:
#      x y z
#    x 1.614410 0.000000 0.000000 
#    y 0.000000 1.614410 0.000000 
#    z 0.000000 0.000000 1.631700 
# 
# From -- ./inp_files/4566.got.cif
#   From: 2010.05.17/outbox.cif.g08.bks.cpg/sg125_3_cif.got.tgz:4566.got - 2010.05.20 11:54:10.
