data_PCOD9563744
_publ_section_title
;
Structure prediction by ZEFSAII (Michael W. Deem and Ramdas Pophale) SiO2 
 PCOD9563744
Probable space group: P 4/M B M
;
_chemical_formula_sum "Si O2"
_cell_formula_units_Z 96
_cell_length_a 25.541352
_cell_length_b 25.541352
_cell_length_c 8.443854
_cell_angle_alpha 90.000000
_cell_angle_beta 90.000000
_cell_angle_gamma 90.000000
_cell_volume 5508.438185
_symmetry_space_group_name_H-M "P 4/M B M"
_symmetry_group_IT_number 127
_symmetry_cell_setting 'tetragonal'
loop_
_space_group_symop_operation_xyz
x,y,z
-y,x,z
-x,-y,z
y,-x,z
1/2+x,1/2-y,-z
1/2-x,1/2+y,-z
1/2+y,1/2+x,-z
1/2-y,1/2-x,-z
-x,-y,-z
y,-x,-z
x,y,-z
-y,x,-z
1/2-x,1/2+y,z
1/2+x,1/2-y,z
1/2-y,1/2-x,z
1/2+y,1/2+x,z
loop_
_atom_site_type_symbol
_atom_site_label
_atom_site_fract_x
_atom_site_fract_y
_atom_site_fract_z
Si Si1 0.835439 0.335439 0.811850
Si Si2 0.871313 0.923022 0.814564
Si Si3 0.738356 0.396044 0.689431
Si Si4 0.350952 0.462559 0.311837
Si Si5 0.515005 0.235449 0.307748
Si Si6 0.380344 0.964781 0.306491
Si Si7 0.919824 0.419824 0.308151
O O1 0.779750 0.353525 0.744895
O O2 0.878317 0.378317 0.757200
O O3 0.833926 0.333926 0.000000
O O4 0.818595 0.892369 0.766339
O O5 0.921388 0.888654 0.770918
O O6 0.869122 0.978080 0.721972
O O7 0.870539 0.934810 0.000000
O O8 0.732991 0.395142 0.500000
O O9 0.760998 0.453513 0.734420
O O10 0.352187 0.453257 0.500000
O O11 0.290242 0.459408 0.255863
O O12 0.517152 0.235488 0.500000
O O13 0.537940 0.180085 0.253071
O O14 0.380081 0.963992 0.500000
O O15 0.417771 0.917771 0.253144
O O16 0.404252 0.021236 0.261098
O O17 0.917146 0.417146 0.500000
#
# Coordination Sequence:
#
# PCOD9563744 Si02
#       7
#     8  16  16  16  16  16   8
#     4  12  22  31  49  79 108 140 180 232 284 329
#     4  11  22  37  57  86 115 141 176 225 276 323
#     4  10  19  35  56  77 104 140 181 223 270 329
#     4  10  20  36  57  80 110 148 183 216 264 331
#     4   8  15  28  49  75 100 133 176 221 261 309
#     4   9  15  24  44  76 106 134 176 230 273 311
#     4  10  17  28  46  72 106 142 178 222 276 326
#
# _framework density 17.427807000000001
#
# number of rings (size 3 to 8) (size 9 to 14) (size 15 to 20)
#    0.000    2.167    1.667    4.500    0.000    1.333 
#    0.000    1.667    1.833    1.000    0.000    0.000 
#    0.000    0.000    0.000    0.000    0.000    0.000 
#
# Total GULP energy -535622.560520 kJ/mol
# GULP energy per Si atom -5579.401672 kJ/mol
# Density = 1.738814 g / cm^3
# Si number density = 17.427807 Si / 1000 Ang^3
#
#
#
# Elastic Constant Matrix: (Units=GPa)
#
#
# Indices 1 2 3 4 5 6 
#
# 1 79.1535 52.0963 -9.1462 0.0000 0.0000 0.0000
# 2 52.0963 79.1535 -9.1462 0.0000 0.0000 0.0000
# 3 -9.1462 -9.1462 22.7016 0.0000 0.0000 0.0000
# 4 0.0000 0.0000 0.0000 9.7030 0.0000 0.0000
# 5 0.0000 0.0000 0.0000 0.0000 9.7030 0.0000
# 6 0.0000 0.0000 0.0000 0.0000 0.0000 28.3174
#
#
#
# Elastic Compliance Matrix: (Units=1/GPa)
#
#
# Indices 1 2 3 4 5 6 
#
# 1 0.022516 -0.014443 0.003252 0.000000 0.000000 0.000000
# 2 -0.014443 0.022516 0.003252 0.000000 0.000000 0.000000
# 3 0.003252 0.003252 0.046670 0.000000 0.000000 0.000000
# 4 0.000000 0.000000 0.000000 0.103061 0.000000 0.000000
# 5 0.000000 0.000000 0.000000 0.000000 0.103061 0.000000
# 6 0.000000 0.000000 0.000000 0.000000 0.000000 0.035314
#
#
# Mechanical properties :
#
#
# Convention : Reuss Voigt Hill
#
# Bulk Modulus (GPa) = 13.18843 27.62404 20.40624
# Shear Modulus (GPa) = 13.35863 19.35831 16.35847
#
# Velocity S-wave (km/s) = 2.77160 3.33644 3.06705
# Velocity P-wave (km/s) = 4.22211 5.54323 4.92715
#
# Compressibility (1/GPa) = 0.07582403
#
# Stress axis : x y z
#
# Youngs Moduli (GPa) = 44.41372 44.41372 21.42686
#
# Poissons Ratio (x) = 0.64148 -0.06969
# Poissons Ratio (y) = 0.64148 -0.06969
# Poissons Ratio (z) = -0.14444 -0.14444
#
# Static dielectric constant tensor:
#      x y z
#    x 1.581560 0.000000 0.000000 
#    y 0.000000 1.581560 0.000000 
#    z 0.000000 0.000000 1.587270 
# 
# From -- ./inp_files/2112.got.cif
#   From: 2010.05.17/outbox.cif.g08.bks.cpg/sg127_2_cif.got.tgz:2112.got - 2010.05.20 12:03:00.
