data_PCOD9563154
_publ_section_title
;
Structure prediction by ZEFSAII (Michael W. Deem and Ramdas Pophale) SiO2 
 PCOD9563154
Probable space group: P 4/N B M
;
_chemical_formula_sum "Si O2"
_cell_formula_units_Z 112
_cell_length_a 14.517311
_cell_length_b 14.517311
_cell_length_c 27.992381
_cell_angle_alpha 90.000000
_cell_angle_beta 90.000000
_cell_angle_gamma 90.000000
_cell_volume 5899.459201
_symmetry_space_group_name_H-M "P 4/N B M"
_symmetry_group_IT_number 125
_space_group.IT_coordinate_system_code '2'
_symmetry_cell_setting 'tetragonal'
loop_
_space_group_symop_operation_xyz
x,y,z
1/2-y,x,z
1/2-x,1/2-y,z
y,1/2-x,z
x,1/2-y,-z
1/2-x,y,-z
y,x,-z
1/2-y,1/2-x,-z
-x,-y,-z
1/2+y,-x,-z
1/2+x,1/2+y,-z
-y,1/2+x,-z
-x,1/2+y,z
1/2+x,-y,z
-y,-x,z
1/2+y,1/2+x,z
loop_
_atom_site_type_symbol
_atom_site_label
_atom_site_fract_x
_atom_site_fract_y
_atom_site_fract_z
Si Si1 0.034470 0.747668 0.448870
Si Si2 0.921439 0.576208 0.420019
Si Si3 0.755338 0.102445 0.341560
Si Si4 0.388290 0.323855 0.119275
Si Si5 0.852124 0.505519 0.976361
Si Si6 0.887420 0.543373 0.316134
Si Si7 0.341880 0.375232 0.775180
O O1 0.084308 0.750000 0.500000
O O2 0.970336 0.658834 0.446009
O O3 0.966781 0.834108 0.445321
O O4 0.090356 0.747404 0.399233
O O5 0.895181 0.600321 0.365354
O O6 0.995129 0.495129 0.417262
O O7 0.856284 0.143717 0.328962
O O8 0.681854 0.181854 0.329296
O O9 0.711840 0.009903 0.318574
O O10 0.286259 0.369116 0.114474
O O11 0.461668 0.346331 0.078619
O O12 0.417525 0.357173 0.172276
O O13 0.911779 0.411779 0.981613
O O14 0.750000 0.499773 0.000000
O O15 0.912495 0.587506 0.000000
O O16 0.911796 0.604822 0.270566
O O17 0.961785 0.461785 0.318036
O O18 0.231709 0.372619 0.773198
#
# Coordination Sequence:
#
# PCOD9563154 Si02
#       7
#    16  16  16  16  16  16  16
#     4  11  22  36  55  75 102 139 171 213 278 339
#     4  10  23  39  54  78 108 135 175 224 267 329
#     4   9  19  35  53  75 102 134 180 234 279 330
#     4   9  17  33  56  82 116 154 198 257 307 344
#     4  11  22  35  58  92 125 166 217 261 309 366
#     4   9  19  35  53  76 106 141 181 227 282 343
#     4   9  19  33  53  82 114 145 182 234 294 343
#
# _framework density 18.984791000000001
#
# number of rings (size 3 to 8) (size 9 to 14) (size 15 to 20)
#    0.000    2.286    1.429    3.000    4.000    4.000 
#    0.000    1.429    0.000    0.857    0.000    0.000 
#    0.000    0.000    0.000    0.000    0.000    0.000 
#
# Total GULP energy -623928.228467 kJ/mol
# GULP energy per Si atom -5570.787754 kJ/mol
# Density = 1.894158 g / cm^3
# Si number density = 18.984791 Si / 1000 Ang^3
#
#
#
# Elastic Constant Matrix: (Units=GPa)
#
#
# Indices 1 2 3 4 5 6 
#
# 1 62.1412 42.4966 35.6558 0.0000 0.0000 0.0000
# 2 42.4966 62.1410 35.6557 0.0000 0.0000 0.0000
# 3 35.6558 35.6557 133.3875 0.0000 0.0000 0.0000
# 4 0.0000 0.0000 0.0000 -3.1260 0.0000 0.0000
# 5 0.0000 0.0000 0.0000 0.0000 -3.1264 0.0000
# 6 0.0000 0.0000 0.0000 0.0000 0.0000 10.1729
#
#
#
# Elastic Compliance Matrix: (Units=1/GPa)
#
#
# Indices 1 2 3 4 5 6 
#
# 1 0.031295 -0.019610 -0.003124 0.000000 0.000000 0.000000
# 2 -0.019610 0.031295 -0.003124 0.000000 0.000000 0.000000
# 3 -0.003124 -0.003124 0.009167 0.000000 0.000000 0.000000
# 4 0.000000 0.000000 0.000000 -0.319902 0.000000 0.000000
# 5 0.000000 0.000000 0.000000 0.000000 -0.319860 0.000000
# 6 0.000000 0.000000 0.000000 0.000000 0.000000 0.098301
#
#
# Mechanical properties :
#
#
# Convention : Reuss Voigt Hill
#
# Bulk Modulus (GPa) = 49.89164 53.92065 51.90614
# Shear Modulus (GPa) = -12.15632 10.37488 -0.89072
#
# Velocity S-wave (km/s) = -2.53320 2.34024 -0.68571
# Velocity P-wave (km/s) = 4.21672 5.98046 5.17430
#
# Compressibility (1/GPa) = 0.02004344
#
# Stress axis : x y z
#
# Youngs Moduli (GPa) = 31.95380 31.95373 109.08774
#
# Poissons Ratio (x) = 0.62660 0.34076
# Poissons Ratio (y) = 0.62660 0.34075
# Poissons Ratio (z) = 0.09981 0.09981
#
# Static dielectric constant tensor:
#      x y z
#    x 1.669140 0.000000 0.000000 
#    y 0.000000 1.669140 0.000000 
#    z 0.000000 0.000000 1.716520 
# 
# From -- ./inp_files/6413.got.cif
#   From: 2010.05.17/outbox.cif.g08.bks.cpg/sg125_4_cif.got.tgz:6413.got - 2010.05.20 11:54:10.
