data_PCOD9563772
_publ_section_title
;
Structure prediction by ZEFSAII (Michael W. Deem and Ramdas Pophale) SiO2 
 PCOD9563772
Probable space group: P 4/M B M
;
_chemical_formula_sum "Si O2"
_cell_formula_units_Z 56
_cell_length_a 17.518132
_cell_length_b 17.518132
_cell_length_c 11.553520
_cell_angle_alpha 90.000000
_cell_angle_beta 90.000000
_cell_angle_gamma 90.000000
_cell_volume 3545.601393
_symmetry_space_group_name_H-M "P 4/M B M"
_symmetry_group_IT_number 127
_symmetry_cell_setting 'tetragonal'
loop_
_space_group_symop_operation_xyz
x,y,z
-y,x,z
-x,-y,z
y,-x,z
1/2+x,1/2-y,-z
1/2-x,1/2+y,-z
1/2+y,1/2+x,-z
1/2-y,1/2-x,-z
-x,-y,-z
y,-x,-z
x,y,-z
-y,x,-z
1/2-x,1/2+y,z
1/2+x,1/2-y,z
1/2-y,1/2-x,z
1/2+y,1/2+x,z
loop_
_atom_site_type_symbol
_atom_site_label
_atom_site_fract_x
_atom_site_fract_y
_atom_site_fract_z
Si Si1 0.435647 0.064354 0.357399
Si Si2 0.007273 0.873933 0.138932
Si Si3 0.857722 0.232491 0.500000
Si Si4 0.605648 0.229453 0.500000
Si Si5 0.478286 0.235807 0.309204
O O1 0.429056 0.070945 0.500000
O O2 0.459140 0.145661 0.301812
O O3 0.500000 0.000000 0.337277
O O4 0.012319 0.792079 0.200864
O O5 0.930390 0.921815 0.169682
O O6 0.007836 0.865364 0.000000
O O7 0.811497 0.311497 0.500000
O O8 0.795795 0.167089 0.500000
O O9 0.910746 0.229809 0.611983
O O10 0.648537 0.148537 0.500000
O O11 0.553746 0.237644 0.387486
#
# Coordination Sequence:
#
# PCOD9563772 Si02
#       5
#     8  16   8   8  16
#     4  11  20  34  55  77 107 145 188 211 256 318
#     4   9  19  36  57  79 104 138 178 218 266 324
#     4  10  18  30  44  73 106 133 164 208 260 309
#     4  10  20  29  47  74 107 135 166 210 261 310
#     4  11  18  32  51  77 101 140 174 220 254 316
#
# _framework density 15.794217
#
# number of rings (size 3 to 8) (size 9 to 14) (size 15 to 20)
#    0.000    1.857    4.286    3.429    0.000    0.000 
#    0.000    0.714    0.000   11.143    0.000    0.000 
#    0.000    0.000    0.000    0.000    0.000    0.000 
#
# Total GULP energy -312018.683666 kJ/mol
# GULP energy per Si atom -5571.762208 kJ/mol
# Density = 1.575827 g / cm^3
# Si number density = 15.794217 Si / 1000 Ang^3
#
#
#
# Elastic Constant Matrix: (Units=GPa)
#
#
# Indices 1 2 3 4 5 6 
#
# 1 114.7932 54.1969 45.4622 0.0000 0.0000 0.0000
# 2 54.1969 114.7937 45.4622 0.0000 0.0000 0.0000
# 3 45.4622 45.4622 56.5200 0.0000 0.0000 0.0000
# 4 0.0000 0.0000 0.0000 26.8228 0.0000 0.0000
# 5 0.0000 0.0000 0.0000 0.0000 26.8235 0.0000
# 6 0.0000 0.0000 0.0000 0.0000 0.0000 23.9937
#
#
#
# Elastic Compliance Matrix: (Units=1/GPa)
#
#
# Indices 1 2 3 4 5 6 
#
# 1 0.013468 -0.003035 -0.008391 0.000000 0.000000 0.000000
# 2 -0.003035 0.013467 -0.008391 0.000000 0.000000 0.000000
# 3 -0.008391 -0.008391 0.031192 0.000000 0.000000 0.000000
# 4 0.000000 0.000000 0.000000 0.037282 0.000000 0.000000
# 5 0.000000 0.000000 0.000000 0.000000 0.037281 0.000000
# 6 0.000000 0.000000 0.000000 0.000000 0.000000 0.041678
#
#
# Mechanical properties :
#
#
# Convention : Reuss Voigt Hill
#
# Bulk Modulus (GPa) = 54.07893 64.03884 59.05888
# Shear Modulus (GPa) = 22.71004 24.92703 23.81853
#
# Velocity S-wave (km/s) = 3.79604 3.97701 3.88758
# Velocity P-wave (km/s) = 7.31623 7.85637 7.59111
#
# Compressibility (1/GPa) = 0.01849149
#
# Stress axis : x y z
#
# Youngs Moduli (GPa) = 74.25247 74.25301 32.05928
#
# Poissons Ratio (x) = 0.22536 0.26902
# Poissons Ratio (y) = 0.22536 0.26902
# Poissons Ratio (z) = 0.62309 0.62308
#
# Static dielectric constant tensor:
#      x y z
#    x 1.537560 0.000000 0.000000 
#    y 0.000000 1.537560 0.000000 
#    z 0.000000 0.000000 1.498100 
# 
# From -- ./inp_files/1137.got.cif
#   From: 2010.05.17/outbox.cif.g08.bks.cpg/sg127_1_cif.got.tgz:1137.got - 2010.05.20 12:03:00.
