data_PCOD9563401
_publ_section_title
;
Structure prediction by ZEFSAII (Michael W. Deem and Ramdas Pophale) SiO2 
 PCOD9563401
Probable space group: P 4/N N C
;
_chemical_formula_sum "Si O2"
_cell_formula_units_Z 112
_cell_length_a 14.274269
_cell_length_b 14.274269
_cell_length_c 23.120801
_cell_angle_alpha 90.000000
_cell_angle_beta 90.000000
_cell_angle_gamma 90.000000
_cell_volume 4710.973154
_symmetry_space_group_name_H-M "P 4/N N C"
_symmetry_group_IT_number 126
_space_group.IT_coordinate_system_code '2'
_symmetry_cell_setting 'tetragonal'
loop_
_space_group_symop_operation_xyz
x,y,z
1/2-y,x,z
1/2-x,1/2-y,z
y,1/2-x,z
x,1/2-y,1/2-z
1/2-x,y,1/2-z
y,x,1/2-z
1/2-y,1/2-x,1/2-z
-x,-y,-z
1/2+y,-x,-z
1/2+x,1/2+y,-z
-y,1/2+x,-z
-x,1/2+y,1/2+z
1/2+x,-y,1/2+z
-y,-x,1/2+z
1/2+y,1/2+x,1/2+z
loop_
_atom_site_type_symbol
_atom_site_label
_atom_site_fract_x
_atom_site_fract_y
_atom_site_fract_z
Si Si1 0.086234 0.079664 0.853840
Si Si2 0.032132 0.754105 0.818253
Si Si3 0.942090 0.942266 0.681601
Si Si4 0.473268 0.851305 0.995478
Si Si5 0.834862 0.193334 0.599106
Si Si6 0.356865 0.020337 0.973328
Si Si7 0.972782 0.234730 0.812349
O O1 0.075728 0.141964 0.911870
O O2 0.031306 0.140895 0.807507
O O3 0.186293 0.046361 0.832755
O O4 0.024001 0.986466 0.856785
O O5 0.060648 0.750000 0.750000
O O6 0.113998 0.789514 0.860171
O O7 0.990945 0.654027 0.834851
O O8 0.949575 0.830795 0.823494
O O9 0.959727 0.959727 0.750000
O O10 0.412472 0.845416 0.055057
O O11 0.566497 0.915618 0.993875
O O12 0.505390 0.741771 0.993128
O O13 0.400375 0.917000 0.960375
O O14 0.750000 0.250000 0.569831
O O15 0.891102 0.262748 0.641294
O O16 0.929516 0.250000 0.750000
#
# Coordination Sequence:
#
# PCOD9563401 Si02
#       7
#    16  16  16  16  16  16  16
#     4  12  22  43  63  93 139 180 228 283 352 420
#     4  10  22  36  59  87 124 174 223 282 348 424
#     4  10  20  37  57  85 125 170 219 277 344 415
#     4  11  26  46  71 102 136 179 236 296 367 435
#     4  12  25  40  62 100 135 178 235 290 358 423
#     4  11  24  46  71 101 135 182 233 297 361 435
#     4  12  25  39  65  97 139 188 233 285 348 434
#
# _framework density 23.774280000000001
#
# number of rings (size 3 to 8) (size 9 to 14) (size 15 to 20)
#    0.000    0.857    4.286    2.143    6.000    0.857 
#    0.000    3.571    0.000    0.000    0.000    4.000 
#    0.000    0.000    0.000    0.000    0.000    0.000 
#
# Total GULP energy -625526.966459 kJ/mol
# GULP energy per Si atom -5585.062201 kJ/mol
# Density = 2.372017 g / cm^3
# Si number density = 23.774280 Si / 1000 Ang^3
#
#
#
# Elastic Constant Matrix: (Units=GPa)
#
#
# Indices 1 2 3 4 5 6 
#
# 1 147.9119 52.9678 15.6984 0.0000 0.0000 0.0000
# 2 52.9678 147.9119 15.6984 0.0000 0.0000 0.0000
# 3 15.6984 15.6984 52.1154 0.0000 0.0000 0.0000
# 4 0.0000 0.0000 0.0000 28.8569 0.0000 0.0000
# 5 0.0000 0.0000 0.0000 0.0000 28.8569 0.0000
# 6 0.0000 0.0000 0.0000 0.0000 0.0000 42.5692
#
#
#
# Elastic Compliance Matrix: (Units=1/GPa)
#
#
# Indices 1 2 3 4 5 6 
#
# 1 0.007878 -0.002654 -0.001574 0.000000 0.000000 0.000000
# 2 -0.002654 0.007878 -0.001574 0.000000 0.000000 0.000000
# 3 -0.001574 -0.001574 0.020136 0.000000 0.000000 0.000000
# 4 0.000000 0.000000 0.000000 0.034654 0.000000 0.000000
# 5 0.000000 0.000000 0.000000 0.000000 0.034654 0.000000
# 6 0.000000 0.000000 0.000000 0.000000 0.000000 0.023491
#
#
# Mechanical properties :
#
#
# Convention : Reuss Voigt Hill
#
# Bulk Modulus (GPa) = 41.16939 57.40758 49.28848
# Shear Modulus (GPa) = 33.69475 37.62822 35.66148
#
# Velocity S-wave (km/s) = 3.76876 3.98267 3.87719
# Velocity P-wave (km/s) = 6.02432 6.73411 6.38908
#
# Compressibility (1/GPa) = 0.02428989
#
# Stress axis : x y z
#
# Youngs Moduli (GPa) = 126.93118 126.93118 49.66178
#
# Poissons Ratio (x) = 0.33690 0.07815
# Poissons Ratio (y) = 0.33690 0.07815
# Poissons Ratio (z) = 0.19974 0.19974
#
# Static dielectric constant tensor:
#      x y z
#    x 1.906630 0.000000 0.000000 
#    y 0.000000 1.906630 0.000000 
#    z 0.000000 0.000000 1.978920 
# 
# From -- ./inp_files/5852.got.cif
#   From: 2010.05.17/outbox.cif.g08.bks.cpg/sg126_3_cif.got.tgz:5852.got - 2010.05.20 11:58:20.
