data_PCOD9563623
_publ_section_title
;
Structure prediction by ZEFSAII (Michael W. Deem and Ramdas Pophale) SiO2 
 PCOD9563623
Probable space group: P 4/N N C
;
_chemical_formula_sum "Si O2"
_cell_formula_units_Z 56
_cell_length_a 13.172363
_cell_length_b 13.172363
_cell_length_c 16.141312
_cell_angle_alpha 90.000000
_cell_angle_beta 90.000000
_cell_angle_gamma 90.000000
_cell_volume 2800.697559
_symmetry_space_group_name_H-M "P 4/N N C"
_symmetry_group_IT_number 126
_space_group.IT_coordinate_system_code '2'
_symmetry_cell_setting 'tetragonal'
loop_
_space_group_symop_operation_xyz
x,y,z
1/2-y,x,z
1/2-x,1/2-y,z
y,1/2-x,z
x,1/2-y,1/2-z
1/2-x,y,1/2-z
y,x,1/2-z
1/2-y,1/2-x,1/2-z
-x,-y,-z
1/2+y,-x,-z
1/2+x,1/2+y,-z
-y,1/2+x,-z
-x,1/2+y,1/2+z
1/2+x,-y,1/2+z
-y,-x,1/2+z
1/2+y,1/2+x,1/2+z
loop_
_atom_site_type_symbol
_atom_site_label
_atom_site_fract_x
_atom_site_fract_y
_atom_site_fract_z
Si Si1 0.826587 0.106509 0.521550
Si Si2 0.865191 0.146494 0.214920
Si Si3 0.419634 0.419634 0.750000
Si Si4 0.102990 0.326851 0.569584
O O1 0.704844 0.123118 0.520695
O O2 0.854637 0.120813 0.616801
O O3 0.857213 0.001900 0.475904
O O4 0.913174 0.250000 0.250000
O O5 0.750000 0.146965 0.250000
O O6 0.906494 0.038895 0.240131
O O7 0.350956 0.398452 0.668502
O O8 0.117632 0.208168 0.546689
#
# Coordination Sequence:
#
# PCOD9563623 Si02
#       4
#    16  16   8  16
#     4  11  22  39  63  88 121 162 210 263 321 390
#     4  11  23  40  63  92 124 160 211 267 321 388
#     4  12  22  39  64  89 124 168 210 258 324 389
#     4  11  24  40  61  92 127 164 209 264 325 392
#
# _framework density 19.995017000000001
#
# number of rings (size 3 to 8) (size 9 to 14) (size 15 to 20)
#    0.000    0.857    0.000   11.143    0.000    8.000 
#    0.000    0.000    0.000    0.429    0.000    0.000 
#    0.000    0.000    0.000    0.000    0.000    0.000 
#
# Total GULP energy -312315.223484 kJ/mol
# GULP energy per Si atom -5577.057562 kJ/mol
# Density = 1.994951 g / cm^3
# Si number density = 19.995017 Si / 1000 Ang^3
#
#
#
# Elastic Constant Matrix: (Units=GPa)
#
#
# Indices 1 2 3 4 5 6 
#
# 1 118.5591 33.6285 21.8597 0.0000 0.0000 0.0000
# 2 33.6285 118.5591 21.8597 0.0000 0.0000 0.0000
# 3 21.8597 21.8597 54.4720 0.0000 0.0000 0.0000
# 4 0.0000 0.0000 0.0000 493.8769 0.0000 0.0000
# 5 0.0000 0.0000 0.0000 0.0000 493.8769 0.0000
# 6 0.0000 0.0000 0.0000 0.0000 0.0000 1.3842
#
#
#
# Elastic Compliance Matrix: (Units=1/GPa)
#
#
# Indices 1 2 3 4 5 6 
#
# 1 0.009601 -0.002174 -0.002980 0.000000 0.000000 0.000000
# 2 -0.002174 0.009601 -0.002980 0.000000 0.000000 0.000000
# 3 -0.002980 -0.002980 0.020750 0.000000 0.000000 0.000000
# 4 0.000000 0.000000 0.000000 0.002025 0.000000 0.000000
# 5 0.000000 0.000000 0.000000 0.000000 0.002025 0.000000
# 6 0.000000 0.000000 0.000000 0.000000 0.000000 0.722455
#
#
# Mechanical properties :
#
#
# Convention : Reuss Voigt Hill
#
# Bulk Modulus (GPa) = 42.22554 49.58734 45.90644
# Shear Modulus (GPa) = 6.32416 212.11039 109.21727
#
# Velocity S-wave (km/s) = 1.78037 10.31077 7.39870
# Velocity P-wave (km/s) = 5.03887 12.90748 9.79778
#
# Compressibility (1/GPa) = 0.02368235
#
# Stress axis : x y z
#
# Youngs Moduli (GPa) = 104.15917 104.15917 48.19228
#
# Poissons Ratio (x) = 0.22640 0.14364
# Poissons Ratio (y) = 0.22640 0.14364
# Poissons Ratio (z) = 0.31045 0.31045
#
# Static dielectric constant tensor:
#      x y z
#    x 1.694540 0.000000 0.000000 
#    y 0.000000 1.694540 0.000000 
#    z 0.000000 0.000000 1.928830 
# 
# From -- ./inp_files/3362.got.cif
#   From: 2010.05.17/outbox.cif.g08.bks.cpg/sg126_2_cif.got.tgz:3362.got - 2010.05.20 11:58:20.
