data_PCOD9563637
_publ_section_title
;
Structure prediction by ZEFSAII (Michael W. Deem and Ramdas Pophale) SiO2 
 PCOD9563637
Probable space group: P 4/N N C
;
_chemical_formula_sum "Si O2"
_cell_formula_units_Z 68
_cell_length_a 11.671993
_cell_length_b 11.671993
_cell_length_c 27.187841
_cell_angle_alpha 90.000000
_cell_angle_beta 90.000000
_cell_angle_gamma 90.000000
_cell_volume 3703.946954
_symmetry_space_group_name_H-M "P 4/N N C"
_symmetry_group_IT_number 126
_space_group.IT_coordinate_system_code '2'
_symmetry_cell_setting 'tetragonal'
loop_
_space_group_symop_operation_xyz
x,y,z
1/2-y,x,z
1/2-x,1/2-y,z
y,1/2-x,z
x,1/2-y,1/2-z
1/2-x,y,1/2-z
y,x,1/2-z
1/2-y,1/2-x,1/2-z
-x,-y,-z
1/2+y,-x,-z
1/2+x,1/2+y,-z
-y,1/2+x,-z
-x,1/2+y,1/2+z
1/2+x,-y,1/2+z
-y,-x,1/2+z
1/2+y,1/2+x,1/2+z
loop_
_atom_site_type_symbol
_atom_site_label
_atom_site_fract_x
_atom_site_fract_y
_atom_site_fract_z
Si Si1 0.332321 0.533704 0.953441
Si Si2 0.056818 0.275260 0.696804
Si Si3 0.020416 0.897452 0.103249
Si Si4 0.750000 0.250000 0.000000
Si Si5 0.074589 0.174601 0.440311
O O1 0.416161 0.483851 0.911509
O O2 0.202882 0.510380 0.936755
O O3 0.330679 0.668804 0.966776
O O4 0.353437 0.469188 0.004693
O O5 0.128747 0.157537 0.692762
O O6 0.000624 0.250000 0.750000
O O7 0.978369 0.324668 0.653691
O O8 0.130812 0.976082 0.095919
O O9 0.192824 0.105377 0.433913
#
# Coordination Sequence:
#
# PCOD9563637 Si02
#       5
#    16  16  16   4  16
#     4  12  22  34  53  78 122 162 212 244 299 355
#     4   9  18  34  56  85 116 144 183 240 309 375
#     4  12  22  34  56  86 115 163 199 251 306 365
#     4  12  24  36  48  80 122 168 208 264 288 344
#     4  11  23  38  52  77 123 172 212 249 284 361
#
# _framework density 18.358795000000001
#
# number of rings (size 3 to 8) (size 9 to 14) (size 15 to 20)
#    0.000    0.941    7.059    2.824    0.000    0.471 
#    0.000    0.000    0.000    0.000    0.000   23.882 
#    0.000    7.529    0.000    0.000    0.000    0.000 
#
# Total GULP energy -378638.184549 kJ/mol
# GULP energy per Si atom -5568.208596 kJ/mol
# Density = 1.831701 g / cm^3
# Si number density = 18.358795 Si / 1000 Ang^3
#
#
#
# Elastic Constant Matrix: (Units=GPa)
#
#
# Indices 1 2 3 4 5 6 
#
# 1 83.3179 32.4528 41.0505 0.0000 0.0000 0.0000
# 2 32.4528 83.3179 41.0505 0.0000 0.0000 0.0000
# 3 41.0505 41.0505 120.8216 0.0000 0.0000 0.0000
# 4 0.0000 0.0000 0.0000 24.3690 0.0000 0.0000
# 5 0.0000 0.0000 0.0000 0.0000 24.3690 0.0000
# 6 0.0000 0.0000 0.0000 0.0000 0.0000 30.3206
#
#
#
# Elastic Compliance Matrix: (Units=1/GPa)
#
#
# Indices 1 2 3 4 5 6 
#
# 1 0.015520 -0.004140 -0.003866 0.000000 0.000000 0.000000
# 2 -0.004140 0.015520 -0.003866 0.000000 0.000000 0.000000
# 3 -0.003866 -0.003866 0.010904 0.000000 0.000000 0.000000
# 4 0.000000 0.000000 0.000000 0.041036 0.000000 0.000000
# 5 0.000000 0.000000 0.000000 0.000000 0.041036 0.000000
# 6 0.000000 0.000000 0.000000 0.000000 0.000000 0.032981
#
#
# Mechanical properties :
#
#
# Convention : Reuss Voigt Hill
#
# Bulk Modulus (GPa) = 54.95164 57.39610 56.17387
# Shear Modulus (GPa) = 26.76552 27.33862 27.05207
#
# Velocity S-wave (km/s) = 3.82240 3.86311 3.84281
# Velocity P-wave (km/s) = 7.03406 7.15748 7.09604
#
# Compressibility (1/GPa) = 0.01819782
#
# Stress axis : x y z
#
# Youngs Moduli (GPa) = 64.43395 64.43395 91.70981
#
# Poissons Ratio (x) = 0.26676 0.35458
# Poissons Ratio (y) = 0.26676 0.35458
# Poissons Ratio (z) = 0.24913 0.24913
#
# Static dielectric constant tensor:
#      x y z
#    x 1.689000 0.000000 0.000000 
#    y 0.000000 1.689000 0.000000 
#    z 0.000000 0.000000 1.707550 
# 
# From -- ./inp_files/6144.got.cif
#   From: 2010.05.17/outbox.cif.g08.bks.cpg/sg126_4_cif.got.tgz:6144.got - 2010.05.20 11:58:20.
