data_PCOD9563051
_publ_section_title
;
Structure prediction by ZEFSAII (Michael W. Deem and Ramdas Pophale) SiO2 
 PCOD9563051
Probable space group: P 4/N B M
;
_chemical_formula_sum "Si O2"
_cell_formula_units_Z 96
_cell_length_a 20.318441
_cell_length_b 20.318441
_cell_length_c 12.641447
_cell_angle_alpha 90.000000
_cell_angle_beta 90.000000
_cell_angle_gamma 90.000000
_cell_volume 5218.882903
_symmetry_space_group_name_H-M "P 4/N B M"
_symmetry_group_IT_number 125
_space_group.IT_coordinate_system_code '2'
_symmetry_cell_setting 'tetragonal'
loop_
_space_group_symop_operation_xyz
x,y,z
1/2-y,x,z
1/2-x,1/2-y,z
y,1/2-x,z
x,1/2-y,-z
1/2-x,y,-z
y,x,-z
1/2-y,1/2-x,-z
-x,-y,-z
1/2+y,-x,-z
1/2+x,1/2+y,-z
-y,1/2+x,-z
-x,1/2+y,z
1/2+x,-y,z
-y,-x,z
1/2+y,1/2+x,z
loop_
_atom_site_type_symbol
_atom_site_label
_atom_site_fract_x
_atom_site_fract_y
_atom_site_fract_z
Si Si1 0.515570 0.595660 0.638357
Si Si2 0.377761 0.508914 0.407183
Si Si3 0.660063 0.053991 0.833050
Si Si4 0.494212 0.101586 0.044669
Si Si5 0.750390 0.860574 0.876133
Si Si6 0.288154 0.005620 0.780977
O O1 0.463127 0.536874 0.630018
O O2 0.584067 0.557037 0.632352
O O3 0.503182 0.636285 0.531106
O O4 0.497141 0.632422 0.745242
O O5 0.428537 0.571464 0.396011
O O6 0.313900 0.512954 0.334582
O O7 0.622962 0.122962 0.813385
O O8 0.638278 0.029155 0.947811
O O9 0.737835 0.049738 0.821550
O O10 0.538080 0.038080 0.074907
O O11 0.425510 0.074491 0.000000
O O12 0.489963 0.148642 0.143494
O O13 0.686910 0.813789 0.861262
O O14 0.754274 0.923193 0.799764
O O15 0.750000 0.882758 0.000000
#
# Coordination Sequence:
#
# PCOD9563051 Si02
#       6
#    16  16  16  16  16  16
#     4   8  16  34  56  75 103 137 173 226 279 319
#     4   9  18  33  54  79 104 135 176 225 279 329
#     4  10  21  35  50  74 107 140 178 224 275 325
#     4  10  21  35  53  79 109 136 173 231 284 325
#     4   9  20  35  48  68 105 148 186 219 252 317
#     4  12  22  30  55  82 108 145 176 225 274 342
#
# _framework density 18.394739999999999
#
# number of rings (size 3 to 8) (size 9 to 14) (size 15 to 20)
#    0.000    2.333    0.000    4.500    7.000    3.333 
#    0.000    0.000    0.000    2.000    0.000    4.667 
#    0.000    8.000    0.000    0.167    0.000    0.000 
#
# Total GULP energy -535526.553633 kJ/mol
# GULP energy per Si atom -5578.401600 kJ/mol
# Density = 1.835287 g / cm^3
# Si number density = 18.394740 Si / 1000 Ang^3
#
#
#
# Elastic Constant Matrix: (Units=GPa)
#
#
# Indices 1 2 3 4 5 6 
#
# 1 36.8401 18.9520 -5.2224 0.0000 0.0000 0.0000
# 2 18.9520 36.8328 -5.2264 0.0000 0.0000 0.0000
# 3 -5.2224 -5.2264 35.3207 0.0000 0.0000 0.0000
# 4 0.0000 0.0000 0.0000 17.2127 0.0000 0.0000
# 5 0.0000 0.0000 0.0000 0.0000 17.2122 0.0000
# 6 0.0000 0.0000 0.0000 0.0000 0.0000 18.5640
#
#
#
# Elastic Compliance Matrix: (Units=1/GPa)
#
#
# Indices 1 2 3 4 5 6 
#
# 1 0.037171 -0.018739 0.002723 0.000000 0.000000 0.000000
# 2 -0.018739 0.037179 0.002731 0.000000 0.000000 0.000000
# 3 0.002723 0.002731 0.029119 0.000000 0.000000 0.000000
# 4 0.000000 0.000000 0.000000 0.058097 0.000000 0.000000
# 5 0.000000 0.000000 0.000000 0.000000 0.058098 0.000000
# 6 0.000000 0.000000 0.000000 0.000000 0.000000 0.053868
#
#
# Mechanical properties :
#
#
# Convention : Reuss Voigt Hill
#
# Bulk Modulus (GPa) = 13.00434 13.99999 13.50217
# Shear Modulus (GPa) = 15.34989 17.29714 16.32351
#
# Velocity S-wave (km/s) = 2.89186 3.06981 2.98216
# Velocity P-wave (km/s) = 4.27029 4.49359 4.38336
#
# Compressibility (1/GPa) = 0.07689738
#
# Stress axis : x y z
#
# Youngs Moduli (GPa) = 26.90291 26.89662 34.34220
#
# Poissons Ratio (x) = 0.50403 -0.09352
# Poissons Ratio (y) = 0.50415 -0.09378
# Poissons Ratio (z) = -0.07326 -0.07345
#
# Static dielectric constant tensor:
#      x y z
#    x 1.671520 0.000000 0.000000 
#    y 0.000000 1.671530 0.000000 
#    z 0.000000 0.000000 1.668550 
# 
# From -- ./inp_files/4119.got.cif
#   From: 2010.05.17/outbox.cif.g08.bks.cpg/sg125_3_cif.got.tgz:4119.got - 2010.05.20 11:54:10.
