data_PCOD9563955
_publ_section_title
;
Structure prediction by ZEFSAII (Michael W. Deem and Ramdas Pophale) SiO2 
 PCOD9563955
Probable space group: P 4/M B M
;
_chemical_formula_sum "Si O2"
_cell_formula_units_Z 112
_cell_length_a 15.640548
_cell_length_b 15.640548
_cell_length_c 24.601496
_cell_angle_alpha 90.000000
_cell_angle_beta 90.000000
_cell_angle_gamma 90.000000
_cell_volume 6018.183808
_symmetry_space_group_name_H-M "P 4/M B M"
_symmetry_group_IT_number 127
_symmetry_cell_setting 'tetragonal'
loop_
_space_group_symop_operation_xyz
x,y,z
-y,x,z
-x,-y,z
y,-x,z
1/2+x,1/2-y,-z
1/2-x,1/2+y,-z
1/2+y,1/2+x,-z
1/2-y,1/2-x,-z
-x,-y,-z
y,-x,-z
x,y,-z
-y,x,-z
1/2-x,1/2+y,z
1/2+x,1/2-y,z
1/2-y,1/2-x,z
1/2+y,1/2+x,z
loop_
_atom_site_type_symbol
_atom_site_label
_atom_site_fract_x
_atom_site_fract_y
_atom_site_fract_z
Si Si1 0.863456 0.958477 0.435941
Si Si2 0.029550 0.668079 0.857590
Si Si3 0.747946 0.392363 0.658446
Si Si4 0.172239 0.812835 0.156337
Si Si5 0.101208 0.255909 0.060883
Si Si6 0.101135 0.102298 0.264050
Si Si7 0.493327 0.860181 0.736802
O O1 0.843533 0.952400 0.500000
O O2 0.897513 0.054463 0.425102
O O3 0.786170 0.931770 0.397488
O O4 0.077942 0.577942 0.863081
O O5 0.101684 0.740711 0.854562
O O6 0.982775 0.671158 0.798985
O O7 0.969494 0.688500 0.907966
O O8 0.817280 0.317280 0.651599
O O9 0.663707 0.359559 0.690334
O O10 0.791823 0.465214 0.696374
O O11 0.260538 0.760538 0.167334
O O12 0.183128 0.871861 0.103445
O O13 0.140727 0.866789 0.207399
O O14 0.184624 0.315377 0.056147
O O15 0.076002 0.229295 0.000000
O O16 0.000063 0.114956 0.268626
O O17 0.566484 0.933517 0.740409
O O18 0.406774 0.906774 0.718304
#
# Coordination Sequence:
#
# PCOD9563955 Si02
#       7
#    16  16  16  16  16  16  16
#     4   9  19  39  65  88 115 156 203 247 288 329
#     4  10  19  35  58  80 106 145 188 228 282 350
#     4  11  21  35  57  88 124 156 190 233 286 346
#     4  10  20  36  56  77 105 138 179 233 290 344
#     4  10  22  37  53  78 109 140 181 235 289 344
#     4  11  22  36  55  79 110 146 188 236 284 337
#     4   9  18  33  53  80 116 153 186 224 276 338
#
# _framework density 18.610264999999998
#
# number of rings (size 3 to 8) (size 9 to 14) (size 15 to 20)
#    0.000    2.000    1.429    3.000    0.000    3.143 
#    0.000    5.000    0.000    1.286    0.000    5.000 
#    0.000    0.000    0.000    0.000    0.000    0.000 
#
# Total GULP energy -625078.899211 kJ/mol
# GULP energy per Si atom -5581.061600 kJ/mol
# Density = 1.856791 g / cm^3
# Si number density = 18.610265 Si / 1000 Ang^3
#
#
#
# Elastic Constant Matrix: (Units=GPa)
#
#
# Indices 1 2 3 4 5 6 
#
# 1 67.6190 29.2896 42.3421 0.0000 0.0000 0.0000
# 2 29.2896 67.6190 42.3421 0.0000 0.0000 0.0000
# 3 42.3421 42.3421 111.4888 0.0000 0.0000 0.0000
# 4 0.0000 0.0000 0.0000 25.9638 0.0000 0.0000
# 5 0.0000 0.0000 0.0000 0.0000 25.9638 0.0000
# 6 0.0000 0.0000 0.0000 0.0000 0.0000 18.6845
#
#
#
# Elastic Compliance Matrix: (Units=1/GPa)
#
#
# Indices 1 2 3 4 5 6 
#
# 1 0.020767 -0.005322 -0.005866 0.000000 0.000000 0.000000
# 2 -0.005322 0.020767 -0.005866 0.000000 0.000000 0.000000
# 3 -0.005866 -0.005866 0.013425 0.000000 0.000000 0.000000
# 4 0.000000 0.000000 0.000000 0.038515 0.000000 0.000000
# 5 0.000000 0.000000 0.000000 0.000000 0.038515 0.000000
# 6 0.000000 0.000000 0.000000 0.000000 0.000000 0.053520
#
#
# Mechanical properties :
#
#
# Convention : Reuss Voigt Hill
#
# Bulk Modulus (GPa) = 47.95789 52.74160 50.34974
# Shear Modulus (GPa) = 22.06837 22.97261 22.52049
#
# Velocity S-wave (km/s) = 3.44731 3.51722 3.48244
# Velocity P-wave (km/s) = 6.45529 6.70045 6.57901
#
# Compressibility (1/GPa) = 0.02085163
#
# Stress axis : x y z
#
# Youngs Moduli (GPa) = 48.15278 48.15278 74.48790
#
# Poissons Ratio (x) = 0.25629 0.43693
# Poissons Ratio (y) = 0.25629 0.43693
# Poissons Ratio (z) = 0.28245 0.28245
#
# Static dielectric constant tensor:
#      x y z
#    x 1.662460 0.000000 0.000000 
#    y 0.000000 1.662460 0.000000 
#    z 0.000000 0.000000 1.642610 
# 
# From -- ./inp_files/6175.got.cif
#   From: 2010.05.17/outbox.cif.g08.bks.cpg/sg127_4_cif.got.tgz:6175.got - 2010.05.20 12:03:00.
