data_PCOD9563681
_publ_section_title
;
Structure prediction by ZEFSAII (Michael W. Deem and Ramdas Pophale) SiO2 
 PCOD9563681
Probable space group: P 4/N N C
;
_chemical_formula_sum "Si O2"
_cell_formula_units_Z 88
_cell_length_a 11.397511
_cell_length_b 11.397511
_cell_length_c 33.984743
_cell_angle_alpha 90.000000
_cell_angle_beta 90.000000
_cell_angle_gamma 90.000000
_cell_volume 4414.728804
_symmetry_space_group_name_H-M "P 4/N N C"
_symmetry_group_IT_number 126
_space_group.IT_coordinate_system_code '2'
_symmetry_cell_setting 'tetragonal'
loop_
_space_group_symop_operation_xyz
x,y,z
1/2-y,x,z
1/2-x,1/2-y,z
y,1/2-x,z
x,1/2-y,1/2-z
1/2-x,y,1/2-z
y,x,1/2-z
1/2-y,1/2-x,1/2-z
-x,-y,-z
1/2+y,-x,-z
1/2+x,1/2+y,-z
-y,1/2+x,-z
-x,1/2+y,1/2+z
1/2+x,-y,1/2+z
-y,-x,1/2+z
1/2+y,1/2+x,1/2+z
loop_
_atom_site_type_symbol
_atom_site_label
_atom_site_fract_x
_atom_site_fract_y
_atom_site_fract_z
Si Si1 0.687039 0.373865 0.905940
Si Si2 0.250000 0.447901 0.250000
Si Si3 0.430643 0.288246 0.796502
Si Si4 0.060055 0.199825 0.940922
Si Si5 0.728419 0.943993 0.966868
Si Si6 0.813079 0.124042 0.817904
O O1 0.750000 0.250000 0.903272
O O2 0.553394 0.346695 0.918444
O O3 0.759786 0.448549 0.937610
O O4 0.690249 0.425947 0.862087
O O5 0.136424 0.363577 0.250000
O O6 0.257352 0.532789 0.212409
O O7 0.335954 0.383064 0.812134
O O8 0.428912 0.250000 0.750000
O O9 0.554820 0.341935 0.806202
O O10 0.169610 0.111910 0.933304
O O11 0.025844 0.209226 0.987298
O O12 0.625737 0.850196 0.959944
O O13 0.750000 0.250000 0.816040
#
# Coordination Sequence:
#
# PCOD9563681 Si02
#       6
#    16   8  16  16  16  16
#     4  11  26  38  60  98 130 166 216 266 324 384
#     4  11  27  48  72  96 121 173 228 264 316 383
#     4   9  19  36  64  97 120 155 208 260 323 394
#     4   9  21  41  64  92 129 171 212 264 329 390
#     4   9  21  41  64  89 122 173 223 264 316 377
#     4  11  25  43  63  94 132 168 210 271 330 379
#
# _framework density 19.933274999999998
#
# number of rings (size 3 to 8) (size 9 to 14) (size 15 to 20)
#    0.000    2.091    0.000    3.000   10.182    4.364 
#    0.000    3.636    0.000    0.000    0.000    0.000 
#    0.000    0.000    0.000    0.000    0.000    0.000 
#
# Total GULP energy -490676.338171 kJ/mol
# GULP energy per Si atom -5575.867479 kJ/mol
# Density = 1.988791 g / cm^3
# Si number density = 19.933275 Si / 1000 Ang^3
#
#
#
# Elastic Constant Matrix: (Units=GPa)
#
#
# Indices 1 2 3 4 5 6 
#
# 1 55.7751 22.7281 39.6078 0.0000 0.0000 0.0000
# 2 22.7281 55.7751 39.6079 0.0000 0.0000 0.0000
# 3 39.6078 39.6079 89.8199 0.0000 0.0000 0.0000
# 4 0.0000 0.0000 0.0000 81.0312 0.0000 0.0000
# 5 0.0000 0.0000 0.0000 0.0000 81.0409 0.0000
# 6 0.0000 0.0000 0.0000 0.0000 0.0000 1.8069
#
#
#
# Elastic Compliance Matrix: (Units=1/GPa)
#
#
# Indices 1 2 3 4 5 6 
#
# 1 0.026605 -0.003655 -0.010121 0.000000 0.000000 0.000000
# 2 -0.003655 0.026605 -0.010121 0.000000 0.000000 0.000000
# 3 -0.010121 -0.010121 0.020059 0.000000 0.000000 0.000000
# 4 0.000000 0.000000 0.000000 0.012341 0.000000 0.000000
# 5 0.000000 0.000000 0.000000 0.000000 0.012339 0.000000
# 6 0.000000 0.000000 0.000000 0.000000 0.000000 0.553446
#
#
# Mechanical properties :
#
#
# Convention : Reuss Voigt Hill
#
# Bulk Modulus (GPa) = 39.24905 45.02864 42.13885
# Shear Modulus (GPa) = 7.06533 39.40420 23.23476
#
# Velocity S-wave (km/s) = 1.88472 4.45095 3.41783
# Velocity P-wave (km/s) = 4.94664 7.00381 6.06311
#
# Compressibility (1/GPa) = 0.02547832
#
# Stress axis : x y z
#
# Youngs Moduli (GPa) = 37.58638 37.58636 49.85250
#
# Poissons Ratio (x) = 0.13736 0.50454
# Poissons Ratio (y) = 0.13736 0.50454
# Poissons Ratio (z) = 0.38040 0.38040
#
# Static dielectric constant tensor:
#      x y z
#    x 1.676240 0.000000 0.000000 
#    y 0.000000 1.676240 0.000000 
#    z 0.000000 0.000000 1.744650 
# 
# From -- ./inp_files/6506.got.cif
#   From: 2010.05.17/outbox.cif.g08.bks.cpg/sg126_4_cif.got.tgz:6506.got - 2010.05.20 11:58:20.
