data_PCOD9563969
_publ_section_title
;
Structure prediction by ZEFSAII (Michael W. Deem and Ramdas Pophale) SiO2 
 PCOD9563969
Probable space group: P 4/M B M
;
_chemical_formula_sum "Si O2"
_cell_formula_units_Z 96
_cell_length_a 15.470322
_cell_length_b 15.470322
_cell_length_c 21.558452
_cell_angle_alpha 90.000000
_cell_angle_beta 90.000000
_cell_angle_gamma 90.000000
_cell_volume 5159.602917
_symmetry_space_group_name_H-M "P 4/M B M"
_symmetry_group_IT_number 127
_symmetry_cell_setting 'tetragonal'
loop_
_space_group_symop_operation_xyz
x,y,z
-y,x,z
-x,-y,z
y,-x,z
1/2+x,1/2-y,-z
1/2-x,1/2+y,-z
1/2+y,1/2+x,-z
1/2-y,1/2-x,-z
-x,-y,-z
y,-x,-z
x,y,-z
-y,x,-z
1/2-x,1/2+y,z
1/2+x,1/2-y,z
1/2-y,1/2-x,z
1/2+y,1/2+x,z
loop_
_atom_site_type_symbol
_atom_site_label
_atom_site_fract_x
_atom_site_fract_y
_atom_site_fract_z
Si Si1 0.667234 0.027494 0.139910
Si Si2 0.112369 0.757292 0.068085
Si Si3 0.667150 0.309323 0.819454
Si Si4 0.224989 0.873026 0.313993
Si Si5 0.887497 0.092751 0.430343
Si Si6 0.140219 0.508679 0.721856
O O1 0.578818 0.078818 0.129230
O O2 0.740701 0.098863 0.153089
O O3 0.693703 0.965911 0.084451
O O4 0.660622 0.977625 0.205464
O O5 0.199547 0.699547 0.066418
O O6 0.119571 0.819538 0.127671
O O7 0.102119 0.797439 0.000000
O O8 0.757168 0.257168 0.812037
O O9 0.637504 0.329864 0.749634
O O10 0.298191 0.798191 0.313346
O O11 0.168093 0.868312 0.375067
O O12 0.277309 0.964148 0.309626
O O13 0.858147 0.116708 0.500000
O O14 0.988472 0.116609 0.425227
O O15 0.095338 0.595338 0.696216
O O16 0.066290 0.433711 0.720710
#
# Coordination Sequence:
#
# PCOD9563969 Si02
#       6
#    16  16  16  16  16  16
#     4   9  17  30  48  67  88 119 160 202 242 290
#     4  10  20  31  44  65  93 124 157 197 246 292
#     4   8  17  33  48  66  94 125 157 192 235 290
#     4   9  17  30  52  80 102 125 164 208 247 291
#     4   9  19  36  54  71  97 134 169 200 241 292
#     4   8  14  26  45  70 101 131 154 186 241 299
#
# _framework density 18.606083999999999
#
# number of rings (size 3 to 8) (size 9 to 14) (size 15 to 20)
#    0.000    3.167    0.000    3.000    0.000    5.000 
#    0.000    5.000    0.000    2.000    0.000    3.500 
#    0.000    0.000    0.000    0.000    0.000    0.000 
#
# Total GULP energy -534644.269429 kJ/mol
# GULP energy per Si atom -5569.211140 kJ/mol
# Density = 1.856374 g / cm^3
# Si number density = 18.606084 Si / 1000 Ang^3
#
#
#
# Elastic Constant Matrix: (Units=GPa)
#
#
# Indices 1 2 3 4 5 6 
#
# 1 24.6074 8.4486 32.4687 0.0000 0.0000 0.0000
# 2 8.4486 24.6074 32.4687 0.0000 0.0000 0.0000
# 3 32.4687 32.4687 136.3656 0.0000 0.0000 0.0000
# 4 0.0000 0.0000 0.0000 18.4300 0.0000 0.0000
# 5 0.0000 0.0000 0.0000 0.0000 18.4300 0.0000
# 6 0.0000 0.0000 0.0000 0.0000 0.0000 13.9393
#
#
#
# Elastic Compliance Matrix: (Units=1/GPa)
#
#
# Indices 1 2 3 4 5 6 
#
# 1 0.059361 -0.002525 -0.013533 0.000000 0.000000 0.000000
# 2 -0.002525 0.059361 -0.013533 0.000000 0.000000 0.000000
# 3 -0.013533 -0.013533 0.013778 0.000000 0.000000 0.000000
# 4 0.000000 0.000000 0.000000 0.054259 0.000000 0.000000
# 5 0.000000 0.000000 0.000000 0.000000 0.054259 0.000000
# 6 0.000000 0.000000 0.000000 0.000000 0.000000 0.071740
#
#
# Mechanical properties :
#
#
# Convention : Reuss Voigt Hill
#
# Bulk Modulus (GPa) = 13.63896 36.92806 25.28351
# Shear Modulus (GPa) = 12.61421 17.63949 15.12685
#
# Velocity S-wave (km/s) = 2.60659 3.08238 2.85442
# Velocity P-wave (km/s) = 4.05036 5.70601 4.94792
#
# Compressibility (1/GPa) = 0.07331938
#
# Stress axis : x y z
#
# Youngs Moduli (GPa) = 16.84603 16.84603 72.58167
#
# Poissons Ratio (x) = 0.04253 0.98224
# Poissons Ratio (y) = 0.04253 0.98224
# Poissons Ratio (z) = 0.22797 0.22797
#
# Static dielectric constant tensor:
#      x y z
#    x 1.668320 0.000000 0.000000 
#    y 0.000000 1.668320 0.000000 
#    z 0.000000 0.000000 1.648030 
# 
# From -- ./inp_files/5092.got.cif
#   From: 2010.05.17/outbox.cif.g08.bks.cpg/sg127_3_cif.got.tgz:5092.got - 2010.05.20 12:03:00.
