data_PCOD9563102
_publ_section_title
;
Structure prediction by ZEFSAII (Michael W. Deem and Ramdas Pophale) SiO2 
 PCOD9563102
Probable space group: P 4/N B M
;
_chemical_formula_sum "Si O2"
_cell_formula_units_Z 72
_cell_length_a 20.875060
_cell_length_b 20.875060
_cell_length_c 7.241292
_cell_angle_alpha 90.000000
_cell_angle_beta 90.000000
_cell_angle_gamma 90.000000
_cell_volume 3155.524274
_symmetry_space_group_name_H-M "P 4/N B M"
_symmetry_group_IT_number 125
_space_group.IT_coordinate_system_code '2'
_symmetry_cell_setting 'tetragonal'
loop_
_space_group_symop_operation_xyz
x,y,z
1/2-y,x,z
1/2-x,1/2-y,z
y,1/2-x,z
x,1/2-y,-z
1/2-x,y,-z
y,x,-z
1/2-y,1/2-x,-z
-x,-y,-z
1/2+y,-x,-z
1/2+x,1/2+y,-z
-y,1/2+x,-z
-x,1/2+y,z
1/2+x,-y,z
-y,-x,z
1/2+y,1/2+x,z
loop_
_atom_site_type_symbol
_atom_site_label
_atom_site_fract_x
_atom_site_fract_y
_atom_site_fract_z
Si Si1 0.648800 0.753339 0.779309
Si Si2 0.662727 0.057070 0.845433
Si Si3 0.480309 0.182526 0.214201
Si Si4 0.455438 0.058362 0.718734
Si Si5 0.055969 0.750000 0.500000
O O1 0.685602 0.690176 0.711114
O O2 0.573856 0.763152 0.752861
O O3 0.654753 0.750000 0.000000
O O4 0.616330 0.116330 0.888330
O O5 0.713550 0.079812 0.688111
O O6 0.618139 0.999743 0.766590
O O7 0.687040 0.025832 0.036749
O O8 0.443896 0.115073 0.195759
O O9 0.521127 0.190355 0.398932
O O10 0.445584 0.054417 0.500000
O O11 0.494784 0.994784 0.776845
#
# Coordination Sequence:
#
# PCOD9563102 Si02
#       5
#    16  16  16  16   8
#     4   9  20  35  52  79 121 176 232 275 312 362
#     4  11  25  45  68  99 133 173 225 282 353 423
#     4  12  24  39  67  94 134 179 232 283 337 400
#     4  10  21  40  65  95 132 176 219 273 342 402
#     4  12  26  42  64 104 134 172 222 282 350 414
#
# _framework density 22.817129000000001
#
# number of rings (size 3 to 8) (size 9 to 14) (size 15 to 20)
#    0.000    1.333    2.222    4.000    9.333    2.667 
#    0.000    0.000    0.000    1.667    0.000    0.000 
#    0.000    0.000    0.000    0.000    0.000    0.000 
#
# Total GULP energy -401510.446425 kJ/mol
# GULP energy per Si atom -5576.533978 kJ/mol
# Density = 2.276520 g / cm^3
# Si number density = 22.817129 Si / 1000 Ang^3
#
#
#
# Elastic Constant Matrix: (Units=GPa)
#
#
# Indices 1 2 3 4 5 6 
#
# 1 78.9652 29.2357 26.9952 0.0000 0.0000 0.0000
# 2 29.2357 78.9655 26.9950 0.0000 0.0000 0.0000
# 3 26.9952 26.9950 135.4428 0.0000 0.0000 0.0000
# 4 0.0000 0.0000 0.0000 -9.2275 0.0000 0.0000
# 5 0.0000 0.0000 0.0000 0.0000 -9.2272 0.0000
# 6 0.0000 0.0000 0.0000 0.0000 0.0000 17.5913
#
#
#
# Elastic Compliance Matrix: (Units=1/GPa)
#
#
# Indices 1 2 3 4 5 6 
#
# 1 0.015186 -0.004923 -0.002045 0.000000 0.000000 0.000000
# 2 -0.004923 0.015186 -0.002045 0.000000 0.000000 0.000000
# 3 -0.002045 -0.002045 0.008199 0.000000 0.000000 0.000000
# 4 0.000000 0.000000 0.000000 -0.108372 0.000000 0.000000
# 5 0.000000 0.000000 0.000000 0.000000 -0.108376 0.000000
# 6 0.000000 0.000000 0.000000 0.000000 0.000000 0.056846
#
#
# Mechanical properties :
#
#
# Convention : Reuss Voigt Hill
#
# Bulk Modulus (GPa) = 48.68047 51.09168 49.88607
# Shear Modulus (GPa) = -51.83733 13.83716 -19.00009
#
# Velocity S-wave (km/s) = -4.77157 2.46527 -2.88880
# Velocity P-wave (km/s) = 2.99597 5.52664 3.28390
#
# Compressibility (1/GPa) = 0.02054212
#
# Stress axis : x y z
#
# Youngs Moduli (GPa) = 65.85114 65.85150 121.97276
#
# Poissons Ratio (x) = 0.32419 0.24949
# Poissons Ratio (y) = 0.32419 0.24949
# Poissons Ratio (z) = 0.13470 0.13469
#
# Static dielectric constant tensor:
#      x y z
#    x 1.887030 0.000000 0.000000 
#    y 0.000000 1.887030 0.000000 
#    z 0.000000 0.000000 1.852100 
# 
# From -- ./inp_files/2547.got.cif
#   From: 2010.05.17/outbox.cif.g08.bks.cpg/sg125_2_cif.got.tgz:2547.got - 2010.05.20 11:54:10.
