data_PCOD9563157
_publ_section_title
;
Structure prediction by ZEFSAII (Michael W. Deem and Ramdas Pophale) SiO2 
 PCOD9563157
Probable space group: P 4/N B M
;
_chemical_formula_sum "Si O2"
_cell_formula_units_Z 64
_cell_length_a 14.781734
_cell_length_b 14.781734
_cell_length_c 13.689407
_cell_angle_alpha 90.000000
_cell_angle_beta 90.000000
_cell_angle_gamma 90.000000
_cell_volume 2991.130776
_symmetry_space_group_name_H-M "P 4/N B M"
_symmetry_group_IT_number 125
_space_group.IT_coordinate_system_code '2'
_symmetry_cell_setting 'tetragonal'
loop_
_space_group_symop_operation_xyz
x,y,z
1/2-y,x,z
1/2-x,1/2-y,z
y,1/2-x,z
x,1/2-y,-z
1/2-x,y,-z
y,x,-z
1/2-y,1/2-x,-z
-x,-y,-z
1/2+y,-x,-z
1/2+x,1/2+y,-z
-y,1/2+x,-z
-x,1/2+y,z
1/2+x,-y,z
-y,-x,z
1/2+y,1/2+x,z
loop_
_atom_site_type_symbol
_atom_site_label
_atom_site_fract_x
_atom_site_fract_y
_atom_site_fract_z
Si Si1 0.602057 0.748852 0.117903
Si Si2 0.690431 0.452007 0.408134
Si Si3 0.862890 0.663205 0.383510
Si Si4 0.751095 0.399261 0.200467
O O1 0.662110 0.660688 0.146916
O O2 0.498954 0.748899 0.154267
O O3 0.599884 0.750000 0.000000
O O4 0.750000 0.481981 0.500000
O O5 0.626686 0.373315 0.445291
O O6 0.629243 0.535997 0.369685
O O7 0.746850 0.414700 0.317346
O O8 0.871672 0.767105 0.346343
O O9 0.845507 0.654494 0.500000
O O10 0.662319 0.337682 0.176139
O O11 0.838265 0.338265 0.174714
#
# Coordination Sequence:
#
# PCOD9563157 Si02
#       4
#    16  16  16  16
#     4   9  20  42  70  97 124 155 195 247 310 379
#     4  11  22  37  56  78 110 157 207 248 290 338
#     4   9  17  34  53  72 101 135 179 239 302 348
#     4  10  23  41  59  87 127 167 210 257 306 366
#
# _framework density 21.39659
#
# number of rings (size 3 to 8) (size 9 to 14) (size 15 to 20)
#    0.000    2.250    2.500    2.250    0.000    5.750 
#    0.000    8.750    0.000    0.000    0.000    0.000 
#    0.000    0.000    0.000    0.000    0.000    0.000 
#
# Total GULP energy -356656.913639 kJ/mol
# GULP energy per Si atom -5572.764276 kJ/mol
# Density = 2.134789 g / cm^3
# Si number density = 21.396590 Si / 1000 Ang^3
#
#
#
# Elastic Constant Matrix: (Units=GPa)
#
#
# Indices 1 2 3 4 5 6 
#
# 1 154.8061 85.5854 40.2208 0.0000 0.0000 0.0000
# 2 85.5854 154.8064 40.2209 0.0000 0.0000 0.0000
# 3 40.2208 40.2209 60.8026 0.0000 0.0000 0.0000
# 4 0.0000 0.0000 0.0000 31.1633 0.0000 0.0000
# 5 0.0000 0.0000 0.0000 0.0000 31.1632 0.0000
# 6 0.0000 0.0000 0.0000 0.0000 0.0000 1.7719
#
#
#
# Elastic Compliance Matrix: (Units=1/GPa)
#
#
# Indices 1 2 3 4 5 6 
#
# 1 0.009895 -0.004552 -0.003534 0.000000 0.000000 0.000000
# 2 -0.004552 0.009894 -0.003534 0.000000 0.000000 0.000000
# 3 -0.003534 -0.003534 0.021122 0.000000 0.000000 0.000000
# 4 0.000000 0.000000 0.000000 0.032089 0.000000 0.000000
# 5 0.000000 0.000000 0.000000 0.000000 0.032089 0.000000
# 6 0.000000 0.000000 0.000000 0.000000 0.000000 0.564361
#
#
# Mechanical properties :
#
#
# Convention : Reuss Voigt Hill
#
# Bulk Modulus (GPa) = 56.58997 78.05215 67.32106
# Shear Modulus (GPa) = 7.15737 26.44554 16.80145
#
# Velocity S-wave (km/s) = 1.83095 3.51945 2.80525
# Velocity P-wave (km/s) = 5.56555 7.28515 6.48262
#
# Compressibility (1/GPa) = 0.01767098
#
# Stress axis : x y z
#
# Youngs Moduli (GPa) = 101.06623 101.06644 47.34358
#
# Poissons Ratio (x) = 0.46006 0.16731
# Poissons Ratio (y) = 0.46006 0.16731
# Poissons Ratio (z) = 0.35717 0.35717
#
# Static dielectric constant tensor:
#      x y z
#    x 1.784510 0.000000 0.000000 
#    y 0.000000 1.784510 0.000000 
#    z 0.000000 0.000000 1.841860 
# 
# From -- ./inp_files/4624.got.cif
#   From: 2010.05.17/outbox.cif.g08.bks.cpg/sg125_3_cif.got.tgz:4624.got - 2010.05.20 11:54:10.
