data_PCOD9563585
_publ_section_title
;
Structure prediction by ZEFSAII (Michael W. Deem and Ramdas Pophale) SiO2 
 PCOD9563585
Probable space group: P 4/N N C
;
_chemical_formula_sum "Si O2"
_cell_formula_units_Z 88
_cell_length_a 13.227763
_cell_length_b 13.227763
_cell_length_c 27.511920
_cell_angle_alpha 90.000000
_cell_angle_beta 90.000000
_cell_angle_gamma 90.000000
_cell_volume 4813.862821
_symmetry_space_group_name_H-M "P 4/N N C"
_symmetry_group_IT_number 126
_space_group.IT_coordinate_system_code '2'
_symmetry_cell_setting 'tetragonal'
loop_
_space_group_symop_operation_xyz
x,y,z
1/2-y,x,z
1/2-x,1/2-y,z
y,1/2-x,z
x,1/2-y,1/2-z
1/2-x,y,1/2-z
y,x,1/2-z
1/2-y,1/2-x,1/2-z
-x,-y,-z
1/2+y,-x,-z
1/2+x,1/2+y,-z
-y,1/2+x,-z
-x,1/2+y,1/2+z
1/2+x,-y,1/2+z
-y,-x,1/2+z
1/2+y,1/2+x,1/2+z
loop_
_atom_site_type_symbol
_atom_site_label
_atom_site_fract_x
_atom_site_fract_y
_atom_site_fract_z
Si Si1 0.750000 0.100846 0.132371
Si Si2 0.250000 0.079881 0.438233
Si Si3 0.750000 0.411077 0.483410
Si Si4 0.250000 0.418558 0.801611
Si Si5 0.430945 0.750000 0.654639
Si Si6 0.750000 0.576084 0.750000
O O1 0.750000 0.093397 0.074488
O O2 0.648510 0.157175 0.150814
O O3 0.851490 0.157175 0.150814
O O4 0.750000 0.990692 0.153725
O O5 0.347639 0.152360 0.435344
O O6 0.250000 0.016706 0.488336
O O7 0.250000 0.002105 0.393052
O O8 0.847692 0.347692 0.500000
O O9 0.153698 0.346302 0.802369
O O10 0.250000 0.476085 0.750000
O O11 0.502998 0.750000 0.702259
O O12 0.848205 0.651796 0.750000
#
# Coordination Sequence:
#
# PCOD9563585 Si02
#       6
#    16  16  16  16  16   8
#     4  11  23  39  68  96 122 158 206 264 310 369
#     4  11  24  41  62  91 128 167 209 256 306 369
#     4  11  20  43  65  88 124 161 203 253 314 366
#     4   9  21  41  61  87 125 161 196 247 309 372
#     4  11  23  43  63  92 126 161 206 259 310 361
#     4  11  26  45  64  90 130 173 212 257 306 370
#
# _framework density 18.280538
#
# number of rings (size 3 to 8) (size 9 to 14) (size 15 to 20)
#    0.000    1.364    3.636    2.727    2.545    7.273 
#    0.000    1.818    0.000    0.000    0.000    0.000 
#    0.000    0.000    0.000    0.000    0.000    0.000 
#
# Total GULP energy -491032.792868 kJ/mol
# GULP energy per Si atom -5579.918101 kJ/mol
# Density = 1.823893 g / cm^3
# Si number density = 18.280538 Si / 1000 Ang^3
#
#
#
# Elastic Constant Matrix: (Units=GPa)
#
#
# Indices 1 2 3 4 5 6 
#
# 1 115.8639 49.2170 59.0256 0.0000 0.0000 0.0000
# 2 49.2170 115.8642 59.0256 0.0000 0.0000 0.0000
# 3 59.0256 59.0256 155.8751 0.0000 0.0000 0.0000
# 4 0.0000 0.0000 0.0000 36.4533 0.0000 0.0000
# 5 0.0000 0.0000 0.0000 0.0000 36.4536 0.0000
# 6 0.0000 0.0000 0.0000 0.0000 0.0000 1.7615
#
#
#
# Elastic Compliance Matrix: (Units=1/GPa)
#
#
# Indices 1 2 3 4 5 6 
#
# 1 0.011656 -0.003349 -0.003146 0.000000 0.000000 0.000000
# 2 -0.003349 0.011656 -0.003146 0.000000 0.000000 0.000000
# 3 -0.003146 -0.003146 0.008798 0.000000 0.000000 0.000000
# 4 0.000000 0.000000 0.000000 0.027432 0.000000 0.000000
# 5 0.000000 0.000000 0.000000 0.000000 0.027432 0.000000
# 6 0.000000 0.000000 0.000000 0.000000 0.000000 0.567713
#
#
# Mechanical properties :
#
#
# Convention : Reuss Voigt Hill
#
# Bulk Modulus (GPa) = 77.94653 80.23772 79.09213
# Shear Modulus (GPa) = 7.37198 29.62266 18.49732
#
# Velocity S-wave (km/s) = 2.01034 4.02985 3.18442
# Velocity P-wave (km/s) = 6.93688 8.10189 7.54191
#
# Compressibility (1/GPa) = 0.01282931
#
# Stress axis : x y z
#
# Youngs Moduli (GPa) = 85.79419 85.79446 113.66522
#
# Poissons Ratio (x) = 0.28729 0.35756
# Poissons Ratio (y) = 0.28729 0.35755
# Poissons Ratio (z) = 0.26988 0.26988
#
# Static dielectric constant tensor:
#      x y z
#    x 1.619360 0.000000 0.000000 
#    y 0.000000 1.619360 0.000000 
#    z 0.000000 0.000000 1.580130 
# 
# From -- ./inp_files/6555.got.cif
#   From: 2010.05.17/outbox.cif.g08.bks.cpg/sg126_4_cif.got.tgz:6555.got - 2010.05.20 11:58:20.
