data_PCOD9563961
_publ_section_title
;
Structure prediction by ZEFSAII (Michael W. Deem and Ramdas Pophale) SiO2 
 PCOD9563961
Probable space group: P 4/M B M
;
_chemical_formula_sum "Si O2"
_cell_formula_units_Z 72
_cell_length_a 14.204053
_cell_length_b 14.204053
_cell_length_c 17.293600
_cell_angle_alpha 90.000000
_cell_angle_beta 90.000000
_cell_angle_gamma 90.000000
_cell_volume 3489.072371
_symmetry_space_group_name_H-M "P 4/M B M"
_symmetry_group_IT_number 127
_symmetry_cell_setting 'tetragonal'
loop_
_space_group_symop_operation_xyz
x,y,z
-y,x,z
-x,-y,z
y,-x,z
1/2+x,1/2-y,-z
1/2-x,1/2+y,-z
1/2+y,1/2+x,-z
1/2-y,1/2-x,-z
-x,-y,-z
y,-x,-z
x,y,-z
-y,x,-z
1/2-x,1/2+y,z
1/2+x,1/2-y,z
1/2-y,1/2-x,z
1/2+y,1/2+x,z
loop_
_atom_site_type_symbol
_atom_site_label
_atom_site_fract_x
_atom_site_fract_y
_atom_site_fract_z
Si Si1 0.758167 0.741834 0.410050
Si Si2 0.134283 0.134243 0.806113
Si Si3 0.511403 0.724453 0.911011
Si Si4 0.077243 0.422758 0.129050
Si Si5 0.838980 0.661021 0.734293
Si Si6 0.579423 0.628800 0.635494
O O1 0.773071 0.726930 0.500000
O O2 0.824636 0.675365 0.356521
O O3 0.788298 0.849526 0.389361
O O4 0.223547 0.103747 0.857325
O O5 0.138482 0.236693 0.768214
O O6 0.129915 0.071111 0.729263
O O7 0.050718 0.144007 0.868526
O O8 0.456171 0.822780 0.904431
O O9 0.530918 0.704076 0.000000
O O10 0.091048 0.408953 0.221948
O O11 0.000000 0.500000 0.111188
O O12 0.470723 0.626048 0.609267
#
# Coordination Sequence:
#
# PCOD9563961 Si02
#       6
#     8  16  16   8   8  16
#     4  10  22  40  65  97 130 159 199 259 327 388
#     4  10  19  36  55  83 115 153 199 243 294 362
#     4  11  22  35  55  84 119 155 199 258 310 348
#     4  10  23  42  60  81 115 159 216 254 297 375
#     4   8  20  39  60  82 114 154 191 241 298 361
#     4  10  20  39  67  94 125 167 212 258 308 381
#
# _framework density 20.635857000000001
#
# number of rings (size 3 to 8) (size 9 to 14) (size 15 to 20)
#    0.000    2.000    2.222    1.000    1.556    2.222 
#    0.000    3.333    0.000    0.333    0.000    0.000 
#    0.000    0.000    0.000    0.000    0.000    0.000 
#
# Total GULP energy -401124.268503 kJ/mol
# GULP energy per Si atom -5571.170396 kJ/mol
# Density = 2.058889 g / cm^3
# Si number density = 20.635857 Si / 1000 Ang^3
#
#
#
# Elastic Constant Matrix: (Units=GPa)
#
#
# Indices 1 2 3 4 5 6 
#
# 1 47.1535 58.3092 19.1878 0.0000 0.0000 0.0000
# 2 58.3092 47.1536 19.1878 0.0000 0.0000 0.0000
# 3 19.1878 19.1878 143.8668 0.0000 0.0000 0.0000
# 4 0.0000 0.0000 0.0000 4.0063 0.0000 0.0000
# 5 0.0000 0.0000 0.0000 0.0000 4.0063 0.0000
# 6 0.0000 0.0000 0.0000 0.0000 0.0000 42.0411
#
#
#
# Elastic Compliance Matrix: (Units=1/GPa)
#
#
# Indices 1 2 3 4 5 6 
#
# 1 -0.039838 0.049803 -0.001329 0.000000 0.000000 0.000000
# 2 0.049803 -0.039838 -0.001329 0.000000 0.000000 0.000000
# 3 -0.001329 -0.001329 0.007305 0.000000 0.000000 0.000000
# 4 0.000000 0.000000 0.000000 0.249609 0.000000 0.000000
# 5 0.000000 0.000000 0.000000 0.000000 0.249608 0.000000
# 6 0.000000 0.000000 0.000000 0.000000 0.000000 0.023786
#
#
# Mechanical properties :
#
#
# Convention : Reuss Voigt Hill
#
# Bulk Modulus (GPa) = 45.62006 47.94928 46.78467
# Shear Modulus (GPa) = 13.74951 19.44335 16.59643
#
# Velocity S-wave (km/s) = 2.58406 3.07288 2.83901
# Velocity P-wave (km/s) = 5.57300 5.98969 5.78510
#
# Compressibility (1/GPa) = 0.02192018
#
# Stress axis : x y z
#
# Youngs Moduli (GPa) = -25.10179 -25.10185 136.88474
#
# Poissons Ratio (x) = 1.25016 0.18194
# Poissons Ratio (y) = 1.25015 0.18194
# Poissons Ratio (z) = -0.03336 -0.03336
#
# Static dielectric constant tensor:
#      x y z
#    x 1.822460 0.000000 0.000000 
#    y 0.000000 1.822470 0.000000 
#    z 0.000000 0.000000 1.765320 
# 
# From -- ./inp_files/4991.got.cif
#   From: 2010.05.17/outbox.cif.g08.bks.cpg/sg127_3_cif.got.tgz:4991.got - 2010.05.20 12:03:00.
