data_PCOD9563774
_publ_section_title
;
Structure prediction by ZEFSAII (Michael W. Deem and Ramdas Pophale) SiO2 
 PCOD9563774
Probable space group: P 4/M B M
;
_chemical_formula_sum "Si O2"
_cell_formula_units_Z 72
_cell_length_a 23.815221
_cell_length_b 23.815221
_cell_length_c 7.849997
_cell_angle_alpha 90.000000
_cell_angle_beta 90.000000
_cell_angle_gamma 90.000000
_cell_volume 4452.241596
_symmetry_space_group_name_H-M "P 4/M B M"
_symmetry_group_IT_number 127
_symmetry_cell_setting 'tetragonal'
loop_
_space_group_symop_operation_xyz
x,y,z
-y,x,z
-x,-y,z
y,-x,z
1/2+x,1/2-y,-z
1/2-x,1/2+y,-z
1/2+y,1/2+x,-z
1/2-y,1/2-x,-z
-x,-y,-z
y,-x,-z
x,y,-z
-y,x,-z
1/2-x,1/2+y,z
1/2+x,1/2-y,z
1/2-y,1/2-x,z
1/2+y,1/2+x,z
loop_
_atom_site_type_symbol
_atom_site_label
_atom_site_fract_x
_atom_site_fract_y
_atom_site_fract_z
Si Si1 0.189811 0.689811 0.793297
Si Si2 0.171195 0.990273 0.305991
Si Si3 0.092141 0.013361 0.000000
Si Si4 0.219438 0.280563 0.304247
Si Si5 0.360233 0.688039 0.293642
Si Si6 0.268504 0.593482 0.798756
O O1 0.232616 0.732616 0.703942
O O2 0.212779 0.628385 0.749187
O O3 0.196193 0.696193 0.000000
O O4 0.149811 0.989276 0.500000
O O5 0.183152 0.926017 0.252975
O O6 0.221918 0.034788 0.295339
O O7 0.128140 0.015550 0.170573
O O8 0.061086 0.953967 0.000000
O O9 0.205467 0.294534 0.500000
O O10 0.253151 0.333412 0.228977
O O11 0.355815 0.687908 0.500000
O O12 0.320969 0.636553 0.232304
O O13 0.266063 0.582279 0.000000
#
# Coordination Sequence:
#
# PCOD9563774 Si02
#       6
#     8  16   8   8  16  16
#     4   8  16  28  44  68  92 115 146 187 233 281
#     4  11  22  34  49  70  94 122 158 200 238 275
#     4  11  24  38  50  64  86 124 166 203 240 274
#     4   8  14  28  46  66  90 117 148 183 233 287
#     4   9  18  30  47  68  92 121 154 193 235 282
#     4  10  18  30  48  68  93 122 154 192 235 283
#
# _framework density 16.171627999999998
#
# number of rings (size 3 to 8) (size 9 to 14) (size 15 to 20)
#    0.000    2.333    1.111    2.000    1.556    3.556 
#    0.000    1.111    0.000    0.000    0.000    0.000 
#    0.000    0.889    0.000   11.111    0.000    0.889 
#
# Total GULP energy -401023.811409 kJ/mol
# GULP energy per Si atom -5569.775158 kJ/mol
# Density = 1.613482 g / cm^3
# Si number density = 16.171628 Si / 1000 Ang^3
#
#
#
# Elastic Constant Matrix: (Units=GPa)
#
#
# Indices 1 2 3 4 5 6 
#
# 1 43.5480 12.6208 5.6629 0.0000 0.0000 0.0000
# 2 12.6208 43.5480 5.6630 0.0000 0.0000 0.0000
# 3 5.6629 5.6630 44.9244 0.0000 0.0000 0.0000
# 4 0.0000 0.0000 0.0000 4.2125 0.0000 0.0000
# 5 0.0000 0.0000 0.0000 0.0000 4.2125 0.0000
# 6 0.0000 0.0000 0.0000 0.0000 0.0000 151.7347
#
#
#
# Elastic Compliance Matrix: (Units=1/GPa)
#
#
# Indices 1 2 3 4 5 6 
#
# 1 0.025301 -0.007033 -0.002303 0.000000 0.000000 0.000000
# 2 -0.007033 0.025301 -0.002303 0.000000 0.000000 0.000000
# 3 -0.002303 -0.002303 0.022840 0.000000 0.000000 0.000000
# 4 0.000000 0.000000 0.000000 0.237390 0.000000 0.000000
# 5 0.000000 0.000000 0.000000 0.000000 0.237391 0.000000
# 6 0.000000 0.000000 0.000000 0.000000 0.000000 0.006590
#
#
# Mechanical properties :
#
#
# Convention : Reuss Voigt Hill
#
# Bulk Modulus (GPa) = 19.93432 19.99043 19.96237
# Shear Modulus (GPa) = 8.40601 39.23684 23.82143
#
# Velocity S-wave (km/s) = 2.28239 4.93107 3.84218
# Velocity P-wave (km/s) = 4.39309 6.69394 5.66163
#
# Compressibility (1/GPa) = 0.05016475
#
# Stress axis : x y z
#
# Youngs Moduli (GPa) = 39.52432 39.52429 43.78250
#
# Poissons Ratio (x) = 0.27798 0.10082
# Poissons Ratio (y) = 0.27798 0.10082
# Poissons Ratio (z) = 0.09101 0.09102
#
# Static dielectric constant tensor:
#      x y z
#    x 1.567850 0.000000 0.000000 
#    y 0.000000 1.567850 0.000000 
#    z 0.000000 0.000000 1.565970 
# 
# From -- ./inp_files/1778.got.cif
#   From: 2010.05.17/outbox.cif.g08.bks.cpg/sg127_1_cif.got.tgz:1778.got - 2010.05.20 12:03:00.
