data_PCOD9563984
_publ_section_title
;
Structure prediction by ZEFSAII (Michael W. Deem and Ramdas Pophale) SiO2 
 PCOD9563984
Probable space group: P 4/M B M
;
_chemical_formula_sum "Si O2"
_cell_formula_units_Z 96
_cell_length_a 25.760041
_cell_length_b 25.760041
_cell_length_c 8.972622
_cell_angle_alpha 90.000000
_cell_angle_beta 90.000000
_cell_angle_gamma 90.000000
_cell_volume 5954.049926
_symmetry_space_group_name_H-M "P 4/M B M"
_symmetry_group_IT_number 127
_symmetry_cell_setting 'tetragonal'
loop_
_space_group_symop_operation_xyz
x,y,z
-y,x,z
-x,-y,z
y,-x,z
1/2+x,1/2-y,-z
1/2-x,1/2+y,-z
1/2+y,1/2+x,-z
1/2-y,1/2-x,-z
-x,-y,-z
y,-x,-z
x,y,-z
-y,x,-z
1/2-x,1/2+y,z
1/2+x,1/2-y,z
1/2-y,1/2-x,z
1/2+y,1/2+x,z
loop_
_atom_site_type_symbol
_atom_site_label
_atom_site_fract_x
_atom_site_fract_y
_atom_site_fract_z
Si Si1 0.391712 0.306466 0.677247
Si Si2 0.811616 0.113889 0.179391
Si Si3 0.313021 0.502020 0.170721
Si Si4 0.801803 0.612334 0.322795
Si Si5 0.107037 0.692855 0.820162
Si Si6 0.007314 0.312700 0.829546
O O1 0.387037 0.306286 0.500000
O O2 0.349004 0.343411 0.751017
O O3 0.449061 0.325430 0.727141
O O4 0.385532 0.248030 0.740697
O O5 0.830707 0.055346 0.218069
O O6 0.753257 0.120023 0.241309
O O7 0.810572 0.117265 0.000000
O O8 0.250195 0.497349 0.169049
O O9 0.329512 0.512274 0.000000
O O10 0.793192 0.611494 0.500000
O O11 0.841751 0.658250 0.286589
O O12 0.824609 0.556896 0.270411
O O13 0.152610 0.652610 0.785833
O O14 0.050083 0.670294 0.779922
O O15 0.105950 0.701406 0.000000
O O16 0.016637 0.329538 0.000000
#
# Coordination Sequence:
#
# PCOD9563984 Si02
#       6
#    16  16  16  16  16  16
#     4  11  21  31  48  74 102 128 154 191 238 285
#     4  10  20  34  52  71  94 127 163 197 233 276
#     4   8  16  32  51  69  90 121 162 199 230 273
#     4  10  20  32  47  70  99 127 156 194 240 287
#     4   9  18  33  51  70  95 127 161 197 236 279
#     4   8  15  29  49  70  90 119 161 200 233 276
#
# _framework density 16.123480000000001
#
# number of rings (size 3 to 8) (size 9 to 14) (size 15 to 20)
#    0.000    2.667    0.000    4.500    0.000    9.000 
#    0.000    0.000    0.000    1.000    0.000    7.000 
#    0.000    0.000    0.000    0.000    0.000    0.000 
#
# Total GULP energy -534861.689742 kJ/mol
# GULP energy per Si atom -5571.475935 kJ/mol
# Density = 1.608678 g / cm^3
# Si number density = 16.123480 Si / 1000 Ang^3
#
#
#
# Elastic Constant Matrix: (Units=GPa)
#
#
# Indices 1 2 3 4 5 6 
#
# 1 101.4801 68.8106 59.8680 0.0000 0.0000 0.0000
# 2 68.8106 101.4801 59.8680 0.0000 0.0000 0.0000
# 3 59.8680 59.8680 76.2666 0.0000 0.0000 0.0000
# 4 0.0000 0.0000 0.0000 16.4461 0.0000 0.0000
# 5 0.0000 0.0000 0.0000 0.0000 16.4461 0.0000
# 6 0.0000 0.0000 0.0000 0.0000 0.0000 -3.9650
#
#
#
# Elastic Compliance Matrix: (Units=1/GPa)
#
#
# Indices 1 2 3 4 5 6 
#
# 1 0.021858 -0.008752 -0.010288 0.000000 0.000000 0.000000
# 2 -0.008752 0.021858 -0.010288 0.000000 0.000000 0.000000
# 3 -0.010288 -0.010288 0.029264 0.000000 0.000000 0.000000
# 4 0.000000 0.000000 0.000000 0.060805 0.000000 0.000000
# 5 0.000000 0.000000 0.000000 0.000000 0.060805 0.000000
# 6 0.000000 0.000000 0.000000 0.000000 0.000000 -0.252206
#
#
# Mechanical properties :
#
#
# Convention : Reuss Voigt Hill
#
# Bulk Modulus (GPa) = 69.81411 72.92444 71.36928
# Shear Modulus (GPa) = 860.08427 11.83080 435.95753
#
# Velocity S-wave (km/s) = 23.12129 2.71174 16.46128
# Velocity P-wave (km/s) = 27.49883 7.42507 20.14097
#
# Compressibility (1/GPa) = 0.01432375
#
# Stress axis : x y z
#
# Youngs Moduli (GPa) = 45.75017 45.75017 34.17185
#
# Poissons Ratio (x) = 0.40039 0.35156
# Poissons Ratio (y) = 0.40039 0.35156
# Poissons Ratio (z) = 0.47068 0.47068
#
# Static dielectric constant tensor:
#      x y z
#    x 1.540570 0.000000 0.000000 
#    y 0.000000 1.540570 0.000000 
#    z 0.000000 0.000000 1.538100 
# 
# From -- ./inp_files/1928.got.cif
#   From: 2010.05.17/outbox.cif.g08.bks.cpg/sg127_1_cif.got.tgz:1928.got - 2010.05.20 12:03:00.
