data_PCOD9563410
_publ_section_title
;
Structure prediction by ZEFSAII (Michael W. Deem and Ramdas Pophale) SiO2 
 PCOD9563410
Probable space group: P 4/N N C
;
_chemical_formula_sum "Si O2"
_cell_formula_units_Z 48
_cell_length_a 22.537029
_cell_length_b 22.537029
_cell_length_c 4.893878
_cell_angle_alpha 90.000000
_cell_angle_beta 90.000000
_cell_angle_gamma 90.000000
_cell_volume 2485.687141
_symmetry_space_group_name_H-M "P 4/N N C"
_symmetry_group_IT_number 126
_space_group.IT_coordinate_system_code '2'
_symmetry_cell_setting 'tetragonal'
loop_
_space_group_symop_operation_xyz
x,y,z
1/2-y,x,z
1/2-x,1/2-y,z
y,1/2-x,z
x,1/2-y,1/2-z
1/2-x,y,1/2-z
y,x,1/2-z
1/2-y,1/2-x,1/2-z
-x,-y,-z
1/2+y,-x,-z
1/2+x,1/2+y,-z
-y,1/2+x,-z
-x,1/2+y,1/2+z
1/2+x,-y,1/2+z
-y,-x,1/2+z
1/2+y,1/2+x,1/2+z
loop_
_atom_site_type_symbol
_atom_site_label
_atom_site_fract_x
_atom_site_fract_y
_atom_site_fract_z
Si Si1 0.250000 0.955319 0.750000
Si Si2 0.539626 0.750000 0.750000
Si Si3 0.929861 0.627962 0.500549
Si Si4 0.431582 0.625817 0.057585
O O1 0.270916 0.997405 0.499270
O O2 0.305757 0.919645 0.865876
O O3 0.574493 0.805510 0.623423
O O4 0.915318 0.584683 0.750000
O O5 0.997714 0.618871 0.406182
O O6 0.886705 0.613296 0.250000
O O7 0.392730 0.584701 0.252944
#
# Coordination Sequence:
#
# PCOD9563410 Si02
#       4
#     8   8  16  16
#     4  10  20  38  58  77 110 157 202 228 266 344
#     4  10  20  38  58  79 112 157 198 226 270 346
#     4  11  22  36  57  86 118 152 189 235 289 343
#     4  11  22  36  57  84 115 151 187 232 287 340
#
# _framework density 19.310555999999998
#
# number of rings (size 3 to 8) (size 9 to 14) (size 15 to 20)
#    0.000    1.333    0.000   10.000    0.000    4.000 
#    0.000    0.000    0.000    3.500    0.000   11.667 
#    0.000    0.000    0.000    0.000    0.000    0.000 
#
# Total GULP energy -268041.913836 kJ/mol
# GULP energy per Si atom -5584.206538 kJ/mol
# Density = 1.926660 g / cm^3
# Si number density = 19.310556 Si / 1000 Ang^3
#
#
#
# Elastic Constant Matrix: (Units=GPa)
#
#
# Indices 1 2 3 4 5 6 
#
# 1 73.4827 45.8035 16.5425 0.0000 0.0000 0.0000
# 2 45.8035 73.4843 16.5433 0.0000 0.0000 0.0000
# 3 16.5425 16.5433 97.2071 0.0000 0.0000 0.0000
# 4 0.0000 0.0000 0.0000 39.7790 0.0000 0.0000
# 5 0.0000 0.0000 0.0000 0.0000 39.7786 0.0000
# 6 0.0000 0.0000 0.0000 0.0000 0.0000 -19.6841
#
#
#
# Elastic Compliance Matrix: (Units=1/GPa)
#
#
# Indices 1 2 3 4 5 6 
#
# 1 0.022463 -0.013664 -0.001497 0.000000 0.000000 0.000000
# 2 -0.013664 0.022463 -0.001497 0.000000 0.000000 0.000000
# 3 -0.001497 -0.001497 0.010797 0.000000 0.000000 0.000000
# 4 0.000000 0.000000 0.000000 0.025139 0.000000 0.000000
# 5 0.000000 0.000000 0.000000 0.000000 0.025139 0.000000
# 6 0.000000 0.000000 0.000000 0.000000 0.000000 -0.050803
#
#
# Mechanical properties :
#
#
# Convention : Reuss Voigt Hill
#
# Bulk Modulus (GPa) = 44.63390 44.66142 44.64766
# Shear Modulus (GPa) = 52.09182 22.99369 37.54275
#
# Velocity S-wave (km/s) = 5.19946 3.45444 4.41404
# Velocity P-wave (km/s) = 7.69479 6.25213 7.01066
#
# Compressibility (1/GPa) = 0.02240450
#
# Stress axis : x y z
#
# Youngs Moduli (GPa) = 44.51757 44.51845 92.61874
#
# Poissons Ratio (x) = 0.60832 0.13867
# Poissons Ratio (y) = 0.60830 0.13869
# Poissons Ratio (z) = 0.06665 0.06666
#
# Static dielectric constant tensor:
#      x y z
#    x 1.682390 0.000000 0.000000 
#    y 0.000000 1.682390 0.000000 
#    z 0.000000 0.000000 1.699920 
# 
# From -- ./inp_files/308.got.cif
#   From: 2010.05.17/outbox.cif.g08.bks.cpg/sg126_1_cif.got.tgz:308.got - 2010.05.20 11:58:20.
