data_PCOD9563333
_publ_section_title
;
Structure prediction by ZEFSAII (Michael W. Deem and Ramdas Pophale) SiO2 
 PCOD9563333
Probable space group: P 4/N N C
;
_chemical_formula_sum "Si O2"
_cell_formula_units_Z 72
_cell_length_a 15.185846
_cell_length_b 15.185846
_cell_length_c 16.408252
_cell_angle_alpha 90.000000
_cell_angle_beta 90.000000
_cell_angle_gamma 90.000000
_cell_volume 3783.905660
_symmetry_space_group_name_H-M "P 4/N N C"
_symmetry_group_IT_number 126
_space_group.IT_coordinate_system_code '2'
_symmetry_cell_setting 'tetragonal'
loop_
_space_group_symop_operation_xyz
x,y,z
1/2-y,x,z
1/2-x,1/2-y,z
y,1/2-x,z
x,1/2-y,1/2-z
1/2-x,y,1/2-z
y,x,1/2-z
1/2-y,1/2-x,1/2-z
-x,-y,-z
1/2+y,-x,-z
1/2+x,1/2+y,-z
-y,1/2+x,-z
-x,1/2+y,1/2+z
1/2+x,-y,1/2+z
-y,-x,1/2+z
1/2+y,1/2+x,1/2+z
loop_
_atom_site_type_symbol
_atom_site_label
_atom_site_fract_x
_atom_site_fract_y
_atom_site_fract_z
Si Si1 0.424704 0.131779 0.341760
Si Si2 0.953573 0.968606 0.123557
Si Si3 0.662065 0.861182 0.494185
Si Si4 0.046347 0.750000 0.750000
Si Si5 0.852399 0.434461 0.233391
O O1 0.395628 0.104373 0.250000
O O2 0.349232 0.142219 0.408057
O O3 0.484737 0.217592 0.324753
O O4 0.483256 0.053456 0.380291
O O5 0.896979 0.935735 0.047741
O O6 0.013808 0.887369 0.154197
O O7 0.888455 0.003490 0.194030
O O8 0.630157 0.763499 0.468572
O O9 0.102792 0.662372 0.767639
O O10 0.750000 0.424105 0.250000
#
# Coordination Sequence:
#
# PCOD9563333 Si02
#       5
#    16  16  16   8  16
#     4  11  20  39  60  83 113 151 197 237 294 346
#     4  10  20  38  57  83 117 155 192 230 288 357
#     4  11  24  37  56  87 119 152 192 242 288 339
#     4  10  19  34  58  87 112 144 200 243 286 350
#     4  10  19  34  60  88 115 154 194 240 290 344
#
# _framework density 19.027958999999999
#
# number of rings (size 3 to 8) (size 9 to 14) (size 15 to 20)
#    0.000    1.556    4.444    3.667    0.000    0.000 
#    0.000    1.111    0.000    5.333    0.000    0.000 
#    0.000    0.000    0.000    0.000    0.000    0.000 
#
# Total GULP energy -401098.523973 kJ/mol
# GULP energy per Si atom -5570.812833 kJ/mol
# Density = 1.898465 g / cm^3
# Si number density = 19.027959 Si / 1000 Ang^3
#
#
#
# Elastic Constant Matrix: (Units=GPa)
#
#
# Indices 1 2 3 4 5 6 
#
# 1 96.4143 49.7222 30.5469 0.0000 0.0000 0.0000
# 2 49.7222 96.4142 30.5470 0.0000 0.0000 0.0000
# 3 30.5469 30.5470 65.5914 0.0000 0.0000 0.0000
# 4 0.0000 0.0000 0.0000 21.2469 0.0000 0.0000
# 5 0.0000 0.0000 0.0000 0.0000 21.2466 0.0000
# 6 0.0000 0.0000 0.0000 0.0000 0.0000 25.0045
#
#
#
# Elastic Compliance Matrix: (Units=1/GPa)
#
#
# Indices 1 2 3 4 5 6 
#
# 1 0.014957 -0.006460 -0.003957 0.000000 0.000000 0.000000
# 2 -0.006460 0.014957 -0.003957 0.000000 0.000000 0.000000
# 3 -0.003957 -0.003957 0.018932 0.000000 0.000000 0.000000
# 4 0.000000 0.000000 0.000000 0.047066 0.000000 0.000000
# 5 0.000000 0.000000 0.000000 0.000000 0.047066 0.000000
# 6 0.000000 0.000000 0.000000 0.000000 0.000000 0.039993
#
#
# Mechanical properties :
#
#
# Convention : Reuss Voigt Hill
#
# Bulk Modulus (GPa) = 49.75819 53.33910 51.54865
# Shear Modulus (GPa) = 22.89180 23.33987 23.11583
#
# Velocity S-wave (km/s) = 3.47228 3.50610 3.48923
# Velocity P-wave (km/s) = 6.50250 6.66957 6.58656
#
# Compressibility (1/GPa) = 0.02009720
#
# Stress axis : x y z
#
# Youngs Moduli (GPa) = 66.85784 66.85768 52.82096
#
# Poissons Ratio (x) = 0.43189 0.20903
# Poissons Ratio (y) = 0.43189 0.20903
# Poissons Ratio (z) = 0.26458 0.26458
#
# Static dielectric constant tensor:
#      x y z
#    x 1.680540 0.000000 0.000000 
#    y 0.000000 1.680540 0.000000 
#    z 0.000000 0.000000 1.673130 
# 
# From -- ./inp_files/4374.got.cif
#   From: 2010.05.17/outbox.cif.g08.bks.cpg/sg126_3_cif.got.tgz:4374.got - 2010.05.20 11:58:20.
