data_PCOD9563099
_publ_section_title
;
Structure prediction by ZEFSAII (Michael W. Deem and Ramdas Pophale) SiO2 
 PCOD9563099
Probable space group: P 4/N B M
;
_chemical_formula_sum "Si O2"
_cell_formula_units_Z 80
_cell_length_a 25.456377
_cell_length_b 25.456377
_cell_length_c 6.248285
_cell_angle_alpha 90.000000
_cell_angle_beta 90.000000
_cell_angle_gamma 90.000000
_cell_volume 4049.058196
_symmetry_space_group_name_H-M "P 4/N B M"
_symmetry_group_IT_number 125
_space_group.IT_coordinate_system_code '2'
_symmetry_cell_setting 'tetragonal'
loop_
_space_group_symop_operation_xyz
x,y,z
1/2-y,x,z
1/2-x,1/2-y,z
y,1/2-x,z
x,1/2-y,-z
1/2-x,y,-z
y,x,-z
1/2-y,1/2-x,-z
-x,-y,-z
1/2+y,-x,-z
1/2+x,1/2+y,-z
-y,1/2+x,-z
-x,1/2+y,z
1/2+x,-y,z
-y,-x,z
1/2+y,1/2+x,z
loop_
_atom_site_type_symbol
_atom_site_label
_atom_site_fract_x
_atom_site_fract_y
_atom_site_fract_z
Si Si1 0.181386 0.007715 0.133422
Si Si2 0.750000 0.039663 0.500000
Si Si3 0.914795 0.999363 0.559847
Si Si4 0.566732 0.346657 0.240796
Si Si5 0.382537 0.198568 0.902313
Si Si6 0.750000 0.840769 0.500000
O O1 0.127289 0.014708 0.261653
O O2 0.225456 0.995087 0.309555
O O3 0.192711 0.059272 0.994870
O O4 0.173929 0.957957 0.978669
O O5 0.702527 0.072982 0.600356
O O6 0.949488 0.949488 0.500000
O O7 0.883865 0.023232 0.356574
O O8 0.954905 0.045095 0.634344
O O9 0.618379 0.381622 0.212413
O O10 0.381015 0.218125 0.658317
O O11 0.354170 0.250000 0.000000
O O12 0.349921 0.150080 0.000000
O O13 0.701736 0.798265 0.500000
#
# Coordination Sequence:
#
# PCOD9563099 Si02
#       6
#    16   8  16  16  16   8
#     4  11  24  41  63  92 132 167 213 270 327 393
#     4  10  22  45  63  93 138 172 202 259 316 384
#     4   9  20  38  60  91 130 170 211 260 322 389
#     4  10  21  39  68  98 126 170 214 254 314 386
#     4  12  26  43  63  89 116 162 222 277 352 403
#     4  11  24  47  67  82 114 159 220 296 342 398
#
# _framework density 19.757683
#
# number of rings (size 3 to 8) (size 9 to 14) (size 15 to 20)
#    0.000    1.500    2.000    2.400    2.800    5.800 
#    0.000    3.000    0.000    0.300    0.000    0.000 
#    0.000    0.000    0.000    0.000    0.000    0.000 
#
# Total GULP energy -445672.968380 kJ/mol
# GULP energy per Si atom -5570.912105 kJ/mol
# Density = 1.971271 g / cm^3
# Si number density = 19.757683 Si / 1000 Ang^3
#
#
#
# Elastic Constant Matrix: (Units=GPa)
#
#
# Indices 1 2 3 4 5 6 
#
# 1 120.2263 64.5809 70.0618 0.0000 0.0000 0.0000
# 2 64.5809 120.2274 70.0620 0.0000 0.0000 0.0000
# 3 70.0618 70.0620 110.4727 0.0000 0.0000 0.0000
# 4 0.0000 0.0000 0.0000 21.4926 0.0000 0.0000
# 5 0.0000 0.0000 0.0000 0.0000 21.4785 0.0000
# 6 0.0000 0.0000 0.0000 0.0000 0.0000 20.9993
#
#
#
# Elastic Compliance Matrix: (Units=1/GPa)
#
#
# Indices 1 2 3 4 5 6 
#
# 1 0.014197 -0.003774 -0.006610 0.000000 0.000000 0.000000
# 2 -0.003774 0.014197 -0.006610 0.000000 0.000000 0.000000
# 3 -0.006610 -0.006610 0.017437 0.000000 0.000000 0.000000
# 4 0.000000 0.000000 0.000000 0.046528 0.000000 0.000000
# 5 0.000000 0.000000 0.000000 0.000000 0.046558 0.000000
# 6 0.000000 0.000000 0.000000 0.000000 0.000000 0.047621
#
#
# Mechanical properties :
#
#
# Convention : Reuss Voigt Hill
#
# Bulk Modulus (GPa) = 84.44943 84.48177 84.46560
# Shear Modulus (GPa) = 22.27441 22.54220 22.40830
#
# Velocity S-wave (km/s) = 3.36129 3.38144 3.37138
# Velocity P-wave (km/s) = 7.60919 7.62215 7.61567
#
# Compressibility (1/GPa) = 0.01184141
#
# Stress axis : x y z
#
# Youngs Moduli (GPa) = 70.43752 70.43823 57.35078
#
# Poissons Ratio (x) = 0.26582 0.37911
# Poissons Ratio (y) = 0.26582 0.37911
# Poissons Ratio (z) = 0.46562 0.46562
#
# Static dielectric constant tensor:
#      x y z
#    x 1.690070 0.000000 0.000000 
#    y 0.000000 1.690070 0.000000 
#    z 0.000000 0.000000 1.606180 
# 
# From -- ./inp_files/1196.got.cif
#   From: 2010.05.17/outbox.cif.g08.bks.cpg/sg125_1_cif.got.tgz:1196.got - 2010.05.20 11:54:10.
