data_PCOD9563791
_publ_section_title
;
Structure prediction by ZEFSAII (Michael W. Deem and Ramdas Pophale) SiO2 
 PCOD9563791
Probable space group: P 4/M B M
;
_chemical_formula_sum "Si O2"
_cell_formula_units_Z 96
_cell_length_a 20.209915
_cell_length_b 20.209915
_cell_length_c 14.032056
_cell_angle_alpha 90.000000
_cell_angle_beta 90.000000
_cell_angle_gamma 90.000000
_cell_volume 5731.262274
_symmetry_space_group_name_H-M "P 4/M B M"
_symmetry_group_IT_number 127
_symmetry_cell_setting 'tetragonal'
loop_
_space_group_symop_operation_xyz
x,y,z
-y,x,z
-x,-y,z
y,-x,z
1/2+x,1/2-y,-z
1/2-x,1/2+y,-z
1/2+y,1/2+x,-z
1/2-y,1/2-x,-z
-x,-y,-z
y,-x,-z
x,y,-z
-y,x,-z
1/2-x,1/2+y,z
1/2+x,1/2-y,z
1/2-y,1/2-x,z
1/2+y,1/2+x,z
loop_
_atom_site_type_symbol
_atom_site_label
_atom_site_fract_x
_atom_site_fract_y
_atom_site_fract_z
Si Si1 0.240809 0.629686 0.712827
Si Si2 0.444222 0.694129 0.888168
Si Si3 0.334764 0.721507 0.393545
Si Si4 0.190278 0.417794 0.743481
Si Si5 0.531185 0.857662 0.387874
Si Si6 0.907121 0.174958 0.112055
O O1 0.188987 0.688987 0.726894
O O2 0.304337 0.658507 0.658556
O O3 0.203698 0.576888 0.646225
O O4 0.265018 0.605549 0.815486
O O5 0.442013 0.762146 0.828224
O O6 0.515242 0.658781 0.875036
O O7 0.384389 0.643811 0.864849
O O8 0.438045 0.710298 0.000000
O O9 0.356353 0.706121 0.500000
O O10 0.274813 0.774813 0.398401
O O11 0.390779 0.757569 0.334013
O O12 0.142684 0.357317 0.773869
O O13 0.146146 0.471244 0.686863
O O14 0.512080 0.852043 0.500000
O O15 0.576662 0.923339 0.378884
O O16 0.897603 0.191776 0.000000
#
# Coordination Sequence:
#
# PCOD9563791 Si02
#       6
#    16  16  16  16  16  16
#     4  10  18  31  52  78 107 140 177 221 270 318
#     4  10  21  37  57  82 108 137 174 216 268 324
#     4   9  17  29  47  74 105 134 168 214 265 314
#     4  11  21  34  54  79 108 141 179 224 269 315
#     4  10  21  36  54  77 108 147 187 224 263 312
#     4  10  20  35  56  80 107 137 173 217 265 322
#
# _framework density 16.750236999999998
#
# number of rings (size 3 to 8) (size 9 to 14) (size 15 to 20)
#    0.000    2.000    3.333    1.000    0.000    4.333 
#    0.000    4.167    0.000    0.500    0.000    1.167 
#    0.000    2.667    0.000    0.000    0.000    0.000 
#
# Total GULP energy -534690.809490 kJ/mol
# GULP energy per Si atom -5569.695932 kJ/mol
# Density = 1.671211 g / cm^3
# Si number density = 16.750237 Si / 1000 Ang^3
#
#
#
# Elastic Constant Matrix: (Units=GPa)
#
#
# Indices 1 2 3 4 5 6 
#
# 1 60.2033 17.0446 29.5990 0.0000 0.0000 0.0000
# 2 17.0446 60.2033 29.5990 0.0000 0.0000 0.0000
# 3 29.5990 29.5990 78.2857 0.0000 0.0000 0.0000
# 4 0.0000 0.0000 0.0000 23.6011 0.0000 0.0000
# 5 0.0000 0.0000 0.0000 0.0000 23.6011 0.0000
# 6 0.0000 0.0000 0.0000 0.0000 0.0000 14.0638
#
#
#
# Elastic Compliance Matrix: (Units=1/GPa)
#
#
# Indices 1 2 3 4 5 6 
#
# 1 0.020698 -0.002472 -0.006891 0.000000 0.000000 0.000000
# 2 -0.002472 0.020698 -0.006891 0.000000 0.000000 0.000000
# 3 -0.006891 -0.006891 0.017985 0.000000 0.000000 0.000000
# 4 0.000000 0.000000 0.000000 0.042371 0.000000 0.000000
# 5 0.000000 0.000000 0.000000 0.000000 0.042371 0.000000
# 6 0.000000 0.000000 0.000000 0.000000 0.000000 0.071105
#
#
# Mechanical properties :
#
#
# Convention : Reuss Voigt Hill
#
# Bulk Modulus (GPa) = 37.21262 39.01971 38.11616
# Shear Modulus (GPa) = 19.47846 20.41652 19.94749
#
# Velocity S-wave (km/s) = 3.41380 3.49503 3.45465
# Velocity P-wave (km/s) = 6.14842 6.29544 6.22237
#
# Compressibility (1/GPa) = 0.02687261
#
# Stress axis : x y z
#
# Youngs Moduli (GPa) = 48.31312 48.31312 55.60290
#
# Poissons Ratio (x) = 0.11943 0.38317
# Poissons Ratio (y) = 0.11943 0.38317
# Poissons Ratio (z) = 0.33293 0.33293
#
# Static dielectric constant tensor:
#      x y z
#    x 1.569450 0.000000 0.000000 
#    y 0.000000 1.569450 0.000000 
#    z 0.000000 0.000000 1.562810 
# 
# From -- ./inp_files/3534.got.cif
#   From: 2010.05.17/outbox.cif.g08.bks.cpg/sg127_2_cif.got.tgz:3534.got - 2010.05.20 12:03:00.
