data_PCOD9563762
_publ_section_title
;
Structure prediction by ZEFSAII (Michael W. Deem and Ramdas Pophale) SiO2 
 PCOD9563762
Probable space group: P 4/M B M
;
_chemical_formula_sum "Si O2"
_cell_formula_units_Z 96
_cell_length_a 26.168251
_cell_length_b 26.168251
_cell_length_c 8.323656
_cell_angle_alpha 90.000000
_cell_angle_beta 90.000000
_cell_angle_gamma 90.000000
_cell_volume 5699.851185
_symmetry_space_group_name_H-M "P 4/M B M"
_symmetry_group_IT_number 127
_symmetry_cell_setting 'tetragonal'
loop_
_space_group_symop_operation_xyz
x,y,z
-y,x,z
-x,-y,z
y,-x,z
1/2+x,1/2-y,-z
1/2-x,1/2+y,-z
1/2+y,1/2+x,-z
1/2-y,1/2-x,-z
-x,-y,-z
y,-x,-z
x,y,-z
-y,x,-z
1/2-x,1/2+y,z
1/2+x,1/2-y,z
1/2-y,1/2-x,z
1/2+y,1/2+x,z
loop_
_atom_site_type_symbol
_atom_site_label
_atom_site_fract_x
_atom_site_fract_y
_atom_site_fract_z
Si Si1 0.688880 0.607434 0.691477
Si Si2 0.607013 0.691243 0.305620
Si Si3 0.613136 0.195250 0.809295
Si Si4 0.392028 0.190399 0.303685
Si Si5 0.500372 0.301081 0.812063
Si Si6 0.995746 0.687516 0.687105
O O1 0.684877 0.602052 0.500000
O O2 0.653045 0.654263 0.742955
O O3 0.748245 0.616809 0.734650
O O4 0.672372 0.553859 0.771437
O O5 0.603838 0.691010 0.500000
O O6 0.614935 0.750428 0.254172
O O7 0.552763 0.672910 0.235131
O O8 0.656920 0.156920 0.749860
O O9 0.556679 0.172971 0.773334
O O10 0.618172 0.201012 0.000000
O O11 0.392591 0.190434 0.500000
O O12 0.346824 0.153177 0.250532
O O13 0.448333 0.170826 0.252319
O O14 0.501421 0.249021 0.707904
O O15 0.499915 0.287486 0.000000
O O16 0.991045 0.674543 0.500000
#
# Coordination Sequence:
#
# PCOD9563762 Si02
#       6
#    16  16  16  16  16  16
#     4  10  19  31  49  71  95 122 155 194 231 273
#     4   9  18  31  48  70  94 122 154 188 226 270
#     4  10  20  32  46  66  94 125 155 191 235 280
#     4   8  14  26  45  69  94 117 145 185 230 271
#     4  10  18  29  47  67  91 123 156 190 227 270
#     4   9  16  28  47  67  88 118 158 196 227 269
#
# _framework density 16.842544
#
# number of rings (size 3 to 8) (size 9 to 14) (size 15 to 20)
#    0.000    2.667    0.000    6.000    0.000    3.333 
#    0.000    1.667    0.000   13.500    0.000    7.000 
#    0.000    0.000    0.000    0.000    0.000    0.000 
#
# Total GULP energy -534562.063197 kJ/mol
# GULP energy per Si atom -5568.354825 kJ/mol
# Density = 1.680421 g / cm^3
# Si number density = 16.842544 Si / 1000 Ang^3
#
#
#
# Elastic Constant Matrix: (Units=GPa)
#
#
# Indices 1 2 3 4 5 6 
#
# 1 104.7505 68.8985 12.6324 0.0000 0.0000 0.0000
# 2 68.8985 104.7505 12.6324 0.0000 0.0000 0.0000
# 3 12.6324 12.6324 20.5212 0.0000 0.0000 0.0000
# 4 0.0000 0.0000 0.0000 -11.3948 0.0000 0.0000
# 5 0.0000 0.0000 0.0000 0.0000 -11.3948 0.0000
# 6 0.0000 0.0000 0.0000 0.0000 0.0000 -0.3099
#
#
#
# Elastic Compliance Matrix: (Units=1/GPa)
#
#
# Indices 1 2 3 4 5 6 
#
# 1 0.017109 -0.010784 -0.003894 0.000000 0.000000 0.000000
# 2 -0.010784 0.017109 -0.003894 0.000000 0.000000 0.000000
# 3 -0.003894 -0.003894 0.053524 0.000000 0.000000 0.000000
# 4 0.000000 0.000000 0.000000 -0.087760 0.000000 0.000000
# 5 0.000000 0.000000 0.000000 0.000000 -0.087760 0.000000
# 6 0.000000 0.000000 0.000000 0.000000 0.000000 -3.226655
#
#
# Mechanical properties :
#
#
# Convention : Reuss Voigt Hill
#
# Bulk Modulus (GPa) = 19.76303 46.48321 33.12312
# Shear Modulus (GPa) = -1.53354 4.43738 1.45192
#
# Velocity S-wave (km/s) = -0.95525 1.62491 0.92948
# Velocity P-wave (km/s) = 3.24697 5.58382 4.56738
#
# Compressibility (1/GPa) = 0.05059952
#
# Stress axis : x y z
#
# Youngs Moduli (GPa) = 58.44939 58.44939 18.68329
#
# Poissons Ratio (x) = 0.63029 0.07275
# Poissons Ratio (y) = 0.63029 0.07275
# Poissons Ratio (z) = 0.22758 0.22758
#
# Static dielectric constant tensor:
#      x y z
#    x 1.584440 0.000000 0.000000 
#    y 0.000000 1.584440 0.000000 
#    z 0.000000 0.000000 1.571870 
# 
# From -- ./inp_files/2215.got.cif
#   From: 2010.05.17/outbox.cif.g08.bks.cpg/sg127_2_cif.got.tgz:2215.got - 2010.05.20 12:03:00.
