data_PCOD9563573
_publ_section_title
;
Structure prediction by ZEFSAII (Michael W. Deem and Ramdas Pophale) SiO2 
 PCOD9563573
Probable space group: P 4/N N C
;
_chemical_formula_sum "Si O2"
_cell_formula_units_Z 128
_cell_length_a 24.663484
_cell_length_b 24.663484
_cell_length_c 12.617502
_cell_angle_alpha 90.000000
_cell_angle_beta 90.000000
_cell_angle_gamma 90.000000
_cell_volume 7675.068029
_symmetry_space_group_name_H-M "P 4/N N C"
_symmetry_group_IT_number 126
_space_group.IT_coordinate_system_code '2'
_symmetry_cell_setting 'tetragonal'
loop_
_space_group_symop_operation_xyz
x,y,z
1/2-y,x,z
1/2-x,1/2-y,z
y,1/2-x,z
x,1/2-y,1/2-z
1/2-x,y,1/2-z
y,x,1/2-z
1/2-y,1/2-x,1/2-z
-x,-y,-z
1/2+y,-x,-z
1/2+x,1/2+y,-z
-y,1/2+x,-z
-x,1/2+y,1/2+z
1/2+x,-y,1/2+z
-y,-x,1/2+z
1/2+y,1/2+x,1/2+z
loop_
_atom_site_type_symbol
_atom_site_label
_atom_site_fract_x
_atom_site_fract_y
_atom_site_fract_z
Si Si1 0.596735 0.209770 0.330992
Si Si2 0.393810 0.002928 0.555368
Si Si3 0.186435 0.990710 0.767653
Si Si4 0.958445 0.109407 0.099757
Si Si5 0.573128 0.494745 0.815990
Si Si6 0.168034 0.770753 0.004499
Si Si7 0.311635 0.863331 0.780573
Si Si8 0.981290 0.909408 0.111917
O O1 0.567006 0.250000 0.250000
O O2 0.567971 0.167875 0.409293
O O3 0.628101 0.247665 0.413507
O O4 0.641551 0.173819 0.268474
O O5 0.336172 0.003239 0.614402
O O6 0.429419 0.051108 0.608004
O O7 0.421849 0.944551 0.582562
O O8 0.398759 0.009309 0.427748
O O9 0.250000 0.004001 0.750000
O O10 0.144499 0.018505 0.684034
O O11 0.180316 0.925814 0.751548
O O12 0.973352 0.111651 0.224064
O O13 0.004326 0.103782 0.010530
O O14 0.540998 0.540998 0.750000
O O15 0.529615 0.448119 0.845055
O O16 0.216627 0.804512 0.951690
O O17 0.141792 0.808027 0.093090
O O18 0.250000 0.847905 0.750000
#
# Coordination Sequence:
#
# PCOD9563573 Si02
#       8
#    16  16  16  16  16  16  16  16
#     4  12  23  36  49  68  99 135 189 234 291 334
#     4  11  20  34  61  81 104 143 180 230 286 338
#     4  11  23  38  52  79 113 141 178 226 281 341
#     4  11  21  35  51  81 106 137 181 242 288 343
#     4  11  17  33  57  84 107 128 180 239 281 327
#     4  11  22  34  51  62  78 124 191 248 283 317
#     4  11  21  37  50  63  94 133 177 236 281 327
#     4  11  19  35  60  78 108 138 181 226 287 346
#
# _framework density 16.677375999999999
#
# number of rings (size 3 to 8) (size 9 to 14) (size 15 to 20)
#    0.000    0.875    7.500    1.875    0.000    1.250 
#    6.750    0.000    0.000    0.000    0.000    0.000 
#    0.000    4.000    0.000    0.000    0.000    0.000 
#
# Total GULP energy -712881.213971 kJ/mol
# GULP energy per Si atom -5569.384484 kJ/mol
# Density = 1.663942 g / cm^3
# Si number density = 16.677376 Si / 1000 Ang^3
#
#
#
# Elastic Constant Matrix: (Units=GPa)
#
#
# Indices 1 2 3 4 5 6 
#
# 1 50.1454 24.6019 26.6690 0.0000 0.0000 0.0000
# 2 24.6019 50.1454 26.6690 0.0000 0.0000 0.0000
# 3 26.6690 26.6690 106.6593 0.0000 0.0000 0.0000
# 4 0.0000 0.0000 0.0000 18.9927 0.0000 0.0000
# 5 0.0000 0.0000 0.0000 0.0000 18.9927 0.0000
# 6 0.0000 0.0000 0.0000 0.0000 0.0000 14.2409
#
#
#
# Elastic Compliance Matrix: (Units=1/GPa)
#
#
# Indices 1 2 3 4 5 6 
#
# 1 0.027716 -0.011433 -0.004072 0.000000 0.000000 0.000000
# 2 -0.011433 0.027716 -0.004072 0.000000 0.000000 0.000000
# 3 -0.004072 -0.004072 0.011412 0.000000 0.000000 0.000000
# 4 0.000000 0.000000 0.000000 0.052652 0.000000 0.000000
# 5 0.000000 0.000000 0.000000 0.000000 0.052652 0.000000
# 6 0.000000 0.000000 0.000000 0.000000 0.000000 0.070220
#
#
# Mechanical properties :
#
#
# Convention : Reuss Voigt Hill
#
# Bulk Modulus (GPa) = 36.11019 40.31444 38.21232
# Shear Modulus (GPa) = 17.19688 19.04596 18.12142
#
# Velocity S-wave (km/s) = 3.21464 3.38305 3.29992
# Velocity P-wave (km/s) = 5.95632 6.28376 6.12223
#
# Compressibility (1/GPa) = 0.02769301
#
# Stress axis : x y z
#
# Youngs Moduli (GPa) = 36.07983 36.07983 87.62890
#
# Poissons Ratio (x) = 0.41248 0.35679
# Poissons Ratio (y) = 0.41248 0.35679
# Poissons Ratio (z) = 0.14690 0.14690
#
# Static dielectric constant tensor:
#      x y z
#    x 1.624670 0.000000 0.000000 
#    y 0.000000 1.624670 0.000000 
#    z 0.000000 0.000000 1.659860 
# 
# From -- ./inp_files/3080.got.cif
#   From: 2010.05.17/outbox.cif.g08.bks.cpg/sg126_2_cif.got.tgz:3080.got - 2010.05.20 11:58:20.
