data_PCOD9563474
_publ_section_title
;
Structure prediction by ZEFSAII (Michael W. Deem and Ramdas Pophale) SiO2 
 PCOD9563474
Probable space group: P 4/N N C
;
_chemical_formula_sum "Si O2"
_cell_formula_units_Z 116
_cell_length_a 17.398192
_cell_length_b 17.398192
_cell_length_c 18.498137
_cell_angle_alpha 90.000000
_cell_angle_beta 90.000000
_cell_angle_gamma 90.000000
_cell_volume 5599.332145
_symmetry_space_group_name_H-M "P 4/N N C"
_symmetry_group_IT_number 126
_space_group.IT_coordinate_system_code '2'
_symmetry_cell_setting 'tetragonal'
loop_
_space_group_symop_operation_xyz
x,y,z
1/2-y,x,z
1/2-x,1/2-y,z
y,1/2-x,z
x,1/2-y,1/2-z
1/2-x,y,1/2-z
y,x,1/2-z
1/2-y,1/2-x,1/2-z
-x,-y,-z
1/2+y,-x,-z
1/2+x,1/2+y,-z
-y,1/2+x,-z
-x,1/2+y,1/2+z
1/2+x,-y,1/2+z
-y,-x,1/2+z
1/2+y,1/2+x,1/2+z
loop_
_atom_site_type_symbol
_atom_site_label
_atom_site_fract_x
_atom_site_fract_y
_atom_site_fract_z
Si Si1 0.165130 0.528085 0.123206
Si Si2 0.103583 0.516158 0.671763
Si Si3 0.250000 0.750000 0.000000
Si Si4 0.104527 0.818679 0.589502
Si Si5 0.533723 0.666382 0.479084
Si Si6 0.457192 0.337079 0.980259
Si Si7 0.521027 0.386715 0.832397
Si Si8 0.817667 0.852958 0.664978
O O1 0.104082 0.580884 0.162027
O O2 0.249137 0.563401 0.132240
O O3 0.156031 0.439166 0.147182
O O4 0.150611 0.526804 0.036418
O O5 0.154280 0.489120 0.604517
O O6 0.140241 0.506621 0.750693
O O7 0.022907 0.469091 0.666240
O O8 0.182758 0.711477 0.949789
O O9 0.113271 0.890574 0.643220
O O10 0.041951 0.841099 0.528135
O O11 0.568229 0.750303 0.492158
O O12 0.597193 0.603435 0.496722
O O13 0.480607 0.341810 0.897162
O O14 0.728467 0.851854 0.638809
O O15 0.836526 0.836526 0.750000
#
# Coordination Sequence:
#
# PCOD9563474 Si02
#       8
#    16  16   4  16  16  16  16  16
#     4  11  23  35  61  93 121 169 208 260 305 388
#     4  10  22  38  61  86 122 157 209 260 323 379
#     4  12  24  44  68  90 132 172 212 278 336 380
#     4  11  23  39  64  92 126 165 215 262 327 386
#     4  10  21  41  61  90 123 161 204 262 316 391
#     4  10  22  38  61  89 123 159 205 255 324 372
#     4  10  22  39  60  88 117 162 205 266 316 383
#     4   9  21  37  54  84 133 178 206 248 316 385
#
# _framework density 20.716756
#
# number of rings (size 3 to 8) (size 9 to 14) (size 15 to 20)
#    0.000    1.793    0.000    4.552    7.724    4.690 
#    0.000    0.000    0.000    3.310    0.000    3.862 
#    0.000    0.000    0.000    0.000    0.000    0.000 
#
# Total GULP energy -646925.667433 kJ/mol
# GULP energy per Si atom -5576.945409 kJ/mol
# Density = 2.066960 g / cm^3
# Si number density = 20.716756 Si / 1000 Ang^3
#
#
#
# Elastic Constant Matrix: (Units=GPa)
#
#
# Indices 1 2 3 4 5 6 
#
# 1 72.4638 28.4266 11.6933 0.0000 0.0000 0.0000
# 2 28.4266 72.4638 11.6933 0.0000 0.0000 0.0000
# 3 11.6933 11.6933 71.6417 0.0000 0.0000 0.0000
# 4 0.0000 0.0000 0.0000 21.3616 0.0000 0.0000
# 5 0.0000 0.0000 0.0000 0.0000 21.3616 0.0000
# 6 0.0000 0.0000 0.0000 0.0000 0.0000 13.7250
#
#
#
# Elastic Compliance Matrix: (Units=1/GPa)
#
#
# Indices 1 2 3 4 5 6 
#
# 1 0.016505 -0.006203 -0.001681 0.000000 0.000000 0.000000
# 2 -0.006203 0.016505 -0.001681 0.000000 0.000000 0.000000
# 3 -0.001681 -0.001681 0.014507 0.000000 0.000000 0.000000
# 4 0.000000 0.000000 0.000000 0.046813 0.000000 0.000000
# 5 0.000000 0.000000 0.000000 0.000000 0.046813 0.000000
# 6 0.000000 0.000000 0.000000 0.000000 0.000000 0.072860
#
#
# Mechanical properties :
#
#
# Convention : Reuss Voigt Hill
#
# Bulk Modulus (GPa) = 35.23037 35.57732 35.40385
# Shear Modulus (GPa) = 20.61038 22.27336 21.44187
#
# Velocity S-wave (km/s) = 3.15757 3.28249 3.22063
# Velocity P-wave (km/s) = 5.50784 5.61932 5.56386
#
# Compressibility (1/GPa) = 0.02838460
#
# Stress axis : x y z
#
# Youngs Moduli (GPa) = 60.58841 60.58841 68.93110
#
# Poissons Ratio (x) = 0.37585 0.11590
# Poissons Ratio (y) = 0.37585 0.11590
# Poissons Ratio (z) = 0.10187 0.10187
#
# Static dielectric constant tensor:
#      x y z
#    x 1.738570 0.000000 0.000000 
#    y 0.000000 1.738570 0.000000 
#    z 0.000000 0.000000 1.773900 
# 
# From -- ./inp_files/4635.got.cif
#   From: 2010.05.17/outbox.cif.g08.bks.cpg/sg126_3_cif.got.tgz:4635.got - 2010.05.20 11:58:20.
