data_PCOD9563186
_publ_section_title
;
Structure prediction by ZEFSAII (Michael W. Deem and Ramdas Pophale) SiO2 
 PCOD9563186
Probable space group: P 4/N B M
;
_chemical_formula_sum "Si O2"
_cell_formula_units_Z 48
_cell_length_a 15.641753
_cell_length_b 15.641753
_cell_length_c 9.082986
_cell_angle_alpha 90.000000
_cell_angle_beta 90.000000
_cell_angle_gamma 90.000000
_cell_volume 2222.283655
_symmetry_space_group_name_H-M "P 4/N B M"
_symmetry_group_IT_number 125
_space_group.IT_coordinate_system_code '2'
_symmetry_cell_setting 'tetragonal'
loop_
_space_group_symop_operation_xyz
x,y,z
1/2-y,x,z
1/2-x,1/2-y,z
y,1/2-x,z
x,1/2-y,-z
1/2-x,y,-z
y,x,-z
1/2-y,1/2-x,-z
-x,-y,-z
1/2+y,-x,-z
1/2+x,1/2+y,-z
-y,1/2+x,-z
-x,1/2+y,z
1/2+x,-y,z
-y,-x,z
1/2+y,1/2+x,z
loop_
_atom_site_type_symbol
_atom_site_label
_atom_site_fract_x
_atom_site_fract_y
_atom_site_fract_z
Si Si1 0.571724 0.570505 0.331753
Si Si2 0.171661 0.533567 0.890986
Si Si3 0.431483 0.707558 0.649953
O O1 0.596213 0.596213 0.500000
O O2 0.483597 0.516404 0.347308
O O3 0.547888 0.636161 0.202083
O O4 0.645487 0.504801 0.287262
O O5 0.092242 0.592242 0.949930
O O6 0.220083 0.588103 0.766130
O O7 0.250000 0.513157 0.000000
O O8 0.462753 0.750000 0.500000
O O9 0.350849 0.649151 0.614952
#
# Coordination Sequence:
#
# PCOD9563186 Si02
#       3
#    16  16  16
#     4   9  18  36  58  82 116 159 211 260 306 378
#     4  11  23  38  57  86 128 169 205 262 334 395
#     4  11  21  34  58  88 119 161 212 267 323 385
#
# _framework density 21.599402999999999
#
# number of rings (size 3 to 8) (size 9 to 14) (size 15 to 20)
#    0.000    1.667    3.333    2.000    0.000    5.333 
#    0.000    5.000    0.000    1.000    0.000    2.333 
#    0.000    0.000    0.000    0.000    0.000    0.000 
#
# Total GULP energy -267512.026339 kJ/mol
# GULP energy per Si atom -5573.167215 kJ/mol
# Density = 2.155024 g / cm^3
# Si number density = 21.599403 Si / 1000 Ang^3
#
#
#
# Elastic Constant Matrix: (Units=GPa)
#
#
# Indices 1 2 3 4 5 6 
#
# 1 68.4436 50.3695 35.8961 0.0000 0.0000 0.0000
# 2 50.3695 68.4436 35.8961 0.0000 0.0000 0.0000
# 3 35.8961 35.8961 102.2931 0.0000 0.0000 0.0000
# 4 0.0000 0.0000 0.0000 32.2096 0.0000 0.0000
# 5 0.0000 0.0000 0.0000 0.0000 32.2096 0.0000
# 6 0.0000 0.0000 0.0000 0.0000 0.0000 3.6700
#
#
#
# Elastic Compliance Matrix: (Units=1/GPa)
#
#
# Indices 1 2 3 4 5 6 
#
# 1 0.033005 -0.022323 -0.003748 0.000000 0.000000 0.000000
# 2 -0.022323 0.033005 -0.003748 0.000000 0.000000 0.000000
# 3 -0.003748 -0.003748 0.012406 0.000000 0.000000 0.000000
# 4 0.000000 0.000000 0.000000 0.031047 0.000000 0.000000
# 5 0.000000 0.000000 0.000000 0.000000 0.031047 0.000000
# 6 0.000000 0.000000 0.000000 0.000000 0.000000 0.272480
#
#
# Mechanical properties :
#
#
# Convention : Reuss Voigt Hill
#
# Bulk Modulus (GPa) = 53.25866 53.72263 53.49064
# Shear Modulus (GPa) = 10.44087 21.41909 15.92998
#
# Velocity S-wave (km/s) = 2.20099 3.15247 2.71868
# Velocity P-wave (km/s) = 5.58302 6.17875 5.88843
#
# Compressibility (1/GPa) = 0.01877629
#
# Stress axis : x y z
#
# Youngs Moduli (GPa) = 30.29868 30.29868 80.60309
#
# Poissons Ratio (x) = 0.67637 0.30212
# Poissons Ratio (y) = 0.67637 0.30212
# Poissons Ratio (z) = 0.11357 0.11357
#
# Static dielectric constant tensor:
#      x y z
#    x 1.811530 0.000000 0.000000 
#    y 0.000000 1.811530 0.000000 
#    z 0.000000 0.000000 1.880470 
# 
# From -- ./inp_files/1843.got.cif
#   From: 2010.05.17/outbox.cif.g08.bks.cpg/sg125_1_cif.got.tgz:1843.got - 2010.05.20 11:54:10.
