data_PCOD9563949
_publ_section_title
;
Structure prediction by ZEFSAII (Michael W. Deem and Ramdas Pophale) SiO2 
 PCOD9563949
Probable space group: P 4/M B M
;
_chemical_formula_sum "Si O2"
_cell_formula_units_Z 104
_cell_length_a 18.006388
_cell_length_b 18.006388
_cell_length_c 18.804263
_cell_angle_alpha 90.000000
_cell_angle_beta 90.000000
_cell_angle_gamma 90.000000
_cell_volume 6096.906358
_symmetry_space_group_name_H-M "P 4/M B M"
_symmetry_group_IT_number 127
_symmetry_cell_setting 'tetragonal'
loop_
_space_group_symop_operation_xyz
x,y,z
-y,x,z
-x,-y,z
y,-x,z
1/2+x,1/2-y,-z
1/2-x,1/2+y,-z
1/2+y,1/2+x,-z
1/2-y,1/2-x,-z
-x,-y,-z
y,-x,-z
x,y,-z
-y,x,-z
1/2-x,1/2+y,z
1/2+x,1/2-y,z
1/2-y,1/2-x,z
1/2+y,1/2+x,z
loop_
_atom_site_type_symbol
_atom_site_label
_atom_site_fract_x
_atom_site_fract_y
_atom_site_fract_z
Si Si1 0.303050 0.005390 0.325109
Si Si2 0.181040 0.557718 0.834877
Si Si3 0.322902 0.303349 0.835391
Si Si4 0.937329 0.562672 0.417798
Si Si5 0.135753 0.762462 0.418926
Si Si6 0.851648 0.774216 0.685054
Si Si7 0.218581 0.408147 0.082834
O O1 0.326583 0.039907 0.249347
O O2 0.261394 0.067338 0.370688
O O3 0.369812 0.972476 0.373026
O O4 0.250305 0.935807 0.309699
O O5 0.112174 0.612174 0.854987
O O6 0.258077 0.602080 0.849664
O O7 0.188536 0.480306 0.876183
O O8 0.259686 0.240315 0.842141
O O9 0.321490 0.328948 0.753762
O O10 0.292668 0.371508 0.882665
O O11 0.916814 0.583187 0.500000
O O12 0.000000 0.500000 0.422491
O O13 0.113846 0.775366 0.500000
O O14 0.194115 0.694115 0.416875
O O15 0.179350 0.831213 0.384590
O O16 0.799108 0.700893 0.685679
O O17 0.154812 0.345189 0.088073
O O18 0.230992 0.424784 0.000000
#
# Coordination Sequence:
#
# PCOD9563949 Si02
#       7
#    16  16  16   8  16  16  16
#     4  12  21  35  56  82 113 148 192 235 281 337
#     4  11  22  35  59  89 117 150 192 233 279 336
#     4   9  18  36  58  80 109 146 191 234 274 326
#     4  11  24  36  48  76 121 161 189 226 283 346
#     4  10  21  36  54  78 112 148 185 235 289 333
#     4  10  19  35  55  79 107 142 190 238 275 326
#     4  10  22  39  59  86 120 152 181 224 285 343
#
# _framework density 17.057831
#
# number of rings (size 3 to 8) (size 9 to 14) (size 15 to 20)
#    0.000    1.615    3.846    1.846    1.077    3.692 
#    0.000    2.308    0.000    0.923    0.000    2.154 
#    0.000    0.000    0.000    0.000    0.000    0.000 
#
# Total GULP energy -580015.275403 kJ/mol
# GULP energy per Si atom -5577.069956 kJ/mol
# Density = 1.701901 g / cm^3
# Si number density = 17.057831 Si / 1000 Ang^3
#
#
#
# Elastic Constant Matrix: (Units=GPa)
#
#
# Indices 1 2 3 4 5 6 
#
# 1 -9.0990 76.8151 23.2965 0.0000 0.0000 0.0000
# 2 76.8151 -9.0989 23.2967 0.0000 0.0000 0.0000
# 3 23.2965 23.2967 98.4870 0.0000 0.0000 0.0000
# 4 0.0000 0.0000 0.0000 24.5666 0.0000 0.0000
# 5 0.0000 0.0000 0.0000 0.0000 24.5666 0.0000
# 6 0.0000 0.0000 0.0000 0.0000 0.0000 23.6222
#
#
#
# Elastic Compliance Matrix: (Units=1/GPa)
#
#
# Indices 1 2 3 4 5 6 
#
# 1 0.002999 0.014639 -0.004172 0.000000 0.000000 0.000000
# 2 0.014639 0.002999 -0.004172 0.000000 0.000000 0.000000
# 3 -0.004172 -0.004172 0.012127 0.000000 0.000000 0.000000
# 4 0.000000 0.000000 0.000000 0.040706 0.000000 0.000000
# 5 0.000000 0.000000 0.000000 0.000000 0.040706 0.000000
# 6 0.000000 0.000000 0.000000 0.000000 0.000000 0.042333
#
#
# Mechanical properties :
#
#
# Convention : Reuss Voigt Hill
#
# Bulk Modulus (GPa) = 32.55728 36.34506 34.45117
# Shear Modulus (GPa) = 35.83712 11.67647 23.75680
#
# Velocity S-wave (km/s) = 4.58855 2.61918 3.73597
# Velocity P-wave (km/s) = 6.87029 5.52268 6.23301
#
# Compressibility (1/GPa) = 0.03071510
#
# Stress axis : x y z
#
# Youngs Moduli (GPa) = 333.40196 333.40211 82.45740
#
# Poissons Ratio (x) = -4.88065 0.34403
# Poissons Ratio (y) = -4.88065 0.34403
# Poissons Ratio (z) = 1.39104 1.39103
#
# Static dielectric constant tensor:
#      x y z
#    x 1.573180 0.000000 0.000000 
#    y 0.000000 1.573180 0.000000 
#    z 0.000000 0.000000 1.586680 
# 
# From -- ./inp_files/5220.got.cif
#   From: 2010.05.17/outbox.cif.g08.bks.cpg/sg127_3_cif.got.tgz:5220.got - 2010.05.20 12:03:00.
