data_PCOD9563142
_publ_section_title
;
Structure prediction by ZEFSAII (Michael W. Deem and Ramdas Pophale) SiO2 
 PCOD9563142
Probable space group: P 4/N B M
;
_chemical_formula_sum "Si O2"
_cell_formula_units_Z 34
_cell_length_a 10.148437
_cell_length_b 10.148437
_cell_length_c 17.140035
_cell_angle_alpha 90.000000
_cell_angle_beta 90.000000
_cell_angle_gamma 90.000000
_cell_volume 1765.265463
_symmetry_space_group_name_H-M "P 4/N B M"
_symmetry_group_IT_number 125
_space_group.IT_coordinate_system_code '2'
_symmetry_cell_setting 'tetragonal'
loop_
_space_group_symop_operation_xyz
x,y,z
1/2-y,x,z
1/2-x,1/2-y,z
y,1/2-x,z
x,1/2-y,-z
1/2-x,y,-z
y,x,-z
1/2-y,1/2-x,-z
-x,-y,-z
1/2+y,-x,-z
1/2+x,1/2+y,-z
-y,1/2+x,-z
-x,1/2+y,z
1/2+x,-y,z
-y,-x,z
1/2+y,1/2+x,z
loop_
_atom_site_type_symbol
_atom_site_label
_atom_site_fract_x
_atom_site_fract_y
_atom_site_fract_z
Si Si1 0.648597 0.351404 0.634813
Si Si2 0.384320 0.884320 0.142365
Si Si3 0.469202 0.250000 0.500000
Si Si4 0.408152 0.908152 0.798409
Si Si5 0.250000 0.750000 0.000000
O O1 0.750000 0.250000 0.673502
O O2 0.555810 0.268701 0.577003
O O3 0.575672 0.424329 0.705030
O O4 0.431500 0.745516 0.180190
O O5 0.494660 0.994660 0.155519
O O6 0.341002 0.841002 0.055179
O O7 0.377183 0.377183 0.500000
#
# Coordination Sequence:
#
# PCOD9563142 Si02
#       5
#     8   8   8   8   2
#     4  12  22  39  61  82 123 166 213 266 309 372
#     4  10  22  43  63 100 125 169 204 254 320 383
#     4  11  25  38  56  86 113 163 220 266 316 357
#     4  10  24  38  63  94 133 164 213 260 323 372
#     4   8  20  44  76  92 136 158 208 260 308 404
#
# _framework density 19.260559000000001
#
# number of rings (size 3 to 8) (size 9 to 14) (size 15 to 20)
#    0.000    1.647    4.706    0.706    6.588    4.706 
#    0.000    0.000    0.000   11.294    0.000    0.000 
#    0.000    0.000    0.000    0.000    0.000    0.000 
#
# Total GULP energy -189661.006180 kJ/mol
# GULP energy per Si atom -5578.264888 kJ/mol
# Density = 1.921672 g / cm^3
# Si number density = 19.260559 Si / 1000 Ang^3
#
#
#
# Elastic Constant Matrix: (Units=GPa)
#
#
# Indices 1 2 3 4 5 6 
#
# 1 113.8786 72.2296 43.9424 0.0000 0.0000 0.0000
# 2 72.2296 113.8786 43.9424 0.0000 0.0000 0.0000
# 3 43.9424 43.9424 150.2956 0.0000 0.0000 0.0000
# 4 0.0000 0.0000 0.0000 -43.8597 0.0000 0.0000
# 5 0.0000 0.0000 0.0000 0.0000 -43.8597 0.0000
# 6 0.0000 0.0000 0.0000 0.0000 0.0000 30.9520
#
#
#
# Elastic Compliance Matrix: (Units=1/GPa)
#
#
# Indices 1 2 3 4 5 6 
#
# 1 0.015122 -0.008888 -0.001823 0.000000 0.000000 0.000000
# 2 -0.008888 0.015122 -0.001823 0.000000 0.000000 0.000000
# 3 -0.001823 -0.001823 0.007719 0.000000 0.000000 0.000000
# 4 0.000000 0.000000 0.000000 -0.022800 0.000000 0.000000
# 5 0.000000 0.000000 0.000000 0.000000 -0.022800 0.000000
# 6 0.000000 0.000000 0.000000 0.000000 0.000000 0.032308
#
#
# Mechanical properties :
#
#
# Convention : Reuss Voigt Hill
#
# Bulk Modulus (GPa) = 77.53960 77.58684 77.56322
# Shear Modulus (GPa) = 92.52887 3.17574 47.85231
#
# Velocity S-wave (km/s) = 6.93865 1.28546 4.98985
# Velocity P-wave (km/s) = 10.22442 6.52483 8.57649
#
# Compressibility (1/GPa) = 0.01289664
#
# Stress axis : x y z
#
# Youngs Moduli (GPa) = 66.12869 66.12869 129.54499
#
# Poissons Ratio (x) = 0.58776 0.23611
# Poissons Ratio (y) = 0.58776 0.23611
# Poissons Ratio (z) = 0.12053 0.12053
#
# Static dielectric constant tensor:
#      x y z
#    x 1.660710 0.000000 0.000000 
#    y 0.000000 1.660710 0.000000 
#    z 0.000000 0.000000 1.676750 
# 
# From -- ./inp_files/4449.got.cif
#   From: 2010.05.17/outbox.cif.g08.bks.cpg/sg125_3_cif.got.tgz:4449.got - 2010.05.20 11:54:10.
