data_PCOD9563453
_publ_section_title
;
Structure prediction by ZEFSAII (Michael W. Deem and Ramdas Pophale) SiO2 
 PCOD9563453
Probable space group: P 4/N N C
;
_chemical_formula_sum "Si O2"
_cell_formula_units_Z 112
_cell_length_a 15.670467
_cell_length_b 15.670467
_cell_length_c 20.675081
_cell_angle_alpha 90.000000
_cell_angle_beta 90.000000
_cell_angle_gamma 90.000000
_cell_volume 5077.045997
_symmetry_space_group_name_H-M "P 4/N N C"
_symmetry_group_IT_number 126
_space_group.IT_coordinate_system_code '2'
_symmetry_cell_setting 'tetragonal'
loop_
_space_group_symop_operation_xyz
x,y,z
1/2-y,x,z
1/2-x,1/2-y,z
y,1/2-x,z
x,1/2-y,1/2-z
1/2-x,y,1/2-z
y,x,1/2-z
1/2-y,1/2-x,1/2-z
-x,-y,-z
1/2+y,-x,-z
1/2+x,1/2+y,-z
-y,1/2+x,-z
-x,1/2+y,1/2+z
1/2+x,-y,1/2+z
-y,-x,1/2+z
1/2+y,1/2+x,1/2+z
loop_
_atom_site_type_symbol
_atom_site_label
_atom_site_fract_x
_atom_site_fract_y
_atom_site_fract_z
Si Si1 0.024014 0.467782 0.606533
Si Si2 0.920357 0.876612 0.676912
Si Si3 0.753100 0.045422 0.619780
Si Si4 0.390021 0.652092 0.417597
Si Si5 0.842046 0.650115 0.172590
Si Si6 0.376720 0.208057 0.438459
Si Si7 0.106776 0.842845 0.055618
O O1 0.095711 0.526147 0.574352
O O2 0.076166 0.406488 0.653986
O O3 0.954589 0.528485 0.642028
O O4 0.974845 0.404467 0.558757
O O5 0.898623 0.898623 0.750000
O O6 0.834440 0.861187 0.634441
O O7 0.982907 0.794971 0.669779
O O8 0.832622 0.105793 0.637325
O O9 0.679273 0.106801 0.594699
O O10 0.787232 0.978769 0.564598
O O11 0.408320 0.751526 0.411644
O O12 0.335862 0.641038 0.483065
O O13 0.867147 0.745294 0.149263
O O14 0.842643 0.657358 0.250000
O O15 0.351471 0.301617 0.466928
#
# Coordination Sequence:
#
# PCOD9563453 Si02
#       7
#    16  16  16  16  16  16  16
#     4  11  22  38  58  94 121 161 205 269 324 381
#     4  10  21  37  59  91 128 163 205 256 313 380
#     4  10  21  37  59  90 120 156 213 259 310 378
#     4  12  22  41  63  88 121 165 212 266 325 389
#     4   9  18  35  61  88 117 155 200 252 315 388
#     4   9  18  35  57  84 119 161 202 246 304 364
#     4  11  24  39  64  88 120 164 213 265 325 392
#
# _framework density 22.060072000000002
#
# number of rings (size 3 to 8) (size 9 to 14) (size 15 to 20)
#    0.000    1.714    2.857    2.571    0.000    2.286 
#    0.000    2.857    0.000    0.000    7.429    0.000 
#    0.000    0.000    0.000    0.000    0.000    0.000 
#
# Total GULP energy -623605.804896 kJ/mol
# GULP energy per Si atom -5567.908972 kJ/mol
# Density = 2.200986 g / cm^3
# Si number density = 22.060072 Si / 1000 Ang^3
#
#
#
# Elastic Constant Matrix: (Units=GPa)
#
#
# Indices 1 2 3 4 5 6 
#
# 1 120.8395 42.6667 12.2765 0.0000 0.0000 0.0000
# 2 42.6667 120.8396 12.2765 0.0000 0.0000 0.0000
# 3 12.2765 12.2765 27.5659 0.0000 0.0000 0.0000
# 4 0.0000 0.0000 0.0000 23.8906 0.0000 0.0000
# 5 0.0000 0.0000 0.0000 0.0000 23.8905 0.0000
# 6 0.0000 0.0000 0.0000 0.0000 0.0000 32.0868
#
#
#
# Elastic Compliance Matrix: (Units=1/GPa)
#
#
# Indices 1 2 3 4 5 6 
#
# 1 0.009673 -0.003119 -0.002919 0.000000 0.000000 0.000000
# 2 -0.003119 0.009673 -0.002919 0.000000 0.000000 0.000000
# 3 -0.002919 -0.002919 0.038877 0.000000 0.000000 0.000000
# 4 0.000000 0.000000 0.000000 0.041858 0.000000 0.000000
# 5 0.000000 0.000000 0.000000 0.000000 0.041858 0.000000
# 6 0.000000 0.000000 0.000000 0.000000 0.000000 0.031165
#
#
# Mechanical properties :
#
#
# Convention : Reuss Voigt Hill
#
# Bulk Modulus (GPa) = 24.80810 44.85382 34.83096
# Shear Modulus (GPa) = 24.45537 29.44192 26.94864
#
# Velocity S-wave (km/s) = 3.33315 3.65721 3.49894
# Velocity P-wave (km/s) = 5.10718 6.18145 5.66982
#
# Compressibility (1/GPa) = 0.04030941
#
# Stress axis : x y z
#
# Youngs Moduli (GPa) = 103.37800 103.37804 25.72234
#
# Poissons Ratio (x) = 0.32243 0.07508
# Poissons Ratio (y) = 0.32243 0.07508
# Poissons Ratio (z) = 0.30176 0.30176
#
# Static dielectric constant tensor:
#      x y z
#    x 1.877700 0.000000 0.000000 
#    y 0.000000 1.877700 0.000000 
#    z 0.000000 0.000000 1.817670 
# 
# From -- ./inp_files/5822.got.cif
#   From: 2010.05.17/outbox.cif.g08.bks.cpg/sg126_3_cif.got.tgz:5822.got - 2010.05.20 11:58:20.
