data_PCOD9563031
_publ_section_title
;
Structure prediction by ZEFSAII (Michael W. Deem and Ramdas Pophale) SiO2 
 PCOD9563031
Probable space group: P 4/N B M
;
_chemical_formula_sum "Si O2"
_cell_formula_units_Z 26
_cell_length_a 10.079201
_cell_length_b 10.079201
_cell_length_c 14.511628
_cell_angle_alpha 90.000000
_cell_angle_beta 90.000000
_cell_angle_gamma 90.000000
_cell_volume 1474.240538
_symmetry_space_group_name_H-M "P 4/N B M"
_symmetry_group_IT_number 125
_space_group.IT_coordinate_system_code '2'
_symmetry_cell_setting 'tetragonal'
loop_
_space_group_symop_operation_xyz
x,y,z
1/2-y,x,z
1/2-x,1/2-y,z
y,1/2-x,z
x,1/2-y,-z
1/2-x,y,-z
y,x,-z
1/2-y,1/2-x,-z
-x,-y,-z
1/2+y,-x,-z
1/2+x,1/2+y,-z
-y,1/2+x,-z
-x,1/2+y,z
1/2+x,-y,z
-y,-x,z
1/2+y,1/2+x,z
loop_
_atom_site_type_symbol
_atom_site_label
_atom_site_fract_x
_atom_site_fract_y
_atom_site_fract_z
Si Si1 0.103364 0.603364 0.538454
Si Si2 0.611953 0.111953 0.833795
Si Si3 0.250000 0.750000 0.000000
Si Si4 0.097260 0.902741 0.241143
O O1 0.072561 0.750000 0.500000
O O2 0.094387 0.594387 0.648615
O O3 0.000000 0.500000 0.500000
O O4 0.656536 0.156536 0.936647
O O5 0.751339 0.068613 0.788421
O O6 0.502186 0.002186 0.811285
#
# Coordination Sequence:
#
# PCOD9563031 Si02
#       4
#     8   8   2   8
#     4  11  21  35  55  79 113 151 191 227 269 328
#     4  10  21  36  60  79 115 141 187 231 284 340
#     4   8  20  40  60  88 106 148 184 240 292 344
#     4  10  20  37  54  83 111 150 182 233 277 323
#
# _framework density 17.636199999999999
#
# number of rings (size 3 to 8) (size 9 to 14) (size 15 to 20)
#    0.000    2.154    0.000    7.385    0.000    6.769 
#    0.000    6.154    0.000   14.769    0.000    0.000 
#    0.000    0.000    0.000    0.000    0.000    0.000 
#
# Total GULP energy -144985.513130 kJ/mol
# GULP energy per Si atom -5576.365890 kJ/mol
# Density = 1.759606 g / cm^3
# Si number density = 17.636200 Si / 1000 Ang^3
#
#
#
# Elastic Constant Matrix: (Units=GPa)
#
#
# Indices 1 2 3 4 5 6 
#
# 1 127.8744 129.7351 63.4823 0.0000 0.0000 0.0000
# 2 129.7351 127.8744 63.4823 0.0000 0.0000 0.0000
# 3 63.4823 63.4823 176.4621 0.0000 0.0000 0.0000
# 4 0.0000 0.0000 0.0000 33.6371 0.0000 0.0000
# 5 0.0000 0.0000 0.0000 0.0000 33.6371 0.0000
# 6 0.0000 0.0000 0.0000 0.0000 0.0000 49.9052
#
#
#
# Elastic Compliance Matrix: (Units=1/GPa)
#
#
# Indices 1 2 3 4 5 6 
#
# 1 -0.266365 0.271083 -0.001697 0.000000 0.000000 0.000000
# 2 0.271083 -0.266365 -0.001697 0.000000 0.000000 0.000000
# 3 -0.001697 -0.001697 0.006888 0.000000 0.000000 0.000000
# 4 0.000000 0.000000 0.000000 0.029729 0.000000 0.000000
# 5 0.000000 0.000000 0.000000 0.000000 0.029729 0.000000
# 6 0.000000 0.000000 0.000000 0.000000 0.000000 0.020038
#
#
# Mechanical properties :
#
#
# Convention : Reuss Voigt Hill
#
# Bulk Modulus (GPa) = 104.87333 105.06779 104.97056
# Shear Modulus (GPa) = -5.10964 35.13664 15.01350
#
# Velocity S-wave (km/s) = -1.70398 4.46836 2.92085
# Velocity P-wave (km/s) = 7.46475 9.29118 8.42759
#
# Compressibility (1/GPa) = 0.00953531
#
# Stress axis : x y z
#
# Youngs Moduli (GPa) = -3.75425 -3.75425 145.17443
#
# Poissons Ratio (x) = 1.01771 0.24643
# Poissons Ratio (y) = 1.01771 0.24643
# Poissons Ratio (z) = -0.00637 -0.00637
#
# Static dielectric constant tensor:
#      x y z
#    x 1.579310 0.000000 0.000000 
#    y 0.000000 1.579310 0.000000 
#    z 0.000000 0.000000 1.635220 
# 
# From -- ./inp_files/4430.got.cif
#   From: 2010.05.17/outbox.cif.g08.bks.cpg/sg125_3_cif.got.tgz:4430.got - 2010.05.20 11:54:10.
