data_PCOD9563783
_publ_section_title
;
Structure prediction by ZEFSAII (Michael W. Deem and Ramdas Pophale) SiO2 
 PCOD9563783
Probable space group: P 4/M B M
;
_chemical_formula_sum "Si O2"
_cell_formula_units_Z 112
_cell_length_a 16.041415
_cell_length_b 16.041415
_cell_length_c 24.006593
_cell_angle_alpha 90.000000
_cell_angle_beta 90.000000
_cell_angle_gamma 90.000000
_cell_volume 6177.544442
_symmetry_space_group_name_H-M "P 4/M B M"
_symmetry_group_IT_number 127
_symmetry_cell_setting 'tetragonal'
loop_
_space_group_symop_operation_xyz
x,y,z
-y,x,z
-x,-y,z
y,-x,z
1/2+x,1/2-y,-z
1/2-x,1/2+y,-z
1/2+y,1/2+x,-z
1/2-y,1/2-x,-z
-x,-y,-z
y,-x,-z
x,y,-z
-y,x,-z
1/2-x,1/2+y,z
1/2+x,1/2-y,z
1/2-y,1/2-x,z
1/2+y,1/2+x,z
loop_
_atom_site_type_symbol
_atom_site_label
_atom_site_fract_x
_atom_site_fract_y
_atom_site_fract_z
Si Si1 0.617624 0.577442 0.775329
Si Si2 0.003637 0.635785 0.255477
Si Si3 0.767327 0.593863 0.562241
Si Si4 0.414259 0.771779 0.841152
Si Si5 0.307551 0.055987 0.630086
Si Si6 0.173629 0.189690 0.670203
Si Si7 0.137660 0.505444 0.064430
O O1 0.522995 0.610888 0.776574
O O2 0.676628 0.606596 0.826404
O O3 0.660537 0.612909 0.719194
O O4 0.939014 0.560987 0.248751
O O5 0.975539 0.700251 0.209215
O O6 0.095792 0.595792 0.248664
O O7 0.996690 0.668906 0.318083
O O8 0.732822 0.604895 0.500000
O O9 0.853028 0.646973 0.564466
O O10 0.782950 0.498284 0.577450
O O11 0.711750 0.628512 0.612445
O O12 0.333451 0.833451 0.841039
O O13 0.467999 0.791192 0.896308
O O14 0.386684 0.113317 0.617366
O O15 0.236365 0.115343 0.654453
O O16 0.230458 0.269543 0.687353
O O17 0.090304 0.590304 0.083514
O O18 0.065105 0.434896 0.065808
O O19 0.162624 0.516055 0.000000
#
# Coordination Sequence:
#
# PCOD9563783 Si02
#       7
#    16  16  16  16  16  16  16
#     4  11  23  37  53  74 102 136 173 211 256 315
#     4   9  16  26  44  73 105 131 157 196 251 312
#     4  10  21  35  50  70  98 131 164 200 246 302
#     4  10  18  30  51  77 105 137 173 214 261 308
#     4  10  20  33  52  75  96 122 158 201 251 306
#     4  10  20  36  56  75  97 126 165 213 260 303
#     4   8  14  26  47  78 114 147 177 211 256 308
#
# _framework density 18.130181
#
# number of rings (size 3 to 8) (size 9 to 14) (size 15 to 20)
#    0.000    2.286    0.000    4.286    0.000    5.714 
#    0.000    4.286    0.000    0.857    0.000    6.000 
#    0.000    0.000    0.000    0.000    0.000    0.000 
#
# Total GULP energy -624470.840107 kJ/mol
# GULP energy per Si atom -5575.632501 kJ/mol
# Density = 1.808892 g / cm^3
# Si number density = 18.130181 Si / 1000 Ang^3
#
#
#
# Elastic Constant Matrix: (Units=GPa)
#
#
# Indices 1 2 3 4 5 6 
#
# 1 70.6553 13.7638 29.8659 0.0000 0.0000 0.0000
# 2 13.7638 70.6553 29.8659 0.0000 0.0000 0.0000
# 3 29.8659 29.8659 68.9669 0.0000 0.0000 0.0000
# 4 0.0000 0.0000 0.0000 10.2855 0.0000 0.0000
# 5 0.0000 0.0000 0.0000 0.0000 10.2855 0.0000
# 6 0.0000 0.0000 0.0000 0.0000 0.0000 6.7537
#
#
#
# Elastic Compliance Matrix: (Units=1/GPa)
#
#
# Indices 1 2 3 4 5 6 
#
# 1 0.017328 -0.000249 -0.007396 0.000000 0.000000 0.000000
# 2 -0.000249 0.017328 -0.007396 0.000000 0.000000 0.000000
# 3 -0.007396 -0.007396 0.020905 0.000000 0.000000 0.000000
# 4 0.000000 0.000000 0.000000 0.097224 0.000000 0.000000
# 5 0.000000 0.000000 0.000000 0.000000 0.097224 0.000000
# 6 0.000000 0.000000 0.000000 0.000000 0.000000 0.148067
#
#
# Mechanical properties :
#
#
# Convention : Reuss Voigt Hill
#
# Bulk Modulus (GPa) = 39.24783 39.69654 39.47219
# Shear Modulus (GPa) = 11.45079 14.58375 13.01727
#
# Velocity S-wave (km/s) = 2.51587 2.83925 2.68244
# Velocity P-wave (km/s) = 5.48947 5.71763 5.60471
#
# Compressibility (1/GPa) = 0.02547911
#
# Stress axis : x y z
#
# Youngs Moduli (GPa) = 57.71003 57.71003 47.83488
#
# Poissons Ratio (x) = 0.01439 0.35378
# Poissons Ratio (y) = 0.01439 0.35378
# Poissons Ratio (z) = 0.42682 0.42682
#
# Static dielectric constant tensor:
#      x y z
#    x 1.661950 0.000000 0.000000 
#    y 0.000000 1.661950 0.000000 
#    z 0.000000 0.000000 1.609340 
# 
# From -- ./inp_files/6167.got.cif
#   From: 2010.05.17/outbox.cif.g08.bks.cpg/sg127_4_cif.got.tgz:6167.got - 2010.05.20 12:03:00.
