data_PCOD9563954
_publ_section_title
;
Structure prediction by ZEFSAII (Michael W. Deem and Ramdas Pophale) SiO2 
 PCOD9563954
Probable space group: P 4/M B M
;
_chemical_formula_sum "Si O2"
_cell_formula_units_Z 96
_cell_length_a 15.770228
_cell_length_b 15.770228
_cell_length_c 22.400076
_cell_angle_alpha 90.000000
_cell_angle_beta 90.000000
_cell_angle_gamma 90.000000
_cell_volume 5570.900943
_symmetry_space_group_name_H-M "P 4/M B M"
_symmetry_group_IT_number 127
_symmetry_cell_setting 'tetragonal'
loop_
_space_group_symop_operation_xyz
x,y,z
-y,x,z
-x,-y,z
y,-x,z
1/2+x,1/2-y,-z
1/2-x,1/2+y,-z
1/2+y,1/2+x,-z
1/2-y,1/2-x,-z
-x,-y,-z
y,-x,-z
x,y,-z
-y,x,-z
1/2-x,1/2+y,z
1/2+x,1/2-y,z
1/2-y,1/2-x,z
1/2+y,1/2+x,z
loop_
_atom_site_type_symbol
_atom_site_label
_atom_site_fract_x
_atom_site_fract_y
_atom_site_fract_z
Si Si1 0.819793 0.175243 0.427729
Si Si2 0.072731 0.572731 0.067877
Si Si3 0.250775 0.500417 0.612561
Si Si4 0.456165 0.634962 0.929705
Si Si5 0.950946 0.692611 0.862008
Si Si6 0.493890 0.134124 0.500000
Si Si7 0.357760 0.000506 0.731112
O O1 0.821320 0.163072 0.500000
O O2 0.746176 0.246176 0.415642
O O3 0.802666 0.086405 0.394526
O O4 0.911701 0.204781 0.405174
O O5 0.150396 0.529112 0.101815
O O6 0.000000 0.500000 0.067060
O O7 0.094651 0.594651 0.000000
O O8 0.182538 0.489574 0.560281
O O9 0.205950 0.508239 0.676235
O O10 0.397004 0.552754 0.919554
O O11 0.435071 0.714691 0.888441
O O12 0.448801 0.658029 0.000000
O O13 0.869999 0.630002 0.869699
O O14 0.977050 0.688744 0.792691
O O15 0.557230 0.057230 0.500000
O O16 0.397312 0.102689 0.500000
O O17 0.415055 0.084946 0.738468
O O18 0.424837 0.924837 0.718649
#
# Coordination Sequence:
#
# PCOD9563954 Si02
#       7
#    16   8  16  16  16   8  16
#     4  11  22  39  61  87 121 151 187 245 297 347
#     4   9  16  28  52  84 118 151 177 218 292 355
#     4  12  23  38  59  84 114 157 195 235 293 354
#     4   9  19  38  61  83 115 160 201 239 288 343
#     4  10  19  35  57  86 120 151 188 241 297 345
#     4  11  20  32  56  87 110 136 188 247 298 345
#     4  10  20  37  59  83 116 153 194 245 299 354
#
# _framework density 17.232402
#
# number of rings (size 3 to 8) (size 9 to 14) (size 15 to 20)
#    0.000    1.667    2.500    4.000    0.000    2.667 
#    4.500    0.833    0.000    0.000    0.000    0.000 
#    0.000    0.000    0.000    0.000    0.000    0.000 
#
# Total GULP energy -535505.485940 kJ/mol
# GULP energy per Si atom -5578.182145 kJ/mol
# Density = 1.719318 g / cm^3
# Si number density = 17.232402 Si / 1000 Ang^3
#
#
#
# Elastic Constant Matrix: (Units=GPa)
#
#
# Indices 1 2 3 4 5 6 
#
# 1 97.6374 42.3799 48.1723 0.0000 0.0000 0.0000
# 2 42.3799 97.6366 48.1723 0.0000 0.0000 0.0000
# 3 48.1723 48.1723 110.3491 0.0000 0.0000 0.0000
# 4 0.0000 0.0000 0.0000 15.2925 0.0000 0.0000
# 5 0.0000 0.0000 0.0000 0.0000 16.4952 0.0000
# 6 0.0000 0.0000 0.0000 0.0000 0.0000 20.8921
#
#
#
# Elastic Compliance Matrix: (Units=1/GPa)
#
#
# Indices 1 2 3 4 5 6 
#
# 1 0.014153 -0.003944 -0.004456 0.000000 0.000000 0.000000
# 2 -0.003944 0.014153 -0.004456 0.000000 0.000000 0.000000
# 3 -0.004456 -0.004456 0.012953 0.000000 0.000000 0.000000
# 4 0.000000 0.000000 0.000000 0.065391 0.000000 0.000000
# 5 0.000000 0.000000 0.000000 0.000000 0.060624 0.000000
# 6 0.000000 0.000000 0.000000 0.000000 0.000000 0.047865
#
#
# Mechanical properties :
#
#
# Convention : Reuss Voigt Hill
#
# Bulk Modulus (GPa) = 64.33290 64.78577 64.55934
# Shear Modulus (GPa) = 20.32235 21.66255 20.99245
#
# Velocity S-wave (km/s) = 3.43783 3.54938 3.49405
# Velocity P-wave (km/s) = 7.29190 7.38068 7.33643
#
# Compressibility (1/GPa) = 0.01554415
#
# Stress axis : x y z
#
# Youngs Moduli (GPa) = 70.65762 70.65691 77.20208
#
# Poissons Ratio (x) = 0.27870 0.34404
# Poissons Ratio (y) = 0.27870 0.34405
# Poissons Ratio (z) = 0.31488 0.31488
#
# Static dielectric constant tensor:
#      x y z
#    x 1.643660 0.000000 0.000000 
#    y 0.000000 1.643660 0.000000 
#    z 0.000000 0.000000 1.553970 
# 
# From -- ./inp_files/6128.got.cif
#   From: 2010.05.17/outbox.cif.g08.bks.cpg/sg127_4_cif.got.tgz:6128.got - 2010.05.20 12:03:00.
