data_PCOD9563195
_publ_section_title
;
Structure prediction by ZEFSAII (Michael W. Deem and Ramdas Pophale) SiO2 
 PCOD9563195
Probable space group: P 4/N B M
;
_chemical_formula_sum "Si O2"
_cell_formula_units_Z 112
_cell_length_a 14.579873
_cell_length_b 14.579873
_cell_length_c 27.659021
_cell_angle_alpha 90.000000
_cell_angle_beta 90.000000
_cell_angle_gamma 90.000000
_cell_volume 5879.552682
_symmetry_space_group_name_H-M "P 4/N B M"
_symmetry_group_IT_number 125
_space_group.IT_coordinate_system_code '2'
_symmetry_cell_setting 'tetragonal'
loop_
_space_group_symop_operation_xyz
x,y,z
1/2-y,x,z
1/2-x,1/2-y,z
y,1/2-x,z
x,1/2-y,-z
1/2-x,y,-z
y,x,-z
1/2-y,1/2-x,-z
-x,-y,-z
1/2+y,-x,-z
1/2+x,1/2+y,-z
-y,1/2+x,-z
-x,1/2+y,z
1/2+x,-y,z
-y,-x,z
1/2+y,1/2+x,z
loop_
_atom_site_type_symbol
_atom_site_label
_atom_site_fract_x
_atom_site_fract_y
_atom_site_fract_z
Si Si1 0.595583 0.733294 0.110884
Si Si2 0.155182 0.991469 0.528641
Si Si3 0.099101 0.748915 0.058253
Si Si4 0.854348 0.637463 0.598534
Si Si5 0.752500 0.390664 0.618361
Si Si6 0.898899 0.714069 0.777420
Si Si7 0.370498 0.018351 0.685248
O O1 0.671654 0.652756 0.102503
O O2 0.501653 0.738150 0.080812
O O3 0.568636 0.716675 0.167158
O O4 0.250000 0.008607 0.500000
O O5 0.080847 0.919154 0.507831
O O6 0.193686 0.943702 0.577471
O O7 0.107651 0.082061 0.552231
O O8 0.166911 0.833090 0.071718
O O9 0.155112 0.655112 0.071351
O O10 0.091107 0.750000 0.000000
O O11 0.872566 0.745290 0.595623
O O12 0.894866 0.608127 0.650434
O O13 0.678271 0.321730 0.594985
O O14 0.826056 0.326056 0.645112
O O15 0.695684 0.455713 0.652762
O O16 0.856145 0.814413 0.771204
O O17 0.964231 0.683062 0.734736
O O18 0.463369 0.963369 0.694721
#
# Coordination Sequence:
#
# PCOD9563195 Si02
#       7
#    16  16  16  16  16  16  16
#     4   9  19  36  57  84 120 160 206 262 321 381
#     4  11  23  41  64  89 112 140 181 227 277 337
#     4   9  19  36  57  83 120 168 218 266 319 378
#     4  11  23  41  60  81 113 152 185 221 276 334
#     4   9  19  37  58  80 110 142 175 222 276 332
#     4   9  19  37  58  80 112 154 193 236 298 362
#     4  11  21  36  59  88 114 144 190 235 282 342
#
# _framework density 19.049067999999998
#
# number of rings (size 3 to 8) (size 9 to 14) (size 15 to 20)
#    0.000    2.143    1.429    3.000    0.000    4.143 
#    0.000    6.429    0.000    1.714    0.000    0.000 
#    0.000    0.000    0.000    0.000    0.000    0.000 
#
# Total GULP energy -624152.913111 kJ/mol
# GULP energy per Si atom -5572.793867 kJ/mol
# Density = 1.900571 g / cm^3
# Si number density = 19.049068 Si / 1000 Ang^3
#
#
#
# Elastic Constant Matrix: (Units=GPa)
#
#
# Indices 1 2 3 4 5 6 
#
# 1 101.2388 36.4733 43.2855 0.0000 0.0000 0.0000
# 2 36.4733 101.2388 43.2855 0.0000 0.0000 0.0000
# 3 43.2855 43.2855 71.2862 0.0000 0.0000 0.0000
# 4 0.0000 0.0000 0.0000 15.0187 0.0000 0.0000
# 5 0.0000 0.0000 0.0000 0.0000 15.0187 0.0000
# 6 0.0000 0.0000 0.0000 0.0000 0.0000 28.5170
#
#
#
# Elastic Compliance Matrix: (Units=1/GPa)
#
#
# Indices 1 2 3 4 5 6 
#
# 1 0.013592 -0.001848 -0.007131 0.000000 0.000000 0.000000
# 2 -0.001848 0.013592 -0.007131 0.000000 0.000000 0.000000
# 3 -0.007131 -0.007131 0.022688 0.000000 0.000000 0.000000
# 4 0.000000 0.000000 0.000000 0.066584 0.000000 0.000000
# 5 0.000000 0.000000 0.000000 0.000000 0.066584 0.000000
# 6 0.000000 0.000000 0.000000 0.000000 0.000000 0.035067
#
#
# Mechanical properties :
#
#
# Convention : Reuss Voigt Hill
#
# Bulk Modulus (GPa) = 56.65074 57.76137 57.20605
# Shear Modulus (GPa) = 19.51502 21.75884 20.63693
#
# Velocity S-wave (km/s) = 3.20419 3.38339 3.29501
# Velocity P-wave (km/s) = 6.59493 6.75658 6.67624
#
# Compressibility (1/GPa) = 0.01765202
#
# Stress axis : x y z
#
# Youngs Moduli (GPa) = 73.57027 73.57027 44.07537
#
# Poissons Ratio (x) = 0.13595 0.31432
# Poissons Ratio (y) = 0.13595 0.31432
# Poissons Ratio (z) = 0.52466 0.52466
#
# Static dielectric constant tensor:
#      x y z
#    x 1.711810 0.000000 0.000000 
#    y 0.000000 1.711810 0.000000 
#    z 0.000000 0.000000 1.670260 
# 
# From -- ./inp_files/6262.got.cif
#   From: 2010.05.17/outbox.cif.g08.bks.cpg/sg125_4_cif.got.tgz:6262.got - 2010.05.20 11:54:10.
