data_PCOD9563816
_publ_section_title
;
Structure prediction by ZEFSAII (Michael W. Deem and Ramdas Pophale) SiO2 
 PCOD9563816
Probable space group: P 4/M B M
;
_chemical_formula_sum "Si O2"
_cell_formula_units_Z 80
_cell_length_a 20.463639
_cell_length_b 20.463639
_cell_length_c 13.952699
_cell_angle_alpha 90.000000
_cell_angle_beta 90.000000
_cell_angle_gamma 90.000000
_cell_volume 5842.839504
_symmetry_space_group_name_H-M "P 4/M B M"
_symmetry_group_IT_number 127
_symmetry_cell_setting 'tetragonal'
loop_
_space_group_symop_operation_xyz
x,y,z
-y,x,z
-x,-y,z
y,-x,z
1/2+x,1/2-y,-z
1/2-x,1/2+y,-z
1/2+y,1/2+x,-z
1/2-y,1/2-x,-z
-x,-y,-z
y,-x,-z
x,y,-z
-y,x,-z
1/2-x,1/2+y,z
1/2+x,1/2-y,z
1/2-y,1/2-x,z
1/2+y,1/2+x,z
loop_
_atom_site_type_symbol
_atom_site_label
_atom_site_fract_x
_atom_site_fract_y
_atom_site_fract_z
Si Si1 0.325100 0.572288 0.385124
Si Si2 0.172288 0.929135 0.299848
Si Si3 0.538807 0.396993 0.889115
Si Si4 0.675368 0.929291 0.615906
Si Si5 0.187391 0.421669 0.385241
O O1 0.328762 0.575879 0.500000
O O2 0.340229 0.498566 0.352030
O O3 0.375093 0.622898 0.339623
O O4 0.249923 0.586214 0.355301
O O5 0.156348 0.940538 0.188330
O O6 0.246121 0.910099 0.327066
O O7 0.580935 0.463390 0.874637
O O8 0.546267 0.377064 0.000000
O O9 0.674187 0.925626 0.500000
O O10 0.621703 0.878297 0.652707
O O11 0.662799 0.005240 0.639427
O O12 0.202879 0.421654 0.500000
O O13 0.132689 0.367312 0.368251
#
# Coordination Sequence:
#
# PCOD9563816 Si02
#       5
#    16  16  16  16  16
#     4  10  19  27  38  60  90 123 152 178 209 252
#     4  11  18  29  43  61  89 120 149 184 215 262
#     4   9  17  30  46  65  86 112 151 192 225 258
#     4   8  15  28  43  59  81 112 152 188 211 243
#     4   9  18  30  43  63  91 119 147 181 223 269
#
# _framework density 13.691974
#
# number of rings (size 3 to 8) (size 9 to 14) (size 15 to 20)
#    0.000    2.600    2.000    3.600    0.000    1.600 
#    0.000    5.000    0.000    0.600    0.000    0.000 
#    0.000   12.800    0.000    7.200    0.000    0.800 
#
# Total GULP energy -445516.668938 kJ/mol
# GULP energy per Si atom -5568.958362 kJ/mol
# Density = 1.366081 g / cm^3
# Si number density = 13.691974 Si / 1000 Ang^3
#
#
#
# Elastic Constant Matrix: (Units=GPa)
#
#
# Indices 1 2 3 4 5 6 
#
# 1 95.5146 80.9692 38.9609 0.0000 0.0000 0.0000
# 2 80.9692 95.5146 38.9609 0.0000 0.0000 0.0000
# 3 38.9609 38.9609 67.4303 0.0000 0.0000 0.0000
# 4 0.0000 0.0000 0.0000 11.6197 0.0000 0.0000
# 5 0.0000 0.0000 0.0000 0.0000 11.6197 0.0000
# 6 0.0000 0.0000 0.0000 0.0000 0.0000 27.4564
#
#
#
# Elastic Compliance Matrix: (Units=1/GPa)
#
#
# Indices 1 2 3 4 5 6 
#
# 1 0.038179 -0.030572 -0.004395 0.000000 0.000000 0.000000
# 2 -0.030572 0.038179 -0.004395 0.000000 0.000000 0.000000
# 3 -0.004395 -0.004395 0.019909 0.000000 0.000000 0.000000
# 4 0.000000 0.000000 0.000000 0.086061 0.000000 0.000000
# 5 0.000000 0.000000 0.000000 0.000000 0.086061 0.000000
# 6 0.000000 0.000000 0.000000 0.000000 0.000000 0.036421
#
#
# Mechanical properties :
#
#
# Convention : Reuss Voigt Hill
#
# Bulk Modulus (GPa) = 57.00583 64.02685 60.51634
# Shear Modulus (GPa) = 12.84092 16.77708 14.80900
#
# Velocity S-wave (km/s) = 3.06574 3.50426 3.29231
# Velocity P-wave (km/s) = 7.36591 7.95217 7.66464
#
# Compressibility (1/GPa) = 0.01754206
#
# Stress axis : x y z
#
# Youngs Moduli (GPa) = 26.19272 26.19272 50.22816
#
# Poissons Ratio (x) = 0.80076 0.22076
# Poissons Ratio (y) = 0.80076 0.22076
# Poissons Ratio (z) = 0.11512 0.11512
#
# Static dielectric constant tensor:
#      x y z
#    x 1.447690 0.000000 0.000000 
#    y 0.000000 1.447690 0.000000 
#    z 0.000000 0.000000 1.431140 
# 
# From -- ./inp_files/4231.got.cif
#   From: 2010.05.17/outbox.cif.g08.bks.cpg/sg127_3_cif.got.tgz:4231.got - 2010.05.20 12:03:00.
