data_PCOD9563362
_publ_section_title
;
Structure prediction by ZEFSAII (Michael W. Deem and Ramdas Pophale) SiO2 
 PCOD9563362
Probable space group: P 4/N N C
;
_chemical_formula_sum "Si O2"
_cell_formula_units_Z 104
_cell_length_a 18.383367
_cell_length_b 18.383367
_cell_length_c 19.153834
_cell_angle_alpha 90.000000
_cell_angle_beta 90.000000
_cell_angle_gamma 90.000000
_cell_volume 6473.003384
_symmetry_space_group_name_H-M "P 4/N N C"
_symmetry_group_IT_number 126
_space_group.IT_coordinate_system_code '2'
_symmetry_cell_setting 'tetragonal'
loop_
_space_group_symop_operation_xyz
x,y,z
1/2-y,x,z
1/2-x,1/2-y,z
y,1/2-x,z
x,1/2-y,1/2-z
1/2-x,y,1/2-z
y,x,1/2-z
1/2-y,1/2-x,1/2-z
-x,-y,-z
1/2+y,-x,-z
1/2+x,1/2+y,-z
-y,1/2+x,-z
-x,1/2+y,1/2+z
1/2+x,-y,1/2+z
-y,-x,1/2+z
1/2+y,1/2+x,1/2+z
loop_
_atom_site_type_symbol
_atom_site_label
_atom_site_fract_x
_atom_site_fract_y
_atom_site_fract_z
Si Si1 0.855542 0.692963 0.886233
Si Si2 0.419821 0.819759 0.847792
Si Si3 0.159728 0.814470 0.027149
Si Si4 0.344655 0.548090 0.305576
Si Si5 0.415373 0.937380 0.056075
Si Si6 0.530034 0.896926 0.951373
Si Si7 0.109842 0.109842 0.250000
O O1 0.845162 0.777918 0.891687
O O2 0.907527 0.661953 0.945098
O O3 0.883717 0.670681 0.809661
O O4 0.348901 0.822554 0.897255
O O5 0.409866 0.843859 0.767879
O O6 0.451797 0.737491 0.838124
O O7 0.475701 0.873499 0.888233
O O8 0.227573 0.839907 0.978231
O O9 0.086892 0.848960 0.994280
O O10 0.394578 0.581723 0.365428
O O11 0.375239 0.467685 0.286791
O O12 0.435127 0.023017 0.055593
O O13 0.483737 0.896970 0.021815
#
# Coordination Sequence:
#
# PCOD9563362 Si02
#       7
#    16  16  16  16  16  16   8
#     4  11  22  32  46  74 109 145 179 211 253 316
#     4  10  20  32  51  75 100 136 175 214 262 315
#     4  10  20  36  54  71  96 133 177 225 270 314
#     4  11  19  31  50  76 102 137 174 218 257 314
#     4  10  20  33  50  73  97 131 178 220 257 314
#     4  10  20  33  49  72 101 137 178 210 256 312
#     4  12  20  29  48  72 112 142 172 205 258 312
#
# _framework density 16.066731000000001
#
# number of rings (size 3 to 8) (size 9 to 14) (size 15 to 20)
#    0.000    1.538    4.615    1.385    2.154    0.615 
#    0.000    0.769    0.000    0.000    0.000    2.154 
#    0.000    0.000    0.000    1.077    0.000  133.538 
#
# Total GULP energy -579554.035209 kJ/mol
# GULP energy per Si atom -5572.634954 kJ/mol
# Density = 1.603016 g / cm^3
# Si number density = 16.066731 Si / 1000 Ang^3
#
#
#
# Elastic Constant Matrix: (Units=GPa)
#
#
# Indices 1 2 3 4 5 6 
#
# 1 58.8994 2.1565 41.0422 0.0000 0.0000 0.0000
# 2 2.1565 58.8994 41.0422 0.0000 0.0000 0.0000
# 3 41.0422 41.0422 113.5066 0.0000 0.0000 0.0000
# 4 0.0000 0.0000 0.0000 28.6285 0.0000 0.0000
# 5 0.0000 0.0000 0.0000 0.0000 28.6285 0.0000
# 6 0.0000 0.0000 0.0000 0.0000 0.0000 24.5733
#
#
#
# Elastic Compliance Matrix: (Units=1/GPa)
#
#
# Indices 1 2 3 4 5 6 
#
# 1 0.024748 0.007124 -0.011524 0.000000 0.000000 0.000000
# 2 0.007124 0.024748 -0.011524 0.000000 0.000000 0.000000
# 3 -0.011524 -0.011524 0.017144 0.000000 0.000000 0.000000
# 4 0.000000 0.000000 0.000000 0.034930 0.000000 0.000000
# 5 0.000000 0.000000 0.000000 0.000000 0.034930 0.000000
# 6 0.000000 0.000000 0.000000 0.000000 0.000000 0.040695
#
#
# Mechanical properties :
#
#
# Convention : Reuss Voigt Hill
#
# Bulk Modulus (GPa) = 28.74346 44.42077 36.58212
# Shear Modulus (GPa) = 22.66133 26.17039 24.41586
#
# Velocity S-wave (km/s) = 3.75967 4.04029 3.90250
# Velocity P-wave (km/s) = 6.06430 7.03370 6.56691
#
# Compressibility (1/GPa) = 0.03479052
#
# Stress axis : x y z
#
# Youngs Moduli (GPa) = 40.40785 40.40785 58.32898
#
# Poissons Ratio (x) = -0.28788 0.67221
# Poissons Ratio (y) = -0.28788 0.67221
# Poissons Ratio (z) = 0.46568 0.46568
#
# Static dielectric constant tensor:
#      x y z
#    x 1.564130 0.000000 0.000000 
#    y 0.000000 1.564130 0.000000 
#    z 0.000000 0.000000 1.538890 
# 
# From -- ./inp_files/4562.got.cif
#   From: 2010.05.17/outbox.cif.g08.bks.cpg/sg126_3_cif.got.tgz:4562.got - 2010.05.20 11:58:20.
