data_PCOD9563845
_publ_section_title
;
Structure prediction by ZEFSAII (Michael W. Deem and Ramdas Pophale) SiO2 
 PCOD9563845
Probable space group: P 4/M B M
;
_chemical_formula_sum "Si O2"
_cell_formula_units_Z 96
_cell_length_a 24.701738
_cell_length_b 24.701738
_cell_length_c 7.441754
_cell_angle_alpha 90.000000
_cell_angle_beta 90.000000
_cell_angle_gamma 90.000000
_cell_volume 4540.778649
_symmetry_space_group_name_H-M "P 4/M B M"
_symmetry_group_IT_number 127
_symmetry_cell_setting 'tetragonal'
loop_
_space_group_symop_operation_xyz
x,y,z
-y,x,z
-x,-y,z
y,-x,z
1/2+x,1/2-y,-z
1/2-x,1/2+y,-z
1/2+y,1/2+x,-z
1/2-y,1/2-x,-z
-x,-y,-z
y,-x,-z
x,y,-z
-y,x,-z
1/2-x,1/2+y,z
1/2+x,1/2-y,z
1/2-y,1/2-x,z
1/2+y,1/2+x,z
loop_
_atom_site_type_symbol
_atom_site_label
_atom_site_fract_x
_atom_site_fract_y
_atom_site_fract_z
Si Si1 0.369483 0.783365 0.713003
Si Si2 0.999187 0.587181 0.219407
Si Si3 0.694265 0.720008 0.215141
Si Si4 0.493333 0.791697 0.208123
Si Si5 0.572654 0.698311 0.779289
Si Si6 0.532637 0.580882 0.218924
O O1 0.374572 0.789794 0.500000
O O2 0.334878 0.834878 0.783065
O O3 0.332722 0.730851 0.748327
O O4 0.429665 0.778895 0.786457
O O5 0.050382 0.550382 0.271066
O O6 0.945359 0.554642 0.275791
O O7 0.001216 0.648349 0.286329
O O8 0.998035 0.588139 0.000000
O O9 0.728663 0.771338 0.284574
O O10 0.633266 0.713043 0.280171
O O11 0.691094 0.725769 0.000000
O O12 0.529902 0.743498 0.282496
O O13 0.509841 0.796116 0.000000
O O14 0.554961 0.638446 0.720778
O O15 0.572436 0.697159 0.000000
O O16 0.470877 0.568419 0.274143
O O17 0.532864 0.581203 0.000000
#
# Coordination Sequence:
#
# PCOD9563845 Si02
#       6
#    16  16  16  16  16  16
#     4  10  21  36  53  73  99 134 175 217 258 299
#     4   8  14  25  42  66  97 131 163 195 236 290
#     4   9  18  33  52  74 102 134 168 209 255 302
#     4  10  19  30  49  78 105 130 163 207 258 307
#     4   9  18  28  44  74 103 129 160 200 250 302
#     4   8  14  24  38  59  90 126 156 187 232 282
#
# _framework density 21.141746999999999
#
# number of rings (size 3 to 8) (size 9 to 14) (size 15 to 20)
#    0.000    3.000    0.000    2.000    2.333    2.333 
#    0.000    4.167    0.000    0.500    0.000    2.333 
#    0.000    1.333    0.000    0.000    0.000    0.000 
#
# Total GULP energy -535894.124974 kJ/mol
# GULP energy per Si atom -5582.230468 kJ/mol
# Density = 2.109363 g / cm^3
# Si number density = 21.141747 Si / 1000 Ang^3
#
#
#
# Elastic Constant Matrix: (Units=GPa)
#
#
# Indices 1 2 3 4 5 6 
#
# 1 179.6035 132.9453 -1.1061 0.0000 0.0000 0.0000
# 2 132.9453 179.6035 -1.1061 0.0000 0.0000 0.0000
# 3 -1.1061 -1.1061 65.0906 0.0000 0.0000 0.0000
# 4 0.0000 0.0000 0.0000 5.6640 0.0000 0.0000
# 5 0.0000 0.0000 0.0000 0.0000 5.6640 0.0000
# 6 0.0000 0.0000 0.0000 0.0000 0.0000 15.7038
#
#
#
# Elastic Compliance Matrix: (Units=1/GPa)
#
#
# Indices 1 2 3 4 5 6 
#
# 1 0.012316 -0.009116 0.000054 0.000000 0.000000 0.000000
# 2 -0.009116 0.012316 0.000054 0.000000 0.000000 0.000000
# 3 0.000054 0.000054 0.015365 0.000000 0.000000 0.000000
# 4 0.000000 0.000000 0.000000 0.176555 0.000000 0.000000
# 5 0.000000 0.000000 0.000000 0.000000 0.176555 0.000000
# 6 0.000000 0.000000 0.000000 0.000000 0.000000 0.063679
#
#
# Mechanical properties :
#
#
# Convention : Reuss Voigt Hill
#
# Bulk Modulus (GPa) = 45.49108 76.19598 60.84353
# Shear Modulus (GPa) = 10.37067 24.97730 17.67398
#
# Velocity S-wave (km/s) = 2.21719 3.44091 2.89446
# Velocity P-wave (km/s) = 5.30269 7.20453 6.32549
#
# Compressibility (1/GPa) = 0.02198233
#
# Stress axis : x y z
#
# Youngs Moduli (GPa) = 81.19404 81.19404 65.08273
#
# Poissons Ratio (x) = 0.74019 -0.00354
# Poissons Ratio (y) = 0.74019 -0.00354
# Poissons Ratio (z) = -0.00441 -0.00441
#
# Static dielectric constant tensor:
#      x y z
#    x 1.726460 0.000000 0.000000 
#    y 0.000000 1.726460 0.000000 
#    z 0.000000 0.000000 1.790770 
# 
# From -- ./inp_files/1986.got.cif
#   From: 2010.05.17/outbox.cif.g08.bks.cpg/sg127_1_cif.got.tgz:1986.got - 2010.05.20 12:03:00.
