data_PCOD9563956
_publ_section_title
;
Structure prediction by ZEFSAII (Michael W. Deem and Ramdas Pophale) SiO2 
 PCOD9563956
Probable space group: P 4/M B M
;
_chemical_formula_sum "Si O2"
_cell_formula_units_Z 72
_cell_length_a 21.961778
_cell_length_b 21.961778
_cell_length_c 8.311954
_cell_angle_alpha 90.000000
_cell_angle_beta 90.000000
_cell_angle_gamma 90.000000
_cell_volume 4009.019101
_symmetry_space_group_name_H-M "P 4/M B M"
_symmetry_group_IT_number 127
_symmetry_cell_setting 'tetragonal'
loop_
_space_group_symop_operation_xyz
x,y,z
-y,x,z
-x,-y,z
y,-x,z
1/2+x,1/2-y,-z
1/2-x,1/2+y,-z
1/2+y,1/2+x,-z
1/2-y,1/2-x,-z
-x,-y,-z
y,-x,-z
x,y,-z
-y,x,-z
1/2-x,1/2+y,z
1/2+x,1/2-y,z
1/2-y,1/2-x,z
1/2+y,1/2+x,z
loop_
_atom_site_type_symbol
_atom_site_label
_atom_site_fract_x
_atom_site_fract_y
_atom_site_fract_z
Si Si1 0.449424 0.949424 0.807108
Si Si2 0.663974 0.256374 0.304256
Si Si3 0.682608 0.501570 0.812535
Si Si4 0.378966 0.617324 0.309616
Si Si5 0.039600 0.309973 0.693271
O O1 0.379924 0.966078 0.752200
O O2 0.500000 0.000000 0.752888
O O3 0.449588 0.949588 0.000000
O O4 0.662122 0.256505 0.500000
O O5 0.723762 0.223762 0.246856
O O6 0.660961 0.325465 0.254250
O O7 0.605958 0.215959 0.255462
O O8 0.643745 0.441009 0.784381
O O9 0.644541 0.553882 0.720415
O O10 0.752951 0.497609 0.750911
O O11 0.684847 0.517551 0.000000
O O12 0.371744 0.605595 0.500000
O O13 0.036861 0.311804 0.500000
#
# Coordination Sequence:
#
# PCOD9563956 Si02
#       5
#     8  16  16  16  16
#     4  11  23  37  55  85 121 153 189 237 293 344
#     4   8  14  28  53  82 104 128 171 230 277 319
#     4  11  22  37  56  81 115 149 186 235 294 341
#     4  10  20  35  56  81 110 147 193 235 280 342
#     4  10  19  35  59  82 108 144 188 232 275 332
#
# _framework density 17.959506000000001
#
# number of rings (size 3 to 8) (size 9 to 14) (size 15 to 20)
#    0.000    2.111    1.111    5.000    0.000    1.333 
#    0.000    3.333    0.000    4.000    0.000    0.000 
#    0.000    0.000    0.000    0.000    0.000    0.000 
#
# Total GULP energy -400906.580183 kJ/mol
# GULP energy per Si atom -5568.146947 kJ/mol
# Density = 1.791863 g / cm^3
# Si number density = 17.959506 Si / 1000 Ang^3
#
#
#
# Elastic Constant Matrix: (Units=GPa)
#
#
# Indices 1 2 3 4 5 6 
#
# 1 71.0120 39.8665 1.3687 0.0000 0.0000 0.0000
# 2 39.8665 71.0120 1.3687 0.0000 0.0000 0.0000
# 3 1.3687 1.3687 46.1802 0.0000 0.0000 0.0000
# 4 0.0000 0.0000 0.0000 22.4968 0.0000 0.0000
# 5 0.0000 0.0000 0.0000 0.0000 22.4968 0.0000
# 6 0.0000 0.0000 0.0000 0.0000 0.0000 25.6293
#
#
#
# Elastic Compliance Matrix: (Units=1/GPa)
#
#
# Indices 1 2 3 4 5 6 
#
# 1 0.020566 -0.011541 -0.000268 0.000000 0.000000 0.000000
# 2 -0.011541 0.020566 -0.000268 0.000000 0.000000 0.000000
# 3 -0.000268 -0.000268 0.021670 0.000000 0.000000 0.000000
# 4 0.000000 0.000000 0.000000 0.044451 0.000000 0.000000
# 5 0.000000 0.000000 0.000000 0.000000 0.044451 0.000000
# 6 0.000000 0.000000 0.000000 0.000000 0.000000 0.039018
#
#
# Mechanical properties :
#
#
# Convention : Reuss Voigt Hill
#
# Bulk Modulus (GPa) = 25.87247 30.37913 28.12580
# Shear Modulus (GPa) = 21.95315 23.83129 22.89222
#
# Velocity S-wave (km/s) = 3.50003 3.64668 3.57411
# Velocity P-wave (km/s) = 5.54715 5.88923 5.72075
#
# Compressibility (1/GPa) = 0.03865112
#
# Stress axis : x y z
#
# Youngs Moduli (GPa) = 48.62298 48.62298 46.14640
#
# Poissons Ratio (x) = 0.56115 0.01234
# Poissons Ratio (y) = 0.56115 0.01234
# Poissons Ratio (z) = 0.01301 0.01301
#
# Static dielectric constant tensor:
#      x y z
#    x 1.622760 0.000000 0.000000 
#    y 0.000000 1.622760 0.000000 
#    z 0.000000 0.000000 1.618440 
# 
# From -- ./inp_files/1548.got.cif
#   From: 2010.05.17/outbox.cif.g08.bks.cpg/sg127_1_cif.got.tgz:1548.got - 2010.05.20 12:03:00.
