data_PCOD9563705
_publ_section_title
;
Structure prediction by ZEFSAII (Michael W. Deem and Ramdas Pophale) SiO2 
 PCOD9563705
Probable space group: P 4/N N C
;
_chemical_formula_sum "Si O2"
_cell_formula_units_Z 116
_cell_length_a 16.959207
_cell_length_b 16.959207
_cell_length_c 18.301451
_cell_angle_alpha 90.000000
_cell_angle_beta 90.000000
_cell_angle_gamma 90.000000
_cell_volume 5263.766377
_symmetry_space_group_name_H-M "P 4/N N C"
_symmetry_group_IT_number 126
_space_group.IT_coordinate_system_code '2'
_symmetry_cell_setting 'tetragonal'
loop_
_space_group_symop_operation_xyz
x,y,z
1/2-y,x,z
1/2-x,1/2-y,z
y,1/2-x,z
x,1/2-y,1/2-z
1/2-x,y,1/2-z
y,x,1/2-z
1/2-y,1/2-x,1/2-z
-x,-y,-z
1/2+y,-x,-z
1/2+x,1/2+y,-z
-y,1/2+x,-z
-x,1/2+y,1/2+z
1/2+x,-y,1/2+z
-y,-x,1/2+z
1/2+y,1/2+x,1/2+z
loop_
_atom_site_type_symbol
_atom_site_label
_atom_site_fract_x
_atom_site_fract_y
_atom_site_fract_z
Si Si1 0.340872 0.614049 0.941375
Si Si2 0.250000 0.750000 0.500000
Si Si3 0.708308 0.445500 0.329252
Si Si4 0.468030 0.550152 0.839468
Si Si5 0.167422 0.564904 0.287644
Si Si6 0.108467 0.118059 0.827981
Si Si7 0.000206 0.376102 0.074209
Si Si8 0.820148 0.857042 0.019726
O O1 0.269532 0.574954 0.894114
O O2 0.418115 0.604917 0.893212
O O3 0.314913 0.703365 0.954293
O O4 0.362219 0.571304 0.017656
O O5 0.750000 0.450815 0.250000
O O6 0.642102 0.377810 0.318496
O O7 0.665555 0.528341 0.344500
O O8 0.476878 0.604887 0.767826
O O9 0.414376 0.474309 0.820278
O O10 0.540482 0.513129 0.884746
O O11 0.250000 0.584590 0.250000
O O12 0.182469 0.510245 0.357770
O O13 0.142523 0.142523 0.750000
O O14 0.167304 0.127642 0.894620
O O15 0.076207 0.362599 0.025420
O O16 0.728149 0.855273 0.002525
#
# Coordination Sequence:
#
# PCOD9563705 Si02
#       8
#    16   4  16  16  16  16  16  16
#     4  12  27  46  71 112 149 211 236 314 385 468
#     4  12  32  44  70 112 172 180 258 300 392 492
#     4  12  25  44  74 108 157 199 248 304 392 473
#     4  12  25  50  75 106 147 193 267 313 374 457
#     4  12  28  47  76 111 150 200 263 321 392 461
#     4  12  23  44  73 104 143 191 246 308 367 472
#     4  12  26  49  78 105 142 200 261 321 372 462
#     4  11  28  47  68 106 145 184 243 318 395 455
#
# _framework density 22.037451000000001
#
# number of rings (size 3 to 8) (size 9 to 14) (size 15 to 20)
#    0.000    0.138    5.517    2.483    7.724    0.276 
#    0.000    0.690    0.000    0.000    0.000    0.000 
#    0.000    0.000    0.000    0.000    0.000    0.000 
#
# Total GULP energy -649279.407819 kJ/mol
# GULP energy per Si atom -5597.236274 kJ/mol
# Density = 2.198729 g / cm^3
# Si number density = 22.037451 Si / 1000 Ang^3
#
#
#
# Elastic Constant Matrix: (Units=GPa)
#
#
# Indices 1 2 3 4 5 6 
#
# 1 -183.6139 263.0999 22.5274 0.0000 0.0000 0.0000
# 2 263.0999 -183.6139 22.5274 0.0000 0.0000 0.0000
# 3 22.5274 22.5274 135.1786 0.0000 0.0000 0.0000
# 4 0.0000 0.0000 0.0000 31.7171 0.0000 0.0000
# 5 0.0000 0.0000 0.0000 0.0000 31.7171 0.0000
# 6 0.0000 0.0000 0.0000 0.0000 0.0000 41.5899
#
#
#
# Elastic Compliance Matrix: (Units=1/GPa)
#
#
# Indices 1 2 3 4 5 6 
#
# 1 0.005827 0.008066 -0.002315 0.000000 0.000000 0.000000
# 2 0.008066 0.005827 -0.002315 0.000000 0.000000 0.000000
# 3 -0.002315 -0.002315 0.008169 0.000000 0.000000 0.000000
# 4 0.000000 0.000000 0.000000 0.031529 0.000000 0.000000
# 5 0.000000 0.000000 0.000000 0.000000 0.031529 0.000000
# 6 0.000000 0.000000 0.000000 0.000000 0.000000 0.024044
#
#
# Mechanical properties :
#
#
# Convention : Reuss Voigt Hill
#
# Bulk Modulus (GPa) = 37.46084 42.69557 40.07820
# Shear Modulus (GPa) = 45.89124 -15.00877 15.44124
#
# Velocity S-wave (km/s) = 4.56831 -2.61254 2.64991
# Velocity P-wave (km/s) = 6.69787 3.21180 5.25248
#
# Compressibility (1/GPa) = 0.02669454
#
# Stress axis : x y z
#
# Youngs Moduli (GPa) = 171.60573 171.60573 122.40950
#
# Poissons Ratio (x) = -1.38415 0.28341
# Poissons Ratio (y) = -1.38415 0.28341
# Poissons Ratio (z) = 0.39732 0.39732
#
# Static dielectric constant tensor:
#      x y z
#    x 1.821300 0.000000 0.000000 
#    y 0.000000 1.821300 0.000000 
#    z 0.000000 0.000000 1.865580 
# 
# From -- ./inp_files/4614.got.cif
#   From: 2010.05.17/outbox.cif.g08.bks.cpg/sg126_3_cif.got.tgz:4614.got - 2010.05.20 11:58:20.
