data_PCOD9563090
_publ_section_title
;
Structure prediction by ZEFSAII (Michael W. Deem and Ramdas Pophale) SiO2 
 PCOD9563090
Probable space group: P 4/N B M
;
_chemical_formula_sum "Si O2"
_cell_formula_units_Z 112
_cell_length_a 14.543842
_cell_length_b 14.543842
_cell_length_c 28.240135
_cell_angle_alpha 90.000000
_cell_angle_beta 90.000000
_cell_angle_gamma 90.000000
_cell_volume 5973.447681
_symmetry_space_group_name_H-M "P 4/N B M"
_symmetry_group_IT_number 125
_space_group.IT_coordinate_system_code '2'
_symmetry_cell_setting 'tetragonal'
loop_
_space_group_symop_operation_xyz
x,y,z
1/2-y,x,z
1/2-x,1/2-y,z
y,1/2-x,z
x,1/2-y,-z
1/2-x,y,-z
y,x,-z
1/2-y,1/2-x,-z
-x,-y,-z
1/2+y,-x,-z
1/2+x,1/2+y,-z
-y,1/2+x,-z
-x,1/2+y,z
1/2+x,-y,z
-y,-x,z
1/2+y,1/2+x,z
loop_
_atom_site_type_symbol
_atom_site_label
_atom_site_fract_x
_atom_site_fract_y
_atom_site_fract_z
Si Si1 0.364157 0.017182 0.366750
Si Si2 0.350865 0.493752 0.522700
Si Si3 0.857481 0.856680 0.286162
Si Si4 0.752639 0.101038 0.705785
Si Si5 0.358668 0.004967 0.786936
Si Si6 0.005900 0.149011 0.976419
Si Si7 0.699144 0.604080 0.881218
O O1 0.455798 0.955798 0.364275
O O2 0.338970 0.025237 0.421352
O O3 0.288219 0.963805 0.335108
O O4 0.380068 0.111967 0.339098
O O5 0.250000 0.502876 0.500000
O O6 0.411098 0.411098 0.500000
O O7 0.414085 0.585916 0.517362
O O8 0.750656 0.872137 0.278120
O O9 0.921867 0.906581 0.248581
O O10 0.838217 0.161784 0.687330
O O11 0.671656 0.171656 0.718439
O O12 0.789437 0.050566 0.752571
O O13 0.313650 0.059010 0.829891
O O14 0.433270 0.933270 0.805460
O O15 0.034757 0.168729 0.922312
O O16 0.996288 0.250000 0.000000
O O17 0.089055 0.089055 0.000000
O O18 0.914905 0.085096 0.980129
O O19 0.804275 0.637218 0.885984
#
# Coordination Sequence:
#
# PCOD9563090 Si02
#       7
#    16  16  16  16  16  16  16
#     4  10  21  39  61  87 112 150 202 248 304 368
#     4  10  24  43  64  92 126 161 206 263 323 389
#     4  11  22  36  54  82 118 154 195 243 298 361
#     4   9  19  37  60  85 115 154 201 251 304 372
#     4  11  22  38  58  87 125 163 205 256 316 374
#     4  11  23  43  71 102 134 173 224 278 333 390
#     4  11  23  40  64  93 129 171 218 269 317 378
#
# _framework density 18.749639999999999
#
# number of rings (size 3 to 8) (size 9 to 14) (size 15 to 20)
#    0.000    1.571    2.857    1.714    2.000    2.286 
#    0.000    2.857    0.000    1.714    0.000    0.000 
#    0.000    0.000    0.000    0.000    0.000    0.000 
#
# Total GULP energy -624949.403193 kJ/mol
# GULP energy per Si atom -5579.905386 kJ/mol
# Density = 1.870697 g / cm^3
# Si number density = 18.749640 Si / 1000 Ang^3
#
#
#
# Elastic Constant Matrix: (Units=GPa)
#
#
# Indices 1 2 3 4 5 6 
#
# 1 106.1819 46.0904 45.1503 0.0000 0.0000 0.0000
# 2 46.0904 106.1819 45.1503 0.0000 0.0000 0.0000
# 3 45.1503 45.1503 119.5971 0.0000 0.0000 0.0000
# 4 0.0000 0.0000 0.0000 22.9056 0.0000 0.0000
# 5 0.0000 0.0000 0.0000 0.0000 22.9056 0.0000
# 6 0.0000 0.0000 0.0000 0.0000 0.0000 11.4024
#
#
#
# Elastic Compliance Matrix: (Units=1/GPa)
#
#
# Indices 1 2 3 4 5 6 
#
# 1 0.012551 -0.004090 -0.003194 0.000000 0.000000 0.000000
# 2 -0.004090 0.012551 -0.003194 0.000000 0.000000 0.000000
# 3 -0.003194 -0.003194 0.010773 0.000000 0.000000 0.000000
# 4 0.000000 0.000000 0.000000 0.043657 0.000000 0.000000
# 5 0.000000 0.000000 0.000000 0.000000 0.043657 0.000000
# 6 0.000000 0.000000 0.000000 0.000000 0.000000 0.087701
#
#
# Mechanical properties :
#
#
# Convention : Reuss Voigt Hill
#
# Bulk Modulus (GPa) = 67.02962 67.19363 67.11162
# Shear Modulus (GPa) = 21.11288 24.48072 22.79680
#
# Velocity S-wave (km/s) = 3.35930 3.61732 3.49069
# Velocity P-wave (km/s) = 7.13259 7.30491 7.21927
#
# Compressibility (1/GPa) = 0.01491878
#
# Stress axis : x y z
#
# Youngs Moduli (GPa) = 79.67235 79.67235 92.82205
#
# Poissons Ratio (x) = 0.32585 0.29651
# Poissons Ratio (y) = 0.32585 0.29651
# Poissons Ratio (z) = 0.25450 0.25450
#
# Static dielectric constant tensor:
#      x y z
#    x 1.674170 0.000000 0.000000 
#    y 0.000000 1.674170 0.000000 
#    z 0.000000 0.000000 1.625200 
# 
# From -- ./inp_files/6441.got.cif
#   From: 2010.05.17/outbox.cif.g08.bks.cpg/sg125_4_cif.got.tgz:6441.got - 2010.05.20 11:54:10.
