data_PCOD9563126
_publ_section_title
;
Structure prediction by ZEFSAII (Michael W. Deem and Ramdas Pophale) SiO2 
 PCOD9563126
Probable space group: P 4/N B M
;
_chemical_formula_sum "Si O2"
_cell_formula_units_Z 64
_cell_length_a 13.216123
_cell_length_b 13.216123
_cell_length_c 18.947752
_cell_angle_alpha 90.000000
_cell_angle_beta 90.000000
_cell_angle_gamma 90.000000
_cell_volume 3309.526292
_symmetry_space_group_name_H-M "P 4/N B M"
_symmetry_group_IT_number 125
_space_group.IT_coordinate_system_code '2'
_symmetry_cell_setting 'tetragonal'
loop_
_space_group_symop_operation_xyz
x,y,z
1/2-y,x,z
1/2-x,1/2-y,z
y,1/2-x,z
x,1/2-y,-z
1/2-x,y,-z
y,x,-z
1/2-y,1/2-x,-z
-x,-y,-z
1/2+y,-x,-z
1/2+x,1/2+y,-z
-y,1/2+x,-z
-x,1/2+y,z
1/2+x,-y,z
-y,-x,z
1/2+y,1/2+x,z
loop_
_atom_site_type_symbol
_atom_site_label
_atom_site_fract_x
_atom_site_fract_y
_atom_site_fract_z
Si Si1 0.739174 0.920315 0.294897
Si Si2 0.036973 0.128299 0.065385
Si Si3 0.919378 0.247713 0.418397
Si Si4 0.677236 0.011535 0.149461
O O1 0.646520 0.840860 0.294240
O O2 0.725775 0.988629 0.225151
O O3 0.739933 0.991026 0.363307
O O4 0.095536 0.075206 0.130285
O O5 0.999763 0.236811 0.090163
O O6 0.114025 0.114025 0.000000
O O7 0.939561 0.060440 0.047152
O O8 0.953761 0.250000 0.500000
O O9 0.855428 0.144573 0.406732
O O10 0.838770 0.338770 0.410032
O O11 0.616750 0.116750 0.147566
#
# Coordination Sequence:
#
# PCOD9563126 Si02
#       4
#    16  16  16  16
#     4  11  23  39  60  89 128 167 210 257 315 373
#     4  10  22  40  62  91 124 161 205 256 312 369
#     4   9  20  40  64  90 122 163 210 258 313 377
#     4  11  22  39  63  90 124 165 210 256 307 372
#
# _framework density 19.338115999999999
#
# number of rings (size 3 to 8) (size 9 to 14) (size 15 to 20)
#    0.000    1.750    2.500    2.250    0.000    5.000 
#    0.000    5.000    0.000    4.500    0.000    0.000 
#    0.000    0.000    0.000    0.000    0.000    0.000 
#
# Total GULP energy -357301.976887 kJ/mol
# GULP energy per Si atom -5582.843389 kJ/mol
# Density = 1.929410 g / cm^3
# Si number density = 19.338116 Si / 1000 Ang^3
#
#
#
# Elastic Constant Matrix: (Units=GPa)
#
#
# Indices 1 2 3 4 5 6 
#
# 1 116.1335 56.4549 72.4756 0.0000 0.0000 0.0000
# 2 56.4549 116.1335 72.4756 0.0000 0.0000 0.0000
# 3 72.4756 72.4756 147.2049 0.0000 0.0000 0.0000
# 4 0.0000 0.0000 0.0000 35.6661 0.0000 0.0000
# 5 0.0000 0.0000 0.0000 0.0000 35.6661 0.0000
# 6 0.0000 0.0000 0.0000 0.0000 0.0000 17.5459
#
#
#
# Elastic Compliance Matrix: (Units=1/GPa)
#
#
# Indices 1 2 3 4 5 6 
#
# 1 0.013318 -0.003439 -0.004864 0.000000 0.000000 0.000000
# 2 -0.003439 0.013318 -0.004864 0.000000 0.000000 0.000000
# 3 -0.004864 -0.004864 0.011583 0.000000 0.000000 0.000000
# 4 0.000000 0.000000 0.000000 0.028038 0.000000 0.000000
# 5 0.000000 0.000000 0.000000 0.000000 0.028038 0.000000
# 6 0.000000 0.000000 0.000000 0.000000 0.000000 0.056993
#
#
# Mechanical properties :
#
#
# Convention : Reuss Voigt Hill
#
# Bulk Modulus (GPa) = 84.13771 86.92046 85.52908
# Shear Modulus (GPa) = 27.53571 29.64668 28.59119
#
# Velocity S-wave (km/s) = 3.77756 3.91969 3.84928
# Velocity P-wave (km/s) = 7.91390 8.09510 8.00501
#
# Compressibility (1/GPa) = 0.01188528
#
# Stress axis : x y z
#
# Youngs Moduli (GPa) = 75.08734 75.08734 86.33516
#
# Poissons Ratio (x) = 0.25820 0.41993
# Poissons Ratio (y) = 0.25820 0.41993
# Poissons Ratio (z) = 0.36522 0.36522
#
# Static dielectric constant tensor:
#      x y z
#    x 1.668130 0.000000 0.000000 
#    y 0.000000 1.668130 0.000000 
#    z 0.000000 0.000000 1.680580 
# 
# From -- ./inp_files/5733.got.cif
#   From: 2010.05.17/outbox.cif.g08.bks.cpg/sg125_3_cif.got.tgz:5733.got - 2010.05.20 11:54:10.
