data_PCOD9563247
_publ_section_title
;
Structure prediction by ZEFSAII (Michael W. Deem and Ramdas Pophale) SiO2 
 PCOD9563247
Probable space group: P 4/N B M
;
_chemical_formula_sum "Si O2"
_cell_formula_units_Z 58
_cell_length_a 17.960717
_cell_length_b 17.960717
_cell_length_c 8.699763
_cell_angle_alpha 90.000000
_cell_angle_beta 90.000000
_cell_angle_gamma 90.000000
_cell_volume 2806.433537
_symmetry_space_group_name_H-M "P 4/N B M"
_symmetry_group_IT_number 125
_space_group.IT_coordinate_system_code '2'
_symmetry_cell_setting 'tetragonal'
loop_
_space_group_symop_operation_xyz
x,y,z
1/2-y,x,z
1/2-x,1/2-y,z
y,1/2-x,z
x,1/2-y,-z
1/2-x,y,-z
y,x,-z
1/2-y,1/2-x,-z
-x,-y,-z
1/2+y,-x,-z
1/2+x,1/2+y,-z
-y,1/2+x,-z
-x,1/2+y,z
1/2+x,-y,z
-y,-x,z
1/2+y,1/2+x,z
loop_
_atom_site_type_symbol
_atom_site_label
_atom_site_fract_x
_atom_site_fract_y
_atom_site_fract_z
Si Si1 0.750000 0.623524 0.500000
Si Si2 0.484023 0.336016 0.725724
Si Si3 0.494414 0.994414 0.184552
Si Si4 0.549317 0.250000 0.000000
Si Si5 0.359768 0.859768 0.566418
Si Si6 0.750000 0.250000 0.500000
Si Si7 0.630471 0.130471 0.793361
O O1 0.820700 0.679301 0.500000
O O2 0.777697 0.570415 0.360202
O O3 0.468367 0.425063 0.746150
O O4 0.500592 0.304534 0.894613
O O5 0.560037 0.337716 0.628495
O O6 0.432918 0.932918 0.214061
O O7 0.500000 0.000000 0.000000
O O8 0.598243 0.200109 0.886260
O O9 0.299670 0.799670 0.612832
O O10 0.355328 0.855328 0.383979
#
# Coordination Sequence:
#
# PCOD9563247 Si02
#       7
#     8  16   8   8   8   2   8
#     4  11  27  46  67 101 142 188 244 307 377 438
#     4  11  25  44  70 101 139 186 240 300 356 436
#     4  11  23  46  70 103 138 182 249 300 363 438
#     4  12  24  41  68 103 144 178 234 284 364 431
#     4  11  25  42  70 102 134 188 232 280 361 416
#     4  12  20  40  60  90 144 160 208 274 320 448
#     4  12  25  42  68 103 138 186 231 294 355 434
#
# _framework density 20.666799999999999
#
# number of rings (size 3 to 8) (size 9 to 14) (size 15 to 20)
#    0.000    0.690    2.759    4.966    7.724    2.483 
#    0.000    0.000    0.000    1.655    0.000    0.000 
#    0.000    0.000    0.000    0.000    0.000    0.000 
#
# Total GULP energy -323732.698534 kJ/mol
# GULP energy per Si atom -5581.598251 kJ/mol
# Density = 2.061976 g / cm^3
# Si number density = 20.666800 Si / 1000 Ang^3
#
#
#
# Elastic Constant Matrix: (Units=GPa)
#
#
# Indices 1 2 3 4 5 6 
#
# 1 90.9036 59.5632 37.4705 0.0000 0.0000 0.0000
# 2 59.5632 90.9041 37.4705 0.0000 0.0000 0.0000
# 3 37.4705 37.4705 117.6314 0.0000 0.0000 0.0000
# 4 0.0000 0.0000 0.0000 31.1384 0.0000 0.0000
# 5 0.0000 0.0000 0.0000 0.0000 31.1377 0.0000
# 6 0.0000 0.0000 0.0000 0.0000 0.0000 28.0705
#
#
#
# Elastic Compliance Matrix: (Units=1/GPa)
#
#
# Indices 1 2 3 4 5 6 
#
# 1 0.019903 -0.012004 -0.002516 0.000000 0.000000 0.000000
# 2 -0.012004 0.019903 -0.002516 0.000000 0.000000 0.000000
# 3 -0.002516 -0.002516 0.010104 0.000000 0.000000 0.000000
# 4 0.000000 0.000000 0.000000 0.032115 0.000000 0.000000
# 5 0.000000 0.000000 0.000000 0.000000 0.032115 0.000000
# 6 0.000000 0.000000 0.000000 0.000000 0.000000 0.035625
#
#
# Mechanical properties :
#
#
# Convention : Reuss Voigt Hill
#
# Bulk Modulus (GPa) = 63.14059 63.16083 63.15071
# Shear Modulus (GPa) = 26.43854 29.06498 27.75176
#
# Velocity S-wave (km/s) = 3.58058 3.75422 3.66842
# Velocity P-wave (km/s) = 6.90739 7.02994 6.96893
#
# Compressibility (1/GPa) = 0.01583767
#
# Stress axis : x y z
#
# Youngs Moduli (GPa) = 50.24269 50.24305 98.96899
#
# Poissons Ratio (x) = 0.60312 0.24903
# Poissons Ratio (y) = 0.60312 0.24902
# Poissons Ratio (z) = 0.12642 0.12642
#
# Static dielectric constant tensor:
#      x y z
#    x 1.867140 0.000000 0.000000 
#    y 0.000000 1.867140 0.000000 
#    z 0.000000 0.000000 1.782080 
# 
# From -- ./inp_files/2169.got.cif
#   From: 2010.05.17/outbox.cif.g08.bks.cpg/sg125_2_cif.got.tgz:2169.got - 2010.05.20 11:54:10.
