data_PCOD9563255
_publ_section_title
;
Structure prediction by ZEFSAII (Michael W. Deem and Ramdas Pophale) SiO2 
 PCOD9563255
Probable space group: P 4/N B M
;
_chemical_formula_sum "Si O2"
_cell_formula_units_Z 72
_cell_length_a 15.852449
_cell_length_b 15.852449
_cell_length_c 12.131310
_cell_angle_alpha 90.000000
_cell_angle_beta 90.000000
_cell_angle_gamma 90.000000
_cell_volume 3048.599893
_symmetry_space_group_name_H-M "P 4/N B M"
_symmetry_group_IT_number 125
_space_group.IT_coordinate_system_code '2'
_symmetry_cell_setting 'tetragonal'
loop_
_space_group_symop_operation_xyz
x,y,z
1/2-y,x,z
1/2-x,1/2-y,z
y,1/2-x,z
x,1/2-y,-z
1/2-x,y,-z
y,x,-z
1/2-y,1/2-x,-z
-x,-y,-z
1/2+y,-x,-z
1/2+x,1/2+y,-z
-y,1/2+x,-z
-x,1/2+y,z
1/2+x,-y,z
-y,-x,z
1/2+y,1/2+x,z
loop_
_atom_site_type_symbol
_atom_site_label
_atom_site_fract_x
_atom_site_fract_y
_atom_site_fract_z
Si Si1 0.775299 0.616086 0.324601
Si Si2 0.813864 0.186137 0.785440
Si Si3 0.941015 0.230351 0.382336
Si Si4 0.032848 0.967153 0.618354
Si Si5 0.950745 0.450745 0.163823
Si Si6 0.577039 0.817753 0.923942
O O1 0.843982 0.685474 0.355420
O O2 0.787962 0.524652 0.375318
O O3 0.777896 0.602521 0.192705
O O4 0.750000 0.250000 0.845949
O O5 0.875704 0.243270 0.710571
O O6 0.878664 0.121337 0.839268
O O7 0.901065 0.250000 0.500000
O O8 0.973594 0.134765 0.371382
O O9 0.000000 0.000000 0.500000
O O10 0.984396 0.015605 0.717420
O O11 0.903356 0.527960 0.106108
O O12 0.527916 0.750000 0.000000
O O13 0.654728 0.845273 0.000000
#
# Coordination Sequence:
#
# PCOD9563255 Si02
#       6
#    16   8  16   8   8  16
#     4  11  24  43  70 106 146 188 238 305 372 442
#     4  12  26  49  71 104 143 195 250 307 357 443
#     4  12  26  45  73 106 145 193 246 302 374 439
#     4  12  28  48  76 109 146 195 245 307 375 453
#     4  12  27  50  73 106 148 193 248 311 377 441
#     4  12  25  45  73 105 142 188 245 301 368 442
#
# _framework density 23.6174
#
# number of rings (size 3 to 8) (size 9 to 14) (size 15 to 20)
#    0.000    0.222    5.556    3.667    3.111    0.222 
#    2.000    1.111    0.000    0.000    0.000    0.000 
#    0.000    0.000    0.000    0.000    0.000    0.000 
#
# Total GULP energy -402745.858385 kJ/mol
# GULP energy per Si atom -5593.692478 kJ/mol
# Density = 2.356365 g / cm^3
# Si number density = 23.617400 Si / 1000 Ang^3
#
#
#
# Elastic Constant Matrix: (Units=GPa)
#
#
# Indices 1 2 3 4 5 6 
#
# 1 108.8878 26.6555 9.8760 0.0000 0.0000 0.0000
# 2 26.6555 108.8881 9.8763 0.0000 0.0000 0.0000
# 3 9.8760 9.8763 65.3643 0.0000 0.0000 0.0000
# 4 0.0000 0.0000 0.0000 16.7271 0.0000 0.0000
# 5 0.0000 0.0000 0.0000 0.0000 16.7272 0.0000
# 6 0.0000 0.0000 0.0000 0.0000 0.0000 46.9622
#
#
#
# Elastic Compliance Matrix: (Units=1/GPa)
#
#
# Indices 1 2 3 4 5 6 
#
# 1 0.009852 -0.002308 -0.001140 0.000000 0.000000 0.000000
# 2 -0.002308 0.009852 -0.001140 0.000000 0.000000 0.000000
# 3 -0.001140 -0.001140 0.015643 0.000000 0.000000 0.000000
# 4 0.000000 0.000000 0.000000 0.059783 0.000000 0.000000
# 5 0.000000 0.000000 0.000000 0.000000 0.059783 0.000000
# 6 0.000000 0.000000 0.000000 0.000000 0.000000 0.021294
#
#
# Mechanical properties :
#
#
# Convention : Reuss Voigt Hill
#
# Bulk Modulus (GPa) = 38.20929 41.77285 39.99107
# Shear Modulus (GPa) = 25.75894 31.86546 28.81220
#
# Velocity S-wave (km/s) = 3.30612 3.67718 3.49658
# Velocity P-wave (km/s) = 5.54865 5.97951 5.76811
#
# Compressibility (1/GPa) = 0.02617165
#
# Stress axis : x y z
#
# Youngs Moduli (GPa) = 101.49974 101.49995 63.92506
#
# Poissons Ratio (x) = 0.23430 0.07286
# Poissons Ratio (y) = 0.23430 0.07287
# Poissons Ratio (z) = 0.11569 0.11570
#
# Static dielectric constant tensor:
#      x y z
#    x 2.018090 0.000000 0.000000 
#    y 0.000000 2.018090 0.000000 
#    z 0.000000 0.000000 1.873120 
# 
# From -- ./inp_files/3891.got.cif
#   From: 2010.05.17/outbox.cif.g08.bks.cpg/sg125_2_cif.got.tgz:3891.got - 2010.05.20 11:54:10.
