data_PCOD9563695
_publ_section_title
;
Structure prediction by ZEFSAII (Michael W. Deem and Ramdas Pophale) SiO2 
 PCOD9563695
Probable space group: P 4/N N C
;
_chemical_formula_sum "Si O2"
_cell_formula_units_Z 48
_cell_length_a 14.824141
_cell_length_b 14.824141
_cell_length_c 10.310044
_cell_angle_alpha 90.000000
_cell_angle_beta 90.000000
_cell_angle_gamma 90.000000
_cell_volume 2265.685332
_symmetry_space_group_name_H-M "P 4/N N C"
_symmetry_group_IT_number 126
_space_group.IT_coordinate_system_code '2'
_symmetry_cell_setting 'tetragonal'
loop_
_space_group_symop_operation_xyz
x,y,z
1/2-y,x,z
1/2-x,1/2-y,z
y,1/2-x,z
x,1/2-y,1/2-z
1/2-x,y,1/2-z
y,x,1/2-z
1/2-y,1/2-x,1/2-z
-x,-y,-z
1/2+y,-x,-z
1/2+x,1/2+y,-z
-y,1/2+x,-z
-x,1/2+y,1/2+z
1/2+x,-y,1/2+z
-y,-x,1/2+z
1/2+y,1/2+x,1/2+z
loop_
_atom_site_type_symbol
_atom_site_label
_atom_site_fract_x
_atom_site_fract_y
_atom_site_fract_z
Si Si1 0.355623 0.646133 0.778846
Si Si2 0.271840 0.103693 0.904238
Si Si3 0.952185 0.094598 0.967998
O O1 0.377910 0.750000 0.750000
O O2 0.250000 0.635204 0.750000
O O3 0.410578 0.586996 0.676304
O O4 0.377760 0.615086 0.923493
O O5 0.348473 0.178188 0.939207
O O6 0.250000 0.089413 0.750000
O O7 0.316339 0.015939 0.965372
O O8 0.000000 0.000000 0.000000
#
# Coordination Sequence:
#
# PCOD9563695 Si02
#       3
#    16  16  16
#     4  11  26  46  68  97 137 185 227 281 347 409
#     4   9  21  40  69 101 134 179 228 288 349 406
#     4  12  26  41  70 104 135 180 231 286 344 410
#
# _framework density 21.185642000000001
#
# number of rings (size 3 to 8) (size 9 to 14) (size 15 to 20)
#    0.000    1.333    0.000    5.000   18.667    2.667 
#    0.000    0.000    0.000    0.000    0.000    0.000 
#    0.000    0.000    0.000    0.000    0.000    0.000 
#
# Total GULP energy -267926.248668 kJ/mol
# GULP energy per Si atom -5581.796847 kJ/mol
# Density = 2.113742 g / cm^3
# Si number density = 21.185642 Si / 1000 Ang^3
#
#
#
# Elastic Constant Matrix: (Units=GPa)
#
#
# Indices 1 2 3 4 5 6 
#
# 1 79.4150 35.6063 17.3032 0.0000 0.0000 0.0000
# 2 35.6063 79.4150 17.3032 0.0000 0.0000 0.0000
# 3 17.3032 17.3032 46.8248 0.0000 0.0000 0.0000
# 4 0.0000 0.0000 0.0000 38.0822 0.0000 0.0000
# 5 0.0000 0.0000 0.0000 0.0000 38.0822 0.0000
# 6 0.0000 0.0000 0.0000 0.0000 0.0000 13.0884
#
#
#
# Elastic Compliance Matrix: (Units=1/GPa)
#
#
# Indices 1 2 3 4 5 6 
#
# 1 0.016304 -0.006522 -0.003615 0.000000 0.000000 0.000000
# 2 -0.006522 0.016304 -0.003615 0.000000 0.000000 0.000000
# 3 -0.003615 -0.003615 0.024028 0.000000 0.000000 0.000000
# 4 0.000000 0.000000 0.000000 0.026259 0.000000 0.000000
# 5 0.000000 0.000000 0.000000 0.000000 0.026259 0.000000
# 6 0.000000 0.000000 0.000000 0.000000 0.000000 0.076403
#
#
# Mechanical properties :
#
#
# Convention : Reuss Voigt Hill
#
# Bulk Modulus (GPa) = 34.32609 38.45337 36.38973
# Shear Modulus (GPa) = 22.44456 26.88004 24.66230
#
# Velocity S-wave (km/s) = 3.25841 3.56587 3.41560
# Velocity P-wave (km/s) = 5.51308 5.92823 5.72442
#
# Compressibility (1/GPa) = 0.02913236
#
# Stress axis : x y z
#
# Youngs Moduli (GPa) = 61.33456 61.33456 41.61883
#
# Poissons Ratio (x) = 0.40005 0.15043
# Poissons Ratio (y) = 0.40005 0.15043
# Poissons Ratio (z) = 0.22170 0.22170
#
# Static dielectric constant tensor:
#      x y z
#    x 1.787500 0.000000 0.000000 
#    y 0.000000 1.787500 0.000000 
#    z 0.000000 0.000000 1.710990 
# 
# From -- ./inp_files/2192.got.cif
#   From: 2010.05.17/outbox.cif.g08.bks.cpg/sg126_2_cif.got.tgz:2192.got - 2010.05.20 11:58:20.
