data_PCOD9563555
_publ_section_title
;
Structure prediction by ZEFSAII (Michael W. Deem and Ramdas Pophale) SiO2 
 PCOD9563555
Probable space group: P 4/N N C
;
_chemical_formula_sum "Si O2"
_cell_formula_units_Z 56
_cell_length_a 17.801913
_cell_length_b 17.801913
_cell_length_c 7.982213
_cell_angle_alpha 90.000000
_cell_angle_beta 90.000000
_cell_angle_gamma 90.000000
_cell_volume 2529.628007
_symmetry_space_group_name_H-M "P 4/N N C"
_symmetry_group_IT_number 126
_space_group.IT_coordinate_system_code '2'
_symmetry_cell_setting 'tetragonal'
loop_
_space_group_symop_operation_xyz
x,y,z
1/2-y,x,z
1/2-x,1/2-y,z
y,1/2-x,z
x,1/2-y,1/2-z
1/2-x,y,1/2-z
y,x,1/2-z
1/2-y,1/2-x,1/2-z
-x,-y,-z
1/2+y,-x,-z
1/2+x,1/2+y,-z
-y,1/2+x,-z
-x,1/2+y,1/2+z
1/2+x,-y,1/2+z
-y,-x,1/2+z
1/2+y,1/2+x,1/2+z
loop_
_atom_site_type_symbol
_atom_site_label
_atom_site_fract_x
_atom_site_fract_y
_atom_site_fract_z
Si Si1 0.509891 0.990110 0.750000
Si Si2 0.001477 0.871308 0.033681
Si Si3 0.765985 0.626976 0.949763
Si Si4 0.649869 0.291683 0.074692
O O1 0.516030 0.077249 0.695405
O O2 0.567644 0.971012 0.898640
O O3 0.946800 0.799150 0.037407
O O4 0.079916 0.841995 0.966751
O O5 0.830746 0.688541 0.991398
O O6 0.750000 0.612177 0.750000
O O7 0.640952 0.250000 0.250000
O O8 0.725747 0.339346 0.061376
#
# Coordination Sequence:
#
# PCOD9563555 Si02
#       4
#     8  16  16  16
#     4  10  24  38  58  90 118 154 208 240 296 382
#     4  11  22  41  60  85 122 159 195 253 305 353
#     4   9  18  34  60  89 112 146 197 241 288 354
#     4  11  23  39  61  90 121 158 206 253 306 373
#
# _framework density 22.137640999999999
#
# number of rings (size 3 to 8) (size 9 to 14) (size 15 to 20)
#    0.000    1.714    0.000    6.857    0.000    4.571 
#    0.000    4.286    0.000    1.714    0.000    0.000 
#    0.000    0.000    0.000    0.000    0.000    0.000 
#
# Total GULP energy -312510.589832 kJ/mol
# GULP energy per Si atom -5580.546247 kJ/mol
# Density = 2.208725 g / cm^3
# Si number density = 22.137641 Si / 1000 Ang^3
#
#
#
# Elastic Constant Matrix: (Units=GPa)
#
#
# Indices 1 2 3 4 5 6 
#
# 1 38.7612 51.8974 15.2494 0.0000 0.0000 0.0000
# 2 51.8974 38.7612 15.2499 0.0000 0.0000 0.0000
# 3 15.2494 15.2499 46.7603 0.0000 0.0000 0.0000
# 4 0.0000 0.0000 0.0000 23.6951 0.0000 0.0000
# 5 0.0000 0.0000 0.0000 0.0000 23.6947 0.0000
# 6 0.0000 0.0000 0.0000 0.0000 0.0000 -6.7238
#
#
#
# Elastic Compliance Matrix: (Units=1/GPa)
#
#
# Indices 1 2 3 4 5 6 
#
# 1 -0.031868 0.044258 -0.004041 0.000000 0.000000 0.000000
# 2 0.044258 -0.031868 -0.004040 0.000000 0.000000 0.000000
# 3 -0.004041 -0.004040 0.024021 0.000000 0.000000 0.000000
# 4 0.000000 0.000000 0.000000 0.042203 0.000000 0.000000
# 5 0.000000 0.000000 0.000000 0.000000 0.042204 0.000000
# 6 0.000000 0.000000 0.000000 0.000000 0.000000 -0.148726
#
#
# Mechanical properties :
#
#
# Convention : Reuss Voigt Hill
#
# Bulk Modulus (GPa) = 30.63891 32.11956 31.37923
# Shear Modulus (GPa) = -30.20995 10.92560 -9.64217
#
# Velocity S-wave (km/s) = -3.69811 2.22397 -2.08926
# Velocity P-wave (km/s) = 2.08914 4.59731 2.89575
#
# Compressibility (1/GPa) = 0.03263824
#
# Stress axis : x y z
#
# Youngs Moduli (GPa) = -31.37961 -31.37927 41.63007
#
# Poissons Ratio (x) = 1.38877 0.16823
# Poissons Ratio (y) = 1.38879 0.16819
# Poissons Ratio (z) = -0.12681 -0.12678
#
# Static dielectric constant tensor:
#      x y z
#    x 1.797590 0.000000 0.000000 
#    y 0.000000 1.797580 0.000000 
#    z 0.000000 0.000000 1.873910 
# 
# From -- ./inp_files/1245.got.cif
#   From: 2010.05.17/outbox.cif.g08.bks.cpg/sg126_1_cif.got.tgz:1245.got - 2010.05.20 11:58:20.
