data_PCOD9563309
_publ_section_title
;
Structure prediction by ZEFSAII (Michael W. Deem and Ramdas Pophale) SiO2 
 PCOD9563309
Probable space group: P 4/N N C
;
_chemical_formula_sum "Si O2"
_cell_formula_units_Z 64
_cell_length_a 16.470822
_cell_length_b 16.470822
_cell_length_c 11.974985
_cell_angle_alpha 90.000000
_cell_angle_beta 90.000000
_cell_angle_gamma 90.000000
_cell_volume 3248.669460
_symmetry_space_group_name_H-M "P 4/N N C"
_symmetry_group_IT_number 126
_space_group.IT_coordinate_system_code '2'
_symmetry_cell_setting 'tetragonal'
loop_
_space_group_symop_operation_xyz
x,y,z
1/2-y,x,z
1/2-x,1/2-y,z
y,1/2-x,z
x,1/2-y,1/2-z
1/2-x,y,1/2-z
y,x,1/2-z
1/2-y,1/2-x,1/2-z
-x,-y,-z
1/2+y,-x,-z
1/2+x,1/2+y,-z
-y,1/2+x,-z
-x,1/2+y,1/2+z
1/2+x,-y,1/2+z
-y,-x,1/2+z
1/2+y,1/2+x,1/2+z
loop_
_atom_site_type_symbol
_atom_site_label
_atom_site_fract_x
_atom_site_fract_y
_atom_site_fract_z
Si Si1 0.190785 0.017550 0.953760
Si Si2 0.413221 0.750000 0.250000
Si Si3 0.400533 0.608766 0.614315
Si Si4 0.363144 0.052971 0.017526
Si Si5 0.053700 0.446301 0.250000
O O1 0.205278 0.971661 0.838359
O O2 0.270303 0.068681 0.986037
O O3 0.112262 0.074435 0.954809
O O4 0.178105 0.948840 0.048832
O O5 0.366923 0.819450 0.319408
O O6 0.379334 0.538874 0.524074
O O7 0.465161 0.568379 0.698441
O O8 0.383865 0.063515 0.147651
#
# Coordination Sequence:
#
# PCOD9563309 Si02
#       5
#    16   8  16  16   8
#     4  10  21  36  56  86 115 148 194 235 285 352
#     4  10  20  36  62  84 112 148 188 250 294 331
#     4  10  19  34  57  83 107 143 192 234 284 342
#     4  10  21  34  55  83 114 149 192 237 283 349
#     4  10  18  34  58  79 108 151 188 232 278 332
#
# _framework density 19.700374
#
# number of rings (size 3 to 8) (size 9 to 14) (size 15 to 20)
#    0.000    2.000    0.000    6.000    0.000    7.500 
#    0.000    0.000    0.000   57.000    0.000    0.000 
#    0.000    0.000    0.000    0.000    0.000    0.000 
#
# Total GULP energy -357232.043954 kJ/mol
# GULP energy per Si atom -5581.750687 kJ/mol
# Density = 1.965554 g / cm^3
# Si number density = 19.700374 Si / 1000 Ang^3
#
#
#
# Elastic Constant Matrix: (Units=GPa)
#
#
# Indices 1 2 3 4 5 6 
#
# 1 66.0758 2.7004 16.8781 0.0000 0.0000 0.0000
# 2 2.7004 66.0760 16.8790 0.0000 0.0000 0.0000
# 3 16.8781 16.8790 83.8010 0.0000 0.0000 0.0000
# 4 0.0000 0.0000 0.0000 33.9232 0.0000 0.0000
# 5 0.0000 0.0000 0.0000 0.0000 33.9228 0.0000
# 6 0.0000 0.0000 0.0000 0.0000 0.0000 11.0707
#
#
#
# Elastic Compliance Matrix: (Units=1/GPa)
#
#
# Indices 1 2 3 4 5 6 
#
# 1 0.015957 0.000178 -0.003250 0.000000 0.000000 0.000000
# 2 0.000178 0.015957 -0.003250 0.000000 0.000000 0.000000
# 3 -0.003250 -0.003250 0.013242 0.000000 0.000000 0.000000
# 4 0.000000 0.000000 0.000000 0.029478 0.000000 0.000000
# 5 0.000000 0.000000 0.000000 0.000000 0.029479 0.000000
# 6 0.000000 0.000000 0.000000 0.000000 0.000000 0.090328
#
#
# Mechanical properties :
#
#
# Convention : Reuss Voigt Hill
#
# Bulk Modulus (GPa) = 30.75697 32.09641 31.42669
# Shear Modulus (GPa) = 22.94395 27.74969 25.34682
#
# Velocity S-wave (km/s) = 3.41639 3.75719 3.59083
# Velocity P-wave (km/s) = 5.58647 5.92871 5.76013
#
# Compressibility (1/GPa) = 0.03251295
#
# Stress axis : x y z
#
# Youngs Moduli (GPa) = 62.66864 62.66842 75.51660
#
# Poissons Ratio (x) = -0.01116 0.24541
# Poissons Ratio (y) = -0.01116 0.24542
# Poissons Ratio (z) = 0.20365 0.20366
#
# Static dielectric constant tensor:
#      x y z
#    x 1.695850 0.000000 0.000000 
#    y 0.000000 1.695850 0.000000 
#    z 0.000000 0.000000 1.696210 
# 
# From -- ./inp_files/2598.got.cif
#   From: 2010.05.17/outbox.cif.g08.bks.cpg/sg126_2_cif.got.tgz:2598.got - 2010.05.20 11:58:20.
