data_PCOD9563692
_publ_section_title
;
Structure prediction by ZEFSAII (Michael W. Deem and Ramdas Pophale) SiO2 
 PCOD9563692
Probable space group: P 4/N N C
;
_chemical_formula_sum "Si O2"
_cell_formula_units_Z 64
_cell_length_a 10.169741
_cell_length_b 10.169741
_cell_length_c 25.120796
_cell_angle_alpha 90.000000
_cell_angle_beta 90.000000
_cell_angle_gamma 90.000000
_cell_volume 2598.083961
_symmetry_space_group_name_H-M "P 4/N N C"
_symmetry_group_IT_number 126
_space_group.IT_coordinate_system_code '2'
_symmetry_cell_setting 'tetragonal'
loop_
_space_group_symop_operation_xyz
x,y,z
1/2-y,x,z
1/2-x,1/2-y,z
y,1/2-x,z
x,1/2-y,1/2-z
1/2-x,y,1/2-z
y,x,1/2-z
1/2-y,1/2-x,1/2-z
-x,-y,-z
1/2+y,-x,-z
1/2+x,1/2+y,-z
-y,1/2+x,-z
-x,1/2+y,1/2+z
1/2+x,-y,1/2+z
-y,-x,1/2+z
1/2+y,1/2+x,1/2+z
loop_
_atom_site_type_symbol
_atom_site_label
_atom_site_fract_x
_atom_site_fract_y
_atom_site_fract_z
Si Si1 0.545105 0.663851 0.857273
Si Si2 0.291108 0.032231 0.912277
Si Si3 0.214396 0.902359 0.806380
Si Si4 0.466531 0.194471 0.474211
O O1 0.682903 0.586342 0.852005
O O2 0.441053 0.601594 0.817527
O O3 0.476734 0.663457 0.916268
O O4 0.395677 0.150171 0.912463
O O5 0.292778 0.956968 0.857112
O O6 0.315342 0.960374 0.969110
O O7 0.250000 0.750000 0.803795
O O8 0.250000 0.966594 0.750000
O O9 0.402216 0.339556 0.474498
#
# Coordination Sequence:
#
# PCOD9563692 Si02
#       4
#    16  16  16  16
#     4   9  19  41  72  97 124 169 217 263 323 391
#     4   9  19  39  66  94 126 170 212 251 315 393
#     4  11  26  44  57  88 131 170 211 277 323 352
#     4   7  12  30  61  96 127 155 201 259 310 373
#
# _framework density 24.633538999999999
#
# number of rings (size 3 to 8) (size 9 to 14) (size 15 to 20)
#    0.000    3.000    0.000    3.000    3.500    1.000 
#    9.000    5.000    0.000    6.000    0.000    0.000 
#    0.000    0.000    0.000    0.000    0.000    0.000 
#
# Total GULP energy -357531.309538 kJ/mol
# GULP energy per Si atom -5586.426712 kJ/mol
# Density = 2.457747 g / cm^3
# Si number density = 24.633539 Si / 1000 Ang^3
#
#
#
# Elastic Constant Matrix: (Units=GPa)
#
#
# Indices 1 2 3 4 5 6 
#
# 1 69.4971 34.1367 50.6029 0.0000 0.0000 0.0000
# 2 34.1367 69.4971 50.6029 0.0000 0.0000 0.0000
# 3 50.6029 50.6029 202.7846 0.0000 0.0000 0.0000
# 4 0.0000 0.0000 0.0000 34.5529 0.0000 0.0000
# 5 0.0000 0.0000 0.0000 0.0000 34.5529 0.0000
# 6 0.0000 0.0000 0.0000 0.0000 0.0000 15.7064
#
#
#
# Elastic Compliance Matrix: (Units=1/GPa)
#
#
# Indices 1 2 3 4 5 6 
#
# 1 0.020519 -0.007761 -0.003184 0.000000 0.000000 0.000000
# 2 -0.007761 0.020519 -0.003184 0.000000 0.000000 0.000000
# 3 -0.003184 -0.003184 0.006520 0.000000 0.000000 0.000000
# 4 0.000000 0.000000 0.000000 0.028941 0.000000 0.000000
# 5 0.000000 0.000000 0.000000 0.000000 0.028941 0.000000
# 6 0.000000 0.000000 0.000000 0.000000 0.000000 0.063668
#
#
# Mechanical properties :
#
#
# Convention : Reuss Voigt Hill
#
# Bulk Modulus (GPa) = 51.80728 68.05151 59.92939
# Shear Modulus (GPa) = 24.53378 30.72484 27.62931
#
# Velocity S-wave (km/s) = 3.15929 3.53551 3.35268
# Velocity P-wave (km/s) = 5.86387 6.65973 6.27443
#
# Compressibility (1/GPa) = 0.01930231
#
# Stress axis : x y z
#
# Youngs Moduli (GPa) = 48.73440 48.73440 153.36724
#
# Poissons Ratio (x) = 0.37822 0.48829
# Poissons Ratio (y) = 0.37822 0.48829
# Poissons Ratio (z) = 0.15516 0.15516
#
# Static dielectric constant tensor:
#      x y z
#    x 1.997080 0.000000 0.000000 
#    y 0.000000 1.997080 0.000000 
#    z 0.000000 0.000000 2.087670 
# 
# From -- ./inp_files/4955.got.cif
#   From: 2010.05.17/outbox.cif.g08.bks.cpg/sg126_3_cif.got.tgz:4955.got - 2010.05.20 11:58:20.
