data_PCOD9563227
_publ_section_title
;
Structure prediction by ZEFSAII (Michael W. Deem and Ramdas Pophale) SiO2 
 PCOD9563227
Probable space group: P 4/N B M
;
_chemical_formula_sum "Si O2"
_cell_formula_units_Z 96
_cell_length_a 14.803267
_cell_length_b 14.803267
_cell_length_c 20.752146
_cell_angle_alpha 90.000000
_cell_angle_beta 90.000000
_cell_angle_gamma 90.000000
_cell_volume 4547.557080
_symmetry_space_group_name_H-M "P 4/N B M"
_symmetry_group_IT_number 125
_space_group.IT_coordinate_system_code '2'
_symmetry_cell_setting 'tetragonal'
loop_
_space_group_symop_operation_xyz
x,y,z
1/2-y,x,z
1/2-x,1/2-y,z
y,1/2-x,z
x,1/2-y,-z
1/2-x,y,-z
y,x,-z
1/2-y,1/2-x,-z
-x,-y,-z
1/2+y,-x,-z
1/2+x,1/2+y,-z
-y,1/2+x,-z
-x,1/2+y,z
1/2+x,-y,z
-y,-x,z
1/2+y,1/2+x,z
loop_
_atom_site_type_symbol
_atom_site_label
_atom_site_fract_x
_atom_site_fract_y
_atom_site_fract_z
Si Si1 0.326195 0.673806 0.405791
Si Si2 0.853628 0.001619 0.978287
Si Si3 0.063228 0.084624 0.357108
Si Si4 0.023223 0.262240 0.429125
Si Si5 0.998734 0.214238 0.834402
Si Si6 0.597448 0.552963 0.206559
Si Si7 0.825803 0.325803 0.251557
O O1 0.250000 0.750000 0.415511
O O2 0.297378 0.578684 0.434626
O O3 0.337725 0.662275 0.327910
O O4 0.836999 0.014607 0.901834
O O5 0.750000 0.993186 0.000000
O O6 0.915730 0.915730 0.000000
O O7 0.910609 0.089392 0.001693
O O8 0.048154 0.112597 0.282986
O O9 0.020281 0.164153 0.398085
O O10 0.165470 0.072221 0.382353
O O11 0.008527 0.991474 0.366587
O O12 0.064833 0.250000 0.500000
O O13 0.018397 0.320210 0.836674
O O14 0.081332 0.158078 0.805721
O O15 0.916807 0.203066 0.784524
O O16 0.508602 0.491399 0.193242
O O17 0.750000 0.250000 0.241547
#
# Coordination Sequence:
#
# PCOD9563227 Si02
#       7
#     8  16  16  16  16  16   8
#     4  11  24  40  63  96 132 169 224 291 347 399
#     4  11  25  46  69 100 145 188 233 286 344 410
#     4  11  24  44  66  96 133 174 222 283 349 409
#     4  12  26  41  66  92 131 178 228 276 338 418
#     4  12  23  42  69 101 133 177 230 279 339 414
#     4  11  23  41  69  98 135 174 223 284 351 408
#     4  11  22  40  65  96 134 169 222 289 351 407
#
# _framework density 21.110234999999999
#
# number of rings (size 3 to 8) (size 9 to 14) (size 15 to 20)
#    0.000    0.667    2.500    5.500    2.333    7.000 
#    0.000    4.167    0.000    0.000    0.000    0.000 
#    0.000    0.000    0.000    0.000    0.000    0.000 
#
# Total GULP energy -536274.618661 kJ/mol
# GULP energy per Si atom -5586.193944 kJ/mol
# Density = 2.106219 g / cm^3
# Si number density = 21.110235 Si / 1000 Ang^3
#
#
#
# Elastic Constant Matrix: (Units=GPa)
#
#
# Indices 1 2 3 4 5 6 
#
# 1 93.7441 20.3210 12.2669 0.0000 0.0000 0.0000
# 2 20.3210 93.7441 12.2669 0.0000 0.0000 0.0000
# 3 12.2669 12.2669 70.6876 0.0000 0.0000 0.0000
# 4 0.0000 0.0000 0.0000 32.7143 0.0000 0.0000
# 5 0.0000 0.0000 0.0000 0.0000 32.7143 0.0000
# 6 0.0000 0.0000 0.0000 0.0000 0.0000 30.2224
#
#
#
# Elastic Compliance Matrix: (Units=1/GPa)
#
#
# Indices 1 2 3 4 5 6 
#
# 1 0.011363 -0.002256 -0.001580 0.000000 0.000000 0.000000
# 2 -0.002256 0.011363 -0.001580 0.000000 0.000000 0.000000
# 3 -0.001580 -0.001580 0.014695 0.000000 0.000000 0.000000
# 4 0.000000 0.000000 0.000000 0.030568 0.000000 0.000000
# 5 0.000000 0.000000 0.000000 0.000000 0.030568 0.000000
# 6 0.000000 0.000000 0.000000 0.000000 0.000000 0.033088
#
#
# Mechanical properties :
#
#
# Convention : Reuss Voigt Hill
#
# Bulk Modulus (GPa) = 37.61177 38.65397 38.13287
# Shear Modulus (GPa) = 33.03776 33.35161 33.19468
#
# Velocity S-wave (km/s) = 3.96031 3.97908 3.96971
# Velocity P-wave (km/s) = 6.22637 6.28180 6.25415
#
# Compressibility (1/GPa) = 0.02658743
#
# Stress axis : x y z
#
# Youngs Moduli (GPa) = 88.00289 88.00289 68.04916
#
# Poissons Ratio (x) = 0.19857 0.10754
# Poissons Ratio (y) = 0.19857 0.10754
# Poissons Ratio (z) = 0.13908 0.13908
#
# Static dielectric constant tensor:
#      x y z
#    x 1.744420 0.000000 0.000000 
#    y 0.000000 1.744420 0.000000 
#    z 0.000000 0.000000 2.031970 
# 
# From -- ./inp_files/5986.got.cif
#   From: 2010.05.17/outbox.cif.g08.bks.cpg/sg125_3_cif.got.tgz:5986.got - 2010.05.20 11:54:10.
