data_PCOD9563266
_publ_section_title
;
Structure prediction by ZEFSAII (Michael W. Deem and Ramdas Pophale) SiO2 
 PCOD9563266
Probable space group: P 4/N B M
;
_chemical_formula_sum "Si O2"
_cell_formula_units_Z 66
_cell_length_a 17.359042
_cell_length_b 17.359042
_cell_length_c 13.721177
_cell_angle_alpha 90.000000
_cell_angle_beta 90.000000
_cell_angle_gamma 90.000000
_cell_volume 4134.689246
_symmetry_space_group_name_H-M "P 4/N B M"
_symmetry_group_IT_number 125
_space_group.IT_coordinate_system_code '2'
_symmetry_cell_setting 'tetragonal'
loop_
_space_group_symop_operation_xyz
x,y,z
1/2-y,x,z
1/2-x,1/2-y,z
y,1/2-x,z
x,1/2-y,-z
1/2-x,y,-z
y,x,-z
1/2-y,1/2-x,-z
-x,-y,-z
1/2+y,-x,-z
1/2+x,1/2+y,-z
-y,1/2+x,-z
-x,1/2+y,z
1/2+x,-y,z
-y,-x,z
1/2+y,1/2+x,z
loop_
_atom_site_type_symbol
_atom_site_label
_atom_site_fract_x
_atom_site_fract_y
_atom_site_fract_z
Si Si1 0.750000 0.250000 0.500000
Si Si2 0.045559 0.954442 0.586233
Si Si3 0.966865 0.708438 0.605207
Si Si4 0.370629 0.629372 0.421815
Si Si5 0.841704 0.657221 0.891705
Si Si6 0.584164 0.636190 0.690867
O O1 0.805520 0.305520 0.435664
O O2 0.102509 0.897492 0.529555
O O3 0.988674 0.910435 0.655830
O O4 0.000000 0.000000 0.500000
O O5 0.972104 0.750000 0.500000
O O6 0.896454 0.648748 0.616374
O O7 0.941653 0.775930 0.678026
O O8 0.049332 0.664984 0.622328
O O9 0.854037 0.749188 0.885283
O O10 0.877825 0.614378 0.799674
O O11 0.867425 0.632576 0.000000
#
# Coordination Sequence:
#
# PCOD9563266 Si02
#       6
#     2   8  16   8  16  16
#     4  12  20  36  60  68  92 144 214 236 216 288
#     4  12  20  36  49  70 115 152 174 209 281 332
#     4  12  22  34  52  77 113 146 185 217 267 328
#     4  12  22  38  52  74 106 154 190 227 257 303
#     4   9  18  34  54  77 103 133 177 229 278 321
#     4  12  21  34  54  79 107 148 178 226 275 331
#
# _framework density 15.962505
#
# number of rings (size 3 to 8) (size 9 to 14) (size 15 to 20)
#    0.000    0.727    8.485    1.455    0.000    0.485 
#    0.000    1.818    0.000    0.000    0.000    0.000 
#    0.000    0.000    0.000    0.000    0.000    0.000 
#
# Total GULP energy -367580.283930 kJ/mol
# GULP energy per Si atom -5569.398241 kJ/mol
# Density = 1.592617 g / cm^3
# Si number density = 15.962505 Si / 1000 Ang^3
#
#
#
# Elastic Constant Matrix: (Units=GPa)
#
#
# Indices 1 2 3 4 5 6 
#
# 1 77.3972 51.4546 33.2507 0.0000 0.0000 0.0000
# 2 51.4546 77.3975 33.2507 0.0000 0.0000 0.0000
# 3 33.2507 33.2507 85.9131 0.0000 0.0000 0.0000
# 4 0.0000 0.0000 0.0000 14.1193 0.0000 0.0000
# 5 0.0000 0.0000 0.0000 0.0000 14.1191 0.0000
# 6 0.0000 0.0000 0.0000 0.0000 0.0000 39.8603
#
#
#
# Elastic Compliance Matrix: (Units=1/GPa)
#
#
# Indices 1 2 3 4 5 6 
#
# 1 0.024122 -0.014424 -0.003753 0.000000 0.000000 0.000000
# 2 -0.014424 0.024122 -0.003753 0.000000 0.000000 0.000000
# 3 -0.003753 -0.003753 0.014545 0.000000 0.000000 0.000000
# 4 0.000000 0.000000 0.000000 0.070825 0.000000 0.000000
# 5 0.000000 0.000000 0.000000 0.000000 0.070826 0.000000
# 6 0.000000 0.000000 0.000000 0.000000 0.000000 0.025088
#
#
# Mechanical properties :
#
#
# Convention : Reuss Voigt Hill
#
# Bulk Modulus (GPa) = 52.83339 52.95778 52.89558
# Shear Modulus (GPa) = 17.87633 21.80319 19.83976
#
# Velocity S-wave (km/s) = 3.35011 3.69982 3.52930
# Velocity P-wave (km/s) = 6.93791 7.17634 7.05814
#
# Compressibility (1/GPa) = 0.01892743
#
# Stress axis : x y z
#
# Youngs Moduli (GPa) = 41.45553 41.45567 68.75217
#
# Poissons Ratio (x) = 0.59796 0.25805
# Poissons Ratio (y) = 0.59796 0.25805
# Poissons Ratio (z) = 0.15560 0.15560
#
# Static dielectric constant tensor:
#      x y z
#    x 1.478510 0.000000 0.000000 
#    y 0.000000 1.478510 0.000000 
#    z 0.000000 0.000000 1.522110 
# 
# From -- ./inp_files/4715.got.cif
#   From: 2010.05.17/outbox.cif.g08.bks.cpg/sg125_3_cif.got.tgz:4715.got - 2010.05.20 11:54:10.
