data_PCOD9563838
_publ_section_title
;
Structure prediction by ZEFSAII (Michael W. Deem and Ramdas Pophale) SiO2 
 PCOD9563838
Probable space group: P 4/M B M
;
_chemical_formula_sum "Si O2"
_cell_formula_units_Z 96
_cell_length_a 26.478713
_cell_length_b 26.478713
_cell_length_c 7.717025
_cell_angle_alpha 90.000000
_cell_angle_beta 90.000000
_cell_angle_gamma 90.000000
_cell_volume 5410.577871
_symmetry_space_group_name_H-M "P 4/M B M"
_symmetry_group_IT_number 127
_symmetry_cell_setting 'tetragonal'
loop_
_space_group_symop_operation_xyz
x,y,z
-y,x,z
-x,-y,z
y,-x,z
1/2+x,1/2-y,-z
1/2-x,1/2+y,-z
1/2+y,1/2+x,-z
1/2-y,1/2-x,-z
-x,-y,-z
y,-x,-z
x,y,-z
-y,x,-z
1/2-x,1/2+y,z
1/2+x,1/2-y,z
1/2-y,1/2-x,z
1/2+y,1/2+x,z
loop_
_atom_site_type_symbol
_atom_site_label
_atom_site_fract_x
_atom_site_fract_y
_atom_site_fract_z
Si Si1 0.555672 0.350513 0.500000
Si Si2 0.064614 0.863379 0.500000
Si Si3 0.052144 0.227386 0.805014
Si Si4 0.713692 0.431532 0.199897
Si Si5 0.178330 0.599468 0.791563
Si Si6 0.078807 0.341863 0.710049
Si Si7 0.403788 0.017146 0.298492
O O1 0.496370 0.365454 0.500000
O O2 0.586739 0.402081 0.500000
O O3 0.567599 0.314378 0.335689
O O4 0.078213 0.831670 0.671153
O O5 0.070835 0.284515 0.770621
O O6 0.991036 0.227761 0.794646
O O7 0.066544 0.212631 0.000000
O O8 0.764228 0.404067 0.262366
O O9 0.702636 0.418613 0.000000
O O10 0.152511 0.652511 0.753138
O O11 0.142322 0.556937 0.711512
O O12 0.176882 0.591112 0.000000
O O13 0.075093 0.340722 0.500000
O O14 0.131644 0.368357 0.756891
O O15 0.034184 0.379695 0.774261
O O16 0.415816 0.007124 0.500000
O O17 0.452537 0.047464 0.223894
#
# Coordination Sequence:
#
# PCOD9563838 Si02
#       7
#     8   8  16  16  16  16  16
#     4  10  22  41  61  91 115 137 168 203 258 325
#     4  10  22  37  63  87 115 142 163 202 253 318
#     4  10  19  34  57  80 108 145 186 230 268 312
#     4   9  18  32  53  81 109 142 186 224 261 312
#     4   9  16  26  43  68 100 136 175 226 277 313
#     4  10  19  30  47  71 105 149 198 246 283 322
#     4   9  17  26  40  65 100 143 187 234 288 332
#
# _framework density 17.743020999999999
#
# number of rings (size 3 to 8) (size 9 to 14) (size 15 to 20)
#    0.000    2.500    2.500    0.000    1.167    1.500 
#    0.000    1.667    0.000    2.000    0.000   10.500 
#    0.000    0.000    0.000    0.000    0.000    0.000 
#
# Total GULP energy -535081.811842 kJ/mol
# GULP energy per Si atom -5573.768873 kJ/mol
# Density = 1.770264 g / cm^3
# Si number density = 17.743021 Si / 1000 Ang^3
#
#
#
# Elastic Constant Matrix: (Units=GPa)
#
#
# Indices 1 2 3 4 5 6 
#
# 1 73.7504 51.7462 36.1161 0.0000 0.0000 0.0000
# 2 51.7462 73.7504 36.1161 0.0000 0.0000 0.0000
# 3 36.1161 36.1161 77.9961 0.0000 0.0000 0.0000
# 4 0.0000 0.0000 0.0000 35.5069 0.0000 0.0000
# 5 0.0000 0.0000 0.0000 0.0000 35.5069 0.0000
# 6 0.0000 0.0000 0.0000 0.0000 0.0000 26.3367
#
#
#
# Elastic Compliance Matrix: (Units=1/GPa)
#
#
# Indices 1 2 3 4 5 6 
#
# 1 0.028155 -0.017291 -0.005030 0.000000 0.000000 0.000000
# 2 -0.017291 0.028155 -0.005030 0.000000 0.000000 0.000000
# 3 -0.005030 -0.005030 0.017480 0.000000 0.000000 0.000000
# 4 0.000000 0.000000 0.000000 0.028164 0.000000 0.000000
# 5 0.000000 0.000000 0.000000 0.000000 0.028164 0.000000
# 6 0.000000 0.000000 0.000000 0.000000 0.000000 0.037970
#
#
# Mechanical properties :
#
#
# Convention : Reuss Voigt Hill
#
# Bulk Modulus (GPa) = 52.39580 52.60599 52.50090
# Shear Modulus (GPa) = 21.81959 26.23799 24.02879
#
# Velocity S-wave (km/s) = 3.51059 3.84966 3.68403
# Velocity P-wave (km/s) = 6.78431 7.03371 6.91013
#
# Compressibility (1/GPa) = 0.01908550
#
# Stress axis : x y z
#
# Youngs Moduli (GPa) = 35.51803 35.51803 57.20869
#
# Poissons Ratio (x) = 0.61414 0.28779
# Poissons Ratio (y) = 0.61414 0.28779
# Poissons Ratio (z) = 0.17867 0.17867
#
# Static dielectric constant tensor:
#      x y z
#    x 1.588760 0.000000 0.000000 
#    y 0.000000 1.588760 0.000000 
#    z 0.000000 0.000000 1.655090 
# 
# From -- ./inp_files/2048.got.cif
#   From: 2010.05.17/outbox.cif.g08.bks.cpg/sg127_2_cif.got.tgz:2048.got - 2010.05.20 12:03:00.
