data_PCOD9563325
_publ_section_title
;
Structure prediction by ZEFSAII (Michael W. Deem and Ramdas Pophale) SiO2 
 PCOD9563325
Probable space group: P 4/N N C
;
_chemical_formula_sum "Si O2"
_cell_formula_units_Z 80
_cell_length_a 10.430976
_cell_length_b 10.430976
_cell_length_c 30.030133
_cell_angle_alpha 90.000000
_cell_angle_beta 90.000000
_cell_angle_gamma 90.000000
_cell_volume 3267.436438
_symmetry_space_group_name_H-M "P 4/N N C"
_symmetry_group_IT_number 126
_space_group.IT_coordinate_system_code '2'
_symmetry_cell_setting 'tetragonal'
loop_
_space_group_symop_operation_xyz
x,y,z
1/2-y,x,z
1/2-x,1/2-y,z
y,1/2-x,z
x,1/2-y,1/2-z
1/2-x,y,1/2-z
y,x,1/2-z
1/2-y,1/2-x,1/2-z
-x,-y,-z
1/2+y,-x,-z
1/2+x,1/2+y,-z
-y,1/2+x,-z
-x,1/2+y,1/2+z
1/2+x,-y,1/2+z
-y,-x,1/2+z
1/2+y,1/2+x,1/2+z
loop_
_atom_site_type_symbol
_atom_site_label
_atom_site_fract_x
_atom_site_fract_y
_atom_site_fract_z
Si Si1 0.118997 0.960780 0.720645
Si Si2 0.531271 0.574576 0.573753
Si Si3 0.336632 0.058530 0.983643
Si Si4 0.093152 0.381097 0.865672
Si Si5 0.296703 0.454336 0.163304
O O1 0.250000 0.949942 0.750000
O O2 0.081896 0.838914 0.689835
O O3 0.110025 0.081944 0.686261
O O4 0.996422 0.996422 0.750000
O O5 0.404472 0.557228 0.542274
O O6 0.641775 0.553885 0.537053
O O7 0.513900 0.459812 0.609282
O O8 0.532574 0.689777 0.609544
O O9 0.414442 0.189551 0.972947
O O10 0.077176 0.235360 0.879134
O O11 0.159117 0.397362 0.174707
#
# Coordination Sequence:
#
# PCOD9563325 Si02
#       5
#    16  16  16  16  16
#     4  11  22  39  68  97 132 166 220 282 344 402
#     4  10  20  33  60  92 124 158 222 280 324 389
#     4  10  20  36  60  88 122 169 220 274 336 412
#     4  10  19  33  59  88 120 165 213 269 339 418
#     4  10  23  45  70  94 128 183 233 272 331 418
#
# _framework density 24.484024999999999
#
# number of rings (size 3 to 8) (size 9 to 14) (size 15 to 20)
#    0.000    1.800    2.000    2.400    0.000    4.200 
#    0.000    3.000    0.000   49.200    0.000    0.000 
#    0.000    0.000    0.000    0.000    0.000    0.000 
#
# Total GULP energy -445781.388945 kJ/mol
# GULP energy per Si atom -5572.267362 kJ/mol
# Density = 2.442830 g / cm^3
# Si number density = 24.484025 Si / 1000 Ang^3
#
#
#
# Elastic Constant Matrix: (Units=GPa)
#
#
# Indices 1 2 3 4 5 6 
#
# 1 57.7723 29.4884 38.6388 0.0000 0.0000 0.0000
# 2 29.4884 57.7723 38.6388 0.0000 0.0000 0.0000
# 3 38.6388 38.6388 165.2835 0.0000 0.0000 0.0000
# 4 0.0000 0.0000 0.0000 53.0383 0.0000 0.0000
# 5 0.0000 0.0000 0.0000 0.0000 53.0383 0.0000
# 6 0.0000 0.0000 0.0000 0.0000 0.0000 31.3983
#
#
#
# Elastic Compliance Matrix: (Units=1/GPa)
#
#
# Indices 1 2 3 4 5 6 
#
# 1 0.024904 -0.010452 -0.003378 0.000000 0.000000 0.000000
# 2 -0.010452 0.024904 -0.003378 0.000000 0.000000 0.000000
# 3 -0.003378 -0.003378 0.007630 0.000000 0.000000 0.000000
# 4 0.000000 0.000000 0.000000 0.018854 0.000000 0.000000
# 5 0.000000 0.000000 0.000000 0.000000 0.018854 0.000000
# 6 0.000000 0.000000 0.000000 0.000000 0.000000 0.031849
#
#
# Mechanical properties :
#
#
# Convention : Reuss Voigt Hill
#
# Bulk Modulus (GPa) = 43.44108 54.92893 49.18501
# Shear Modulus (GPa) = 29.57081 39.09913 34.33497
#
# Velocity S-wave (km/s) = 3.47905 4.00049 3.74885
# Velocity P-wave (km/s) = 5.82405 6.61981 6.23464
#
# Compressibility (1/GPa) = 0.02301968
#
# Stress axis : x y z
#
# Youngs Moduli (GPa) = 40.15455 40.15455 131.06515
#
# Poissons Ratio (x) = 0.41969 0.44280
# Poissons Ratio (y) = 0.41969 0.44280
# Poissons Ratio (z) = 0.13566 0.13566
#
# Static dielectric constant tensor:
#      x y z
#    x 1.938250 0.000000 0.000000 
#    y 0.000000 1.938250 0.000000 
#    z 0.000000 0.000000 2.141070 
# 
# From -- ./inp_files/6440.got.cif
#   From: 2010.05.17/outbox.cif.g08.bks.cpg/sg126_4_cif.got.tgz:6440.got - 2010.05.20 11:58:20.
