data_PCOD9563717
_publ_section_title
;
Structure prediction by ZEFSAII (Michael W. Deem and Ramdas Pophale) SiO2 
 PCOD9563717
Probable space group: P 4/N N C
;
_chemical_formula_sum "Si O2"
_cell_formula_units_Z 48
_cell_length_a 18.519650
_cell_length_b 18.519650
_cell_length_c 7.301735
_cell_angle_alpha 90.000000
_cell_angle_beta 90.000000
_cell_angle_gamma 90.000000
_cell_volume 2504.330350
_symmetry_space_group_name_H-M "P 4/N N C"
_symmetry_group_IT_number 126
_space_group.IT_coordinate_system_code '2'
_symmetry_cell_setting 'tetragonal'
loop_
_space_group_symop_operation_xyz
x,y,z
1/2-y,x,z
1/2-x,1/2-y,z
y,1/2-x,z
x,1/2-y,1/2-z
1/2-x,y,1/2-z
y,x,1/2-z
1/2-y,1/2-x,1/2-z
-x,-y,-z
1/2+y,-x,-z
1/2+x,1/2+y,-z
-y,1/2+x,-z
-x,1/2+y,1/2+z
1/2+x,-y,1/2+z
-y,-x,1/2+z
1/2+y,1/2+x,1/2+z
loop_
_atom_site_type_symbol
_atom_site_label
_atom_site_fract_x
_atom_site_fract_y
_atom_site_fract_z
Si Si1 0.830283 0.480210 0.181971
Si Si2 0.830404 0.938105 0.680176
Si Si3 0.030873 0.920086 0.540483
O O1 0.750000 0.459829 0.250000
O O2 0.873758 0.493753 0.367406
O O3 0.883046 0.423246 0.077757
O O4 0.829234 0.546034 0.036801
O O5 0.750000 0.949285 0.750000
O O6 0.862201 0.862201 0.750000
O O7 0.882566 0.994951 0.783825
O O8 0.000000 0.000000 0.500000
#
# Coordination Sequence:
#
# PCOD9563717 Si02
#       3
#    16  16  16
#     4  12  24  39  67 102 136 171 221 288 350 400
#     4  12  25  41  66  99 139 179 228 286 349 413
#     4  12  23  40  70 101 131 176 234 286 333 408
#
# _framework density 19.166801
#
# number of rings (size 3 to 8) (size 9 to 14) (size 15 to 20)
#    0.000    0.000   10.000    1.000    0.000    0.333 
#    0.000    0.000    0.000    8.000    0.000    0.000 
#    0.000    0.000    0.000    0.000    0.000    0.000 
#
# Total GULP energy -267694.435417 kJ/mol
# GULP energy per Si atom -5576.967405 kJ/mol
# Density = 1.912318 g / cm^3
# Si number density = 19.166801 Si / 1000 Ang^3
#
#
#
# Elastic Constant Matrix: (Units=GPa)
#
#
# Indices 1 2 3 4 5 6 
#
# 1 145.4291 34.6576 43.6998 0.0000 0.0000 0.0000
# 2 34.6576 145.4291 43.6998 0.0000 0.0000 0.0000
# 3 43.6998 43.6998 156.2313 0.0000 0.0000 0.0000
# 4 0.0000 0.0000 0.0000 28.9841 0.0000 0.0000
# 5 0.0000 0.0000 0.0000 0.0000 28.9841 0.0000
# 6 0.0000 0.0000 0.0000 0.0000 0.0000 18.3459
#
#
#
# Elastic Compliance Matrix: (Units=1/GPa)
#
#
# Indices 1 2 3 4 5 6 
#
# 1 0.007726 -0.001301 -0.001797 0.000000 0.000000 0.000000
# 2 -0.001301 0.007726 -0.001797 0.000000 0.000000 0.000000
# 3 -0.001797 -0.001797 0.007406 0.000000 0.000000 0.000000
# 4 0.000000 0.000000 0.000000 0.034502 0.000000 0.000000
# 5 0.000000 0.000000 0.000000 0.000000 0.034502 0.000000
# 6 0.000000 0.000000 0.000000 0.000000 0.000000 0.054508
#
#
# Mechanical properties :
#
#
# Convention : Reuss Voigt Hill
#
# Bulk Modulus (GPa) = 76.52503 76.80044 76.66274
# Shear Modulus (GPa) = 31.14927 36.93164 34.04045
#
# Velocity S-wave (km/s) = 4.03571 4.39436 4.21885
# Velocity P-wave (km/s) = 7.85675 8.11811 7.98850
#
# Compressibility (1/GPa) = 0.01306762
#
# Stress axis : x y z
#
# Youngs Moduli (GPa) = 129.42745 129.42745 135.02295
#
# Poissons Ratio (x) = 0.16842 0.24266
# Poissons Ratio (y) = 0.16842 0.24266
# Poissons Ratio (z) = 0.23260 0.23260
#
# Static dielectric constant tensor:
#      x y z
#    x 1.687310 0.000000 0.000000 
#    y 0.000000 1.687310 0.000000 
#    z 0.000000 0.000000 1.743260 
# 
# From -- ./inp_files/1099.got.cif
#   From: 2010.05.17/outbox.cif.g08.bks.cpg/sg126_1_cif.got.tgz:1099.got - 2010.05.20 11:58:20.
