data_PCOD9563644
_publ_section_title
;
Structure prediction by ZEFSAII (Michael W. Deem and Ramdas Pophale) SiO2 
 PCOD9563644
Probable space group: P 4/N N C
;
_chemical_formula_sum "Si O2"
_cell_formula_units_Z 112
_cell_length_a 15.800218
_cell_length_b 15.800218
_cell_length_c 23.206486
_cell_angle_alpha 90.000000
_cell_angle_beta 90.000000
_cell_angle_gamma 90.000000
_cell_volume 5793.427031
_symmetry_space_group_name_H-M "P 4/N N C"
_symmetry_group_IT_number 126
_space_group.IT_coordinate_system_code '2'
_symmetry_cell_setting 'tetragonal'
loop_
_space_group_symop_operation_xyz
x,y,z
1/2-y,x,z
1/2-x,1/2-y,z
y,1/2-x,z
x,1/2-y,1/2-z
1/2-x,y,1/2-z
y,x,1/2-z
1/2-y,1/2-x,1/2-z
-x,-y,-z
1/2+y,-x,-z
1/2+x,1/2+y,-z
-y,1/2+x,-z
-x,1/2+y,1/2+z
1/2+x,-y,1/2+z
-y,-x,1/2+z
1/2+y,1/2+x,1/2+z
loop_
_atom_site_type_symbol
_atom_site_label
_atom_site_fract_x
_atom_site_fract_y
_atom_site_fract_z
Si Si1 0.815202 0.430624 0.961972
Si Si2 0.443757 0.712824 0.424142
Si Si3 0.886277 0.743133 0.819345
Si Si4 0.693613 0.881046 0.460945
Si Si5 0.778246 0.347610 0.186266
Si Si6 0.328451 0.948351 0.373133
Si Si7 0.562806 0.951829 0.545190
O O1 0.882414 0.356460 0.952450
O O2 0.732597 0.412062 0.923406
O O3 0.865487 0.513801 0.941082
O O4 0.788175 0.443172 0.028418
O O5 0.540546 0.681487 0.417322
O O6 0.404139 0.737913 0.363685
O O7 0.835743 0.826884 0.837529
O O8 0.889769 0.750000 0.750000
O O9 0.977362 0.725380 0.844147
O O10 0.643949 0.792339 0.457241
O O11 0.653585 0.925021 0.517771
O O12 0.750000 0.250000 0.179010
O O13 0.750000 0.373968 0.250000
O O14 0.877967 0.349609 0.173804
O O15 0.412020 0.987497 0.402585
O O16 0.500000 0.000000 0.500000
#
# Coordination Sequence:
#
# PCOD9563644 Si02
#       7
#    16  16  16  16  16  16  16
#     4  12  23  36  62  99 131 172 207 259 334 400
#     4  12  23  40  64  92 135 167 220 264 325 400
#     4   9  20  39  61  88 126 172 217 265 319 383
#     4  11  23  39  62  93 134 177 209 258 330 399
#     4  11  26  44  63  92 126 175 221 274 330 379
#     4  12  23  38  63  95 130 172 214 267 325 398
#     4  12  21  38  60  97 135 163 208 268 323 402
#
# _framework density 19.332253999999999
#
# number of rings (size 3 to 8) (size 9 to 14) (size 15 to 20)
#    0.000    0.714    5.714    3.000    2.000    0.000 
#    0.000    1.429    0.000    2.571    0.000    1.000 
#    0.000    0.000    0.000    0.000    0.000    0.000 
#
# Total GULP energy -625261.933588 kJ/mol
# GULP energy per Si atom -5582.695836 kJ/mol
# Density = 1.928825 g / cm^3
# Si number density = 19.332254 Si / 1000 Ang^3
#
#
#
# Elastic Constant Matrix: (Units=GPa)
#
#
# Indices 1 2 3 4 5 6 
#
# 1 108.7620 29.1047 52.4777 0.0000 0.0000 0.0000
# 2 29.1047 108.7620 52.4777 0.0000 0.0000 0.0000
# 3 52.4777 52.4777 105.4453 0.0000 0.0000 0.0000
# 4 0.0000 0.0000 0.0000 29.5088 0.0000 0.0000
# 5 0.0000 0.0000 0.0000 0.0000 29.5088 0.0000
# 6 0.0000 0.0000 0.0000 0.0000 0.0000 33.2576
#
#
#
# Elastic Compliance Matrix: (Units=1/GPa)
#
#
# Indices 1 2 3 4 5 6 
#
# 1 0.012116 -0.000438 -0.005812 0.000000 0.000000 0.000000
# 2 -0.000438 0.012116 -0.005812 0.000000 0.000000 0.000000
# 3 -0.005812 -0.005812 0.015268 0.000000 0.000000 0.000000
# 4 0.000000 0.000000 0.000000 0.033888 0.000000 0.000000
# 5 0.000000 0.000000 0.000000 0.000000 0.033888 0.000000
# 6 0.000000 0.000000 0.000000 0.000000 0.000000 0.030068
#
#
# Mechanical properties :
#
#
# Convention : Reuss Voigt Hill
#
# Bulk Modulus (GPa) = 65.03281 65.67661 65.35471
# Shear Modulus (GPa) = 30.01321 31.04897 30.53109
#
# Velocity S-wave (km/s) = 3.94444 4.01193 3.97833
# Velocity P-wave (km/s) = 7.37953 7.45031 7.41500
#
# Compressibility (1/GPa) = 0.01537685
#
# Stress axis : x y z
#
# Youngs Moduli (GPa) = 82.53706 82.53706 65.49499
#
# Poissons Ratio (x) = 0.03615 0.38064
# Poissons Ratio (y) = 0.03615 0.38064
# Poissons Ratio (z) = 0.47968 0.47968
#
# Static dielectric constant tensor:
#      x y z
#    x 1.713690 0.000000 0.000000 
#    y 0.000000 1.713690 0.000000 
#    z 0.000000 0.000000 1.667760 
# 
# From -- ./inp_files/5853.got.cif
#   From: 2010.05.17/outbox.cif.g08.bks.cpg/sg126_3_cif.got.tgz:5853.got - 2010.05.20 11:58:20.
