data_PCOD9563790
_publ_section_title
;
Structure prediction by ZEFSAII (Michael W. Deem and Ramdas Pophale) SiO2 
 PCOD9563790
Probable space group: P 4/M B M
;
_chemical_formula_sum "Si O2"
_cell_formula_units_Z 112
_cell_length_a 14.655429
_cell_length_b 14.655429
_cell_length_c 27.877681
_cell_angle_alpha 90.000000
_cell_angle_beta 90.000000
_cell_angle_gamma 90.000000
_cell_volume 5987.612906
_symmetry_space_group_name_H-M "P 4/M B M"
_symmetry_group_IT_number 127
_symmetry_cell_setting 'tetragonal'
loop_
_space_group_symop_operation_xyz
x,y,z
-y,x,z
-x,-y,z
y,-x,z
1/2+x,1/2-y,-z
1/2-x,1/2+y,-z
1/2+y,1/2+x,-z
1/2-y,1/2-x,-z
-x,-y,-z
y,-x,-z
x,y,-z
-y,x,-z
1/2-x,1/2+y,z
1/2+x,1/2-y,z
1/2-y,1/2-x,z
1/2+y,1/2+x,z
loop_
_atom_site_type_symbol
_atom_site_label
_atom_site_fract_x
_atom_site_fract_y
_atom_site_fract_z
Si Si1 0.906563 0.256615 0.557509
Si Si2 0.610609 0.266402 0.599309
Si Si3 0.113721 0.099540 0.204795
Si Si4 0.994284 0.651885 0.944504
Si Si5 0.377045 0.724365 0.290657
Si Si6 0.739879 0.907760 0.863557
Si Si7 0.495759 0.147285 0.230545
O O1 0.914348 0.258739 0.500000
O O2 0.845948 0.345948 0.572413
O O3 0.844796 0.168977 0.572310
O O4 0.008908 0.251448 0.579035
O O5 0.674522 0.174522 0.597549
O O6 0.601946 0.298564 0.654619
O O7 0.147562 0.143424 0.254180
O O8 0.165716 0.129778 0.157207
O O9 0.008258 0.121834 0.203815
O O10 0.073101 0.573101 0.941929
O O11 0.023971 0.730923 0.908104
O O12 0.901146 0.598855 0.931222
O O13 0.988564 0.680607 0.000000
O O14 0.291229 0.791229 0.291292
O O15 0.459943 0.781932 0.267292
O O16 0.678611 0.821389 0.875884
O O17 0.693479 0.957573 0.817548
O O18 0.413373 0.086628 0.251619
O O19 0.576285 0.076285 0.217418
#
# Coordination Sequence:
#
# PCOD9563790 Si02
#       7
#    16  16  16  16  16  16  16
#     4  10  22  41  65  91 122 162 204 253 310 366
#     4  10  23  40  61  91 124 157 202 257 310 371
#     4  11  23  37  51  72 105 146 191 235 274 327
#     4   8  14  26  48  81 116 143 173 224 291 355
#     4  10  21  38  57  82 112 146 186 234 294 346
#     4  10  18  31  52  77 105 143 184 226 283 343
#     4   9  17  30  51  79 109 139 176 225 283 349
#
# _framework density 18.705283999999999
#
# number of rings (size 3 to 8) (size 9 to 14) (size 15 to 20)
#    0.000    2.286    1.429    1.714    2.000    3.714 
#    0.000    2.857    0.000    0.857    0.000    3.000 
#    0.000    0.000    0.000    0.000    0.000    0.000 
#
# Total GULP energy -624043.365767 kJ/mol
# GULP energy per Si atom -5571.815766 kJ/mol
# Density = 1.866271 g / cm^3
# Si number density = 18.705284 Si / 1000 Ang^3
#
#
#
# Elastic Constant Matrix: (Units=GPa)
#
#
# Indices 1 2 3 4 5 6 
#
# 1 102.6437 28.7921 42.3881 0.0000 0.0000 0.0000
# 2 28.7921 102.6437 42.3881 0.0000 0.0000 0.0000
# 3 42.3881 42.3881 99.1205 0.0000 0.0000 0.0000
# 4 0.0000 0.0000 0.0000 39.6747 0.0000 0.0000
# 5 0.0000 0.0000 0.0000 0.0000 39.6747 0.0000
# 6 0.0000 0.0000 0.0000 0.0000 0.0000 4.0563
#
#
#
# Elastic Compliance Matrix: (Units=1/GPa)
#
#
# Indices 1 2 3 4 5 6 
#
# 1 0.012023 -0.001517 -0.004493 0.000000 0.000000 0.000000
# 2 -0.001517 0.012023 -0.004493 0.000000 0.000000 0.000000
# 3 -0.004493 -0.004493 0.013931 0.000000 0.000000 0.000000
# 4 0.000000 0.000000 0.000000 0.025205 0.000000 0.000000
# 5 0.000000 0.000000 0.000000 0.000000 0.025205 0.000000
# 6 0.000000 0.000000 0.000000 0.000000 0.000000 0.246532
#
#
# Mechanical properties :
#
#
# Convention : Reuss Voigt Hill
#
# Bulk Modulus (GPa) = 58.91971 59.06052 58.99012
# Shear Modulus (GPa) = 13.82807 29.40380 21.61594
#
# Velocity S-wave (km/s) = 2.72188 3.96909 3.40311
# Velocity P-wave (km/s) = 6.43782 7.25587 6.85905
#
# Compressibility (1/GPa) = 0.01697225
#
# Stress axis : x y z
#
# Youngs Moduli (GPa) = 83.17096 83.17096 71.78017
#
# Poissons Ratio (x) = 0.12619 0.32250
# Poissons Ratio (y) = 0.12619 0.32250
# Poissons Ratio (z) = 0.37368 0.37368
#
# Static dielectric constant tensor:
#      x y z
#    x 1.680460 0.000000 0.000000 
#    y 0.000000 1.680460 0.000000 
#    z 0.000000 0.000000 1.670660 
# 
# From -- ./inp_files/6376.got.cif
#   From: 2010.05.17/outbox.cif.g08.bks.cpg/sg127_4_cif.got.tgz:6376.got - 2010.05.20 12:03:00.
