data_PCOD9563101
_publ_section_title
;
Structure prediction by ZEFSAII (Michael W. Deem and Ramdas Pophale) SiO2 
 PCOD9563101
Probable space group: P 4/N B M
;
_chemical_formula_sum "Si O2"
_cell_formula_units_Z 112
_cell_length_a 31.274120
_cell_length_b 31.274120
_cell_length_c 5.231218
_cell_angle_alpha 90.000000
_cell_angle_beta 90.000000
_cell_angle_gamma 90.000000
_cell_volume 5116.500433
_symmetry_space_group_name_H-M "P 4/N B M"
_symmetry_group_IT_number 125
_space_group.IT_coordinate_system_code '2'
_symmetry_cell_setting 'tetragonal'
loop_
_space_group_symop_operation_xyz
x,y,z
1/2-y,x,z
1/2-x,1/2-y,z
y,1/2-x,z
x,1/2-y,-z
1/2-x,y,-z
y,x,-z
1/2-y,1/2-x,-z
-x,-y,-z
1/2+y,-x,-z
1/2+x,1/2+y,-z
-y,1/2+x,-z
-x,1/2+y,z
1/2+x,-y,z
-y,-x,z
1/2+y,1/2+x,z
loop_
_atom_site_type_symbol
_atom_site_label
_atom_site_fract_x
_atom_site_fract_y
_atom_site_fract_z
Si Si1 0.507664 0.359684 0.486362
Si Si2 0.415170 0.297133 0.084337
Si Si3 0.649701 0.220544 0.250240
Si Si4 0.413110 0.152786 0.396513
Si Si5 0.515746 0.944394 0.240720
Si Si6 0.918516 0.352419 0.166033
Si Si7 0.705924 0.483486 0.121982
O O1 0.462910 0.358772 0.634003
O O2 0.496633 0.394836 0.270667
O O3 0.550494 0.373791 0.626292
O O4 0.515436 0.309284 0.416615
O O5 0.397340 0.329673 0.873733
O O6 0.466774 0.297400 0.050932
O O7 0.400604 0.250000 0.000000
O O8 0.408288 0.311839 0.376216
O O9 0.649987 0.250000 0.500000
O O10 0.693648 0.193648 0.227159
O O11 0.612465 0.184865 0.271601
O O12 0.643609 0.250000 0.000000
O O13 0.387554 0.112447 0.500000
O O14 0.538207 0.961794 0.500000
O O15 0.473233 0.973233 0.204402
O O16 0.545971 0.954030 0.000000
O O17 0.887604 0.387604 0.044848
O O18 0.951525 0.329569 0.981694
O O19 0.750000 0.468258 0.000000
#
# Coordination Sequence:
#
# PCOD9563101 Si02
#       7
#    16  16  16  16  16  16  16
#     4  11  24  39  62  91 126 171 220 267 329 390
#     4  10  21  40  63  95 131 174 223 270 317 382
#     4  11  26  47  72 100 128 162 209 271 344 423
#     4  11  22  38  63  96 136 174 218 270 325 378
#     4  10  23  41  62  88 123 169 218 266 313 371
#     4  11  25  41  62  92 128 166 217 273 333 404
#     4  10  23  40  63  88 120 168 218 274 333 395
#
# _framework density 21.889963999999999
#
# number of rings (size 3 to 8) (size 9 to 14) (size 15 to 20)
#    0.000    1.429    1.429    2.571    6.000    4.286 
#    0.000    0.000    0.000    0.000    0.000    0.000 
#    0.000   20.000    0.000    0.000    0.000    0.000 
#
# Total GULP energy -625282.438859 kJ/mol
# GULP energy per Si atom -5582.878918 kJ/mol
# Density = 2.184014 g / cm^3
# Si number density = 21.889964 Si / 1000 Ang^3
#
#
#
# Elastic Constant Matrix: (Units=GPa)
#
#
# Indices 1 2 3 4 5 6 
#
# 1 63.8392 33.1993 14.8997 0.0000 0.0000 0.0000
# 2 33.1993 63.8403 14.8968 0.0000 0.0000 0.0000
# 3 14.8997 14.8968 78.5994 0.0000 0.0000 0.0000
# 4 0.0000 0.0000 0.0000 24.9813 0.0000 0.0000
# 5 0.0000 0.0000 0.0000 0.0000 24.9819 0.0000
# 6 0.0000 0.0000 0.0000 0.0000 0.0000 25.5668
#
#
#
# Elastic Compliance Matrix: (Units=1/GPa)
#
#
# Indices 1 2 3 4 5 6 
#
# 1 0.021790 -0.010847 -0.002075 0.000000 0.000000 0.000000
# 2 -0.010847 0.021789 -0.002073 0.000000 0.000000 0.000000
# 3 -0.002075 -0.002073 0.013509 0.000000 0.000000 0.000000
# 4 0.000000 0.000000 0.000000 0.040030 0.000000 0.000000
# 5 0.000000 0.000000 0.000000 0.000000 0.040029 0.000000
# 6 0.000000 0.000000 0.000000 0.000000 0.000000 0.039113
#
#
# Mechanical properties :
#
#
# Convention : Reuss Voigt Hill
#
# Bulk Modulus (GPa) = 36.90465 36.91897 36.91181
# Shear Modulus (GPa) = 23.22530 24.65823 23.94176
#
# Velocity S-wave (km/s) = 3.26084 3.35992 3.31075
# Velocity P-wave (km/s) = 5.57433 5.65282 5.61372
#
# Compressibility (1/GPa) = 0.02709686
#
# Stress axis : x y z
#
# Youngs Moduli (GPa) = 45.89333 45.89500 74.02480
#
# Poissons Ratio (x) = 0.49784 0.15358
# Poissons Ratio (y) = 0.49782 0.15348
# Poissons Ratio (z) = 0.09521 0.09516
#
# Static dielectric constant tensor:
#      x y z
#    x 1.802980 0.000000 0.000000 
#    y 0.000000 1.802970 0.000000 
#    z 0.000000 0.000000 1.934060 
# 
# From -- ./inp_files/1356.got.cif
#   From: 2010.05.17/outbox.cif.g08.bks.cpg/sg125_1_cif.got.tgz:1356.got - 2010.05.20 11:54:10.
