data_PCOD9563400
_publ_section_title
;
Structure prediction by ZEFSAII (Michael W. Deem and Ramdas Pophale) SiO2 
 PCOD9563400
Probable space group: P 4/N N C
;
_chemical_formula_sum "Si O2"
_cell_formula_units_Z 112
_cell_length_a 17.271967
_cell_length_b 17.271967
_cell_length_c 18.767402
_cell_angle_alpha 90.000000
_cell_angle_beta 90.000000
_cell_angle_gamma 90.000000
_cell_volume 5598.707205
_symmetry_space_group_name_H-M "P 4/N N C"
_symmetry_group_IT_number 126
_space_group.IT_coordinate_system_code '2'
_symmetry_cell_setting 'tetragonal'
loop_
_space_group_symop_operation_xyz
x,y,z
1/2-y,x,z
1/2-x,1/2-y,z
y,1/2-x,z
x,1/2-y,1/2-z
1/2-x,y,1/2-z
y,x,1/2-z
1/2-y,1/2-x,1/2-z
-x,-y,-z
1/2+y,-x,-z
1/2+x,1/2+y,-z
-y,1/2+x,-z
-x,1/2+y,1/2+z
1/2+x,-y,1/2+z
-y,-x,1/2+z
1/2+y,1/2+x,1/2+z
loop_
_atom_site_type_symbol
_atom_site_label
_atom_site_fract_x
_atom_site_fract_y
_atom_site_fract_z
Si Si1 0.944543 0.312552 0.646660
Si Si2 0.353625 0.324079 0.634451
Si Si3 0.515361 0.141735 0.800544
Si Si4 0.662267 0.324616 0.031618
Si Si5 0.938385 0.456978 0.920893
Si Si6 0.054323 0.385377 0.532024
Si Si7 0.731570 0.158811 0.671372
O O1 0.980080 0.353674 0.716417
O O2 0.947183 0.221087 0.666652
O O3 0.857724 0.346437 0.648443
O O4 0.997842 0.329762 0.578277
O O5 0.267132 0.352795 0.649666
O O6 0.425901 0.356809 0.677186
O O7 0.367761 0.357493 0.554525
O O8 0.559622 0.071834 0.839561
O O9 0.611790 0.401645 0.030060
O O10 0.634936 0.285018 0.105382
O O11 0.753387 0.345496 0.024568
O O12 0.028596 0.464487 0.939374
O O13 0.890362 0.530492 0.949368
O O14 0.750000 0.250000 0.677062
O O15 0.750000 0.125741 0.750000
#
# Coordination Sequence:
#
# PCOD9563400 Si02
#       7
#    16  16  16  16  16  16  16
#     4  11  21  38  55  80 114 147 189 241 301 350
#     4  10  20  37  57  80 111 149 199 247 287 341
#     4  10  21  36  57  78 109 149 188 239 294 347
#     4  11  21  32  51  80 106 142 192 237 279 336
#     4  10  22  36  53  78 109 147 195 234 285 360
#     4  10  22  38  54  78 111 151 189 238 298 341
#     4  11  20  33  52  78 109 139 178 235 285 342
#
# _framework density 20.004617
#
# number of rings (size 3 to 8) (size 9 to 14) (size 15 to 20)
#    0.000    1.571    2.857    4.286    2.000    2.286 
#    0.000    0.000    0.000    0.000    0.000    0.000 
#    0.000    0.000    0.000    0.000    0.000   57.000 
#
# Total GULP energy -624277.317927 kJ/mol
# GULP energy per Si atom -5573.904624 kJ/mol
# Density = 1.995909 g / cm^3
# Si number density = 20.004617 Si / 1000 Ang^3
#
#
#
# Elastic Constant Matrix: (Units=GPa)
#
#
# Indices 1 2 3 4 5 6 
#
# 1 68.1460 8.7887 12.4193 0.0000 0.0000 0.0000
# 2 8.7887 68.1460 12.4193 0.0000 0.0000 0.0000
# 3 12.4193 12.4193 91.7293 0.0000 0.0000 0.0000
# 4 0.0000 0.0000 0.0000 24.2770 0.0000 0.0000
# 5 0.0000 0.0000 0.0000 0.0000 24.2770 0.0000
# 6 0.0000 0.0000 0.0000 0.0000 0.0000 30.4566
#
#
#
# Elastic Compliance Matrix: (Units=1/GPa)
#
#
# Indices 1 2 3 4 5 6 
#
# 1 0.015220 -0.001627 -0.001840 0.000000 0.000000 0.000000
# 2 -0.001627 0.015220 -0.001840 0.000000 0.000000 0.000000
# 3 -0.001840 -0.001840 0.011400 0.000000 0.000000 0.000000
# 4 0.000000 0.000000 0.000000 0.041191 0.000000 0.000000
# 5 0.000000 0.000000 0.000000 0.000000 0.041191 0.000000
# 6 0.000000 0.000000 0.000000 0.000000 0.000000 0.032834
#
#
# Mechanical properties :
#
#
# Convention : Reuss Voigt Hill
#
# Bulk Modulus (GPa) = 32.02741 32.80844 32.41793
# Shear Modulus (GPa) = 28.07742 28.76172 28.41957
#
# Velocity S-wave (km/s) = 3.75046 3.79589 3.77324
# Velocity P-wave (km/s) = 5.89910 5.97057 5.93494
#
# Compressibility (1/GPa) = 0.03122326
#
# Stress axis : x y z
#
# Youngs Moduli (GPa) = 65.70454 65.70454 87.71971
#
# Poissons Ratio (x) = 0.10693 0.16143
# Poissons Ratio (y) = 0.10693 0.16143
# Poissons Ratio (z) = 0.12091 0.12091
#
# Static dielectric constant tensor:
#      x y z
#    x 1.761020 0.000000 0.000000 
#    y 0.000000 1.761020 0.000000 
#    z 0.000000 0.000000 1.831800 
# 
# From -- ./inp_files/5407.got.cif
#   From: 2010.05.17/outbox.cif.g08.bks.cpg/sg126_3_cif.got.tgz:5407.got - 2010.05.20 11:58:20.
