data_PCOD9563591
_publ_section_title
;
Structure prediction by ZEFSAII (Michael W. Deem and Ramdas Pophale) SiO2 
 PCOD9563591
Probable space group: P 4/N N C
;
_chemical_formula_sum "Si O2"
_cell_formula_units_Z 64
_cell_length_a 11.846382
_cell_length_b 11.846382
_cell_length_c 17.574471
_cell_angle_alpha 90.000000
_cell_angle_beta 90.000000
_cell_angle_gamma 90.000000
_cell_volume 2466.344433
_symmetry_space_group_name_H-M "P 4/N N C"
_symmetry_group_IT_number 126
_space_group.IT_coordinate_system_code '2'
_symmetry_cell_setting 'tetragonal'
loop_
_space_group_symop_operation_xyz
x,y,z
1/2-y,x,z
1/2-x,1/2-y,z
y,1/2-x,z
x,1/2-y,1/2-z
1/2-x,y,1/2-z
y,x,1/2-z
1/2-y,1/2-x,1/2-z
-x,-y,-z
1/2+y,-x,-z
1/2+x,1/2+y,-z
-y,1/2+x,-z
-x,1/2+y,1/2+z
1/2+x,-y,1/2+z
-y,-x,1/2+z
1/2+y,1/2+x,1/2+z
loop_
_atom_site_type_symbol
_atom_site_label
_atom_site_fract_x
_atom_site_fract_y
_atom_site_fract_z
Si Si1 0.410454 0.157240 0.150738
Si Si2 0.348832 0.400209 0.967870
Si Si3 0.124926 0.813053 0.448394
Si Si4 0.633085 0.158004 0.700391
O O1 0.400643 0.291001 0.172579
O O2 0.405137 0.150715 0.058921
O O3 0.528438 0.105364 0.180361
O O4 0.217256 0.399494 0.942364
O O5 0.392814 0.518276 0.937249
O O6 0.229571 0.886721 0.478012
O O7 0.139993 0.730587 0.377437
O O8 0.562654 0.250000 0.750000
O O9 0.750000 0.144701 0.750000
#
# Coordination Sequence:
#
# PCOD9563591 Si02
#       4
#    16  16  16  16
#     4   9  19  40  67  94 122 158 210 270 327 377
#     4   9  19  38  64  95 123 149 199 267 319 368
#     4  11  21  37  60  87 118 160 203 250 305 375
#     4  11  23  39  56  85 130 169 198 256 312 378
#
# _framework density 25.949335999999999
#
# number of rings (size 3 to 8) (size 9 to 14) (size 15 to 20)
#    0.000    2.000    2.500    4.500    0.000    2.000 
#    0.000    3.750    0.000    0.000    0.000    1.750 
#    0.000    0.000    0.000    0.000    0.000    0.000 
#
# Total GULP energy -356731.350628 kJ/mol
# GULP energy per Si atom -5573.927354 kJ/mol
# Density = 2.589027 g / cm^3
# Si number density = 25.949336 Si / 1000 Ang^3
#
#
#
# Elastic Constant Matrix: (Units=GPa)
#
#
# Indices 1 2 3 4 5 6 
#
# 1 143.9079 -1.8202 18.8928 0.0000 0.0000 0.0000
# 2 -1.8202 143.9079 18.8928 0.0000 0.0000 0.0000
# 3 18.8928 18.8928 108.0350 0.0000 0.0000 0.0000
# 4 0.0000 0.0000 0.0000 26.7240 0.0000 0.0000
# 5 0.0000 0.0000 0.0000 0.0000 26.7240 0.0000
# 6 0.0000 0.0000 0.0000 0.0000 0.0000 -2.9977
#
#
#
# Elastic Compliance Matrix: (Units=1/GPa)
#
#
# Indices 1 2 3 4 5 6 
#
# 1 0.007122 0.000260 -0.001291 0.000000 0.000000 0.000000
# 2 0.000260 0.007122 -0.001291 0.000000 0.000000 0.000000
# 3 -0.001291 -0.001291 0.009708 0.000000 0.000000 0.000000
# 4 0.000000 0.000000 0.000000 0.037420 0.000000 0.000000
# 5 0.000000 0.000000 0.000000 0.000000 0.037420 0.000000
# 6 0.000000 0.000000 0.000000 0.000000 0.000000 -0.333587
#
#
# Mechanical properties :
#
#
# Convention : Reuss Voigt Hill
#
# Bulk Modulus (GPa) = 51.79499 51.97572 51.88536
# Shear Modulus (GPa) = -22.34968 34.08241 5.86636
#
# Velocity S-wave (km/s) = -2.93794 3.62805 1.50519
# Velocity P-wave (km/s) = 2.91457 6.13380 4.80199
#
# Compressibility (1/GPa) = 0.01930689
#
# Stress axis : x y z
#
# Youngs Moduli (GPa) = 140.41720 140.41720 103.01077
#
# Poissons Ratio (x) = -0.03644 0.13297
# Poissons Ratio (y) = -0.03644 0.13297
# Poissons Ratio (z) = 0.18125 0.18125
#
# Static dielectric constant tensor:
#      x y z
#    x 2.117060 0.000000 0.000000 
#    y 0.000000 2.117060 0.000000 
#    z 0.000000 0.000000 2.119320 
# 
# From -- ./inp_files/4923.got.cif
#   From: 2010.05.17/outbox.cif.g08.bks.cpg/sg126_3_cif.got.tgz:4923.got - 2010.05.20 11:58:20.
