data_PCOD9563855
_publ_section_title
;
Structure prediction by ZEFSAII (Michael W. Deem and Ramdas Pophale) SiO2 
 PCOD9563855
Probable space group: P 4/M B M
;
_chemical_formula_sum "Si O2"
_cell_formula_units_Z 104
_cell_length_a 16.017715
_cell_length_b 16.017715
_cell_length_c 24.162735
_cell_angle_alpha 90.000000
_cell_angle_beta 90.000000
_cell_angle_gamma 90.000000
_cell_volume 6199.365114
_symmetry_space_group_name_H-M "P 4/M B M"
_symmetry_group_IT_number 127
_symmetry_cell_setting 'tetragonal'
loop_
_space_group_symop_operation_xyz
x,y,z
-y,x,z
-x,-y,z
y,-x,z
1/2+x,1/2-y,-z
1/2-x,1/2+y,-z
1/2+y,1/2+x,-z
1/2-y,1/2-x,-z
-x,-y,-z
y,-x,-z
x,y,-z
-y,x,-z
1/2-x,1/2+y,z
1/2+x,1/2-y,z
1/2-y,1/2-x,z
1/2+y,1/2+x,z
loop_
_atom_site_type_symbol
_atom_site_label
_atom_site_fract_x
_atom_site_fract_y
_atom_site_fract_z
Si Si1 0.952391 0.685000 0.367211
Si Si2 0.180730 0.823854 0.663803
Si Si3 0.133827 0.496090 0.247782
Si Si4 0.257858 0.099528 0.562234
Si Si5 0.085945 0.888050 0.000000
Si Si6 0.586337 0.612521 0.878257
Si Si7 0.622133 0.734192 0.219628
O O1 0.879826 0.620175 0.382631
O O2 0.908864 0.768857 0.344620
O O3 0.999946 0.647753 0.313980
O O4 0.013259 0.702165 0.417610
O O5 0.250929 0.750929 0.664494
O O6 0.124539 0.806812 0.610150
O O7 0.133408 0.812966 0.721690
O O8 0.061588 0.561588 0.233359
O O9 0.216468 0.533483 0.220320
O O10 0.096353 0.403648 0.235789
O O11 0.223886 0.095185 0.500000
O O12 0.329836 0.170165 0.562682
O O13 0.111305 0.854858 0.939765
O O14 0.985303 0.888242 0.000000
O O15 0.484945 0.612268 0.873970
O O16 0.623873 0.669387 0.830330
O O17 0.695936 0.804065 0.216004
#
# Coordination Sequence:
#
# PCOD9563855 Si02
#       7
#    16  16  16  16   8  16  16
#     4  10  19  31  50  71  90 117 153 193 238 282
#     4   9  19  33  47  66  95 126 151 185 236 291
#     4   9  17  30  49  71  97 127 155 188 234 286
#     4  10  20  34  50  67  90 120 152 192 240 287
#     4   7  12  28  49  68  94 129 167 201 238 283
#     4   9  18  31  50  74  99 130 166 204 243 285
#     4  10  19  31  48  73 103 130 161 198 240 288
#
# _framework density 16.775912999999999
#
# number of rings (size 3 to 8) (size 9 to 14) (size 15 to 20)
#    0.000    2.692    1.538    1.385    2.154    1.846 
#    0.000    2.692    0.000    0.462    0.000    2.692 
#    0.000    2.462    0.000    0.000    0.000    0.000 
#
# Total GULP energy -578938.984813 kJ/mol
# GULP energy per Si atom -5566.721008 kJ/mol
# Density = 1.673773 g / cm^3
# Si number density = 16.775913 Si / 1000 Ang^3
#
#
#
# Elastic Constant Matrix: (Units=GPa)
#
#
# Indices 1 2 3 4 5 6 
#
# 1 28.8566 0.9447 18.9444 0.0000 0.0000 0.0000
# 2 0.9447 28.8566 18.9444 0.0000 0.0000 0.0000
# 3 18.9444 18.9444 109.6535 0.0000 0.0000 0.0000
# 4 0.0000 0.0000 0.0000 19.2445 0.0000 0.0000
# 5 0.0000 0.0000 0.0000 0.0000 19.2445 0.0000
# 6 0.0000 0.0000 0.0000 0.0000 0.0000 9.5075
#
#
#
# Elastic Compliance Matrix: (Units=1/GPa)
#
#
# Indices 1 2 3 4 5 6 
#
# 1 0.039414 0.003587 -0.007429 0.000000 0.000000 0.000000
# 2 0.003587 0.039414 -0.007429 0.000000 0.000000 0.000000
# 3 -0.007429 -0.007429 0.011687 0.000000 0.000000 0.000000
# 4 0.000000 0.000000 0.000000 0.051963 0.000000 0.000000
# 5 0.000000 0.000000 0.000000 0.000000 0.051963 0.000000
# 6 0.000000 0.000000 0.000000 0.000000 0.000000 0.105180
#
#
# Mechanical properties :
#
#
# Convention : Reuss Voigt Hill
#
# Bulk Modulus (GPa) = 14.71195 27.22595 20.96895
# Shear Modulus (GPa) = 14.50033 18.16818 16.33426
#
# Velocity S-wave (km/s) = 2.94318 3.29446 3.12376
# Velocity P-wave (km/s) = 4.50982 5.54398 5.05342
#
# Compressibility (1/GPa) = 0.06797197
#
# Stress axis : x y z
#
# Youngs Moduli (GPa) = 25.37173 25.37173 85.56800
#
# Poissons Ratio (x) = -0.09101 0.63569
# Poissons Ratio (y) = -0.09101 0.63569
# Poissons Ratio (z) = 0.18849 0.18849
#
# Static dielectric constant tensor:
#      x y z
#    x 1.590570 0.000000 0.000000 
#    y 0.000000 1.590570 0.000000 
#    z 0.000000 0.000000 1.563510 
# 
# From -- ./inp_files/6178.got.cif
#   From: 2010.05.17/outbox.cif.g08.bks.cpg/sg127_4_cif.got.tgz:6178.got - 2010.05.20 12:03:00.
