data_PCOD9563719
_publ_section_title
;
Structure prediction by ZEFSAII (Michael W. Deem and Ramdas Pophale) SiO2 
 PCOD9563719
Probable space group: P 4/N N C
;
_chemical_formula_sum "Si O2"
_cell_formula_units_Z 56
_cell_length_a 12.382413
_cell_length_b 12.382413
_cell_length_c 17.805784
_cell_angle_alpha 90.000000
_cell_angle_beta 90.000000
_cell_angle_gamma 90.000000
_cell_volume 2730.056727
_symmetry_space_group_name_H-M "P 4/N N C"
_symmetry_group_IT_number 126
_space_group.IT_coordinate_system_code '2'
_symmetry_cell_setting 'tetragonal'
loop_
_space_group_symop_operation_xyz
x,y,z
1/2-y,x,z
1/2-x,1/2-y,z
y,1/2-x,z
x,1/2-y,1/2-z
1/2-x,y,1/2-z
y,x,1/2-z
1/2-y,1/2-x,1/2-z
-x,-y,-z
1/2+y,-x,-z
1/2+x,1/2+y,-z
-y,1/2+x,-z
-x,1/2+y,1/2+z
1/2+x,-y,1/2+z
-y,-x,1/2+z
1/2+y,1/2+x,1/2+z
loop_
_atom_site_type_symbol
_atom_site_label
_atom_site_fract_x
_atom_site_fract_y
_atom_site_fract_z
Si Si1 0.640624 0.019798 0.291332
Si Si2 0.920246 0.683128 0.050684
Si Si3 0.801500 0.924794 0.885365
Si Si4 0.926819 0.250000 0.250000
O O1 0.750000 0.981845 0.250000
O O2 0.634614 0.148957 0.285188
O O3 0.542607 0.957394 0.250000
O O4 0.647682 0.989509 0.378680
O O5 0.884069 0.808501 0.054902
O O6 0.971958 0.673146 0.967776
O O7 0.679622 0.878128 0.880613
O O8 0.806758 0.003011 0.815312
#
# Coordination Sequence:
#
# PCOD9563719 Si02
#       4
#    16  16  16   8
#     4  12  24  41  66  92 130 172 211 270 319 378
#     4   9  18  37  66  98 120 151 217 281 321 355
#     4   9  18  37  65  92 124 166 218 270 307 373
#     4  12  25  41  56  96 136 175 208 244 335 408
#
# _framework density 20.512395000000001
#
# number of rings (size 3 to 8) (size 9 to 14) (size 15 to 20)
#    0.000    1.714    2.857    4.714    0.000    1.429 
#    5.143    4.286    0.000    0.000    0.000    0.000 
#    0.000    0.000    0.000    0.000    0.000    0.000 
#
# Total GULP energy -312652.821651 kJ/mol
# GULP energy per Si atom -5583.086101 kJ/mol
# Density = 2.046571 g / cm^3
# Si number density = 20.512395 Si / 1000 Ang^3
#
#
#
# Elastic Constant Matrix: (Units=GPa)
#
#
# Indices 1 2 3 4 5 6 
#
# 1 63.4720 4.2366 30.1390 0.0000 0.0000 0.0000
# 2 4.2366 63.4701 30.1385 0.0000 0.0000 0.0000
# 3 30.1390 30.1385 166.5295 0.0000 0.0000 0.0000
# 4 0.0000 0.0000 0.0000 21.8195 0.0000 0.0000
# 5 0.0000 0.0000 0.0000 0.0000 21.8196 0.0000
# 6 0.0000 0.0000 0.0000 0.0000 0.0000 42.1518
#
#
#
# Elastic Compliance Matrix: (Units=1/GPa)
#
#
# Indices 1 2 3 4 5 6 
#
# 1 0.017244 0.000362 -0.003186 0.000000 0.000000 0.000000
# 2 0.000362 0.017244 -0.003186 0.000000 0.000000 0.000000
# 3 -0.003186 -0.003186 0.007158 0.000000 0.000000 0.000000
# 4 0.000000 0.000000 0.000000 0.045831 0.000000 0.000000
# 5 0.000000 0.000000 0.000000 0.000000 0.045830 0.000000
# 6 0.000000 0.000000 0.000000 0.000000 0.000000 0.023724
#
#
# Mechanical properties :
#
#
# Convention : Reuss Voigt Hill
#
# Bulk Modulus (GPa) = 33.75532 46.94442 40.34987
# Shear Modulus (GPa) = 27.94427 32.42201 30.18314
#
# Velocity S-wave (km/s) = 3.69495 3.98000 3.84012
# Velocity P-wave (km/s) = 5.89028 6.63747 6.27501
#
# Compressibility (1/GPa) = 0.02962496
#
# Stress axis : x y z
#
# Youngs Moduli (GPa) = 57.99176 57.99004 139.69814
#
# Poissons Ratio (x) = -0.02099 0.44513
# Poissons Ratio (y) = -0.02099 0.44513
# Poissons Ratio (z) = 0.18478 0.18478
#
# Static dielectric constant tensor:
#      x y z
#    x 1.729630 0.000000 0.000000 
#    y 0.000000 1.729630 0.000000 
#    z 0.000000 0.000000 1.738520 
# 
# From -- ./inp_files/3410.got.cif
#   From: 2010.05.17/outbox.cif.g08.bks.cpg/sg126_2_cif.got.tgz:3410.got - 2010.05.20 11:58:20.
