data_PCOD9563222
_publ_section_title
;
Structure prediction by ZEFSAII (Michael W. Deem and Ramdas Pophale) SiO2 
 PCOD9563222
Probable space group: P 4/N B M
;
_chemical_formula_sum "Si O2"
_cell_formula_units_Z 88
_cell_length_a 14.717589
_cell_length_b 14.717589
_cell_length_c 21.343952
_cell_angle_alpha 90.000000
_cell_angle_beta 90.000000
_cell_angle_gamma 90.000000
_cell_volume 4623.258503
_symmetry_space_group_name_H-M "P 4/N B M"
_symmetry_group_IT_number 125
_space_group.IT_coordinate_system_code '2'
_symmetry_cell_setting 'tetragonal'
loop_
_space_group_symop_operation_xyz
x,y,z
1/2-y,x,z
1/2-x,1/2-y,z
y,1/2-x,z
x,1/2-y,-z
1/2-x,y,-z
y,x,-z
1/2-y,1/2-x,-z
-x,-y,-z
1/2+y,-x,-z
1/2+x,1/2+y,-z
-y,1/2+x,-z
-x,1/2+y,z
1/2+x,-y,z
-y,-x,z
1/2+y,1/2+x,z
loop_
_atom_site_type_symbol
_atom_site_label
_atom_site_fract_x
_atom_site_fract_y
_atom_site_fract_z
Si Si1 0.328273 0.828273 0.421794
Si Si2 0.708395 0.517382 0.206166
Si Si3 0.531495 0.661679 0.536085
Si Si4 0.858873 0.641128 0.000000
Si Si5 0.316962 0.116589 0.335197
Si Si6 0.325821 0.825821 0.270523
Si Si7 0.547341 0.601014 0.131469
O O1 0.250000 0.750000 0.430821
O O2 0.426088 0.812074 0.453512
O O3 0.338179 0.838179 0.345828
O O4 0.681099 0.580724 0.265039
O O5 0.707410 0.417525 0.236433
O O6 0.624596 0.536032 0.160525
O O7 0.803275 0.540681 0.170403
O O8 0.572707 0.750000 0.500000
O O9 0.574007 0.574007 0.500000
O O10 0.557078 0.647672 0.608460
O O11 0.872287 0.750000 0.000000
O O12 0.886349 0.583669 0.060976
O O13 0.367437 0.210700 0.344218
O O14 0.250000 0.750000 0.262730
O O15 0.451634 0.548367 0.133847
#
# Coordination Sequence:
#
# PCOD9563222 Si02
#       7
#     8  16  16   8  16   8  16
#     4  11  27  47  67  91 132 182 229 291 349 411
#     4  12  23  41  68 101 131 177 226 278 339 403
#     4  12  25  42  66  96 129 175 228 283 351 424
#     4  11  23  42  70 100 137 177 226 278 330 394
#     4  11  22  38  63  97 132 164 214 283 345 413
#     4  11  24  45  67  94 138 177 226 285 340 406
#     4  12  25  42  68  99 140 184 224 274 336 404
#
# _framework density 19.034192999999998
#
# number of rings (size 3 to 8) (size 9 to 14) (size 15 to 20)
#    0.000    0.455    8.182    1.091    1.273    0.545 
#    0.000    0.000    2.000    0.000    0.000    1.273 
#    0.000    0.000    0.000    0.000    0.000    0.000 
#
# Total GULP energy -489921.956990 kJ/mol
# GULP energy per Si atom -5567.294966 kJ/mol
# Density = 1.899087 g / cm^3
# Si number density = 19.034193 Si / 1000 Ang^3
#
#
#
# Elastic Constant Matrix: (Units=GPa)
#
#
# Indices 1 2 3 4 5 6 
#
# 1 97.5039 31.7996 52.1357 0.0000 0.0000 0.0000
# 2 31.7996 97.5044 52.1357 0.0000 0.0000 0.0000
# 3 52.1357 52.1357 151.9308 0.0000 0.0000 0.0000
# 4 0.0000 0.0000 0.0000 30.9974 0.0000 0.0000
# 5 0.0000 0.0000 0.0000 0.0000 30.9974 0.0000
# 6 0.0000 0.0000 0.0000 0.0000 0.0000 26.4534
#
#
#
# Elastic Compliance Matrix: (Units=1/GPa)
#
#
# Indices 1 2 3 4 5 6 
#
# 1 0.012956 -0.002264 -0.003669 0.000000 0.000000 0.000000
# 2 -0.002264 0.012956 -0.003669 0.000000 0.000000 0.000000
# 3 -0.003669 -0.003669 0.009100 0.000000 0.000000 0.000000
# 4 0.000000 0.000000 0.000000 0.032261 0.000000 0.000000
# 5 0.000000 0.000000 0.000000 0.000000 0.032261 0.000000
# 6 0.000000 0.000000 0.000000 0.000000 0.000000 0.037802
#
#
# Mechanical properties :
#
#
# Convention : Reuss Voigt Hill
#
# Bulk Modulus (GPa) = 63.25705 68.78679 66.02192
# Shear Modulus (GPa) = 30.90049 31.74750 31.32400
#
# Velocity S-wave (km/s) = 4.03354 4.08845 4.06109
# Velocity P-wave (km/s) = 7.41607 7.64880 7.53334
#
# Compressibility (1/GPa) = 0.01580851
#
# Stress axis : x y z
#
# Youngs Moduli (GPa) = 77.18331 77.18383 109.88820
#
# Poissons Ratio (x) = 0.17471 0.40321
# Poissons Ratio (y) = 0.17471 0.40320
# Poissons Ratio (z) = 0.28320 0.28320
#
# Static dielectric constant tensor:
#      x y z
#    x 1.838490 0.000000 0.000000 
#    y 0.000000 1.838490 0.000000 
#    z 0.000000 0.000000 1.740350 
# 
# From -- ./inp_files/5887.got.cif
#   From: 2010.05.17/outbox.cif.g08.bks.cpg/sg125_3_cif.got.tgz:5887.got - 2010.05.20 11:54:10.
