data_PCOD9563809
_publ_section_title
;
Structure prediction by ZEFSAII (Michael W. Deem and Ramdas Pophale) SiO2 
 PCOD9563809
Probable space group: P 4/M B M
;
_chemical_formula_sum "Si O2"
_cell_formula_units_Z 96
_cell_length_a 23.855148
_cell_length_b 23.855148
_cell_length_c 7.416400
_cell_angle_alpha 90.000000
_cell_angle_beta 90.000000
_cell_angle_gamma 90.000000
_cell_volume 4220.436554
_symmetry_space_group_name_H-M "P 4/M B M"
_symmetry_group_IT_number 127
_symmetry_cell_setting 'tetragonal'
loop_
_space_group_symop_operation_xyz
x,y,z
-y,x,z
-x,-y,z
y,-x,z
1/2+x,1/2-y,-z
1/2-x,1/2+y,-z
1/2+y,1/2+x,-z
1/2-y,1/2-x,-z
-x,-y,-z
y,-x,-z
x,y,-z
-y,x,-z
1/2-x,1/2+y,z
1/2+x,1/2-y,z
1/2-y,1/2-x,z
1/2+y,1/2+x,z
loop_
_atom_site_type_symbol
_atom_site_label
_atom_site_fract_x
_atom_site_fract_y
_atom_site_fract_z
Si Si1 0.631767 0.953837 0.708090
Si Si2 0.014339 0.755562 0.720846
Si Si3 0.850135 0.649866 0.718112
Si Si4 0.440123 0.432034 0.217019
Si Si5 0.122068 0.824011 0.700394
Si Si6 0.441647 0.941647 0.204504
Si Si7 0.612278 0.274054 0.279536
O O1 0.643953 0.940243 0.500000
O O2 0.600784 0.899217 0.788644
O O3 0.690863 0.977068 0.779822
O O4 0.586540 0.003768 0.711471
O O5 0.013027 0.758038 0.500000
O O6 0.953318 0.779567 0.778057
O O7 0.070505 0.788460 0.781036
O O8 0.853192 0.646809 0.500000
O O9 0.894312 0.605689 0.789811
O O10 0.867900 0.712076 0.770495
O O11 0.504991 0.423961 0.264659
O O12 0.403648 0.386021 0.310158
O O13 0.435177 0.426606 0.000000
O O14 0.132491 0.800126 0.500000
O O15 0.181435 0.841023 0.786224
O O16 0.455512 0.955512 0.000000
O O17 0.612468 0.278002 0.500000
#
# Coordination Sequence:
#
# PCOD9563809 Si02
#       7
#    16  16   8  16  16   8  16
#     4  10  20  36  58  80 107 148 184 211 259 332
#     4   9  17  31  51  77 109 139 175 220 260 313
#     4  10  18  35  59  76 104 149 188 211 255 330
#     4   9  18  32  48  68  98 136 177 218 260 313
#     4  10  19  31  50  79 107 133 170 220 272 314
#     4  12  23  35  56  87 114 134 170 232 281 313
#     4   9  17  30  52  77 103 138 175 218 264 309
#
# _framework density 22.746462999999999
#
# number of rings (size 3 to 8) (size 9 to 14) (size 15 to 20)
#    0.000    2.333    1.667    2.500    0.000    3.333 
#    1.500    2.500    0.000    0.000    0.000    0.000 
#    0.000    0.000    0.000    0.000    0.000    0.000 
#
# Total GULP energy -535671.733307 kJ/mol
# GULP energy per Si atom -5579.913889 kJ/mol
# Density = 2.269469 g / cm^3
# Si number density = 22.746463 Si / 1000 Ang^3
#
#
#
# Elastic Constant Matrix: (Units=GPa)
#
#
# Indices 1 2 3 4 5 6 
#
# 1 39.1462 108.1453 -0.8847 0.0000 0.0000 0.0000
# 2 108.1453 39.1465 -0.8849 0.0000 0.0000 0.0000
# 3 -0.8847 -0.8849 67.9153 0.0000 0.0000 0.0000
# 4 0.0000 0.0000 0.0000 22.3717 0.0000 0.0000
# 5 0.0000 0.0000 0.0000 0.0000 22.3723 0.0000
# 6 0.0000 0.0000 0.0000 0.0000 0.0000 48.0048
#
#
#
# Elastic Compliance Matrix: (Units=1/GPa)
#
#
# Indices 1 2 3 4 5 6 
#
# 1 -0.003851 0.010642 0.000088 0.000000 0.000000 0.000000
# 2 0.010642 -0.003851 0.000088 0.000000 0.000000 0.000000
# 3 0.000088 0.000088 0.014727 0.000000 0.000000 0.000000
# 4 0.000000 0.000000 0.000000 0.044699 0.000000 0.000000
# 5 0.000000 0.000000 0.000000 0.000000 0.044698 0.000000
# 6 0.000000 0.000000 0.000000 0.000000 0.000000 0.020831
#
#
# Mechanical properties :
#
#
# Convention : Reuss Voigt Hill
#
# Bulk Modulus (GPa) = 34.89058 39.88435 37.38747
# Shear Modulus (GPa) = 47.54245 21.20524 34.37384
#
# Velocity S-wave (km/s) = 4.57672 3.05658 3.89160
# Velocity P-wave (km/s) = 6.58033 5.47990 6.05516
#
# Compressibility (1/GPa) = 0.02866103
#
# Stress axis : x y z
#
# Youngs Moduli (GPa) = -259.64965 -259.65172 67.90464
#
# Poissons Ratio (x) = 2.76312 -0.00601
# Poissons Ratio (y) = 2.76310 -0.00601
# Poissons Ratio (z) = 0.02298 0.02296
#
# Static dielectric constant tensor:
#      x y z
#    x 1.840860 0.000000 0.000000 
#    y 0.000000 1.840860 0.000000 
#    z 0.000000 0.000000 1.868270 
# 
# From -- ./inp_files/2081.got.cif
#   From: 2010.05.17/outbox.cif.g08.bks.cpg/sg127_2_cif.got.tgz:2081.got - 2010.05.20 12:03:00.
