data_PCOD9563224
_publ_section_title
;
Structure prediction by ZEFSAII (Michael W. Deem and Ramdas Pophale) SiO2 
 PCOD9563224
Probable space group: P 4/N B M
;
_chemical_formula_sum "Si O2"
_cell_formula_units_Z 88
_cell_length_a 14.609378
_cell_length_b 14.609378
_cell_length_c 21.768580
_cell_angle_alpha 90.000000
_cell_angle_beta 90.000000
_cell_angle_gamma 90.000000
_cell_volume 4646.153483
_symmetry_space_group_name_H-M "P 4/N B M"
_symmetry_group_IT_number 125
_space_group.IT_coordinate_system_code '2'
_symmetry_cell_setting 'tetragonal'
loop_
_space_group_symop_operation_xyz
x,y,z
1/2-y,x,z
1/2-x,1/2-y,z
y,1/2-x,z
x,1/2-y,-z
1/2-x,y,-z
y,x,-z
1/2-y,1/2-x,-z
-x,-y,-z
1/2+y,-x,-z
1/2+x,1/2+y,-z
-y,1/2+x,-z
-x,1/2+y,z
1/2+x,-y,z
-y,-x,z
1/2+y,1/2+x,z
loop_
_atom_site_type_symbol
_atom_site_label
_atom_site_fract_x
_atom_site_fract_y
_atom_site_fract_z
Si Si1 0.359645 0.140356 0.000000
Si Si2 0.173205 0.826796 0.634249
Si Si3 0.431621 0.082419 0.868598
Si Si4 0.826851 0.173150 0.230461
Si Si5 0.897616 0.704657 0.667407
Si Si6 0.802608 0.459527 0.438513
Si Si7 0.484722 0.238607 0.200048
O O1 0.374438 0.250000 0.000000
O O2 0.396466 0.090995 0.060848
O O3 0.250000 0.750000 0.643785
O O4 0.142310 0.857691 0.701012
O O5 0.096657 0.776584 0.596059
O O6 0.427704 0.177036 0.829314
O O7 0.349212 0.021768 0.842681
O O8 0.526178 0.026178 0.861415
O O9 0.750000 0.250000 0.233106
O O10 0.914526 0.219666 0.201504
O O11 0.860004 0.808703 0.664759
O O12 0.951988 0.705540 0.732258
O O13 0.960851 0.675577 0.609975
O O14 0.750000 0.491682 0.500000
O O15 0.888741 0.388741 0.449258
#
# Coordination Sequence:
#
# PCOD9563224 Si02
#       7
#     8   8  16   8  16  16  16
#     4  11  23  42  70  96 127 177 228 272 324 392
#     4   9  18  32  60  88 121 159 195 259 318 372
#     4  12  25  42  67  99 137 174 220 275 331 392
#     4  11  22  40  62  98 136 169 212 266 336 406
#     4  11  25  44  64  90 130 173 213 266 327 389
#     4  11  22  40  65  95 123 163 216 265 326 389
#     4  12  23  40  68  98 129 175 218 266 333 395
#
# _framework density 18.940397999999998
#
# number of rings (size 3 to 8) (size 9 to 14) (size 15 to 20)
#    0.000    0.818    7.273    0.818    0.000    1.818 
#    3.273    1.818    0.000    0.000    0.000    1.273 
#    0.000    0.000    0.000    0.000    0.000    0.000 
#
# Total GULP energy -490881.482439 kJ/mol
# GULP energy per Si atom -5578.198664 kJ/mol
# Density = 1.889729 g / cm^3
# Si number density = 18.940398 Si / 1000 Ang^3
#
#
#
# Elastic Constant Matrix: (Units=GPa)
#
#
# Indices 1 2 3 4 5 6 
#
# 1 50.1607 18.5528 31.7948 0.0000 0.0000 0.0000
# 2 18.5528 50.1612 31.7949 0.0000 0.0000 0.0000
# 3 31.7948 31.7949 121.1693 0.0000 0.0000 0.0000
# 4 0.0000 0.0000 0.0000 33.5579 0.0000 0.0000
# 5 0.0000 0.0000 0.0000 0.0000 33.5578 0.0000
# 6 0.0000 0.0000 0.0000 0.0000 0.0000 23.0294
#
#
#
# Elastic Compliance Matrix: (Units=1/GPa)
#
#
# Indices 1 2 3 4 5 6 
#
# 1 0.025429 -0.006208 -0.005044 0.000000 0.000000 0.000000
# 2 -0.006208 0.025429 -0.005043 0.000000 0.000000 0.000000
# 3 -0.005044 -0.005043 0.010900 0.000000 0.000000 0.000000
# 4 0.000000 0.000000 0.000000 0.029799 0.000000 0.000000
# 5 0.000000 0.000000 0.000000 0.000000 0.029799 0.000000
# 6 0.000000 0.000000 0.000000 0.000000 0.000000 0.043423
#
#
# Mechanical properties :
#
#
# Convention : Reuss Voigt Hill
#
# Bulk Modulus (GPa) = 34.28547 42.86402 38.57474
# Shear Modulus (GPa) = 24.14386 27.31893 25.73139
#
# Velocity S-wave (km/s) = 3.57421 3.80197 3.68984
# Velocity P-wave (km/s) = 5.93080 6.47714 6.20998
#
# Compressibility (1/GPa) = 0.02916688
#
# Stress axis : x y z
#
# Youngs Moduli (GPa) = 39.32503 39.32553 91.74537
#
# Poissons Ratio (x) = 0.24415 0.46272
# Poissons Ratio (y) = 0.24415 0.46271
# Poissons Ratio (z) = 0.19834 0.19834
#
# Static dielectric constant tensor:
#      x y z
#    x 1.629990 0.000000 0.000000 
#    y 0.000000 1.629980 0.000000 
#    z 0.000000 0.000000 1.686620 
# 
# From -- ./inp_files/5877.got.cif
#   From: 2010.05.17/outbox.cif.g08.bks.cpg/sg125_3_cif.got.tgz:5877.got - 2010.05.20 11:54:10.
