data_PCOD9563399
_publ_section_title
;
Structure prediction by ZEFSAII (Michael W. Deem and Ramdas Pophale) SiO2 
 PCOD9563399
Probable space group: P 4/N N C
;
_chemical_formula_sum "Si O2"
_cell_formula_units_Z 128
_cell_length_a 21.372523
_cell_length_b 21.372523
_cell_length_c 12.099867
_cell_angle_alpha 90.000000
_cell_angle_beta 90.000000
_cell_angle_gamma 90.000000
_cell_volume 5527.034594
_symmetry_space_group_name_H-M "P 4/N N C"
_symmetry_group_IT_number 126
_space_group.IT_coordinate_system_code '2'
_symmetry_cell_setting 'tetragonal'
loop_
_space_group_symop_operation_xyz
x,y,z
1/2-y,x,z
1/2-x,1/2-y,z
y,1/2-x,z
x,1/2-y,1/2-z
1/2-x,y,1/2-z
y,x,1/2-z
1/2-y,1/2-x,1/2-z
-x,-y,-z
1/2+y,-x,-z
1/2+x,1/2+y,-z
-y,1/2+x,-z
-x,1/2+y,1/2+z
1/2+x,-y,1/2+z
-y,-x,1/2+z
1/2+y,1/2+x,1/2+z
loop_
_atom_site_type_symbol
_atom_site_label
_atom_site_fract_x
_atom_site_fract_y
_atom_site_fract_z
Si Si1 0.152767 0.275186 0.413529
Si Si2 0.086625 0.820443 0.795624
Si Si3 0.491392 0.351745 0.820451
Si Si4 0.845304 0.517070 0.436408
Si Si5 0.721390 0.509949 0.534836
Si Si6 0.174375 0.679608 0.027951
Si Si7 0.402776 0.932598 0.409085
Si Si8 0.154356 0.157622 0.867853
O O1 0.175570 0.206646 0.373550
O O2 0.078275 0.287119 0.406642
O O3 0.159752 0.286525 0.545675
O O4 0.088112 0.750000 0.750000
O O5 0.155248 0.834050 0.846209
O O6 0.059189 0.868573 0.708385
O O7 0.039175 0.817984 0.897547
O O8 0.506036 0.343893 0.690694
O O9 0.529079 0.408209 0.874405
O O10 0.417641 0.357552 0.836365
O O11 0.500249 0.294759 0.905290
O O12 0.794203 0.495135 0.526576
O O13 0.904594 0.488797 0.501451
O O14 0.829571 0.590969 0.424003
O O15 0.165267 0.753733 0.008640
O O16 0.124836 0.638360 0.960102
O O17 0.178812 0.178812 0.750000
#
# Coordination Sequence:
#
# PCOD9563399 Si02
#       8
#    16  16  16  16  16  16  16  16
#     4  10  20  36  65 103 137 169 208 259 322 389
#     4  12  23  41  63  92 124 167 219 266 315 391
#     4  10  23  38  62  90 128 165 217 269 328 391
#     4  11  21  40  64  89 127 171 215 265 331 393
#     4  11  21  40  66  94 133 175 212 264 321 397
#     4  11  23  41  60  89 124 160 208 268 340 387
#     4  12  24  40  64  92 123 168 223 276 325 387
#     4   9  20  38  61  93 132 170 210 265 327 390
#
# _framework density 23.158891000000001
#
# number of rings (size 3 to 8) (size 9 to 14) (size 15 to 20)
#    0.000    1.250    5.000    1.125    0.000    1.500 
#    2.250    0.625    0.000    3.750    0.000    2.625 
#    0.000    0.000    0.000    0.000    0.000    0.000 
#
# Total GULP energy -713094.983849 kJ/mol
# GULP energy per Si atom -5571.054561 kJ/mol
# Density = 2.310618 g / cm^3
# Si number density = 23.158891 Si / 1000 Ang^3
#
#
#
# Elastic Constant Matrix: (Units=GPa)
#
#
# Indices 1 2 3 4 5 6 
#
# 1 96.0242 -0.3023 29.1039 0.0000 0.0000 0.0000
# 2 -0.3023 96.0242 29.1039 0.0000 0.0000 0.0000
# 3 29.1039 29.1039 86.9891 0.0000 0.0000 0.0000
# 4 0.0000 0.0000 0.0000 21.8143 0.0000 0.0000
# 5 0.0000 0.0000 0.0000 0.0000 21.8143 0.0000
# 6 0.0000 0.0000 0.0000 0.0000 0.0000 24.8171
#
#
#
# Elastic Compliance Matrix: (Units=1/GPa)
#
#
# Indices 1 2 3 4 5 6 
#
# 1 0.011748 0.001367 -0.004388 0.000000 0.000000 0.000000
# 2 0.001367 0.011748 -0.004388 0.000000 0.000000 0.000000
# 3 -0.004388 -0.004388 0.014432 0.000000 0.000000 0.000000
# 4 0.000000 0.000000 0.000000 0.045841 0.000000 0.000000
# 5 0.000000 0.000000 0.000000 0.000000 0.045841 0.000000
# 6 0.000000 0.000000 0.000000 0.000000 0.000000 0.040295
#
#
# Mechanical properties :
#
#
# Convention : Reuss Voigt Hill
#
# Bulk Modulus (GPa) = 43.27043 43.87204 43.57123
# Shear Modulus (GPa) = 25.98382 28.43130 27.20756
#
# Velocity S-wave (km/s) = 3.35323 3.50760 3.43129
# Velocity P-wave (km/s) = 5.80663 5.94890 5.87819
#
# Compressibility (1/GPa) = 0.02311047
#
# Stress axis : x y z
#
# Youngs Moduli (GPa) = 85.11887 85.11887 69.29125
#
# Poissons Ratio (x) = -0.11635 0.30405
# Poissons Ratio (y) = -0.11635 0.30405
# Poissons Ratio (z) = 0.37350 0.37350
#
# Static dielectric constant tensor:
#      x y z
#    x 2.308800 0.000000 0.000000 
#    y 0.000000 2.308800 0.000000 
#    z 0.000000 0.000000 1.766350 
# 
# From -- ./inp_files/3075.got.cif
#   From: 2010.05.17/outbox.cif.g08.bks.cpg/sg126_2_cif.got.tgz:3075.got - 2010.05.20 11:58:20.
