data_PCOD9563135
_publ_section_title
;
Structure prediction by ZEFSAII (Michael W. Deem and Ramdas Pophale) SiO2 
 PCOD9563135
Probable space group: P 4/N B M
;
_chemical_formula_sum "Si O2"
_cell_formula_units_Z 96
_cell_length_a 14.539994
_cell_length_b 14.539994
_cell_length_c 23.824387
_cell_angle_alpha 90.000000
_cell_angle_beta 90.000000
_cell_angle_gamma 90.000000
_cell_volume 5036.747618
_symmetry_space_group_name_H-M "P 4/N B M"
_symmetry_group_IT_number 125
_space_group.IT_coordinate_system_code '2'
_symmetry_cell_setting 'tetragonal'
loop_
_space_group_symop_operation_xyz
x,y,z
1/2-y,x,z
1/2-x,1/2-y,z
y,1/2-x,z
x,1/2-y,-z
1/2-x,y,-z
y,x,-z
1/2-y,1/2-x,-z
-x,-y,-z
1/2+y,-x,-z
1/2+x,1/2+y,-z
-y,1/2+x,-z
-x,1/2+y,z
1/2+x,-y,z
-y,-x,z
1/2+y,1/2+x,z
loop_
_atom_site_type_symbol
_atom_site_label
_atom_site_fract_x
_atom_site_fract_y
_atom_site_fract_z
Si Si1 0.485228 0.247856 0.369254
Si Si2 0.851047 0.993228 0.026567
Si Si3 0.170965 0.670965 0.816195
Si Si4 0.103396 0.291738 0.747724
Si Si5 0.428837 0.417859 0.434514
Si Si6 0.312805 0.968119 0.150707
Si Si7 0.171901 0.828100 0.315535
O O1 0.436486 0.291322 0.314708
O O2 0.486933 0.330543 0.413525
O O3 0.430706 0.163297 0.397720
O O4 0.582326 0.209984 0.347078
O O5 0.915445 0.084556 0.019932
O O6 0.833025 0.979798 0.092982
O O7 0.750000 0.004439 0.000000
O O8 0.909409 0.909409 0.000000
O O9 0.250000 0.750000 0.815871
O O10 0.214764 0.584180 0.847642
O O11 0.150681 0.650681 0.750421
O O12 0.140625 0.188684 0.755160
O O13 0.029516 0.315623 0.794314
O O14 0.406060 0.406060 0.500000
O O15 0.491220 0.508781 0.428219
O O16 0.390075 0.890075 0.155454
O O17 0.250000 0.750000 0.315652
#
# Coordination Sequence:
#
# PCOD9563135 Si02
#       7
#    16  16   8  16  16  16   8
#     4  12  22  42  66  93 127 171 211 263 324 384
#     4  10  24  44  65  94 130 172 224 273 318 383
#     4   9  18  34  60  93 128 156 197 259 318 388
#     4  11  24  41  61  91 130 164 205 258 317 388
#     4  11  25  43  65  92 128 169 220 268 315 380
#     4  10  22  41  64  95 127 165 213 259 321 380
#     4  11  22  38  63  97 131 165 206 261 335 395
#
# _framework density 19.059919000000001
#
# number of rings (size 3 to 8) (size 9 to 14) (size 15 to 20)
#    0.000    1.333    4.167    1.000    3.500    1.333 
#    3.000    0.833    0.000    0.000    0.000    0.000 
#    0.000    0.000    0.000    0.000    0.000    0.000 
#
# Total GULP energy -536048.943833 kJ/mol
# GULP energy per Si atom -5583.843165 kJ/mol
# Density = 1.901654 g / cm^3
# Si number density = 19.059919 Si / 1000 Ang^3
#
#
#
# Elastic Constant Matrix: (Units=GPa)
#
#
# Indices 1 2 3 4 5 6 
#
# 1 62.6096 14.3715 52.4110 0.0000 0.0000 0.0000
# 2 14.3715 62.6096 52.4110 0.0000 0.0000 0.0000
# 3 52.4110 52.4110 145.9281 0.0000 0.0000 0.0000
# 4 0.0000 0.0000 0.0000 22.9819 0.0000 0.0000
# 5 0.0000 0.0000 0.0000 0.0000 22.9819 0.0000
# 6 0.0000 0.0000 0.0000 0.0000 0.0000 318.2378
#
#
#
# Elastic Compliance Matrix: (Units=1/GPa)
#
#
# Indices 1 2 3 4 5 6 
#
# 1 0.023077 0.002347 -0.009131 0.000000 0.000000 0.000000
# 2 0.002347 0.023077 -0.009131 0.000000 0.000000 0.000000
# 3 -0.009131 -0.009131 0.013412 0.000000 0.000000 0.000000
# 4 0.000000 0.000000 0.000000 0.043513 0.000000 0.000000
# 5 0.000000 0.000000 0.000000 0.000000 0.043513 0.000000
# 6 0.000000 0.000000 0.000000 0.000000 0.000000 0.003142
#
#
# Mechanical properties :
#
#
# Convention : Reuss Voigt Hill
#
# Bulk Modulus (GPa) = 36.05604 56.61490 46.33547
# Shear Modulus (GPa) = 26.20422 82.97058 54.58740
#
# Velocity S-wave (km/s) = 3.71190 6.60499 5.35743
# Velocity P-wave (km/s) = 6.10976 9.37742 7.91408
#
# Compressibility (1/GPa) = 0.02773461
#
# Stress axis : x y z
#
# Youngs Moduli (GPa) = 43.33316 43.33316 74.56222
#
# Poissons Ratio (x) = -0.10168 0.68083
# Poissons Ratio (y) = -0.10168 0.68083
# Poissons Ratio (z) = 0.39568 0.39568
#
# Static dielectric constant tensor:
#      x y z
#    x 1.654180 0.000000 0.000000 
#    y 0.000000 1.654180 0.000000 
#    z 0.000000 0.000000 1.656870 
# 
# From -- ./inp_files/5980.got.cif
#   From: 2010.05.17/outbox.cif.g08.bks.cpg/sg125_3_cif.got.tgz:5980.got - 2010.05.20 11:54:10.
