data_PCOD9563411
_publ_section_title
;
Structure prediction by ZEFSAII (Michael W. Deem and Ramdas Pophale) SiO2 
 PCOD9563411
Probable space group: P 4/N N C
;
_chemical_formula_sum "Si O2"
_cell_formula_units_Z 128
_cell_length_a 16.077096
_cell_length_b 16.077096
_cell_length_c 24.102579
_cell_angle_alpha 90.000000
_cell_angle_beta 90.000000
_cell_angle_gamma 90.000000
_cell_volume 6229.866283
_symmetry_space_group_name_H-M "P 4/N N C"
_symmetry_group_IT_number 126
_space_group.IT_coordinate_system_code '2'
_symmetry_cell_setting 'tetragonal'
loop_
_space_group_symop_operation_xyz
x,y,z
1/2-y,x,z
1/2-x,1/2-y,z
y,1/2-x,z
x,1/2-y,1/2-z
1/2-x,y,1/2-z
y,x,1/2-z
1/2-y,1/2-x,1/2-z
-x,-y,-z
1/2+y,-x,-z
1/2+x,1/2+y,-z
-y,1/2+x,-z
-x,1/2+y,1/2+z
1/2+x,-y,1/2+z
-y,-x,1/2+z
1/2+y,1/2+x,1/2+z
loop_
_atom_site_type_symbol
_atom_site_label
_atom_site_fract_x
_atom_site_fract_y
_atom_site_fract_z
Si Si1 0.060680 0.505717 0.197038
Si Si2 0.029948 0.139616 0.520586
Si Si3 0.402705 0.385959 0.687754
Si Si4 0.461575 0.473301 0.423091
Si Si5 0.632724 0.109573 0.117789
Si Si6 0.755148 0.955234 0.383069
Si Si7 0.128017 0.723319 0.975216
Si Si8 0.345947 0.849167 0.756002
O O1 0.085538 0.473818 0.135892
O O2 0.112032 0.587190 0.214168
O O3 0.056583 0.443417 0.250000
O O4 0.965076 0.536401 0.189497
O O5 0.965495 0.201270 0.490404
O O6 0.074711 0.083380 0.473268
O O7 0.074611 0.201529 0.563930
O O8 0.981366 0.067132 0.555727
O O9 0.371276 0.371276 0.750000
O O10 0.456741 0.309603 0.667035
O O11 0.330647 0.402497 0.643002
O O12 0.551218 0.431621 0.409615
O O13 0.645484 0.197349 0.087696
O O14 0.626208 0.124389 0.182640
O O15 0.707607 0.046102 0.105515
O O16 0.159920 0.814096 0.989574
O O17 0.347250 0.750000 0.750000
O O18 0.250000 0.877200 0.750000
#
# Coordination Sequence:
#
# PCOD9563411 Si02
#       8
#    16  16  16  16  16  16  16  16
#     4  11  19  36  60  83 114 169 207 256 310 383
#     4  10  21  35  58  84 111 153 205 264 310 368
#     4  11  23  35  57  86 120 162 208 252 311 376
#     4  10  20  38  58  84 114 152 212 257 304 379
#     4  11  20  38  56  79 118 158 202 254 307 383
#     4  12  20  38  58  82 116 160 209 261 315 371
#     4  10  21  34  54  80 112 152 200 249 309 379
#     4  11  25  38  56  89 132 169 209 259 327 399
#
# _framework density 20.546188000000001
#
# number of rings (size 3 to 8) (size 9 to 14) (size 15 to 20)
#    0.000    1.250    5.000    1.875    0.000    3.250 
#    0.000    0.625    0.000    0.000    0.000    0.000 
#    0.000    0.250    0.000    0.000    0.000    0.000 
#
# Total GULP energy -714011.082928 kJ/mol
# GULP energy per Si atom -5578.211585 kJ/mol
# Density = 2.049942 g / cm^3
# Si number density = 20.546188 Si / 1000 Ang^3
#
#
#
# Elastic Constant Matrix: (Units=GPa)
#
#
# Indices 1 2 3 4 5 6 
#
# 1 49.2013 8.9769 29.1939 0.0000 0.0000 0.0000
# 2 8.9769 49.2013 29.1939 0.0000 0.0000 0.0000
# 3 29.1939 29.1939 133.4446 0.0000 0.0000 0.0000
# 4 0.0000 0.0000 0.0000 33.5208 0.0000 0.0000
# 5 0.0000 0.0000 0.0000 0.0000 33.5208 0.0000
# 6 0.0000 0.0000 0.0000 0.0000 0.0000 23.4109
#
#
#
# Elastic Compliance Matrix: (Units=1/GPa)
#
#
# Indices 1 2 3 4 5 6 
#
# 1 0.023442 -0.001418 -0.004818 0.000000 0.000000 0.000000
# 2 -0.001418 0.023442 -0.004818 0.000000 0.000000 0.000000
# 3 -0.004818 -0.004818 0.009602 0.000000 0.000000 0.000000
# 4 0.000000 0.000000 0.000000 0.029832 0.000000 0.000000
# 5 0.000000 0.000000 0.000000 0.000000 0.029832 0.000000
# 6 0.000000 0.000000 0.000000 0.000000 0.000000 0.042715
#
#
# Mechanical properties :
#
#
# Convention : Reuss Voigt Hill
#
# Bulk Modulus (GPa) = 29.08897 40.73072 34.90984
# Shear Modulus (GPa) = 25.98284 29.05601 27.51942
#
# Velocity S-wave (km/s) = 3.55999 3.76464 3.66374
# Velocity P-wave (km/s) = 5.57554 6.22605 5.90975
#
# Compressibility (1/GPa) = 0.03437729
#
# Stress axis : x y z
#
# Youngs Moduli (GPa) = 42.65778 42.65778 104.14550
#
# Poissons Ratio (x) = 0.06050 0.50180
# Poissons Ratio (y) = 0.06050 0.50180
# Poissons Ratio (z) = 0.20554 0.20554
#
# Static dielectric constant tensor:
#      x y z
#    x 1.753410 0.000000 0.000000 
#    y 0.000000 1.753410 0.000000 
#    z 0.000000 0.000000 1.818300 
# 
# From -- ./inp_files/5980.got.cif
#   From: 2010.05.17/outbox.cif.g08.bks.cpg/sg126_3_cif.got.tgz:5980.got - 2010.05.20 11:58:20.
