data_PCOD9563254
_publ_section_title
;
Structure prediction by ZEFSAII (Michael W. Deem and Ramdas Pophale) SiO2 
 PCOD9563254
Probable space group: P 4/N B M
;
_chemical_formula_sum "Si O2"
_cell_formula_units_Z 34
_cell_length_a 12.038466
_cell_length_b 12.038466
_cell_length_c 10.437760
_cell_angle_alpha 90.000000
_cell_angle_beta 90.000000
_cell_angle_gamma 90.000000
_cell_volume 1512.688857
_symmetry_space_group_name_H-M "P 4/N B M"
_symmetry_group_IT_number 125
_space_group.IT_coordinate_system_code '2'
_symmetry_cell_setting 'tetragonal'
loop_
_space_group_symop_operation_xyz
x,y,z
1/2-y,x,z
1/2-x,1/2-y,z
y,1/2-x,z
x,1/2-y,-z
1/2-x,y,-z
y,x,-z
1/2-y,1/2-x,-z
-x,-y,-z
1/2+y,-x,-z
1/2+x,1/2+y,-z
-y,1/2+x,-z
-x,1/2+y,z
1/2+x,-y,z
-y,-x,z
1/2+y,1/2+x,z
loop_
_atom_site_type_symbol
_atom_site_label
_atom_site_fract_x
_atom_site_fract_y
_atom_site_fract_z
Si Si1 0.750000 0.250000 0.000000
Si Si2 0.750000 0.069936 0.500000
Si Si3 0.087188 0.912813 0.947736
Si Si4 0.205176 0.431308 0.251144
O O1 0.840700 0.159301 0.952023
O O2 0.651679 0.151679 0.452133
O O3 0.702500 0.993835 0.613009
O O4 0.017515 0.830087 0.857181
O O5 0.000000 0.000000 0.000000
O O6 0.120497 0.328004 0.240660
#
# Coordination Sequence:
#
# PCOD9563254 Si02
#       4
#     2   8   8  16
#     4  12  28  44  72  98 132 176 252 300 364 446
#     4  11  24  41  70 110 146 185 236 295 368 454
#     4  12  26  48  72 102 139 192 245 312 370 432
#     4  11  25  43  69 104 143 186 237 294 367 447
#
# _framework density 22.476534999999998
#
# number of rings (size 3 to 8) (size 9 to 14) (size 15 to 20)
#    0.000    0.706    2.353    4.235    6.588    3.765 
#    0.000    2.353    0.000    0.000    0.000    0.000 
#    0.000    0.000    0.000    0.000    0.000    0.000 
#
# Total GULP energy -189852.247104 kJ/mol
# GULP energy per Si atom -5583.889621 kJ/mol
# Density = 2.242538 g / cm^3
# Si number density = 22.476535 Si / 1000 Ang^3
#
#
#
# Elastic Constant Matrix: (Units=GPa)
#
#
# Indices 1 2 3 4 5 6 
#
# 1 146.8212 90.1745 48.5041 0.0000 0.0000 0.0000
# 2 90.1745 146.8212 48.5041 0.0000 0.0000 0.0000
# 3 48.5041 48.5041 76.2339 0.0000 0.0000 0.0000
# 4 0.0000 0.0000 0.0000 106.7873 0.0000 0.0000
# 5 0.0000 0.0000 0.0000 0.0000 106.7873 0.0000
# 6 0.0000 0.0000 0.0000 0.0000 0.0000 39.2901
#
#
#
# Elastic Compliance Matrix: (Units=1/GPa)
#
#
# Indices 1 2 3 4 5 6 
#
# 1 0.011679 -0.005974 -0.003630 0.000000 0.000000 0.000000
# 2 -0.005974 0.011679 -0.003630 0.000000 0.000000 0.000000
# 3 -0.003630 -0.003630 0.017737 0.000000 0.000000 0.000000
# 4 0.000000 0.000000 0.000000 0.009364 0.000000 0.000000
# 5 0.000000 0.000000 0.000000 0.000000 0.009364 0.000000
# 6 0.000000 0.000000 0.000000 0.000000 0.000000 0.025452
#
#
# Mechanical properties :
#
#
# Convention : Reuss Voigt Hill
#
# Bulk Modulus (GPa) = 68.36535 82.69350 75.52943
# Shear Modulus (GPa) = 42.87436 62.75253 52.81344
#
# Velocity S-wave (km/s) = 4.37225 5.28959 4.85264
# Velocity P-wave (km/s) = 7.48138 8.61262 8.06686
#
# Compressibility (1/GPa) = 0.01462729
#
# Stress axis : x y z
#
# Youngs Moduli (GPa) = 85.62144 85.62144 56.38002
#
# Poissons Ratio (x) = 0.51150 0.20466
# Poissons Ratio (y) = 0.51150 0.20466
# Poissons Ratio (z) = 0.31081 0.31081
#
# Static dielectric constant tensor:
#      x y z
#    x 1.834430 0.000000 0.000000 
#    y 0.000000 1.834430 0.000000 
#    z 0.000000 0.000000 1.797370 
# 
# From -- ./inp_files/3233.got.cif
#   From: 2010.05.17/outbox.cif.g08.bks.cpg/sg125_2_cif.got.tgz:3233.got - 2010.05.20 11:54:10.
