data_PCOD9563008
_publ_section_title
;
Structure prediction by ZEFSAII (Michael W. Deem and Ramdas Pophale) SiO2 
 PCOD9563008
Probable space group: P 4/N B M
;
_chemical_formula_sum "Si O2"
_cell_formula_units_Z 56
_cell_length_a 19.359021
_cell_length_b 19.359021
_cell_length_c 7.760742
_cell_angle_alpha 90.000000
_cell_angle_beta 90.000000
_cell_angle_gamma 90.000000
_cell_volume 2908.506427
_symmetry_space_group_name_H-M "P 4/N B M"
_symmetry_group_IT_number 125
_space_group.IT_coordinate_system_code '2'
_symmetry_cell_setting 'tetragonal'
loop_
_space_group_symop_operation_xyz
x,y,z
1/2-y,x,z
1/2-x,1/2-y,z
y,1/2-x,z
x,1/2-y,-z
1/2-x,y,-z
y,x,-z
1/2-y,1/2-x,-z
-x,-y,-z
1/2+y,-x,-z
1/2+x,1/2+y,-z
-y,1/2+x,-z
-x,1/2+y,z
1/2+x,-y,z
-y,-x,z
1/2+y,1/2+x,z
loop_
_atom_site_type_symbol
_atom_site_label
_atom_site_fract_x
_atom_site_fract_y
_atom_site_fract_z
Si Si1 0.296661 0.966858 0.239939
Si Si2 0.539234 0.571704 0.697745
Si Si3 0.030959 0.856731 0.140504
Si Si4 0.644079 0.250000 0.500000
O O1 0.215464 0.983478 0.233759
O O2 0.294077 0.903062 0.370923
O O3 0.346670 0.028532 0.295993
O O4 0.329534 0.952162 0.051883
O O5 0.554741 0.554741 0.500000
O O6 0.466594 0.533407 0.740623
O O7 0.594784 0.535423 0.823091
O O8 0.095213 0.904788 0.199533
O O9 0.695325 0.304676 0.591843
#
# Coordination Sequence:
#
# PCOD9563008 Si02
#       4
#    16  16  16   8
#     4  11  21  35  56  80 111 147 185 228 276 326
#     4  10  20  35  56  80 107 142 185 230 275 327
#     4  10  21  36  56  83 112 144 184 228 276 331
#     4  11  22  34  50  76 112 153 192 228 272 329
#
# _framework density 19.253868000000001
#
# number of rings (size 3 to 8) (size 9 to 14) (size 15 to 20)
#    0.000    1.571    0.000    6.000    0.000    4.571 
#    0.000    0.000    0.000   11.143    0.000    6.000 
#    0.000    0.000    0.000    0.000    0.000    0.000 
#
# Total GULP energy -311823.929238 kJ/mol
# GULP energy per Si atom -5568.284451 kJ/mol
# Density = 1.921005 g / cm^3
# Si number density = 19.253868 Si / 1000 Ang^3
#
#
#
# Elastic Constant Matrix: (Units=GPa)
#
#
# Indices 1 2 3 4 5 6 
#
# 1 132.4676 80.0045 38.7481 0.0000 0.0000 0.0000
# 2 80.0045 132.4676 38.7481 0.0000 0.0000 0.0000
# 3 38.7481 38.7481 52.5123 0.0000 0.0000 0.0000
# 4 0.0000 0.0000 0.0000 -55.1876 0.0000 0.0000
# 5 0.0000 0.0000 0.0000 0.0000 -55.1876 0.0000
# 6 0.0000 0.0000 0.0000 0.0000 0.0000 34.7442
#
#
#
# Elastic Compliance Matrix: (Units=1/GPa)
#
#
# Indices 1 2 3 4 5 6 
#
# 1 0.012750 -0.006311 -0.004752 0.000000 0.000000 0.000000
# 2 -0.006311 0.012750 -0.004752 0.000000 0.000000 0.000000
# 3 -0.004752 -0.004752 0.026056 0.000000 0.000000 0.000000
# 4 0.000000 0.000000 0.000000 -0.018120 0.000000 0.000000
# 5 0.000000 0.000000 0.000000 0.000000 -0.018120 0.000000
# 6 0.000000 0.000000 0.000000 0.000000 0.000000 0.028782
#
#
# Mechanical properties :
#
#
# Convention : Reuss Voigt Hill
#
# Bulk Modulus (GPa) = 50.18063 70.27210 60.22636
# Shear Modulus (GPa) = 60.70258 -4.46307 28.11976
#
# Velocity S-wave (km/s) = 5.62102 -1.52415 3.82576
# Velocity P-wave (km/s) = 8.26118 5.78615 7.13185
#
# Compressibility (1/GPa) = 0.01992801
#
# Stress axis : x y z
#
# Youngs Moduli (GPa) = 78.42946 78.42946 38.37950
#
# Poissons Ratio (x) = 0.49494 0.18237
# Poissons Ratio (y) = 0.49494 0.18237
# Poissons Ratio (z) = 0.37267 0.37267
#
# Static dielectric constant tensor:
#      x y z
#    x 1.672580 0.000000 0.000000 
#    y 0.000000 1.672580 0.000000 
#    z 0.000000 0.000000 1.760580 
# 
# From -- ./inp_files/2059.got.cif
#   From: 2010.05.17/outbox.cif.g08.bks.cpg/sg125_2_cif.got.tgz:2059.got - 2010.05.20 11:54:10.
