data_PCOD9563712
_publ_section_title
;
Structure prediction by ZEFSAII (Michael W. Deem and Ramdas Pophale) SiO2 
 PCOD9563712
Probable space group: P 4/N N C
;
_chemical_formula_sum "Si O2"
_cell_formula_units_Z 96
_cell_length_a 16.227084
_cell_length_b 16.227084
_cell_length_c 18.687130
_cell_angle_alpha 90.000000
_cell_angle_beta 90.000000
_cell_angle_gamma 90.000000
_cell_volume 4920.662465
_symmetry_space_group_name_H-M "P 4/N N C"
_symmetry_group_IT_number 126
_space_group.IT_coordinate_system_code '2'
_symmetry_cell_setting 'tetragonal'
loop_
_space_group_symop_operation_xyz
x,y,z
1/2-y,x,z
1/2-x,1/2-y,z
y,1/2-x,z
x,1/2-y,1/2-z
1/2-x,y,1/2-z
y,x,1/2-z
1/2-y,1/2-x,1/2-z
-x,-y,-z
1/2+y,-x,-z
1/2+x,1/2+y,-z
-y,1/2+x,-z
-x,1/2+y,1/2+z
1/2+x,-y,1/2+z
-y,-x,1/2+z
1/2+y,1/2+x,1/2+z
loop_
_atom_site_type_symbol
_atom_site_label
_atom_site_fract_x
_atom_site_fract_y
_atom_site_fract_z
Si Si1 0.250000 0.583582 0.750000
Si Si2 0.992423 0.507578 0.250000
Si Si3 0.199258 0.011711 0.892915
Si Si4 0.151148 0.738499 0.584564
Si Si5 0.095992 0.611983 0.983409
Si Si6 0.043109 0.109575 0.894234
Si Si7 0.837572 0.089204 0.728144
O O1 0.290715 0.529719 0.813771
O O2 0.172348 0.639611 0.773427
O O3 0.930170 0.521045 0.183232
O O4 0.972669 0.414090 0.273164
O O5 0.139774 0.090032 0.896049
O O6 0.293932 0.030637 0.906754
O O7 0.151774 0.957078 0.952561
O O8 0.250000 0.750000 0.584495
O O9 0.101072 0.823720 0.582010
O O10 0.119701 0.688357 0.515190
O O11 0.125934 0.682848 0.650687
O O12 0.073500 0.522752 0.951983
O O13 0.750000 0.051552 0.750000
#
# Coordination Sequence:
#
# PCOD9563712 Si02
#       7
#     8   8  16  16  16  16  16
#     4  12  21  40  64  95 130 172 222 289 350 426
#     4  12  24  46  66  98 144 178 236 284 354 432
#     4  12  24  41  65  93 132 180 230 278 346 420
#     4  12  20  36  61  99 137 169 216 279 361 434
#     4  12  22  38  63  95 134 172 219 286 358 424
#     4  12  24  43  66  93 135 186 229 288 345 424
#     4  12  25  38  66 101 134 178 229 289 357 421
#
# _framework density 19.509567000000001
#
# number of rings (size 3 to 8) (size 9 to 14) (size 15 to 20)
#    0.000    0.000    8.333    2.750    0.000    0.333 
#    0.000    0.000    0.000    2.250    0.000    0.000 
#    0.000    0.000    0.000    0.000    0.000    0.000 
#
# Total GULP energy -535040.051812 kJ/mol
# GULP energy per Si atom -5573.333873 kJ/mol
# Density = 1.946516 g / cm^3
# Si number density = 19.509567 Si / 1000 Ang^3
#
#
#
# Elastic Constant Matrix: (Units=GPa)
#
#
# Indices 1 2 3 4 5 6 
#
# 1 116.3779 55.8233 47.9404 0.0000 0.0000 0.0000
# 2 55.8233 116.3772 47.9401 0.0000 0.0000 0.0000
# 3 47.9404 47.9401 103.9446 0.0000 0.0000 0.0000
# 4 0.0000 0.0000 0.0000 30.0762 0.0000 0.0000
# 5 0.0000 0.0000 0.0000 0.0000 30.0765 0.0000
# 6 0.0000 0.0000 0.0000 0.0000 0.0000 38.7918
#
#
#
# Elastic Compliance Matrix: (Units=1/GPa)
#
#
# Indices 1 2 3 4 5 6 
#
# 1 0.012164 -0.004350 -0.003604 0.000000 0.000000 0.000000
# 2 -0.004350 0.012164 -0.003604 0.000000 0.000000 0.000000
# 3 -0.003604 -0.003604 0.012945 0.000000 0.000000 0.000000
# 4 0.000000 0.000000 0.000000 0.033249 0.000000 0.000000
# 5 0.000000 0.000000 0.000000 0.000000 0.033249 0.000000
# 6 0.000000 0.000000 0.000000 0.000000 0.000000 0.025779
#
#
# Mechanical properties :
#
#
# Convention : Reuss Voigt Hill
#
# Bulk Modulus (GPa) = 70.63601 71.12303 70.87952
# Shear Modulus (GPa) = 31.76961 32.12195 31.94578
#
# Velocity S-wave (km/s) = 4.03974 4.06208 4.05092
# Velocity P-wave (km/s) = 7.61864 7.65083 7.63475
#
# Compressibility (1/GPa) = 0.01415709
#
# Stress axis : x y z
#
# Youngs Moduli (GPa) = 82.21044 82.21010 77.25170
#
# Poissons Ratio (x) = 0.35763 0.27840
# Poissons Ratio (y) = 0.35763 0.27840
# Poissons Ratio (z) = 0.29627 0.29627
#
# Static dielectric constant tensor:
#      x y z
#    x 1.728510 0.000000 0.000000 
#    y 0.000000 1.728510 0.000000 
#    z 0.000000 0.000000 1.788280 
# 
# From -- ./inp_files/5312.got.cif
#   From: 2010.05.17/outbox.cif.g08.bks.cpg/sg126_3_cif.got.tgz:5312.got - 2010.05.20 11:58:20.
