data_PCOD9563267
_publ_section_title
;
Structure prediction by ZEFSAII (Michael W. Deem and Ramdas Pophale) SiO2 
 PCOD9563267
Probable space group: P 4/N B M
;
_chemical_formula_sum "Si O2"
_cell_formula_units_Z 64
_cell_length_a 14.550808
_cell_length_b 14.550808
_cell_length_c 15.695575
_cell_angle_alpha 90.000000
_cell_angle_beta 90.000000
_cell_angle_gamma 90.000000
_cell_volume 3323.161524
_symmetry_space_group_name_H-M "P 4/N B M"
_symmetry_group_IT_number 125
_space_group.IT_coordinate_system_code '2'
_symmetry_cell_setting 'tetragonal'
loop_
_space_group_symop_operation_xyz
x,y,z
1/2-y,x,z
1/2-x,1/2-y,z
y,1/2-x,z
x,1/2-y,-z
1/2-x,y,-z
y,x,-z
1/2-y,1/2-x,-z
-x,-y,-z
1/2+y,-x,-z
1/2+x,1/2+y,-z
-y,1/2+x,-z
-x,1/2+y,z
1/2+x,-y,z
-y,-x,z
1/2+y,1/2+x,z
loop_
_atom_site_type_symbol
_atom_site_label
_atom_site_fract_x
_atom_site_fract_y
_atom_site_fract_z
Si Si1 0.871097 0.651944 0.906417
Si Si2 0.901745 0.947098 0.730854
Si Si3 0.922033 0.077968 0.481816
Si Si4 0.220204 0.991449 0.657490
Si Si5 0.678892 0.321109 0.636643
O O1 0.872653 0.762856 0.898957
O O2 0.936453 0.621649 0.829963
O O3 0.889890 0.610111 0.000000
O O4 0.962220 0.857841 0.712441
O O5 0.812442 0.947173 0.668472
O O6 0.963941 0.036060 0.714224
O O7 0.967517 0.162951 0.428800
O O8 0.876600 0.123401 0.564641
O O9 0.000000 0.000000 0.500000
O O10 0.260848 0.894086 0.687865
O O11 0.750000 0.250000 0.596234
#
# Coordination Sequence:
#
# PCOD9563267 Si02
#       5
#    16  16   8  16   8
#     4   9  18  35  61  91 123 165 210 251 311 388
#     4  12  23  40  63  98 129 166 211 269 318 382
#     4  12  26  46  64  94 128 169 213 284 321 389
#     4  12  25  40  65  93 126 166 213 267 322 379
#     4  12  24  42  68  90 118 173 224 258 322 397
#
# _framework density 19.258769000000001
#
# number of rings (size 3 to 8) (size 9 to 14) (size 15 to 20)
#    0.000    0.750    6.250    3.000    1.750    1.000 
#    0.000    0.000    0.000    1.500    0.000    0.000 
#    0.000    8.000    0.000    0.000    0.000    0.000 
#
# Total GULP energy -356383.845481 kJ/mol
# GULP energy per Si atom -5568.497586 kJ/mol
# Density = 1.921494 g / cm^3
# Si number density = 19.258769 Si / 1000 Ang^3
#
#
#
# Elastic Constant Matrix: (Units=GPa)
#
#
# Indices 1 2 3 4 5 6 
#
# 1 109.1833 47.7547 42.2882 0.0000 0.0000 0.0000
# 2 47.7547 109.1835 42.2882 0.0000 0.0000 0.0000
# 3 42.2882 42.2882 70.3189 0.0000 0.0000 0.0000
# 4 0.0000 0.0000 0.0000 26.6362 0.0000 0.0000
# 5 0.0000 0.0000 0.0000 0.0000 26.6360 0.0000
# 6 0.0000 0.0000 0.0000 0.0000 0.0000 44.3182
#
#
#
# Elastic Compliance Matrix: (Units=1/GPa)
#
#
# Indices 1 2 3 4 5 6 
#
# 1 0.012853 -0.003426 -0.005669 0.000000 0.000000 0.000000
# 2 -0.003426 0.012853 -0.005669 0.000000 0.000000 0.000000
# 3 -0.005669 -0.005669 0.021040 0.000000 0.000000 0.000000
# 4 0.000000 0.000000 0.000000 0.037543 0.000000 0.000000
# 5 0.000000 0.000000 0.000000 0.000000 0.037543 0.000000
# 6 0.000000 0.000000 0.000000 0.000000 0.000000 0.022564
#
#
# Mechanical properties :
#
#
# Convention : Reuss Voigt Hill
#
# Bulk Modulus (GPa) = 58.08248 61.48310 59.78279
# Shear Modulus (GPa) = 27.82969 29.94172 28.88571
#
# Velocity S-wave (km/s) = 3.80549 3.94725 3.87702
# Velocity P-wave (km/s) = 7.03800 7.26419 7.15199
#
# Compressibility (1/GPa) = 0.01721689
#
# Stress axis : x y z
#
# Youngs Moduli (GPa) = 77.80191 77.80216 47.52917
#
# Poissons Ratio (x) = 0.26654 0.26946
# Poissons Ratio (y) = 0.26654 0.26946
# Poissons Ratio (z) = 0.44108 0.44108
#
# Static dielectric constant tensor:
#      x y z
#    x 1.709160 0.000000 0.000000 
#    y 0.000000 1.709160 0.000000 
#    z 0.000000 0.000000 1.750170 
# 
# From -- ./inp_files/5288.got.cif
#   From: 2010.05.17/outbox.cif.g08.bks.cpg/sg125_3_cif.got.tgz:5288.got - 2010.05.20 11:54:10.
