data_PCOD9563431
_publ_section_title
;
Structure prediction by ZEFSAII (Michael W. Deem and Ramdas Pophale) SiO2 
 PCOD9563431
Probable space group: P 4/N N C
;
_chemical_formula_sum "Si O2"
_cell_formula_units_Z 96
_cell_length_a 25.552843
_cell_length_b 25.552843
_cell_length_c 10.540101
_cell_angle_alpha 90.000000
_cell_angle_beta 90.000000
_cell_angle_gamma 90.000000
_cell_volume 6882.135606
_symmetry_space_group_name_H-M "P 4/N N C"
_symmetry_group_IT_number 126
_space_group.IT_coordinate_system_code '2'
_symmetry_cell_setting 'tetragonal'
loop_
_space_group_symop_operation_xyz
x,y,z
1/2-y,x,z
1/2-x,1/2-y,z
y,1/2-x,z
x,1/2-y,1/2-z
1/2-x,y,1/2-z
y,x,1/2-z
1/2-y,1/2-x,1/2-z
-x,-y,-z
1/2+y,-x,-z
1/2+x,1/2+y,-z
-y,1/2+x,-z
-x,1/2+y,1/2+z
1/2+x,-y,1/2+z
-y,-x,1/2+z
1/2+y,1/2+x,1/2+z
loop_
_atom_site_type_symbol
_atom_site_label
_atom_site_fract_x
_atom_site_fract_y
_atom_site_fract_z
Si Si1 0.445328 0.193548 0.287916
Si Si2 0.517757 0.033258 0.623617
Si Si3 0.302165 0.122130 0.828078
Si Si4 0.099729 0.045674 0.128081
Si Si5 0.780851 0.831366 0.601258
Si Si6 0.541014 0.628140 0.032395
O O1 0.466452 0.250000 0.250000
O O2 0.449113 0.159769 0.160593
O O3 0.384851 0.200435 0.331904
O O4 0.471492 0.161838 0.405258
O O5 0.505063 0.093543 0.594159
O O6 0.487038 0.012963 0.750000
O O7 0.500000 0.000000 0.500000
O O8 0.577606 0.013250 0.630258
O O9 0.250000 0.109920 0.750000
O O10 0.341391 0.158610 0.750000
O O11 0.333272 0.070519 0.872555
O O12 0.285854 0.154153 0.953407
O O13 0.071614 0.071614 0.250000
O O14 0.081919 0.082460 0.012539
O O15 0.720617 0.815103 0.626532
#
# Coordination Sequence:
#
# PCOD9563431 Si02
#       6
#    16  16  16  16  16  16
#     4  10  21  29  45  61  88 114 146 189 239 274
#     4   9  16  31  51  72  88 106 140 194 247 292
#     4  11  20  29  41  50  77 114 155 198 234 265
#     4   8  16  30  47  63  85 103 135 186 239 284
#     4  10  21  31  40  53  72 110 162 199 234 268
#     4   9  19  29  44  63  80 108 149 189 236 287
#
# _framework density 13.949159
#
# number of rings (size 3 to 8) (size 9 to 14) (size 15 to 20)
#    0.000    2.500    1.667    1.500    9.333    0.167 
#    0.000    0.833    0.000    0.000    0.000    0.000 
#    0.000    0.000    0.000    0.000    0.000    6.667 
#
# Total GULP energy -534491.213768 kJ/mol
# GULP energy per Si atom -5567.616810 kJ/mol
# Density = 1.391741 g / cm^3
# Si number density = 13.949159 Si / 1000 Ang^3
#
#
#
# Elastic Constant Matrix: (Units=GPa)
#
#
# Indices 1 2 3 4 5 6 
#
# 1 49.6567 32.1735 15.0705 0.0000 0.0000 0.0000
# 2 32.1735 49.6560 15.0705 0.0000 0.0000 0.0000
# 3 15.0705 15.0705 55.1529 0.0000 0.0000 0.0000
# 4 0.0000 0.0000 0.0000 19.5320 0.0000 0.0000
# 5 0.0000 0.0000 0.0000 0.0000 19.5320 0.0000
# 6 0.0000 0.0000 0.0000 0.0000 0.0000 19.7781
#
#
#
# Elastic Compliance Matrix: (Units=1/GPa)
#
#
# Indices 1 2 3 4 5 6 
#
# 1 0.035393 -0.021805 -0.003713 0.000000 0.000000 0.000000
# 2 -0.021805 0.035394 -0.003713 0.000000 0.000000 0.000000
# 3 -0.003713 -0.003713 0.020161 0.000000 0.000000 0.000000
# 4 0.000000 0.000000 0.000000 0.051198 0.000000 0.000000
# 5 0.000000 0.000000 0.000000 0.000000 0.051198 0.000000
# 6 0.000000 0.000000 0.000000 0.000000 0.000000 0.050561
#
#
# Mechanical properties :
#
#
# Convention : Reuss Voigt Hill
#
# Bulk Modulus (GPa) = 30.78348 31.01051 30.89699
# Shear Modulus (GPa) = 15.96447 17.91184 16.93816
#
# Velocity S-wave (km/s) = 3.38668 3.58729 3.48843
# Velocity P-wave (km/s) = 6.11629 6.27994 6.19866
#
# Compressibility (1/GPa) = 0.03248496
#
# Stress axis : x y z
#
# Youngs Moduli (GPa) = 28.25397 28.25351 49.60192
#
# Poissons Ratio (x) = 0.61608 0.18417
# Poissons Ratio (y) = 0.61609 0.18417
# Poissons Ratio (z) = 0.10490 0.10491
#
# Static dielectric constant tensor:
#      x y z
#    x 1.478960 0.000000 0.000000 
#    y 0.000000 1.478960 0.000000 
#    z 0.000000 0.000000 1.547590 
# 
# From -- ./inp_files/2990.got.cif
#   From: 2010.05.17/outbox.cif.g08.bks.cpg/sg126_2_cif.got.tgz:2990.got - 2010.05.20 11:58:20.
