data_PCOD9563229
_publ_section_title
;
Structure prediction by ZEFSAII (Michael W. Deem and Ramdas Pophale) SiO2 
 PCOD9563229
Probable space group: P 4/N B M
;
_chemical_formula_sum "Si O2"
_cell_formula_units_Z 104
_cell_length_a 16.012332
_cell_length_b 16.012332
_cell_length_c 18.009835
_cell_angle_alpha 90.000000
_cell_angle_beta 90.000000
_cell_angle_gamma 90.000000
_cell_volume 4617.627612
_symmetry_space_group_name_H-M "P 4/N B M"
_symmetry_group_IT_number 125
_space_group.IT_coordinate_system_code '2'
_symmetry_cell_setting 'tetragonal'
loop_
_space_group_symop_operation_xyz
x,y,z
1/2-y,x,z
1/2-x,1/2-y,z
y,1/2-x,z
x,1/2-y,-z
1/2-x,y,-z
y,x,-z
1/2-y,1/2-x,-z
-x,-y,-z
1/2+y,-x,-z
1/2+x,1/2+y,-z
-y,1/2+x,-z
-x,1/2+y,z
1/2+x,-y,z
-y,-x,z
1/2+y,1/2+x,z
loop_
_atom_site_type_symbol
_atom_site_label
_atom_site_fract_x
_atom_site_fract_y
_atom_site_fract_z
Si Si1 0.696269 0.439052 0.342994
Si Si2 0.945816 0.576929 0.694984
Si Si3 0.890665 0.250000 0.500000
Si Si4 0.965930 0.168495 0.949034
Si Si5 0.936302 0.579359 0.145729
Si Si6 0.572850 0.283706 0.179419
Si Si7 0.674512 0.859856 0.413695
O O1 0.651233 0.348768 0.345577
O O2 0.622766 0.505438 0.325400
O O3 0.733140 0.444823 0.425840
O O4 0.745274 0.438848 0.264938
O O5 0.922403 0.611818 0.775509
O O6 0.937898 0.635987 0.625734
O O7 0.034528 0.534528 0.698886
O O8 0.829565 0.170436 0.513212
O O9 0.902728 0.097273 0.981271
O O10 0.922671 0.206626 0.875623
O O11 0.051086 0.123282 0.921280
O O12 0.977665 0.250000 0.000000
O O13 0.005213 0.505213 0.149088
O O14 0.992433 0.662515 0.150061
O O15 0.651823 0.348178 0.176135
O O16 0.640785 0.770076 0.388536
O O17 0.651136 0.848865 0.500000
#
# Coordination Sequence:
#
# PCOD9563229 Si02
#       7
#    16  16   8  16  16  16  16
#     4   8  16  30  47  71 103 140 183 229 276 326
#     4   9  17  32  54  76 100 132 176 230 274 313
#     4   9  16  26  42  68 106 149 190 234 288 351
#     4  11  23  37  56  85 117 143 175 228 283 330
#     4   8  18  37  56  77 107 144 183 217 262 333
#     4   9  18  35  58  79 106 149 190 225 273 334
#     4   9  19  34  50  72 105 144 182 221 272 331
#
# _framework density 22.522387999999999
#
# number of rings (size 3 to 8) (size 9 to 14) (size 15 to 20)
#    0.000    3.000    0.000    2.769    0.000    6.308 
#    0.000    3.846    0.000    6.923    0.000    1.077 
#    0.000    0.000    0.000    3.385    0.000    0.000 
#
# Total GULP energy -579515.575188 kJ/mol
# GULP energy per Si atom -5572.265146 kJ/mol
# Density = 2.247113 g / cm^3
# Si number density = 22.522388 Si / 1000 Ang^3
#
#
#
# Elastic Constant Matrix: (Units=GPa)
#
#
# Indices 1 2 3 4 5 6 
#
# 1 34.2531 36.0932 36.5082 0.0000 0.0000 0.0000
# 2 36.0932 34.2525 36.5128 0.0000 0.0000 0.0000
# 3 36.5082 36.5128 113.0717 0.0000 0.0000 0.0000
# 4 0.0000 0.0000 0.0000 42.4193 0.0000 0.0000
# 5 0.0000 0.0000 0.0000 0.0000 42.4205 0.0000
# 6 0.0000 0.0000 0.0000 0.0000 0.0000 29.9088
#
#
#
# Elastic Compliance Matrix: (Units=1/GPa)
#
#
# Indices 1 2 3 4 5 6 
#
# 1 -0.260972 0.282374 -0.006922 0.000000 0.000000 0.000000
# 2 0.282374 -0.261012 -0.006887 0.000000 0.000000 0.000000
# 3 -0.006922 -0.006887 0.013303 0.000000 0.000000 0.000000
# 4 0.000000 0.000000 0.000000 0.023574 0.000000 0.000000
# 5 0.000000 0.000000 0.000000 0.000000 0.023574 0.000000
# 6 0.000000 0.000000 0.000000 0.000000 0.000000 0.033435
#
#
# Mechanical properties :
#
#
# Convention : Reuss Voigt Hill
#
# Bulk Modulus (GPa) = 35.14921 44.42285 39.78603
# Shear Modulus (GPa) = -5.23151 27.78059 11.27454
#
# Velocity S-wave (km/s) = -1.52573 3.51588 2.23982
# Velocity P-wave (km/s) = 3.54068 6.02068 4.93888
#
# Compressibility (1/GPa) = 0.02845014
#
# Stress axis : x y z
#
# Youngs Moduli (GPa) = -3.83183 -3.83124 75.17289
#
# Poissons Ratio (x) = 1.08184 0.52032
# Poissons Ratio (y) = 1.08201 0.51771
# Poissons Ratio (z) = -0.02652 -0.02639
#
# Static dielectric constant tensor:
#      x y z
#    x 1.882830 0.000000 0.000000 
#    y 0.000000 1.882830 0.000000 
#    z 0.000000 0.000000 1.879180 
# 
# From -- ./inp_files/5493.got.cif
#   From: 2010.05.17/outbox.cif.g08.bks.cpg/sg125_3_cif.got.tgz:5493.got - 2010.05.20 11:54:10.
