data_PCOD9563727
_publ_section_title
;
Structure prediction by ZEFSAII (Michael W. Deem and Ramdas Pophale) SiO2 
 PCOD9563727
Probable space group: P 4/N N C
;
_chemical_formula_sum "Si O2"
_cell_formula_units_Z 48
_cell_length_a 13.350282
_cell_length_b 13.350282
_cell_length_c 12.762701
_cell_angle_alpha 90.000000
_cell_angle_beta 90.000000
_cell_angle_gamma 90.000000
_cell_volume 2274.696575
_symmetry_space_group_name_H-M "P 4/N N C"
_symmetry_group_IT_number 126
_space_group.IT_coordinate_system_code '2'
_symmetry_cell_setting 'tetragonal'
loop_
_space_group_symop_operation_xyz
x,y,z
1/2-y,x,z
1/2-x,1/2-y,z
y,1/2-x,z
x,1/2-y,1/2-z
1/2-x,y,1/2-z
y,x,1/2-z
1/2-y,1/2-x,1/2-z
-x,-y,-z
1/2+y,-x,-z
1/2+x,1/2+y,-z
-y,1/2+x,-z
-x,1/2+y,1/2+z
1/2+x,-y,1/2+z
-y,-x,1/2+z
1/2+y,1/2+x,1/2+z
loop_
_atom_site_type_symbol
_atom_site_label
_atom_site_fract_x
_atom_site_fract_y
_atom_site_fract_z
Si Si1 0.760030 0.035974 0.077828
Si Si2 0.323815 0.898390 0.346214
Si Si3 0.049458 0.032306 0.609208
O O1 0.778901 0.058836 0.955178
O O2 0.713681 0.136463 0.128114
O O3 0.669100 0.957806 0.091339
O O4 0.860895 0.998929 0.133047
O O5 0.250000 0.906298 0.250000
O O6 0.428961 0.956534 0.325868
O O7 0.000000 0.000000 0.500000
#
# Coordination Sequence:
#
# PCOD9563727 Si02
#       3
#    16  16  16
#     4   9  18  36  65  93 139 165 231 282 343 418
#     4   9  19  37  65  89 132 178 223 276 354 409
#     4   8  17  35  61  92 139 172 214 285 344 409
#
# _framework density 21.101717000000001
#
# number of rings (size 3 to 8) (size 9 to 14) (size 15 to 20)
#    2.000    1.333    0.000    0.000    0.000    1.333 
#    0.000   10.000    7.333    0.000    0.000    9.333 
#    0.000    5.333    0.000    0.000    0.000    0.000 
#
# Total GULP energy -267344.443873 kJ/mol
# GULP energy per Si atom -5569.675914 kJ/mol
# Density = 2.105369 g / cm^3
# Si number density = 21.101717 Si / 1000 Ang^3
#
#
#
# Elastic Constant Matrix: (Units=GPa)
#
#
# Indices 1 2 3 4 5 6 
#
# 1 114.9897 40.2748 54.8522 0.0000 0.0000 0.0000
# 2 40.2748 114.9897 54.8522 0.0000 0.0000 0.0000
# 3 54.8522 54.8522 134.7248 0.0000 0.0000 0.0000
# 4 0.0000 0.0000 0.0000 32.8146 0.0000 0.0000
# 5 0.0000 0.0000 0.0000 0.0000 32.8146 0.0000
# 6 0.0000 0.0000 0.0000 0.0000 0.0000 52.5053
#
#
#
# Elastic Compliance Matrix: (Units=1/GPa)
#
#
# Indices 1 2 3 4 5 6 
#
# 1 0.011213 -0.002171 -0.003681 0.000000 0.000000 0.000000
# 2 -0.002171 0.011213 -0.003681 0.000000 0.000000 0.000000
# 3 -0.003681 -0.003681 0.010420 0.000000 0.000000 0.000000
# 4 0.000000 0.000000 0.000000 0.030474 0.000000 0.000000
# 5 0.000000 0.000000 0.000000 0.000000 0.030474 0.000000
# 6 0.000000 0.000000 0.000000 0.000000 0.000000 0.019046
#
#
# Mechanical properties :
#
#
# Convention : Reuss Voigt Hill
#
# Bulk Modulus (GPa) = 72.57703 73.85139 73.21421
# Shear Modulus (GPa) = 36.62989 37.94189 37.28589
#
# Velocity S-wave (km/s) = 4.17090 4.24494 4.20808
# Velocity P-wave (km/s) = 7.59367 7.68764 7.64080
#
# Compressibility (1/GPa) = 0.01377846
#
# Stress axis : x y z
#
# Youngs Moduli (GPa) = 89.18274 89.18274 95.96820
#
# Poissons Ratio (x) = 0.19364 0.35328
# Poissons Ratio (y) = 0.19364 0.35328
# Poissons Ratio (z) = 0.32830 0.32830
#
# Static dielectric constant tensor:
#      x y z
#    x 1.764910 0.000000 0.000000 
#    y 0.000000 1.764910 0.000000 
#    z 0.000000 0.000000 1.859280 
# 
# From -- ./inp_files/3299.got.cif
#   From: 2010.05.17/outbox.cif.g08.bks.cpg/sg126_2_cif.got.tgz:3299.got - 2010.05.20 11:58:20.
