data_PCOD9563708
_publ_section_title
;
Structure prediction by ZEFSAII (Michael W. Deem and Ramdas Pophale) SiO2 
 PCOD9563708
Probable space group: P 4/N N C
;
_chemical_formula_sum "Si O2"
_cell_formula_units_Z 40
_cell_length_a 9.715063
_cell_length_b 9.715063
_cell_length_c 18.739484
_cell_angle_alpha 90.000000
_cell_angle_beta 90.000000
_cell_angle_gamma 90.000000
_cell_volume 1768.678395
_symmetry_space_group_name_H-M "P 4/N N C"
_symmetry_group_IT_number 126
_space_group.IT_coordinate_system_code '2'
_symmetry_cell_setting 'tetragonal'
loop_
_space_group_symop_operation_xyz
x,y,z
1/2-y,x,z
1/2-x,1/2-y,z
y,1/2-x,z
x,1/2-y,1/2-z
1/2-x,y,1/2-z
y,x,1/2-z
1/2-y,1/2-x,1/2-z
-x,-y,-z
1/2+y,-x,-z
1/2+x,1/2+y,-z
-y,1/2+x,-z
-x,1/2+y,1/2+z
1/2+x,-y,1/2+z
-y,-x,1/2+z
1/2+y,1/2+x,1/2+z
loop_
_atom_site_type_symbol
_atom_site_label
_atom_site_fract_x
_atom_site_fract_y
_atom_site_fract_z
Si Si1 0.917466 0.591433 0.943683
Si Si2 0.250000 0.250000 0.876645
Si Si3 0.495242 0.600065 0.323941
Si Si4 0.750000 0.250000 0.250000
O O1 0.936252 0.754411 0.952415
O O2 0.967779 0.539458 0.866593
O O3 0.000000 0.500000 0.000000
O O4 0.413607 0.205094 0.870214
O O5 0.576479 0.576479 0.250000
O O6 0.350041 0.662383 0.300438
#
# Coordination Sequence:
#
# PCOD9563708 Si02
#       4
#    16   4  16   4
#     4  11  29  50  72 103 143 187 236 295 358 424
#     4  12  25  44  76 108 148 184 237 290 357 416
#     4  12  24  45  72 110 142 187 237 293 353 420
#     4  12  24  38  76 112 144 186 236 300 352 426
#
# _framework density 22.615758
#
# number of rings (size 3 to 8) (size 9 to 14) (size 15 to 20)
#    0.000    0.400    4.000    3.000    5.600    0.800 
#    0.000    2.000    0.000    0.000    0.000    0.000 
#    0.000    0.000    0.000    0.000    0.000    0.000 
#
# Total GULP energy -223056.907433 kJ/mol
# GULP energy per Si atom -5576.422686 kJ/mol
# Density = 2.256428 g / cm^3
# Si number density = 22.615758 Si / 1000 Ang^3
#
#
#
# Elastic Constant Matrix: (Units=GPa)
#
#
# Indices 1 2 3 4 5 6 
#
# 1 125.7020 65.0183 23.0562 0.0000 0.0000 0.0000
# 2 65.0183 125.7020 23.0562 0.0000 0.0000 0.0000
# 3 23.0562 23.0562 66.5854 0.0000 0.0000 0.0000
# 4 0.0000 0.0000 0.0000 22.4765 0.0000 0.0000
# 5 0.0000 0.0000 0.0000 0.0000 22.4765 0.0000
# 6 0.0000 0.0000 0.0000 0.0000 0.0000 48.0048
#
#
#
# Elastic Compliance Matrix: (Units=1/GPa)
#
#
# Indices 1 2 3 4 5 6 
#
# 1 0.011101 -0.005378 -0.001981 0.000000 0.000000 0.000000
# 2 -0.005378 0.011101 -0.001981 0.000000 0.000000 0.000000
# 3 -0.001981 -0.001981 0.016391 0.000000 0.000000 0.000000
# 4 0.000000 0.000000 0.000000 0.044491 0.000000 0.000000
# 5 0.000000 0.000000 0.000000 0.000000 0.044491 0.000000
# 6 0.000000 0.000000 0.000000 0.000000 0.000000 0.020831
#
#
# Mechanical properties :
#
#
# Convention : Reuss Voigt Hill
#
# Bulk Modulus (GPa) = 50.22745 60.02785 55.12765
# Shear Modulus (GPa) = 28.78134 32.38215 30.58175
#
# Velocity S-wave (km/s) = 3.57125 3.78807 3.68126
# Velocity P-wave (km/s) = 6.26597 6.76260 6.51902
#
# Compressibility (1/GPa) = 0.01990943
#
# Stress axis : x y z
#
# Youngs Moduli (GPa) = 90.08500 90.08500 61.01087
#
# Poissons Ratio (x) = 0.48450 0.12089
# Poissons Ratio (y) = 0.48450 0.12089
# Poissons Ratio (z) = 0.17850 0.17850
#
# Static dielectric constant tensor:
#      x y z
#    x 1.820980 0.000000 0.000000 
#    y 0.000000 1.820980 0.000000 
#    z 0.000000 0.000000 1.942120 
# 
# From -- ./inp_files/5569.got.cif
#   From: 2010.05.17/outbox.cif.g08.bks.cpg/sg126_3_cif.got.tgz:5569.got - 2010.05.20 11:58:20.
