data_PCOD9563128
_publ_section_title
;
Structure prediction by ZEFSAII (Michael W. Deem and Ramdas Pophale) SiO2 
 PCOD9563128
Probable space group: P 4/N B M
;
_chemical_formula_sum "Si O2"
_cell_formula_units_Z 72
_cell_length_a 13.740896
_cell_length_b 13.740896
_cell_length_c 18.090253
_cell_angle_alpha 90.000000
_cell_angle_beta 90.000000
_cell_angle_gamma 90.000000
_cell_volume 3415.660881
_symmetry_space_group_name_H-M "P 4/N B M"
_symmetry_group_IT_number 125
_space_group.IT_coordinate_system_code '2'
_symmetry_cell_setting 'tetragonal'
loop_
_space_group_symop_operation_xyz
x,y,z
1/2-y,x,z
1/2-x,1/2-y,z
y,1/2-x,z
x,1/2-y,-z
1/2-x,y,-z
y,x,-z
1/2-y,1/2-x,-z
-x,-y,-z
1/2+y,-x,-z
1/2+x,1/2+y,-z
-y,1/2+x,-z
-x,1/2+y,z
1/2+x,-y,z
-y,-x,z
1/2+y,1/2+x,z
loop_
_atom_site_type_symbol
_atom_site_label
_atom_site_fract_x
_atom_site_fract_y
_atom_site_fract_z
Si Si1 0.957180 0.296871 0.716418
Si Si2 0.638403 0.361598 0.992758
Si Si3 0.350930 0.380181 0.819305
Si Si4 0.019885 0.980116 0.913728
Si Si5 0.832244 0.167757 0.828372
Si Si6 0.745397 0.585907 0.584684
O O1 0.870010 0.370010 0.697342
O O2 0.912338 0.222518 0.777427
O O3 0.047274 0.359979 0.749465
O O4 0.001778 0.244319 0.645246
O O5 0.621473 0.378528 0.903676
O O6 0.613433 0.250000 0.000000
O O7 0.600959 0.399042 0.071891
O O8 0.233068 0.378351 0.823580
O O9 0.420223 0.433082 0.877744
O O10 0.000000 0.000000 0.000000
O O11 0.750000 0.250000 0.848320
O O12 0.840740 0.654602 0.594159
O O13 0.750000 0.550538 0.500000
#
# Coordination Sequence:
#
# PCOD9563128 Si02
#       6
#    16   8  16   8   8  16
#     4  11  22  41  67 100 137 177 225 285 339 410
#     4  11  22  40  69  92 121 171 224 284 335 410
#     4  11  26  48  71  99 139 184 232 290 352 416
#     4  12  29  43  70  99 135 175 233 293 355 415
#     4  10  22  40  64  93 132 176 229 275 339 416
#     4   9  19  41  69  95 130 176 222 266 328 412
#
# _framework density 21.079376
#
# number of rings (size 3 to 8) (size 9 to 14) (size 15 to 20)
#    0.000    1.444    2.222    3.333    6.222    1.778 
#    8.000    2.222    0.000    0.000    0.000    0.000 
#    0.000    0.000    0.000    0.000    0.000    0.000 
#
# Total GULP energy -401036.122469 kJ/mol
# GULP energy per Si atom -5569.946145 kJ/mol
# Density = 2.103140 g / cm^3
# Si number density = 21.079376 Si / 1000 Ang^3
#
#
#
# Elastic Constant Matrix: (Units=GPa)
#
#
# Indices 1 2 3 4 5 6 
#
# 1 80.2227 14.0471 23.0571 0.0000 0.0000 0.0000
# 2 14.0471 80.2227 23.0571 0.0000 0.0000 0.0000
# 3 23.0571 23.0571 114.1434 0.0000 0.0000 0.0000
# 4 0.0000 0.0000 0.0000 39.9063 0.0000 0.0000
# 5 0.0000 0.0000 0.0000 0.0000 39.9063 0.0000
# 6 0.0000 0.0000 0.0000 0.0000 0.0000 18.6135
#
#
#
# Elastic Compliance Matrix: (Units=1/GPa)
#
#
# Indices 1 2 3 4 5 6 
#
# 1 0.013441 -0.001670 -0.002378 0.000000 0.000000 0.000000
# 2 -0.001670 0.013441 -0.002378 0.000000 0.000000 0.000000
# 3 -0.002378 -0.002378 0.009722 0.000000 0.000000 0.000000
# 4 0.000000 0.000000 0.000000 0.025059 0.000000 0.000000
# 5 0.000000 0.000000 0.000000 0.000000 0.025059 0.000000
# 6 0.000000 0.000000 0.000000 0.000000 0.000000 0.053724
#
#
# Mechanical properties :
#
#
# Convention : Reuss Voigt Hill
#
# Bulk Modulus (GPa) = 42.10086 43.87903 42.98995
# Shear Modulus (GPa) = 31.01461 33.98042 32.49751
#
# Velocity S-wave (km/s) = 3.83995 4.01936 3.93067
# Velocity P-wave (km/s) = 6.29890 6.51165 6.40616
#
# Compressibility (1/GPa) = 0.02375249
#
# Stress axis : x y z
#
# Youngs Moduli (GPa) = 74.39847 74.39847 102.86454
#
# Poissons Ratio (x) = 0.12426 0.24459
# Poissons Ratio (y) = 0.12426 0.24459
# Poissons Ratio (z) = 0.17690 0.17690
#
# Static dielectric constant tensor:
#      x y z
#    x 1.876200 0.000000 0.000000 
#    y 0.000000 1.876200 0.000000 
#    z 0.000000 0.000000 1.791840 
# 
# From -- ./inp_files/5378.got.cif
#   From: 2010.05.17/outbox.cif.g08.bks.cpg/sg125_3_cif.got.tgz:5378.got - 2010.05.20 11:54:10.
