data_PCOD9563299
_publ_section_title
;
Structure prediction by ZEFSAII (Michael W. Deem and Ramdas Pophale) SiO2 
 PCOD9563299
Probable space group: P 4/N N C
;
_chemical_formula_sum "Si O2"
_cell_formula_units_Z 120
_cell_length_a 21.667233
_cell_length_b 21.667233
_cell_length_c 14.251241
_cell_angle_alpha 90.000000
_cell_angle_beta 90.000000
_cell_angle_gamma 90.000000
_cell_volume 6690.515660
_symmetry_space_group_name_H-M "P 4/N N C"
_symmetry_group_IT_number 126
_space_group.IT_coordinate_system_code '2'
_symmetry_cell_setting 'tetragonal'
loop_
_space_group_symop_operation_xyz
x,y,z
1/2-y,x,z
1/2-x,1/2-y,z
y,1/2-x,z
x,1/2-y,1/2-z
1/2-x,y,1/2-z
y,x,1/2-z
1/2-y,1/2-x,1/2-z
-x,-y,-z
1/2+y,-x,-z
1/2+x,1/2+y,-z
-y,1/2+x,-z
-x,1/2+y,1/2+z
1/2+x,-y,1/2+z
-y,-x,1/2+z
1/2+y,1/2+x,1/2+z
loop_
_atom_site_type_symbol
_atom_site_label
_atom_site_fract_x
_atom_site_fract_y
_atom_site_fract_z
Si Si1 0.316999 0.852974 0.083880
Si Si2 0.250000 0.387293 0.750000
Si Si3 0.211121 0.011177 0.960262
Si Si4 0.286193 0.941885 0.342902
Si Si5 0.348891 0.252289 0.544016
Si Si6 0.115116 0.728557 0.389514
Si Si7 0.534351 0.868381 0.214563
Si Si8 0.622871 0.394902 0.252175
O O1 0.253721 0.880647 0.127323
O O2 0.332800 0.780902 0.094303
O O3 0.370945 0.882583 0.146175
O O4 0.317565 0.874027 0.976869
O O5 0.245131 0.347963 0.656888
O O6 0.308494 0.432102 0.743237
O O7 0.244580 0.077586 0.973370
O O8 0.150739 0.026969 0.896028
O O9 0.243495 0.954232 0.902624
O O10 0.207751 0.983419 0.064785
O O11 0.250000 0.966501 0.250000
O O12 0.354367 0.924198 0.310905
O O13 0.308791 0.311830 0.511589
O O14 0.121155 0.689990 0.294913
O O15 0.576404 0.923597 0.250000
O O16 0.467297 0.881147 0.254944
#
# Coordination Sequence:
#
# PCOD9563299 Si02
#       8
#    16   8  16  16  16  16  16  16
#     4  10  21  34  52  82 109 145 192 239 284 344
#     4  10  18  31  52  82 119 158 182 212 284 364
#     4  10  20  36  58  79 116 153 190 234 296 362
#     4   9  21  39  59  79 105 156 201 250 292 345
#     4  10  19  31  53  85 117 142 178 231 287 353
#     4  11  20  33  55  79 114 155 188 234 290 344
#     4  11  22  35  56  84 118 154 194 237 293 365
#     4  11  21  35  56  76 112 151 195 240 295 338
#
# _framework density 17.935836999999999
#
# number of rings (size 3 to 8) (size 9 to 14) (size 15 to 20)
#    0.000    1.733    1.333    5.600    0.000    2.400 
#    0.000    4.000    8.800    0.000    0.000    0.933 
#    0.000    0.000    0.000    0.000    0.000    0.000 
#
# Total GULP energy -668344.172391 kJ/mol
# GULP energy per Si atom -5569.534770 kJ/mol
# Density = 1.789501 g / cm^3
# Si number density = 17.935837 Si / 1000 Ang^3
#
#
#
# Elastic Constant Matrix: (Units=GPa)
#
#
# Indices 1 2 3 4 5 6 
#
# 1 81.3723 67.2598 30.2947 0.0000 0.0000 0.0000
# 2 67.2598 81.3657 30.2928 0.0000 0.0000 0.0000
# 3 30.2947 30.2928 73.5684 0.0000 0.0000 0.0000
# 4 0.0000 0.0000 0.0000 12.0426 0.0000 0.0000
# 5 0.0000 0.0000 0.0000 0.0000 12.0467 0.0000
# 6 0.0000 0.0000 0.0000 0.0000 0.0000 20.0771
#
#
#
# Elastic Compliance Matrix: (Units=1/GPa)
#
#
# Indices 1 2 3 4 5 6 
#
# 1 0.039479 -0.031395 -0.003330 0.000000 0.000000 0.000000
# 2 -0.031395 0.039482 -0.003329 0.000000 0.000000 0.000000
# 3 -0.003330 -0.003329 0.016335 0.000000 0.000000 0.000000
# 4 0.000000 0.000000 0.000000 0.083038 0.000000 0.000000
# 5 0.000000 0.000000 0.000000 0.000000 0.083010 0.000000
# 6 0.000000 0.000000 0.000000 0.000000 0.000000 0.049808
#
#
# Mechanical properties :
#
#
# Convention : Reuss Voigt Hill
#
# Bulk Modulus (GPa) = 52.11599 54.66679 53.39139
# Shear Modulus (GPa) = 12.70143 16.06390 14.38266
#
# Velocity S-wave (km/s) = 2.66401 2.99596 2.83485
# Velocity P-wave (km/s) = 6.21149 6.52019 6.36771
#
# Compressibility (1/GPa) = 0.01918797
#
# Stress axis : x y z
#
# Youngs Moduli (GPa) = 25.32975 25.32791 61.21930
#
# Poissons Ratio (x) = 0.79518 0.20384
# Poissons Ratio (y) = 0.79524 0.20380
# Poissons Ratio (z) = 0.08434 0.08432
#
# Static dielectric constant tensor:
#      x y z
#    x 1.633440 0.000000 0.000000 
#    y 0.000000 1.633440 0.000000 
#    z 0.000000 0.000000 1.633590 
# 
# From -- ./inp_files/3942.got.cif
#   From: 2010.05.17/outbox.cif.g08.bks.cpg/sg126_2_cif.got.tgz:3942.got - 2010.05.20 11:58:20.
