data_PCOD9563579
_publ_section_title
;
Structure prediction by ZEFSAII (Michael W. Deem and Ramdas Pophale) SiO2 
 PCOD9563579
Probable space group: P 4/N N C
;
_chemical_formula_sum "Si O2"
_cell_formula_units_Z 112
_cell_length_a 15.969593
_cell_length_b 15.969593
_cell_length_c 24.566673
_cell_angle_alpha 90.000000
_cell_angle_beta 90.000000
_cell_angle_gamma 90.000000
_cell_volume 6265.187040
_symmetry_space_group_name_H-M "P 4/N N C"
_symmetry_group_IT_number 126
_space_group.IT_coordinate_system_code '2'
_symmetry_cell_setting 'tetragonal'
loop_
_space_group_symop_operation_xyz
x,y,z
1/2-y,x,z
1/2-x,1/2-y,z
y,1/2-x,z
x,1/2-y,1/2-z
1/2-x,y,1/2-z
y,x,1/2-z
1/2-y,1/2-x,1/2-z
-x,-y,-z
1/2+y,-x,-z
1/2+x,1/2+y,-z
-y,1/2+x,-z
-x,1/2+y,1/2+z
1/2+x,-y,1/2+z
-y,-x,1/2+z
1/2+y,1/2+x,1/2+z
loop_
_atom_site_type_symbol
_atom_site_label
_atom_site_fract_x
_atom_site_fract_y
_atom_site_fract_z
Si Si1 0.565141 0.915913 0.314241
Si Si2 0.482223 0.836018 0.728959
Si Si3 0.165956 0.706443 0.191092
Si Si4 0.117459 0.297764 0.088947
Si Si5 0.487311 0.265112 0.643155
Si Si6 0.920326 0.525167 0.665320
Si Si7 0.388250 0.273825 0.537297
O O1 0.560406 0.939595 0.250000
O O2 0.540613 0.821715 0.329167
O O3 0.660088 0.935754 0.329268
O O4 0.503971 0.975034 0.350595
O O5 0.521635 0.750000 0.750000
O O6 0.392697 0.821631 0.701087
O O7 0.469064 0.885566 0.785187
O O8 0.544158 0.889218 0.691711
O O9 0.250000 0.750000 0.169396
O O10 0.150792 0.750000 0.250000
O O11 0.084837 0.721148 0.154889
O O12 0.147286 0.202108 0.098912
O O13 0.047549 0.345749 0.124221
O O14 0.090381 0.291299 0.025696
O O15 0.463290 0.272919 0.579801
O O16 0.315462 0.342475 0.546760
#
# Coordination Sequence:
#
# PCOD9563579 Si02
#       7
#    16  16  16  16  16  16  16
#     4  12  23  37  55  87 128 159 195 246 301 369
#     4  11  20  34  55  80 120 152 196 237 295 361
#     4  11  21  36  55  80 116 163 210 235 280 366
#     4   9  19  38  64  87 112 146 201 253 304 364
#     4  12  22  37  59  86 119 158 200 247 305 358
#     4  11  21  36  55  87 121 155 188 252 304 354
#     4   9  18  37  62  88 113 149 193 249 308 362
#
# _framework density 17.876560000000001
#
# number of rings (size 3 to 8) (size 9 to 14) (size 15 to 20)
#    0.000    1.286    5.714    3.857    0.000    0.286 
#    0.000    1.429    0.000    3.429    0.000    1.000 
#    0.000    0.000    0.000    0.000    0.000    0.000 
#
# Total GULP energy -624159.008174 kJ/mol
# GULP energy per Si atom -5572.848287 kJ/mol
# Density = 1.783587 g / cm^3
# Si number density = 17.876560 Si / 1000 Ang^3
#
#
#
# Elastic Constant Matrix: (Units=GPa)
#
#
# Indices 1 2 3 4 5 6 
#
# 1 100.2231 22.4691 32.8499 0.0000 0.0000 0.0000
# 2 22.4691 100.2231 32.8499 0.0000 0.0000 0.0000
# 3 32.8499 32.8499 74.3639 0.0000 0.0000 0.0000
# 4 0.0000 0.0000 0.0000 25.2792 0.0000 0.0000
# 5 0.0000 0.0000 0.0000 0.0000 25.2792 0.0000
# 6 0.0000 0.0000 0.0000 0.0000 0.0000 21.5606
#
#
#
# Elastic Compliance Matrix: (Units=1/GPa)
#
#
# Indices 1 2 3 4 5 6 
#
# 1 0.011768 -0.001093 -0.004716 0.000000 0.000000 0.000000
# 2 -0.001093 0.011768 -0.004716 0.000000 0.000000 0.000000
# 3 -0.004716 -0.004716 0.017614 0.000000 0.000000 0.000000
# 4 0.000000 0.000000 0.000000 0.039558 0.000000 0.000000
# 5 0.000000 0.000000 0.000000 0.000000 0.039558 0.000000
# 6 0.000000 0.000000 0.000000 0.000000 0.000000 0.046381
#
#
# Mechanical properties :
#
#
# Convention : Reuss Voigt Hill
#
# Bulk Modulus (GPa) = 49.74731 50.12755 49.93743
# Shear Modulus (GPa) = 25.72045 26.86655 26.29350
#
# Velocity S-wave (km/s) = 3.79724 3.88092 3.83931
# Velocity P-wave (km/s) = 6.86397 6.94146 6.90282
#
# Compressibility (1/GPa) = 0.02010159
#
# Stress axis : x y z
#
# Youngs Moduli (GPa) = 84.97299 84.97303 56.77332
#
# Poissons Ratio (x) = 0.09284 0.26774
# Poissons Ratio (y) = 0.09284 0.26774
# Poissons Ratio (z) = 0.40073 0.40073
#
# Static dielectric constant tensor:
#      x y z
#    x 1.646370 0.000000 0.000000 
#    y 0.000000 1.646370 0.000000 
#    z 0.000000 0.000000 1.655830 
# 
# From -- ./inp_files/5856.got.cif
#   From: 2010.05.17/outbox.cif.g08.bks.cpg/sg126_3_cif.got.tgz:5856.got - 2010.05.20 11:58:20.
