data_PCOD9563161
_publ_section_title
;
Structure prediction by ZEFSAII (Michael W. Deem and Ramdas Pophale) SiO2 
 PCOD9563161
Probable space group: P 4/N B M
;
_chemical_formula_sum "Si O2"
_cell_formula_units_Z 42
_cell_length_a 15.298310
_cell_length_b 15.298310
_cell_length_c 8.865731
_cell_angle_alpha 90.000000
_cell_angle_beta 90.000000
_cell_angle_gamma 90.000000
_cell_volume 2074.920513
_symmetry_space_group_name_H-M "P 4/N B M"
_symmetry_group_IT_number 125
_space_group.IT_coordinate_system_code '2'
_symmetry_cell_setting 'tetragonal'
loop_
_space_group_symop_operation_xyz
x,y,z
1/2-y,x,z
1/2-x,1/2-y,z
y,1/2-x,z
x,1/2-y,-z
1/2-x,y,-z
y,x,-z
1/2-y,1/2-x,-z
-x,-y,-z
1/2+y,-x,-z
1/2+x,1/2+y,-z
-y,1/2+x,-z
-x,1/2+y,z
1/2+x,-y,z
-y,-x,z
1/2+y,1/2+x,z
loop_
_atom_site_type_symbol
_atom_site_label
_atom_site_fract_x
_atom_site_fract_y
_atom_site_fract_z
Si Si1 0.727325 0.519228 0.831544
Si Si2 0.679472 0.179472 0.210254
Si Si3 0.555281 0.591220 0.675857
Si Si4 0.750000 0.250000 0.500000
O O1 0.704056 0.416895 0.837714
O O2 0.641729 0.566166 0.768304
O O3 0.810685 0.530299 0.722548
O O4 0.750000 0.549931 0.000000
O O5 0.750000 0.250000 0.157164
O O6 0.690240 0.190240 0.392332
O O7 0.578228 0.578228 0.500000
O O8 0.475823 0.524178 0.711730
#
# Coordination Sequence:
#
# PCOD9563161 Si02
#       4
#    16   8  16   2
#     4  12  26  43  69 102 144 180 233 287 359 417
#     4  10  24  37  67  99 139 177 232 290 349 410
#     4  11  26  45  73 101 140 189 240 288 343 418
#     4   8  24  36  62  96 144 168 242 280 344 408
#
# _framework density 20.241738999999999
#
# number of rings (size 3 to 8) (size 9 to 14) (size 15 to 20)
#    0.571    0.381    1.905    3.429   10.667    2.286 
#    0.000    3.810    0.000    0.000    0.000    0.000 
#    0.000    0.000    0.000    0.000    0.000    0.000 
#
# Total GULP energy -234859.155193 kJ/mol
# GULP energy per Si atom -5591.884647 kJ/mol
# Density = 2.019567 g / cm^3
# Si number density = 20.241739 Si / 1000 Ang^3
#
#
#
# Elastic Constant Matrix: (Units=GPa)
#
#
# Indices 1 2 3 4 5 6 
#
# 1 85.8128 73.8159 -0.6869 0.0000 0.0000 0.0000
# 2 73.8159 85.8128 -0.6869 0.0000 0.0000 0.0000
# 3 -0.6869 -0.6869 72.9458 0.0000 0.0000 0.0000
# 4 0.0000 0.0000 0.0000 -125.5807 0.0000 0.0000
# 5 0.0000 0.0000 0.0000 0.0000 -125.5807 0.0000
# 6 0.0000 0.0000 0.0000 0.0000 0.0000 38.9472
#
#
#
# Elastic Compliance Matrix: (Units=1/GPa)
#
#
# Indices 1 2 3 4 5 6 
#
# 1 0.044810 -0.038545 0.000059 0.000000 0.000000 0.000000
# 2 -0.038545 0.044810 0.000059 0.000000 0.000000 0.000000
# 3 0.000059 0.000059 0.013710 0.000000 0.000000 0.000000
# 4 0.000000 0.000000 0.000000 -0.007963 0.000000 0.000000
# 5 0.000000 0.000000 0.000000 0.000000 -0.007963 0.000000
# 6 0.000000 0.000000 0.000000 0.000000 0.000000 0.025676
#
#
# Mechanical properties :
#
#
# Convention : Reuss Voigt Hill
#
# Bulk Modulus (GPa) = 37.77005 43.27283 40.52144
# Shear Modulus (GPa) = 25.15604 -30.96755 -2.90576
#
# Velocity S-wave (km/s) = 3.52913 -3.91562 -1.19943
# Velocity P-wave (km/s) = 5.94192 0.99079 4.25958
#
# Compressibility (1/GPa) = 0.02647600
#
# Stress axis : x y z
#
# Youngs Moduli (GPa) = 22.31638 22.31638 72.93990
#
# Poissons Ratio (x) = 0.86019 -0.00430
# Poissons Ratio (y) = 0.86019 -0.00430
# Poissons Ratio (z) = -0.00132 -0.00132
#
# Static dielectric constant tensor:
#      x y z
#    x 1.550710 0.000000 0.000000 
#    y 0.000000 1.550710 0.000000 
#    z 0.000000 0.000000 1.765080 
# 
# From -- ./inp_files/1705.got.cif
#   From: 2010.05.17/outbox.cif.g08.bks.cpg/sg125_1_cif.got.tgz:1705.got - 2010.05.20 11:54:10.
