data_PCOD9563327
_publ_section_title
;
Structure prediction by ZEFSAII (Michael W. Deem and Ramdas Pophale) SiO2 
 PCOD9563327
Probable space group: P 4/N N C
;
_chemical_formula_sum "Si O2"
_cell_formula_units_Z 88
_cell_length_a 29.534496
_cell_length_b 29.534496
_cell_length_c 5.381427
_cell_angle_alpha 90.000000
_cell_angle_beta 90.000000
_cell_angle_gamma 90.000000
_cell_volume 4694.145875
_symmetry_space_group_name_H-M "P 4/N N C"
_symmetry_group_IT_number 126
_space_group.IT_coordinate_system_code '2'
_symmetry_cell_setting 'tetragonal'
loop_
_space_group_symop_operation_xyz
x,y,z
1/2-y,x,z
1/2-x,1/2-y,z
y,1/2-x,z
x,1/2-y,1/2-z
1/2-x,y,1/2-z
y,x,1/2-z
1/2-y,1/2-x,1/2-z
-x,-y,-z
1/2+y,-x,-z
1/2+x,1/2+y,-z
-y,1/2+x,-z
-x,1/2+y,1/2+z
1/2+x,-y,1/2+z
-y,-x,1/2+z
1/2+y,1/2+x,1/2+z
loop_
_atom_site_type_symbol
_atom_site_label
_atom_site_fract_x
_atom_site_fract_y
_atom_site_fract_z
Si Si1 0.912027 0.250000 0.250000
Si Si2 0.695383 0.930193 0.257392
Si Si3 0.620973 0.098425 0.343595
Si Si4 0.804708 0.622257 0.752191
Si Si5 0.667517 0.196304 0.439250
Si Si6 0.299852 0.966313 0.631191
O O1 0.875300 0.269875 0.445587
O O2 0.944687 0.211253 0.359445
O O3 0.750000 0.928745 0.250000
O O4 0.680831 0.901343 0.495153
O O5 0.684925 0.982329 0.323204
O O6 0.681740 0.908334 0.992691
O O7 0.601675 0.086386 0.615499
O O8 0.644587 0.146587 0.406641
O O9 0.660861 0.064964 0.264428
O O10 0.750000 0.626418 0.750000
O O11 0.829683 0.670318 0.750000
O O12 0.698399 0.195287 0.681878
O O13 0.250000 0.962506 0.750000
#
# Coordination Sequence:
#
# PCOD9563327 Si02
#       6
#     8  16  16  16  16  16
#     4  12  22  30  58  71  98 146 171 224 290 358
#     4   9  21  34  52  82 117 143 178 229 271 319
#     4  10  19  34  46  68 100 132 168 227 268 330
#     4  10  20  38  58  83 118 157 188 221 251 286
#     4  10  20  35  45  69  92 127 174 222 274 329
#     4  11  22  31  53  78 107 140 177 216 292 353
#
# _framework density 18.746753999999999
#
# number of rings (size 3 to 8) (size 9 to 14) (size 15 to 20)
#    0.000    1.818    3.636    2.727    6.364    0.182 
#    0.000    0.000    0.000    4.909    0.000    0.000 
#    0.000   14.545    0.000    0.000    0.000    0.000 
#
# Total GULP energy -490033.312695 kJ/mol
# GULP energy per Si atom -5568.560372 kJ/mol
# Density = 1.870409 g / cm^3
# Si number density = 18.746754 Si / 1000 Ang^3
#
#
#
# Elastic Constant Matrix: (Units=GPa)
#
#
# Indices 1 2 3 4 5 6 
#
# 1 64.6208 35.1408 26.2608 0.0000 0.0000 0.0000
# 2 35.1408 64.6100 26.2603 0.0000 0.0000 0.0000
# 3 26.2608 26.2603 146.1879 0.0000 0.0000 0.0000
# 4 0.0000 0.0000 0.0000 16.7668 0.0000 0.0000
# 5 0.0000 0.0000 0.0000 0.0000 16.7688 0.0000
# 6 0.0000 0.0000 0.0000 0.0000 0.0000 11.0140
#
#
#
# Elastic Compliance Matrix: (Units=1/GPa)
#
#
# Indices 1 2 3 4 5 6 
#
# 1 0.022498 -0.011428 -0.001989 0.000000 0.000000 0.000000
# 2 -0.011428 0.022502 -0.001989 0.000000 0.000000 0.000000
# 3 -0.001989 -0.001989 0.007555 0.000000 0.000000 0.000000
# 4 0.000000 0.000000 0.000000 0.059642 0.000000 0.000000
# 5 0.000000 0.000000 0.000000 0.000000 0.059634 0.000000
# 6 0.000000 0.000000 0.000000 0.000000 0.000000 0.090794
#
#
# Mechanical properties :
#
#
# Convention : Reuss Voigt Hill
#
# Bulk Modulus (GPa) = 45.99231 50.08251 48.03741
# Shear Modulus (GPa) = 16.62881 21.42705 19.02793
#
# Velocity S-wave (km/s) = 2.98152 3.38446 3.18936
# Velocity P-wave (km/s) = 6.03650 6.48429 6.26440
#
# Compressibility (1/GPa) = 0.02174277
#
# Stress axis : x y z
#
# Youngs Moduli (GPa) = 44.44928 44.44140 132.36193
#
# Poissons Ratio (x) = 0.50788 0.26321
# Poissons Ratio (y) = 0.50797 0.26329
# Poissons Ratio (z) = 0.08839 0.08840
#
# Static dielectric constant tensor:
#      x y z
#    x 1.651580 0.000000 0.000000 
#    y 0.000000 1.651580 0.000000 
#    z 0.000000 0.000000 1.875720 
# 
# From -- ./inp_files/653.got.cif
#   From: 2010.05.17/outbox.cif.g08.bks.cpg/sg126_1_cif.got.tgz:653.got - 2010.05.20 11:58:20.
