data_PCOD9563871
_publ_section_title
;
Structure prediction by ZEFSAII (Michael W. Deem and Ramdas Pophale) SiO2 
 PCOD9563871
Probable space group: P 4/M B M
;
_chemical_formula_sum "Si O2"
_cell_formula_units_Z 112
_cell_length_a 14.046531
_cell_length_b 14.046531
_cell_length_c 30.898066
_cell_angle_alpha 90.000000
_cell_angle_beta 90.000000
_cell_angle_gamma 90.000000
_cell_volume 6096.343936
_symmetry_space_group_name_H-M "P 4/M B M"
_symmetry_group_IT_number 127
_symmetry_cell_setting 'tetragonal'
loop_
_space_group_symop_operation_xyz
x,y,z
-y,x,z
-x,-y,z
y,-x,z
1/2+x,1/2-y,-z
1/2-x,1/2+y,-z
1/2+y,1/2+x,-z
1/2-y,1/2-x,-z
-x,-y,-z
y,-x,-z
x,y,-z
-y,x,-z
1/2-x,1/2+y,z
1/2+x,1/2-y,z
1/2-y,1/2-x,z
1/2+y,1/2+x,z
loop_
_atom_site_type_symbol
_atom_site_label
_atom_site_fract_x
_atom_site_fract_y
_atom_site_fract_z
Si Si1 0.504170 0.153538 0.836915
Si Si2 0.912028 0.254619 0.363810
Si Si3 0.784559 0.127025 0.779896
Si Si4 0.860351 0.200840 0.864371
Si Si5 0.104159 0.121794 0.046467
Si Si6 0.228633 0.888936 0.683531
Si Si7 0.042574 0.844910 0.450671
O O1 0.421408 0.078593 0.824888
O O2 0.548829 0.208813 0.796468
O O3 0.454541 0.233720 0.866025
O O4 0.590395 0.090395 0.856374
O O5 0.850821 0.350821 0.359235
O O6 0.845667 0.169398 0.345682
O O7 0.935412 0.230492 0.413596
O O8 0.009600 0.253405 0.336866
O O9 0.726501 0.226501 0.775911
O O10 0.858105 0.140715 0.819659
O O11 0.815626 0.101750 0.731756
O O12 0.773190 0.273190 0.860783
O O13 0.843131 0.143673 0.908098
O O14 0.990425 0.128439 0.046427
O O15 0.139039 0.161931 0.000000
O O16 0.323491 0.823491 0.686709
O O17 0.052479 0.809626 0.500000
O O18 0.936114 0.887572 0.445726
#
# Coordination Sequence:
#
# PCOD9563871 Si02
#       7
#    16  16  16  16  16  16  16
#     4   9  18  32  51  73  99 136 175 210 259 320
#     4  11  22  37  61  84 114 159 193 235 295 345
#     4   9  19  34  50  73 106 138 174 222 264 311
#     4  10  19  31  52  77 103 132 167 216 263 313
#     4   9  18  33  51  70  96 130 167 210 260 315
#     4  10  23  39  55  83 117 149 193 239 284 345
#     4   9  17  33  59  87 115 149 193 244 292 343
#
# _framework density 18.371666999999999
#
# number of rings (size 3 to 8) (size 9 to 14) (size 15 to 20)
#    0.000    2.429    1.429    1.714    2.000    1.714 
#    0.000    1.429    0.000    1.714    0.000    3.000 
#    0.000    0.000    0.000    0.000    0.000    0.000 
#
# Total GULP energy -623878.654876 kJ/mol
# GULP energy per Si atom -5570.345133 kJ/mol
# Density = 1.832985 g / cm^3
# Si number density = 18.371667 Si / 1000 Ang^3
#
#
#
# Elastic Constant Matrix: (Units=GPa)
#
#
# Indices 1 2 3 4 5 6 
#
# 1 61.3958 24.9603 39.9535 0.0000 0.0000 0.0000
# 2 24.9603 61.3958 39.9535 0.0000 0.0000 0.0000
# 3 39.9535 39.9535 148.2144 0.0000 0.0000 0.0000
# 4 0.0000 0.0000 0.0000 25.9403 0.0000 0.0000
# 5 0.0000 0.0000 0.0000 0.0000 25.9403 0.0000
# 6 0.0000 0.0000 0.0000 0.0000 0.0000 15.2174
#
#
#
# Elastic Compliance Matrix: (Units=1/GPa)
#
#
# Indices 1 2 3 4 5 6 
#
# 1 0.021437 -0.006009 -0.004159 0.000000 0.000000 0.000000
# 2 -0.006009 0.021437 -0.004159 0.000000 0.000000 0.000000
# 3 -0.004159 -0.004159 0.008989 0.000000 0.000000 0.000000
# 4 0.000000 0.000000 0.000000 0.038550 0.000000 0.000000
# 5 0.000000 0.000000 0.000000 0.000000 0.038550 0.000000
# 6 0.000000 0.000000 0.000000 0.000000 0.000000 0.065714
#
#
# Mechanical properties :
#
#
# Convention : Reuss Voigt Hill
#
# Bulk Modulus (GPa) = 43.08481 53.41565 48.25023
# Shear Modulus (GPa) = 21.63870 24.49552 23.06711
#
# Velocity S-wave (km/s) = 3.43568 3.65544 3.54726
# Velocity P-wave (km/s) = 6.26428 6.85233 6.56489
#
# Compressibility (1/GPa) = 0.02321003
#
# Stress axis : x y z
#
# Youngs Moduli (GPa) = 46.64828 46.64828 111.24459
#
# Poissons Ratio (x) = 0.28030 0.46266
# Poissons Ratio (y) = 0.28030 0.46266
# Poissons Ratio (z) = 0.19401 0.19401
#
# Static dielectric constant tensor:
#      x y z
#    x 1.646010 0.000000 0.000000 
#    y 0.000000 1.646010 0.000000 
#    z 0.000000 0.000000 1.655390 
# 
# From -- ./inp_files/6399.got.cif
#   From: 2010.05.17/outbox.cif.g08.bks.cpg/sg127_4_cif.got.tgz:6399.got - 2010.05.20 12:03:00.
