data_PCOD9563918
_publ_section_title
;
Structure prediction by ZEFSAII (Michael W. Deem and Ramdas Pophale) SiO2 
 PCOD9563918
Probable space group: P 4/M B M
;
_chemical_formula_sum "Si O2"
_cell_formula_units_Z 104
_cell_length_a 19.204391
_cell_length_b 19.204391
_cell_length_c 15.613736
_cell_angle_alpha 90.000000
_cell_angle_beta 90.000000
_cell_angle_gamma 90.000000
_cell_volume 5758.480641
_symmetry_space_group_name_H-M "P 4/M B M"
_symmetry_group_IT_number 127
_symmetry_cell_setting 'tetragonal'
loop_
_space_group_symop_operation_xyz
x,y,z
-y,x,z
-x,-y,z
y,-x,z
1/2+x,1/2-y,-z
1/2-x,1/2+y,-z
1/2+y,1/2+x,-z
1/2-y,1/2-x,-z
-x,-y,-z
y,-x,-z
x,y,-z
-y,x,-z
1/2-x,1/2+y,z
1/2+x,1/2-y,z
1/2-y,1/2-x,z
1/2+y,1/2+x,z
loop_
_atom_site_type_symbol
_atom_site_label
_atom_site_fract_x
_atom_site_fract_y
_atom_site_fract_z
Si Si1 0.134973 0.747001 0.597641
Si Si2 0.389243 0.534119 0.181114
Si Si3 0.935960 0.325753 0.158846
Si Si4 0.839681 0.775374 0.269787
Si Si5 0.615754 0.004356 0.000000
Si Si6 0.269053 0.503358 0.695190
Si Si7 0.142349 0.805069 0.902877
O O1 0.150044 0.768532 0.500000
O O2 0.170750 0.670750 0.609471
O O3 0.174594 0.795893 0.666219
O O4 0.052243 0.751815 0.614410
O O5 0.417150 0.456385 0.177080
O O6 0.341859 0.532640 0.265889
O O7 0.342154 0.566772 0.106901
O O8 0.896441 0.396441 0.183155
O O9 0.973230 0.289104 0.236936
O O10 0.877861 0.273407 0.121352
O O11 0.990785 0.340300 0.084325
O O12 0.798076 0.701925 0.269036
O O13 0.834404 0.808703 0.173663
O O14 0.919430 0.771402 0.303162
O O15 0.556588 0.943413 0.000000
O O16 0.576996 0.076996 0.000000
O O17 0.168705 0.811614 0.000000
#
# Coordination Sequence:
#
# PCOD9563918 Si02
#       7
#    16  16  16  16   8  16  16
#     4  10  21  39  66  93 116 151 199 247 298 364
#     4  10  19  34  53  77 112 153 194 241 292 344
#     4  10  19  33  56  77 104 151 200 245 292 343
#     4  11  23  40  59  87 124 158 195 247 303 357
#     4   9  18  32  50  76 108 143 192 248 295 338
#     4  11  20  37  58  84 118 153 194 243 297 362
#     4  11  21  34  56  83 112 154 208 249 288 346
#
# _framework density 18.060320000000001
#
# number of rings (size 3 to 8) (size 9 to 14) (size 15 to 20)
#    0.000    1.615    5.385    0.923    0.000    2.769 
#    1.385    0.769    0.000    1.385    0.000    4.308 
#    0.000    0.000    0.000    0.000    0.000    0.000 
#
# Total GULP energy -579135.282282 kJ/mol
# GULP energy per Si atom -5568.608483 kJ/mol
# Density = 1.801921 g / cm^3
# Si number density = 18.060320 Si / 1000 Ang^3
#
#
#
# Elastic Constant Matrix: (Units=GPa)
#
#
# Indices 1 2 3 4 5 6 
#
# 1 82.0947 37.8470 24.3328 0.0000 0.0000 0.0000
# 2 37.8470 82.0937 24.3331 0.0000 0.0000 0.0000
# 3 24.3328 24.3331 89.8413 0.0000 0.0000 0.0000
# 4 0.0000 0.0000 0.0000 11.9157 0.0000 0.0000
# 5 0.0000 0.0000 0.0000 0.0000 11.9147 0.0000
# 6 0.0000 0.0000 0.0000 0.0000 0.0000 25.8175
#
#
#
# Elastic Compliance Matrix: (Units=1/GPa)
#
#
# Indices 1 2 3 4 5 6 
#
# 1 0.015983 -0.006617 -0.002537 0.000000 0.000000 0.000000
# 2 -0.006617 0.015984 -0.002537 0.000000 0.000000 0.000000
# 3 -0.002537 -0.002537 0.012505 0.000000 0.000000 0.000000
# 4 0.000000 0.000000 0.000000 0.083923 0.000000 0.000000
# 5 0.000000 0.000000 0.000000 0.000000 0.083930 0.000000
# 6 0.000000 0.000000 0.000000 0.000000 0.000000 0.038733
#
#
# Mechanical properties :
#
#
# Convention : Reuss Voigt Hill
#
# Bulk Modulus (GPa) = 47.41407 47.45060 47.43234
# Shear Modulus (GPa) = 17.76392 21.09738 19.43065
#
# Velocity S-wave (km/s) = 3.13962 3.42155 3.28361
# Velocity P-wave (km/s) = 6.28117 6.47609 6.37938
#
# Compressibility (1/GPa) = 0.02109079
#
# Stress axis : x y z
#
# Youngs Moduli (GPa) = 62.56492 62.56392 79.96828
#
# Poissons Ratio (x) = 0.41397 0.20287
# Poissons Ratio (y) = 0.41398 0.20288
# Poissons Ratio (z) = 0.15872 0.15872
#
# Static dielectric constant tensor:
#      x y z
#    x 1.648510 0.000000 0.000000 
#    y 0.000000 1.648510 0.000000 
#    z 0.000000 0.000000 1.616450 
# 
# From -- ./inp_files/4583.got.cif
#   From: 2010.05.17/outbox.cif.g08.bks.cpg/sg127_3_cif.got.tgz:4583.got - 2010.05.20 12:03:00.
