data_PCOD9563214
_publ_section_title
;
Structure prediction by ZEFSAII (Michael W. Deem and Ramdas Pophale) SiO2 
 PCOD9563214
Probable space group: P 4/N B M
;
_chemical_formula_sum "Si O2"
_cell_formula_units_Z 80
_cell_length_a 13.609449
_cell_length_b 13.609449
_cell_length_c 24.093136
_cell_angle_alpha 90.000000
_cell_angle_beta 90.000000
_cell_angle_gamma 90.000000
_cell_volume 4462.460830
_symmetry_space_group_name_H-M "P 4/N B M"
_symmetry_group_IT_number 125
_space_group.IT_coordinate_system_code '2'
_symmetry_cell_setting 'tetragonal'
loop_
_space_group_symop_operation_xyz
x,y,z
1/2-y,x,z
1/2-x,1/2-y,z
y,1/2-x,z
x,1/2-y,-z
1/2-x,y,-z
y,x,-z
1/2-y,1/2-x,-z
-x,-y,-z
1/2+y,-x,-z
1/2+x,1/2+y,-z
-y,1/2+x,-z
-x,1/2+y,z
1/2+x,-y,z
-y,-x,z
1/2+y,1/2+x,z
loop_
_atom_site_type_symbol
_atom_site_label
_atom_site_fract_x
_atom_site_fract_y
_atom_site_fract_z
Si Si1 0.125205 0.139800 0.060528
Si Si2 0.735352 0.584452 0.653509
Si Si3 0.913032 0.247790 0.434291
Si Si4 0.663050 0.998552 0.232427
Si Si5 0.360864 0.483196 0.826828
O O1 0.241411 0.117935 0.063093
O O2 0.063517 0.109664 0.113918
O O3 0.097520 0.097520 0.000000
O O4 0.835711 0.647393 0.652323
O O5 0.738054 0.508818 0.602645
O O6 0.716774 0.521944 0.709441
O O7 0.935455 0.250000 0.500000
O O8 0.853085 0.146916 0.422279
O O9 0.835939 0.335939 0.423576
O O10 0.596630 0.096630 0.232856
O O11 0.746420 0.995273 0.185247
O O12 0.589764 0.908971 0.218220
O O13 0.412781 0.587220 0.821310
#
# Coordination Sequence:
#
# PCOD9563214 Si02
#       5
#    16  16  16  16  16
#     4   9  17  31  55  84 112 146 192 241 290 337
#     4  11  23  38  60  88 118 154 197 246 296 344
#     4   9  20  40  63  86 117 158 197 238 294 353
#     4  11  23  39  59  85 117 153 195 238 289 353
#     4  11  22  36  59  85 113 155 194 237 293 345
#
# _framework density 17.927326999999998
#
# number of rings (size 3 to 8) (size 9 to 14) (size 15 to 20)
#    0.000    1.800    4.000    1.800    0.000    4.400 
#    0.000    3.000    0.000    0.000    0.000    0.000 
#    0.000    0.000    0.000    0.000    0.000    0.000 
#
# Total GULP energy -445901.451447 kJ/mol
# GULP energy per Si atom -5573.768143 kJ/mol
# Density = 1.788652 g / cm^3
# Si number density = 17.927327 Si / 1000 Ang^3
#
#
#
# Elastic Constant Matrix: (Units=GPa)
#
#
# Indices 1 2 3 4 5 6 
#
# 1 89.8937 41.3394 46.1508 0.0000 0.0000 0.0000
# 2 41.3394 89.8937 46.1508 0.0000 0.0000 0.0000
# 3 46.1508 46.1508 101.2093 0.0000 0.0000 0.0000
# 4 0.0000 0.0000 0.0000 18.0646 0.0000 0.0000
# 5 0.0000 0.0000 0.0000 0.0000 18.0646 0.0000
# 6 0.0000 0.0000 0.0000 0.0000 0.0000 7.4457
#
#
#
# Elastic Compliance Matrix: (Units=1/GPa)
#
#
# Indices 1 2 3 4 5 6 
#
# 1 0.015907 -0.004689 -0.005115 0.000000 0.000000 0.000000
# 2 -0.004689 0.015907 -0.005115 0.000000 0.000000 0.000000
# 3 -0.005115 -0.005115 0.014546 0.000000 0.000000 0.000000
# 4 0.000000 0.000000 0.000000 0.055357 0.000000 0.000000
# 5 0.000000 0.000000 0.000000 0.000000 0.055357 0.000000
# 6 0.000000 0.000000 0.000000 0.000000 0.000000 0.134306
#
#
# Mechanical properties :
#
#
# Convention : Reuss Voigt Hill
#
# Bulk Modulus (GPa) = 60.53210 60.91986 60.72598
# Shear Modulus (GPa) = 15.30342 18.53869 16.92105
#
# Velocity S-wave (km/s) = 2.92488 3.21923 3.07558
# Velocity P-wave (km/s) = 6.72645 6.91905 6.82343
#
# Compressibility (1/GPa) = 0.01652016
#
# Stress axis : x y z
#
# Youngs Moduli (GPa) = 62.86679 62.86679 68.74951
#
# Poissons Ratio (x) = 0.29477 0.35167
# Poissons Ratio (y) = 0.29477 0.35167
# Poissons Ratio (z) = 0.32158 0.32158
#
# Static dielectric constant tensor:
#      x y z
#    x 1.591340 0.000000 0.000000 
#    y 0.000000 1.591340 0.000000 
#    z 0.000000 0.000000 1.648210 
# 
# From -- ./inp_files/5808.got.cif
#   From: 2010.05.17/outbox.cif.g08.bks.cpg/sg125_3_cif.got.tgz:5808.got - 2010.05.20 11:54:10.
