data_PCOD9563997
_publ_section_title
;
Structure prediction by ZEFSAII (Michael W. Deem and Ramdas Pophale) SiO2 
 PCOD9563997
Probable space group: P 4/M B M
;
_chemical_formula_sum "Si O2"
_cell_formula_units_Z 88
_cell_length_a 15.237348
_cell_length_b 15.237348
_cell_length_c 22.919771
_cell_angle_alpha 90.000000
_cell_angle_beta 90.000000
_cell_angle_gamma 90.000000
_cell_volume 5321.438493
_symmetry_space_group_name_H-M "P 4/M B M"
_symmetry_group_IT_number 127
_symmetry_cell_setting 'tetragonal'
loop_
_space_group_symop_operation_xyz
x,y,z
-y,x,z
-x,-y,z
y,-x,z
1/2+x,1/2-y,-z
1/2-x,1/2+y,-z
1/2+y,1/2+x,-z
1/2-y,1/2-x,-z
-x,-y,-z
y,-x,-z
x,y,-z
-y,x,-z
1/2-x,1/2+y,z
1/2+x,1/2-y,z
1/2-y,1/2-x,z
1/2+y,1/2+x,z
loop_
_atom_site_type_symbol
_atom_site_label
_atom_site_fract_x
_atom_site_fract_y
_atom_site_fract_z
Si Si1 0.924593 0.575408 0.386840
Si Si2 0.075183 0.424818 0.253464
Si Si3 0.424597 0.924597 0.933562
Si Si4 0.861330 0.952075 0.342121
Si Si5 0.940493 0.291122 0.566539
Si Si6 0.028001 0.677128 0.159510
Si Si7 0.043933 0.860140 0.793937
O O1 0.902104 0.597897 0.319730
O O2 0.843186 0.530342 0.418854
O O3 0.000000 0.500000 0.385450
O O4 0.152919 0.467813 0.215798
O O5 0.000000 0.500000 0.255318
O O6 0.468074 0.846202 0.896337
O O7 0.500000 0.000000 0.934389
O O8 0.402375 0.902375 0.000000
O O9 0.784866 0.928802 0.386457
O O10 0.834861 0.944616 0.274216
O O11 0.947538 0.892627 0.351057
O O12 0.942392 0.258665 0.500000
O O13 0.862266 0.362266 0.571479
O O14 0.109106 0.609106 0.159354
O O15 0.059421 0.776168 0.166070
O O16 0.944393 0.894259 0.803161
#
# Coordination Sequence:
#
# PCOD9563997 Si02
#       7
#     8   8   8  16  16  16  16
#     4   9  16  28  46  66  92 124 147 180 244 304
#     4   8  14  24  43  69  96 118 146 195 246 294
#     4   8  15  29  51  77 107 141 170 201 240 274
#     4   9  19  36  54  69  90 125 166 202 245 301
#     4  10  20  33  49  69  93 121 157 200 248 302
#     4   9  16  28  48  77 103 129 167 204 243 289
#     4   9  18  33  50  70 100 134 163 199 251 305
#
# _framework density 16.536881999999999
#
# number of rings (size 3 to 8) (size 9 to 14) (size 15 to 20)
#    0.000    3.000    0.000    3.545    0.000    4.000 
#    4.909    0.909    0.000    1.091    0.000    1.273 
#    0.000    0.000    0.000    0.000    0.000    0.000 
#
# Total GULP energy -490288.975164 kJ/mol
# GULP energy per Si atom -5571.465627 kJ/mol
# Density = 1.649924 g / cm^3
# Si number density = 16.536882 Si / 1000 Ang^3
#
#
#
# Elastic Constant Matrix: (Units=GPa)
#
#
# Indices 1 2 3 4 5 6 
#
# 1 48.9166 6.0880 36.6449 0.0000 0.0000 0.0000
# 2 6.0880 48.9166 36.6449 0.0000 0.0000 0.0000
# 3 36.6449 36.6449 86.9704 0.0000 0.0000 0.0000
# 4 0.0000 0.0000 0.0000 12.5298 0.0000 0.0000
# 5 0.0000 0.0000 0.0000 0.0000 12.5298 0.0000
# 6 0.0000 0.0000 0.0000 0.0000 0.0000 4.4291
#
#
#
# Elastic Compliance Matrix: (Units=1/GPa)
#
#
# Indices 1 2 3 4 5 6 
#
# 1 0.032401 0.009052 -0.017466 0.000000 0.000000 0.000000
# 2 0.009052 0.032401 -0.017466 0.000000 0.000000 0.000000
# 3 -0.017466 -0.017466 0.026217 0.000000 0.000000 0.000000
# 4 0.000000 0.000000 0.000000 0.079810 0.000000 0.000000
# 5 0.000000 0.000000 0.000000 0.000000 0.079810 0.000000
# 6 0.000000 0.000000 0.000000 0.000000 0.000000 0.225779
#
#
# Mechanical properties :
#
#
# Convention : Reuss Voigt Hill
#
# Bulk Modulus (GPa) = 25.47266 38.17327 31.82296
# Shear Modulus (GPa) = 9.23765 12.92611 11.08188
#
# Velocity S-wave (km/s) = 2.36606 2.79884 2.59150
# Velocity P-wave (km/s) = 4.78553 5.79470 5.31412
#
# Compressibility (1/GPa) = 0.03925778
#
# Stress axis : x y z
#
# Youngs Moduli (GPa) = 30.86354 30.86354 38.14356
#
# Poissons Ratio (x) = -0.27937 0.66622
# Poissons Ratio (y) = -0.27937 0.66622
# Poissons Ratio (z) = 0.53906 0.53906
#
# Static dielectric constant tensor:
#      x y z
#    x 1.557100 0.000000 0.000000 
#    y 0.000000 1.557100 0.000000 
#    z 0.000000 0.000000 1.550440 
# 
# From -- ./inp_files/5729.got.cif
#   From: 2010.05.17/outbox.cif.g08.bks.cpg/sg127_3_cif.got.tgz:5729.got - 2010.05.20 12:03:00.
