data_PCOD9563250
_publ_section_title
;
Structure prediction by ZEFSAII (Michael W. Deem and Ramdas Pophale) SiO2 
 PCOD9563250
Probable space group: P 4/N B M
;
_chemical_formula_sum "Si O2"
_cell_formula_units_Z 72
_cell_length_a 24.308760
_cell_length_b 24.308760
_cell_length_c 7.842262
_cell_angle_alpha 90.000000
_cell_angle_beta 90.000000
_cell_angle_gamma 90.000000
_cell_volume 4634.116623
_symmetry_space_group_name_H-M "P 4/N B M"
_symmetry_group_IT_number 125
_space_group.IT_coordinate_system_code '2'
_symmetry_cell_setting 'tetragonal'
loop_
_space_group_symop_operation_xyz
x,y,z
1/2-y,x,z
1/2-x,1/2-y,z
y,1/2-x,z
x,1/2-y,-z
1/2-x,y,-z
y,x,-z
1/2-y,1/2-x,-z
-x,-y,-z
1/2+y,-x,-z
1/2+x,1/2+y,-z
-y,1/2+x,-z
-x,1/2+y,z
1/2+x,-y,z
-y,-x,z
1/2+y,1/2+x,z
loop_
_atom_site_type_symbol
_atom_site_label
_atom_site_fract_x
_atom_site_fract_y
_atom_site_fract_z
Si Si1 0.075511 0.250000 0.308785
Si Si2 0.750000 0.841022 0.000000
Si Si3 0.952921 0.047080 0.804010
Si Si4 0.868629 0.959912 0.791867
Si Si5 0.131372 0.040087 0.791869
Si Si6 0.952920 0.047081 0.195988
O O1 0.097605 0.250000 0.500000
O O2 0.122272 0.250000 0.166886
O O3 0.043611 0.307176 0.278204
O O4 0.043610 0.192825 0.278202
O O5 0.696773 0.803228 0.000000
O O6 0.985281 0.099232 0.730872
O O7 0.938882 0.061119 0.999999
O O8 0.000000 1.000000 0.809991
O O9 0.906699 0.906698 0.746109
O O10 0.866773 0.960609 0.999999
O O11 0.099233 0.985280 0.730875
#
# Coordination Sequence:
#
# PCOD9563250 Si02
#       6
#    16   8   8  16  16   8
#     4  12  23  33  49  72  96 125 163 203 240 284
#     4  11  24  40  52  62  86 126 168 211 250 278
#     4   7  12  24  47  73  91 115 151 190 238 293
#     4   9  16  30  50  70  94 123 156 196 242 288
#     4   9  16  30  50  70  94 123 156 196 242 288
#     4   7  12  24  47  73  91 115 151 190 238 293
#
# _framework density 15.536941000000001
#
# number of rings (size 3 to 8) (size 9 to 14) (size 15 to 20)
#    0.000    2.556    2.222    4.000    0.000    3.556 
#    0.000    2.222    0.000    4.000    0.000    0.000 
#    0.000    0.889    0.000   10.222    0.000    4.000 
#
# Total GULP energy -401020.530682 kJ/mol
# GULP energy per Si atom -5569.729593 kJ/mol
# Density = 1.550158 g / cm^3
# Si number density = 15.536941 Si / 1000 Ang^3
#
#
#
# Elastic Constant Matrix: (Units=GPa)
#
#
# Indices 1 2 3 4 5 6 
#
# 1 108.1023 72.5006 30.5446 0.0000 0.0000 0.0000
# 2 72.5006 108.1016 30.5446 0.0000 0.0000 0.0000
# 3 30.5446 30.5446 70.9428 0.0000 0.0000 0.0000
# 4 0.0000 0.0000 0.0000 -81.6844 0.0000 0.0000
# 5 0.0000 0.0000 0.0000 0.0000 -81.2128 0.0000
# 6 0.0000 0.0000 0.0000 0.0000 0.0000 40.7031
#
#
#
# Elastic Compliance Matrix: (Units=1/GPa)
#
#
# Indices 1 2 3 4 5 6 
#
# 1 0.017285 -0.010804 -0.002790 0.000000 0.000000 0.000000
# 2 -0.010804 0.017285 -0.002790 0.000000 0.000000 0.000000
# 3 -0.002790 -0.002790 0.016499 0.000000 0.000000 0.000000
# 4 0.000000 0.000000 0.000000 -0.012242 0.000000 0.000000
# 5 0.000000 0.000000 0.000000 0.000000 -0.012313 0.000000
# 6 0.000000 0.000000 0.000000 0.000000 0.000000 0.024568
#
#
# Mechanical properties :
#
#
# Convention : Reuss Voigt Hill
#
# Bulk Modulus (GPa) = 54.64788 61.59181 58.11984
# Shear Modulus (GPa) = 55.58646 -14.20169 20.69238
#
# Velocity S-wave (km/s) = 5.98787 -3.02662 3.65337
# Velocity P-wave (km/s) = 9.11347 5.24541 7.43538
#
# Compressibility (1/GPa) = 0.01829897
#
# Stress axis : x y z
#
# Youngs Moduli (GPa) = 57.85431 57.85393 60.61105
#
# Poissons Ratio (x) = 0.62505 0.16912
# Poissons Ratio (y) = 0.62506 0.16913
# Poissons Ratio (z) = 0.16143 0.16143
#
# Static dielectric constant tensor:
#      x y z
#    x 1.531070 0.000000 0.000000 
#    y 0.000000 1.531070 0.000000 
#    z 0.000000 0.000000 1.638430 
# 
# From -- ./inp_files/2729.got.cif
#   From: 2010.05.17/outbox.cif.g08.bks.cpg/sg125_2_cif.got.tgz:2729.got - 2010.05.20 11:54:10.
