data_PCOD9563205
_publ_section_title
;
Structure prediction by ZEFSAII (Michael W. Deem and Ramdas Pophale) SiO2 
 PCOD9563205
Probable space group: P 4/N B M
;
_chemical_formula_sum "Si O2"
_cell_formula_units_Z 88
_cell_length_a 13.794457
_cell_length_b 13.794457
_cell_length_c 23.824828
_cell_angle_alpha 90.000000
_cell_angle_beta 90.000000
_cell_angle_gamma 90.000000
_cell_volume 4533.556092
_symmetry_space_group_name_H-M "P 4/N B M"
_symmetry_group_IT_number 125
_space_group.IT_coordinate_system_code '2'
_symmetry_cell_setting 'tetragonal'
loop_
_space_group_symop_operation_xyz
x,y,z
1/2-y,x,z
1/2-x,1/2-y,z
y,1/2-x,z
x,1/2-y,-z
1/2-x,y,-z
y,x,-z
1/2-y,1/2-x,-z
-x,-y,-z
1/2+y,-x,-z
1/2+x,1/2+y,-z
-y,1/2+x,-z
-x,1/2+y,z
1/2+x,-y,z
-y,-x,z
1/2+y,1/2+x,z
loop_
_atom_site_type_symbol
_atom_site_label
_atom_site_fract_x
_atom_site_fract_y
_atom_site_fract_z
Si Si1 0.177108 0.104324 0.654210
Si Si2 0.818156 0.479998 0.544602
Si Si3 0.085066 0.250000 0.000000
Si Si4 0.087580 0.271255 0.879313
Si Si5 0.329344 0.670657 0.403062
Si Si6 0.166219 0.833782 0.280639
Si Si7 0.978958 0.184894 0.235137
O O1 0.292458 0.124598 0.652073
O O2 0.151625 0.041272 0.599152
O O3 0.158582 0.050419 0.713269
O O4 0.750000 0.539114 0.500000
O O5 0.912072 0.412072 0.528204
O O6 0.732594 0.406865 0.563776
O O7 0.157766 0.157766 0.000000
O O8 0.033804 0.263694 0.939869
O O9 0.146115 0.170341 0.877600
O O10 0.026368 0.292897 0.824465
O O11 0.250000 0.750000 0.387696
O O12 0.365141 0.634860 0.343262
O O13 0.250000 0.750000 0.279080
O O14 0.216589 0.924436 0.252491
O O15 0.900795 0.099206 0.230398
#
# Coordination Sequence:
#
# PCOD9563205 Si02
#       7
#    16  16   8  16   8   8  16
#     4  11  25  44  59  78 115 155 187 231 288 340
#     4  11  21  38  63  91 114 143 187 230 280 339
#     4   7  12  26  54  80 103 148 196 224 259 322
#     4   9  17  33  56  83 115 150 188 231 277 328
#     4   9  16  32  58  82 110 141 172 224 280 326
#     4   9  18  34  56  77 106 144 179 226 279 332
#     4  11  21  37  58  84 113 144 186 233 286 342
#
# _framework density 19.410810999999999
#
# number of rings (size 3 to 8) (size 9 to 14) (size 15 to 20)
#    0.000    2.091    2.727    2.727    0.000    2.182 
#   11.455    1.818    2.000    1.636    0.000    0.000 
#    0.000    0.000    0.000    0.000    0.000    0.000 
#
# Total GULP energy -489892.946919 kJ/mol
# GULP energy per Si atom -5566.965306 kJ/mol
# Density = 1.936663 g / cm^3
# Si number density = 19.410811 Si / 1000 Ang^3
#
#
#
# Elastic Constant Matrix: (Units=GPa)
#
#
# Indices 1 2 3 4 5 6 
#
# 1 62.9604 -21.7739 17.9776 0.0000 0.0000 0.0000
# 2 -21.7739 62.9604 17.9776 0.0000 0.0000 0.0000
# 3 17.9776 17.9776 129.3347 0.0000 0.0000 0.0000
# 4 0.0000 0.0000 0.0000 -403.5557 0.0000 0.0000
# 5 0.0000 0.0000 0.0000 0.0000 -403.5557 0.0000
# 6 0.0000 0.0000 0.0000 0.0000 0.0000 1034.0833
#
#
#
# Elastic Compliance Matrix: (Units=1/GPa)
#
#
# Indices 1 2 3 4 5 6 
#
# 1 0.019717 0.007916 -0.003841 0.000000 0.000000 0.000000
# 2 0.007916 0.019717 -0.003841 0.000000 0.000000 0.000000
# 3 -0.003841 -0.003841 0.008800 0.000000 0.000000 0.000000
# 4 0.000000 0.000000 0.000000 -0.002478 0.000000 0.000000
# 5 0.000000 0.000000 0.000000 0.000000 -0.002478 0.000000
# 6 0.000000 0.000000 0.000000 0.000000 0.000000 0.000967
#
#
# Mechanical properties :
#
#
# Convention : Reuss Voigt Hill
#
# Bulk Modulus (GPa) = 20.53320 31.51312 26.02316
# Shear Modulus (GPa) = 83.31681 61.46598 72.39140
#
# Velocity S-wave (km/s) = 6.55866 5.63335 6.11354
# Velocity P-wave (km/s) = 8.24354 7.65394 7.95421
#
# Compressibility (1/GPa) = 0.04870162
#
# Stress axis : x y z
#
# Youngs Moduli (GPa) = 50.71690 50.71690 113.64041
#
# Poissons Ratio (x) = -0.40146 0.43649
# Poissons Ratio (y) = -0.40146 0.43649
# Poissons Ratio (z) = 0.19480 0.19480
#
# Static dielectric constant tensor:
#      x y z
#    x 1.681170 0.000000 0.000000 
#    y 0.000000 1.681170 0.000000 
#    z 0.000000 0.000000 1.821690 
# 
# From -- ./inp_files/5879.got.cif
#   From: 2010.05.17/outbox.cif.g08.bks.cpg/sg125_3_cif.got.tgz:5879.got - 2010.05.20 11:54:10.
