data_PCOD9563451
_publ_section_title
;
Structure prediction by ZEFSAII (Michael W. Deem and Ramdas Pophale) SiO2 
 PCOD9563451
Probable space group: P 4/N N C
;
_chemical_formula_sum "Si O2"
_cell_formula_units_Z 72
_cell_length_a 17.829894
_cell_length_b 17.829894
_cell_length_c 11.154926
_cell_angle_alpha 90.000000
_cell_angle_beta 90.000000
_cell_angle_gamma 90.000000
_cell_volume 3546.208089
_symmetry_space_group_name_H-M "P 4/N N C"
_symmetry_group_IT_number 126
_space_group.IT_coordinate_system_code '2'
_symmetry_cell_setting 'tetragonal'
loop_
_space_group_symop_operation_xyz
x,y,z
1/2-y,x,z
1/2-x,1/2-y,z
y,1/2-x,z
x,1/2-y,1/2-z
1/2-x,y,1/2-z
y,x,1/2-z
1/2-y,1/2-x,1/2-z
-x,-y,-z
1/2+y,-x,-z
1/2+x,1/2+y,-z
-y,1/2+x,-z
-x,1/2+y,1/2+z
1/2+x,-y,1/2+z
-y,-x,1/2+z
1/2+y,1/2+x,1/2+z
loop_
_atom_site_type_symbol
_atom_site_label
_atom_site_fract_x
_atom_site_fract_y
_atom_site_fract_z
Si Si1 0.697483 0.144461 0.497695
Si Si2 0.838180 0.838180 0.250000
Si Si3 0.920855 0.586034 0.032813
Si Si4 0.681363 0.001867 0.663184
Si Si5 0.085371 0.552921 0.124342
O O1 0.665618 0.221445 0.555060
O O2 0.705785 0.076076 0.590142
O O3 0.633860 0.120256 0.404201
O O4 0.750000 0.852183 0.250000
O O5 0.877608 0.869322 0.131831
O O6 0.997373 0.561694 0.100093
O O7 0.888690 0.511773 0.968814
O O8 0.943053 0.647372 0.931408
O O9 0.750000 0.978105 0.750000
O O10 0.611651 0.025933 0.746599
#
# Coordination Sequence:
#
# PCOD9563451 Si02
#       5
#    16   8  16  16  16
#     4  10  21  37  56  91 140 185 221 258 316 391
#     4  11  28  50  70  96 130 174 228 285 346 422
#     4  10  25  42  71  95 130 171 218 283 340 404
#     4  11  22  40  66  97 133 177 220 278 331 401
#     4  10  22  41  64 101 132 166 222 273 330 399
#
# _framework density 20.303376
#
# number of rings (size 3 to 8) (size 9 to 14) (size 15 to 20)
#    0.000    1.667    2.222    0.667   12.444    0.889 
#    0.000    0.000    0.000    0.000    0.000    0.000 
#    0.000    0.000    0.000    0.000    0.000    0.000 
#
# Total GULP energy -402235.754178 kJ/mol
# GULP energy per Si atom -5586.607697 kJ/mol
# Density = 2.025716 g / cm^3
# Si number density = 20.303376 Si / 1000 Ang^3
#
#
#
# Elastic Constant Matrix: (Units=GPa)
#
#
# Indices 1 2 3 4 5 6 
#
# 1 68.0364 -0.9761 22.5355 0.0000 0.0000 0.0000
# 2 -0.9761 68.0364 22.5355 0.0000 0.0000 0.0000
# 3 22.5355 22.5355 87.7264 0.0000 0.0000 0.0000
# 4 0.0000 0.0000 0.0000 29.7707 0.0000 0.0000
# 5 0.0000 0.0000 0.0000 0.0000 29.7707 0.0000
# 6 0.0000 0.0000 0.0000 0.0000 0.0000 26.3103
#
#
#
# Elastic Compliance Matrix: (Units=1/GPa)
#
#
# Indices 1 2 3 4 5 6 
#
# 1 0.016257 0.001767 -0.004630 0.000000 0.000000 0.000000
# 2 0.001767 0.016257 -0.004630 0.000000 0.000000 0.000000
# 3 -0.004630 -0.004630 0.013778 0.000000 0.000000 0.000000
# 4 0.000000 0.000000 0.000000 0.033590 0.000000 0.000000
# 5 0.000000 0.000000 0.000000 0.000000 0.033590 0.000000
# 6 0.000000 0.000000 0.000000 0.000000 0.000000 0.038008
#
#
# Mechanical properties :
#
#
# Convention : Reuss Voigt Hill
#
# Bulk Modulus (GPa) = 31.94349 34.66547 33.30448
# Shear Modulus (GPa) = 28.26435 29.15063 28.70749
#
# Velocity S-wave (km/s) = 3.73513 3.79324 3.76430
# Velocity P-wave (km/s) = 5.86250 6.02459 5.94410
#
# Compressibility (1/GPa) = 0.03130528
#
# Stress axis : x y z
#
# Youngs Moduli (GPa) = 61.51215 61.51215 72.58032
#
# Poissons Ratio (x) = -0.10868 0.33605
# Poissons Ratio (y) = -0.10868 0.33605
# Poissons Ratio (z) = 0.28480 0.28480
#
# Static dielectric constant tensor:
#      x y z
#    x 1.728810 0.000000 0.000000 
#    y 0.000000 1.728810 0.000000 
#    z 0.000000 0.000000 1.722440 
# 
# From -- ./inp_files/2692.got.cif
#   From: 2010.05.17/outbox.cif.g08.bks.cpg/sg126_2_cif.got.tgz:2692.got - 2010.05.20 11:58:20.
