data_PCOD9563134
_publ_section_title
;
Structure prediction by ZEFSAII (Michael W. Deem and Ramdas Pophale) SiO2 
 PCOD9563134
Probable space group: P 4/N B M
;
_chemical_formula_sum "Si O2"
_cell_formula_units_Z 112
_cell_length_a 15.288612
_cell_length_b 15.288612
_cell_length_c 22.360459
_cell_angle_alpha 90.000000
_cell_angle_beta 90.000000
_cell_angle_gamma 90.000000
_cell_volume 5226.570735
_symmetry_space_group_name_H-M "P 4/N B M"
_symmetry_group_IT_number 125
_space_group.IT_coordinate_system_code '2'
_symmetry_cell_setting 'tetragonal'
loop_
_space_group_symop_operation_xyz
x,y,z
1/2-y,x,z
1/2-x,1/2-y,z
y,1/2-x,z
x,1/2-y,-z
1/2-x,y,-z
y,x,-z
1/2-y,1/2-x,-z
-x,-y,-z
1/2+y,-x,-z
1/2+x,1/2+y,-z
-y,1/2+x,-z
-x,1/2+y,z
1/2+x,-y,z
-y,-x,z
1/2+y,1/2+x,z
loop_
_atom_site_type_symbol
_atom_site_label
_atom_site_fract_x
_atom_site_fract_y
_atom_site_fract_z
Si Si1 0.991380 0.259993 0.721056
Si Si2 0.380362 0.027730 0.449148
Si Si3 0.651093 0.014494 0.840464
Si Si4 0.585718 0.560562 0.932843
Si Si5 0.436786 0.080882 0.319196
Si Si6 0.408389 0.726353 0.068641
Si Si7 0.106961 0.746571 0.599761
O O1 0.976078 0.272297 0.791244
O O2 0.915299 0.250479 0.670816
O O3 0.050300 0.176963 0.705915
O O4 0.036960 0.352241 0.708708
O O5 0.400132 0.099869 0.500000
O O6 0.415833 0.074453 0.389357
O O7 0.445929 0.945929 0.461057
O O8 0.286463 0.979861 0.433761
O O9 0.565884 0.065884 0.816179
O O10 0.689366 0.065882 0.896181
O O11 0.621350 0.924856 0.873760
O O12 0.495210 0.504791 0.934813
O O13 0.661333 0.490191 0.925204
O O14 0.598960 0.598960 0.000000
O O15 0.523014 0.023014 0.307764
O O16 0.323940 0.676061 0.091856
O O17 0.395378 0.750000 0.000000
O O18 0.182475 0.817526 0.587557
O O19 0.151654 0.651654 0.585162
#
# Coordination Sequence:
#
# PCOD9563134 Si02
#       7
#    16  16  16  16  16  16  16
#     4  11  23  39  61  88 123 166 219 274 326 402
#     4   8  15  32  60  92 127 168 216 267 322 398
#     4  11  23  38  59  87 117 157 210 267 324 399
#     4   9  18  36  58  79 108 150 198 244 303 385
#     4  10  22  41  64  91 126 173 220 270 340 402
#     4  11  22  36  57  86 119 154 195 255 330 401
#     4   9  17  32  56  87 126 170 214 269 337 401
#
# _framework density 21.428965000000002
#
# number of rings (size 3 to 8) (size 9 to 14) (size 15 to 20)
#    0.000    2.143    1.429    3.000    2.000    2.429 
#    0.000    2.857    0.000    6.429    0.000   14.000 
#    0.000    0.000    0.000    0.000    0.000    0.000 
#
# Total GULP energy -623889.674421 kJ/mol
# GULP energy per Si atom -5570.443522 kJ/mol
# Density = 2.138019 g / cm^3
# Si number density = 21.428965 Si / 1000 Ang^3
#
#
#
# Elastic Constant Matrix: (Units=GPa)
#
#
# Indices 1 2 3 4 5 6 
#
# 1 62.6787 38.1671 29.1827 0.0000 0.0000 0.0000
# 2 38.1671 62.6789 29.1823 0.0000 0.0000 0.0000
# 3 29.1827 29.1823 86.4949 0.0000 0.0000 0.0000
# 4 0.0000 0.0000 0.0000 6.8927 0.0000 0.0000
# 5 0.0000 0.0000 0.0000 0.0000 6.8916 0.0000
# 6 0.0000 0.0000 0.0000 0.0000 0.0000 42.3294
#
#
#
# Elastic Compliance Matrix: (Units=1/GPa)
#
#
# Indices 1 2 3 4 5 6 
#
# 1 0.026560 -0.014237 -0.004158 0.000000 0.000000 0.000000
# 2 -0.014237 0.026559 -0.004157 0.000000 0.000000 0.000000
# 3 -0.004158 -0.004157 0.014367 0.000000 0.000000 0.000000
# 4 0.000000 0.000000 0.000000 0.145081 0.000000 0.000000
# 5 0.000000 0.000000 0.000000 0.000000 0.145104 0.000000
# 6 0.000000 0.000000 0.000000 0.000000 0.000000 0.023624
#
#
# Mechanical properties :
#
#
# Convention : Reuss Voigt Hill
#
# Bulk Modulus (GPa) = 44.67961 44.99076 44.83518
# Shear Modulus (GPa) = 11.52444 18.91075 15.21760
#
# Velocity S-wave (km/s) = 2.32156 2.97389 2.66774
# Velocity P-wave (km/s) = 5.29920 5.73000 5.51881
#
# Compressibility (1/GPa) = 0.02238157
#
# Stress axis : x y z
#
# Youngs Moduli (GPa) = 37.65110 37.65143 69.60540
#
# Poissons Ratio (x) = 0.53605 0.28939
# Poissons Ratio (y) = 0.53605 0.28937
# Poissons Ratio (z) = 0.15654 0.15653
#
# Static dielectric constant tensor:
#      x y z
#    x 1.812590 0.000000 0.000000 
#    y 0.000000 1.812590 0.000000 
#    z 0.000000 0.000000 2.022180 
# 
# From -- ./inp_files/6242.got.cif
#   From: 2010.05.17/outbox.cif.g08.bks.cpg/sg125_4_cif.got.tgz:6242.got - 2010.05.20 11:54:10.
