data_PCOD9563720
_publ_section_title
;
Structure prediction by ZEFSAII (Michael W. Deem and Ramdas Pophale) SiO2 
 PCOD9563720
Probable space group: P 4/N N C
;
_chemical_formula_sum "Si O2"
_cell_formula_units_Z 52
_cell_length_a 11.916389
_cell_length_b 11.916389
_cell_length_c 15.341848
_cell_angle_alpha 90.000000
_cell_angle_beta 90.000000
_cell_angle_gamma 90.000000
_cell_volume 2178.547430
_symmetry_space_group_name_H-M "P 4/N N C"
_symmetry_group_IT_number 126
_space_group.IT_coordinate_system_code '2'
_symmetry_cell_setting 'tetragonal'
loop_
_space_group_symop_operation_xyz
x,y,z
1/2-y,x,z
1/2-x,1/2-y,z
y,1/2-x,z
x,1/2-y,1/2-z
1/2-x,y,1/2-z
y,x,1/2-z
1/2-y,1/2-x,1/2-z
-x,-y,-z
1/2+y,-x,-z
1/2+x,1/2+y,-z
-y,1/2+x,-z
-x,1/2+y,1/2+z
1/2+x,-y,1/2+z
-y,-x,1/2+z
1/2+y,1/2+x,1/2+z
loop_
_atom_site_type_symbol
_atom_site_label
_atom_site_fract_x
_atom_site_fract_y
_atom_site_fract_z
Si Si1 0.020178 0.738071 0.391524
Si Si2 0.750000 0.750000 0.120873
Si Si3 0.490490 0.610293 0.669390
Si Si4 0.461571 0.846192 0.588003
O O1 0.760854 0.611270 0.379442
O O2 0.061315 0.634678 0.332514
O O3 0.046550 0.700567 0.490756
O O4 0.092428 0.849917 0.379663
O O5 0.560333 0.560333 0.750000
O O6 0.486228 0.741986 0.651590
O O7 0.562233 0.560003 0.588971
#
# Coordination Sequence:
#
# PCOD9563720 Si02
#       4
#    16   4  16  16
#     4  12  24  48  78 113 153 212 278 341 400 498
#     4  12  24  44  77 112 149 200 272 354 388 468
#     4  12  27  46  74 116 160 203 264 343 420 490
#     4  12  25  48  78 110 157 213 274 331 415 500
#
# _framework density 23.869116000000002
#
# number of rings (size 3 to 8) (size 9 to 14) (size 15 to 20)
#    0.000    0.000    6.154    4.615    0.000    1.846 
#    0.000    5.385    0.000    0.000    0.000    0.000 
#    0.000    0.000    0.000    0.000    0.000    0.000 
#
# Total GULP energy -290461.732447 kJ/mol
# GULP energy per Si atom -5585.802547 kJ/mol
# Density = 2.381479 g / cm^3
# Si number density = 23.869116 Si / 1000 Ang^3
#
#
#
# Elastic Constant Matrix: (Units=GPa)
#
#
# Indices 1 2 3 4 5 6 
#
# 1 226.8835 107.6331 23.5353 0.0000 0.0000 0.0000
# 2 107.6331 226.8835 23.5353 0.0000 0.0000 0.0000
# 3 23.5353 23.5353 75.2590 0.0000 0.0000 0.0000
# 4 0.0000 0.0000 0.0000 22.4505 0.0000 0.0000
# 5 0.0000 0.0000 0.0000 0.0000 22.4505 0.0000
# 6 0.0000 0.0000 0.0000 0.0000 0.0000 53.7202
#
#
#
# Elastic Compliance Matrix: (Units=1/GPa)
#
#
# Indices 1 2 3 4 5 6 
#
# 1 0.005756 -0.002629 -0.000978 0.000000 0.000000 0.000000
# 2 -0.002629 0.005756 -0.000978 0.000000 0.000000 0.000000
# 3 -0.000978 -0.000978 0.013899 0.000000 0.000000 0.000000
# 4 0.000000 0.000000 0.000000 0.044543 0.000000 0.000000
# 5 0.000000 0.000000 0.000000 0.000000 0.044543 0.000000
# 6 0.000000 0.000000 0.000000 0.000000 0.000000 0.018615
#
#
# Mechanical properties :
#
#
# Convention : Reuss Voigt Hill
#
# Bulk Modulus (GPa) = 61.57066 93.15927 77.36496
# Shear Modulus (GPa) = 33.85335 44.67905 39.26620
#
# Velocity S-wave (km/s) = 3.77011 4.33116 4.06034
# Velocity P-wave (km/s) = 6.69348 8.00787 7.37999
#
# Compressibility (1/GPa) = 0.01624150
#
# Stress axis : x y z
#
# Youngs Moduli (GPa) = 173.72112 173.72112 71.94731
#
# Poissons Ratio (x) = 0.45678 0.07036
# Poissons Ratio (y) = 0.45678 0.07036
# Poissons Ratio (z) = 0.16988 0.16988
#
# Static dielectric constant tensor:
#      x y z
#    x 1.856630 0.000000 0.000000 
#    y 0.000000 1.856630 0.000000 
#    z 0.000000 0.000000 2.066640 
# 
# From -- ./inp_files/4894.got.cif
#   From: 2010.05.17/outbox.cif.g08.bks.cpg/sg126_3_cif.got.tgz:4894.got - 2010.05.20 11:58:20.
