data_PCOD9563881
_publ_section_title
;
Structure prediction by ZEFSAII (Michael W. Deem and Ramdas Pophale) SiO2 
 PCOD9563881
Probable space group: P 4/M B M
;
_chemical_formula_sum "Si O2"
_cell_formula_units_Z 112
_cell_length_a 19.378193
_cell_length_b 19.378193
_cell_length_c 17.517629
_cell_angle_alpha 90.000000
_cell_angle_beta 90.000000
_cell_angle_gamma 90.000000
_cell_volume 6578.121312
_symmetry_space_group_name_H-M "P 4/M B M"
_symmetry_group_IT_number 127
_symmetry_cell_setting 'tetragonal'
loop_
_space_group_symop_operation_xyz
x,y,z
-y,x,z
-x,-y,z
y,-x,z
1/2+x,1/2-y,-z
1/2-x,1/2+y,-z
1/2+y,1/2+x,-z
1/2-y,1/2-x,-z
-x,-y,-z
y,-x,-z
x,y,-z
-y,x,-z
1/2-x,1/2+y,z
1/2+x,1/2-y,z
1/2-y,1/2-x,z
1/2+y,1/2+x,z
loop_
_atom_site_type_symbol
_atom_site_label
_atom_site_fract_x
_atom_site_fract_y
_atom_site_fract_z
Si Si1 0.131627 0.254522 0.850889
Si Si2 0.613452 0.525030 0.587627
Si Si3 0.138865 0.475367 0.915359
Si Si4 0.129565 0.782136 0.083967
Si Si5 0.078775 0.683381 0.212260
Si Si6 0.200203 0.981920 0.733983
Si Si7 0.972894 0.110547 0.131533
O O1 0.191023 0.308977 0.825986
O O2 0.078252 0.298196 0.902273
O O3 0.167577 0.193183 0.897310
O O4 0.085765 0.222184 0.782604
O O5 0.550608 0.578968 0.597489
O O6 0.637735 0.530437 0.500000
O O7 0.671288 0.534993 0.651226
O O8 0.069551 0.430450 0.911752
O O9 0.143890 0.527994 0.846021
O O10 0.144107 0.506682 0.000000
O O11 0.122908 0.730493 0.154209
O O12 0.057693 0.824994 0.086496
O O13 0.138287 0.752172 0.000000
O O14 0.129360 0.629360 0.252096
O O15 0.033222 0.734313 0.263756
O O16 0.139044 0.020265 0.781931
O O17 0.048069 0.079699 0.116100
#
# Coordination Sequence:
#
# PCOD9563881 Si02
#       7
#    16  16  16  16  16  16  16
#     4  10  20  34  49  69  95 131 178 213 247 298
#     4   9  18  32  55  87 113 131 155 194 243 298
#     4   9  18  33  52  69  89 123 169 224 275 309
#     4  11  22  33  46  65  94 132 172 212 257 301
#     4  10  22  35  47  70  98 128 170 213 256 300
#     4  10  19  34  55  74  99 135 166 203 247 300
#     4  10  19  32  48  69  95 127 166 206 254 304
#
# _framework density 17.026139000000001
#
# number of rings (size 3 to 8) (size 9 to 14) (size 15 to 20)
#    0.000    2.143    1.429    2.571    2.000    4.571 
#    0.000    1.429    0.000    0.857    0.000    2.000 
#    0.000    0.000    0.000    7.143    0.000    0.000 
#
# Total GULP energy -624679.637784 kJ/mol
# GULP energy per Si atom -5577.496766 kJ/mol
# Density = 1.698739 g / cm^3
# Si number density = 17.026139 Si / 1000 Ang^3
#
#
#
# Elastic Constant Matrix: (Units=GPa)
#
#
# Indices 1 2 3 4 5 6 
#
# 1 41.9315 31.5864 9.6173 0.0000 0.0000 0.0000
# 2 31.5864 41.9315 9.6173 0.0000 0.0000 0.0000
# 3 9.6173 9.6173 70.4974 0.0000 0.0000 0.0000
# 4 0.0000 0.0000 0.0000 6.6512 0.0000 0.0000
# 5 0.0000 0.0000 0.0000 0.0000 6.6512 0.0000
# 6 0.0000 0.0000 0.0000 0.0000 0.0000 33.6711
#
#
#
# Elastic Compliance Matrix: (Units=1/GPa)
#
#
# Indices 1 2 3 4 5 6 
#
# 1 0.055385 -0.041280 -0.001924 0.000000 0.000000 0.000000
# 2 -0.041280 0.055385 -0.001924 0.000000 0.000000 0.000000
# 3 -0.001924 -0.001924 0.014710 0.000000 0.000000 0.000000
# 4 0.000000 0.000000 0.000000 0.150349 0.000000 0.000000
# 5 0.000000 0.000000 0.000000 0.000000 0.150349 0.000000
# 6 0.000000 0.000000 0.000000 0.000000 0.000000 0.029699
#
#
# Mechanical properties :
#
#
# Convention : Reuss Voigt Hill
#
# Bulk Modulus (GPa) = 28.38979 28.44472 28.41725
# Shear Modulus (GPa) = 8.96258 16.29731 12.62995
#
# Velocity S-wave (km/s) = 2.29683 3.09721 2.72655
# Velocity P-wave (km/s) = 4.87282 5.43443 5.16127
#
# Compressibility (1/GPa) = 0.03522393
#
# Stress axis : x y z
#
# Youngs Moduli (GPa) = 18.05536 18.05536 67.98119
#
# Poissons Ratio (x) = 0.74532 0.13082
# Poissons Ratio (y) = 0.74532 0.13082
# Poissons Ratio (z) = 0.03474 0.03474
#
# Static dielectric constant tensor:
#      x y z
#    x 1.613050 0.000000 0.000000 
#    y 0.000000 1.613050 0.000000 
#    z 0.000000 0.000000 1.542790 
# 
# From -- ./inp_files/5359.got.cif
#   From: 2010.05.17/outbox.cif.g08.bks.cpg/sg127_3_cif.got.tgz:5359.got - 2010.05.20 12:03:00.
