data_PCOD9563694
_publ_section_title
;
Structure prediction by ZEFSAII (Michael W. Deem and Ramdas Pophale) SiO2 
 PCOD9563694
Probable space group: P 4/N N C
;
_chemical_formula_sum "Si O2"
_cell_formula_units_Z 48
_cell_length_a 15.495940
_cell_length_b 15.495940
_cell_length_c 9.971365
_cell_angle_alpha 90.000000
_cell_angle_beta 90.000000
_cell_angle_gamma 90.000000
_cell_volume 2394.365610
_symmetry_space_group_name_H-M "P 4/N N C"
_symmetry_group_IT_number 126
_space_group.IT_coordinate_system_code '2'
_symmetry_cell_setting 'tetragonal'
loop_
_space_group_symop_operation_xyz
x,y,z
1/2-y,x,z
1/2-x,1/2-y,z
y,1/2-x,z
x,1/2-y,1/2-z
1/2-x,y,1/2-z
y,x,1/2-z
1/2-y,1/2-x,1/2-z
-x,-y,-z
1/2+y,-x,-z
1/2+x,1/2+y,-z
-y,1/2+x,-z
-x,1/2+y,1/2+z
1/2+x,-y,1/2+z
-y,-x,1/2+z
1/2+y,1/2+x,1/2+z
loop_
_atom_site_type_symbol
_atom_site_label
_atom_site_fract_x
_atom_site_fract_y
_atom_site_fract_z
Si Si1 0.350975 0.648102 0.777887
Si Si2 0.320520 0.133840 0.908276
Si Si3 0.955747 0.090147 0.965219
O O1 0.357487 0.750000 0.750000
O O2 0.250000 0.624334 0.750000
O O3 0.409014 0.595838 0.673287
O O4 0.388094 0.623524 0.923246
O O5 0.362627 0.221952 0.960318
O O6 0.344886 0.155115 0.750000
O O7 0.350901 0.039657 0.944939
O O8 0.000000 0.000000 0.000000
#
# Coordination Sequence:
#
# PCOD9563694 Si02
#       3
#    16  16  16
#     4  11  26  46  68  96 136 182 224 281 345 404
#     4   9  20  38  64  97 133 175 221 274 341 405
#     4  12  25  41  69 103 129 174 231 280 341 402
#
# _framework density 20.047065
#
# number of rings (size 3 to 8) (size 9 to 14) (size 15 to 20)
#    0.000    1.333    0.000    6.000   14.000    2.667 
#    0.000    0.000    0.000    0.000    0.000    0.000 
#    0.000    0.000    0.000    0.000    0.000    0.000 
#
# Total GULP energy -267377.558406 kJ/mol
# GULP energy per Si atom -5570.365800 kJ/mol
# Density = 2.000144 g / cm^3
# Si number density = 20.047065 Si / 1000 Ang^3
#
#
#
# Elastic Constant Matrix: (Units=GPa)
#
#
# Indices 1 2 3 4 5 6 
#
# 1 74.5657 17.4777 -5.3691 0.0000 0.0000 0.0000
# 2 17.4777 74.5660 -5.3689 0.0000 0.0000 0.0000
# 3 -5.3691 -5.3689 46.2694 0.0000 0.0000 0.0000
# 4 0.0000 0.0000 0.0000 13.6788 0.0000 0.0000
# 5 0.0000 0.0000 0.0000 0.0000 13.6786 0.0000
# 6 0.0000 0.0000 0.0000 0.0000 0.0000 1.0573
#
#
#
# Elastic Compliance Matrix: (Units=1/GPa)
#
#
# Indices 1 2 3 4 5 6 
#
# 1 0.014265 -0.003252 0.001278 0.000000 0.000000 0.000000
# 2 -0.003252 0.014265 0.001278 0.000000 0.000000 0.000000
# 3 0.001278 0.001278 0.021909 0.000000 0.000000 0.000000
# 4 0.000000 0.000000 0.000000 0.073106 0.000000 0.000000
# 5 0.000000 0.000000 0.000000 0.000000 0.073107 0.000000
# 6 0.000000 0.000000 0.000000 0.000000 0.000000 0.945842
#
#
# Mechanical properties :
#
#
# Convention : Reuss Voigt Hill
#
# Bulk Modulus (GPa) = 20.38814 23.20893 21.79854
# Shear Modulus (GPa) = 4.30947 18.26036 11.28491
#
# Velocity S-wave (km/s) = 1.46777 3.02134 2.37517
# Velocity P-wave (km/s) = 3.61451 4.87583 4.29176
#
# Compressibility (1/GPa) = 0.04904812
#
# Stress axis : x y z
#
# Youngs Moduli (GPa) = 70.10078 70.10107 45.64306
#
# Poissons Ratio (x) = 0.22794 -0.05833
# Poissons Ratio (y) = 0.22794 -0.05833
# Poissons Ratio (z) = -0.08959 -0.08959
#
# Static dielectric constant tensor:
#      x y z
#    x 1.647160 0.000000 0.000000 
#    y 0.000000 1.647180 0.000000 
#    z 0.000000 0.000000 1.708110 
# 
# From -- ./inp_files/2195.got.cif
#   From: 2010.05.17/outbox.cif.g08.bks.cpg/sg126_2_cif.got.tgz:2195.got - 2010.05.20 11:58:20.
