data_PCOD9563649
_publ_section_title
;
Structure prediction by ZEFSAII (Michael W. Deem and Ramdas Pophale) SiO2 
 PCOD9563649
Probable space group: P 4/N N C
;
_chemical_formula_sum "Si O2"
_cell_formula_units_Z 40
_cell_length_a 10.172095
_cell_length_b 10.172095
_cell_length_c 18.733845
_cell_angle_alpha 90.000000
_cell_angle_beta 90.000000
_cell_angle_gamma 90.000000
_cell_volume 1938.419356
_symmetry_space_group_name_H-M "P 4/N N C"
_symmetry_group_IT_number 126
_space_group.IT_coordinate_system_code '2'
_symmetry_cell_setting 'tetragonal'
loop_
_space_group_symop_operation_xyz
x,y,z
1/2-y,x,z
1/2-x,1/2-y,z
y,1/2-x,z
x,1/2-y,1/2-z
1/2-x,y,1/2-z
y,x,1/2-z
1/2-y,1/2-x,1/2-z
-x,-y,-z
1/2+y,-x,-z
1/2+x,1/2+y,-z
-y,1/2+x,-z
-x,1/2+y,1/2+z
1/2+x,-y,1/2+z
-y,-x,1/2+z
1/2+y,1/2+x,1/2+z
loop_
_atom_site_type_symbol
_atom_site_label
_atom_site_fract_x
_atom_site_fract_y
_atom_site_fract_z
Si Si1 0.028447 0.250000 0.750000
Si Si2 0.950920 0.833812 0.964527
Si Si3 0.777836 0.096754 0.097344
O O1 0.123646 0.123646 0.750000
O O2 0.943682 0.253237 0.821727
O O3 0.818032 0.913559 0.948394
O O4 0.068413 0.905063 0.923345
O O5 0.004731 0.809268 0.045416
O O6 0.750000 0.250000 0.084562
#
# Coordination Sequence:
#
# PCOD9563649 Si02
#       3
#     8  16  16
#     4  11  27  46  68  96 131 177 224 276 332 397
#     4  11  23  40  69 101 133 175 221 274 330 390
#     4  12  23  42  67 100 133 173 222 275 334 392
#
# _framework density 20.635372
#
# number of rings (size 3 to 8) (size 9 to 14) (size 15 to 20)
#    0.000    0.600    4.000    4.200    5.600    3.200 
#    0.000    0.000    0.000    0.000    0.000    0.000 
#    0.000    0.000    0.000    0.000    0.000    0.000 
#
# Total GULP energy -223384.426932 kJ/mol
# GULP energy per Si atom -5584.610673 kJ/mol
# Density = 2.058840 g / cm^3
# Si number density = 20.635372 Si / 1000 Ang^3
#
#
#
# Elastic Constant Matrix: (Units=GPa)
#
#
# Indices 1 2 3 4 5 6 
#
# 1 96.2932 40.6012 21.2009 0.0000 0.0000 0.0000
# 2 40.6012 96.2932 21.2009 0.0000 0.0000 0.0000
# 3 21.2009 21.2009 127.7929 0.0000 0.0000 0.0000
# 4 0.0000 0.0000 0.0000 6.7098 0.0000 0.0000
# 5 0.0000 0.0000 0.0000 0.0000 6.7098 0.0000
# 6 0.0000 0.0000 0.0000 0.0000 0.0000 36.1961
#
#
#
# Elastic Compliance Matrix: (Units=1/GPa)
#
#
# Indices 1 2 3 4 5 6 
#
# 1 0.012828 -0.005128 -0.001278 0.000000 0.000000 0.000000
# 2 -0.005128 0.012828 -0.001278 0.000000 0.000000 0.000000
# 3 -0.001278 -0.001278 0.008249 0.000000 0.000000 0.000000
# 4 0.000000 0.000000 0.000000 0.149036 0.000000 0.000000
# 5 0.000000 0.000000 0.000000 0.000000 0.149036 0.000000
# 6 0.000000 0.000000 0.000000 0.000000 0.000000 0.027627
#
#
# Mechanical properties :
#
#
# Convention : Reuss Voigt Hill
#
# Bulk Modulus (GPa) = 53.93706 54.04280 53.98993
# Shear Modulus (GPa) = 13.11816 25.74821 19.43318
#
# Velocity S-wave (km/s) = 2.52407 3.53621 3.07211
# Velocity P-wave (km/s) = 5.88978 6.55128 6.22932
#
# Compressibility (1/GPa) = 0.01854013
#
# Stress axis : x y z
#
# Youngs Moduli (GPa) = 77.95288 77.95288 121.22616
#
# Poissons Ratio (x) = 0.39972 0.15487
# Poissons Ratio (y) = 0.39972 0.15487
# Poissons Ratio (z) = 0.09959 0.09959
#
# Static dielectric constant tensor:
#      x y z
#    x 1.782720 0.000000 0.000000 
#    y 0.000000 1.782720 0.000000 
#    z 0.000000 0.000000 1.747500 
# 
# From -- ./inp_files/3229.got.cif
#   From: 2010.05.17/outbox.cif.g08.bks.cpg/sg126_2_cif.got.tgz:3229.got - 2010.05.20 11:58:20.
