data_PCOD9563476
_publ_section_title
;
Structure prediction by ZEFSAII (Michael W. Deem and Ramdas Pophale) SiO2 
 PCOD9563476
Probable space group: P 4/N N C
;
_chemical_formula_sum "Si O2"
_cell_formula_units_Z 72
_cell_length_a 15.569848
_cell_length_b 15.569848
_cell_length_c 15.512671
_cell_angle_alpha 90.000000
_cell_angle_beta 90.000000
_cell_angle_gamma 90.000000
_cell_volume 3760.584290
_symmetry_space_group_name_H-M "P 4/N N C"
_symmetry_group_IT_number 126
_space_group.IT_coordinate_system_code '2'
_symmetry_cell_setting 'tetragonal'
loop_
_space_group_symop_operation_xyz
x,y,z
1/2-y,x,z
1/2-x,1/2-y,z
y,1/2-x,z
x,1/2-y,1/2-z
1/2-x,y,1/2-z
y,x,1/2-z
1/2-y,1/2-x,1/2-z
-x,-y,-z
1/2+y,-x,-z
1/2+x,1/2+y,-z
-y,1/2+x,-z
-x,1/2+y,1/2+z
1/2+x,-y,1/2+z
-y,-x,1/2+z
1/2+y,1/2+x,1/2+z
loop_
_atom_site_type_symbol
_atom_site_label
_atom_site_fract_x
_atom_site_fract_y
_atom_site_fract_z
Si Si1 0.200475 0.884832 0.993982
Si Si2 0.901699 0.939955 0.406249
Si Si3 0.352726 0.147275 0.250000
Si Si4 0.476697 0.099036 0.093862
Si Si5 0.718753 0.994652 0.345303
O O1 0.173911 0.956138 0.064837
O O2 0.299455 0.856399 0.996915
O O3 0.183661 0.925628 0.900341
O O4 0.926122 0.922192 0.505565
O O5 0.802517 0.961655 0.395525
O O6 0.925472 0.856908 0.349879
O O7 0.962196 0.019567 0.380138
O O8 0.366473 0.250000 0.250000
O O9 0.407741 0.116956 0.167560
O O10 0.750000 0.015927 0.250000
#
# Coordination Sequence:
#
# PCOD9563476 Si02
#       5
#    16  16   8  16  16
#     4  10  21  41  67  95 134 169 214 266 328 397
#     4  10  23  41  65  93 126 172 213 261 328 388
#     4  11  28  44  66  98 132 169 226 272 310 389
#     4  10  23  43  67  89 128 175 213 259 329 381
#     4  11  23  39  64  96 130 164 219 270 316 389
#
# _framework density 19.145962000000001
#
# number of rings (size 3 to 8) (size 9 to 14) (size 15 to 20)
#    0.000    1.667    2.222    0.667    9.333    0.444 
#    0.000    3.333    0.000    0.000    0.000    0.000 
#    0.000    0.000    0.000    0.000    0.000    0.000 
#
# Total GULP energy -401941.158727 kJ/mol
# GULP energy per Si atom -5582.516093 kJ/mol
# Density = 1.910238 g / cm^3
# Si number density = 19.145962 Si / 1000 Ang^3
#
#
#
# Elastic Constant Matrix: (Units=GPa)
#
#
# Indices 1 2 3 4 5 6 
#
# 1 95.1915 32.9915 38.5207 0.0000 0.0000 0.0000
# 2 32.9915 95.1929 38.5209 0.0000 0.0000 0.0000
# 3 38.5207 38.5209 84.1418 0.0000 0.0000 0.0000
# 4 0.0000 0.0000 0.0000 23.0116 0.0000 0.0000
# 5 0.0000 0.0000 0.0000 0.0000 23.0115 0.0000
# 6 0.0000 0.0000 0.0000 0.0000 0.0000 28.4255
#
#
#
# Elastic Compliance Matrix: (Units=1/GPa)
#
#
# Indices 1 2 3 4 5 6 
#
# 1 0.013420 -0.002657 -0.004927 0.000000 0.000000 0.000000
# 2 -0.002657 0.013420 -0.004927 0.000000 0.000000 0.000000
# 3 -0.004927 -0.004927 0.016396 0.000000 0.000000 0.000000
# 4 0.000000 0.000000 0.000000 0.043456 0.000000 0.000000
# 5 0.000000 0.000000 0.000000 0.000000 0.043456 0.000000
# 6 0.000000 0.000000 0.000000 0.000000 0.000000 0.035180
#
#
# Mechanical properties :
#
#
# Convention : Reuss Voigt Hill
#
# Bulk Modulus (GPa) = 54.90714 54.95472 54.93093
# Shear Modulus (GPa) = 25.45531 25.85591 25.65561
#
# Velocity S-wave (km/s) = 3.65024 3.67885 3.66457
# Velocity P-wave (km/s) = 6.81954 6.84183 6.83069
#
# Compressibility (1/GPa) = 0.01821257
#
# Stress axis : x y z
#
# Youngs Moduli (GPa) = 74.51590 74.51700 60.98980
#
# Poissons Ratio (x) = 0.19800 0.30051
# Poissons Ratio (y) = 0.19800 0.30051
# Poissons Ratio (z) = 0.36716 0.36716
#
# Static dielectric constant tensor:
#      x y z
#    x 1.665240 0.000000 0.000000 
#    y 0.000000 1.665240 0.000000 
#    z 0.000000 0.000000 1.658110 
# 
# From -- ./inp_files/4382.got.cif
#   From: 2010.05.17/outbox.cif.g08.bks.cpg/sg126_3_cif.got.tgz:4382.got - 2010.05.20 11:58:20.
