data_PCOD9563292
_publ_section_title
;
Structure prediction by ZEFSAII (Michael W. Deem and Ramdas Pophale) SiO2 
 PCOD9563292
Probable space group: P 4/N N C
;
_chemical_formula_sum "Si O2"
_cell_formula_units_Z 96
_cell_length_a 14.589470
_cell_length_b 14.589470
_cell_length_c 19.715389
_cell_angle_alpha 90.000000
_cell_angle_beta 90.000000
_cell_angle_gamma 90.000000
_cell_volume 4196.472496
_symmetry_space_group_name_H-M "P 4/N N C"
_symmetry_group_IT_number 126
_space_group.IT_coordinate_system_code '2'
_symmetry_cell_setting 'tetragonal'
loop_
_space_group_symop_operation_xyz
x,y,z
1/2-y,x,z
1/2-x,1/2-y,z
y,1/2-x,z
x,1/2-y,1/2-z
1/2-x,y,1/2-z
y,x,1/2-z
1/2-y,1/2-x,1/2-z
-x,-y,-z
1/2+y,-x,-z
1/2+x,1/2+y,-z
-y,1/2+x,-z
-x,1/2+y,1/2+z
1/2+x,-y,1/2+z
-y,-x,1/2+z
1/2+y,1/2+x,1/2+z
loop_
_atom_site_type_symbol
_atom_site_label
_atom_site_fract_x
_atom_site_fract_y
_atom_site_fract_z
Si Si1 0.547938 0.851738 0.962537
Si Si2 0.064901 0.033349 0.579972
Si Si3 0.113583 0.735673 0.030496
Si Si4 0.407397 0.953217 0.788424
Si Si5 0.479443 0.228023 0.175004
Si Si6 0.109798 0.627185 0.151907
O O1 0.578490 0.804651 0.891461
O O2 0.481622 0.938403 0.944298
O O3 0.606647 0.902827 0.021007
O O4 0.487528 0.776799 0.002285
O O5 0.976946 0.086825 0.610873
O O6 0.126403 0.006721 0.645053
O O7 0.135630 0.715113 0.108262
O O8 0.157092 0.829261 0.007729
O O9 0.457609 0.860639 0.811776
O O10 0.345837 0.921588 0.726444
O O11 0.483030 0.016971 0.750000
O O12 0.436862 0.250000 0.250000
O O13 0.547466 0.312643 0.155899
#
# Coordination Sequence:
#
# PCOD9563292 Si02
#       6
#    16  16  16  16  16  16
#     4   9  15  26  38  56  77 104 136 180 223 249
#     4   8  15  24  40  56  75  99 131 185 225 256
#     4  10  18  26  38  54  80 115 145 174 209 258
#     4   8  14  24  38  57  77 102 136 177 223 256
#     4   9  15  23  38  55  80 107 131 170 211 256
#     4   9  15  25  38  57  78 105 139 174 219 256
#
# _framework density 22.876355
#
# number of rings (size 3 to 8) (size 9 to 14) (size 15 to 20)
#    0.000    3.167    1.667    0.000    0.000    0.000 
#    0.000    0.000    0.000   12.000    0.000    0.000 
#    0.000  432.333    0.000    0.000    0.000    0.000 
#
# Total GULP energy -534414.545727 kJ/mol
# GULP energy per Si atom -5566.818185 kJ/mol
# Density = 2.282429 g / cm^3
# Si number density = 22.876355 Si / 1000 Ang^3
#
#
#
# Elastic Constant Matrix: (Units=GPa)
#
#
# Indices 1 2 3 4 5 6 
#
# 1 40.6307 25.0921 32.0111 0.0000 0.0000 0.0000
# 2 25.0921 40.6284 32.0112 0.0000 0.0000 0.0000
# 3 32.0111 32.0112 210.7346 0.0000 0.0000 0.0000
# 4 0.0000 0.0000 0.0000 19.8032 0.0000 0.0000
# 5 0.0000 0.0000 0.0000 0.0000 19.8029 0.0000
# 6 0.0000 0.0000 0.0000 0.0000 0.0000 18.8210
#
#
#
# Elastic Compliance Matrix: (Units=1/GPa)
#
#
# Indices 1 2 3 4 5 6 
#
# 1 0.041108 -0.023251 -0.002713 0.000000 0.000000 0.000000
# 2 -0.023251 0.041111 -0.002713 0.000000 0.000000 0.000000
# 3 -0.002713 -0.002713 0.005569 0.000000 0.000000 0.000000
# 4 0.000000 0.000000 0.000000 0.050497 0.000000 0.000000
# 5 0.000000 0.000000 0.000000 0.000000 0.050498 0.000000
# 6 0.000000 0.000000 0.000000 0.000000 0.000000 0.053132
#
#
# Mechanical properties :
#
#
# Convention : Reuss Voigt Hill
#
# Bulk Modulus (GPa) = 32.85681 52.24696 42.55189
# Shear Modulus (GPa) = 16.15963 25.21072 20.68518
#
# Velocity S-wave (km/s) = 2.66068 3.32330 3.01028
# Velocity P-wave (km/s) = 4.88190 6.13304 5.54289
#
# Compressibility (1/GPa) = 0.03043509
#
# Stress axis : x y z
#
# Youngs Moduli (GPa) = 24.32611 24.32455 179.55113
#
# Poissons Ratio (x) = 0.56557 0.48703
# Poissons Ratio (y) = 0.56561 0.48711
# Poissons Ratio (z) = 0.06598 0.06599
#
# Static dielectric constant tensor:
#      x y z
#    x 1.911940 0.000000 0.000000 
#    y 0.000000 1.911950 0.000000 
#    z 0.000000 0.000000 2.008590 
# 
# From -- ./inp_files/5251.got.cif
#   From: 2010.05.17/outbox.cif.g08.bks.cpg/sg126_3_cif.got.tgz:5251.got - 2010.05.20 11:58:20.
