data_PCOD9563162
_publ_section_title
;
Structure prediction by ZEFSAII (Michael W. Deem and Ramdas Pophale) SiO2 
 PCOD9563162
Probable space group: P 4/N B M
;
_chemical_formula_sum "Si O2"
_cell_formula_units_Z 72
_cell_length_a 15.014867
_cell_length_b 15.014867
_cell_length_c 14.924363
_cell_angle_alpha 90.000000
_cell_angle_beta 90.000000
_cell_angle_gamma 90.000000
_cell_volume 3364.641389
_symmetry_space_group_name_H-M "P 4/N B M"
_symmetry_group_IT_number 125
_space_group.IT_coordinate_system_code '2'
_symmetry_cell_setting 'tetragonal'
loop_
_space_group_symop_operation_xyz
x,y,z
1/2-y,x,z
1/2-x,1/2-y,z
y,1/2-x,z
x,1/2-y,-z
1/2-x,y,-z
y,x,-z
1/2-y,1/2-x,-z
-x,-y,-z
1/2+y,-x,-z
1/2+x,1/2+y,-z
-y,1/2+x,-z
-x,1/2+y,z
1/2+x,-y,z
-y,-x,z
1/2+y,1/2+x,z
loop_
_atom_site_type_symbol
_atom_site_label
_atom_site_fract_x
_atom_site_fract_y
_atom_site_fract_z
Si Si1 0.012179 0.250000 0.000000
Si Si2 0.391292 0.208872 0.824253
Si Si3 0.410447 0.910447 0.420277
Si Si4 0.055426 0.944575 0.370610
Si Si5 0.181322 0.818679 0.841853
Si Si6 0.956772 0.251597 0.698868
Si Si7 0.422244 0.577757 0.000421
O O1 0.958465 0.168625 0.955450
O O2 0.067254 0.201505 0.077152
O O3 0.355810 0.309019 0.817995
O O4 0.459827 0.199706 0.744631
O O5 0.423186 0.923186 0.525477
O O6 0.310588 0.930820 0.386832
O O7 0.479496 0.979496 0.372123
O O8 0.148925 0.972649 0.325112
O O9 0.250000 0.750000 0.888395
O O10 0.236537 0.881631 0.774713
O O11 0.119596 0.880405 0.906775
O O12 0.500000 0.500000 0.000000
#
# Coordination Sequence:
#
# PCOD9563162 Si02
#       7
#     8  16   8   8   8  16   8
#     4  12  26  42  64  92 134 176 240 277 345 402
#     4  11  23  40  63  91 127 174 224 277 330 389
#     4  10  24  40  66  98 132 167 215 267 326 422
#     4  11  22  42  66  97 130 173 210 262 344 400
#     4  11  23  43  63  98 131 173 226 280 337 406
#     4  11  22  41  65  95 131 166 217 270 333 396
#     4  12  27  45  65  94 133 183 231 285 350 403
#
# _framework density 21.399010000000001
#
# number of rings (size 3 to 8) (size 9 to 14) (size 15 to 20)
#    0.000    0.889    3.333    4.000    1.556    1.778 
#    0.000    1.111    0.000    0.000    0.000    9.333 
#    0.000    0.000    0.000    0.000    0.000    0.000 
#
# Total GULP energy -402186.693915 kJ/mol
# GULP energy per Si atom -5585.926304 kJ/mol
# Density = 2.135031 g / cm^3
# Si number density = 21.399010 Si / 1000 Ang^3
#
#
#
# Elastic Constant Matrix: (Units=GPa)
#
#
# Indices 1 2 3 4 5 6 
#
# 1 87.5413 12.0354 9.4598 0.0000 0.0000 0.0000
# 2 12.0354 87.5413 9.4598 0.0000 0.0000 0.0000
# 3 9.4598 9.4598 70.3732 0.0000 0.0000 0.0000
# 4 0.0000 0.0000 0.0000 26.6357 0.0000 0.0000
# 5 0.0000 0.0000 0.0000 0.0000 26.6357 0.0000
# 6 0.0000 0.0000 0.0000 0.0000 0.0000 80.1343
#
#
#
# Elastic Compliance Matrix: (Units=1/GPa)
#
#
# Indices 1 2 3 4 5 6 
#
# 1 0.011775 -0.001469 -0.001385 0.000000 0.000000 0.000000
# 2 -0.001469 0.011775 -0.001385 0.000000 0.000000 0.000000
# 3 -0.001385 -0.001385 0.014582 0.000000 0.000000 0.000000
# 4 0.000000 0.000000 0.000000 0.037544 0.000000 0.000000
# 5 0.000000 0.000000 0.000000 0.000000 0.037544 0.000000
# 6 0.000000 0.000000 0.000000 0.000000 0.000000 0.012479
#
#
# Mechanical properties :
#
#
# Convention : Reuss Voigt Hill
#
# Bulk Modulus (GPa) = 33.72391 34.15172 33.93782
# Shear Modulus (GPa) = 34.70728 40.98121 37.84424
#
# Velocity S-wave (km/s) = 4.03166 4.38093 4.20992
# Velocity P-wave (km/s) = 6.12096 6.44858 6.28691
#
# Compressibility (1/GPa) = 0.02965255
#
# Stress axis : x y z
#
# Youngs Moduli (GPa) = 84.92669 84.92669 68.57588
#
# Poissons Ratio (x) = 0.12477 0.09500
# Poissons Ratio (y) = 0.12477 0.09500
# Poissons Ratio (z) = 0.11765 0.11765
#
# Static dielectric constant tensor:
#      x y z
#    x 1.791100 0.000000 0.000000 
#    y 0.000000 1.791100 0.000000 
#    z 0.000000 0.000000 1.747280 
# 
# From -- ./inp_files/5392.got.cif
#   From: 2010.05.17/outbox.cif.g08.bks.cpg/sg125_3_cif.got.tgz:5392.got - 2010.05.20 11:54:10.
