data_PCOD9563483
_publ_section_title
;
Structure prediction by ZEFSAII (Michael W. Deem and Ramdas Pophale) SiO2 
 PCOD9563483
Probable space group: P 4/N N C
;
_chemical_formula_sum "Si O2"
_cell_formula_units_Z 112
_cell_length_a 13.715267
_cell_length_b 13.715267
_cell_length_c 24.262402
_cell_angle_alpha 90.000000
_cell_angle_beta 90.000000
_cell_angle_gamma 90.000000
_cell_volume 4563.965233
_symmetry_space_group_name_H-M "P 4/N N C"
_symmetry_group_IT_number 126
_space_group.IT_coordinate_system_code '2'
_symmetry_cell_setting 'tetragonal'
loop_
_space_group_symop_operation_xyz
x,y,z
1/2-y,x,z
1/2-x,1/2-y,z
y,1/2-x,z
x,1/2-y,1/2-z
1/2-x,y,1/2-z
y,x,1/2-z
1/2-y,1/2-x,1/2-z
-x,-y,-z
1/2+y,-x,-z
1/2+x,1/2+y,-z
-y,1/2+x,-z
-x,1/2+y,1/2+z
1/2+x,-y,1/2+z
-y,-x,1/2+z
1/2+y,1/2+x,1/2+z
loop_
_atom_site_type_symbol
_atom_site_label
_atom_site_fract_x
_atom_site_fract_y
_atom_site_fract_z
Si Si1 0.694867 0.894040 0.088969
Si Si2 0.168136 0.453966 0.788404
Si Si3 0.628300 0.638254 0.913219
Si Si4 0.419044 0.621374 0.937118
Si Si5 0.794394 0.412107 0.053126
Si Si6 0.098588 0.012782 0.196447
Si Si7 0.857594 0.234100 0.348129
O O1 0.633766 0.802336 0.070806
O O2 0.706832 0.914261 0.154078
O O3 0.647614 0.990024 0.065260
O O4 0.250000 0.507336 0.750000
O O5 0.133482 0.366519 0.750000
O O6 0.069353 0.512479 0.804412
O O7 0.744034 0.617127 0.923028
O O8 0.532448 0.593018 0.943529
O O9 0.612226 0.589356 0.853102
O O10 0.318695 0.561492 0.936324
O O11 0.408280 0.675050 0.878131
O O12 0.392427 0.690535 0.989141
O O13 0.830624 0.336139 0.099150
O O14 0.188758 0.937743 0.191762
O O15 0.076383 0.076383 0.250000
O O16 0.750000 0.250000 0.323045
#
# Coordination Sequence:
#
# PCOD9563483 Si02
#       7
#    16  16  16  16  16  16  16
#     4  11  24  40  61  96 143 186 237 289 357 446
#     4  11  22  38  66  98 135 188 236 289 369 447
#     4  11  26  49  75 104 146 197 252 317 378 454
#     4  11  23  43  74 106 146 188 252 308 389 456
#     4  11  23  40  73 106 143 194 239 307 381 464
#     4  11  25  47  73 107 146 191 258 315 389 458
#     4  10  21  43  71 108 149 189 247 316 384 458
#
# _framework density 24.540063
#
# number of rings (size 3 to 8) (size 9 to 14) (size 15 to 20)
#    0.000    1.143    5.714    0.000    2.000    1.857 
#    0.000    4.286    0.000    0.000    0.000    0.000 
#    0.000    0.000    0.000    0.000    0.000    0.000 
#
# Total GULP energy -623939.978556 kJ/mol
# GULP energy per Si atom -5570.892666 kJ/mol
# Density = 2.448421 g / cm^3
# Si number density = 24.540063 Si / 1000 Ang^3
#
#
#
# Elastic Constant Matrix: (Units=GPa)
#
#
# Indices 1 2 3 4 5 6 
#
# 1 55.9588 29.1344 16.3861 0.0000 0.0000 0.0000
# 2 29.1344 55.9592 16.3863 0.0000 0.0000 0.0000
# 3 16.3861 16.3863 57.1883 0.0000 0.0000 0.0000
# 4 0.0000 0.0000 0.0000 10.8924 0.0000 0.0000
# 5 0.0000 0.0000 0.0000 0.0000 10.8920 0.0000
# 6 0.0000 0.0000 0.0000 0.0000 0.0000 -1.5773
#
#
#
# Elastic Compliance Matrix: (Units=1/GPa)
#
#
# Indices 1 2 3 4 5 6 
#
# 1 0.025244 -0.012035 -0.003785 0.000000 0.000000 0.000000
# 2 -0.012035 0.025244 -0.003785 0.000000 0.000000 0.000000
# 3 -0.003785 -0.003785 0.019655 0.000000 0.000000 0.000000
# 4 0.000000 0.000000 0.000000 0.091807 0.000000 0.000000
# 5 0.000000 0.000000 0.000000 0.000000 0.091811 0.000000
# 6 0.000000 0.000000 0.000000 0.000000 0.000000 -0.633996
#
#
# Mechanical properties :
#
#
# Convention : Reuss Voigt Hill
#
# Bulk Modulus (GPa) = 32.32651 32.54668 32.43660
# Shear Modulus (GPa) = -15.11884 11.18804 -1.96540
#
# Velocity S-wave (km/s) = -2.48481 2.13752 -0.89590
# Velocity P-wave (km/s) = 2.22917 4.40266 3.48946
#
# Compressibility (1/GPa) = 0.03093436
#
# Stress axis : x y z
#
# Youngs Moduli (GPa) = 39.61265 39.61291 50.87744
#
# Poissons Ratio (x) = 0.47674 0.19256
# Poissons Ratio (y) = 0.47673 0.19257
# Poissons Ratio (z) = 0.14993 0.14993
#
# Static dielectric constant tensor:
#      x y z
#    x 2.015020 0.000000 0.000000 
#    y 0.000000 2.014980 0.000000 
#    z 0.000000 0.000000 1.941170 
# 
# From -- ./inp_files/6204.got.cif
#   From: 2010.05.17/outbox.cif.g08.bks.cpg/sg126_4_cif.got.tgz:6204.got - 2010.05.20 11:58:20.
