data_PCOD9563288
_publ_section_title
;
Structure prediction by ZEFSAII (Michael W. Deem and Ramdas Pophale) SiO2 
 PCOD9563288
Probable space group: P 4/N N C
;
_chemical_formula_sum "Si O2"
_cell_formula_units_Z 64
_cell_length_a 25.336068
_cell_length_b 25.336068
_cell_length_c 4.976915
_cell_angle_alpha 90.000000
_cell_angle_beta 90.000000
_cell_angle_gamma 90.000000
_cell_volume 3194.763070
_symmetry_space_group_name_H-M "P 4/N N C"
_symmetry_group_IT_number 126
_space_group.IT_coordinate_system_code '2'
_symmetry_cell_setting 'tetragonal'
loop_
_space_group_symop_operation_xyz
x,y,z
1/2-y,x,z
1/2-x,1/2-y,z
y,1/2-x,z
x,1/2-y,1/2-z
1/2-x,y,1/2-z
y,x,1/2-z
1/2-y,1/2-x,1/2-z
-x,-y,-z
1/2+y,-x,-z
1/2+x,1/2+y,-z
-y,1/2+x,-z
-x,1/2+y,1/2+z
1/2+x,-y,1/2+z
-y,-x,1/2+z
1/2+y,1/2+x,1/2+z
loop_
_atom_site_type_symbol
_atom_site_label
_atom_site_fract_x
_atom_site_fract_y
_atom_site_fract_z
Si Si1 0.540146 0.784849 0.016203
Si Si2 0.307420 0.647693 0.643404
Si Si3 0.038011 0.858603 0.215854
Si Si4 0.107548 0.022609 0.180260
O O1 0.534029 0.750000 0.750000
O O2 0.559563 0.843494 0.926847
O O3 0.567387 0.750000 0.250000
O O4 0.485834 0.804945 0.152741
O O5 0.250000 0.633171 0.750000
O O6 0.308742 0.669236 0.344190
O O7 0.347004 0.598325 0.664567
O O8 0.020254 0.900727 0.442576
O O9 0.007567 0.871536 0.942432
O O10 0.057548 0.057548 0.250000
#
# Coordination Sequence:
#
# PCOD9563288 Si02
#       4
#    16  16  16  16
#     4  10  17  29  52  85 113 153 193 239 293 340
#     4  12  27  44  66  91 119 155 201 251 307 367
#     4  10  21  36  61  82 120 149 201 243 301 346
#     4  10  20  33  56  87 122 159 194 246 302 345
#
# _framework density 20.032783999999999
#
# number of rings (size 3 to 8) (size 9 to 14) (size 15 to 20)
#    1.500    0.000    2.500    3.750    0.000    1.500 
#    0.000    0.000    0.000   15.000    0.000    0.000 
#    0.000    0.500    9.000    0.000    0.000    0.000 
#
# Total GULP energy -356479.593177 kJ/mol
# GULP energy per Si atom -5569.993643 kJ/mol
# Density = 1.998719 g / cm^3
# Si number density = 20.032784 Si / 1000 Ang^3
#
#
#
# Elastic Constant Matrix: (Units=GPa)
#
#
# Indices 1 2 3 4 5 6 
#
# 1 62.8723 32.8182 28.3451 0.0000 0.0000 0.0000
# 2 32.8182 62.8723 28.3451 0.0000 0.0000 0.0000
# 3 28.3451 28.3451 133.7505 0.0000 0.0000 0.0000
# 4 0.0000 0.0000 0.0000 21.1043 0.0000 0.0000
# 5 0.0000 0.0000 0.0000 0.0000 21.1043 0.0000
# 6 0.0000 0.0000 0.0000 0.0000 0.0000 9.2855
#
#
#
# Elastic Compliance Matrix: (Units=1/GPa)
#
#
# Indices 1 2 3 4 5 6 
#
# 1 0.022612 -0.010661 -0.002533 0.000000 0.000000 0.000000
# 2 -0.010661 0.022612 -0.002533 0.000000 0.000000 0.000000
# 3 -0.002533 -0.002533 0.008550 0.000000 0.000000 0.000000
# 4 0.000000 0.000000 0.000000 0.047384 0.000000 0.000000
# 5 0.000000 0.000000 0.000000 0.000000 0.047384 0.000000
# 6 0.000000 0.000000 0.000000 0.000000 0.000000 0.107694
#
#
# Mechanical properties :
#
#
# Convention : Reuss Voigt Hill
#
# Bulk Modulus (GPa) = 44.80091 48.72355 46.76223
# Shear Modulus (GPa) = 16.94170 21.63127 19.28648
#
# Velocity S-wave (km/s) = 2.91125 3.28959 3.10618
# Velocity P-wave (km/s) = 5.80627 6.22922 6.02146
#
# Compressibility (1/GPa) = 0.02232097
#
# Stress axis : x y z
#
# Youngs Moduli (GPa) = 44.22413 44.22413 116.95796
#
# Poissons Ratio (x) = 0.47149 0.29622
# Poissons Ratio (y) = 0.47149 0.29622
# Poissons Ratio (z) = 0.11201 0.11201
#
# Static dielectric constant tensor:
#      x y z
#    x 1.733760 0.000000 0.000000 
#    y 0.000000 1.733760 0.000000 
#    z 0.000000 0.000000 1.742440 
# 
# From -- ./inp_files/444.got.cif
#   From: 2010.05.17/outbox.cif.g08.bks.cpg/sg126_1_cif.got.tgz:444.got - 2010.05.20 11:58:20.
