data_PCOD9563899
_publ_section_title
;
Structure prediction by ZEFSAII (Michael W. Deem and Ramdas Pophale) SiO2 
 PCOD9563899
Probable space group: P 4/M B M
;
_chemical_formula_sum "Si O2"
_cell_formula_units_Z 96
_cell_length_a 24.652074
_cell_length_b 24.652074
_cell_length_c 8.417328
_cell_angle_alpha 90.000000
_cell_angle_beta 90.000000
_cell_angle_gamma 90.000000
_cell_volume 5115.418576
_symmetry_space_group_name_H-M "P 4/M B M"
_symmetry_group_IT_number 127
_symmetry_cell_setting 'tetragonal'
loop_
_space_group_symop_operation_xyz
x,y,z
-y,x,z
-x,-y,z
y,-x,z
1/2+x,1/2-y,-z
1/2-x,1/2+y,-z
1/2+y,1/2+x,-z
1/2-y,1/2-x,-z
-x,-y,-z
y,-x,-z
x,y,-z
-y,x,-z
1/2-x,1/2+y,z
1/2+x,1/2-y,z
1/2-y,1/2-x,z
1/2+y,1/2+x,z
loop_
_atom_site_type_symbol
_atom_site_label
_atom_site_fract_x
_atom_site_fract_y
_atom_site_fract_z
Si Si1 0.500131 0.912402 0.193677
Si Si2 0.513636 0.789232 0.807506
Si Si3 0.724021 0.689032 0.807885
Si Si4 0.300914 0.430531 0.688070
Si Si5 0.467681 0.581817 0.191905
Si Si6 0.777618 0.363812 0.806520
O O1 0.553999 0.946002 0.241208
O O2 0.499277 0.850297 0.246554
O O3 0.448500 0.948500 0.243278
O O4 0.500251 0.911867 0.000000
O O5 0.472455 0.743575 0.752328
O O6 0.574628 0.775980 0.752340
O O7 0.513592 0.789643 0.000000
O O8 0.778553 0.721448 0.760141
O O9 0.716383 0.629361 0.742695
O O10 0.673471 0.727058 0.758440
O O11 0.723976 0.686635 0.000000
O O12 0.301602 0.432892 0.500000
O O13 0.360874 0.445936 0.749221
O O14 0.431574 0.529717 0.241584
O O15 0.467213 0.582797 0.000000
O O16 0.832127 0.332127 0.757994
O O17 0.777617 0.364484 0.000000
#
# Coordination Sequence:
#
# PCOD9563899 Si02
#       6
#    16  16  16  16  16  16
#     4   8  14  26  48  80 113 141 175 227 284 327
#     4  10  19  32  53  81 110 144 187 230 272 322
#     4   9  19  38  61  81 103 138 190 243 287 332
#     4  12  26  38  52  81 121 158 188 223 277 344
#     4   9  20  41  67  89 108 138 186 241 291 338
#     4   8  15  30  56  86 107 129 173 237 291 322
#
# _framework density 18.766791999999999
#
# number of rings (size 3 to 8) (size 9 to 14) (size 15 to 20)
#    0.000    2.667    0.000    4.000    2.333    3.667 
#    0.000    2.500    0.000    3.000    0.000    1.167 
#    0.000    0.000    0.000    0.000    0.000    0.000 
#
# Total GULP energy -535579.405248 kJ/mol
# GULP energy per Si atom -5578.952138 kJ/mol
# Density = 1.872408 g / cm^3
# Si number density = 18.766792 Si / 1000 Ang^3
#
#
#
# Elastic Constant Matrix: (Units=GPa)
#
#
# Indices 1 2 3 4 5 6 
#
# 1 142.1220 155.5607 28.4361 0.0000 0.0000 0.0000
# 2 155.5607 142.1220 28.4361 0.0000 0.0000 0.0000
# 3 28.4361 28.4361 18.5192 0.0000 0.0000 0.0000
# 4 0.0000 0.0000 0.0000 -23.4938 0.0000 0.0000
# 5 0.0000 0.0000 0.0000 0.0000 -23.4938 0.0000
# 6 0.0000 0.0000 0.0000 0.0000 0.0000 16.6100
#
#
#
# Elastic Compliance Matrix: (Units=1/GPa)
#
#
# Indices 1 2 3 4 5 6 
#
# 1 -0.034829 0.039583 -0.007300 0.000000 0.000000 0.000000
# 2 0.039583 -0.034829 -0.007300 0.000000 0.000000 0.000000
# 3 -0.007300 -0.007300 0.076415 0.000000 0.000000 0.000000
# 4 0.000000 0.000000 0.000000 -0.042564 0.000000 0.000000
# 5 0.000000 0.000000 0.000000 0.000000 -0.042564 0.000000
# 6 0.000000 0.000000 0.000000 0.000000 0.000000 0.060205
#
#
# Mechanical properties :
#
#
# Convention : Reuss Voigt Hill
#
# Bulk Modulus (GPa) = 17.62910 80.84769 49.23840
# Shear Modulus (GPa) = -101.57059 -0.05350 -50.81205
#
# Velocity S-wave (km/s) = -7.36478 -0.16902 -5.20906
# Velocity P-wave (km/s) = 7.93132 6.56777 3.14406
#
# Compressibility (1/GPa) = 0.05672438
#
# Stress axis : x y z
#
# Youngs Moduli (GPa) = -28.71174 -28.71174 13.08648
#
# Poissons Ratio (x) = 1.13649 0.09552
# Poissons Ratio (y) = 1.13649 0.09552
# Poissons Ratio (z) = -0.20958 -0.20958
#
# Static dielectric constant tensor:
#      x y z
#    x 1.637650 0.000000 0.000000 
#    y 0.000000 1.637650 0.000000 
#    z 0.000000 0.000000 1.639220 
# 
# From -- ./inp_files/2038.got.cif
#   From: 2010.05.17/outbox.cif.g08.bks.cpg/sg127_2_cif.got.tgz:2038.got - 2010.05.20 12:03:00.
