data_PCOD9563491
_publ_section_title
;
Structure prediction by ZEFSAII (Michael W. Deem and Ramdas Pophale) SiO2 
 PCOD9563491
Probable space group: P 4/N N C
;
_chemical_formula_sum "Si O2"
_cell_formula_units_Z 48
_cell_length_a 16.346980
_cell_length_b 16.346980
_cell_length_c 8.599329
_cell_angle_alpha 90.000000
_cell_angle_beta 90.000000
_cell_angle_gamma 90.000000
_cell_volume 2297.944987
_symmetry_space_group_name_H-M "P 4/N N C"
_symmetry_group_IT_number 126
_space_group.IT_coordinate_system_code '2'
_symmetry_cell_setting 'tetragonal'
loop_
_space_group_symop_operation_xyz
x,y,z
1/2-y,x,z
1/2-x,1/2-y,z
y,1/2-x,z
x,1/2-y,1/2-z
1/2-x,y,1/2-z
y,x,1/2-z
1/2-y,1/2-x,1/2-z
-x,-y,-z
1/2+y,-x,-z
1/2+x,1/2+y,-z
-y,1/2+x,-z
-x,1/2+y,1/2+z
1/2+x,-y,1/2+z
-y,-x,1/2+z
1/2+y,1/2+x,1/2+z
loop_
_atom_site_type_symbol
_atom_site_label
_atom_site_fract_x
_atom_site_fract_y
_atom_site_fract_z
Si Si1 0.885576 0.166042 0.832065
Si Si2 0.732197 0.028763 0.576380
Si Si3 0.507171 0.918897 0.107799
O O1 0.861556 0.250000 0.750000
O O2 0.809776 0.118290 0.902734
O O3 0.925150 0.104996 0.704961
O O4 0.954051 0.193417 0.958561
O O5 0.750000 0.999168 0.750000
O O6 0.660558 0.976481 0.496273
O O7 0.568572 0.931429 0.250000
O O8 0.500000 0.000000 0.000000
#
# Coordination Sequence:
#
# PCOD9563491 Si02
#       3
#    16  16  16
#     4  10  22  36  55  89 126 171 208 247 292 367
#     4  11  22  37  57  88 126 170 211 249 295 373
#     4  11  22  37  61  81 114 169 217 257 308 345
#
# _framework density 20.888228999999999
#
# number of rings (size 3 to 8) (size 9 to 14) (size 15 to 20)
#    0.000    1.333    3.333    4.000    0.000    4.000 
#    0.000    0.000    0.000    0.000    0.000    0.000 
#    0.000   54.000  120.000    0.000    0.000    0.000 
#
# Total GULP energy -267871.655293 kJ/mol
# GULP energy per Si atom -5580.659485 kJ/mol
# Density = 2.084069 g / cm^3
# Si number density = 20.888229 Si / 1000 Ang^3
#
#
#
# Elastic Constant Matrix: (Units=GPa)
#
#
# Indices 1 2 3 4 5 6 
#
# 1 62.0629 32.1651 50.9285 0.0000 0.0000 0.0000
# 2 32.1651 62.0651 50.9285 0.0000 0.0000 0.0000
# 3 50.9285 50.9285 185.5178 0.0000 0.0000 0.0000
# 4 0.0000 0.0000 0.0000 58.5807 0.0000 0.0000
# 5 0.0000 0.0000 0.0000 0.0000 58.5806 0.0000
# 6 0.0000 0.0000 0.0000 0.0000 0.0000 32.3677
#
#
#
# Elastic Compliance Matrix: (Units=1/GPa)
#
#
# Indices 1 2 3 4 5 6 
#
# 1 0.024269 -0.009178 -0.004143 0.000000 0.000000 0.000000
# 2 -0.009178 0.024268 -0.004142 0.000000 0.000000 0.000000
# 3 -0.004143 -0.004142 0.007665 0.000000 0.000000 0.000000
# 4 0.000000 0.000000 0.000000 0.017070 0.000000 0.000000
# 5 0.000000 0.000000 0.000000 0.000000 0.017071 0.000000
# 6 0.000000 0.000000 0.000000 0.000000 0.000000 0.030895
#
#
# Mechanical properties :
#
#
# Convention : Reuss Voigt Hill
#
# Bulk Modulus (GPa) = 47.00333 64.18778 55.59556
# Shear Modulus (GPa) = 30.62690 41.61404 36.12047
#
# Velocity S-wave (km/s) = 3.83329 4.46828 4.16291
# Velocity P-wave (km/s) = 6.49179 7.57737 7.05549
#
# Compressibility (1/GPa) = 0.02127509
#
# Stress axis : x y z
#
# Youngs Moduli (GPa) = 41.20513 41.20706 130.46663
#
# Poissons Ratio (x) = 0.37819 0.54050
# Poissons Ratio (y) = 0.37817 0.54045
# Poissons Ratio (z) = 0.17070 0.17070
#
# Static dielectric constant tensor:
#      x y z
#    x 1.779990 0.000000 0.000000 
#    y 0.000000 1.779990 0.000000 
#    z 0.000000 0.000000 1.866770 
# 
# From -- ./inp_files/1042.got.cif
#   From: 2010.05.17/outbox.cif.g08.bks.cpg/sg126_1_cif.got.tgz:1042.got - 2010.05.20 11:58:20.
