data_PCOD9563456
_publ_section_title
;
Structure prediction by ZEFSAII (Michael W. Deem and Ramdas Pophale) SiO2 
 PCOD9563456
Probable space group: P 4/N N C
;
_chemical_formula_sum "Si O2"
_cell_formula_units_Z 80
_cell_length_a 17.033889
_cell_length_b 17.033889
_cell_length_c 13.822136
_cell_angle_alpha 90.000000
_cell_angle_beta 90.000000
_cell_angle_gamma 90.000000
_cell_volume 4010.539403
_symmetry_space_group_name_H-M "P 4/N N C"
_symmetry_group_IT_number 126
_space_group.IT_coordinate_system_code '2'
_symmetry_cell_setting 'tetragonal'
loop_
_space_group_symop_operation_xyz
x,y,z
1/2-y,x,z
1/2-x,1/2-y,z
y,1/2-x,z
x,1/2-y,1/2-z
1/2-x,y,1/2-z
y,x,1/2-z
1/2-y,1/2-x,1/2-z
-x,-y,-z
1/2+y,-x,-z
1/2+x,1/2+y,-z
-y,1/2+x,-z
-x,1/2+y,1/2+z
1/2+x,-y,1/2+z
-y,-x,1/2+z
1/2+y,1/2+x,1/2+z
loop_
_atom_site_type_symbol
_atom_site_label
_atom_site_fract_x
_atom_site_fract_y
_atom_site_fract_z
Si Si1 0.203234 0.864537 0.461100
Si Si2 0.617430 0.518477 0.069376
Si Si3 0.342020 0.618572 0.778621
Si Si4 0.881492 0.761754 0.355241
Si Si5 0.451061 0.590582 0.086275
O O1 0.290139 0.847249 0.498424
O O2 0.194236 0.861671 0.345382
O O3 0.163009 0.938908 0.511769
O O4 0.632170 0.450479 0.147610
O O5 0.702308 0.559959 0.067022
O O6 0.542668 0.571181 0.103690
O O7 0.588081 0.482937 0.968654
O O8 0.250000 0.620083 0.750000
O O9 0.388247 0.597410 0.681578
O O10 0.816009 0.830277 0.359654
O O11 0.922094 0.750000 0.250000
#
# Coordination Sequence:
#
# PCOD9563456 Si02
#       5
#    16  16  16  16  16
#     4  10  21  38  56  80 112 146 197 252 292 348
#     4  10  22  35  56  78 124 154 189 246 286 360
#     4  11  21  35  59  82 109 156 198 241 299 355
#     4   9  19  32  52  89 118 149 192 237 296 368
#     4  10  22  37  50  86 110 155 204 231 295 355
#
# _framework density 19.947441999999999
#
# number of rings (size 3 to 8) (size 9 to 14) (size 15 to 20)
#    0.000    2.000    2.000    1.800    8.400    0.800 
#    0.000    0.000    0.000    2.400    0.000    0.000 
#    0.000    0.000    0.000   80.400    4.400    0.000 
#
# Total GULP energy -445818.618201 kJ/mol
# GULP energy per Si atom -5572.732728 kJ/mol
# Density = 1.990204 g / cm^3
# Si number density = 19.947442 Si / 1000 Ang^3
#
#
#
# Elastic Constant Matrix: (Units=GPa)
#
#
# Indices 1 2 3 4 5 6 
#
# 1 48.7333 42.8704 30.0877 0.0000 0.0000 0.0000
# 2 42.8704 48.7333 30.0877 0.0000 0.0000 0.0000
# 3 30.0877 30.0877 124.5075 0.0000 0.0000 0.0000
# 4 0.0000 0.0000 0.0000 31.9326 0.0000 0.0000
# 5 0.0000 0.0000 0.0000 0.0000 31.9326 0.0000
# 6 0.0000 0.0000 0.0000 0.0000 0.0000 37.7625
#
#
#
# Elastic Compliance Matrix: (Units=1/GPa)
#
#
# Indices 1 2 3 4 5 6 
#
# 1 0.091771 -0.078795 -0.003136 0.000000 0.000000 0.000000
# 2 -0.078795 0.091771 -0.003136 0.000000 0.000000 0.000000
# 3 -0.003136 -0.003136 0.009547 0.000000 0.000000 0.000000
# 4 0.000000 0.000000 0.000000 0.031316 0.000000 0.000000
# 5 0.000000 0.000000 0.000000 0.000000 0.031316 0.000000
# 6 0.000000 0.000000 0.000000 0.000000 0.000000 0.026481
#
#
# Mechanical properties :
#
#
# Convention : Reuss Voigt Hill
#
# Bulk Modulus (GPa) = 43.55973 47.56287 45.56130
# Shear Modulus (GPa) = 10.86985 28.25410 19.56197
#
# Velocity S-wave (km/s) = 2.33689 3.76763 3.13497
# Velocity P-wave (km/s) = 5.40056 6.54389 5.99953
#
# Compressibility (1/GPa) = 0.02295698
#
# Stress axis : x y z
#
# Youngs Moduli (GPa) = 10.89666 10.89666 104.74257
#
# Poissons Ratio (x) = 0.85860 0.32846
# Poissons Ratio (y) = 0.85860 0.32846
# Poissons Ratio (z) = 0.03417 0.03417
#
# Static dielectric constant tensor:
#      x y z
#    x 1.775010 0.000000 0.000000 
#    y 0.000000 1.775010 0.000000 
#    z 0.000000 0.000000 1.729330 
# 
# From -- ./inp_files/3663.got.cif
#   From: 2010.05.17/outbox.cif.g08.bks.cpg/sg126_2_cif.got.tgz:3663.got - 2010.05.20 11:58:20.
