data_PCOD9563339
_publ_section_title
;
Structure prediction by ZEFSAII (Michael W. Deem and Ramdas Pophale) SiO2 
 PCOD9563339
Probable space group: P 4/N N C
;
_chemical_formula_sum "Si O2"
_cell_formula_units_Z 96
_cell_length_a 22.793535
_cell_length_b 22.793535
_cell_length_c 10.594957
_cell_angle_alpha 90.000000
_cell_angle_beta 90.000000
_cell_angle_gamma 90.000000
_cell_volume 5504.559454
_symmetry_space_group_name_H-M "P 4/N N C"
_symmetry_group_IT_number 126
_space_group.IT_coordinate_system_code '2'
_symmetry_cell_setting 'tetragonal'
loop_
_space_group_symop_operation_xyz
x,y,z
1/2-y,x,z
1/2-x,1/2-y,z
y,1/2-x,z
x,1/2-y,1/2-z
1/2-x,y,1/2-z
y,x,1/2-z
1/2-y,1/2-x,1/2-z
-x,-y,-z
1/2+y,-x,-z
1/2+x,1/2+y,-z
-y,1/2+x,-z
-x,1/2+y,1/2+z
1/2+x,-y,1/2+z
-y,-x,1/2+z
1/2+y,1/2+x,1/2+z
loop_
_atom_site_type_symbol
_atom_site_label
_atom_site_fract_x
_atom_site_fract_y
_atom_site_fract_z
Si Si1 0.445844 0.890034 0.860106
Si Si2 0.468339 0.759220 0.894666
Si Si3 0.585544 0.907590 0.896248
Si Si4 0.040563 0.874588 0.930621
Si Si5 0.651976 0.750000 0.250000
Si Si6 0.783135 0.910346 0.999613
Si Si7 0.750000 0.652392 0.750000
O O1 0.433468 0.820652 0.886435
O O2 0.514100 0.905873 0.891710
O O3 0.439835 0.898234 0.708454
O O4 0.406326 0.928619 0.952456
O O5 0.490430 0.750000 0.750000
O O6 0.445231 0.695069 0.931646
O O7 0.520662 0.774229 0.988737
O O8 0.602935 0.897066 0.750000
O O9 0.603650 0.852290 0.981629
O O10 0.612477 0.970224 0.935453
O O11 0.693897 0.693897 0.250000
O O12 0.614404 0.744715 0.375278
O O13 0.751232 0.884401 0.877082
O O14 0.805423 0.694578 0.750000
#
# Coordination Sequence:
#
# PCOD9563339 Si02
#       7
#    16  16  16  16   8  16   8
#     4   9  19  36  54  84 118 142 177 229 278 336
#     4   9  19  36  59  84 107 142 182 233 283 323
#     4   9  19  33  58  84 110 143 185 239 283 326
#     4  10  19  35  59  83 111 148 180 222 284 338
#     4  11  26  40  46  64 112 160 184 233 292 324
#     4  11  21  37  55  74 107 142 194 239 280 322
#     4  11  22  30  52  78  96 138 198 243 262 312
#
# _framework density 17.440086999999998
#
# number of rings (size 3 to 8) (size 9 to 14) (size 15 to 20)
#    0.000    2.167    0.833    3.000    4.667    1.333 
#    6.000    0.000    0.000    0.500    0.000    3.500 
#    0.000    0.000    0.000    0.000    0.000    0.000 
#
# Total GULP energy -535139.901778 kJ/mol
# GULP energy per Si atom -5574.373977 kJ/mol
# Density = 1.740039 g / cm^3
# Si number density = 17.440087 Si / 1000 Ang^3
#
#
#
# Elastic Constant Matrix: (Units=GPa)
#
#
# Indices 1 2 3 4 5 6 
#
# 1 60.5539 31.6316 41.6648 0.0000 0.0000 0.0000
# 2 31.6316 60.5544 41.6642 0.0000 0.0000 0.0000
# 3 41.6648 41.6642 117.9866 0.0000 0.0000 0.0000
# 4 0.0000 0.0000 0.0000 29.8731 0.0000 0.0000
# 5 0.0000 0.0000 0.0000 0.0000 29.8775 0.0000
# 6 0.0000 0.0000 0.0000 0.0000 0.0000 20.3308
#
#
#
# Elastic Compliance Matrix: (Units=1/GPa)
#
#
# Indices 1 2 3 4 5 6 
#
# 1 0.025255 -0.009321 -0.005627 0.000000 0.000000 0.000000
# 2 -0.009321 0.025254 -0.005627 0.000000 0.000000 0.000000
# 3 -0.005627 -0.005627 0.012449 0.000000 0.000000 0.000000
# 4 0.000000 0.000000 0.000000 0.033475 0.000000 0.000000
# 5 0.000000 0.000000 0.000000 0.000000 0.033470 0.000000
# 6 0.000000 0.000000 0.000000 0.000000 0.000000 0.049186
#
#
# Mechanical properties :
#
#
# Convention : Reuss Voigt Hill
#
# Bulk Modulus (GPa) = 45.85002 52.11291 48.98147
# Shear Modulus (GPa) = 21.97729 24.29192 23.13461
#
# Velocity S-wave (km/s) = 3.55372 3.73618 3.64609
# Velocity P-wave (km/s) = 6.57158 6.96836 6.77288
#
# Compressibility (1/GPa) = 0.02181024
#
# Stress axis : x y z
#
# Youngs Moduli (GPa) = 39.59669 39.59746 80.32502
#
# Poissons Ratio (x) = 0.36907 0.45198
# Poissons Ratio (y) = 0.36907 0.45195
# Poissons Ratio (z) = 0.22280 0.22280
#
# Static dielectric constant tensor:
#      x y z
#    x 1.607690 0.000000 0.000000 
#    y 0.000000 1.607680 0.000000 
#    z 0.000000 0.000000 1.583000 
# 
# From -- ./inp_files/2933.got.cif
#   From: 2010.05.17/outbox.cif.g08.bks.cpg/sg126_2_cif.got.tgz:2933.got - 2010.05.20 11:58:20.
