data_PCOD9563799
_publ_section_title
;
Structure prediction by ZEFSAII (Michael W. Deem and Ramdas Pophale) SiO2 
 PCOD9563799
Probable space group: P 4/M B M
;
_chemical_formula_sum "Si O2"
_cell_formula_units_Z 96
_cell_length_a 22.926563
_cell_length_b 22.926563
_cell_length_c 9.210926
_cell_angle_alpha 90.000000
_cell_angle_beta 90.000000
_cell_angle_gamma 90.000000
_cell_volume 4841.514081
_symmetry_space_group_name_H-M "P 4/M B M"
_symmetry_group_IT_number 127
_symmetry_cell_setting 'tetragonal'
loop_
_space_group_symop_operation_xyz
x,y,z
-y,x,z
-x,-y,z
y,-x,z
1/2+x,1/2-y,-z
1/2-x,1/2+y,-z
1/2+y,1/2+x,-z
1/2-y,1/2-x,-z
-x,-y,-z
y,-x,-z
x,y,-z
-y,x,-z
1/2-x,1/2+y,z
1/2+x,1/2-y,z
1/2-y,1/2-x,z
1/2+y,1/2+x,z
loop_
_atom_site_type_symbol
_atom_site_label
_atom_site_fract_x
_atom_site_fract_y
_atom_site_fract_z
Si Si1 0.006770 0.406548 0.831287
Si Si2 0.923450 0.751284 0.827220
Si Si3 0.667980 0.924606 0.662962
Si Si4 0.249090 0.749090 0.829254
Si Si5 0.204155 0.039500 0.664812
Si Si6 0.828704 0.854849 0.832663
Si Si7 0.835819 0.664182 0.324917
O O1 0.956127 0.456127 0.821284
O O2 0.978274 0.351137 0.761182
O O3 0.063991 0.436010 0.763843
O O4 0.017486 0.396200 0.000000
O O5 0.877500 0.804925 0.813134
O O6 0.893456 0.694558 0.748819
O O7 0.982243 0.776920 0.754512
O O8 0.930794 0.739465 0.000000
O O9 0.648016 0.939144 0.500000
O O10 0.633504 0.866497 0.707965
O O11 0.736439 0.922810 0.659176
O O12 0.182625 0.769013 0.810186
O O13 0.287126 0.787126 0.717789
O O14 0.264363 0.764363 0.000000
O O15 0.187473 0.023788 0.500000
O O16 0.162209 0.087071 0.738493
O O17 0.828344 0.873772 0.000000
O O18 0.842211 0.657790 0.500000
#
# Coordination Sequence:
#
# PCOD9563799 Si02
#       7
#    16  16  16   8  16  16   8
#     4   8  14  26  44  64  86 119 170 224 265 305
#     4  10  21  40  62  84 117 156 199 242 288 351
#     4   9  19  34  48  69 106 145 179 218 271 332
#     4   8  16  32  54  84 118 152 194 234 284 354
#     4  11  23  36  55  85 117 150 189 236 292 349
#     4   9  19  36  59  85 113 150 191 237 290 345
#     4  10  18  32  58  88 117 149 191 243 296 347
#
# _framework density 19.828506999999998
#
# number of rings (size 3 to 8) (size 9 to 14) (size 15 to 20)
#    0.000    2.667    0.000    3.250    1.167    5.000 
#    1.500    1.667    0.000    0.500    0.000    3.500 
#    0.000    0.000    0.000    0.000    0.000    0.000 
#
# Total GULP energy -534580.431492 kJ/mol
# GULP energy per Si atom -5568.546161 kJ/mol
# Density = 1.978338 g / cm^3
# Si number density = 19.828507 Si / 1000 Ang^3
#
#
#
# Elastic Constant Matrix: (Units=GPa)
#
#
# Indices 1 2 3 4 5 6 
#
# 1 62.5489 22.1725 42.0018 0.0000 0.0000 0.0000
# 2 22.1725 62.5489 42.0018 0.0000 0.0000 0.0000
# 3 42.0018 42.0018 95.3478 0.0000 0.0000 0.0000
# 4 0.0000 0.0000 0.0000 23.9183 0.0000 0.0000
# 5 0.0000 0.0000 0.0000 0.0000 23.9184 0.0000
# 6 0.0000 0.0000 0.0000 0.0000 0.0000 20.8307
#
#
#
# Elastic Compliance Matrix: (Units=1/GPa)
#
#
# Indices 1 2 3 4 5 6 
#
# 1 0.022862 -0.001905 -0.009232 0.000000 0.000000 0.000000
# 2 -0.001905 0.022862 -0.009232 0.000000 0.000000 0.000000
# 3 -0.009232 -0.009232 0.018621 0.000000 0.000000 0.000000
# 4 0.000000 0.000000 0.000000 0.041809 0.000000 0.000000
# 5 0.000000 0.000000 0.000000 0.000000 0.041809 0.000000
# 6 0.000000 0.000000 0.000000 0.000000 0.000000 0.048006
#
#
# Mechanical properties :
#
#
# Convention : Reuss Voigt Hill
#
# Bulk Modulus (GPa) = 42.35828 48.08864 45.22346
# Shear Modulus (GPa) = 20.44357 21.35145 20.89751
#
# Velocity S-wave (km/s) = 3.21443 3.28503 3.24992
# Velocity P-wave (km/s) = 5.93173 6.22041 6.07779
#
# Compressibility (1/GPa) = 0.02360813
#
# Stress axis : x y z
#
# Youngs Moduli (GPa) = 43.74081 43.74076 53.70182
#
# Poissons Ratio (x) = 0.08332 0.49576
# Poissons Ratio (y) = 0.08333 0.49576
# Poissons Ratio (z) = 0.40381 0.40381
#
# Static dielectric constant tensor:
#      x y z
#    x 1.733250 0.000000 0.000000 
#    y 0.000000 1.733250 0.000000 
#    z 0.000000 0.000000 1.719800 
# 
# From -- ./inp_files/2069.got.cif
#   From: 2010.05.17/outbox.cif.g08.bks.cpg/sg127_2_cif.got.tgz:2069.got - 2010.05.20 12:03:00.
