data_PCOD9563282
_publ_section_title
;
Structure prediction by ZEFSAII (Michael W. Deem and Ramdas Pophale) SiO2 
 PCOD9563282
Probable space group: P 4/N N C
;
_chemical_formula_sum "Si O2"
_cell_formula_units_Z 56
_cell_length_a 16.601977
_cell_length_b 16.601977
_cell_length_c 9.836116
_cell_angle_alpha 90.000000
_cell_angle_beta 90.000000
_cell_angle_gamma 90.000000
_cell_volume 2711.085771
_symmetry_space_group_name_H-M "P 4/N N C"
_symmetry_group_IT_number 126
_space_group.IT_coordinate_system_code '2'
_symmetry_cell_setting 'tetragonal'
loop_
_space_group_symop_operation_xyz
x,y,z
1/2-y,x,z
1/2-x,1/2-y,z
y,1/2-x,z
x,1/2-y,1/2-z
1/2-x,y,1/2-z
y,x,1/2-z
1/2-y,1/2-x,1/2-z
-x,-y,-z
1/2+y,-x,-z
1/2+x,1/2+y,-z
-y,1/2+x,-z
-x,1/2+y,1/2+z
1/2+x,-y,1/2+z
-y,-x,1/2+z
1/2+y,1/2+x,1/2+z
loop_
_atom_site_type_symbol
_atom_site_label
_atom_site_fract_x
_atom_site_fract_y
_atom_site_fract_z
Si Si1 0.365717 0.134284 0.250000
Si Si2 0.447617 0.842684 0.744286
Si Si3 0.477742 0.909213 0.451924
Si Si4 0.685272 0.639276 0.446482
O O1 0.458606 0.149505 0.209911
O O2 0.356488 0.184955 0.387310
O O3 0.421579 0.750000 0.750000
O O4 0.445504 0.867715 0.587880
O O5 0.405735 0.909646 0.837216
O O6 0.559498 0.863435 0.409285
O O7 0.500000 0.000000 0.500000
O O8 0.778029 0.642687 0.401534
#
# Coordination Sequence:
#
# PCOD9563282 Si02
#       4
#     8  16  16  16
#     4  10  16  29  54  90 136 163 208 258 336 408
#     4  11  22  39  66  97 131 172 229 283 335 406
#     4  11  21  38  65  98 135 178 224 271 344 416
#     4  10  19  31  56  96 135 170 216 275 341 412
#
# _framework density 20.655930999999999
#
# number of rings (size 3 to 8) (size 9 to 14) (size 15 to 20)
#    0.000    1.429    5.714    4.286    0.000    1.143 
#    0.000    1.429    6.286    2.571    0.000    8.000 
#    0.000    0.000    0.000    0.000    0.000    0.000 
#
# Total GULP energy -312875.807917 kJ/mol
# GULP energy per Si atom -5587.067999 kJ/mol
# Density = 2.060892 g / cm^3
# Si number density = 20.655931 Si / 1000 Ang^3
#
#
#
# Elastic Constant Matrix: (Units=GPa)
#
#
# Indices 1 2 3 4 5 6 
#
# 1 158.8187 80.8928 50.9587 0.0000 0.0000 0.0000
# 2 80.8928 158.8178 50.9589 0.0000 0.0000 0.0000
# 3 50.9587 50.9589 79.2862 0.0000 0.0000 0.0000
# 4 0.0000 0.0000 0.0000 22.8254 0.0000 0.0000
# 5 0.0000 0.0000 0.0000 0.0000 22.8258 0.0000
# 6 0.0000 0.0000 0.0000 0.0000 0.0000 33.7146
#
#
#
# Elastic Compliance Matrix: (Units=1/GPa)
#
#
# Indices 1 2 3 4 5 6 
#
# 1 0.009286 -0.003546 -0.003689 0.000000 0.000000 0.000000
# 2 -0.003546 0.009287 -0.003689 0.000000 0.000000 0.000000
# 3 -0.003689 -0.003689 0.017355 0.000000 0.000000 0.000000
# 4 0.000000 0.000000 0.000000 0.043811 0.000000 0.000000
# 5 0.000000 0.000000 0.000000 0.000000 0.043810 0.000000
# 6 0.000000 0.000000 0.000000 0.000000 0.000000 0.029661
#
#
# Mechanical properties :
#
#
# Convention : Reuss Voigt Hill
#
# Bulk Modulus (GPa) = 71.03266 84.72705 77.87985
# Shear Modulus (GPa) = 27.81602 30.14732 28.98167
#
# Velocity S-wave (km/s) = 3.67363 3.82448 3.74982
# Velocity P-wave (km/s) = 7.24274 7.78521 7.51887
#
# Compressibility (1/GPa) = 0.01407803
#
# Stress axis : x y z
#
# Youngs Moduli (GPa) = 107.68321 107.68220 57.62016
#
# Poissons Ratio (x) = 0.38187 0.21258
# Poissons Ratio (y) = 0.38187 0.21259
# Poissons Ratio (z) = 0.39728 0.39729
#
# Static dielectric constant tensor:
#      x y z
#    x 1.740860 0.000000 0.000000 
#    y 0.000000 1.740870 0.000000 
#    z 0.000000 0.000000 1.815170 
# 
# From -- ./inp_files/2385.got.cif
#   From: 2010.05.17/outbox.cif.g08.bks.cpg/sg126_2_cif.got.tgz:2385.got - 2010.05.20 11:58:20.
