data_PCOD9563883
_publ_section_title
;
Structure prediction by ZEFSAII (Michael W. Deem and Ramdas Pophale) SiO2 
 PCOD9563883
Probable space group: P 4/M B M
;
_chemical_formula_sum "Si O2"
_cell_formula_units_Z 120
_cell_length_a 15.411584
_cell_length_b 15.411584
_cell_length_c 30.451388
_cell_angle_alpha 90.000000
_cell_angle_beta 90.000000
_cell_angle_gamma 90.000000
_cell_volume 7232.719930
_symmetry_space_group_name_H-M "P 4/M B M"
_symmetry_group_IT_number 127
_symmetry_cell_setting 'tetragonal'
loop_
_space_group_symop_operation_xyz
x,y,z
-y,x,z
-x,-y,z
y,-x,z
1/2+x,1/2-y,-z
1/2-x,1/2+y,-z
1/2+y,1/2+x,-z
1/2-y,1/2-x,-z
-x,-y,-z
y,-x,-z
x,y,-z
-y,x,-z
1/2-x,1/2+y,z
1/2+x,1/2-y,z
1/2-y,1/2-x,z
1/2+y,1/2+x,z
loop_
_atom_site_type_symbol
_atom_site_label
_atom_site_fract_x
_atom_site_fract_y
_atom_site_fract_z
Si Si1 0.869318 0.938569 0.868545
Si Si2 0.045154 0.687767 0.106275
Si Si3 0.019546 0.853707 0.644563
Si Si4 0.019443 0.854201 0.452870
Si Si5 0.320273 0.680823 0.208622
Si Si6 0.408686 0.229542 0.283595
Si Si7 0.174056 0.469011 0.204306
Si Si8 0.925099 0.574902 0.949153
O O1 0.786390 0.923664 0.898970
O O2 0.839512 0.903272 0.820802
O O3 0.959961 0.889610 0.874160
O O4 0.123974 0.623974 0.097219
O O5 0.014570 0.674744 0.156785
O O6 0.965356 0.657112 0.076048
O O7 0.024892 0.813401 0.595359
O O8 0.035298 0.780489 0.680741
O O9 0.928642 0.906107 0.648733
O O10 0.025834 0.806511 0.500000
O O11 0.928796 0.906883 0.453148
O O12 0.234944 0.734944 0.193146
O O13 0.299921 0.650305 0.257684
O O14 0.400016 0.746829 0.205533
O O15 0.344086 0.155915 0.301879
O O16 0.465985 0.187312 0.244719
O O17 0.086166 0.413835 0.208711
O O18 0.000000 0.500000 0.946779
O O19 0.907596 0.592405 0.000000
#
# Coordination Sequence:
#
# PCOD9563883 Si02
#       8
#    16  16  16  16  16  16  16   8
#     4  11  21  33  50  78 111 143 176 207 250 309
#     4  11  20  34  57  82 106 136 171 218 264 304
#     4   9  17  29  46  66  90 124 163 204 252 307
#     4   7  10  19  38  64  88 109 144 199 257 307
#     4  10  19  32  49  70 102 137 174 221 257 293
#     4  11  21  31  43  62  98 137 171 203 245 299
#     4  11  21  33  50  74 100 131 174 214 254 294
#     4   9  20  38  62  90 112 132 166 219 274 312
#
# _framework density 16.591270000000002
#
# number of rings (size 3 to 8) (size 9 to 14) (size 15 to 20)
#    0.000    2.067    3.333    2.800    0.000    0.800 
#    1.200    1.333    0.000    1.200    0.000    0.933 
#    0.000    1.600    0.000    1.200    0.000    0.000 
#
# Total GULP energy -668158.950638 kJ/mol
# GULP energy per Si atom -5567.991255 kJ/mol
# Density = 1.655351 g / cm^3
# Si number density = 16.591270 Si / 1000 Ang^3
#
#
#
# Elastic Constant Matrix: (Units=GPa)
#
#
# Indices 1 2 3 4 5 6 
#
# 1 59.9357 13.3938 19.7854 0.0000 0.0000 0.0000
# 2 13.3938 59.9357 19.7854 0.0000 0.0000 0.0000
# 3 19.7854 19.7854 78.6952 0.0000 0.0000 0.0000
# 4 0.0000 0.0000 0.0000 14.1801 0.0000 0.0000
# 5 0.0000 0.0000 0.0000 0.0000 14.1801 0.0000
# 6 0.0000 0.0000 0.0000 0.0000 0.0000 19.5989
#
#
#
# Elastic Compliance Matrix: (Units=1/GPa)
#
#
# Indices 1 2 3 4 5 6 
#
# 1 0.018632 -0.002854 -0.003967 0.000000 0.000000 0.000000
# 2 -0.002854 0.018632 -0.003967 0.000000 0.000000 0.000000
# 3 -0.003967 -0.003967 0.014702 0.000000 0.000000 0.000000
# 4 0.000000 0.000000 0.000000 0.070521 0.000000 0.000000
# 5 0.000000 0.000000 0.000000 0.000000 0.070521 0.000000
# 6 0.000000 0.000000 0.000000 0.000000 0.000000 0.051023
#
#
# Mechanical properties :
#
#
# Convention : Reuss Voigt Hill
#
# Bulk Modulus (GPa) = 32.90546 33.83286 33.36916
# Shear Modulus (GPa) = 18.13323 19.29863 18.71593
#
# Velocity S-wave (km/s) = 3.30955 3.41424 3.36230
# Velocity P-wave (km/s) = 5.87198 5.99825 5.93545
#
# Compressibility (1/GPa) = 0.03039009
#
# Stress axis : x y z
#
# Youngs Moduli (GPa) = 53.67153 53.67155 68.01839
#
# Poissons Ratio (x) = 0.15319 0.26982
# Poissons Ratio (y) = 0.15319 0.26982
# Poissons Ratio (z) = 0.21290 0.21290
#
# Static dielectric constant tensor:
#      x y z
#    x 1.579800 0.000000 0.000000 
#    y 0.000000 1.579800 0.000000 
#    z 0.000000 0.000000 1.566830 
# 
# From -- ./inp_files/6678.got.cif
#   From: 2010.05.17/outbox.cif.g08.bks.cpg/sg127_4_cif.got.tgz:6678.got - 2010.05.20 12:03:00.
