data_PCOD9563872
_publ_section_title
;
Structure prediction by ZEFSAII (Michael W. Deem and Ramdas Pophale) SiO2 
 PCOD9563872
Probable space group: P 4/M B M
;
_chemical_formula_sum "Si O2"
_cell_formula_units_Z 96
_cell_length_a 14.132488
_cell_length_b 14.132488
_cell_length_c 25.414875
_cell_angle_alpha 90.000000
_cell_angle_beta 90.000000
_cell_angle_gamma 90.000000
_cell_volume 5076.042256
_symmetry_space_group_name_H-M "P 4/M B M"
_symmetry_group_IT_number 127
_symmetry_cell_setting 'tetragonal'
loop_
_space_group_symop_operation_xyz
x,y,z
-y,x,z
-x,-y,z
y,-x,z
1/2+x,1/2-y,-z
1/2-x,1/2+y,-z
1/2+y,1/2+x,-z
1/2-y,1/2-x,-z
-x,-y,-z
y,-x,-z
x,y,-z
-y,x,-z
1/2-x,1/2+y,z
1/2+x,1/2-y,z
1/2-y,1/2-x,z
1/2+y,1/2+x,z
loop_
_atom_site_type_symbol
_atom_site_label
_atom_site_fract_x
_atom_site_fract_y
_atom_site_fract_z
Si Si1 0.714244 0.371580 0.267838
Si Si2 0.361684 0.703070 0.165190
Si Si3 0.740188 0.085278 0.437424
Si Si4 0.884609 0.224593 0.614893
Si Si5 0.846835 0.496643 0.202038
Si Si6 0.381779 0.606737 0.943431
O O1 0.773852 0.273852 0.271494
O O2 0.642327 0.358246 0.218992
O O3 0.680464 0.392023 0.326442
O O4 0.789001 0.451824 0.250123
O O5 0.274721 0.774721 0.168871
O O6 0.455147 0.768640 0.165057
O O7 0.347049 0.647008 0.111583
O O8 0.738583 0.069630 0.500000
O O9 0.647394 0.147394 0.422977
O O10 0.829535 0.150407 0.421780
O O11 0.747841 0.986343 0.407490
O O12 0.817769 0.317769 0.618033
O O13 0.911095 0.411095 0.179399
O O14 0.920434 0.579567 0.217329
O O15 0.372068 0.493881 0.943346
O O16 0.343016 0.642263 0.000000
#
# Coordination Sequence:
#
# PCOD9563872 Si02
#       6
#    16  16  16  16  16  16
#     4   9  19  33  50  77 109 141 177 220 272 324
#     4  10  19  31  52  78 107 140 173 218 269 323
#     4  10  22  40  63  87 113 153 197 237 289 348
#     4  10  22  39  59  86 120 151 189 243 290 341
#     4   9  18  32  51  75 105 142 178 212 265 335
#     4   9  18  33  51  71  98 135 179 222 264 314
#
# _framework density 18.912372000000001
#
# number of rings (size 3 to 8) (size 9 to 14) (size 15 to 20)
#    0.000    2.500    0.000    2.000    2.333    2.667 
#    0.000    3.333    0.000    1.500    0.000    2.333 
#    0.000    0.000    0.000    0.000    0.000    0.000 
#
# Total GULP energy -534800.081293 kJ/mol
# GULP energy per Si atom -5570.834180 kJ/mol
# Density = 1.886933 g / cm^3
# Si number density = 18.912372 Si / 1000 Ang^3
#
#
#
# Elastic Constant Matrix: (Units=GPa)
#
#
# Indices 1 2 3 4 5 6 
#
# 1 64.0239 28.3401 36.1600 0.0000 0.0000 0.0000
# 2 28.3401 64.0239 36.1600 0.0000 0.0000 0.0000
# 3 36.1600 36.1600 123.2053 0.0000 0.0000 0.0000
# 4 0.0000 0.0000 0.0000 26.6926 0.0000 0.0000
# 5 0.0000 0.0000 0.0000 0.0000 26.6926 0.0000
# 6 0.0000 0.0000 0.0000 0.0000 0.0000 12.0482
#
#
#
# Elastic Compliance Matrix: (Units=1/GPa)
#
#
# Indices 1 2 3 4 5 6 
#
# 1 0.021041 -0.006983 -0.004126 0.000000 0.000000 0.000000
# 2 -0.006983 0.021041 -0.004126 0.000000 0.000000 0.000000
# 3 -0.004126 -0.004126 0.010538 0.000000 0.000000 0.000000
# 4 0.000000 0.000000 0.000000 0.037464 0.000000 0.000000
# 5 0.000000 0.000000 0.000000 0.000000 0.037464 0.000000
# 6 0.000000 0.000000 0.000000 0.000000 0.000000 0.083000
#
#
# Mechanical properties :
#
#
# Convention : Reuss Voigt Hill
#
# Bulk Modulus (GPa) = 45.14723 50.28590 47.71657
# Shear Modulus (GPa) = 20.12891 23.12623 21.62757
#
# Velocity S-wave (km/s) = 3.26594 3.50066 3.38534
# Velocity P-wave (km/s) = 6.17620 6.55638 6.36913
#
# Compressibility (1/GPa) = 0.02214975
#
# Stress axis : x y z
#
# Youngs Moduli (GPa) = 47.52738 47.52738 94.89238
#
# Poissons Ratio (x) = 0.33190 0.39149
# Poissons Ratio (y) = 0.33190 0.39149
# Poissons Ratio (z) = 0.19608 0.19608
#
# Static dielectric constant tensor:
#      x y z
#    x 1.671020 0.000000 0.000000 
#    y 0.000000 1.671020 0.000000 
#    z 0.000000 0.000000 1.676900 
# 
# From -- ./inp_files/5776.got.cif
#   From: 2010.05.17/outbox.cif.g08.bks.cpg/sg127_3_cif.got.tgz:5776.got - 2010.05.20 12:03:00.
