data_PCOD9563776
_publ_section_title
;
Structure prediction by ZEFSAII (Michael W. Deem and Ramdas Pophale) SiO2 
 PCOD9563776
Probable space group: P 4/M B M
;
_chemical_formula_sum "Si O2"
_cell_formula_units_Z 96
_cell_length_a 26.169681
_cell_length_b 26.169681
_cell_length_c 8.360963
_cell_angle_alpha 90.000000
_cell_angle_beta 90.000000
_cell_angle_gamma 90.000000
_cell_volume 5726.023935
_symmetry_space_group_name_H-M "P 4/M B M"
_symmetry_group_IT_number 127
_symmetry_cell_setting 'tetragonal'
loop_
_space_group_symop_operation_xyz
x,y,z
-y,x,z
-x,-y,z
y,-x,z
1/2+x,1/2-y,-z
1/2-x,1/2+y,-z
1/2+y,1/2+x,-z
1/2-y,1/2-x,-z
-x,-y,-z
y,-x,-z
x,y,-z
-y,x,-z
1/2-x,1/2+y,z
1/2+x,1/2-y,z
1/2-y,1/2-x,z
1/2+y,1/2+x,z
loop_
_atom_site_type_symbol
_atom_site_label
_atom_site_fract_x
_atom_site_fract_y
_atom_site_fract_z
Si Si1 0.251666 0.445180 0.683381
Si Si2 0.236407 0.553355 0.811215
Si Si3 0.168839 0.249823 0.694404
Si Si4 0.356544 0.939451 0.182384
Si Si5 0.040501 0.622589 0.311411
Si Si6 0.664550 0.753668 0.307294
O O1 0.268820 0.447201 0.500000
O O2 0.264534 0.500186 0.762088
O O3 0.263566 0.388485 0.752995
O O4 0.190115 0.442670 0.696392
O O5 0.181465 0.552610 0.724652
O O6 0.257663 0.608950 0.764427
O O7 0.228606 0.551412 0.000000
O O8 0.165069 0.253679 0.500000
O O9 0.197632 0.302369 0.748726
O O10 0.208309 0.204325 0.730483
O O11 0.389707 0.889707 0.205417
O O12 0.389955 0.989493 0.214381
O O13 0.336746 0.940747 0.000000
O O14 0.031512 0.616058 0.500000
O O15 0.087348 0.587348 0.263243
O O16 0.659536 0.756343 0.500000
O O17 0.693422 0.806579 0.256562
#
# Coordination Sequence:
#
# PCOD9563776 Si02
#       6
#    16  16  16  16  16  16
#     4  10  18  30  49  68  87 115 150 184 220 264
#     4  11  21  31  44  64  91 120 149 181 219 264
#     4   8  15  28  48  73  95 116 147 189 232 271
#     4  10  20  31  42  58  81 109 140 177 223 268
#     4  10  20  32  45  59  75 102 143 187 227 264
#     4   9  17  31  50  70  93 120 151 188 229 272
#
# _framework density 16.765559
#
# number of rings (size 3 to 8) (size 9 to 14) (size 15 to 20)
#    0.000    2.333    0.000    7.000    0.000    6.000 
#    0.000    3.333    0.000    2.000    0.000    0.000 
#    0.000    0.667    0.000    7.667    0.000    3.000 
#
# Total GULP energy -534440.033568 kJ/mol
# GULP energy per Si atom -5567.083683 kJ/mol
# Density = 1.672740 g / cm^3
# Si number density = 16.765559 Si / 1000 Ang^3
#
#
#
# Elastic Constant Matrix: (Units=GPa)
#
#
# Indices 1 2 3 4 5 6 
#
# 1 78.4050 23.8207 3.5718 0.0000 0.0000 0.0000
# 2 23.8207 78.4050 3.5718 0.0000 0.0000 0.0000
# 3 3.5718 3.5718 14.2111 0.0000 0.0000 0.0000
# 4 0.0000 0.0000 0.0000 54.8714 0.0000 0.0000
# 5 0.0000 0.0000 0.0000 0.0000 54.8714 0.0000
# 6 0.0000 0.0000 0.0000 0.0000 0.0000 19.7577
#
#
#
# Elastic Compliance Matrix: (Units=1/GPa)
#
#
# Indices 1 2 3 4 5 6 
#
# 1 0.014139 -0.004182 -0.002503 0.000000 0.000000 0.000000
# 2 -0.004182 0.014139 -0.002503 0.000000 0.000000 0.000000
# 3 -0.002503 -0.002503 0.071626 0.000000 0.000000 0.000000
# 4 0.000000 0.000000 0.000000 0.018224 0.000000 0.000000
# 5 0.000000 0.000000 0.000000 0.000000 0.018224 0.000000
# 6 0.000000 0.000000 0.000000 0.000000 0.000000 0.050613
#
#
# Mechanical properties :
#
#
# Convention : Reuss Voigt Hill
#
# Bulk Modulus (GPa) = 12.26550 25.88329 19.07439
# Shear Modulus (GPa) = 21.50398 35.23723 28.37060
#
# Velocity S-wave (km/s) = 3.58527 4.58947 4.11809
# Velocity P-wave (km/s) = 4.94678 6.59971 5.83210
#
# Compressibility (1/GPa) = 0.08152951
#
# Stress axis : x y z
#
# Youngs Moduli (GPa) = 70.72771 70.72771 13.96150
#
# Poissons Ratio (x) = 0.29575 0.03494
# Poissons Ratio (y) = 0.29575 0.03494
# Poissons Ratio (z) = 0.17700 0.17700
#
# Static dielectric constant tensor:
#      x y z
#    x 1.605130 0.000000 0.000000 
#    y 0.000000 1.605130 0.000000 
#    z 0.000000 0.000000 1.579030 
# 
# From -- ./inp_files/2227.got.cif
#   From: 2010.05.17/outbox.cif.g08.bks.cpg/sg127_2_cif.got.tgz:2227.got - 2010.05.20 12:03:00.
