data_PCOD9563467
_publ_section_title
;
Structure prediction by ZEFSAII (Michael W. Deem and Ramdas Pophale) SiO2 
 PCOD9563467
Probable space group: P 4/N N C
;
_chemical_formula_sum "Si O2"
_cell_formula_units_Z 64
_cell_length_a 16.493547
_cell_length_b 16.493547
_cell_length_c 11.223149
_cell_angle_alpha 90.000000
_cell_angle_beta 90.000000
_cell_angle_gamma 90.000000
_cell_volume 3053.112824
_symmetry_space_group_name_H-M "P 4/N N C"
_symmetry_group_IT_number 126
_space_group.IT_coordinate_system_code '2'
_symmetry_cell_setting 'tetragonal'
loop_
_space_group_symop_operation_xyz
x,y,z
1/2-y,x,z
1/2-x,1/2-y,z
y,1/2-x,z
x,1/2-y,1/2-z
1/2-x,y,1/2-z
y,x,1/2-z
1/2-y,1/2-x,1/2-z
-x,-y,-z
1/2+y,-x,-z
1/2+x,1/2+y,-z
-y,1/2+x,-z
-x,1/2+y,1/2+z
1/2+x,-y,1/2+z
-y,-x,1/2+z
1/2+y,1/2+x,1/2+z
loop_
_atom_site_type_symbol
_atom_site_label
_atom_site_fract_x
_atom_site_fract_y
_atom_site_fract_z
Si Si1 0.453997 0.769948 0.473272
Si Si2 0.877592 0.734891 0.108024
Si Si3 0.673217 0.362836 0.831745
Si Si4 0.527765 0.841601 0.705579
O O1 0.531030 0.720469 0.428058
O O2 0.391713 0.715040 0.546210
O O3 0.401433 0.806895 0.366890
O O4 0.496978 0.831977 0.568220
O O5 0.836216 0.818529 0.064222
O O6 0.875025 0.750000 0.250000
O O7 0.750000 0.336202 0.750000
O O8 0.638615 0.444030 0.772379
O O9 0.550045 0.750000 0.750000
O O10 0.596390 0.903611 0.750000
#
# Coordination Sequence:
#
# PCOD9563467 Si02
#       4
#    16  16  16  16
#     4  10  21  39  64  85 121 168 208 258 333 376
#     4   9  20  38  58  88 126 159 207 261 311 390
#     4   9  22  42  58  91 121 155 213 263 312 393
#     4   9  21  39  57  90 129 157 208 264 313 393
#
# _framework density 20.962212999999998
#
# number of rings (size 3 to 8) (size 9 to 14) (size 15 to 20)
#    0.000    3.250    0.000    0.750    7.000    5.750 
#    4.500    5.000    0.000    0.000    0.000    0.000 
#    0.000    0.000    0.000    0.000    0.000    0.000 
#
# Total GULP energy -356505.869765 kJ/mol
# GULP energy per Si atom -5570.404215 kJ/mol
# Density = 2.091450 g / cm^3
# Si number density = 20.962213 Si / 1000 Ang^3
#
#
#
# Elastic Constant Matrix: (Units=GPa)
#
#
# Indices 1 2 3 4 5 6 
#
# 1 76.5461 49.5065 25.0979 0.0000 0.0000 0.0000
# 2 49.5065 76.5486 25.0975 0.0000 0.0000 0.0000
# 3 25.0979 25.0975 43.6815 0.0000 0.0000 0.0000
# 4 0.0000 0.0000 0.0000 -2.6694 0.0000 0.0000
# 5 0.0000 0.0000 0.0000 0.0000 -2.6711 0.0000
# 6 0.0000 0.0000 0.0000 0.0000 0.0000 16.0947
#
#
#
# Elastic Compliance Matrix: (Units=1/GPa)
#
#
# Indices 1 2 3 4 5 6 
#
# 1 0.023634 -0.013347 -0.005911 0.000000 0.000000 0.000000
# 2 -0.013347 0.023633 -0.005910 0.000000 0.000000 0.000000
# 3 -0.005911 -0.005910 0.029685 0.000000 0.000000 0.000000
# 4 0.000000 0.000000 0.000000 -0.374615 0.000000 0.000000
# 5 0.000000 0.000000 0.000000 0.000000 -0.374383 0.000000
# 6 0.000000 0.000000 0.000000 0.000000 0.000000 0.062132
#
#
# Mechanical properties :
#
#
# Convention : Reuss Voigt Hill
#
# Bulk Modulus (GPa) = 37.57039 44.02001 40.79520
# Shear Modulus (GPa) = -9.07926 8.62247 -0.22839
#
# Velocity S-wave (km/s) = -2.08342 2.03034 -0.33044
# Velocity P-wave (km/s) = 3.48917 5.15186 4.39977
#
# Compressibility (1/GPa) = 0.02661671
#
# Stress axis : x y z
#
# Youngs Moduli (GPa) = 42.31118 42.31320 33.68747
#
# Poissons Ratio (x) = 0.56476 0.19912
# Poissons Ratio (y) = 0.56474 0.19909
# Poissons Ratio (z) = 0.25009 0.25006
#
# Static dielectric constant tensor:
#      x y z
#    x 1.739220 0.000000 0.000000 
#    y 0.000000 1.739220 0.000000 
#    z 0.000000 0.000000 1.873500 
# 
# From -- ./inp_files/2534.got.cif
#   From: 2010.05.17/outbox.cif.g08.bks.cpg/sg126_2_cif.got.tgz:2534.got - 2010.05.20 11:58:20.
