data_PCOD9563496
_publ_section_title
;
Structure prediction by ZEFSAII (Michael W. Deem and Ramdas Pophale) SiO2 
 PCOD9563496
Probable space group: P 4/N N C
;
_chemical_formula_sum "Si O2"
_cell_formula_units_Z 88
_cell_length_a 14.728789
_cell_length_b 14.728789
_cell_length_c 21.500473
_cell_angle_alpha 90.000000
_cell_angle_beta 90.000000
_cell_angle_gamma 90.000000
_cell_volume 4664.252958
_symmetry_space_group_name_H-M "P 4/N N C"
_symmetry_group_IT_number 126
_space_group.IT_coordinate_system_code '2'
_symmetry_cell_setting 'tetragonal'
loop_
_space_group_symop_operation_xyz
x,y,z
1/2-y,x,z
1/2-x,1/2-y,z
y,1/2-x,z
x,1/2-y,1/2-z
1/2-x,y,1/2-z
y,x,1/2-z
1/2-y,1/2-x,1/2-z
-x,-y,-z
1/2+y,-x,-z
1/2+x,1/2+y,-z
-y,1/2+x,-z
-x,1/2+y,1/2+z
1/2+x,-y,1/2+z
-y,-x,1/2+z
1/2+y,1/2+x,1/2+z
loop_
_atom_site_type_symbol
_atom_site_label
_atom_site_fract_x
_atom_site_fract_y
_atom_site_fract_z
Si Si1 0.850070 0.126805 0.400477
Si Si2 0.622945 0.832612 0.603743
Si Si3 0.900955 0.472764 0.976770
Si Si4 0.423695 0.010395 0.310655
Si Si5 0.250000 0.939623 0.250000
Si Si6 0.854256 0.166629 0.129557
O O1 0.852837 0.082519 0.468168
O O2 0.925367 0.074246 0.358444
O O3 0.871541 0.234740 0.403274
O O4 0.748963 0.131433 0.372295
O O5 0.629823 0.724932 0.607632
O O6 0.566938 0.853287 0.541606
O O7 0.571336 0.891855 0.656007
O O8 0.900511 0.411505 0.914301
O O9 0.000000 0.500000 0.000000
O O10 0.321698 0.000489 0.285532
O O11 0.488220 0.011781 0.250000
O O12 0.308334 0.881121 0.200352
#
# Coordination Sequence:
#
# PCOD9563496 Si02
#       6
#    16  16  16  16   8  16
#     4  10  22  38  62  89 124 161 207 263 331 383
#     4  11  24  40  57  82 119 163 208 253 309 376
#     4  12  23  37  61  88 122 163 210 261 315 382
#     4  11  20  36  56  87 121 163 204 251 307 379
#     4  10  22  37  64  87 128 166 212 255 320 389
#     4  10  22  40  62  93 125 162 206 265 329 389
#
# _framework density 18.866902
#
# number of rings (size 3 to 8) (size 9 to 14) (size 15 to 20)
#    0.000    1.273    1.818    5.455    2.545    7.273 
#    0.000    0.909    0.000    0.000    0.000    0.000 
#    0.000    0.000    0.000    0.727    0.000    0.000 
#
# Total GULP energy -490503.477541 kJ/mol
# GULP energy per Si atom -5573.903154 kJ/mol
# Density = 1.882396 g / cm^3
# Si number density = 18.866902 Si / 1000 Ang^3
#
#
#
# Elastic Constant Matrix: (Units=GPa)
#
#
# Indices 1 2 3 4 5 6 
#
# 1 54.3711 17.2663 28.9326 0.0000 0.0000 0.0000
# 2 17.2663 54.3717 28.9328 0.0000 0.0000 0.0000
# 3 28.9326 28.9328 99.8822 0.0000 0.0000 0.0000
# 4 0.0000 0.0000 0.0000 36.5465 0.0000 0.0000
# 5 0.0000 0.0000 0.0000 0.0000 36.5463 0.0000
# 6 0.0000 0.0000 0.0000 0.0000 0.0000 18.6820
#
#
#
# Elastic Compliance Matrix: (Units=1/GPa)
#
#
# Indices 1 2 3 4 5 6 
#
# 1 0.022587 -0.004364 -0.005279 0.000000 0.000000 0.000000
# 2 -0.004364 0.022587 -0.005279 0.000000 0.000000 0.000000
# 3 -0.005279 -0.005279 0.013070 0.000000 0.000000 0.000000
# 4 0.000000 0.000000 0.000000 0.027362 0.000000 0.000000
# 5 0.000000 0.000000 0.000000 0.000000 0.027363 0.000000
# 6 0.000000 0.000000 0.000000 0.000000 0.000000 0.053527
#
#
# Mechanical properties :
#
#
# Convention : Reuss Voigt Hill
#
# Bulk Modulus (GPa) = 35.20963 39.87647 37.54305
# Shear Modulus (GPa) = 24.29486 27.25450 25.77468
#
# Velocity S-wave (km/s) = 3.59234 3.80487 3.70013
# Velocity P-wave (km/s) = 5.99243 6.36272 6.18035
#
# Compressibility (1/GPa) = 0.02840132
#
# Stress axis : x y z
#
# Youngs Moduli (GPa) = 44.27360 44.27406 76.51185
#
# Poissons Ratio (x) = 0.19320 0.40388
# Poissons Ratio (y) = 0.19320 0.40387
# Poissons Ratio (z) = 0.23370 0.23370
#
# Static dielectric constant tensor:
#      x y z
#    x 1.685460 0.000000 0.000000 
#    y 0.000000 1.685460 0.000000 
#    z 0.000000 0.000000 1.716840 
# 
# From -- ./inp_files/5138.got.cif
#   From: 2010.05.17/outbox.cif.g08.bks.cpg/sg126_3_cif.got.tgz:5138.got - 2010.05.20 11:58:20.
