data_PCOD9563684
_publ_section_title
;
Structure prediction by ZEFSAII (Michael W. Deem and Ramdas Pophale) SiO2 
 PCOD9563684
Probable space group: P 4/N N C
;
_chemical_formula_sum "Si O2"
_cell_formula_units_Z 48
_cell_length_a 12.853699
_cell_length_b 12.853699
_cell_length_c 12.313209
_cell_angle_alpha 90.000000
_cell_angle_beta 90.000000
_cell_angle_gamma 90.000000
_cell_volume 2034.358568
_symmetry_space_group_name_H-M "P 4/N N C"
_symmetry_group_IT_number 126
_space_group.IT_coordinate_system_code '2'
_symmetry_cell_setting 'tetragonal'
loop_
_space_group_symop_operation_xyz
x,y,z
1/2-y,x,z
1/2-x,1/2-y,z
y,1/2-x,z
x,1/2-y,1/2-z
1/2-x,y,1/2-z
y,x,1/2-z
1/2-y,1/2-x,1/2-z
-x,-y,-z
1/2+y,-x,-z
1/2+x,1/2+y,-z
-y,1/2+x,-z
-x,1/2+y,1/2+z
1/2+x,-y,1/2+z
-y,-x,1/2+z
1/2+y,1/2+x,1/2+z
loop_
_atom_site_type_symbol
_atom_site_label
_atom_site_fract_x
_atom_site_fract_y
_atom_site_fract_z
Si Si1 0.292208 0.489075 0.643616
Si Si2 0.096835 0.320118 0.409989
Si Si3 0.611401 0.133169 0.290912
O O1 0.250000 0.428599 0.750000
O O2 0.317794 0.423447 0.539426
O O3 0.201204 0.578337 0.634389
O O4 0.388916 0.556627 0.687085
O O5 0.117438 0.199953 0.380214
O O6 0.994763 0.361788 0.354332
O O7 0.635466 0.250000 0.250000
#
# Coordination Sequence:
#
# PCOD9563684 Si02
#       3
#    16  16  16
#     4   8  21  42  67  98 132 176 237 286 333 406
#     4  11  25  44  67 101 145 185 226 288 354 425
#     4   9  21  43  65  98 133 180 230 286 346 402
#
# _framework density 23.594660000000001
#
# number of rings (size 3 to 8) (size 9 to 14) (size 15 to 20)
#    2.000    0.333    0.000    2.000    4.667    4.000 
#    6.000    3.333    0.000    0.000    0.000    0.000 
#    0.000    0.000    0.000    0.000    0.000    0.000 
#
# Total GULP energy -267993.471936 kJ/mol
# GULP energy per Si atom -5583.197332 kJ/mol
# Density = 2.354096 g / cm^3
# Si number density = 23.594660 Si / 1000 Ang^3
#
#
#
# Elastic Constant Matrix: (Units=GPa)
#
#
# Indices 1 2 3 4 5 6 
#
# 1 109.2100 38.4918 35.4407 0.0000 0.0000 0.0000
# 2 38.4918 109.2100 35.4407 0.0000 0.0000 0.0000
# 3 35.4407 35.4407 67.3019 0.0000 0.0000 0.0000
# 4 0.0000 0.0000 0.0000 9.1667 0.0000 0.0000
# 5 0.0000 0.0000 0.0000 0.0000 9.1667 0.0000
# 6 0.0000 0.0000 0.0000 0.0000 0.0000 24.7576
#
#
#
# Elastic Compliance Matrix: (Units=1/GPa)
#
#
# Indices 1 2 3 4 5 6 
#
# 1 0.011600 -0.002540 -0.004771 0.000000 0.000000 0.000000
# 2 -0.002540 0.011600 -0.004771 0.000000 0.000000 0.000000
# 3 -0.004771 -0.004771 0.019883 0.000000 0.000000 0.000000
# 4 0.000000 0.000000 0.000000 0.109091 0.000000 0.000000
# 5 0.000000 0.000000 0.000000 0.000000 0.109091 0.000000
# 6 0.000000 0.000000 0.000000 0.000000 0.000000 0.040392
#
#
# Mechanical properties :
#
#
# Convention : Reuss Voigt Hill
#
# Bulk Modulus (GPa) = 52.85598 56.05203 54.45400
# Shear Modulus (GPa) = 15.05448 20.37478 17.71463
#
# Velocity S-wave (km/s) = 2.52870 2.94178 2.74303
# Velocity P-wave (km/s) = 5.56561 5.94530 5.75859
#
# Compressibility (1/GPa) = 0.01891934
#
# Stress axis : x y z
#
# Youngs Moduli (GPa) = 86.20479 86.20479 50.29411
#
# Poissons Ratio (x) = 0.21899 0.23995
# Poissons Ratio (y) = 0.21899 0.23995
# Poissons Ratio (z) = 0.41127 0.41127
#
# Static dielectric constant tensor:
#      x y z
#    x 1.898740 0.000000 0.000000 
#    y 0.000000 1.898740 0.000000 
#    z 0.000000 0.000000 1.917480 
# 
# From -- ./inp_files/2282.got.cif
#   From: 2010.05.17/outbox.cif.g08.bks.cpg/sg126_2_cif.got.tgz:2282.got - 2010.05.20 11:58:20.
