data_PCOD9563903
_publ_section_title
;
Structure prediction by ZEFSAII (Michael W. Deem and Ramdas Pophale) SiO2 
 PCOD9563903
Probable space group: P 4/M B M
;
_chemical_formula_sum "Si O2"
_cell_formula_units_Z 72
_cell_length_a 16.442458
_cell_length_b 16.442458
_cell_length_c 14.972419
_cell_angle_alpha 90.000000
_cell_angle_beta 90.000000
_cell_angle_gamma 90.000000
_cell_volume 4047.859731
_symmetry_space_group_name_H-M "P 4/M B M"
_symmetry_group_IT_number 127
_symmetry_cell_setting 'tetragonal'
loop_
_space_group_symop_operation_xyz
x,y,z
-y,x,z
-x,-y,z
y,-x,z
1/2+x,1/2-y,-z
1/2-x,1/2+y,-z
1/2+y,1/2+x,-z
1/2-y,1/2-x,-z
-x,-y,-z
y,-x,-z
x,y,-z
-y,x,-z
1/2-x,1/2+y,z
1/2+x,1/2-y,z
1/2-y,1/2-x,z
1/2+y,1/2+x,z
loop_
_atom_site_type_symbol
_atom_site_label
_atom_site_fract_x
_atom_site_fract_y
_atom_site_fract_z
Si Si1 0.318605 0.320085 0.602644
Si Si2 0.883431 0.933464 0.893067
Si Si3 0.996763 0.632620 0.500000
Si Si4 0.899445 0.260657 0.234482
Si Si5 0.193647 0.444547 0.318466
O O1 0.343687 0.339080 0.500000
O O2 0.250908 0.249093 0.595473
O O3 0.384189 0.286682 0.671962
O O4 0.272491 0.393427 0.652680
O O5 0.807488 0.895112 0.841939
O O6 0.970466 0.892781 0.870175
O O7 0.873893 0.927750 0.000000
O O8 0.907416 0.592584 0.500000
O O9 0.998856 0.676096 0.593613
O O10 0.063979 0.563979 0.500000
O O11 0.831614 0.331614 0.226023
O O12 0.990916 0.295705 0.239781
O O13 0.119481 0.380520 0.303809
#
# Coordination Sequence:
#
# PCOD9563903 Si02
#       5
#    16  16   8  16  16
#     4   9  18  32  47  68 103 145 185 224 263 300
#     4   9  19  39  64  83 101 132 177 225 270 322
#     4   9  16  26  42  64  90 129 179 215 238 281
#     4  11  22  32  51  83 113 140 174 222 276 327
#     4  10  19  33  50  69 102 148 187 218 259 312
#
# _framework density 17.787178000000001
#
# number of rings (size 3 to 8) (size 9 to 14) (size 15 to 20)
#    0.000    2.333    1.111    2.667    1.556    1.778 
#    0.000    0.000    0.000    2.000    0.000    6.222 
#    0.000    0.000    0.000    0.000    0.000    0.000 
#
# Total GULP energy -401031.480486 kJ/mol
# GULP energy per Si atom -5569.881673 kJ/mol
# Density = 1.774669 g / cm^3
# Si number density = 17.787178 Si / 1000 Ang^3
#
#
#
# Elastic Constant Matrix: (Units=GPa)
#
#
# Indices 1 2 3 4 5 6 
#
# 1 66.5625 34.6356 35.4441 0.0000 0.0000 0.0000
# 2 34.6356 66.5622 35.4441 0.0000 0.0000 0.0000
# 3 35.4441 35.4441 46.4379 0.0000 0.0000 0.0000
# 4 0.0000 0.0000 0.0000 66.9593 0.0000 0.0000
# 5 0.0000 0.0000 0.0000 0.0000 66.9297 0.0000
# 6 0.0000 0.0000 0.0000 0.0000 0.0000 17.9369
#
#
#
# Elastic Compliance Matrix: (Units=1/GPa)
#
#
# Indices 1 2 3 4 5 6 
#
# 1 0.026278 -0.005043 -0.016208 0.000000 0.000000 0.000000
# 2 -0.005043 0.026278 -0.016208 0.000000 0.000000 0.000000
# 3 -0.016208 -0.016208 0.046276 0.000000 0.000000 0.000000
# 4 0.000000 0.000000 0.000000 0.014934 0.000000 0.000000
# 5 0.000000 0.000000 0.000000 0.000000 0.014941 0.000000
# 6 0.000000 0.000000 0.000000 0.000000 0.000000 0.055751
#
#
# Mechanical properties :
#
#
# Convention : Reuss Voigt Hill
#
# Bulk Modulus (GPa) = 41.81573 43.40114 42.60843
# Shear Modulus (GPa) = 18.70220 35.30111 27.00165
#
# Velocity S-wave (km/s) = 3.24611 4.45976 3.90043
# Velocity P-wave (km/s) = 6.13267 7.13950 6.65515
#
# Compressibility (1/GPa) = 0.02391445
#
# Stress axis : x y z
#
# Youngs Moduli (GPa) = 38.05428 38.05401 21.60964
#
# Poissons Ratio (x) = 0.19192 0.35024
# Poissons Ratio (y) = 0.19192 0.35025
# Poissons Ratio (z) = 0.61677 0.61677
#
# Static dielectric constant tensor:
#      x y z
#    x 1.641490 0.000000 0.000000 
#    y 0.000000 1.641490 0.000000 
#    z 0.000000 0.000000 1.603720 
# 
# From -- ./inp_files/3195.got.cif
#   From: 2010.05.17/outbox.cif.g08.bks.cpg/sg127_2_cif.got.tgz:3195.got - 2010.05.20 12:03:00.
