data_PCOD9563561
_publ_section_title
;
Structure prediction by ZEFSAII (Michael W. Deem and Ramdas Pophale) SiO2 
 PCOD9563561
Probable space group: P 4/N N C
;
_chemical_formula_sum "Si O2"
_cell_formula_units_Z 56
_cell_length_a 17.402531
_cell_length_b 17.402531
_cell_length_c 8.469588
_cell_angle_alpha 90.000000
_cell_angle_beta 90.000000
_cell_angle_gamma 90.000000
_cell_volume 2564.998508
_symmetry_space_group_name_H-M "P 4/N N C"
_symmetry_group_IT_number 126
_space_group.IT_coordinate_system_code '2'
_symmetry_cell_setting 'tetragonal'
loop_
_space_group_symop_operation_xyz
x,y,z
1/2-y,x,z
1/2-x,1/2-y,z
y,1/2-x,z
x,1/2-y,1/2-z
1/2-x,y,1/2-z
y,x,1/2-z
1/2-y,1/2-x,1/2-z
-x,-y,-z
1/2+y,-x,-z
1/2+x,1/2+y,-z
-y,1/2+x,-z
-x,1/2+y,1/2+z
1/2+x,-y,1/2+z
-y,-x,1/2+z
1/2+y,1/2+x,1/2+z
loop_
_atom_site_type_symbol
_atom_site_label
_atom_site_fract_x
_atom_site_fract_y
_atom_site_fract_z
Si Si1 0.281612 0.542659 0.930077
Si Si2 0.052931 0.613835 0.506352
Si Si3 0.993014 0.993014 0.250000
Si Si4 0.367047 0.272818 0.563352
O O1 0.250000 0.558209 0.750000
O O2 0.204315 0.555233 0.029623
O O3 0.299222 0.453161 0.953911
O O4 0.358032 0.586786 0.983120
O O5 0.007370 0.565272 0.635471
O O6 0.007621 0.585681 0.347896
O O7 0.308647 0.336796 0.498599
O O8 0.361015 0.250000 0.750000
#
# Coordination Sequence:
#
# PCOD9563561 Si02
#       4
#    16  16   8  16
#     4  11  23  40  65  94 130 183 223 280 331 405
#     4  11  24  43  68 100 134 175 227 278 340 398
#     4  10  24  42  68 100 134 170 224 288 328 396
#     4   8  16  29  52  87 119 151 200 263 327 389
#
# _framework density 21.832371999999999
#
# number of rings (size 3 to 8) (size 9 to 14) (size 15 to 20)
#    0.000    2.000    2.857    0.857    8.000    1.714 
#    0.000    1.429    0.000    0.000    0.000    2.000 
#    0.000    0.000    0.000    0.000    0.000    0.000 
#
# Total GULP energy -311982.904583 kJ/mol
# GULP energy per Si atom -5571.123296 kJ/mol
# Density = 2.178268 g / cm^3
# Si number density = 21.832372 Si / 1000 Ang^3
#
#
#
# Elastic Constant Matrix: (Units=GPa)
#
#
# Indices 1 2 3 4 5 6 
#
# 1 95.3924 4.5229 7.1433 0.0000 0.0000 0.0000
# 2 4.5229 95.3924 7.1433 0.0000 0.0000 0.0000
# 3 7.1433 7.1433 22.2697 0.0000 0.0000 0.0000
# 4 0.0000 0.0000 0.0000 12.0046 0.0000 0.0000
# 5 0.0000 0.0000 0.0000 0.0000 12.0046 0.0000
# 6 0.0000 0.0000 0.0000 0.0000 0.0000 10.1693
#
#
#
# Elastic Compliance Matrix: (Units=1/GPa)
#
#
# Indices 1 2 3 4 5 6 
#
# 1 0.010747 -0.000258 -0.003365 0.000000 0.000000 0.000000
# 2 -0.000258 0.010747 -0.003365 0.000000 0.000000 0.000000
# 3 -0.003365 -0.003365 0.047063 0.000000 0.000000 0.000000
# 4 0.000000 0.000000 0.000000 0.083302 0.000000 0.000000
# 5 0.000000 0.000000 0.000000 0.000000 0.083302 0.000000
# 6 0.000000 0.000000 0.000000 0.000000 0.000000 0.098335
#
#
# Mechanical properties :
#
#
# Convention : Reuss Voigt Hill
#
# Bulk Modulus (GPa) = 18.32070 27.85260 23.08665
# Shear Modulus (GPa) = 13.67378 19.78537 16.72957
#
# Velocity S-wave (km/s) = 2.50533 3.01365 2.77117
# Velocity P-wave (km/s) = 4.09617 4.98945 4.56472
#
# Compressibility (1/GPa) = 0.05458307
#
# Stress axis : x y z
#
# Youngs Moduli (GPa) = 93.04767 93.04767 21.24834
#
# Poissons Ratio (x) = 0.02397 0.07149
# Poissons Ratio (y) = 0.02397 0.07149
# Poissons Ratio (z) = 0.31307 0.31307
#
# Static dielectric constant tensor:
#      x y z
#    x 1.804110 0.000000 0.000000 
#    y 0.000000 1.804110 0.000000 
#    z 0.000000 0.000000 1.965750 
# 
# From -- ./inp_files/1270.got.cif
#   From: 2010.05.17/outbox.cif.g08.bks.cpg/sg126_1_cif.got.tgz:1270.got - 2010.05.20 11:58:20.
