data_PCOD9563470
_publ_section_title
;
Structure prediction by ZEFSAII (Michael W. Deem and Ramdas Pophale) SiO2 
 PCOD9563470
Probable space group: P 4/N N C
;
_chemical_formula_sum "Si O2"
_cell_formula_units_Z 96
_cell_length_a 14.707115
_cell_length_b 14.707115
_cell_length_c 21.932269
_cell_angle_alpha 90.000000
_cell_angle_beta 90.000000
_cell_angle_gamma 90.000000
_cell_volume 4743.932932
_symmetry_space_group_name_H-M "P 4/N N C"
_symmetry_group_IT_number 126
_space_group.IT_coordinate_system_code '2'
_symmetry_cell_setting 'tetragonal'
loop_
_space_group_symop_operation_xyz
x,y,z
1/2-y,x,z
1/2-x,1/2-y,z
y,1/2-x,z
x,1/2-y,1/2-z
1/2-x,y,1/2-z
y,x,1/2-z
1/2-y,1/2-x,1/2-z
-x,-y,-z
1/2+y,-x,-z
1/2+x,1/2+y,-z
-y,1/2+x,-z
-x,1/2+y,1/2+z
1/2+x,-y,1/2+z
-y,-x,1/2+z
1/2+y,1/2+x,1/2+z
loop_
_atom_site_type_symbol
_atom_site_label
_atom_site_fract_x
_atom_site_fract_y
_atom_site_fract_z
Si Si1 0.611196 0.694110 0.450643
Si Si2 0.392111 0.847389 0.227321
Si Si3 0.567736 0.966010 0.359427
Si Si4 0.104740 0.213175 0.403942
Si Si5 0.250000 0.750000 0.358739
Si Si6 0.363015 0.917377 0.362075
Si Si7 0.144222 0.144222 0.750000
O O1 0.702133 0.635964 0.435068
O O2 0.534152 0.642736 0.412972
O O3 0.595235 0.699168 0.522911
O O4 0.435490 0.750000 0.250000
O O5 0.446880 0.914837 0.183167
O O6 0.310714 0.811784 0.185679
O O7 0.369451 0.898098 0.289742
O O8 0.466339 0.943377 0.381935
O O9 0.595657 0.890459 0.310317
O O10 0.186551 0.143108 0.388481
O O11 0.007501 0.194605 0.374952
O O12 0.317147 0.824932 0.389769
O O13 0.250000 0.129486 0.750000
#
# Coordination Sequence:
#
# PCOD9563470 Si02
#       7
#    16  16  16  16   8  16   8
#     4   9  20  38  61  90 123 165 208 255 321 383
#     4  10  21  40  57  89 128 172 210 258 318 397
#     4  12  22  33  61  93 125 162 209 257 310 392
#     4   9  21  44  67  89 120 163 223 282 327 369
#     4  10  25  42  64  85 130 183 210 256 337 404
#     4  11  22  38  63  93 121 170 217 261 323 390
#     4  11  22  34  50  84 130 161 192 246 314 373
#
# _framework density 20.236374000000001
#
# number of rings (size 3 to 8) (size 9 to 14) (size 15 to 20)
#    0.000    1.750    1.667    4.750    9.333    2.000 
#    3.000    0.000    0.000    1.000    0.000    0.000 
#    0.000    0.000    0.000    0.000    0.000    0.000 
#
# Total GULP energy -534995.547604 kJ/mol
# GULP energy per Si atom -5572.870288 kJ/mol
# Density = 2.019032 g / cm^3
# Si number density = 20.236374 Si / 1000 Ang^3
#
#
#
# Elastic Constant Matrix: (Units=GPa)
#
#
# Indices 1 2 3 4 5 6 
#
# 1 57.8069 62.8760 24.1364 0.0000 0.0000 0.0000
# 2 62.8760 57.8069 24.1364 0.0000 0.0000 0.0000
# 3 24.1364 24.1364 35.4272 0.0000 0.0000 0.0000
# 4 0.0000 0.0000 0.0000 26.1115 0.0000 0.0000
# 5 0.0000 0.0000 0.0000 0.0000 26.1115 0.0000
# 6 0.0000 0.0000 0.0000 0.0000 0.0000 29.0994
#
#
#
# Elastic Compliance Matrix: (Units=1/GPa)
#
#
# Indices 1 2 3 4 5 6 
#
# 1 -0.092941 0.104331 -0.007760 0.000000 0.000000 0.000000
# 2 0.104331 -0.092941 -0.007760 0.000000 0.000000 0.000000
# 3 -0.007760 -0.007760 0.038801 0.000000 0.000000 0.000000
# 4 0.000000 0.000000 0.000000 0.038297 0.000000 0.000000
# 5 0.000000 0.000000 0.000000 0.000000 0.038297 0.000000
# 6 0.000000 0.000000 0.000000 0.000000 0.000000 0.034365
#
#
# Mechanical properties :
#
#
# Convention : Reuss Voigt Hill
#
# Bulk Modulus (GPa) = 32.74314 41.48207 37.11260
# Shear Modulus (GPa) = -24.56244 18.92397 -2.81923
#
# Velocity S-wave (km/s) = -3.48771 3.06133 -1.18160
# Velocity P-wave (km/s) = 0.05794 5.74795 4.06421
#
# Compressibility (1/GPa) = 0.03054075
#
# Stress axis : x y z
#
# Youngs Moduli (GPa) = -10.75954 -10.75954 25.77276
#
# Poissons Ratio (x) = 1.12255 0.20000
# Poissons Ratio (y) = 1.12255 0.20000
# Poissons Ratio (z) = -0.08349 -0.08349
#
# Static dielectric constant tensor:
#      x y z
#    x 1.777550 0.000000 0.000000 
#    y 0.000000 1.777550 0.000000 
#    z 0.000000 0.000000 1.699230 
# 
# From -- ./inp_files/5285.got.cif
#   From: 2010.05.17/outbox.cif.g08.bks.cpg/sg126_3_cif.got.tgz:5285.got - 2010.05.20 11:58:20.
