data_PCOD9563802
_publ_section_title
;
Structure prediction by ZEFSAII (Michael W. Deem and Ramdas Pophale) SiO2 
 PCOD9563802
Probable space group: P 4/M B M
;
_chemical_formula_sum "Si O2"
_cell_formula_units_Z 104
_cell_length_a 19.565082
_cell_length_b 19.565082
_cell_length_c 16.748821
_cell_angle_alpha 90.000000
_cell_angle_beta 90.000000
_cell_angle_gamma 90.000000
_cell_volume 6411.321952
_symmetry_space_group_name_H-M "P 4/M B M"
_symmetry_group_IT_number 127
_symmetry_cell_setting 'tetragonal'
loop_
_space_group_symop_operation_xyz
x,y,z
-y,x,z
-x,-y,z
y,-x,z
1/2+x,1/2-y,-z
1/2-x,1/2+y,-z
1/2+y,1/2+x,-z
1/2-y,1/2-x,-z
-x,-y,-z
y,-x,-z
x,y,-z
-y,x,-z
1/2-x,1/2+y,z
1/2+x,1/2-y,z
1/2-y,1/2-x,z
1/2+y,1/2+x,z
loop_
_atom_site_type_symbol
_atom_site_label
_atom_site_fract_x
_atom_site_fract_y
_atom_site_fract_z
Si Si1 0.942246 0.442246 0.404290
Si Si2 0.716238 0.900177 0.841027
Si Si3 0.626984 0.240607 0.669904
Si Si4 0.529241 0.795160 0.673377
Si Si5 0.327917 0.396893 0.000000
Si Si6 0.173547 0.215233 0.158079
Si Si7 0.770126 0.842269 0.404806
Si Si8 0.712485 0.449727 0.000000
O O1 0.934617 0.434617 0.500000
O O2 0.962072 0.369815 0.365679
O O3 0.000000 0.500000 0.389499
O O4 0.651576 0.848425 0.851400
O O5 0.702324 0.950848 0.767287
O O6 0.781934 0.852106 0.821383
O O7 0.739576 0.937136 0.922543
O O8 0.673287 0.173287 0.652469
O O9 0.547530 0.228698 0.656323
O O10 0.636981 0.259064 0.762751
O O11 0.661640 0.302817 0.621672
O O12 0.584934 0.744649 0.634069
O O13 0.293590 0.374931 0.082993
O O14 0.325435 0.478028 0.000000
O O15 0.395235 0.349430 0.000000
O O16 0.229522 0.270479 0.133386
O O17 0.767749 0.847663 0.500000
O O18 0.707885 0.792116 0.377972
#
# Coordination Sequence:
#
# PCOD9563802 Si02
#       8
#     8  16  16  16   8  16  16   8
#     4  11  24  38  54  83 119 151 187 229 285 352
#     4  10  18  33  56  82 105 139 186 229 269 332
#     4  10  21  35  54  83 113 140 181 235 279 323
#     4  12  20  35  59  83 111 150 186 229 285 339
#     4  10  19  32  47  77 108 145 179 226 279 330
#     4   9  17  32  53  77 105 136 178 232 276 319
#     4  10  20  36  56  78 105 143 189 229 277 338
#     4  10  21  32  51  77 113 142 186 231 278 327
#
# _framework density 16.221302999999999
#
# number of rings (size 3 to 8) (size 9 to 14) (size 15 to 20)
#    0.000    1.769    3.077    2.308    0.000    3.231 
#    0.000    1.538    0.000    0.462    0.000    1.615 
#    0.000    0.000    0.000    0.000    0.000    0.000 
#
# Total GULP energy -579866.330946 kJ/mol
# GULP energy per Si atom -5575.637798 kJ/mol
# Density = 1.618438 g / cm^3
# Si number density = 16.221303 Si / 1000 Ang^3
#
#
#
# Elastic Constant Matrix: (Units=GPa)
#
#
# Indices 1 2 3 4 5 6 
#
# 1 108.5238 46.0956 47.5312 0.0000 0.0000 0.0000
# 2 46.0956 108.5238 47.5312 0.0000 0.0000 0.0000
# 3 47.5312 47.5312 76.3051 0.0000 0.0000 0.0000
# 4 0.0000 0.0000 0.0000 0.7385 0.0000 0.0000
# 5 0.0000 0.0000 0.0000 0.0000 0.7385 0.0000
# 6 0.0000 0.0000 0.0000 0.0000 0.0000 14.3167
#
#
#
# Elastic Compliance Matrix: (Units=1/GPa)
#
#
# Indices 1 2 3 4 5 6 
#
# 1 0.013250 -0.002768 -0.006529 0.000000 0.000000 0.000000
# 2 -0.002768 0.013250 -0.006529 0.000000 0.000000 0.000000
# 3 -0.006529 -0.006529 0.021239 0.000000 0.000000 0.000000
# 4 0.000000 0.000000 0.000000 1.354104 0.000000 0.000000
# 5 0.000000 0.000000 0.000000 0.000000 1.354104 0.000000
# 6 0.000000 0.000000 0.000000 0.000000 0.000000 0.069849
#
#
# Mechanical properties :
#
#
# Convention : Reuss Voigt Hill
#
# Bulk Modulus (GPa) = 62.16498 63.96317 63.06407
# Shear Modulus (GPa) = 1.74653 13.30504 7.52579
#
# Velocity S-wave (km/s) = 1.03876 2.86706 2.15627
# Velocity P-wave (km/s) = 6.31229 7.10473 6.72020
#
# Compressibility (1/GPa) = 0.01608623
#
# Stress axis : x y z
#
# Youngs Moduli (GPa) = 75.47128 75.47128 47.08218
#
# Poissons Ratio (x) = 0.20893 0.30741
# Poissons Ratio (y) = 0.20893 0.30741
# Poissons Ratio (z) = 0.49277 0.49277
#
# Static dielectric constant tensor:
#      x y z
#    x 1.532980 0.000000 0.000000 
#    y 0.000000 1.532980 0.000000 
#    z 0.000000 0.000000 1.552960 
# 
# From -- ./inp_files/5266.got.cif
#   From: 2010.05.17/outbox.cif.g08.bks.cpg/sg127_3_cif.got.tgz:5266.got - 2010.05.20 12:03:00.
