data_PCOD9563155
_publ_section_title
;
Structure prediction by ZEFSAII (Michael W. Deem and Ramdas Pophale) SiO2 
 PCOD9563155
Probable space group: P 4/N B M
;
_chemical_formula_sum "Si O2"
_cell_formula_units_Z 112
_cell_length_a 15.567336
_cell_length_b 15.567336
_cell_length_c 25.528681
_cell_angle_alpha 90.000000
_cell_angle_beta 90.000000
_cell_angle_gamma 90.000000
_cell_volume 6186.670338
_symmetry_space_group_name_H-M "P 4/N B M"
_symmetry_group_IT_number 125
_space_group.IT_coordinate_system_code '2'
_symmetry_cell_setting 'tetragonal'
loop_
_space_group_symop_operation_xyz
x,y,z
1/2-y,x,z
1/2-x,1/2-y,z
y,1/2-x,z
x,1/2-y,-z
1/2-x,y,-z
y,x,-z
1/2-y,1/2-x,-z
-x,-y,-z
1/2+y,-x,-z
1/2+x,1/2+y,-z
-y,1/2+x,-z
-x,1/2+y,z
1/2+x,-y,z
-y,-x,z
1/2+y,1/2+x,z
loop_
_atom_site_type_symbol
_atom_site_label
_atom_site_fract_x
_atom_site_fract_y
_atom_site_fract_z
Si Si1 0.840169 0.017191 0.008940
Si Si2 0.932412 0.920825 0.089685
Si Si3 0.376294 0.478914 0.294317
Si Si4 0.568082 0.577497 0.410616
Si Si5 0.744339 0.389588 0.334517
Si Si6 0.336103 0.366100 0.194567
Si Si7 0.013943 0.756282 0.558447
O O1 0.916298 0.083703 0.009391
O O2 0.858106 0.959392 0.957888
O O3 0.750000 0.060337 0.000000
O O4 0.850003 0.967629 0.063711
O O5 0.911547 0.873546 0.143013
O O6 0.008590 0.991411 0.096822
O O7 0.447400 0.552601 0.284071
O O8 0.405848 0.431879 0.347874
O O9 0.285371 0.528128 0.305271
O O10 0.367857 0.414968 0.246250
O O11 0.493411 0.506590 0.420963
O O12 0.540999 0.669154 0.434166
O O13 0.658044 0.542662 0.432378
O O14 0.653124 0.346877 0.318780
O O15 0.815629 0.315629 0.328286
O O16 0.741024 0.416270 0.395361
O O17 0.232800 0.365708 0.194302
O O18 0.050349 0.750000 0.500000
#
# Coordination Sequence:
#
# PCOD9563155 Si02
#       7
#    16  16  16  16  16  16  16
#     4   9  17  30  52  79 109 146 185 223 274 331
#     4   9  18  34  54  76 105 147 190 226 268 329
#     4   9  20  39  58  77 105 144 184 228 278 335
#     4  10  23  40  58  81 112 148 187 227 277 341
#     4   9  19  36  57  81 107 138 182 232 282 335
#     4  11  23  35  52  80 111 139 179 234 287 327
#     4  11  22  36  57  83 113 147 182 225 275 333
#
# _framework density 18.103438000000001
#
# number of rings (size 3 to 8) (size 9 to 14) (size 15 to 20)
#    0.000    2.286    0.000    4.286    4.000    3.286 
#    0.000    2.143    0.000    4.286    0.000    2.000 
#    0.000    0.000    0.000    0.000    0.000    0.000 
#
# Total GULP energy -624323.857102 kJ/mol
# GULP energy per Si atom -5574.320153 kJ/mol
# Density = 1.806223 g / cm^3
# Si number density = 18.103438 Si / 1000 Ang^3
#
#
#
# Elastic Constant Matrix: (Units=GPa)
#
#
# Indices 1 2 3 4 5 6 
#
# 1 73.1158 21.3147 39.0404 0.0000 0.0000 0.0000
# 2 21.3147 73.1158 39.0404 0.0000 0.0000 0.0000
# 3 39.0404 39.0404 110.3678 0.0000 0.0000 0.0000
# 4 0.0000 0.0000 0.0000 8.0710 0.0000 0.0000
# 5 0.0000 0.0000 0.0000 0.0000 8.0710 0.0000
# 6 0.0000 0.0000 0.0000 0.0000 0.0000 8.6568
#
#
#
# Elastic Compliance Matrix: (Units=1/GPa)
#
#
# Indices 1 2 3 4 5 6 
#
# 1 0.017136 -0.002168 -0.005294 0.000000 0.000000 0.000000
# 2 -0.002168 0.017136 -0.005294 0.000000 0.000000 0.000000
# 3 -0.005294 -0.005294 0.012806 0.000000 0.000000 0.000000
# 4 0.000000 0.000000 0.000000 0.123901 0.000000 0.000000
# 5 0.000000 0.000000 0.000000 0.000000 0.123901 0.000000
# 6 0.000000 0.000000 0.000000 0.000000 0.000000 0.115516
#
#
# Mechanical properties :
#
#
# Convention : Reuss Voigt Hill
#
# Bulk Modulus (GPa) = 46.37467 50.59895 48.48681
# Shear Modulus (GPa) = 11.28418 15.44001 13.36210
#
# Velocity S-wave (km/s) = 2.49934 2.92357 2.71974
# Velocity P-wave (km/s) = 5.83104 6.27750 6.05838
#
# Compressibility (1/GPa) = 0.02156350
#
# Stress axis : x y z
#
# Youngs Moduli (GPa) = 58.35629 58.35629 78.08680
#
# Poissons Ratio (x) = 0.12655 0.41343
# Poissons Ratio (y) = 0.12655 0.41343
# Poissons Ratio (z) = 0.30897 0.30897
#
# Static dielectric constant tensor:
#      x y z
#    x 1.628570 0.000000 0.000000 
#    y 0.000000 1.628570 0.000000 
#    z 0.000000 0.000000 1.602350 
# 
# From -- ./inp_files/6261.got.cif
#   From: 2010.05.17/outbox.cif.g08.bks.cpg/sg125_4_cif.got.tgz:6261.got - 2010.05.20 11:54:10.
