data_PCOD9563538
_publ_section_title
;
Structure prediction by ZEFSAII (Michael W. Deem and Ramdas Pophale) SiO2 
 PCOD9563538
Probable space group: P 4/N N C
;
_chemical_formula_sum "Si O2"
_cell_formula_units_Z 48
_cell_length_a 13.880217
_cell_length_b 13.880217
_cell_length_c 10.801756
_cell_angle_alpha 90.000000
_cell_angle_beta 90.000000
_cell_angle_gamma 90.000000
_cell_volume 2081.070891
_symmetry_space_group_name_H-M "P 4/N N C"
_symmetry_group_IT_number 126
_space_group.IT_coordinate_system_code '2'
_symmetry_cell_setting 'tetragonal'
loop_
_space_group_symop_operation_xyz
x,y,z
1/2-y,x,z
1/2-x,1/2-y,z
y,1/2-x,z
x,1/2-y,1/2-z
1/2-x,y,1/2-z
y,x,1/2-z
1/2-y,1/2-x,1/2-z
-x,-y,-z
1/2+y,-x,-z
1/2+x,1/2+y,-z
-y,1/2+x,-z
-x,1/2+y,1/2+z
1/2+x,-y,1/2+z
-y,-x,1/2+z
1/2+y,1/2+x,1/2+z
loop_
_atom_site_type_symbol
_atom_site_label
_atom_site_fract_x
_atom_site_fract_y
_atom_site_fract_z
Si Si1 0.594107 0.768635 0.602285
Si Si2 0.436563 0.598674 0.000188
Si Si3 0.857613 0.478427 0.259800
O O1 0.646754 0.670042 0.566604
O O2 0.583268 0.750000 0.750000
O O3 0.498385 0.808545 0.542082
O O4 0.364980 0.578032 0.888325
O O5 0.500000 0.500000 0.000000
O O6 0.410059 0.616505 0.142684
O O7 0.750000 0.517694 0.250000
O O8 0.935090 0.564911 0.250000
#
# Coordination Sequence:
#
# PCOD9563538 Si02
#       3
#    16  16  16
#     4   9  20  35  63 101 128 162 222 281 332 383
#     4  10  23  39  64  94 138 176 214 264 342 404
#     4  10  24  43  67 100 131 175 221 272 339 400
#
# _framework density 23.065048000000001
#
# number of rings (size 3 to 8) (size 9 to 14) (size 15 to 20)
#    0.000    2.333    0.000    1.000   23.333    0.333 
#    0.000    0.000    0.000    8.000    0.000    0.000 
#    0.000    0.000    0.000    0.000    0.000    0.000 
#
# Total GULP energy -267763.423372 kJ/mol
# GULP energy per Si atom -5578.404654 kJ/mol
# Density = 2.301255 g / cm^3
# Si number density = 23.065048 Si / 1000 Ang^3
#
#
#
# Elastic Constant Matrix: (Units=GPa)
#
#
# Indices 1 2 3 4 5 6 
#
# 1 67.1827 35.3342 59.4321 0.0000 0.0000 0.0000
# 2 35.3342 67.1825 59.4320 0.0000 0.0000 0.0000
# 3 59.4321 59.4320 126.0183 0.0000 0.0000 0.0000
# 4 0.0000 0.0000 0.0000 27.7678 0.0000 0.0000
# 5 0.0000 0.0000 0.0000 0.0000 27.7680 0.0000
# 6 0.0000 0.0000 0.0000 0.0000 0.0000 19.0731
#
#
#
# Elastic Compliance Matrix: (Units=1/GPa)
#
#
# Indices 1 2 3 4 5 6 
#
# 1 0.026462 -0.004937 -0.010151 0.000000 0.000000 0.000000
# 2 -0.004937 0.026462 -0.010151 0.000000 0.000000 0.000000
# 3 -0.010151 -0.010151 0.017510 0.000000 0.000000 0.000000
# 4 0.000000 0.000000 0.000000 0.036013 0.000000 0.000000
# 5 0.000000 0.000000 0.000000 0.000000 0.036013 0.000000
# 6 0.000000 0.000000 0.000000 0.000000 0.000000 0.052430
#
#
# Mechanical properties :
#
#
# Convention : Reuss Voigt Hill
#
# Bulk Modulus (GPa) = 50.11464 63.19777 56.65620
# Shear Modulus (GPa) = 19.83972 22.00079 20.92026
#
# Velocity S-wave (km/s) = 2.93604 3.09181 3.01493
# Velocity P-wave (km/s) = 5.76788 6.34074 6.06108
#
# Compressibility (1/GPa) = 0.01995425
#
# Stress axis : x y z
#
# Youngs Moduli (GPa) = 37.79065 37.79054 57.10924
#
# Poissons Ratio (x) = 0.18658 0.57973
# Poissons Ratio (y) = 0.18658 0.57973
# Poissons Ratio (z) = 0.38362 0.38362
#
# Static dielectric constant tensor:
#      x y z
#    x 1.875930 0.000000 0.000000 
#    y 0.000000 1.875930 0.000000 
#    z 0.000000 0.000000 1.922920 
# 
# From -- ./inp_files/2215.got.cif
#   From: 2010.05.17/outbox.cif.g08.bks.cpg/sg126_2_cif.got.tgz:2215.got - 2010.05.20 11:58:20.
