data_PCOD9563697
_publ_section_title
;
Structure prediction by ZEFSAII (Michael W. Deem and Ramdas Pophale) SiO2 
 PCOD9563697
Probable space group: P 4/N N C
;
_chemical_formula_sum "Si O2"
_cell_formula_units_Z 52
_cell_length_a 14.714852
_cell_length_b 14.714852
_cell_length_c 9.368020
_cell_angle_alpha 90.000000
_cell_angle_beta 90.000000
_cell_angle_gamma 90.000000
_cell_volume 2028.428043
_symmetry_space_group_name_H-M "P 4/N N C"
_symmetry_group_IT_number 126
_space_group.IT_coordinate_system_code '2'
_symmetry_cell_setting 'tetragonal'
loop_
_space_group_symop_operation_xyz
x,y,z
1/2-y,x,z
1/2-x,1/2-y,z
y,1/2-x,z
x,1/2-y,1/2-z
1/2-x,y,1/2-z
y,x,1/2-z
1/2-y,1/2-x,1/2-z
-x,-y,-z
1/2+y,-x,-z
1/2+x,1/2+y,-z
-y,1/2+x,-z
-x,1/2+y,1/2+z
1/2+x,-y,1/2+z
-y,-x,1/2+z
1/2+y,1/2+x,1/2+z
loop_
_atom_site_type_symbol
_atom_site_label
_atom_site_fract_x
_atom_site_fract_y
_atom_site_fract_z
Si Si1 0.898200 0.347397 0.804593
Si Si2 0.250000 0.537404 0.250000
Si Si3 0.413440 0.413440 0.750000
Si Si4 0.250000 0.750000 0.000000
Si Si5 0.201401 0.391945 0.027910
O O1 0.929767 0.250000 0.750000
O O2 0.836369 0.404934 0.694222
O O3 0.818984 0.185530 0.587950
O O4 0.990363 0.402799 0.832427
O O5 0.198999 0.479208 0.127957
O O6 0.332694 0.409352 0.633277
O O7 0.140575 0.304052 0.059545
#
# Coordination Sequence:
#
# PCOD9563697 Si02
#       5
#    16   8   8   4  16
#     4  12  28  51  81 122 165 226 285 368 442 535
#     4  12  27  47  78 122 164 212 280 358 442 506
#     4  12  30  49  84 122 165 224 302 352 440 552
#     4  12  26  56  84 110 172 230 280 348 466 536
#     4  11  26  50  78 113 167 221 275 351 438 522
#
# _framework density 25.635614
#
# number of rings (size 3 to 8) (size 9 to 14) (size 15 to 20)
#    0.000    0.308    3.077    3.692   12.923    3.692 
#    0.000    0.000    0.000    0.000    0.000    0.000 
#    0.000    0.000    0.000    0.000    0.000    0.000 
#
# Total GULP energy -290032.549461 kJ/mol
# GULP energy per Si atom -5577.549028 kJ/mol
# Density = 2.557727 g / cm^3
# Si number density = 25.635614 Si / 1000 Ang^3
#
#
#
# Elastic Constant Matrix: (Units=GPa)
#
#
# Indices 1 2 3 4 5 6 
#
# 1 137.0888 62.9353 31.9977 0.0000 0.0000 0.0000
# 2 62.9353 137.0888 31.9977 0.0000 0.0000 0.0000
# 3 31.9977 31.9977 74.6920 0.0000 0.0000 0.0000
# 4 0.0000 0.0000 0.0000 46.2664 0.0000 0.0000
# 5 0.0000 0.0000 0.0000 0.0000 46.2664 0.0000
# 6 0.0000 0.0000 0.0000 0.0000 0.0000 -141.6922
#
#
#
# Elastic Compliance Matrix: (Units=1/GPa)
#
#
# Indices 1 2 3 4 5 6 
#
# 1 0.009639 -0.003846 -0.002482 0.000000 0.000000 0.000000
# 2 -0.003846 0.009639 -0.002482 0.000000 0.000000 0.000000
# 3 -0.002482 -0.002482 0.015515 0.000000 0.000000 0.000000
# 4 0.000000 0.000000 0.000000 0.021614 0.000000 0.000000
# 5 0.000000 0.000000 0.000000 0.000000 0.021614 0.000000
# 6 0.000000 0.000000 0.000000 0.000000 0.000000 -0.007058
#
#
# Mechanical properties :
#
#
# Convention : Reuss Voigt Hill
#
# Bulk Modulus (GPa) = 58.22712 66.97009 62.59861
# Shear Modulus (GPa) = 53.01755 4.96406 28.99081
#
# Velocity S-wave (km/s) = 4.55259 1.39305 3.36650
# Velocity P-wave (km/s) = 7.09912 5.36358 6.29148
#
# Compressibility (1/GPa) = 0.01717413
#
# Stress axis : x y z
#
# Youngs Moduli (GPa) = 103.73991 103.73991 64.45474
#
# Poissons Ratio (x) = 0.39899 0.15997
# Poissons Ratio (y) = 0.39899 0.15997
# Poissons Ratio (z) = 0.25747 0.25747
#
# Static dielectric constant tensor:
#      x y z
#    x 2.011610 0.000000 0.000000 
#    y 0.000000 2.011610 0.000000 
#    z 0.000000 0.000000 1.736390 
# 
# From -- ./inp_files/2443.got.cif
#   From: 2010.05.17/outbox.cif.g08.bks.cpg/sg126_2_cif.got.tgz:2443.got - 2010.05.20 11:58:20.
