data_PCOD9563577
_publ_section_title
;
Structure prediction by ZEFSAII (Michael W. Deem and Ramdas Pophale) SiO2 
 PCOD9563577
Probable space group: P 4/N N C
;
_chemical_formula_sum "Si O2"
_cell_formula_units_Z 96
_cell_length_a 14.425423
_cell_length_b 14.425423
_cell_length_c 19.246424
_cell_angle_alpha 90.000000
_cell_angle_beta 90.000000
_cell_angle_gamma 90.000000
_cell_volume 4005.042813
_symmetry_space_group_name_H-M "P 4/N N C"
_symmetry_group_IT_number 126
_space_group.IT_coordinate_system_code '2'
_symmetry_cell_setting 'tetragonal'
loop_
_space_group_symop_operation_xyz
x,y,z
1/2-y,x,z
1/2-x,1/2-y,z
y,1/2-x,z
x,1/2-y,1/2-z
1/2-x,y,1/2-z
y,x,1/2-z
1/2-y,1/2-x,1/2-z
-x,-y,-z
1/2+y,-x,-z
1/2+x,1/2+y,-z
-y,1/2+x,-z
-x,1/2+y,1/2+z
1/2+x,-y,1/2+z
-y,-x,1/2+z
1/2+y,1/2+x,1/2+z
loop_
_atom_site_type_symbol
_atom_site_label
_atom_site_fract_x
_atom_site_fract_y
_atom_site_fract_z
Si Si1 0.419716 0.644075 0.237639
Si Si2 0.601004 0.595730 0.178321
Si Si3 0.652761 0.131819 0.498991
Si Si4 0.985585 0.878395 0.904419
Si Si5 0.851962 0.858961 0.474503
Si Si6 0.333017 0.514683 0.138651
O O1 0.392545 0.750000 0.250000
O O2 0.497423 0.636231 0.176998
O O3 0.486329 0.607256 0.300698
O O4 0.341332 0.578249 0.207498
O O5 0.639871 0.639871 0.250000
O O6 0.641679 0.623532 0.106126
O O7 0.628213 0.238051 0.517980
O O8 0.591154 0.105646 0.431753
O O9 0.643449 0.072997 0.568961
O O10 0.982876 0.773283 0.874110
O O11 0.915668 0.938690 0.856677
O O12 0.936146 0.897612 0.979298
O O13 0.745258 0.874712 0.493876
#
# Coordination Sequence:
#
# PCOD9563577 Si02
#       6
#    16  16  16  16  16  16
#     4   9  19  39  61  95 134 182 247 311 375 438
#     4   8  20  34  59  91 134 187 246 307 372 440
#     4   9  20  38  58  92 136 188 246 304 377 454
#     4  11  22  38  62 102 146 198 249 303 386 453
#     4  11  20  32  55  92 146 196 245 299 370 453
#     4  11  22  40  65  99 145 195 250 314 374 450
#
# _framework density 23.969778999999999
#
# number of rings (size 3 to 8) (size 9 to 14) (size 15 to 20)
#    1.000    1.000    1.667    2.500    0.000    0.333 
#    6.000    0.833    0.000    4.000   21.667    0.000 
#    0.000    5.333    0.000    0.000    0.000    0.000 
#
# Total GULP energy -534734.437735 kJ/mol
# GULP energy per Si atom -5570.150393 kJ/mol
# Density = 2.391522 g / cm^3
# Si number density = 23.969779 Si / 1000 Ang^3
#
#
#
# Elastic Constant Matrix: (Units=GPa)
#
#
# Indices 1 2 3 4 5 6 
#
# 1 123.5758 74.6617 51.2185 0.0000 0.0000 0.0000
# 2 74.6617 123.5758 51.2185 0.0000 0.0000 0.0000
# 3 51.2185 51.2185 56.6079 0.0000 0.0000 0.0000
# 4 0.0000 0.0000 0.0000 26.5859 0.0000 0.0000
# 5 0.0000 0.0000 0.0000 0.0000 26.5859 0.0000
# 6 0.0000 0.0000 0.0000 0.0000 0.0000 23.5774
#
#
#
# Elastic Compliance Matrix: (Units=1/GPa)
#
#
# Indices 1 2 3 4 5 6 
#
# 1 0.014959 -0.005485 -0.008572 0.000000 0.000000 0.000000
# 2 -0.005485 0.014959 -0.008572 0.000000 0.000000 0.000000
# 3 -0.008572 -0.008572 0.033177 0.000000 0.000000 0.000000
# 4 0.000000 0.000000 0.000000 0.037614 0.000000 0.000000
# 5 0.000000 0.000000 0.000000 0.000000 0.037614 0.000000
# 6 0.000000 0.000000 0.000000 0.000000 0.000000 0.042413
#
#
# Mechanical properties :
#
#
# Convention : Reuss Voigt Hill
#
# Bulk Modulus (GPa) = 56.06284 73.10634 64.58459
# Shear Modulus (GPa) = 21.55733 23.79392 22.67562
#
# Velocity S-wave (km/s) = 3.00218 3.15407 3.07906
# Velocity P-wave (km/s) = 5.95459 6.62041 6.29631
#
# Compressibility (1/GPa) = 0.01783713
#
# Stress axis : x y z
#
# Youngs Moduli (GPa) = 66.84962 66.84962 30.14128
#
# Poissons Ratio (x) = 0.36667 0.25837
# Poissons Ratio (y) = 0.36667 0.25837
# Poissons Ratio (z) = 0.57303 0.57303
#
# Static dielectric constant tensor:
#      x y z
#    x 1.988130 0.000000 0.000000 
#    y 0.000000 1.988130 0.000000 
#    z 0.000000 0.000000 1.986670 
# 
# From -- ./inp_files/5227.got.cif
#   From: 2010.05.17/outbox.cif.g08.bks.cpg/sg126_3_cif.got.tgz:5227.got - 2010.05.20 11:58:20.
