data_PCOD9563349
_publ_section_title
;
Structure prediction by ZEFSAII (Michael W. Deem and Ramdas Pophale) SiO2 
 PCOD9563349
Probable space group: P 4/N N C
;
_chemical_formula_sum "Si O2"
_cell_formula_units_Z 112
_cell_length_a 15.343641
_cell_length_b 15.343641
_cell_length_c 22.636483
_cell_angle_alpha 90.000000
_cell_angle_beta 90.000000
_cell_angle_gamma 90.000000
_cell_volume 5329.246507
_symmetry_space_group_name_H-M "P 4/N N C"
_symmetry_group_IT_number 126
_space_group.IT_coordinate_system_code '2'
_symmetry_cell_setting 'tetragonal'
loop_
_space_group_symop_operation_xyz
x,y,z
1/2-y,x,z
1/2-x,1/2-y,z
y,1/2-x,z
x,1/2-y,1/2-z
1/2-x,y,1/2-z
y,x,1/2-z
1/2-y,1/2-x,1/2-z
-x,-y,-z
1/2+y,-x,-z
1/2+x,1/2+y,-z
-y,1/2+x,-z
-x,1/2+y,1/2+z
1/2+x,-y,1/2+z
-y,-x,1/2+z
1/2+y,1/2+x,1/2+z
loop_
_atom_site_type_symbol
_atom_site_label
_atom_site_fract_x
_atom_site_fract_y
_atom_site_fract_z
Si Si1 0.730359 0.350333 0.360218
Si Si2 0.516330 0.334897 0.765087
Si Si3 0.952910 0.097986 0.420754
Si Si4 0.860137 0.167226 0.522470
Si Si5 0.571473 0.520210 0.154031
Si Si6 0.384956 0.296831 0.436083
Si Si7 0.617714 0.802556 0.077092
O O1 0.750000 0.250000 0.345179
O O2 0.712062 0.407601 0.302603
O O3 0.638482 0.370530 0.393171
O O4 0.805522 0.370295 0.409302
O O5 0.458393 0.250000 0.750000
O O6 0.464213 0.397973 0.808354
O O7 0.541350 0.393902 0.707657
O O8 0.926919 0.101221 0.490606
O O9 0.027262 0.168734 0.408089
O O10 0.989743 0.008295 0.392613
O O11 0.761354 0.134231 0.511090
O O12 0.655920 0.544373 0.116371
O O13 0.301597 0.357243 0.421799
O O14 0.397366 0.304227 0.506909
O O15 0.640176 0.703230 0.089960
#
# Coordination Sequence:
#
# PCOD9563349 Si02
#       7
#    16  16  16  16  16  16  16
#     4  10  19  37  59  86 119 162 207 256 324 394
#     4  10  22  38  56  78 118 164 205 260 305 366
#     4  10  20  34  59  89 125 161 202 269 319 397
#     4   9  15  30  54  87 120 155 194 250 322 402
#     4  10  21  37  56  85 116 160 214 258 312 357
#     4   9  20  38  57  83 122 162 201 256 325 395
#     4   9  18  34  56  81 116 158 201 247 301 377
#
# _framework density 21.016105
#
# number of rings (size 3 to 8) (size 9 to 14) (size 15 to 20)
#    0.000    2.429    2.857    1.714    0.000    8.857 
#    2.571    0.000    0.000    3.429    0.000    0.000 
#    0.000   18.286    0.000    0.000    0.000    0.000 
#
# Total GULP energy -623814.726228 kJ/mol
# GULP energy per Si atom -5569.774341 kJ/mol
# Density = 2.096827 g / cm^3
# Si number density = 21.016105 Si / 1000 Ang^3
#
#
#
# Elastic Constant Matrix: (Units=GPa)
#
#
# Indices 1 2 3 4 5 6 
#
# 1 54.5305 11.4108 43.5388 0.0000 0.0000 0.0000
# 2 11.4108 54.5305 43.5388 0.0000 0.0000 0.0000
# 3 43.5388 43.5388 82.8256 0.0000 0.0000 0.0000
# 4 0.0000 0.0000 0.0000 19.5403 0.0000 0.0000
# 5 0.0000 0.0000 0.0000 0.0000 19.5403 0.0000
# 6 0.0000 0.0000 0.0000 0.0000 0.0000 17.5162
#
#
#
# Elastic Compliance Matrix: (Units=1/GPa)
#
#
# Indices 1 2 3 4 5 6 
#
# 1 0.036388 0.013197 -0.026065 0.000000 0.000000 0.000000
# 2 0.013197 0.036388 -0.026065 0.000000 0.000000 0.000000
# 3 -0.026065 -0.026065 0.039477 0.000000 0.000000 0.000000
# 4 0.000000 0.000000 0.000000 0.051176 0.000000 0.000000
# 5 0.000000 0.000000 0.000000 0.000000 0.051176 0.000000
# 6 0.000000 0.000000 0.000000 0.000000 0.000000 0.057090
#
#
# Mechanical properties :
#
#
# Convention : Reuss Voigt Hill
#
# Bulk Modulus (GPa) = 29.08167 43.20706 36.14436
# Shear Modulus (GPa) = 13.84942 17.54588 15.69765
#
# Velocity S-wave (km/s) = 2.56987 2.89256 2.73597
# Velocity P-wave (km/s) = 4.76167 5.63556 5.21694
#
# Compressibility (1/GPa) = 0.03438593
#
# Stress axis : x y z
#
# Youngs Moduli (GPa) = 27.48140 27.48140 25.33115
#
# Poissons Ratio (x) = -0.36267 0.66027
# Poissons Ratio (y) = -0.36267 0.66027
# Poissons Ratio (z) = 0.71631 0.71631
#
# Static dielectric constant tensor:
#      x y z
#    x 1.797690 0.000000 0.000000 
#    y 0.000000 1.797690 0.000000 
#    z 0.000000 0.000000 1.854730 
# 
# From -- ./inp_files/5835.got.cif
#   From: 2010.05.17/outbox.cif.g08.bks.cpg/sg126_3_cif.got.tgz:5835.got - 2010.05.20 11:58:20.
