data_PCOD9563321
_publ_section_title
;
Structure prediction by ZEFSAII (Michael W. Deem and Ramdas Pophale) SiO2 
 PCOD9563321
Probable space group: P 4/N N C
;
_chemical_formula_sum "Si O2"
_cell_formula_units_Z 48
_cell_length_a 20.506443
_cell_length_b 20.506443
_cell_length_c 5.086488
_cell_angle_alpha 90.000000
_cell_angle_beta 90.000000
_cell_angle_gamma 90.000000
_cell_volume 2138.940455
_symmetry_space_group_name_H-M "P 4/N N C"
_symmetry_group_IT_number 126
_space_group.IT_coordinate_system_code '2'
_symmetry_cell_setting 'tetragonal'
loop_
_space_group_symop_operation_xyz
x,y,z
1/2-y,x,z
1/2-x,1/2-y,z
y,1/2-x,z
x,1/2-y,1/2-z
1/2-x,y,1/2-z
y,x,1/2-z
1/2-y,1/2-x,1/2-z
-x,-y,-z
1/2+y,-x,-z
1/2+x,1/2+y,-z
-y,1/2+x,-z
-x,1/2+y,1/2+z
1/2+x,-y,1/2+z
-y,-x,1/2+z
1/2+y,1/2+x,1/2+z
loop_
_atom_site_type_symbol
_atom_site_label
_atom_site_fract_x
_atom_site_fract_y
_atom_site_fract_z
Si Si1 0.427184 0.173918 0.197327
Si Si2 0.388551 0.011082 0.801229
Si Si3 0.621904 0.177136 0.812367
O O1 0.432379 0.250000 0.250000
O O2 0.355871 0.144130 0.250000
O O3 0.473597 0.135180 0.403697
O O4 0.447215 0.155657 0.902139
O O5 0.460991 0.039010 0.750000
O O6 0.372975 0.937722 0.722125
O O7 0.598420 0.250000 0.750000
O O8 0.673526 0.153692 0.596569
#
# Coordination Sequence:
#
# PCOD9563321 Si02
#       3
#    16  16  16
#     4  10  19  33  55  83 119 160 201 249 301 359
#     4  10  22  40  63  90 119 155 201 253 307 361
#     4  12  26  43  66  93 124 164 206 252 304 362
#
# _framework density 22.441016999999999
#
# number of rings (size 3 to 8) (size 9 to 14) (size 15 to 20)
#    0.000    1.333    0.000    6.000    0.000    3.667 
#    0.000    0.000    0.000    6.000    0.000    0.000 
#    0.000    0.000    0.000    0.000    0.000    0.000 
#
# Total GULP energy -268651.773967 kJ/mol
# GULP energy per Si atom -5596.911958 kJ/mol
# Density = 2.238994 g / cm^3
# Si number density = 22.441017 Si / 1000 Ang^3
#
#
#
# Elastic Constant Matrix: (Units=GPa)
#
#
# Indices 1 2 3 4 5 6 
#
# 1 50.5302 46.2791 11.8685 0.0000 0.0000 0.0000
# 2 46.2791 50.5296 11.8676 0.0000 0.0000 0.0000
# 3 11.8685 11.8676 58.8906 0.0000 0.0000 0.0000
# 4 0.0000 0.0000 0.0000 24.7637 0.0000 0.0000
# 5 0.0000 0.0000 0.0000 0.0000 24.7644 0.0000
# 6 0.0000 0.0000 0.0000 0.0000 0.0000 9.4297
#
#
#
# Elastic Compliance Matrix: (Units=1/GPa)
#
#
# Indices 1 2 3 4 5 6 
#
# 1 0.123057 -0.112190 -0.002192 0.000000 0.000000 0.000000
# 2 -0.112190 0.123057 -0.002188 0.000000 0.000000 0.000000
# 3 -0.002192 -0.002188 0.017863 0.000000 0.000000 0.000000
# 4 0.000000 0.000000 0.000000 0.040382 0.000000 0.000000
# 5 0.000000 0.000000 0.000000 0.000000 0.040381 0.000000
# 6 0.000000 0.000000 0.000000 0.000000 0.000000 0.106048
#
#
# Mechanical properties :
#
#
# Convention : Reuss Voigt Hill
#
# Bulk Modulus (GPa) = 32.42882 33.33120 32.88001
# Shear Modulus (GPa) = 7.20247 17.78724 12.49485
#
# Velocity S-wave (km/s) = 1.79345 2.81841 2.36219
# Velocity P-wave (km/s) = 4.33252 5.04740 4.70356
#
# Compressibility (1/GPa) = 0.03083677
#
# Stress axis : x y z
#
# Youngs Moduli (GPa) = 8.12634 8.12630 55.98074
#
# Poissons Ratio (x) = 0.91169 0.12269
# Poissons Ratio (y) = 0.91170 0.12250
# Poissons Ratio (z) = 0.01781 0.01778
#
# Static dielectric constant tensor:
#      x y z
#    x 1.807410 0.000000 0.000000 
#    y 0.000000 1.807410 0.000000 
#    z 0.000000 0.000000 1.801870 
# 
# From -- ./inp_files/287.got.cif
#   From: 2010.05.17/outbox.cif.g08.bks.cpg/sg126_1_cif.got.tgz:287.got - 2010.05.20 11:58:20.
