data_PCOD9563605
_publ_section_title
;
Structure prediction by ZEFSAII (Michael W. Deem and Ramdas Pophale) SiO2 
 PCOD9563605
Probable space group: P 4/N N C
;
_chemical_formula_sum "Si O2"
_cell_formula_units_Z 112
_cell_length_a 14.662832
_cell_length_b 14.662832
_cell_length_c 22.936052
_cell_angle_alpha 90.000000
_cell_angle_beta 90.000000
_cell_angle_gamma 90.000000
_cell_volume 4931.220039
_symmetry_space_group_name_H-M "P 4/N N C"
_symmetry_group_IT_number 126
_space_group.IT_coordinate_system_code '2'
_symmetry_cell_setting 'tetragonal'
loop_
_space_group_symop_operation_xyz
x,y,z
1/2-y,x,z
1/2-x,1/2-y,z
y,1/2-x,z
x,1/2-y,1/2-z
1/2-x,y,1/2-z
y,x,1/2-z
1/2-y,1/2-x,1/2-z
-x,-y,-z
1/2+y,-x,-z
1/2+x,1/2+y,-z
-y,1/2+x,-z
-x,1/2+y,1/2+z
1/2+x,-y,1/2+z
-y,-x,1/2+z
1/2+y,1/2+x,1/2+z
loop_
_atom_site_type_symbol
_atom_site_label
_atom_site_fract_x
_atom_site_fract_y
_atom_site_fract_z
Si Si1 0.342169 0.128158 0.519401
Si Si2 0.311913 0.600167 0.807214
Si Si3 0.829489 0.120795 0.496951
Si Si4 0.980560 0.240731 0.185605
Si Si5 0.954650 0.572608 0.135192
Si Si6 0.379567 0.037113 0.087454
Si Si7 0.595865 0.135364 0.633012
O O1 0.373687 0.233460 0.522795
O O2 0.380732 0.074365 0.574670
O O3 0.380994 0.098552 0.456639
O O4 0.250000 0.602602 0.750000
O O5 0.395287 0.670796 0.805910
O O6 0.355398 0.502242 0.822547
O O7 0.238894 0.627899 0.856232
O O8 0.720810 0.131110 0.490349
O O9 0.873344 0.089328 0.436420
O O10 0.850018 0.048212 0.546871
O O11 0.022269 0.250000 0.250000
O O12 0.933751 0.332955 0.162061
O O13 0.046811 0.198093 0.136662
O O14 0.875250 0.506596 0.158407
O O15 0.031767 0.497921 0.120599
#
# Coordination Sequence:
#
# PCOD9563605 Si02
#       7
#    16  16  16  16  16  16  16
#     4  11  25  43  67  93 132 181 228 274 334 407
#     4  11  24  43  66  94 135 180 229 275 341 418
#     4  11  22  34  58 100 136 164 210 277 358 419
#     4  11  23  42  67  98 135 180 224 275 348 414
#     4  11  25  41  65  99 135 172 223 284 344 400
#     4  11  24  40  67  98 134 175 222 283 350 406
#     4  12  23  38  65  93 131 178 217 280 338 411
#
# _framework density 22.712432
#
# number of rings (size 3 to 8) (size 9 to 14) (size 15 to 20)
#    0.000    0.857    4.286    3.429    6.000    0.571 
#    0.000    0.000    0.000    0.000    0.000    2.000 
#    0.000    0.000    0.000    0.000    0.000    0.000 
#
# Total GULP energy -626743.490442 kJ/mol
# GULP energy per Si atom -5595.924022 kJ/mol
# Density = 2.266074 g / cm^3
# Si number density = 22.712432 Si / 1000 Ang^3
#
#
#
# Elastic Constant Matrix: (Units=GPa)
#
#
# Indices 1 2 3 4 5 6 
#
# 1 52.5945 14.0373 13.9101 0.0000 0.0000 0.0000
# 2 14.0373 52.5945 13.9101 0.0000 0.0000 0.0000
# 3 13.9101 13.9101 95.8104 0.0000 0.0000 0.0000
# 4 0.0000 0.0000 0.0000 14.5793 0.0000 0.0000
# 5 0.0000 0.0000 0.0000 0.0000 14.5793 0.0000
# 6 0.0000 0.0000 0.0000 0.0000 0.0000 24.7168
#
#
#
# Elastic Compliance Matrix: (Units=1/GPa)
#
#
# Indices 1 2 3 4 5 6 
#
# 1 0.020956 -0.004980 -0.002319 0.000000 0.000000 0.000000
# 2 -0.004980 0.020956 -0.002319 0.000000 0.000000 0.000000
# 3 -0.002319 -0.002319 0.011111 0.000000 0.000000 0.000000
# 4 0.000000 0.000000 0.000000 0.068590 0.000000 0.000000
# 5 0.000000 0.000000 0.000000 0.000000 0.068590 0.000000
# 6 0.000000 0.000000 0.000000 0.000000 0.000000 0.040458
#
#
# Mechanical properties :
#
#
# Convention : Reuss Voigt Hill
#
# Bulk Modulus (GPa) = 29.59859 31.63491 30.61675
# Shear Modulus (GPa) = 19.14532 21.38456 20.26494
#
# Velocity S-wave (km/s) = 2.90650 3.07177 2.99028
# Velocity P-wave (km/s) = 4.93192 5.15167 5.04299
#
# Compressibility (1/GPa) = 0.03378539
#
# Stress axis : x y z
#
# Youngs Moduli (GPa) = 47.71934 47.71934 90.00265
#
# Poissons Ratio (x) = 0.23762 0.20876
# Poissons Ratio (y) = 0.23762 0.20876
# Poissons Ratio (z) = 0.11068 0.11068
#
# Static dielectric constant tensor:
#      x y z
#    x 1.887300 0.000000 0.000000 
#    y 0.000000 1.887300 0.000000 
#    z 0.000000 0.000000 1.879420 
# 
# From -- ./inp_files/5827.got.cif
#   From: 2010.05.17/outbox.cif.g08.bks.cpg/sg126_3_cif.got.tgz:5827.got - 2010.05.20 11:58:20.
