data_PCOD9563689
_publ_section_title
;
Structure prediction by ZEFSAII (Michael W. Deem and Ramdas Pophale) SiO2 
 PCOD9563689
Probable space group: P 4/N N C
;
_chemical_formula_sum "Si O2"
_cell_formula_units_Z 84
_cell_length_a 13.994424
_cell_length_b 13.994424
_cell_length_c 19.269648
_cell_angle_alpha 90.000000
_cell_angle_beta 90.000000
_cell_angle_gamma 90.000000
_cell_volume 3773.843076
_symmetry_space_group_name_H-M "P 4/N N C"
_symmetry_group_IT_number 126
_space_group.IT_coordinate_system_code '2'
_symmetry_cell_setting 'tetragonal'
loop_
_space_group_symop_operation_xyz
x,y,z
1/2-y,x,z
1/2-x,1/2-y,z
y,1/2-x,z
x,1/2-y,1/2-z
1/2-x,y,1/2-z
y,x,1/2-z
1/2-y,1/2-x,1/2-z
-x,-y,-z
1/2+y,-x,-z
1/2+x,1/2+y,-z
-y,1/2+x,-z
-x,1/2+y,1/2+z
1/2+x,-y,1/2+z
-y,-x,1/2+z
1/2+y,1/2+x,1/2+z
loop_
_atom_site_type_symbol
_atom_site_label
_atom_site_fract_x
_atom_site_fract_y
_atom_site_fract_z
Si Si1 0.562368 0.691702 0.419572
Si Si2 0.365167 0.358224 0.166716
Si Si3 0.750000 0.750000 0.488365
Si Si4 0.964779 0.466483 0.604211
Si Si5 0.465098 0.329822 0.797235
Si Si6 0.684167 0.119437 0.496633
O O1 0.640047 0.709141 0.478581
O O2 0.549184 0.578356 0.407064
O O3 0.587725 0.763851 0.356126
O O4 0.456497 0.720697 0.441232
O O5 0.253641 0.379543 0.150099
O O6 0.373223 0.373223 0.250000
O O7 0.434995 0.427323 0.125130
O O8 0.897560 0.430349 0.542430
O O9 0.955265 0.398414 0.670939
O O10 0.512227 0.250000 0.750000
O O11 0.391965 0.391965 0.750000
O O12 0.646131 0.217858 0.463834
#
# Coordination Sequence:
#
# PCOD9563689 Si02
#       6
#    16  16   4  16  16  16
#     4  12  24  42  66 104 141 193 237 299 367 443
#     4   9  21  44  69  98 135 176 229 292 357 428
#     4  12  20  44  65 100 148 168 233 296 348 418
#     4  12  24  42  71 103 139 187 245 295 368 437
#     4  12  23  40  67 105 148 180 235 295 375 450
#     4  11  25  47  69  93 142 195 246 305 365 435
#
# _framework density 22.258476000000002
#
# number of rings (size 3 to 8) (size 9 to 14) (size 15 to 20)
#    0.000    0.762    5.714    1.714    2.667    0.190 
#    0.000    0.000    0.000    1.143    0.000    0.000 
#    0.000    0.000    0.000    0.000    0.000    0.000 
#
# Total GULP energy -467696.270196 kJ/mol
# GULP energy per Si atom -5567.812740 kJ/mol
# Density = 2.220781 g / cm^3
# Si number density = 22.258476 Si / 1000 Ang^3
#
#
#
# Elastic Constant Matrix: (Units=GPa)
#
#
# Indices 1 2 3 4 5 6 
#
# 1 115.1343 16.1759 19.9420 0.0000 0.0000 0.0000
# 2 16.1759 115.1343 19.9420 0.0000 0.0000 0.0000
# 3 19.9420 19.9420 56.9487 0.0000 0.0000 0.0000
# 4 0.0000 0.0000 0.0000 32.7435 0.0000 0.0000
# 5 0.0000 0.0000 0.0000 0.0000 32.7435 0.0000
# 6 0.0000 0.0000 0.0000 0.0000 0.0000 38.9708
#
#
#
# Elastic Compliance Matrix: (Units=1/GPa)
#
#
# Indices 1 2 3 4 5 6 
#
# 1 0.009314 -0.000792 -0.002984 0.000000 0.000000 0.000000
# 2 -0.000792 0.009314 -0.002984 0.000000 0.000000 0.000000
# 3 -0.002984 -0.002984 0.019650 0.000000 0.000000 0.000000
# 4 0.000000 0.000000 0.000000 0.030540 0.000000 0.000000
# 5 0.000000 0.000000 0.000000 0.000000 0.030540 0.000000
# 6 0.000000 0.000000 0.000000 0.000000 0.000000 0.025660
#
#
# Mechanical properties :
#
#
# Convention : Reuss Voigt Hill
#
# Bulk Modulus (GPa) = 40.39287 44.37081 42.38184
# Shear Modulus (GPa) = 34.06221 36.30205 35.18213
#
# Velocity S-wave (km/s) = 3.91615 4.04286 3.98001
# Velocity P-wave (km/s) = 6.21570 6.46302 6.34056
#
# Compressibility (1/GPa) = 0.02475685
#
# Stress axis : x y z
#
# Youngs Moduli (GPa) = 107.36976 107.36976 50.89149
#
# Poissons Ratio (x) = 0.08500 0.15187
# Poissons Ratio (y) = 0.08500 0.15187
# Poissons Ratio (z) = 0.32041 0.32041
#
# Static dielectric constant tensor:
#      x y z
#    x 1.840770 0.000000 0.000000 
#    y 0.000000 1.840770 0.000000 
#    z 0.000000 0.000000 2.014600 
# 
# From -- ./inp_files/5152.got.cif
#   From: 2010.05.17/outbox.cif.g08.bks.cpg/sg126_3_cif.got.tgz:5152.got - 2010.05.20 11:58:20.
