data_PCOD9563029
_publ_section_title
;
Structure prediction by ZEFSAII (Michael W. Deem and Ramdas Pophale) SiO2 
 PCOD9563029
Probable space group: P 4/N B M
;
_chemical_formula_sum "Si O2"
_cell_formula_units_Z 96
_cell_length_a 14.809611
_cell_length_b 14.809611
_cell_length_c 19.345133
_cell_angle_alpha 90.000000
_cell_angle_beta 90.000000
_cell_angle_gamma 90.000000
_cell_volume 4242.863131
_symmetry_space_group_name_H-M "P 4/N B M"
_symmetry_group_IT_number 125
_space_group.IT_coordinate_system_code '2'
_symmetry_cell_setting 'tetragonal'
loop_
_space_group_symop_operation_xyz
x,y,z
1/2-y,x,z
1/2-x,1/2-y,z
y,1/2-x,z
x,1/2-y,-z
1/2-x,y,-z
y,x,-z
1/2-y,1/2-x,-z
-x,-y,-z
1/2+y,-x,-z
1/2+x,1/2+y,-z
-y,1/2+x,-z
-x,1/2+y,z
1/2+x,-y,z
-y,-x,z
1/2+y,1/2+x,z
loop_
_atom_site_type_symbol
_atom_site_label
_atom_site_fract_x
_atom_site_fract_y
_atom_site_fract_z
Si Si1 0.000457 0.213512 0.832083
Si Si2 0.505194 0.145945 0.018222
Si Si3 0.329233 0.978744 0.444467
Si Si4 0.401217 0.052497 0.205202
Si Si5 0.335035 0.123781 0.347943
Si Si6 0.751724 0.106365 0.304289
O O1 0.971482 0.161904 0.900630
O O2 0.089856 0.156767 0.816134
O O3 0.012404 0.320206 0.840097
O O4 0.944877 0.208203 0.760651
O O5 0.592177 0.092177 0.988029
O O6 0.486965 0.250000 0.000000
O O7 0.420202 0.079799 0.000000
O O8 0.250000 0.982632 0.500000
O O9 0.409374 0.909374 0.462944
O O10 0.283501 0.943337 0.373035
O O11 0.363409 0.076799 0.419689
O O12 0.372486 0.062670 0.285077
O O13 0.490500 0.990500 0.198749
O O14 0.370017 0.226193 0.343576
O O15 0.838596 0.161405 0.276069
O O16 0.678555 0.178555 0.328104
#
# Coordination Sequence:
#
# PCOD9563029 Si02
#       6
#    16  16  16  16  16  16
#     4  12  24  41  69 101 136 181 230 287 352 420
#     4  11  26  49  72 103 146 192 243 300 367 445
#     4  11  23  42  66  96 136 184 234 288 353 421
#     4  12  23  40  68 103 141 182 230 289 353 421
#     4  11  23  43  67  98 139 181 233 297 357 425
#     4  10  20  36  60  93 131 172 227 288 343 407
#
# _framework density 22.626232000000002
#
# number of rings (size 3 to 8) (size 9 to 14) (size 15 to 20)
#    0.000    0.833    3.333    4.000    0.000    4.833 
#    0.000    5.833    0.000    0.000    0.000    0.000 
#    0.000    0.000    0.000    0.000    0.000    0.000 
#
# Total GULP energy -535469.986914 kJ/mol
# GULP energy per Si atom -5577.812364 kJ/mol
# Density = 2.257473 g / cm^3
# Si number density = 22.626232 Si / 1000 Ang^3
#
#
#
# Elastic Constant Matrix: (Units=GPa)
#
#
# Indices 1 2 3 4 5 6 
#
# 1 70.0208 69.1392 12.6971 0.0000 0.0000 0.0000
# 2 69.1392 70.0185 12.7004 0.0000 0.0000 0.0000
# 3 12.6971 12.7004 63.0609 0.0000 0.0000 0.0000
# 4 0.0000 0.0000 0.0000 7.9885 0.0000 0.0000
# 5 0.0000 0.0000 0.0000 0.0000 7.9861 0.0000
# 6 0.0000 0.0000 0.0000 0.0000 0.0000 26.9853
#
#
#
# Elastic Compliance Matrix: (Units=1/GPa)
#
#
# Indices 1 2 3 4 5 6 
#
# 1 0.571612 -0.564167 -0.001470 0.000000 0.000000 0.000000
# 2 -0.564167 0.571643 -0.001535 0.000000 0.000000 0.000000
# 3 -0.001470 -0.001535 0.016463 0.000000 0.000000 0.000000
# 4 0.000000 0.000000 0.000000 0.125180 0.000000 0.000000
# 5 0.000000 0.000000 0.000000 0.000000 0.125217 0.000000
# 6 0.000000 0.000000 0.000000 0.000000 0.000000 0.037057
#
#
# Mechanical properties :
#
#
# Convention : Reuss Voigt Hill
#
# Bulk Modulus (GPa) = 39.41039 43.57483 41.49261
# Shear Modulus (GPa) = 1.93052 15.82955 8.88003
#
# Velocity S-wave (km/s) = 0.92470 2.64788 1.98323
# Velocity P-wave (km/s) = 4.31230 5.35245 4.86028
#
# Compressibility (1/GPa) = 0.02537402
#
# Stress axis : x y z
#
# Youngs Moduli (GPa) = 1.74944 1.74934 60.74325
#
# Poissons Ratio (x) = 0.98692 0.08928
# Poissons Ratio (y) = 0.98698 0.09323
# Poissons Ratio (z) = 0.00257 0.00268
#
# Static dielectric constant tensor:
#      x y z
#    x 1.886990 0.000000 0.000000 
#    y 0.000000 1.887000 0.000000 
#    z 0.000000 0.000000 1.932360 
# 
# From -- ./inp_files/5901.got.cif
#   From: 2010.05.17/outbox.cif.g08.bks.cpg/sg125_3_cif.got.tgz:5901.got - 2010.05.20 11:54:10.
