data_PCOD9563212
_publ_section_title
;
Structure prediction by ZEFSAII (Michael W. Deem and Ramdas Pophale) SiO2 
 PCOD9563212
Probable space group: P 4/N B M
;
_chemical_formula_sum "Si O2"
_cell_formula_units_Z 88
_cell_length_a 12.820438
_cell_length_b 12.820438
_cell_length_c 28.505651
_cell_angle_alpha 90.000000
_cell_angle_beta 90.000000
_cell_angle_gamma 90.000000
_cell_volume 4685.292288
_symmetry_space_group_name_H-M "P 4/N B M"
_symmetry_group_IT_number 125
_space_group.IT_coordinate_system_code '2'
_symmetry_cell_setting 'tetragonal'
loop_
_space_group_symop_operation_xyz
x,y,z
1/2-y,x,z
1/2-x,1/2-y,z
y,1/2-x,z
x,1/2-y,-z
1/2-x,y,-z
y,x,-z
1/2-y,1/2-x,-z
-x,-y,-z
1/2+y,-x,-z
1/2+x,1/2+y,-z
-y,1/2+x,-z
-x,1/2+y,z
1/2+x,-y,z
-y,-x,z
1/2+y,1/2+x,z
loop_
_atom_site_type_symbol
_atom_site_label
_atom_site_fract_x
_atom_site_fract_y
_atom_site_fract_z
Si Si1 0.750000 0.425133 0.000000
Si Si2 0.156632 0.015738 0.529835
Si Si3 0.750557 0.076717 0.177905
Si Si4 0.074684 0.278111 0.735945
Si Si5 0.421170 0.285754 0.367082
Si Si6 0.735356 0.925696 0.089492
O O1 0.767618 0.498536 0.044817
O O2 0.849269 0.349269 0.992840
O O3 0.250000 0.968672 0.500000
O O4 0.118147 0.118147 0.500000
O O5 0.196064 0.027852 0.582870
O O6 0.058774 0.941227 0.532204
O O7 0.844290 0.155711 0.165341
O O8 0.648801 0.148801 0.186188
O O9 0.781460 0.010463 0.223633
O O10 0.730837 0.996174 0.135872
O O11 0.135422 0.166734 0.739962
O O12 0.025612 0.292459 0.683864
O O13 0.327489 0.368770 0.366841
O O14 0.641577 0.842044 0.088748
#
# Coordination Sequence:
#
# PCOD9563212 Si02
#       6
#     8  16  16  16  16  16
#     4  11  24  41  62  92 128 163 200 243 294 360
#     4  11  22  35  55  83 112 147 190 232 282 344
#     4  11  24  40  58  84 118 158 201 241 291 355
#     4   9  19  36  59  88 115 142 187 240 290 343
#     4   9  17  33  58  84 108 140 184 237 285 330
#     4  11  24  41  63  91 121 155 201 253 301 351
#
# _framework density 18.782177999999998
#
# number of rings (size 3 to 8) (size 9 to 14) (size 15 to 20)
#    0.000    1.727    1.818    3.818    0.000   10.545 
#    0.000    3.636    0.000    0.000    0.000    0.000 
#    0.000    0.000    0.000    0.000    0.000    0.000 
#
# Total GULP energy -490873.158752 kJ/mol
# GULP energy per Si atom -5578.104077 kJ/mol
# Density = 1.873943 g / cm^3
# Si number density = 18.782178 Si / 1000 Ang^3
#
#
#
# Elastic Constant Matrix: (Units=GPa)
#
#
# Indices 1 2 3 4 5 6 
#
# 1 64.9664 10.8300 24.6435 0.0000 0.0000 0.0000
# 2 10.8300 64.9664 24.6435 0.0000 0.0000 0.0000
# 3 24.6435 24.6435 123.4682 0.0000 0.0000 0.0000
# 4 0.0000 0.0000 0.0000 4.6371 0.0000 0.0000
# 5 0.0000 0.0000 0.0000 0.0000 4.6371 0.0000
# 6 0.0000 0.0000 0.0000 0.0000 0.0000 12.9266
#
#
#
# Elastic Compliance Matrix: (Units=1/GPa)
#
#
# Indices 1 2 3 4 5 6 
#
# 1 0.016816 -0.001655 -0.003026 0.000000 0.000000 0.000000
# 2 -0.001655 0.016816 -0.003026 0.000000 0.000000 0.000000
# 3 -0.003026 -0.003026 0.009307 0.000000 0.000000 0.000000
# 4 0.000000 0.000000 0.000000 0.215652 0.000000 0.000000
# 5 0.000000 0.000000 0.000000 0.000000 0.215652 0.000000
# 6 0.000000 0.000000 0.000000 0.000000 0.000000 0.077360
#
#
# Mechanical properties :
#
#
# Convention : Reuss Voigt Hill
#
# Bulk Modulus (GPa) = 36.33070 41.51501 38.92285
# Shear Modulus (GPa) = 8.67765 17.32577 13.00171
#
# Velocity S-wave (km/s) = 2.15179 3.04049 2.63389
# Velocity P-wave (km/s) = 5.05557 5.87176 5.47888
#
# Compressibility (1/GPa) = 0.02752493
#
# Stress axis : x y z
#
# Youngs Moduli (GPa) = 59.46580 59.46580 107.44365
#
# Poissons Ratio (x) = 0.09844 0.32513
# Poissons Ratio (y) = 0.09844 0.32513
# Poissons Ratio (z) = 0.17994 0.17994
#
# Static dielectric constant tensor:
#      x y z
#    x 1.647150 0.000000 0.000000 
#    y 0.000000 1.647150 0.000000 
#    z 0.000000 0.000000 1.682690 
# 
# From -- ./inp_files/6530.got.cif
#   From: 2010.05.17/outbox.cif.g08.bks.cpg/sg125_4_cif.got.tgz:6530.got - 2010.05.20 11:54:10.
