data_PCOD9563550
_publ_section_title
;
Structure prediction by ZEFSAII (Michael W. Deem and Ramdas Pophale) SiO2 
 PCOD9563550
Probable space group: P 4/N N C
;
_chemical_formula_sum "Si O2"
_cell_formula_units_Z 84
_cell_length_a 12.914933
_cell_length_b 12.914933
_cell_length_c 26.703889
_cell_angle_alpha 90.000000
_cell_angle_beta 90.000000
_cell_angle_gamma 90.000000
_cell_volume 4454.088368
_symmetry_space_group_name_H-M "P 4/N N C"
_symmetry_group_IT_number 126
_space_group.IT_coordinate_system_code '2'
_symmetry_cell_setting 'tetragonal'
loop_
_space_group_symop_operation_xyz
x,y,z
1/2-y,x,z
1/2-x,1/2-y,z
y,1/2-x,z
x,1/2-y,1/2-z
1/2-x,y,1/2-z
y,x,1/2-z
1/2-y,1/2-x,1/2-z
-x,-y,-z
1/2+y,-x,-z
1/2+x,1/2+y,-z
-y,1/2+x,-z
-x,1/2+y,1/2+z
1/2+x,-y,1/2+z
-y,-x,1/2+z
1/2+y,1/2+x,1/2+z
loop_
_atom_site_type_symbol
_atom_site_label
_atom_site_fract_x
_atom_site_fract_y
_atom_site_fract_z
Si Si1 0.647628 0.882941 0.390976
Si Si2 0.989323 0.759836 0.603043
Si Si3 0.250000 0.250000 0.368612
Si Si4 0.648183 0.523001 0.215029
Si Si5 0.368523 0.714771 0.804598
Si Si6 0.964321 0.513241 0.943013
O O1 0.609268 0.768338 0.406346
O O2 0.650813 0.897777 0.331025
O O3 0.571146 0.969049 0.412423
O O4 0.876843 0.746332 0.627506
O O5 0.990415 0.869420 0.574391
O O6 0.004458 0.658273 0.567806
O O7 0.070554 0.759211 0.648374
O O8 0.750000 0.526582 0.250000
O O9 0.552978 0.552978 0.250000
O O10 0.632937 0.408941 0.193806
O O11 0.250000 0.750000 0.806845
O O12 0.410007 0.750000 0.750000
O O13 0.000000 0.500000 0.000000
#
# Coordination Sequence:
#
# PCOD9563550 Si02
#       6
#    16  16   4  16  16  16
#     4  11  25  42  64  99 134 173 227 280 335 405
#     4  10  23  45  68  96 129 173 224 275 335 405
#     4   8  20  44  65  88 124 168 212 268 325 376
#     4  12  23  38  63  95 140 178 219 267 334 405
#     4  11  24  40  64  98 134 180 214 269 339 403
#     4  11  26  45  71  94 133 176 227 285 349 399
#
# _framework density 18.859078
#
# number of rings (size 3 to 8) (size 9 to 14) (size 15 to 20)
#    0.000    1.143    5.714    0.000    8.000    0.190 
#    0.000    0.476    0.000    0.000    0.000    0.000 
#    0.000    0.000    0.000    0.000    0.000    0.000 
#
# Total GULP energy -467832.812183 kJ/mol
# GULP energy per Si atom -5569.438240 kJ/mol
# Density = 1.881615 g / cm^3
# Si number density = 18.859078 Si / 1000 Ang^3
#
#
#
# Elastic Constant Matrix: (Units=GPa)
#
#
# Indices 1 2 3 4 5 6 
#
# 1 108.9365 35.6548 34.8660 0.0000 0.0000 0.0000
# 2 35.6548 108.9365 34.8660 0.0000 0.0000 0.0000
# 3 34.8660 34.8660 110.3760 0.0000 0.0000 0.0000
# 4 0.0000 0.0000 0.0000 21.8748 0.0000 0.0000
# 5 0.0000 0.0000 0.0000 0.0000 21.8748 0.0000
# 6 0.0000 0.0000 0.0000 0.0000 0.0000 31.2240
#
#
#
# Elastic Compliance Matrix: (Units=1/GPa)
#
#
# Indices 1 2 3 4 5 6 
#
# 1 0.010902 -0.002743 -0.002577 0.000000 0.000000 0.000000
# 2 -0.002743 0.010902 -0.002577 0.000000 0.000000 0.000000
# 3 -0.002577 -0.002577 0.010688 0.000000 0.000000 0.000000
# 4 0.000000 0.000000 0.000000 0.045715 0.000000 0.000000
# 5 0.000000 0.000000 0.000000 0.000000 0.045715 0.000000
# 6 0.000000 0.000000 0.000000 0.000000 0.000000 0.032027
#
#
# Mechanical properties :
#
#
# Convention : Reuss Voigt Hill
#
# Bulk Modulus (GPa) = 59.89098 59.89139 59.89119
# Shear Modulus (GPa) = 28.19906 29.85221 29.02564
#
# Velocity S-wave (km/s) = 3.87104 3.98290 3.92737
# Velocity P-wave (km/s) = 7.19764 7.27857 7.23822
#
# Compressibility (1/GPa) = 0.01669701
#
# Stress axis : x y z
#
# Youngs Moduli (GPa) = 91.72220 91.72220 93.56118
#
# Poissons Ratio (x) = 0.25164 0.24114
# Poissons Ratio (y) = 0.25164 0.24114
# Poissons Ratio (z) = 0.23640 0.23640
#
# Static dielectric constant tensor:
#      x y z
#    x 1.655500 0.000000 0.000000 
#    y 0.000000 1.655500 0.000000 
#    z 0.000000 0.000000 1.634340 
# 
# From -- ./inp_files/6553.got.cif
#   From: 2010.05.17/outbox.cif.g08.bks.cpg/sg126_4_cif.got.tgz:6553.got - 2010.05.20 11:58:20.
