data_PCOD9563924
_publ_section_title
;
Structure prediction by ZEFSAII (Michael W. Deem and Ramdas Pophale) SiO2 
 PCOD9563924
Probable space group: P 4/M B M
;
_chemical_formula_sum "Si O2"
_cell_formula_units_Z 88
_cell_length_a 17.909383
_cell_length_b 17.909383
_cell_length_c 15.757392
_cell_angle_alpha 90.000000
_cell_angle_beta 90.000000
_cell_angle_gamma 90.000000
_cell_volume 5054.120446
_symmetry_space_group_name_H-M "P 4/M B M"
_symmetry_group_IT_number 127
_symmetry_cell_setting 'tetragonal'
loop_
_space_group_symop_operation_xyz
x,y,z
-y,x,z
-x,-y,z
y,-x,z
1/2+x,1/2-y,-z
1/2-x,1/2+y,-z
1/2+y,1/2+x,-z
1/2-y,1/2-x,-z
-x,-y,-z
y,-x,-z
x,y,-z
-y,x,-z
1/2-x,1/2+y,z
1/2+x,1/2-y,z
1/2-y,1/2-x,z
1/2+y,1/2+x,z
loop_
_atom_site_type_symbol
_atom_site_label
_atom_site_fract_x
_atom_site_fract_y
_atom_site_fract_z
Si Si1 0.896938 0.270196 0.000000
Si Si2 0.063386 0.563386 0.397585
Si Si3 0.152912 0.777711 0.176175
Si Si4 0.121359 0.008452 0.602155
Si Si5 0.467657 0.221837 0.307111
Si Si6 0.730442 0.107268 0.185252
Si Si7 0.818494 0.562733 0.000000
O O1 0.890318 0.222923 0.913465
O O2 0.974096 0.314994 0.000000
O O3 0.830137 0.330137 0.000000
O O4 0.068385 0.568385 0.500000
O O5 0.144581 0.542039 0.358510
O O6 0.000000 0.500000 0.377677
O O7 0.223633 0.723633 0.162297
O O8 0.104285 0.742184 0.250539
O O9 0.188253 0.857124 0.199399
O O10 0.123835 0.008511 0.500000
O O11 0.204904 0.015795 0.636534
O O12 0.067285 0.077459 0.628046
O O13 0.534699 0.215350 0.240122
O O14 0.667790 0.167790 0.209305
O O15 0.721268 0.091361 0.085201
O O16 0.900601 0.599400 0.000000
#
# Coordination Sequence:
#
# PCOD9563924 Si02
#       7
#     8   8  16  16  16  16   8
#     4  10  19  34  53  78 114 153 190 227 276 334
#     4  11  26  44  60  81 117 161 193 231 302 373
#     4  10  20  35  54  81 111 146 189 232 281 331
#     4   9  19  36  58  84 112 143 182 234 296 351
#     4  12  20  36  59  86 110 145 192 239 282 342
#     4  10  21  35  55  81 113 149 187 237 279 331
#     4  10  19  34  51  78 114 154 191 222 279 331
#
# _framework density 17.411536999999999
#
# number of rings (size 3 to 8) (size 9 to 14) (size 15 to 20)
#    0.000    1.727    2.727    3.273    0.000    2.364 
#    0.000    0.000    0.000    0.000    0.000    1.273 
#    0.000    0.000    0.000    0.000    0.000    0.000 
#
# Total GULP energy -490610.236261 kJ/mol
# GULP energy per Si atom -5575.116321 kJ/mol
# Density = 1.737191 g / cm^3
# Si number density = 17.411537 Si / 1000 Ang^3
#
#
#
# Elastic Constant Matrix: (Units=GPa)
#
#
# Indices 1 2 3 4 5 6 
#
# 1 101.6759 47.2109 41.1285 0.0000 0.0000 0.0000
# 2 47.2109 101.6760 41.1283 0.0000 0.0000 0.0000
# 3 41.1285 41.1283 79.7129 0.0000 0.0000 0.0000
# 4 0.0000 0.0000 0.0000 15.5641 0.0000 0.0000
# 5 0.0000 0.0000 0.0000 0.0000 15.5616 0.0000
# 6 0.0000 0.0000 0.0000 0.0000 0.0000 23.3179
#
#
#
# Elastic Compliance Matrix: (Units=1/GPa)
#
#
# Indices 1 2 3 4 5 6 
#
# 1 0.013877 -0.004483 -0.004847 0.000000 0.000000 0.000000
# 2 -0.004483 0.013877 -0.004847 0.000000 0.000000 0.000000
# 3 -0.004847 -0.004847 0.017547 0.000000 0.000000 0.000000
# 4 0.000000 0.000000 0.000000 0.064250 0.000000 0.000000
# 5 0.000000 0.000000 0.000000 0.000000 0.064261 0.000000
# 6 0.000000 0.000000 0.000000 0.000000 0.000000 0.042886
#
#
# Mechanical properties :
#
#
# Convention : Reuss Voigt Hill
#
# Bulk Modulus (GPa) = 59.00677 60.22228 59.61452
# Shear Modulus (GPa) = 19.94400 21.12852 20.53626
#
# Velocity S-wave (km/s) = 3.38812 3.48728 3.43806
# Velocity P-wave (km/s) = 7.01918 7.13285 7.07624
#
# Compressibility (1/GPa) = 0.01694721
#
# Stress axis : x y z
#
# Youngs Moduli (GPa) = 72.05934 72.05956 56.99033
#
# Poissons Ratio (x) = 0.32304 0.27624
# Poissons Ratio (y) = 0.32304 0.27624
# Poissons Ratio (z) = 0.34928 0.34928
#
# Static dielectric constant tensor:
#      x y z
#    x 1.590750 0.000000 0.000000 
#    y 0.000000 1.590750 0.000000 
#    z 0.000000 0.000000 1.583750 
# 
# From -- ./inp_files/4439.got.cif
#   From: 2010.05.17/outbox.cif.g08.bks.cpg/sg127_3_cif.got.tgz:4439.got - 2010.05.20 12:03:00.
