data_PCOD9563189
_publ_section_title
;
Structure prediction by ZEFSAII (Michael W. Deem and Ramdas Pophale) SiO2 
 PCOD9563189
Probable space group: P 4/N B M
;
_chemical_formula_sum "Si O2"
_cell_formula_units_Z 112
_cell_length_a 14.519029
_cell_length_b 14.519029
_cell_length_c 28.678907
_cell_angle_alpha 90.000000
_cell_angle_beta 90.000000
_cell_angle_gamma 90.000000
_cell_volume 6045.576778
_symmetry_space_group_name_H-M "P 4/N B M"
_symmetry_group_IT_number 125
_space_group.IT_coordinate_system_code '2'
_symmetry_cell_setting 'tetragonal'
loop_
_space_group_symop_operation_xyz
x,y,z
1/2-y,x,z
1/2-x,1/2-y,z
y,1/2-x,z
x,1/2-y,-z
1/2-x,y,-z
y,x,-z
1/2-y,1/2-x,-z
-x,-y,-z
1/2+y,-x,-z
1/2+x,1/2+y,-z
-y,1/2+x,-z
-x,1/2+y,z
1/2+x,-y,z
-y,-x,z
1/2+y,1/2+x,z
loop_
_atom_site_type_symbol
_atom_site_label
_atom_site_fract_x
_atom_site_fract_y
_atom_site_fract_z
Si Si1 0.685998 0.608885 0.116481
Si Si2 0.351673 0.005575 0.023018
Si Si3 0.836167 0.016838 0.632146
Si Si4 0.626372 0.528509 0.215464
Si Si5 0.746800 0.905319 0.446948
Si Si6 0.898338 0.255935 0.273509
Si Si7 0.866019 0.648160 0.697164
O O1 0.794073 0.632648 0.111169
O O2 0.659496 0.536221 0.076698
O O3 0.660698 0.571023 0.167343
O O4 0.412722 0.912722 0.018315
O O5 0.250000 0.998526 0.000000
O O6 0.412053 0.087948 0.000000
O O7 0.768349 0.981239 0.592286
O O8 0.888480 0.929568 0.655740
O O9 0.784879 0.060829 0.676729
O O10 0.909390 0.090611 0.614023
O O11 0.540655 0.459346 0.209055
O O12 0.709396 0.470548 0.238907
O O13 0.602171 0.606830 0.253576
O O14 0.659786 0.835815 0.441684
O O15 0.750000 0.941066 0.500000
O O16 0.822090 0.177911 0.281688
O O17 0.845398 0.345398 0.253848
O O18 0.872464 0.758312 0.693260
#
# Coordination Sequence:
#
# PCOD9563189 Si02
#       7
#    16  16  16  16  16  16  16
#     4  11  23  40  63  92 128 168 209 258 319 383
#     4  11  23  43  71 101 131 169 219 272 326 389
#     4  11  21  35  56  85 112 143 194 245 288 342
#     4  11  22  38  57  85 122 158 204 254 304 363
#     4   9  19  38  59  78 107 146 184 225 288 358
#     4   9  20  39  58  77 111 159 199 234 285 354
#     4  11  21  35  53  79 116 154 193 238 298 358
#
# _framework density 18.525941
#
# number of rings (size 3 to 8) (size 9 to 14) (size 15 to 20)
#    0.000    1.571    2.857    3.000    0.000    2.571 
#    0.000    3.571    0.000    1.714    0.000    0.000 
#    0.000    0.000    0.000    0.000    0.000    0.000 
#
# Total GULP energy -625045.488667 kJ/mol
# GULP energy per Si atom -5580.763292 kJ/mol
# Density = 1.848377 g / cm^3
# Si number density = 18.525941 Si / 1000 Ang^3
#
#
#
# Elastic Constant Matrix: (Units=GPa)
#
#
# Indices 1 2 3 4 5 6 
#
# 1 84.4406 34.4621 29.6385 0.0000 0.0000 0.0000
# 2 34.4621 84.4404 29.6382 0.0000 0.0000 0.0000
# 3 29.6385 29.6382 108.0826 0.0000 0.0000 0.0000
# 4 0.0000 0.0000 0.0000 22.1774 0.0000 0.0000
# 5 0.0000 0.0000 0.0000 0.0000 22.1774 0.0000
# 6 0.0000 0.0000 0.0000 0.0000 0.0000 18.4153
#
#
#
# Elastic Compliance Matrix: (Units=1/GPa)
#
#
# Indices 1 2 3 4 5 6 
#
# 1 0.014875 -0.005133 -0.002671 0.000000 0.000000 0.000000
# 2 -0.005133 0.014875 -0.002671 0.000000 0.000000 0.000000
# 3 -0.002671 -0.002671 0.010717 0.000000 0.000000 0.000000
# 4 0.000000 0.000000 0.000000 0.045091 0.000000 0.000000
# 5 0.000000 0.000000 0.000000 0.000000 0.045091 0.000000
# 6 0.000000 0.000000 0.000000 0.000000 0.000000 0.054303
#
#
# Mechanical properties :
#
#
# Convention : Reuss Voigt Hill
#
# Bulk Modulus (GPa) = 51.24109 51.60455 51.42282
# Shear Modulus (GPa) = 23.53935 24.76900 24.15417
#
# Velocity S-wave (km/s) = 3.56844 3.66045 3.61474
# Velocity P-wave (km/s) = 6.68562 6.76617 6.72601
#
# Compressibility (1/GPa) = 0.01951559
#
# Stress axis : x y z
#
# Youngs Moduli (GPa) = 67.22538 67.22532 93.30694
#
# Poissons Ratio (x) = 0.34509 0.24927
# Poissons Ratio (y) = 0.34509 0.24926
# Poissons Ratio (z) = 0.17959 0.17959
#
# Static dielectric constant tensor:
#      x y z
#    x 1.664300 0.000000 0.000000 
#    y 0.000000 1.664300 0.000000 
#    z 0.000000 0.000000 1.620630 
# 
# From -- ./inp_files/6233.got.cif
#   From: 2010.05.17/outbox.cif.g08.bks.cpg/sg125_4_cif.got.tgz:6233.got - 2010.05.20 11:54:10.
