data_PCOD9563599
_publ_section_title
;
Structure prediction by ZEFSAII (Michael W. Deem and Ramdas Pophale) SiO2 
 PCOD9563599
Probable space group: P 4/N N C
;
_chemical_formula_sum "Si O2"
_cell_formula_units_Z 112
_cell_length_a 14.884822
_cell_length_b 14.884822
_cell_length_c 26.445858
_cell_angle_alpha 90.000000
_cell_angle_beta 90.000000
_cell_angle_gamma 90.000000
_cell_volume 5859.289449
_symmetry_space_group_name_H-M "P 4/N N C"
_symmetry_group_IT_number 126
_space_group.IT_coordinate_system_code '2'
_symmetry_cell_setting 'tetragonal'
loop_
_space_group_symop_operation_xyz
x,y,z
1/2-y,x,z
1/2-x,1/2-y,z
y,1/2-x,z
x,1/2-y,1/2-z
1/2-x,y,1/2-z
y,x,1/2-z
1/2-y,1/2-x,1/2-z
-x,-y,-z
1/2+y,-x,-z
1/2+x,1/2+y,-z
-y,1/2+x,-z
-x,1/2+y,1/2+z
1/2+x,-y,1/2+z
-y,-x,1/2+z
1/2+y,1/2+x,1/2+z
loop_
_atom_site_type_symbol
_atom_site_label
_atom_site_fract_x
_atom_site_fract_y
_atom_site_fract_z
Si Si1 0.447449 0.914202 0.908677
Si Si2 0.802436 0.888649 0.954221
Si Si3 0.994572 0.143603 0.192453
Si Si4 0.946191 0.097380 0.602265
Si Si5 0.607409 0.709417 0.424172
Si Si6 0.339067 0.630436 0.498378
Si Si7 0.647006 0.494413 0.808464
O O1 0.525284 0.845744 0.928078
O O2 0.424924 0.880839 0.852332
O O3 0.490159 0.011569 0.904273
O O4 0.372240 0.918751 0.951449
O O5 0.699551 0.862491 0.941564
O O6 0.801099 0.903036 0.014927
O O7 0.920342 0.110817 0.152589
O O8 0.016966 0.248200 0.185150
O O9 0.082663 0.081343 0.184971
O O10 0.964014 0.132901 0.250698
O O11 0.882944 0.097388 0.553202
O O12 0.014302 0.181077 0.601387
O O13 0.690777 0.642670 0.411846
O O14 0.232928 0.630107 0.494637
#
# Coordination Sequence:
#
# PCOD9563599 Si02
#       7
#    16  16  16  16  16  16  16
#     4  11  22  32  55  79 104 147 184 227 269 326
#     4   9  19  31  47  77 117 151 182 225 272 326
#     4   9  19  36  53  79 107 152 182 230 280 318
#     4  11  22  34  58  81 107 147 191 223 279 335
#     4   9  19  35  55  83 117 147 175 225 281 336
#     4  11  25  38  51  77 116 150 180 224 274 332
#     4   9  19  34  53  78 113 141 190 231 269 329
#
# _framework density 19.114944999999999
#
# number of rings (size 3 to 8) (size 9 to 14) (size 15 to 20)
#    0.000    2.143    1.429    2.143    8.000    0.286 
#    0.000    1.429    0.000    0.857    3.714    4.000 
#    0.000   18.286    0.000    0.000    0.000    0.000 
#
# Total GULP energy -625461.654896 kJ/mol
# GULP energy per Si atom -5584.479062 kJ/mol
# Density = 1.907144 g / cm^3
# Si number density = 19.114945 Si / 1000 Ang^3
#
#
#
# Elastic Constant Matrix: (Units=GPa)
#
#
# Indices 1 2 3 4 5 6 
#
# 1 27.3721 21.0796 33.3134 0.0000 0.0000 0.0000
# 2 21.0796 27.3721 33.3134 0.0000 0.0000 0.0000
# 3 33.3134 33.3134 107.2376 0.0000 0.0000 0.0000
# 4 0.0000 0.0000 0.0000 23.3932 0.0000 0.0000
# 5 0.0000 0.0000 0.0000 0.0000 23.3932 0.0000
# 6 0.0000 0.0000 0.0000 0.0000 0.0000 9.2923
#
#
#
# Elastic Compliance Matrix: (Units=1/GPa)
#
#
# Indices 1 2 3 4 5 6 
#
# 1 0.097475 -0.061444 -0.011193 0.000000 0.000000 0.000000
# 2 -0.061444 0.097475 -0.011193 0.000000 0.000000 0.000000
# 3 -0.011193 -0.011193 0.016279 0.000000 0.000000 0.000000
# 4 0.000000 0.000000 0.000000 0.042747 0.000000 0.000000
# 5 0.000000 0.000000 0.000000 0.000000 0.042747 0.000000
# 6 0.000000 0.000000 0.000000 0.000000 0.000000 0.107616
#
#
# Mechanical properties :
#
#
# Convention : Reuss Voigt Hill
#
# Bulk Modulus (GPa) = 22.95210 37.48825 30.22018
# Shear Modulus (GPa) = 8.52480 16.16743 12.34612
#
# Velocity S-wave (km/s) = 2.11410 2.91142 2.54419
# Velocity P-wave (km/s) = 4.24178 5.56385 4.94718
#
# Compressibility (1/GPa) = 0.04356900
#
# Stress axis : x y z
#
# Youngs Moduli (GPa) = 10.25902 10.25902 61.42773
#
# Poissons Ratio (x) = 0.63036 0.68756
# Poissons Ratio (y) = 0.63036 0.68756
# Poissons Ratio (z) = 0.11483 0.11483
#
# Static dielectric constant tensor:
#      x y z
#    x 1.676190 0.000000 0.000000 
#    y 0.000000 1.676190 0.000000 
#    z 0.000000 0.000000 1.633650 
# 
# From -- ./inp_files/6234.got.cif
#   From: 2010.05.17/outbox.cif.g08.bks.cpg/sg126_4_cif.got.tgz:6234.got - 2010.05.20 11:58:20.
