data_PCOD9563243
_publ_section_title
;
Structure prediction by ZEFSAII (Michael W. Deem and Ramdas Pophale) SiO2 
 PCOD9563243
Probable space group: P 4/N B M
;
_chemical_formula_sum "Si O2"
_cell_formula_units_Z 60
_cell_length_a 13.997011
_cell_length_b 13.997011
_cell_length_c 14.894282
_cell_angle_alpha 90.000000
_cell_angle_beta 90.000000
_cell_angle_gamma 90.000000
_cell_volume 2918.032873
_symmetry_space_group_name_H-M "P 4/N B M"
_symmetry_group_IT_number 125
_space_group.IT_coordinate_system_code '2'
_symmetry_cell_setting 'tetragonal'
loop_
_space_group_symop_operation_xyz
x,y,z
1/2-y,x,z
1/2-x,1/2-y,z
y,1/2-x,z
x,1/2-y,-z
1/2-x,y,-z
y,x,-z
1/2-y,1/2-x,-z
-x,-y,-z
1/2+y,-x,-z
1/2+x,1/2+y,-z
-y,1/2+x,-z
-x,1/2+y,z
1/2+x,-y,z
-y,-x,z
1/2+y,1/2+x,z
loop_
_atom_site_type_symbol
_atom_site_label
_atom_site_fract_x
_atom_site_fract_y
_atom_site_fract_z
Si Si1 0.029100 0.236716 0.756895
Si Si2 0.571178 0.428823 0.653080
Si Si3 0.750000 0.750000 0.710012
Si Si4 0.919013 0.080988 0.278405
Si Si5 0.509871 0.848776 0.949204
Si Si6 0.360086 0.639915 0.523797
O O1 0.131749 0.258839 0.714212
O O2 0.042830 0.179929 0.849534
O O3 0.963375 0.172047 0.692666
O O4 0.971420 0.334532 0.774180
O O5 0.496046 0.503955 0.690797
O O6 0.578068 0.421933 0.545879
O O7 0.878788 0.121212 0.372442
O O8 0.418374 0.918374 0.944370
O O9 0.488773 0.750000 0.000000
O O10 0.593136 0.906865 0.000000
O O11 0.379149 0.750000 0.500000
#
# Coordination Sequence:
#
# PCOD9563243 Si02
#       6
#    16   8   4   8  16   8
#     4  12  25  44  73 104 137 186 239 289 357 437
#     4  12  24  45  70 100 142 185 235 298 362 423
#     4  12  24  44  73 101 132 176 238 292 348 429
#     4  12  26  43  75 102 144 187 234 299 362 430
#     4  11  26  45  69 101 141 184 231 292 356 420
#     4  11  23  42  68 103 140 186 235 292 362 434
#
# _framework density 20.561796999999999
#
# number of rings (size 3 to 8) (size 9 to 14) (size 15 to 20)
#    0.000    0.400    6.667    2.000    1.867    1.067 
#    0.000    0.000    0.000    1.600    0.000    0.000 
#    0.000    0.000    0.000    0.000    0.000    0.000 
#
# Total GULP energy -334610.638037 kJ/mol
# GULP energy per Si atom -5576.843967 kJ/mol
# Density = 2.051500 g / cm^3
# Si number density = 20.561797 Si / 1000 Ang^3
#
#
#
# Elastic Constant Matrix: (Units=GPa)
#
#
# Indices 1 2 3 4 5 6 
#
# 1 102.1074 62.1214 -0.1487 0.0000 0.0000 0.0000
# 2 62.1214 102.1047 -0.1494 0.0000 0.0000 0.0000
# 3 -0.1487 -0.1494 68.8455 0.0000 0.0000 0.0000
# 4 0.0000 0.0000 0.0000 21.5602 0.0000 0.0000
# 5 0.0000 0.0000 0.0000 0.0000 21.5595 0.0000
# 6 0.0000 0.0000 0.0000 0.0000 0.0000 47.6580
#
#
#
# Elastic Compliance Matrix: (Units=1/GPa)
#
#
# Indices 1 2 3 4 5 6 
#
# 1 0.015549 -0.009460 0.000013 0.000000 0.000000 0.000000
# 2 -0.009460 0.015550 0.000013 0.000000 0.000000 0.000000
# 3 0.000013 0.000013 0.014525 0.000000 0.000000 0.000000
# 4 0.000000 0.000000 0.000000 0.046382 0.000000 0.000000
# 5 0.000000 0.000000 0.000000 0.000000 0.046383 0.000000
# 6 0.000000 0.000000 0.000000 0.000000 0.000000 0.020983
#
#
# Mechanical properties :
#
#
# Convention : Reuss Voigt Hill
#
# Bulk Modulus (GPa) = 37.37432 44.07826 40.72629
# Shear Modulus (GPa) = 26.71532 32.23782 29.47657
#
# Velocity S-wave (km/s) = 3.60845 3.96390 3.79035
# Velocity P-wave (km/s) = 5.96467 6.51410 6.24543
#
# Compressibility (1/GPa) = 0.02675634
#
# Stress axis : x y z
#
# Youngs Moduli (GPa) = 64.31210 64.31042 68.84519
#
# Poissons Ratio (x) = 0.60839 -0.00090
# Poissons Ratio (y) = 0.60841 -0.00092
# Poissons Ratio (z) = -0.00084 -0.00086
#
# Static dielectric constant tensor:
#      x y z
#    x 1.736840 0.000000 0.000000 
#    y 0.000000 1.736840 0.000000 
#    z 0.000000 0.000000 1.790050 
# 
# From -- ./inp_files/4689.got.cif
#   From: 2010.05.17/outbox.cif.g08.bks.cpg/sg125_3_cif.got.tgz:4689.got - 2010.05.20 11:54:10.
