data_PCOD9563515
_publ_section_title
;
Structure prediction by ZEFSAII (Michael W. Deem and Ramdas Pophale) SiO2 
 PCOD9563515
Probable space group: P 4/N N C
;
_chemical_formula_sum "Si O2"
_cell_formula_units_Z 120
_cell_length_a 14.661427
_cell_length_b 14.661427
_cell_length_c 27.525329
_cell_angle_alpha 90.000000
_cell_angle_beta 90.000000
_cell_angle_gamma 90.000000
_cell_volume 5916.774303
_symmetry_space_group_name_H-M "P 4/N N C"
_symmetry_group_IT_number 126
_space_group.IT_coordinate_system_code '2'
_symmetry_cell_setting 'tetragonal'
loop_
_space_group_symop_operation_xyz
x,y,z
1/2-y,x,z
1/2-x,1/2-y,z
y,1/2-x,z
x,1/2-y,1/2-z
1/2-x,y,1/2-z
y,x,1/2-z
1/2-y,1/2-x,1/2-z
-x,-y,-z
1/2+y,-x,-z
1/2+x,1/2+y,-z
-y,1/2+x,-z
-x,1/2+y,1/2+z
1/2+x,-y,1/2+z
-y,-x,1/2+z
1/2+y,1/2+x,1/2+z
loop_
_atom_site_type_symbol
_atom_site_label
_atom_site_fract_x
_atom_site_fract_y
_atom_site_fract_z
Si Si1 0.842233 0.553316 0.991981
Si Si2 0.194568 0.111689 0.599938
Si Si3 0.968146 0.531855 0.750000
Si Si4 0.312987 0.865064 0.975245
Si Si5 0.456588 0.167248 0.074925
Si Si6 0.643169 0.406409 0.377766
Si Si7 0.645136 0.145588 0.733843
Si Si8 0.636247 0.655293 0.675983
O O1 0.766720 0.545642 0.949486
O O2 0.926224 0.604214 0.969102
O O3 0.806942 0.601480 0.041130
O O4 0.867575 0.453778 0.010423
O O5 0.299563 0.134376 0.613537
O O6 0.156460 0.016389 0.621731
O O7 0.931207 0.427212 0.753181
O O8 0.912092 0.569153 0.703652
O O9 0.285970 0.870343 0.918783
O O10 0.364917 0.775517 0.990922
O O11 0.549815 0.131507 0.098601
O O12 0.384244 0.157214 0.118786
O O13 0.648249 0.365257 0.324478
O O14 0.628859 0.250000 0.750000
O O15 0.750000 0.120721 0.750000
O O16 0.738561 0.626027 0.689652
#
# Coordination Sequence:
#
# PCOD9563515 Si02
#       8
#    16  16   8  16  16  16  16  16
#     4  11  22  36  61  93 136 181 220 261 330 392
#     4  10  22  41  69  98 140 186 230 285 340 405
#     4  12  24  45  72  97 134 170 232 292 366 424
#     4  10  22  40  60  88 128 171 218 271 319 387
#     4  12  22  37  60  93 136 174 221 269 317 410
#     4  11  25  44  65  99 132 172 240 275 350 422
#     4  11  27  50  75 102 139 182 234 303 370 439
#     4  11  22  36  61  98 135 174 215 275 344 422
#
# _framework density 20.281321999999999
#
# number of rings (size 3 to 8) (size 9 to 14) (size 15 to 20)
#    0.000    1.067    5.333    1.200    0.000    8.267 
#    2.400    0.000    0.000    0.200    0.000    0.000 
#    0.000    0.000    0.000    0.000    0.000    0.000 
#
# Total GULP energy -669130.810054 kJ/mol
# GULP energy per Si atom -5576.090084 kJ/mol
# Density = 2.023516 g / cm^3
# Si number density = 20.281322 Si / 1000 Ang^3
#
#
#
# Elastic Constant Matrix: (Units=GPa)
#
#
# Indices 1 2 3 4 5 6 
#
# 1 97.5124 45.2494 28.4807 0.0000 0.0000 0.0000
# 2 45.2494 97.5120 28.4810 0.0000 0.0000 0.0000
# 3 28.4807 28.4810 116.6434 0.0000 0.0000 0.0000
# 4 0.0000 0.0000 0.0000 29.2488 0.0000 0.0000
# 5 0.0000 0.0000 0.0000 0.0000 29.2488 0.0000
# 6 0.0000 0.0000 0.0000 0.0000 0.0000 18.0901
#
#
#
# Elastic Compliance Matrix: (Units=1/GPa)
#
#
# Indices 1 2 3 4 5 6 
#
# 1 0.013447 -0.005687 -0.001895 0.000000 0.000000 0.000000
# 2 -0.005687 0.013447 -0.001895 0.000000 0.000000 0.000000
# 3 -0.001895 -0.001895 0.009499 0.000000 0.000000 0.000000
# 4 0.000000 0.000000 0.000000 0.034189 0.000000 0.000000
# 5 0.000000 0.000000 0.000000 0.000000 0.034189 0.000000
# 6 0.000000 0.000000 0.000000 0.000000 0.000000 0.055279
#
#
# Mechanical properties :
#
#
# Convention : Reuss Voigt Hill
#
# Bulk Modulus (GPa) = 57.33859 57.34332 57.34096
# Shear Modulus (GPa) = 27.05371 29.28132 28.16751
#
# Velocity S-wave (km/s) = 3.65625 3.80380 3.73076
# Velocity P-wave (km/s) = 6.79391 6.90125 6.84779
#
# Compressibility (1/GPa) = 0.01744026
#
# Stress axis : x y z
#
# Youngs Moduli (GPa) = 74.36395 74.36350 105.27959
#
# Poissons Ratio (x) = 0.42288 0.19950
# Poissons Ratio (y) = 0.42288 0.19950
# Poissons Ratio (z) = 0.14091 0.14092
#
# Static dielectric constant tensor:
#      x y z
#    x 1.767980 0.000000 0.000000 
#    y 0.000000 1.767980 0.000000 
#    z 0.000000 0.000000 1.755300 
# 
# From -- ./inp_files/6663.got.cif
#   From: 2010.05.17/outbox.cif.g08.bks.cpg/sg126_4_cif.got.tgz:6663.got - 2010.05.20 11:58:20.
