data_PCOD9563183
_publ_section_title
;
Structure prediction by ZEFSAII (Michael W. Deem and Ramdas Pophale) SiO2 
 PCOD9563183
Probable space group: P 4/N B M
;
_chemical_formula_sum "Si O2"
_cell_formula_units_Z 120
_cell_length_a 14.440939
_cell_length_b 14.440939
_cell_length_c 31.079407
_cell_angle_alpha 90.000000
_cell_angle_beta 90.000000
_cell_angle_gamma 90.000000
_cell_volume 6481.321888
_symmetry_space_group_name_H-M "P 4/N B M"
_symmetry_group_IT_number 125
_space_group.IT_coordinate_system_code '2'
_symmetry_cell_setting 'tetragonal'
loop_
_space_group_symop_operation_xyz
x,y,z
1/2-y,x,z
1/2-x,1/2-y,z
y,1/2-x,z
x,1/2-y,-z
1/2-x,y,-z
y,x,-z
1/2-y,1/2-x,-z
-x,-y,-z
1/2+y,-x,-z
1/2+x,1/2+y,-z
-y,1/2+x,-z
-x,1/2+y,z
1/2+x,-y,z
-y,-x,z
1/2+y,1/2+x,z
loop_
_atom_site_type_symbol
_atom_site_label
_atom_site_fract_x
_atom_site_fract_y
_atom_site_fract_z
Si Si1 0.360544 0.139457 0.000000
Si Si2 0.792341 0.599702 0.392976
Si Si3 0.494051 0.149464 0.478336
Si Si4 0.901895 0.244674 0.872104
Si Si5 0.365790 0.150026 0.173420
Si Si6 0.470357 0.676252 0.220046
Si Si7 0.904760 0.730872 0.705139
Si Si8 0.615164 0.539974 0.088937
O O1 0.375382 0.250000 0.000000
O O2 0.413423 0.107084 0.957383
O O3 0.859298 0.688892 0.398599
O O4 0.826886 0.529078 0.428751
O O5 0.787886 0.564215 0.343894
O O6 0.504069 0.250000 0.500000
O O7 0.408889 0.091112 0.500000
O O8 0.583749 0.083749 0.482528
O O9 0.851827 0.148174 0.885776
O O10 0.821503 0.321503 0.870994
O O11 0.938395 0.229644 0.823430
O O12 0.981009 0.290125 0.902143
O O13 0.372913 0.259739 0.181606
O O14 0.445839 0.110040 0.203094
O O15 0.385831 0.119467 0.124983
O O16 0.383918 0.616083 0.234140
O O17 0.513702 0.728056 0.260436
O O18 0.848584 0.826472 0.711229
O O19 0.531587 0.468414 0.095970
#
# Coordination Sequence:
#
# PCOD9563183 Si02
#       8
#     8  16  16  16  16  16  16  16
#     4  11  25  44  60  82 117 151 176 208 268 329
#     4   9  17  33  58  82 111 154 200 251 305 355
#     4  11  22  35  58  90 121 156 204 258 314 375
#     4   9  20  39  61  85 115 148 186 232 273 317
#     4  11  21  35  54  79 111 145 177 220 280 326
#     4  11  21  34  54  83 113 148 192 231 279 336
#     4   9  19  35  53  79 116 154 192 240 299 350
#     4  11  22  40  63  87 111 141 184 225 267 322
#
# _framework density 18.514741999999998
#
# number of rings (size 3 to 8) (size 9 to 14) (size 15 to 20)
#    0.000    1.800    2.667    3.000    0.000    2.933 
#    0.000    0.667    0.000    1.600    0.000    1.867 
#    0.000    0.000    0.000    0.000    0.000    0.000 
#
# Total GULP energy -668827.913647 kJ/mol
# GULP energy per Si atom -5573.565947 kJ/mol
# Density = 1.847260 g / cm^3
# Si number density = 18.514742 Si / 1000 Ang^3
#
#
#
# Elastic Constant Matrix: (Units=GPa)
#
#
# Indices 1 2 3 4 5 6 
#
# 1 65.5429 24.0342 27.0341 0.0000 0.0000 0.0000
# 2 24.0342 65.5435 27.0340 0.0000 0.0000 0.0000
# 3 27.0341 27.0340 101.8683 0.0000 0.0000 0.0000
# 4 0.0000 0.0000 0.0000 25.9910 0.0000 0.0000
# 5 0.0000 0.0000 0.0000 0.0000 25.9912 0.0000
# 6 0.0000 0.0000 0.0000 0.0000 0.0000 15.1442
#
#
#
# Elastic Compliance Matrix: (Units=1/GPa)
#
#
# Indices 1 2 3 4 5 6 
#
# 1 0.018692 -0.005399 -0.003528 0.000000 0.000000 0.000000
# 2 -0.005399 0.018692 -0.003528 0.000000 0.000000 0.000000
# 3 -0.003528 -0.003528 0.011689 0.000000 0.000000 0.000000
# 4 0.000000 0.000000 0.000000 0.038475 0.000000 0.000000
# 5 0.000000 0.000000 0.000000 0.000000 0.038475 0.000000
# 6 0.000000 0.000000 0.000000 0.000000 0.000000 0.066032
#
#
# Mechanical properties :
#
#
# Convention : Reuss Voigt Hill
#
# Bulk Modulus (GPa) = 41.38412 43.23993 42.31203
# Shear Modulus (GPa) = 22.22048 23.74879 22.98463
#
# Velocity S-wave (km/s) = 3.46808 3.58536 3.52721
# Velocity P-wave (km/s) = 6.19978 6.36748 6.28419
#
# Compressibility (1/GPa) = 0.02416386
#
# Stress axis : x y z
#
# Youngs Moduli (GPa) = 53.49856 53.49920 85.55085
#
# Poissons Ratio (x) = 0.28885 0.30180
# Poissons Ratio (y) = 0.28885 0.30179
# Poissons Ratio (z) = 0.18873 0.18872
#
# Static dielectric constant tensor:
#      x y z
#    x 1.665770 0.000000 0.000000 
#    y 0.000000 1.665770 0.000000 
#    z 0.000000 0.000000 1.647090 
# 
# From -- ./inp_files/6667.got.cif
#   From: 2010.05.17/outbox.cif.g08.bks.cpg/sg125_4_cif.got.tgz:6667.got - 2010.05.20 11:54:10.
