data_PCOD9563921
_publ_section_title
;
Structure prediction by ZEFSAII (Michael W. Deem and Ramdas Pophale) SiO2 
 PCOD9563921
Probable space group: P 4/M B M
;
_chemical_formula_sum "Si O2"
_cell_formula_units_Z 80
_cell_length_a 18.858898
_cell_length_b 18.858898
_cell_length_c 15.915577
_cell_angle_alpha 90.000000
_cell_angle_beta 90.000000
_cell_angle_gamma 90.000000
_cell_volume 5660.502822
_symmetry_space_group_name_H-M "P 4/M B M"
_symmetry_group_IT_number 127
_symmetry_cell_setting 'tetragonal'
loop_
_space_group_symop_operation_xyz
x,y,z
-y,x,z
-x,-y,z
y,-x,z
1/2+x,1/2-y,-z
1/2-x,1/2+y,-z
1/2+y,1/2+x,-z
1/2-y,1/2-x,-z
-x,-y,-z
y,-x,-z
x,y,-z
-y,x,-z
1/2-x,1/2+y,z
1/2+x,1/2-y,z
1/2-y,1/2-x,z
1/2+y,1/2+x,z
loop_
_atom_site_type_symbol
_atom_site_label
_atom_site_fract_x
_atom_site_fract_y
_atom_site_fract_z
Si Si1 0.114190 0.614190 0.398631
Si Si2 0.898309 0.063141 0.000000
Si Si3 0.063627 0.102604 0.185711
Si Si4 0.732025 0.767976 0.398014
Si Si5 0.161896 0.457811 0.600531
Si Si6 0.103309 0.941622 0.500000
Si Si7 0.305521 0.389933 0.342673
O O1 0.110275 0.610275 0.500000
O O2 0.172948 0.672948 0.378622
O O3 0.137434 0.535779 0.371375
O O4 0.868843 0.081421 0.908166
O O5 0.978201 0.093203 0.000000
O O6 0.094076 0.153447 0.256867
O O7 0.977965 0.093777 0.193842
O O8 0.738592 0.761409 0.500000
O O9 0.709362 0.692575 0.360457
O O10 0.178953 0.460008 0.500000
O O11 0.098181 0.401819 0.610431
O O12 0.230935 0.430730 0.648901
O O13 0.145194 0.917750 0.582013
O O14 0.025863 0.906842 0.500000
#
# Coordination Sequence:
#
# PCOD9563921 Si02
#       7
#     8   8  16   8  16   8  16
#     4   9  21  32  51  64  84 119 178 214 240 276
#     4   7  12  28  50  71  96 124 157 198 235 282
#     4   9  18  31  50  75 100 128 162 195 237 296
#     4  11  22  35  44  67  95 138 170 195 243 302
#     4  10  19  34  49  66  86 124 168 217 251 272
#     4  11  24  33  44  66  97 136 165 190 228 286
#     4  12  21  31  49  66 102 130 161 202 240 293
#
# _framework density 14.133019000000001
#
# number of rings (size 3 to 8) (size 9 to 14) (size 15 to 20)
#    0.000    2.000    3.000    2.700    5.600    2.800 
#    0.000    0.000    0.000    0.600    0.000    0.000 
#    0.000    0.800    0.000    1.900    0.000    0.000 
#
# Total GULP energy -445970.765809 kJ/mol
# GULP energy per Si atom -5574.634573 kJ/mol
# Density = 1.410085 g / cm^3
# Si number density = 14.133019 Si / 1000 Ang^3
#
#
#
# Elastic Constant Matrix: (Units=GPa)
#
#
# Indices 1 2 3 4 5 6 
#
# 1 70.2077 85.0983 52.9187 0.0000 0.0000 0.0000
# 2 85.0983 70.2062 52.9198 0.0000 0.0000 0.0000
# 3 52.9187 52.9198 117.2026 0.0000 0.0000 0.0000
# 4 0.0000 0.0000 0.0000 -9.1388 0.0000 0.0000
# 5 0.0000 0.0000 0.0000 0.0000 -9.1374 0.0000
# 6 0.0000 0.0000 0.0000 0.0000 0.0000 -21.3201
#
#
#
# Elastic Compliance Matrix: (Units=1/GPa)
#
#
# Indices 1 2 3 4 5 6 
#
# 1 -0.028925 0.038227 -0.004200 0.000000 0.000000 0.000000
# 2 0.038227 -0.028927 -0.004199 0.000000 0.000000 0.000000
# 3 -0.004200 -0.004199 0.012325 0.000000 0.000000 0.000000
# 4 0.000000 0.000000 0.000000 -0.109423 0.000000 0.000000
# 5 0.000000 0.000000 0.000000 0.000000 -0.109440 0.000000
# 6 0.000000 0.000000 0.000000 0.000000 0.000000 -0.046904
#
#
# Mechanical properties :
#
#
# Convention : Reuss Voigt Hill
#
# Bulk Modulus (GPa) = 70.78044 71.05446 70.91745
# Shear Modulus (GPa) = -13.65217 -3.47395 -8.56306
#
# Velocity S-wave (km/s) = -3.11139 -1.56951 -2.46415
# Velocity P-wave (km/s) = 6.10595 6.86295 6.49549
#
# Compressibility (1/GPa) = 0.01412820
#
# Stress axis : x y z
#
# Youngs Moduli (GPa) = -34.57170 -34.56982 81.13881
#
# Poissons Ratio (x) = 1.32150 0.34080
# Poissons Ratio (y) = 1.32157 0.34069
# Poissons Ratio (z) = -0.14521 -0.14515
#
# Static dielectric constant tensor:
#      x y z
#    x 1.460660 0.000000 0.000000 
#    y 0.000000 1.460660 0.000000 
#    z 0.000000 0.000000 1.459620 
# 
# From -- ./inp_files/4329.got.cif
#   From: 2010.05.17/outbox.cif.g08.bks.cpg/sg127_3_cif.got.tgz:4329.got - 2010.05.20 12:03:00.
