data_PCOD9563898
_publ_section_title
;
Structure prediction by ZEFSAII (Michael W. Deem and Ramdas Pophale) SiO2 
 PCOD9563898
Probable space group: P 4/M B M
;
_chemical_formula_sum "Si O2"
_cell_formula_units_Z 128
_cell_length_a 21.081156
_cell_length_b 21.081156
_cell_length_c 17.003391
_cell_angle_alpha 90.000000
_cell_angle_beta 90.000000
_cell_angle_gamma 90.000000
_cell_volume 7556.564363
_symmetry_space_group_name_H-M "P 4/M B M"
_symmetry_group_IT_number 127
_symmetry_cell_setting 'tetragonal'
loop_
_space_group_symop_operation_xyz
x,y,z
-y,x,z
-x,-y,z
y,-x,z
1/2+x,1/2-y,-z
1/2-x,1/2+y,-z
1/2+y,1/2+x,-z
1/2-y,1/2-x,-z
-x,-y,-z
y,-x,-z
x,y,-z
-y,x,-z
1/2-x,1/2+y,z
1/2+x,1/2-y,z
1/2-y,1/2-x,z
1/2+y,1/2+x,z
loop_
_atom_site_type_symbol
_atom_site_label
_atom_site_fract_x
_atom_site_fract_y
_atom_site_fract_z
Si Si1 0.111130 0.287972 0.619269
Si Si2 0.183854 0.421760 0.200821
Si Si3 0.888081 0.849793 0.642803
Si Si4 0.814093 0.471831 0.585029
Si Si5 0.234081 0.842229 0.911277
Si Si6 0.222972 0.169942 0.229132
Si Si7 0.166813 0.566786 0.241647
Si Si8 0.519106 0.663573 0.588680
O O1 0.172035 0.327966 0.599292
O O2 0.100457 0.289249 0.714051
O O3 0.118116 0.215546 0.594094
O O4 0.047963 0.321035 0.587322
O O5 0.119299 0.380702 0.189422
O O6 0.234384 0.400813 0.135212
O O7 0.173042 0.496876 0.205287
O O8 0.835363 0.841353 0.711094
O O9 0.872967 0.916187 0.603028
O O10 0.964684 0.849780 0.653422
O O11 0.835436 0.447395 0.500000
O O12 0.841598 0.443364 0.664403
O O13 0.738029 0.463985 0.591336
O O14 0.290736 0.790736 0.915697
O O15 0.182518 0.808861 0.855486
O O16 0.213432 0.856830 0.000000
O O17 0.267534 0.232467 0.248140
O O18 0.270874 0.110460 0.230038
O O19 0.107364 0.607364 0.211151
O O20 0.495418 0.649584 0.500000
#
# Coordination Sequence:
#
# PCOD9563898 Si02
#       8
#    16  16  16  16  16  16  16  16
#     4   9  17  30  51  74  94 124 169 219 263 305
#     4   9  17  32  54  78 105 141 184 217 250 315
#     4  11  19  32  52  69  95 132 168 217 261 315
#     4   9  18  32  47  67  98 133 171 215 264 309
#     4   9  17  31  54  81 105 128 162 214 264 305
#     4  10  19  32  53  80 105 131 170 215 265 319
#     4  10  20  33  51  77 109 144 178 221 271 316
#     4  10  21  34  48  67  94 132 172 215 265 315
#
# _framework density 16.938915000000001
#
# number of rings (size 3 to 8) (size 9 to 14) (size 15 to 20)
#    0.000    2.375    2.500    0.750    0.000    1.500 
#    0.000    1.250    0.000    5.625    0.000    5.250 
#    0.000    0.000    0.000    3.375    0.000    0.125 
#
# Total GULP energy -712567.224189 kJ/mol
# GULP energy per Si atom -5566.931439 kJ/mol
# Density = 1.690036 g / cm^3
# Si number density = 16.938915 Si / 1000 Ang^3
#
#
#
# Elastic Constant Matrix: (Units=GPa)
#
#
# Indices 1 2 3 4 5 6 
#
# 1 97.5741 48.7150 28.8247 0.0000 0.0000 0.0000
# 2 48.7150 97.5741 28.8247 0.0000 0.0000 0.0000
# 3 28.8247 28.8247 91.9830 0.0000 0.0000 0.0000
# 4 0.0000 0.0000 0.0000 17.9363 0.0000 0.0000
# 5 0.0000 0.0000 0.0000 0.0000 17.9363 0.0000
# 6 0.0000 0.0000 0.0000 0.0000 0.0000 16.7514
#
#
#
# Elastic Compliance Matrix: (Units=1/GPa)
#
#
# Indices 1 2 3 4 5 6 
#
# 1 0.014133 -0.006334 -0.002444 0.000000 0.000000 0.000000
# 2 -0.006334 0.014133 -0.002444 0.000000 0.000000 0.000000
# 3 -0.002444 -0.002444 0.012403 0.000000 0.000000 0.000000
# 4 0.000000 0.000000 0.000000 0.055753 0.000000 0.000000
# 5 0.000000 0.000000 0.000000 0.000000 0.055753 0.000000
# 6 0.000000 0.000000 0.000000 0.000000 0.000000 0.059697
#
#
# Mechanical properties :
#
#
# Convention : Reuss Voigt Hill
#
# Bulk Modulus (GPa) = 54.86873 55.53998 55.20436
# Shear Modulus (GPa) = 20.79950 22.57593 21.68771
#
# Velocity S-wave (km/s) = 3.50796 3.65469 3.58208
# Velocity P-wave (km/s) = 6.99072 7.11819 7.05474
#
# Compressibility (1/GPa) = 0.01822532
#
# Stress axis : x y z
#
# Youngs Moduli (GPa) = 70.75669 70.75669 80.62380
#
# Poissons Ratio (x) = 0.44818 0.19704
# Poissons Ratio (y) = 0.44818 0.19704
# Poissons Ratio (z) = 0.17292 0.17292
#
# Static dielectric constant tensor:
#      x y z
#    x 1.580970 0.000000 0.000000 
#    y 0.000000 1.580970 0.000000 
#    z 0.000000 0.000000 1.573640 
# 
# From -- ./inp_files/5411.got.cif
#   From: 2010.05.17/outbox.cif.g08.bks.cpg/sg127_3_cif.got.tgz:5411.got - 2010.05.20 12:03:00.
