data_PCOD9563916
_publ_section_title
;
Structure prediction by ZEFSAII (Michael W. Deem and Ramdas Pophale) SiO2 
 PCOD9563916
Probable space group: P 4/M B M
;
_chemical_formula_sum "Si O2"
_cell_formula_units_Z 96
_cell_length_a 24.024592
_cell_length_b 24.024592
_cell_length_c 7.373053
_cell_angle_alpha 90.000000
_cell_angle_beta 90.000000
_cell_angle_gamma 90.000000
_cell_volume 4255.586257
_symmetry_space_group_name_H-M "P 4/M B M"
_symmetry_group_IT_number 127
_symmetry_cell_setting 'tetragonal'
loop_
_space_group_symop_operation_xyz
x,y,z
-y,x,z
-x,-y,z
y,-x,z
1/2+x,1/2-y,-z
1/2-x,1/2+y,-z
1/2+y,1/2+x,-z
1/2-y,1/2-x,-z
-x,-y,-z
y,-x,-z
x,y,-z
-y,x,-z
1/2-x,1/2+y,z
1/2+x,1/2-y,z
1/2-y,1/2-x,z
1/2+y,1/2+x,z
loop_
_atom_site_type_symbol
_atom_site_label
_atom_site_fract_x
_atom_site_fract_y
_atom_site_fract_z
Si Si1 0.630283 0.954633 0.709501
Si Si2 0.020118 0.753581 0.792794
Si Si3 0.847788 0.652213 0.779729
Si Si4 0.454457 0.425397 0.219886
Si Si5 0.120990 0.823357 0.780959
Si Si6 0.438212 0.938212 0.217763
Si Si7 0.606082 0.272186 0.777790
O O1 0.643881 0.944344 0.500000
O O2 0.601274 0.898727 0.785014
O O3 0.686677 0.978156 0.795000
O O4 0.584093 0.002719 0.719310
O O5 0.081492 0.771889 0.719744
O O6 0.959582 0.773912 0.718144
O O7 0.019677 0.775133 0.000000
O O8 0.892910 0.607091 0.722484
O O9 0.786945 0.631981 0.723223
O O10 0.847251 0.652750 0.000000
O O11 0.517758 0.426172 0.280793
O O12 0.420738 0.372562 0.271151
O O13 0.454775 0.426657 0.000000
O O14 0.179957 0.849883 0.719902
O O15 0.128048 0.817318 0.000000
O O16 0.439963 0.939963 0.000000
O O17 0.603616 0.274450 0.000000
#
# Coordination Sequence:
#
# PCOD9563916 Si02
#       7
#    16  16   8  16  16   8  16
#     4  11  24  40  57  80 112 147 178 215 271 332
#     4  10  19  33  54  80 108 143 187 231 274 322
#     4   9  16  28  48  73 104 140 172 207 265 320
#     4   8  12  18  30  53  90 132 167 204 261 326
#     4   9  16  25  41  70 102 136 176 222 271 319
#     4  11  20  36  63  92 114 136 172 220 267 325
#     4   9  16  28  46  70 105 140 176 225 277 326
#
# _framework density 22.558584
#
# number of rings (size 3 to 8) (size 9 to 14) (size 15 to 20)
#    0.000    2.500    1.667    2.500    0.000    6.333 
#    1.500    0.000    0.000    1.000    0.000    0.000 
#    0.000    0.000    0.000    5.167    0.000    5.000 
#
# Total GULP energy -534962.036684 kJ/mol
# GULP energy per Si atom -5572.521215 kJ/mol
# Density = 2.250724 g / cm^3
# Si number density = 22.558584 Si / 1000 Ang^3
#
#
#
# Elastic Constant Matrix: (Units=GPa)
#
#
# Indices 1 2 3 4 5 6 
#
# 1 62.3843 107.6989 -1.6691 0.0000 0.0000 0.0000
# 2 107.6989 62.3846 -1.6692 0.0000 0.0000 0.0000
# 3 -1.6691 -1.6692 78.4995 0.0000 0.0000 0.0000
# 4 0.0000 0.0000 0.0000 8.9028 0.0000 0.0000
# 5 0.0000 0.0000 0.0000 0.0000 8.9026 0.0000
# 6 0.0000 0.0000 0.0000 0.0000 0.0000 50.6387
#
#
#
# Elastic Compliance Matrix: (Units=1/GPa)
#
#
# Indices 1 2 3 4 5 6 
#
# 1 -0.008093 0.013975 0.000125 0.000000 0.000000 0.000000
# 2 0.013975 -0.008093 0.000125 0.000000 0.000000 0.000000
# 3 0.000125 0.000125 0.012744 0.000000 0.000000 0.000000
# 4 0.000000 0.000000 0.000000 0.112324 0.000000 0.000000
# 5 0.000000 0.000000 0.000000 0.000000 0.112327 0.000000
# 6 0.000000 0.000000 0.000000 0.000000 0.000000 0.019748
#
#
# Mechanical properties :
#
#
# Convention : Reuss Voigt Hill
#
# Bulk Modulus (GPa) = 39.98659 45.77661 42.88160
# Shear Modulus (GPa) = 22.64058 20.28267 21.46163
#
# Velocity S-wave (km/s) = 3.17146 3.00177 3.08778
# Velocity P-wave (km/s) = 5.58346 5.68775 5.63585
#
# Compressibility (1/GPa) = 0.02500838
#
# Stress axis : x y z
#
# Youngs Moduli (GPa) = -123.56247 -123.56304 78.46673
#
# Poissons Ratio (x) = 1.72679 -0.00982
# Poissons Ratio (y) = 1.72678 -0.00981
# Poissons Ratio (z) = 0.01546 0.01545
#
# Static dielectric constant tensor:
#      x y z
#    x 1.837030 0.000000 0.000000 
#    y 0.000000 1.837030 0.000000 
#    z 0.000000 0.000000 1.927770 
# 
# From -- ./inp_files/2075.got.cif
#   From: 2010.05.17/outbox.cif.g08.bks.cpg/sg127_2_cif.got.tgz:2075.got - 2010.05.20 12:03:00.
