data_PCOD9563937
_publ_section_title
;
Structure prediction by ZEFSAII (Michael W. Deem and Ramdas Pophale) SiO2 
 PCOD9563937
Probable space group: P 4/M B M
;
_chemical_formula_sum "Si O2"
_cell_formula_units_Z 96
_cell_length_a 25.180261
_cell_length_b 25.180261
_cell_length_c 8.747240
_cell_angle_alpha 90.000000
_cell_angle_beta 90.000000
_cell_angle_gamma 90.000000
_cell_volume 5546.148545
_symmetry_space_group_name_H-M "P 4/M B M"
_symmetry_group_IT_number 127
_symmetry_cell_setting 'tetragonal'
loop_
_space_group_symop_operation_xyz
x,y,z
-y,x,z
-x,-y,z
y,-x,z
1/2+x,1/2-y,-z
1/2-x,1/2+y,-z
1/2+y,1/2+x,-z
1/2-y,1/2-x,-z
-x,-y,-z
y,-x,-z
x,y,-z
-y,x,-z
1/2-x,1/2+y,z
1/2+x,1/2-y,z
1/2-y,1/2-x,z
1/2+y,1/2+x,z
loop_
_atom_site_type_symbol
_atom_site_label
_atom_site_fract_x
_atom_site_fract_y
_atom_site_fract_z
Si Si1 0.399762 0.182810 0.816725
Si Si2 0.663217 0.007761 0.678268
Si Si3 0.191793 0.854126 0.183147
Si Si4 0.381013 0.881013 0.686806
Si Si5 0.207002 0.292999 0.315692
Si Si6 0.030430 0.210710 0.322363
Si Si7 0.803272 0.919392 0.184578
O O1 0.348842 0.151159 0.757950
O O2 0.453614 0.153743 0.767359
O O3 0.404187 0.243443 0.764338
O O4 0.397026 0.184303 0.000000
O O5 0.649632 0.000101 0.500000
O O6 0.634483 0.060250 0.737803
O O7 0.725987 0.020341 0.686730
O O8 0.236526 0.814925 0.254340
O O9 0.200546 0.914624 0.235672
O O10 0.131583 0.838191 0.226827
O O11 0.196341 0.849892 0.000000
O O12 0.380740 0.880740 0.500000
O O13 0.337221 0.837221 0.731153
O O14 0.208904 0.291097 0.500000
O O15 0.036644 0.196422 0.500000
O O16 0.977128 0.184214 0.254156
O O17 0.803730 0.924625 0.000000
#
# Coordination Sequence:
#
# PCOD9563937 Si02
#       7
#    16  16  16   8   8  16  16
#     4   9  18  33  51  69  96 134 173 216 261 304
#     4   9  17  31  50  70  95 131 173 214 260 312
#     4  11  22  35  55  83 114 145 179 221 271 326
#     4   9  16  31  50  70  99 134 168 213 266 308
#     4  11  21  35  53  78 114 147 178 222 273 320
#     4  10  19  34  56  78 106 141 178 220 265 320
#     4   9  20  36  55  78 107 142 179 218 261 320
#
# _framework density 17.309308999999999
#
# number of rings (size 3 to 8) (size 9 to 14) (size 15 to 20)
#    0.000    2.333    1.667    1.250    1.167    2.333 
#    0.000    0.833    0.000    3.000    0.000    3.500 
#    0.000    0.000    0.000    0.000    0.000    0.000 
#
# Total GULP energy -535075.781317 kJ/mol
# GULP energy per Si atom -5573.706055 kJ/mol
# Density = 1.726991 g / cm^3
# Si number density = 17.309309 Si / 1000 Ang^3
#
#
#
# Elastic Constant Matrix: (Units=GPa)
#
#
# Indices 1 2 3 4 5 6 
#
# 1 72.1796 42.2173 27.8452 0.0000 0.0000 0.0000
# 2 42.2173 72.1792 27.8449 0.0000 0.0000 0.0000
# 3 27.8452 27.8449 34.6112 0.0000 0.0000 0.0000
# 4 0.0000 0.0000 0.0000 22.9363 0.0000 0.0000
# 5 0.0000 0.0000 0.0000 0.0000 22.9364 0.0000
# 6 0.0000 0.0000 0.0000 0.0000 0.0000 27.3132
#
#
#
# Elastic Compliance Matrix: (Units=1/GPa)
#
#
# Indices 1 2 3 4 5 6 
#
# 1 0.023872 -0.009503 -0.011560 0.000000 0.000000 0.000000
# 2 -0.009503 0.023872 -0.011560 0.000000 0.000000 0.000000
# 3 -0.011560 -0.011560 0.047493 0.000000 0.000000 0.000000
# 4 0.000000 0.000000 0.000000 0.043599 0.000000 0.000000
# 5 0.000000 0.000000 0.000000 0.000000 0.043599 0.000000
# 6 0.000000 0.000000 0.000000 0.000000 0.000000 0.036612
#
#
# Mechanical properties :
#
#
# Convention : Reuss Voigt Hill
#
# Bulk Modulus (GPa) = 33.34368 41.64274 37.49321
# Shear Modulus (GPa) = 16.98995 20.04134 18.51565
#
# Velocity S-wave (km/s) = 3.13637 3.40639 3.27416
# Velocity P-wave (km/s) = 5.69394 6.29139 6.00011
#
# Compressibility (1/GPa) = 0.02999069
#
# Stress axis : x y z
#
# Youngs Moduli (GPa) = 41.88951 41.88955 21.05579
#
# Poissons Ratio (x) = 0.39808 0.24341
# Poissons Ratio (y) = 0.39808 0.24340
# Poissons Ratio (z) = 0.48425 0.48424
#
# Static dielectric constant tensor:
#      x y z
#    x 1.585010 0.000000 0.000000 
#    y 0.000000 1.585010 0.000000 
#    z 0.000000 0.000000 1.594750 
# 
# From -- ./inp_files/2095.got.cif
#   From: 2010.05.17/outbox.cif.g08.bks.cpg/sg127_2_cif.got.tgz:2095.got - 2010.05.20 12:03:00.
