data_PCOD9563415
_publ_section_title
;
Structure prediction by ZEFSAII (Michael W. Deem and Ramdas Pophale) SiO2 
 PCOD9563415
Probable space group: P 4/N N C
;
_chemical_formula_sum "Si O2"
_cell_formula_units_Z 96
_cell_length_a 20.211868
_cell_length_b 20.211868
_cell_length_c 12.962101
_cell_angle_alpha 90.000000
_cell_angle_beta 90.000000
_cell_angle_gamma 90.000000
_cell_volume 5295.272420
_symmetry_space_group_name_H-M "P 4/N N C"
_symmetry_group_IT_number 126
_space_group.IT_coordinate_system_code '2'
_symmetry_cell_setting 'tetragonal'
loop_
_space_group_symop_operation_xyz
x,y,z
1/2-y,x,z
1/2-x,1/2-y,z
y,1/2-x,z
x,1/2-y,1/2-z
1/2-x,y,1/2-z
y,x,1/2-z
1/2-y,1/2-x,1/2-z
-x,-y,-z
1/2+y,-x,-z
1/2+x,1/2+y,-z
-y,1/2+x,-z
-x,1/2+y,1/2+z
1/2+x,-y,1/2+z
-y,-x,1/2+z
1/2+y,1/2+x,1/2+z
loop_
_atom_site_type_symbol
_atom_site_label
_atom_site_fract_x
_atom_site_fract_y
_atom_site_fract_z
Si Si1 0.979549 0.826405 0.241352
Si Si2 0.555293 0.301877 0.323251
Si Si3 0.776999 0.354668 0.494020
Si Si4 0.024393 0.065093 0.362600
Si Si5 0.370101 0.820930 0.225286
Si Si6 0.934000 0.564525 0.405588
O O1 0.958815 0.750000 0.250000
O O2 0.965289 0.870679 0.343813
O O3 0.945734 0.864424 0.146689
O O4 0.058538 0.825941 0.221963
O O5 0.517803 0.250000 0.250000
O O6 0.587844 0.269082 0.423539
O O7 0.517257 0.367530 0.355731
O O8 0.617855 0.326278 0.255977
O O9 0.822087 0.293554 0.533626
O O10 0.815902 0.381881 0.396217
O O11 0.058401 0.058401 0.250000
O O12 0.064882 0.070027 0.470258
O O13 0.979433 0.998889 0.375998
O O14 0.338107 0.750000 0.250000
#
# Coordination Sequence:
#
# PCOD9563415 Si02
#       6
#    16  16  16  16  16  16
#     4  10  20  38  63  93 117 151 207 260 316 376
#     4  12  23  37  55  84 118 160 214 258 290 357
#     4  11  22  33  48  70 115 171 205 244 292 338
#     4  11  22  41  61  83 120 171 210 250 314 375
#     4  11  20  34  50  76 117 158 203 246 297 345
#     4  10  20  40  64  85 121 164 204 257 322 374
#
# _framework density 18.129380000000001
#
# number of rings (size 3 to 8) (size 9 to 14) (size 15 to 20)
#    0.000    1.167    6.667    1.000    0.000    1.667 
#    9.000    0.000    0.000    4.000    0.000    0.000 
#    0.000    0.333    0.000    0.000    0.000    0.000 
#
# Total GULP energy -535409.986475 kJ/mol
# GULP energy per Si atom -5577.187359 kJ/mol
# Density = 1.808812 g / cm^3
# Si number density = 18.129380 Si / 1000 Ang^3
#
#
#
# Elastic Constant Matrix: (Units=GPa)
#
#
# Indices 1 2 3 4 5 6 
#
# 1 69.1162 22.5768 24.2104 0.0000 0.0000 0.0000
# 2 22.5768 69.1162 24.2104 0.0000 0.0000 0.0000
# 3 24.2104 24.2104 131.1246 0.0000 0.0000 0.0000
# 4 0.0000 0.0000 0.0000 17.7177 0.0000 0.0000
# 5 0.0000 0.0000 0.0000 0.0000 17.7177 0.0000
# 6 0.0000 0.0000 0.0000 0.0000 0.0000 15.2550
#
#
#
# Elastic Compliance Matrix: (Units=1/GPa)
#
#
# Indices 1 2 3 4 5 6 
#
# 1 0.016786 -0.004701 -0.002231 0.000000 0.000000 0.000000
# 2 -0.004701 0.016786 -0.002231 0.000000 0.000000 0.000000
# 3 -0.002231 -0.002231 0.008450 0.000000 0.000000 0.000000
# 4 0.000000 0.000000 0.000000 0.056441 0.000000 0.000000
# 5 0.000000 0.000000 0.000000 0.000000 0.056441 0.000000
# 6 0.000000 0.000000 0.000000 0.000000 0.000000 0.065552
#
#
# Mechanical properties :
#
#
# Convention : Reuss Voigt Hill
#
# Bulk Modulus (GPa) = 42.20495 45.70578 43.95537
# Shear Modulus (GPa) = 20.26913 23.36208 21.81560
#
# Velocity S-wave (km/s) = 3.34732 3.59364 3.47267
# Velocity P-wave (km/s) = 6.18626 6.51803 6.35431
#
# Compressibility (1/GPa) = 0.02369390
#
# Stress axis : x y z
#
# Youngs Moduli (GPa) = 59.57462 59.57462 118.33977
#
# Poissons Ratio (x) = 0.28009 0.26404
# Poissons Ratio (y) = 0.28009 0.26404
# Poissons Ratio (z) = 0.13292 0.13292
#
# Static dielectric constant tensor:
#      x y z
#    x 1.634570 0.000000 0.000000 
#    y 0.000000 1.634570 0.000000 
#    z 0.000000 0.000000 1.696600 
# 
# From -- ./inp_files/2876.got.cif
#   From: 2010.05.17/outbox.cif.g08.bks.cpg/sg126_2_cif.got.tgz:2876.got - 2010.05.20 11:58:20.
