data_PCOD9563338
_publ_section_title
;
Structure prediction by ZEFSAII (Michael W. Deem and Ramdas Pophale) SiO2 
 PCOD9563338
Probable space group: P 4/N N C
;
_chemical_formula_sum "Si O2"
_cell_formula_units_Z 88
_cell_length_a 14.849787
_cell_length_b 14.849787
_cell_length_c 21.742528
_cell_angle_alpha 90.000000
_cell_angle_beta 90.000000
_cell_angle_gamma 90.000000
_cell_volume 4794.579086
_symmetry_space_group_name_H-M "P 4/N N C"
_symmetry_group_IT_number 126
_space_group.IT_coordinate_system_code '2'
_symmetry_cell_setting 'tetragonal'
loop_
_space_group_symop_operation_xyz
x,y,z
1/2-y,x,z
1/2-x,1/2-y,z
y,1/2-x,z
x,1/2-y,1/2-z
1/2-x,y,1/2-z
y,x,1/2-z
1/2-y,1/2-x,1/2-z
-x,-y,-z
1/2+y,-x,-z
1/2+x,1/2+y,-z
-y,1/2+x,-z
-x,1/2+y,1/2+z
1/2+x,-y,1/2+z
-y,-x,1/2+z
1/2+y,1/2+x,1/2+z
loop_
_atom_site_type_symbol
_atom_site_label
_atom_site_fract_x
_atom_site_fract_y
_atom_site_fract_z
Si Si1 0.770703 0.898711 0.908435
Si Si2 0.250000 0.750000 0.146448
Si Si3 0.283416 0.104275 0.553682
Si Si4 0.614600 0.476447 0.266824
Si Si5 0.783064 0.054821 0.145934
Si Si6 0.300297 0.950402 0.310352
O O1 0.675991 0.848061 0.895757
O O2 0.777926 0.988343 0.868474
O O3 0.780951 0.917810 0.981193
O O4 0.346889 0.768691 0.115998
O O5 0.273669 0.655794 0.181355
O O6 0.353845 0.184610 0.566272
O O7 0.304829 0.019447 0.595769
O O8 0.571179 0.571179 0.250000
O O9 0.646048 0.435374 0.201544
O O10 0.696101 0.479238 0.315250
O O11 0.545870 0.406765 0.297218
O O12 0.250000 0.984748 0.250000
#
# Coordination Sequence:
#
# PCOD9563338 Si02
#       6
#    16   8  16  16  16  16
#     4   9  21  39  58  85 114 143 188 238 285 344
#     4  10  21  38  53  78 110 151 191 226 264 329
#     4   9  18  37  62  83 111 147 182 233 294 339
#     4  10  21  32  53  85 114 140 189 231 276 339
#     4  10  19  35  57  79 114 150 186 228 282 334
#     4  11  21  35  58  77 111 154 184 228 284 328
#
# _framework density 18.354063
#
# number of rings (size 3 to 8) (size 9 to 14) (size 15 to 20)
#    0.000    2.182    1.818    2.455    2.545    0.000 
#    0.000    5.455    0.000   16.364    0.000    0.000 
#    0.000    0.000    0.000    0.000    0.000    0.000 
#
# Total GULP energy -490037.915377 kJ/mol
# GULP energy per Si atom -5568.612675 kJ/mol
# Density = 1.831229 g / cm^3
# Si number density = 18.354063 Si / 1000 Ang^3
#
#
#
# Elastic Constant Matrix: (Units=GPa)
#
#
# Indices 1 2 3 4 5 6 
#
# 1 76.7453 9.3097 32.4924 0.0000 0.0000 0.0000
# 2 9.3097 76.7453 32.4924 0.0000 0.0000 0.0000
# 3 32.4924 32.4924 60.7217 0.0000 0.0000 0.0000
# 4 0.0000 0.0000 0.0000 11.7713 0.0000 0.0000
# 5 0.0000 0.0000 0.0000 0.0000 11.7713 0.0000
# 6 0.0000 0.0000 0.0000 0.0000 0.0000 14.8328
#
#
#
# Elastic Compliance Matrix: (Units=1/GPa)
#
#
# Indices 1 2 3 4 5 6 
#
# 1 0.017165 0.002336 -0.010435 0.000000 0.000000 0.000000
# 2 0.002336 0.017165 -0.010435 0.000000 0.000000 0.000000
# 3 -0.010435 -0.010435 0.027636 0.000000 0.000000 0.000000
# 4 0.000000 0.000000 0.000000 0.084953 0.000000 0.000000
# 5 0.000000 0.000000 0.000000 0.000000 0.084953 0.000000
# 6 0.000000 0.000000 0.000000 0.000000 0.000000 0.067418
#
#
# Mechanical properties :
#
#
# Convention : Reuss Voigt Hill
#
# Bulk Modulus (GPa) = 40.16438 40.31128 40.23783
# Shear Modulus (GPa) = 14.50727 17.00292 15.75510
#
# Velocity S-wave (km/s) = 2.81448 3.04696 2.93302
# Velocity P-wave (km/s) = 5.70020 5.86425 5.78281
#
# Compressibility (1/GPa) = 0.02489769
#
# Stress axis : x y z
#
# Youngs Moduli (GPa) = 58.25938 58.25938 36.18485
#
# Poissons Ratio (x) = -0.13607 0.37758
# Poissons Ratio (y) = -0.13607 0.37758
# Poissons Ratio (z) = 0.60792 0.60792
#
# Static dielectric constant tensor:
#      x y z
#    x 1.654800 0.000000 0.000000 
#    y 0.000000 1.654800 0.000000 
#    z 0.000000 0.000000 1.601010 
# 
# From -- ./inp_files/5157.got.cif
#   From: 2010.05.17/outbox.cif.g08.bks.cpg/sg126_3_cif.got.tgz:5157.got - 2010.05.20 11:58:20.
