data_PCOD9563318
_publ_section_title
;
Structure prediction by ZEFSAII (Michael W. Deem and Ramdas Pophale) SiO2 
 PCOD9563318
Probable space group: P 4/N N C
;
_chemical_formula_sum "Si O2"
_cell_formula_units_Z 80
_cell_length_a 11.409704
_cell_length_b 11.409704
_cell_length_c 26.754536
_cell_angle_alpha 90.000000
_cell_angle_beta 90.000000
_cell_angle_gamma 90.000000
_cell_volume 3482.941491
_symmetry_space_group_name_H-M "P 4/N N C"
_symmetry_group_IT_number 126
_space_group.IT_coordinate_system_code '2'
_symmetry_cell_setting 'tetragonal'
loop_
_space_group_symop_operation_xyz
x,y,z
1/2-y,x,z
1/2-x,1/2-y,z
y,1/2-x,z
x,1/2-y,1/2-z
1/2-x,y,1/2-z
y,x,1/2-z
1/2-y,1/2-x,1/2-z
-x,-y,-z
1/2+y,-x,-z
1/2+x,1/2+y,-z
-y,1/2+x,-z
-x,1/2+y,1/2+z
1/2+x,-y,1/2+z
-y,-x,1/2+z
1/2+y,1/2+x,1/2+z
loop_
_atom_site_type_symbol
_atom_site_label
_atom_site_fract_x
_atom_site_fract_y
_atom_site_fract_z
Si Si1 0.664456 0.580818 0.613963
Si Si2 0.431734 0.041003 0.572049
Si Si3 0.134386 0.965937 0.281390
Si Si4 0.392426 0.858526 0.986825
Si Si5 0.573367 0.818971 0.175813
O O1 0.798477 0.599408 0.599609
O O2 0.580447 0.483332 0.592325
O O3 0.672507 0.547715 0.672341
O O4 0.549140 0.115426 0.558712
O O5 0.342337 0.077312 0.615447
O O6 0.377805 0.011516 0.518122
O O7 0.250000 0.930405 0.250000
O O8 0.050225 0.862788 0.302521
O O9 0.047670 0.047670 0.250000
O O10 0.383335 0.720851 0.978236
O O11 0.601872 0.685862 0.191229
#
# Coordination Sequence:
#
# PCOD9563318 Si02
#       5
#    16  16  16  16  16
#     4  10  19  32  56  85 118 160 204 260 326 388
#     4  10  20  35  58  86 120 162 217 264 311 392
#     4  11  22  39  66  93 126 162 210 266 325 396
#     4  10  20  34  54  84 123 165 205 261 327 382
#     4  10  23  44  67  91 125 172 218 268 329 395
#
# _framework density 22.969089
#
# number of rings (size 3 to 8) (size 9 to 14) (size 15 to 20)
#    0.000    1.800    2.000    2.400    0.000    1.000 
#    0.000    3.000    0.000    9.600    0.000    0.000 
#    0.000    0.000    0.000    0.000    0.000    0.000 
#
# Total GULP energy -445967.315074 kJ/mol
# GULP energy per Si atom -5574.591438 kJ/mol
# Density = 2.291681 g / cm^3
# Si number density = 22.969089 Si / 1000 Ang^3
#
#
#
# Elastic Constant Matrix: (Units=GPa)
#
#
# Indices 1 2 3 4 5 6 
#
# 1 74.5714 41.1445 15.7260 0.0000 0.0000 0.0000
# 2 41.1445 74.5714 15.7260 0.0000 0.0000 0.0000
# 3 15.7260 15.7260 59.4216 0.0000 0.0000 0.0000
# 4 0.0000 0.0000 0.0000 25.8615 0.0000 0.0000
# 5 0.0000 0.0000 0.0000 0.0000 25.8615 0.0000
# 6 0.0000 0.0000 0.0000 0.0000 0.0000 28.6744
#
#
#
# Elastic Compliance Matrix: (Units=1/GPa)
#
#
# Indices 1 2 3 4 5 6 
#
# 1 0.019614 -0.010302 -0.002464 0.000000 0.000000 0.000000
# 2 -0.010302 0.019614 -0.002464 0.000000 0.000000 0.000000
# 3 -0.002464 -0.002464 0.018133 0.000000 0.000000 0.000000
# 4 0.000000 0.000000 0.000000 0.038668 0.000000 0.000000
# 5 0.000000 0.000000 0.000000 0.000000 0.038668 0.000000
# 6 0.000000 0.000000 0.000000 0.000000 0.000000 0.034874
#
#
# Mechanical properties :
#
#
# Convention : Reuss Voigt Hill
#
# Bulk Modulus (GPa) = 37.17578 39.30638 38.24108
# Shear Modulus (GPa) = 23.92361 25.14400 24.53380
#
# Velocity S-wave (km/s) = 3.23082 3.31220 3.27176
# Velocity P-wave (km/s) = 5.48979 5.63715 5.56396
#
# Compressibility (1/GPa) = 0.02689924
#
# Stress axis : x y z
#
# Youngs Moduli (GPa) = 50.98434 50.98434 55.14721
#
# Poissons Ratio (x) = 0.52525 0.13590
# Poissons Ratio (y) = 0.52525 0.13590
# Poissons Ratio (z) = 0.12564 0.12564
#
# Static dielectric constant tensor:
#      x y z
#    x 1.875390 0.000000 0.000000 
#    y 0.000000 1.875390 0.000000 
#    z 0.000000 0.000000 1.956660 
# 
# From -- ./inp_files/6406.got.cif
#   From: 2010.05.17/outbox.cif.g08.bks.cpg/sg126_4_cif.got.tgz:6406.got - 2010.05.20 11:58:20.
