data_PCOD9563178
_publ_section_title
;
Structure prediction by ZEFSAII (Michael W. Deem and Ramdas Pophale) SiO2 
 PCOD9563178
Probable space group: P 4/N B M
;
_chemical_formula_sum "Si O2"
_cell_formula_units_Z 88
_cell_length_a 14.619282
_cell_length_b 14.619282
_cell_length_c 23.331825
_cell_angle_alpha 90.000000
_cell_angle_beta 90.000000
_cell_angle_gamma 90.000000
_cell_volume 4986.557112
_symmetry_space_group_name_H-M "P 4/N B M"
_symmetry_group_IT_number 125
_space_group.IT_coordinate_system_code '2'
_symmetry_cell_setting 'tetragonal'
loop_
_space_group_symop_operation_xyz
x,y,z
1/2-y,x,z
1/2-x,1/2-y,z
y,1/2-x,z
x,1/2-y,-z
1/2-x,y,-z
y,x,-z
1/2-y,1/2-x,-z
-x,-y,-z
1/2+y,-x,-z
1/2+x,1/2+y,-z
-y,1/2+x,-z
-x,1/2+y,z
1/2+x,-y,z
-y,-x,z
1/2+y,1/2+x,z
loop_
_atom_site_type_symbol
_atom_site_label
_atom_site_fract_x
_atom_site_fract_y
_atom_site_fract_z
Si Si1 0.743309 0.101386 0.567726
Si Si2 0.622355 0.836009 0.730308
Si Si3 0.858010 0.858010 0.500000
Si Si4 0.647806 0.994655 0.027783
Si Si5 0.679341 0.888533 0.141767
Si Si6 0.378802 0.468029 0.387370
O O1 0.750000 0.080820 0.500000
O O2 0.817141 0.182860 0.576784
O O3 0.644495 0.144495 0.580684
O O4 0.780179 0.016397 0.602812
O O5 0.628839 0.726231 0.726773
O O6 0.582470 0.849928 0.794008
O O7 0.573047 0.877374 0.675633
O O8 0.750000 0.872810 0.500000
O O9 0.894405 0.901067 0.558857
O O10 0.655602 0.962181 0.093710
O O11 0.587447 0.087447 0.021606
O O12 0.750000 0.000731 0.000000
O O13 0.587365 0.912636 0.000000
O O14 0.632231 0.788269 0.135488
O O15 0.454882 0.545119 0.391802
#
# Coordination Sequence:
#
# PCOD9563178 Si02
#       6
#    16  16   8  16  16  16
#     4   8  15  29  48  69  94 124 159 205 260 318
#     4   9  19  36  55  75 104 143 184 224 275 329
#     4  11  23  38  54  70  95 133 174 224 286 343
#     4  11  22  35  58  92 126 159 197 244 295 350
#     4   9  17  33  59  84 108 145 194 246 287 327
#     4  11  21  33  52  77 104 133 173 223 276 337
#
# _framework density 17.647448000000001
#
# number of rings (size 3 to 8) (size 9 to 14) (size 15 to 20)
#    0.000    2.273    1.818    3.545    0.000    2.545 
#    0.000    5.455    0.000    2.182    0.000    2.545 
#    0.000    0.000    0.000    0.000    0.000    0.000 
#
# Total GULP energy -490434.559781 kJ/mol
# GULP energy per Si atom -5573.119998 kJ/mol
# Density = 1.760728 g / cm^3
# Si number density = 17.647448 Si / 1000 Ang^3
#
#
#
# Elastic Constant Matrix: (Units=GPa)
#
#
# Indices 1 2 3 4 5 6 
#
# 1 72.6749 52.6372 54.6622 0.0000 0.0000 0.0000
# 2 52.6372 72.6753 54.6621 0.0000 0.0000 0.0000
# 3 54.6622 54.6621 143.6896 0.0000 0.0000 0.0000
# 4 0.0000 0.0000 0.0000 19.4195 0.0000 0.0000
# 5 0.0000 0.0000 0.0000 0.0000 19.4193 0.0000
# 6 0.0000 0.0000 0.0000 0.0000 0.0000 26.1139
#
#
#
# Elastic Compliance Matrix: (Units=1/GPa)
#
#
# Indices 1 2 3 4 5 6 
#
# 1 0.030925 -0.018981 -0.004544 0.000000 0.000000 0.000000
# 2 -0.018981 0.030925 -0.004544 0.000000 0.000000 0.000000
# 3 -0.004544 -0.004544 0.010417 0.000000 0.000000 0.000000
# 4 0.000000 0.000000 0.000000 0.051495 0.000000 0.000000
# 5 0.000000 0.000000 0.000000 0.000000 0.051495 0.000000
# 6 0.000000 0.000000 0.000000 0.000000 0.000000 0.038294
#
#
# Mechanical properties :
#
#
# Convention : Reuss Voigt Hill
#
# Bulk Modulus (GPa) = 61.99747 68.10696 65.05222
# Shear Modulus (GPa) = 18.17769 21.46244 19.82006
#
# Velocity S-wave (km/s) = 3.21292 3.49116 3.35492
# Velocity P-wave (km/s) = 6.99794 7.41133 7.20760
#
# Compressibility (1/GPa) = 0.01612969
#
# Stress axis : x y z
#
# Youngs Moduli (GPa) = 32.33637 32.33668 96.00149
#
# Poissons Ratio (x) = 0.61377 0.43622
# Poissons Ratio (y) = 0.61377 0.43620
# Poissons Ratio (z) = 0.14693 0.14693
#
# Static dielectric constant tensor:
#      x y z
#    x 1.625130 0.000000 0.000000 
#    y 0.000000 1.625130 0.000000 
#    z 0.000000 0.000000 1.613000 
# 
# From -- ./inp_files/5853.got.cif
#   From: 2010.05.17/outbox.cif.g08.bks.cpg/sg125_3_cif.got.tgz:5853.got - 2010.05.20 11:54:10.
