data_PCOD9563761
_publ_section_title
;
Structure prediction by ZEFSAII (Michael W. Deem and Ramdas Pophale) SiO2 
 PCOD9563761
Probable space group: P 4/M B M
;
_chemical_formula_sum "Si O2"
_cell_formula_units_Z 104
_cell_length_a 26.228214
_cell_length_b 26.228214
_cell_length_c 7.385334
_cell_angle_alpha 90.000000
_cell_angle_beta 90.000000
_cell_angle_gamma 90.000000
_cell_volume 5080.513128
_symmetry_space_group_name_H-M "P 4/M B M"
_symmetry_group_IT_number 127
_symmetry_cell_setting 'tetragonal'
loop_
_space_group_symop_operation_xyz
x,y,z
-y,x,z
-x,-y,z
y,-x,z
1/2+x,1/2-y,-z
1/2-x,1/2+y,-z
1/2+y,1/2+x,-z
1/2-y,1/2-x,-z
-x,-y,-z
y,-x,-z
x,y,-z
-y,x,-z
1/2-x,1/2+y,z
1/2+x,1/2-y,z
1/2-y,1/2-x,z
1/2+y,1/2+x,z
loop_
_atom_site_type_symbol
_atom_site_label
_atom_site_fract_x
_atom_site_fract_y
_atom_site_fract_z
Si Si1 0.787164 0.365618 0.717194
Si Si2 0.541881 0.958120 0.778092
Si Si3 0.987106 0.763989 0.776960
Si Si4 0.403832 0.664908 0.202069
Si Si5 0.656794 0.970016 0.788118
Si Si6 0.910445 0.180744 0.794110
Si Si7 0.578229 0.526097 0.717994
O O1 0.782436 0.365890 0.500000
O O2 0.813220 0.313220 0.774315
O O3 0.824621 0.411709 0.769569
O O4 0.732481 0.377883 0.796588
O O5 0.599197 0.972892 0.716017
O O6 0.500000 0.000000 0.726781
O O7 0.543591 0.956410 0.000000
O O8 0.998552 0.705913 0.717382
O O9 0.035126 0.799877 0.716268
O O10 0.931932 0.785500 0.718593
O O11 0.988455 0.764570 0.000000
O O12 0.361794 0.627296 0.289893
O O13 0.452555 0.627825 0.192054
O O14 0.384925 0.677880 0.000000
O O15 0.653472 0.983087 0.000000
O O16 0.920636 0.163394 0.000000
O O17 0.530746 0.562169 0.766613
O O18 0.583802 0.527458 0.500000
#
# Coordination Sequence:
#
# PCOD9563761 Si02
#       7
#    16   8  16  16  16  16  16
#     4  10  19  30  47  70  94 117 148 195 241 279
#     4   9  16  26  47  79 105 127 159 191 223 277
#     4   8  15  27  43  64  89 118 153 193 237 278
#     4  10  18  29  45  64  88 117 153 196 236 280
#     4   9  16  29  49  71  98 129 155 184 228 283
#     4   9  18  30  45  66  91 121 155 191 236 289
#     4   9  18  30  41  56  82 116 153 193 237 281
#
# _framework density 20.470372000000001
#
# number of rings (size 3 to 8) (size 9 to 14) (size 15 to 20)
#    0.000    2.846    0.769    2.769    0.000    3.385 
#    0.000    5.385    0.000    1.846    0.000    4.308 
#    0.000    0.000    0.000    0.000    0.000    0.000 
#
# Total GULP energy -579511.225335 kJ/mol
# GULP energy per Si atom -5572.223321 kJ/mol
# Density = 2.042378 g / cm^3
# Si number density = 20.470372 Si / 1000 Ang^3
#
#
#
# Elastic Constant Matrix: (Units=GPa)
#
#
# Indices 1 2 3 4 5 6 
#
# 1 101.8153 79.8735 5.5901 0.0000 0.0000 0.0000
# 2 79.8735 101.8153 5.5910 0.0000 0.0000 0.0000
# 3 5.5901 5.5910 63.7413 0.0000 0.0000 0.0000
# 4 0.0000 0.0000 0.0000 15.8218 0.0000 0.0000
# 5 0.0000 0.0000 0.0000 0.0000 15.8218 0.0000
# 6 0.0000 0.0000 0.0000 0.0000 0.0000 36.5411
#
#
#
# Elastic Compliance Matrix: (Units=1/GPa)
#
#
# Indices 1 2 3 4 5 6 
#
# 1 0.025554 -0.020021 -0.000485 0.000000 0.000000 0.000000
# 2 -0.020021 0.025554 -0.000486 0.000000 0.000000 0.000000
# 3 -0.000485 -0.000486 0.015774 0.000000 0.000000 0.000000
# 4 0.000000 0.000000 0.000000 0.063204 0.000000 0.000000
# 5 0.000000 0.000000 0.000000 0.000000 0.063204 0.000000
# 6 0.000000 0.000000 0.000000 0.000000 0.000000 0.027366
#
#
# Mechanical properties :
#
#
# Convention : Reuss Voigt Hill
#
# Bulk Modulus (GPa) = 40.16108 49.94233 45.05171
# Shear Modulus (GPa) = 18.45432 25.39145 21.92288
#
# Velocity S-wave (km/s) = 3.00578 3.52575 3.27610
# Velocity P-wave (km/s) = 5.63099 6.40507 6.03046
#
# Compressibility (1/GPa) = 0.02489973
#
# Stress axis : x y z
#
# Youngs Moduli (GPa) = 39.13214 39.13206 63.39726
#
# Poissons Ratio (x) = 0.78345 0.03075
# Poissons Ratio (y) = 0.78345 0.03079
# Poissons Ratio (z) = 0.01898 0.01901
#
# Static dielectric constant tensor:
#      x y z
#    x 1.739310 0.000000 0.000000 
#    y 0.000000 1.739310 0.000000 
#    z 0.000000 0.000000 1.765510 
# 
# From -- ./inp_files/2276.got.cif
#   From: 2010.05.17/outbox.cif.g08.bks.cpg/sg127_2_cif.got.tgz:2276.got - 2010.05.20 12:03:00.
