data_PCOD9563351
_publ_section_title
;
Structure prediction by ZEFSAII (Michael W. Deem and Ramdas Pophale) SiO2 
 PCOD9563351
Probable space group: P 4/N N C
;
_chemical_formula_sum "Si O2"
_cell_formula_units_Z 96
_cell_length_a 23.603229
_cell_length_b 23.603229
_cell_length_c 8.917694
_cell_angle_alpha 90.000000
_cell_angle_beta 90.000000
_cell_angle_gamma 90.000000
_cell_volume 4968.158078
_symmetry_space_group_name_H-M "P 4/N N C"
_symmetry_group_IT_number 126
_space_group.IT_coordinate_system_code '2'
_symmetry_cell_setting 'tetragonal'
loop_
_space_group_symop_operation_xyz
x,y,z
1/2-y,x,z
1/2-x,1/2-y,z
y,1/2-x,z
x,1/2-y,1/2-z
1/2-x,y,1/2-z
y,x,1/2-z
1/2-y,1/2-x,1/2-z
-x,-y,-z
1/2+y,-x,-z
1/2+x,1/2+y,-z
-y,1/2+x,-z
-x,1/2+y,1/2+z
1/2+x,-y,1/2+z
-y,-x,1/2+z
1/2+y,1/2+x,1/2+z
loop_
_atom_site_type_symbol
_atom_site_label
_atom_site_fract_x
_atom_site_fract_y
_atom_site_fract_z
Si Si1 0.416073 0.150663 0.363138
Si Si2 0.398372 0.885112 0.030055
Si Si3 0.768658 0.957074 0.409076
Si Si4 0.944482 0.510100 0.908383
Si Si5 0.810693 0.078685 0.319465
Si Si6 0.694536 0.017938 0.654066
O O1 0.366019 0.133982 0.250000
O O2 0.412578 0.200515 0.482731
O O3 0.437586 0.095611 0.453667
O O4 0.470546 0.166228 0.259667
O O5 0.335018 0.887476 0.961909
O O6 0.437361 0.851413 0.907786
O O7 0.413169 0.950318 0.067207
O O8 0.409421 0.853201 0.184342
O O9 0.750000 0.932796 0.250000
O O10 0.719190 0.985645 0.508178
O O11 0.806742 0.012363 0.365668
O O12 0.968724 0.531277 0.750000
O O13 0.000000 0.500000 0.000000
O O14 0.750000 0.094120 0.250000
O O15 0.750000 0.039492 0.750000
#
# Coordination Sequence:
#
# PCOD9563351 Si02
#       6
#    16  16  16  16  16  16
#     4  10  20  36  53  81 120 156 192 232 293 351
#     4  12  21  36  59  75 108 149 194 242 310 343
#     4  10  19  38  56  82 112 149 203 248 282 349
#     4  11  22  33  48  80 119 149 186 230 279 356
#     4  11  23  37  55  82 101 139 199 253 291 359
#     4  10  21  36  59  81 110 153 199 242 291 354
#
# _framework density 19.323055
#
# number of rings (size 3 to 8) (size 9 to 14) (size 15 to 20)
#    0.000    1.333    5.000    4.000    2.333    0.000 
#    0.000    0.833    0.000    4.000    0.000    0.000 
#    0.000   27.000    0.000   13.500    3.000    0.000 
#
# Total GULP energy -534824.651290 kJ/mol
# GULP energy per Si atom -5571.090118 kJ/mol
# Density = 1.927907 g / cm^3
# Si number density = 19.323055 Si / 1000 Ang^3
#
#
#
# Elastic Constant Matrix: (Units=GPa)
#
#
# Indices 1 2 3 4 5 6 
#
# 1 56.5020 21.3032 25.4131 0.0000 0.0000 0.0000
# 2 21.3032 56.5011 25.4129 0.0000 0.0000 0.0000
# 3 25.4131 25.4129 68.5056 0.0000 0.0000 0.0000
# 4 0.0000 0.0000 0.0000 30.6827 0.0000 0.0000
# 5 0.0000 0.0000 0.0000 0.0000 30.6832 0.0000
# 6 0.0000 0.0000 0.0000 0.0000 0.0000 15.1476
#
#
#
# Elastic Compliance Matrix: (Units=1/GPa)
#
#
# Indices 1 2 3 4 5 6 
#
# 1 0.022687 -0.005723 -0.006293 0.000000 0.000000 0.000000
# 2 -0.005723 0.022687 -0.006293 0.000000 0.000000 0.000000
# 3 -0.006293 -0.006293 0.019266 0.000000 0.000000 0.000000
# 4 0.000000 0.000000 0.000000 0.032592 0.000000 0.000000
# 5 0.000000 0.000000 0.000000 0.000000 0.032591 0.000000
# 6 0.000000 0.000000 0.000000 0.000000 0.000000 0.066017
#
#
# Mechanical properties :
#
#
# Convention : Reuss Voigt Hill
#
# Bulk Modulus (GPa) = 35.68647 36.19635 35.94141
# Shear Modulus (GPa) = 20.67834 22.59465 21.63650
#
# Velocity S-wave (km/s) = 3.27485 3.42323 3.34986
# Velocity P-wave (km/s) = 5.72782 5.86494 5.79679
#
# Compressibility (1/GPa) = 0.02802183
#
# Stress axis : x y z
#
# Youngs Moduli (GPa) = 44.07857 44.07786 51.90449
#
# Poissons Ratio (x) = 0.25228 0.32662
# Poissons Ratio (y) = 0.25228 0.32663
# Poissons Ratio (z) = 0.27738 0.27737
#
# Static dielectric constant tensor:
#      x y z
#    x 1.450090 0.000000 0.000000 
#    y 0.000000 1.449490 0.000000 
#    z 0.000000 0.000000 1.718570 
# 
# From -- ./inp_files/1738.got.cif
#   From: 2010.05.17/outbox.cif.g08.bks.cpg/sg126_1_cif.got.tgz:1738.got - 2010.05.20 11:58:20.
