data_PCOD9563057
_publ_section_title
;
Structure prediction by ZEFSAII (Michael W. Deem and Ramdas Pophale) SiO2 
 PCOD9563057
Probable space group: P 4/N B M
;
_chemical_formula_sum "Si O2"
_cell_formula_units_Z 96
_cell_length_a 22.970989
_cell_length_b 22.970989
_cell_length_c 9.026744
_cell_angle_alpha 90.000000
_cell_angle_beta 90.000000
_cell_angle_gamma 90.000000
_cell_volume 4763.108929
_symmetry_space_group_name_H-M "P 4/N B M"
_symmetry_group_IT_number 125
_space_group.IT_coordinate_system_code '2'
_symmetry_cell_setting 'tetragonal'
loop_
_space_group_symop_operation_xyz
x,y,z
1/2-y,x,z
1/2-x,1/2-y,z
y,1/2-x,z
x,1/2-y,-z
1/2-x,y,-z
y,x,-z
1/2-y,1/2-x,-z
-x,-y,-z
1/2+y,-x,-z
1/2+x,1/2+y,-z
-y,1/2+x,-z
-x,1/2+y,z
1/2+x,-y,z
-y,-x,z
1/2+y,1/2+x,z
loop_
_atom_site_type_symbol
_atom_site_label
_atom_site_fract_x
_atom_site_fract_y
_atom_site_fract_z
Si Si1 0.457053 0.050216 0.321162
Si Si2 0.091417 0.813367 0.078970
Si Si3 0.367166 0.957248 0.190054
Si Si4 0.247551 0.395682 0.331584
Si Si5 0.243257 0.531120 0.661437
Si Si6 0.627241 0.636910 0.177633
O O1 0.448188 0.051813 0.500000
O O2 0.431915 0.108905 0.247205
O O3 0.521667 0.021667 0.296745
O O4 0.412822 0.004231 0.245411
O O5 0.151510 0.848491 0.081759
O O6 0.065063 0.802237 0.239097
O O7 0.097318 0.750000 0.000000
O O8 0.046093 0.852225 0.983619
O O9 0.395080 0.895080 0.227999
O O10 0.306263 0.965168 0.266200
O O11 0.250000 0.371221 0.500000
O O12 0.268129 0.462564 0.346747
O O13 0.183505 0.392052 0.258840
O O14 0.295417 0.368107 0.223337
O O15 0.250000 0.556783 0.500000
O O16 0.628636 0.628636 0.000000
#
# Coordination Sequence:
#
# PCOD9563057 Si02
#       6
#    16  16  16  16  16  16
#     4  10  21  39  62  89 124 164 204 249 308 371
#     4   9  19  35  58  86 120 160 204 251 306 368
#     4   9  18  35  59  83 116 158 199 243 295 361
#     4  11  24  44  65  89 122 166 211 254 314 380
#     4  10  21  35  60  88 119 158 204 252 306 368
#     4  12  26  41  67  95 127 162 208 265 313 368
#
# _framework density 20.154903000000001
#
# number of rings (size 3 to 8) (size 9 to 14) (size 15 to 20)
#    0.000    1.833    1.667    2.000    4.667    2.833 
#    0.000    2.500    0.000    0.000    0.000    2.333 
#    0.000    0.000    0.000    0.000    0.000    0.000 
#
# Total GULP energy -535226.064623 kJ/mol
# GULP energy per Si atom -5575.271506 kJ/mol
# Density = 2.010903 g / cm^3
# Si number density = 20.154903 Si / 1000 Ang^3
#
#
#
# Elastic Constant Matrix: (Units=GPa)
#
#
# Indices 1 2 3 4 5 6 
#
# 1 61.0977 26.2952 34.4823 0.0000 0.0000 0.0000
# 2 26.2952 61.0978 34.4823 0.0000 0.0000 0.0000
# 3 34.4823 34.4823 141.3604 0.0000 0.0000 0.0000
# 4 0.0000 0.0000 0.0000 25.1428 0.0000 0.0000
# 5 0.0000 0.0000 0.0000 0.0000 25.1428 0.0000
# 6 0.0000 0.0000 0.0000 0.0000 0.0000 25.8235
#
#
#
# Elastic Compliance Matrix: (Units=1/GPa)
#
#
# Indices 1 2 3 4 5 6 
#
# 1 0.021452 -0.007282 -0.003457 0.000000 0.000000 0.000000
# 2 -0.007282 0.021452 -0.003457 0.000000 0.000000 0.000000
# 3 -0.003457 -0.003457 0.008760 0.000000 0.000000 0.000000
# 4 0.000000 0.000000 0.000000 0.039773 0.000000 0.000000
# 5 0.000000 0.000000 0.000000 0.000000 0.039773 0.000000
# 6 0.000000 0.000000 0.000000 0.000000 0.000000 0.038724
#
#
# Mechanical properties :
#
#
# Convention : Reuss Voigt Hill
#
# Bulk Modulus (GPa) = 42.96516 50.45282 46.70899
# Shear Modulus (GPa) = 24.26216 26.44155 25.35186
#
# Velocity S-wave (km/s) = 3.47332 3.62597 3.55047
# Velocity P-wave (km/s) = 6.11956 6.52817 6.32717
#
# Compressibility (1/GPa) = 0.02327467
#
# Stress axis : x y z
#
# Youngs Moduli (GPa) = 46.61591 46.61594 114.14930
#
# Poissons Ratio (x) = 0.33944 0.39457
# Poissons Ratio (y) = 0.33944 0.39457
# Poissons Ratio (z) = 0.16113 0.16113
#
# Static dielectric constant tensor:
#      x y z
#    x 1.687150 0.000000 0.000000 
#    y 0.000000 1.687150 0.000000 
#    z 0.000000 0.000000 1.745790 
# 
# From -- ./inp_files/2838.got.cif
#   From: 2010.05.17/outbox.cif.g08.bks.cpg/sg125_2_cif.got.tgz:2838.got - 2010.05.20 11:54:10.
