data_PCOD9563315
_publ_section_title
;
Structure prediction by ZEFSAII (Michael W. Deem and Ramdas Pophale) SiO2 
 PCOD9563315
Probable space group: P 4/N N C
;
_chemical_formula_sum "Si O2"
_cell_formula_units_Z 112
_cell_length_a 18.232170
_cell_length_b 18.232170
_cell_length_c 14.126423
_cell_angle_alpha 90.000000
_cell_angle_beta 90.000000
_cell_angle_gamma 90.000000
_cell_volume 4695.792846
_symmetry_space_group_name_H-M "P 4/N N C"
_symmetry_group_IT_number 126
_space_group.IT_coordinate_system_code '2'
_symmetry_cell_setting 'tetragonal'
loop_
_space_group_symop_operation_xyz
x,y,z
1/2-y,x,z
1/2-x,1/2-y,z
y,1/2-x,z
x,1/2-y,1/2-z
1/2-x,y,1/2-z
y,x,1/2-z
1/2-y,1/2-x,1/2-z
-x,-y,-z
1/2+y,-x,-z
1/2+x,1/2+y,-z
-y,1/2+x,-z
-x,1/2+y,1/2+z
1/2+x,-y,1/2+z
-y,-x,1/2+z
1/2+y,1/2+x,1/2+z
loop_
_atom_site_type_symbol
_atom_site_label
_atom_site_fract_x
_atom_site_fract_y
_atom_site_fract_z
Si Si1 0.453407 0.055590 0.363436
Si Si2 0.524783 0.267034 0.852538
Si Si3 0.790736 0.860928 0.362251
Si Si4 0.350825 0.188901 0.410978
Si Si5 0.921527 0.116869 0.645751
Si Si6 0.598567 0.109820 0.126514
Si Si7 0.759849 0.166259 0.635949
O O1 0.449528 0.050473 0.250000
O O2 0.414844 0.132575 0.387095
O O3 0.538212 0.055150 0.391968
O O4 0.414508 0.982374 0.402118
O O5 0.561820 0.250000 0.750000
O O6 0.445032 0.302024 0.835883
O O7 0.524477 0.182903 0.886767
O O8 0.568965 0.327800 0.909705
O O9 0.707085 0.841774 0.333517
O O10 0.799221 0.855930 0.475924
O O11 0.347664 0.273686 0.377530
O O12 0.911470 0.104634 0.760328
O O13 0.840770 0.139804 0.612881
O O14 0.612567 0.194822 0.105578
O O15 0.750000 0.250000 0.604312
O O16 0.750000 0.167623 0.750000
#
# Coordination Sequence:
#
# PCOD9563315 Si02
#       7
#    16  16  16  16  16  16  16
#     4  10  21  33  52  83 115 142 179 233 287 332
#     4  10  19  32  54  82 113 143 174 227 287 333
#     4   9  20  38  58  75 100 143 186 225 272 333
#     4   9  20  40  59  74 103 145 185 228 280 336
#     4   9  18  30  47  75 112 146 174 223 280 328
#     4   9  18  30  46  76 113 143 176 220 278 339
#     4   9  14  26  46  68 100 145 184 208 260 341
#
# _framework density 23.851137000000001
#
# number of rings (size 3 to 8) (size 9 to 14) (size 15 to 20)
#    0.000    2.714    1.429    0.857    4.000    1.143 
#    0.000    2.143    0.000    0.000    0.000    0.000 
#    0.000    0.000    0.000    0.000    0.000    0.000 
#
# Total GULP energy -625062.262437 kJ/mol
# GULP energy per Si atom -5580.913057 kJ/mol
# Density = 2.379685 g / cm^3
# Si number density = 23.851137 Si / 1000 Ang^3
#
#
#
# Elastic Constant Matrix: (Units=GPa)
#
#
# Indices 1 2 3 4 5 6 
#
# 1 108.3621 34.0426 4.1229 0.0000 0.0000 0.0000
# 2 34.0426 108.3617 4.1231 0.0000 0.0000 0.0000
# 3 4.1229 4.1231 68.0553 0.0000 0.0000 0.0000
# 4 0.0000 0.0000 0.0000 6.6043 0.0000 0.0000
# 5 0.0000 0.0000 0.0000 0.0000 6.6043 0.0000
# 6 0.0000 0.0000 0.0000 0.0000 0.0000 34.2921
#
#
#
# Elastic Compliance Matrix: (Units=1/GPa)
#
#
# Indices 1 2 3 4 5 6 
#
# 1 0.010251 -0.003204 -0.000427 0.000000 0.000000 0.000000
# 2 -0.003204 0.010251 -0.000427 0.000000 0.000000 0.000000
# 3 -0.000427 -0.000427 0.014746 0.000000 0.000000 0.000000
# 4 0.000000 0.000000 0.000000 0.151415 0.000000 0.000000
# 5 0.000000 0.000000 0.000000 0.000000 0.151416 0.000000
# 6 0.000000 0.000000 0.000000 0.000000 0.000000 0.029161
#
#
# Mechanical properties :
#
#
# Convention : Reuss Voigt Hill
#
# Bulk Modulus (GPa) = 36.85702 41.03961 38.94831
# Shear Modulus (GPa) = 13.00727 25.66619 19.33673
#
# Velocity S-wave (km/s) = 2.33781 3.28395 2.85041
# Velocity P-wave (km/s) = 4.77217 5.62344 5.21520
#
# Compressibility (1/GPa) = 0.02713188
#
# Stress axis : x y z
#
# Youngs Moduli (GPa) = 97.54956 97.54923 67.81659
#
# Poissons Ratio (x) = 0.31257 0.02895
# Poissons Ratio (y) = 0.31257 0.02895
# Poissons Ratio (z) = 0.04164 0.04165
#
# Static dielectric constant tensor:
#      x y z
#    x 1.890570 0.000000 0.000000 
#    y 0.000000 1.890570 0.000000 
#    z 0.000000 0.000000 2.047410 
# 
# From -- ./inp_files/5414.got.cif
#   From: 2010.05.17/outbox.cif.g08.bks.cpg/sg126_3_cif.got.tgz:5414.got - 2010.05.20 11:58:20.
