data_PCOD9563612
_publ_section_title
;
Structure prediction by ZEFSAII (Michael W. Deem and Ramdas Pophale) SiO2 
 PCOD9563612
Probable space group: P 4/N N C
;
_chemical_formula_sum "Si O2"
_cell_formula_units_Z 80
_cell_length_a 11.740752
_cell_length_b 11.740752
_cell_length_c 29.204266
_cell_angle_alpha 90.000000
_cell_angle_beta 90.000000
_cell_angle_gamma 90.000000
_cell_volume 4025.669568
_symmetry_space_group_name_H-M "P 4/N N C"
_symmetry_group_IT_number 126
_space_group.IT_coordinate_system_code '2'
_symmetry_cell_setting 'tetragonal'
loop_
_space_group_symop_operation_xyz
x,y,z
1/2-y,x,z
1/2-x,1/2-y,z
y,1/2-x,z
x,1/2-y,1/2-z
1/2-x,y,1/2-z
y,x,1/2-z
1/2-y,1/2-x,1/2-z
-x,-y,-z
1/2+y,-x,-z
1/2+x,1/2+y,-z
-y,1/2+x,-z
-x,1/2+y,1/2+z
1/2+x,-y,1/2+z
-y,-x,1/2+z
1/2+y,1/2+x,1/2+z
loop_
_atom_site_type_symbol
_atom_site_label
_atom_site_fract_x
_atom_site_fract_y
_atom_site_fract_z
Si Si1 0.112228 0.757688 0.801826
Si Si2 0.552800 0.088203 0.868223
Si Si3 0.927579 0.140782 0.878368
Si Si4 0.161777 0.595040 0.983861
Si Si5 0.418076 0.159259 0.442856
O O1 0.250000 0.750000 0.798849
O O2 0.068304 0.750000 0.750000
O O3 0.070079 0.877281 0.821758
O O4 0.091035 0.662881 0.841508
O O5 0.563336 0.223012 0.875462
O O6 0.424092 0.044589 0.867934
O O7 0.614655 0.009692 0.906179
O O8 0.896610 0.123005 0.931605
O O9 0.111218 0.701653 0.011877
O O10 0.134204 0.475865 0.007992
O O11 0.396569 0.294257 0.438163
#
# Coordination Sequence:
#
# PCOD9563612 Si02
#       5
#    16  16  16  16  16
#     4   9  20  40  64  88 116 156 206 256 311 381
#     4  11  22  41  62  91 129 166 212 267 325 389
#     4  11  24  38  63  93 125 166 213 266 326 384
#     4  11  22  36  60  87 121 170 217 260 315 385
#     4  11  24  40  59  88 127 171 219 271 322 373
#
# _framework density 19.872471000000001
#
# number of rings (size 3 to 8) (size 9 to 14) (size 15 to 20)
#    0.000    1.400    2.000    3.600    8.400    2.800 
#    0.000    0.000    0.000    0.000    0.000    7.000 
#    0.000    0.000    0.000    0.000    0.000    0.000 
#
# Total GULP energy -446503.692135 kJ/mol
# GULP energy per Si atom -5581.296152 kJ/mol
# Density = 1.982724 g / cm^3
# Si number density = 19.872471 Si / 1000 Ang^3
#
#
#
# Elastic Constant Matrix: (Units=GPa)
#
#
# Indices 1 2 3 4 5 6 
#
# 1 109.4636 36.8458 44.1137 0.0000 0.0000 0.0000
# 2 36.8458 109.4636 44.1137 0.0000 0.0000 0.0000
# 3 44.1137 44.1137 161.2912 0.0000 0.0000 0.0000
# 4 0.0000 0.0000 0.0000 -2.8455 0.0000 0.0000
# 5 0.0000 0.0000 0.0000 0.0000 -2.8455 0.0000
# 6 0.0000 0.0000 0.0000 0.0000 0.0000 26.6689
#
#
#
# Elastic Compliance Matrix: (Units=1/GPa)
#
#
# Indices 1 2 3 4 5 6 
#
# 1 0.010978 -0.002793 -0.002239 0.000000 0.000000 0.000000
# 2 -0.002793 0.010978 -0.002239 0.000000 0.000000 0.000000
# 3 -0.002239 -0.002239 0.007424 0.000000 0.000000 0.000000
# 4 0.000000 0.000000 0.000000 -0.351430 0.000000 0.000000
# 5 0.000000 0.000000 0.000000 0.000000 -0.351430 0.000000
# 6 0.000000 0.000000 0.000000 0.000000 0.000000 0.037497
#
#
# Mechanical properties :
#
#
# Convention : Reuss Voigt Hill
#
# Bulk Modulus (GPa) = 67.38679 70.04056 68.71367
# Shear Modulus (GPa) = -8.11036 21.20526 6.54745
#
# Velocity S-wave (km/s) = -2.02239 3.27014 1.81711
# Velocity P-wave (km/s) = 5.34133 7.04131 6.24939
#
# Compressibility (1/GPa) = 0.01483970
#
# Stress axis : x y z
#
# Youngs Moduli (GPa) = 91.09359 91.09359 134.68978
#
# Poissons Ratio (x) = 0.25442 0.30151
# Poissons Ratio (y) = 0.25442 0.30151
# Poissons Ratio (z) = 0.20392 0.20392
#
# Static dielectric constant tensor:
#      x y z
#    x 1.721490 0.000000 0.000000 
#    y 0.000000 1.721490 0.000000 
#    z 0.000000 0.000000 1.715430 
# 
# From -- ./inp_files/6422.got.cif
#   From: 2010.05.17/outbox.cif.g08.bks.cpg/sg126_4_cif.got.tgz:6422.got - 2010.05.20 11:58:20.
