data_PCOD9563481
_publ_section_title
;
Structure prediction by ZEFSAII (Michael W. Deem and Ramdas Pophale) SiO2 
 PCOD9563481
Probable space group: P 4/N N C
;
_chemical_formula_sum "Si O2"
_cell_formula_units_Z 96
_cell_length_a 16.731455
_cell_length_b 16.731455
_cell_length_c 15.505512
_cell_angle_alpha 90.000000
_cell_angle_beta 90.000000
_cell_angle_gamma 90.000000
_cell_volume 4340.637627
_symmetry_space_group_name_H-M "P 4/N N C"
_symmetry_group_IT_number 126
_space_group.IT_coordinate_system_code '2'
_symmetry_cell_setting 'tetragonal'
loop_
_space_group_symop_operation_xyz
x,y,z
1/2-y,x,z
1/2-x,1/2-y,z
y,1/2-x,z
x,1/2-y,1/2-z
1/2-x,y,1/2-z
y,x,1/2-z
1/2-y,1/2-x,1/2-z
-x,-y,-z
1/2+y,-x,-z
1/2+x,1/2+y,-z
-y,1/2+x,-z
-x,1/2+y,1/2+z
1/2+x,-y,1/2+z
-y,-x,1/2+z
1/2+y,1/2+x,1/2+z
loop_
_atom_site_type_symbol
_atom_site_label
_atom_site_fract_x
_atom_site_fract_y
_atom_site_fract_z
Si Si1 0.038085 0.339614 0.288729
Si Si2 0.204889 0.869010 0.472011
Si Si3 0.789615 0.453018 0.140594
Si Si4 0.798433 0.871929 0.347317
Si Si5 0.129944 0.299881 0.445829
Si Si6 0.133813 0.614817 0.702641
O O1 0.027706 0.250000 0.250000
O O2 0.114070 0.385931 0.250000
O O3 0.056668 0.329364 0.389848
O O4 0.959529 0.393785 0.277169
O O5 0.296351 0.845863 0.487541
O O6 0.190042 0.939753 0.540758
O O7 0.184595 0.870328 0.370464
O O8 0.820392 0.537766 0.175964
O O9 0.824976 0.383542 0.202764
O O10 0.693375 0.447624 0.154395
O O11 0.705829 0.851187 0.324858
O O12 0.801981 0.875492 0.451632
O O13 0.149162 0.208389 0.422060
#
# Coordination Sequence:
#
# PCOD9563481 Si02
#       6
#    16  16  16  16  16  16
#     4  12  24  37  57  90 130 176 219 263 321 397
#     4   9  19  37  64  92 122 165 219 259 305 384
#     4  10  21  42  64  92 130 173 201 275 336 369
#     4   9  19  37  66  95 119 164 222 270 329 401
#     4   9  17  34  60  90 125 165 214 268 320 387
#     4  10  24  40  60  92 126 164 216 262 316 382
#
# _framework density 22.116567
#
# number of rings (size 3 to 8) (size 9 to 14) (size 15 to 20)
#    0.000    2.167    1.667    2.000    2.333    1.500 
#    3.000    2.500    0.000   10.000    0.000    0.000 
#    0.000    0.000    0.000    0.000    0.000    0.000 
#
# Total GULP energy -534533.848311 kJ/mol
# GULP energy per Si atom -5568.060920 kJ/mol
# Density = 2.206623 g / cm^3
# Si number density = 22.116567 Si / 1000 Ang^3
#
#
#
# Elastic Constant Matrix: (Units=GPa)
#
#
# Indices 1 2 3 4 5 6 
#
# 1 45.9677 56.8877 33.4439 0.0000 0.0000 0.0000
# 2 56.8877 45.9703 33.4467 0.0000 0.0000 0.0000
# 3 33.4439 33.4467 118.4799 0.0000 0.0000 0.0000
# 4 0.0000 0.0000 0.0000 31.3430 0.0000 0.0000
# 5 0.0000 0.0000 0.0000 0.0000 31.3427 0.0000
# 6 0.0000 0.0000 0.0000 0.0000 0.0000 8.5333
#
#
#
# Elastic Compliance Matrix: (Units=1/GPa)
#
#
# Indices 1 2 3 4 5 6 
#
# 1 -0.039839 0.051747 -0.003363 0.000000 0.000000 0.000000
# 2 0.051747 -0.039838 -0.003361 0.000000 0.000000 0.000000
# 3 -0.003363 -0.003361 0.010338 0.000000 0.000000 0.000000
# 4 0.000000 0.000000 0.000000 0.031905 0.000000 0.000000
# 5 0.000000 0.000000 0.000000 0.000000 0.031905 0.000000
# 6 0.000000 0.000000 0.000000 0.000000 0.000000 0.117189
#
#
# Mechanical properties :
#
#
# Convention : Reuss Voigt Hill
#
# Bulk Modulus (GPa) = 48.28919 50.88607 49.58763
# Shear Modulus (GPa) = 175.35114 20.01976 97.68545
#
# Velocity S-wave (km/s) = 8.91387 3.01191 6.65315
# Velocity P-wave (km/s) = 11.30593 5.92904 9.02712
#
# Compressibility (1/GPa) = 0.02070857
#
# Stress axis : x y z
#
# Youngs Moduli (GPa) = -25.10078 -25.10151 96.72947
#
# Poissons Ratio (x) = 1.29893 0.32525
# Poissons Ratio (y) = 1.29890 0.32507
# Poissons Ratio (z) = -0.08440 -0.08436
#
# Static dielectric constant tensor:
#      x y z
#    x 1.825270 0.000000 0.000000 
#    y 0.000000 1.825270 0.000000 
#    z 0.000000 0.000000 1.856540 
# 
# From -- ./inp_files/4498.got.cif
#   From: 2010.05.17/outbox.cif.g08.bks.cpg/sg126_3_cif.got.tgz:4498.got - 2010.05.20 11:58:20.
