data_PCOD9563138
_publ_section_title
;
Structure prediction by ZEFSAII (Michael W. Deem and Ramdas Pophale) SiO2 
 PCOD9563138
Probable space group: P 4/N B M
;
_chemical_formula_sum "Si O2"
_cell_formula_units_Z 84
_cell_length_a 20.680826
_cell_length_b 20.680826
_cell_length_c 11.207157
_cell_angle_alpha 90.000000
_cell_angle_beta 90.000000
_cell_angle_gamma 90.000000
_cell_volume 4793.262542
_symmetry_space_group_name_H-M "P 4/N B M"
_symmetry_group_IT_number 125
_space_group.IT_coordinate_system_code '2'
_symmetry_cell_setting 'tetragonal'
loop_
_space_group_symop_operation_xyz
x,y,z
1/2-y,x,z
1/2-x,1/2-y,z
y,1/2-x,z
x,1/2-y,-z
1/2-x,y,-z
y,x,-z
1/2-y,1/2-x,-z
-x,-y,-z
1/2+y,-x,-z
1/2+x,1/2+y,-z
-y,1/2+x,-z
-x,1/2+y,z
1/2+x,-y,z
-y,-x,z
1/2+y,1/2+x,z
loop_
_atom_site_type_symbol
_atom_site_label
_atom_site_fract_x
_atom_site_fract_y
_atom_site_fract_z
Si Si1 0.250000 0.750000 0.344491
Si Si2 0.144097 0.855904 0.673408
Si Si3 0.992083 0.324473 0.257004
Si Si4 0.143541 0.643541 0.612742
Si Si5 0.062720 0.325394 0.004207
Si Si6 0.950646 0.946556 0.639913
Si Si7 0.321250 0.998437 0.250021
O O1 0.198008 0.698008 0.295167
O O2 0.198604 0.801397 0.398313
O O3 0.131461 0.868540 0.529725
O O4 0.166596 0.922971 0.729502
O O5 0.031223 0.381113 0.318513
O O6 0.919127 0.332823 0.310987
O O7 0.012827 0.251893 0.286980
O O8 0.013494 0.332103 0.117277
O O9 0.020261 0.332664 0.885313
O O10 0.086942 0.250000 0.000000
O O11 0.121018 0.378983 0.000000
O O12 0.953555 0.953555 0.500000
O O13 0.964466 0.873752 0.673621
O O14 0.005598 0.994403 0.693607
#
# Coordination Sequence:
#
# PCOD9563138 Si02
#       7
#     4   8  16   8  16  16  16
#     4  12  25  40  64  93 130 181 220 240 293 370
#     4  12  23  38  62  92 127 169 214 254 295 361
#     4  11  23  39  61  89 125 159 204 260 311 363
#     4  12  23  38  62  92 127 169 214 254 295 361
#     4  10  22  42  65  89 117 157 207 258 315 370
#     4  11  22  37  59  90 123 161 207 254 308 369
#     4  11  23  39  61  89 125 159 204 260 311 363
#
# _framework density 17.524598999999998
#
# number of rings (size 3 to 8) (size 9 to 14) (size 15 to 20)
#    0.000    0.952    5.714    2.000    0.000    3.238 
#    0.000    1.905    0.000    2.857    0.000    1.333 
#    0.000    0.000    0.000    0.000    0.000    0.000 
#
# Total GULP energy -467645.645456 kJ/mol
# GULP energy per Si atom -5567.210065 kJ/mol
# Density = 1.748471 g / cm^3
# Si number density = 17.524599 Si / 1000 Ang^3
#
#
#
# Elastic Constant Matrix: (Units=GPa)
#
#
# Indices 1 2 3 4 5 6 
#
# 1 39.5958 136.2520 54.8878 0.0000 0.0000 0.0000
# 2 136.2520 39.5993 54.8860 0.0000 0.0000 0.0000
# 3 54.8878 54.8860 91.1396 0.0000 0.0000 0.0000
# 4 0.0000 0.0000 0.0000 35.0572 0.0000 0.0000
# 5 0.0000 0.0000 0.0000 0.0000 35.0547 0.0000
# 6 0.0000 0.0000 0.0000 0.0000 0.0000 36.1122
#
#
#
# Elastic Compliance Matrix: (Units=1/GPa)
#
#
# Indices 1 2 3 4 5 6 
#
# 1 -0.000617 0.009729 -0.005487 0.000000 0.000000 0.000000
# 2 0.009729 -0.000617 -0.005488 0.000000 0.000000 0.000000
# 3 -0.005487 -0.005488 0.017582 0.000000 0.000000 0.000000
# 4 0.000000 0.000000 0.000000 0.028525 0.000000 0.000000
# 5 0.000000 0.000000 0.000000 0.000000 0.028527 0.000000
# 6 0.000000 0.000000 0.000000 0.000000 0.000000 0.027691
#
#
# Mechanical properties :
#
#
# Convention : Reuss Voigt Hill
#
# Bulk Modulus (GPa) = 72.17227 73.59849 72.88538
# Shear Modulus (GPa) = 46.20967 16.19872 31.20420
#
# Velocity S-wave (km/s) = 5.14059 3.04360 4.22429
# Velocity P-wave (km/s) = 8.74683 7.37833 8.09156
#
# Compressibility (1/GPa) = 0.01385574
#
# Stress axis : x y z
#
# Youngs Moduli (GPa) = -1620.40428 -1621.79601 56.87654
#
# Poissons Ratio (x) = 15.77889 0.31211
# Poissons Ratio (y) = 15.76535 0.31214
# Poissons Ratio (z) = -8.89195 -8.90044
#
# Static dielectric constant tensor:
#      x y z
#    x 1.604320 0.000000 0.000000 
#    y 0.000000 1.604320 0.000000 
#    z 0.000000 0.000000 1.618460 
# 
# From -- ./inp_files/4078.got.cif
#   From: 2010.05.17/outbox.cif.g08.bks.cpg/sg125_3_cif.got.tgz:4078.got - 2010.05.20 11:54:10.
