data_PCOD9563441
_publ_section_title
;
Structure prediction by ZEFSAII (Michael W. Deem and Ramdas Pophale) SiO2 
 PCOD9563441
Probable space group: P 4/N N C
;
_chemical_formula_sum "Si O2"
_cell_formula_units_Z 64
_cell_length_a 24.874327
_cell_length_b 24.874327
_cell_length_c 4.943594
_cell_angle_alpha 90.000000
_cell_angle_beta 90.000000
_cell_angle_gamma 90.000000
_cell_volume 3058.760513
_symmetry_space_group_name_H-M "P 4/N N C"
_symmetry_group_IT_number 126
_space_group.IT_coordinate_system_code '2'
_symmetry_cell_setting 'tetragonal'
loop_
_space_group_symop_operation_xyz
x,y,z
1/2-y,x,z
1/2-x,1/2-y,z
y,1/2-x,z
x,1/2-y,1/2-z
1/2-x,y,1/2-z
y,x,1/2-z
1/2-y,1/2-x,1/2-z
-x,-y,-z
1/2+y,-x,-z
1/2+x,1/2+y,-z
-y,1/2+x,-z
-x,1/2+y,1/2+z
1/2+x,-y,1/2+z
-y,-x,1/2+z
1/2+y,1/2+x,1/2+z
loop_
_atom_site_type_symbol
_atom_site_label
_atom_site_fract_x
_atom_site_fract_y
_atom_site_fract_z
Si Si1 0.598662 0.813082 0.791729
Si Si2 0.952433 0.864626 0.215018
Si Si3 0.147387 0.694992 0.890005
Si Si4 0.442198 0.602806 0.531037
O O1 0.603521 0.750000 0.750000
O O2 0.653553 0.846448 0.750000
O O3 0.555458 0.841489 0.586731
O O4 0.579787 0.823370 0.095657
O O5 0.920891 0.920891 0.250000
O O6 0.009303 0.872276 0.360490
O O7 0.128335 0.750000 0.750000
O O8 0.192810 0.672784 0.686006
O O9 0.099962 0.651288 0.918926
O O10 0.445167 0.579067 0.833156
#
# Coordination Sequence:
#
# PCOD9563441 Si02
#       4
#    16  16  16  16
#     4  10  21  38  59  86 119 153 193 240 289 346
#     4  10  21  37  58  85 116 150 192 240 287 341
#     4  10  21  36  54  78 108 143 186 234 283 340
#     4  10  21  37  56  81 114 150 190 235 284 341
#
# _framework density 20.923508999999999
#
# number of rings (size 3 to 8) (size 9 to 14) (size 15 to 20)
#    0.000    2.000    0.000    3.000    0.000    3.750 
#    0.000    7.500    0.000    4.500    0.000    0.000 
#    0.000    0.000    0.000    0.000    0.000    0.000 
#
# Total GULP energy -356610.934396 kJ/mol
# GULP energy per Si atom -5572.045850 kJ/mol
# Density = 2.087589 g / cm^3
# Si number density = 20.923509 Si / 1000 Ang^3
#
#
#
# Elastic Constant Matrix: (Units=GPa)
#
#
# Indices 1 2 3 4 5 6 
#
# 1 81.2227 7.8899 22.7214 0.0000 0.0000 0.0000
# 2 7.8899 81.2219 22.7206 0.0000 0.0000 0.0000
# 3 22.7214 22.7206 110.5602 0.0000 0.0000 0.0000
# 4 0.0000 0.0000 0.0000 20.4967 0.0000 0.0000
# 5 0.0000 0.0000 0.0000 0.0000 20.4878 0.0000
# 6 0.0000 0.0000 0.0000 0.0000 0.0000 -2.1621
#
#
#
# Elastic Compliance Matrix: (Units=1/GPa)
#
#
# Indices 1 2 3 4 5 6 
#
# 1 0.013086 -0.000551 -0.002576 0.000000 0.000000 0.000000
# 2 -0.000551 0.013086 -0.002576 0.000000 0.000000 0.000000
# 3 -0.002576 -0.002576 0.010104 0.000000 0.000000 0.000000
# 4 0.000000 0.000000 0.000000 0.048788 0.000000 0.000000
# 5 0.000000 0.000000 0.000000 0.000000 0.048809 0.000000
# 6 0.000000 0.000000 0.000000 0.000000 0.000000 -0.462516
#
#
# Mechanical properties :
#
#
# Convention : Reuss Voigt Hill
#
# Bulk Modulus (GPa) = 40.20893 42.18538 41.19715
# Shear Modulus (GPa) = -16.18402 22.40935 3.11267
#
# Velocity S-wave (km/s) = -2.78418 3.27618 1.22101
# Velocity P-wave (km/s) = 2.98719 5.87509 4.66047
#
# Compressibility (1/GPa) = 0.02487010
#
# Stress axis : x y z
#
# Youngs Moduli (GPa) = 76.41768 76.41729 98.97381
#
# Poissons Ratio (x) = 0.04207 0.25497
# Poissons Ratio (y) = 0.04207 0.25497
# Poissons Ratio (z) = 0.19687 0.19686
#
# Static dielectric constant tensor:
#      x y z
#    x 1.763670 0.000000 0.000000 
#    y 0.000000 1.763670 0.000000 
#    z 0.000000 0.000000 1.693420 
# 
# From -- ./inp_files/456.got.cif
#   From: 2010.05.17/outbox.cif.g08.bks.cpg/sg126_1_cif.got.tgz:456.got - 2010.05.20 11:58:20.
