data_PCOD9563270
_publ_section_title
;
Structure prediction by ZEFSAII (Michael W. Deem and Ramdas Pophale) SiO2 
 PCOD9563270
Probable space group: P 4/N B M
;
_chemical_formula_sum "Si O2"
_cell_formula_units_Z 52
_cell_length_a 22.114558
_cell_length_b 22.114558
_cell_length_c 4.868419
_cell_angle_alpha 90.000000
_cell_angle_beta 90.000000
_cell_angle_gamma 90.000000
_cell_volume 2380.918206
_symmetry_space_group_name_H-M "P 4/N B M"
_symmetry_group_IT_number 125
_space_group.IT_coordinate_system_code '2'
_symmetry_cell_setting 'tetragonal'
loop_
_space_group_symop_operation_xyz
x,y,z
1/2-y,x,z
1/2-x,1/2-y,z
y,1/2-x,z
x,1/2-y,-z
1/2-x,y,-z
y,x,-z
1/2-y,1/2-x,-z
-x,-y,-z
1/2+y,-x,-z
1/2+x,1/2+y,-z
-y,1/2+x,-z
-x,1/2+y,z
1/2+x,-y,z
-y,-x,z
1/2+y,1/2+x,z
loop_
_atom_site_type_symbol
_atom_site_label
_atom_site_fract_x
_atom_site_fract_y
_atom_site_fract_z
Si Si1 0.142491 0.012465 0.590018
Si Si2 0.680328 0.913169 0.082807
Si Si3 0.500000 0.000000 0.500000
Si Si4 0.708628 0.109498 0.736757
O O1 0.170899 0.063514 0.391698
O O2 0.180933 0.951234 0.603543
O O3 0.143891 0.038864 0.896595
O O4 0.074424 0.000302 0.502125
O O5 0.750000 0.915376 0.000000
O O6 0.650450 0.849550 0.000000
O O7 0.750000 0.138266 0.500000
O O8 0.654496 0.154496 0.815925
O O9 0.750000 0.095255 0.000000
#
# Coordination Sequence:
#
# PCOD9563270 Si02
#       4
#    16  16   4  16
#     4  12  25  46  70 104 139 175 226 289 357 405
#     4  12  25  44  70 101 140 184 228 278 342 410
#     4  12  24  46  76 106 136 170 232 294 352 410
#     4  12  26  45  69  99 136 184 231 286 343 413
#
# _framework density 21.840312999999998
#
# number of rings (size 3 to 8) (size 9 to 14) (size 15 to 20)
#    0.000    0.000    4.615    6.462    0.000    4.615 
#    0.000    0.000    0.000    3.692    0.000    0.000 
#    0.000    0.000    0.000    0.000    0.000    0.000 
#
# Total GULP energy -290054.158590 kJ/mol
# GULP energy per Si atom -5577.964588 kJ/mol
# Density = 2.179060 g / cm^3
# Si number density = 21.840313 Si / 1000 Ang^3
#
#
#
# Elastic Constant Matrix: (Units=GPa)
#
#
# Indices 1 2 3 4 5 6 
#
# 1 138.4903 42.9955 18.5505 0.0000 0.0000 0.0000
# 2 42.9955 138.4903 18.5505 0.0000 0.0000 0.0000
# 3 18.5505 18.5505 78.2063 0.0000 0.0000 0.0000
# 4 0.0000 0.0000 0.0000 8.4489 0.0000 0.0000
# 5 0.0000 0.0000 0.0000 0.0000 8.4489 0.0000
# 6 0.0000 0.0000 0.0000 0.0000 0.0000 30.0371
#
#
#
# Elastic Compliance Matrix: (Units=1/GPa)
#
#
# Indices 1 2 3 4 5 6 
#
# 1 0.008131 -0.002340 -0.001374 0.000000 0.000000 0.000000
# 2 -0.002340 0.008131 -0.001374 0.000000 0.000000 0.000000
# 3 -0.001374 -0.001374 0.013438 0.000000 0.000000 0.000000
# 4 0.000000 0.000000 0.000000 0.118358 0.000000 0.000000
# 5 0.000000 0.000000 0.000000 0.000000 0.118358 0.000000
# 6 0.000000 0.000000 0.000000 0.000000 0.000000 0.033292
#
#
# Mechanical properties :
#
#
# Convention : Reuss Voigt Hill
#
# Bulk Modulus (GPa) = 51.21455 57.26444 54.23950
# Shear Modulus (GPa) = 15.80314 27.72635 21.76474
#
# Velocity S-wave (km/s) = 2.69286 3.56687 3.16023
# Velocity P-wave (km/s) = 5.75926 6.57571 6.18098
#
# Compressibility (1/GPa) = 0.01952570
#
# Stress axis : x y z
#
# Youngs Moduli (GPa) = 122.98113 122.98113 74.41398
#
# Poissons Ratio (x) = 0.28783 0.10221
# Poissons Ratio (y) = 0.28783 0.10221
# Poissons Ratio (z) = 0.16893 0.16893
#
# Static dielectric constant tensor:
#      x y z
#    x 1.789970 0.000000 0.000000 
#    y 0.000000 1.789970 0.000000 
#    z 0.000000 0.000000 1.840840 
# 
# From -- ./inp_files/753.got.cif
#   From: 2010.05.17/outbox.cif.g08.bks.cpg/sg125_1_cif.got.tgz:753.got - 2010.05.20 11:54:10.
