data_PCOD9563220
_publ_section_title
;
Structure prediction by ZEFSAII (Michael W. Deem and Ramdas Pophale) SiO2 
 PCOD9563220
Probable space group: P 4/N B M
;
_chemical_formula_sum "Si O2"
_cell_formula_units_Z 72
_cell_length_a 11.532124
_cell_length_b 11.532124
_cell_length_c 27.930438
_cell_angle_alpha 90.000000
_cell_angle_beta 90.000000
_cell_angle_gamma 90.000000
_cell_volume 3714.465708
_symmetry_space_group_name_H-M "P 4/N B M"
_symmetry_group_IT_number 125
_space_group.IT_coordinate_system_code '2'
_symmetry_cell_setting 'tetragonal'
loop_
_space_group_symop_operation_xyz
x,y,z
1/2-y,x,z
1/2-x,1/2-y,z
y,1/2-x,z
x,1/2-y,-z
1/2-x,y,-z
y,x,-z
1/2-y,1/2-x,-z
-x,-y,-z
1/2+y,-x,-z
1/2+x,1/2+y,-z
-y,1/2+x,-z
-x,1/2+y,z
1/2+x,-y,z
-y,-x,z
1/2+y,1/2+x,z
loop_
_atom_site_type_symbol
_atom_site_label
_atom_site_fract_x
_atom_site_fract_y
_atom_site_fract_z
Si Si1 0.652006 0.152006 0.223866
Si Si2 0.743180 0.947098 0.051183
Si Si3 0.750000 0.439987 0.500000
Si Si4 0.554419 0.772140 0.843586
Si Si5 0.151918 0.848083 0.333866
Si Si6 0.218023 0.060631 0.399968
O O1 0.750000 0.250000 0.223938
O O2 0.541047 0.202430 0.195956
O O3 0.623224 0.123224 0.278915
O O4 0.635181 0.857062 0.050975
O O5 0.732491 0.003570 0.103248
O O6 0.750000 0.011440 0.000000
O O7 0.856002 0.356002 0.514413
O O8 0.713264 0.513902 0.545750
O O9 0.626552 0.652003 0.840004
O O10 0.250000 0.750000 0.334357
O O11 0.042036 0.801587 0.362983
O O12 0.341834 0.120913 0.393203
#
# Coordination Sequence:
#
# PCOD9563220 Si02
#       6
#     8  16   8  16   8  16
#     4  11  26  42  62  87 121 163 205 260 315 368
#     4   7  10  21  48  83 113 145 190 242 296 363
#     4  11  22  37  66 102 136 175 207 244 302 372
#     4   9  19  37  63  90 117 156 207 256 307 372
#     4  11  26  46  65  88 123 167 210 256 321 373
#     4  11  25  43  67  99 130 164 210 261 308 366
#
# _framework density 19.383675
#
# number of rings (size 3 to 8) (size 9 to 14) (size 15 to 20)
#    0.000    2.333    1.111    3.333    4.667    3.556 
#    0.000    2.222    2.444    2.667    0.000    0.000 
#    0.000    0.000    0.000    0.000    0.000    0.000 
#
# Total GULP energy -401661.853347 kJ/mol
# GULP energy per Si atom -5578.636852 kJ/mol
# Density = 1.933956 g / cm^3
# Si number density = 19.383675 Si / 1000 Ang^3
#
#
#
# Elastic Constant Matrix: (Units=GPa)
#
#
# Indices 1 2 3 4 5 6 
#
# 1 -57.2753 174.0261 64.3909 0.0000 0.0000 0.0000
# 2 174.0261 -57.2753 64.3909 0.0000 0.0000 0.0000
# 3 64.3909 64.3909 208.7080 0.0000 0.0000 0.0000
# 4 0.0000 0.0000 0.0000 -8.8315 0.0000 0.0000
# 5 0.0000 0.0000 0.0000 0.0000 -8.8315 0.0000
# 6 0.0000 0.0000 0.0000 0.0000 0.0000 -4.8355
#
#
#
# Elastic Compliance Matrix: (Units=1/GPa)
#
#
# Indices 1 2 3 4 5 6 
#
# 1 0.004330 0.008654 -0.004006 0.000000 0.000000 0.000000
# 2 0.008654 0.004330 -0.004006 0.000000 0.000000 0.000000
# 3 -0.004006 -0.004006 0.007263 0.000000 0.000000 0.000000
# 4 0.000000 0.000000 0.000000 -0.113232 0.000000 0.000000
# 5 0.000000 0.000000 0.000000 0.000000 -0.113232 0.000000
# 6 0.000000 0.000000 0.000000 0.000000 0.000000 -0.206806
#
#
# Mechanical properties :
#
#
# Convention : Reuss Voigt Hill
#
# Bulk Modulus (GPa) = 58.11380 77.75258 67.93319
# Shear Modulus (GPa) = -12.10966 -18.40971 -15.25969
#
# Velocity S-wave (km/s) = -2.50218 -3.08515 -2.80883
# Velocity P-wave (km/s) = 4.65811 5.24487 4.96017
#
# Compressibility (1/GPa) = 0.01720762
#
# Stress axis : x y z
#
# Youngs Moduli (GPa) = 230.93480 230.93480 137.68177
#
# Poissons Ratio (x) = -1.99842 0.55152
# Poissons Ratio (y) = -1.99842 0.55152
# Poissons Ratio (z) = 0.92508 0.92508
#
# Static dielectric constant tensor:
#      x y z
#    x 1.671290 0.000000 0.000000 
#    y 0.000000 1.671290 0.000000 
#    z 0.000000 0.000000 1.693040 
# 
# From -- ./inp_files/6372.got.cif
#   From: 2010.05.17/outbox.cif.g08.bks.cpg/sg125_4_cif.got.tgz:6372.got - 2010.05.20 11:54:10.
