data_PCOD9563317
_publ_section_title
;
Structure prediction by ZEFSAII (Michael W. Deem and Ramdas Pophale) SiO2 
 PCOD9563317
Probable space group: P 4/N N C
;
_chemical_formula_sum "Si O2"
_cell_formula_units_Z 88
_cell_length_a 29.006423
_cell_length_b 29.006423
_cell_length_c 5.047615
_cell_angle_alpha 90.000000
_cell_angle_beta 90.000000
_cell_angle_gamma 90.000000
_cell_volume 4246.924831
_symmetry_space_group_name_H-M "P 4/N N C"
_symmetry_group_IT_number 126
_space_group.IT_coordinate_system_code '2'
_symmetry_cell_setting 'tetragonal'
loop_
_space_group_symop_operation_xyz
x,y,z
1/2-y,x,z
1/2-x,1/2-y,z
y,1/2-x,z
x,1/2-y,1/2-z
1/2-x,y,1/2-z
y,x,1/2-z
1/2-y,1/2-x,1/2-z
-x,-y,-z
1/2+y,-x,-z
1/2+x,1/2+y,-z
-y,1/2+x,-z
-x,1/2+y,1/2+z
1/2+x,-y,1/2+z
-y,-x,1/2+z
1/2+y,1/2+x,1/2+z
loop_
_atom_site_type_symbol
_atom_site_label
_atom_site_fract_x
_atom_site_fract_y
_atom_site_fract_z
Si Si1 0.097611 0.863992 0.825181
Si Si2 0.055444 0.978949 0.412958
Si Si3 0.456850 0.250000 0.250000
Si Si4 0.529139 0.628728 0.263745
Si Si5 0.706478 0.036116 0.107857
Si Si6 0.583662 0.844846 0.743793
O O1 0.135288 0.878961 0.041648
O O2 0.060060 0.905147 0.855147
O O3 0.070333 0.818278 0.905215
O O4 0.039774 0.984982 0.108924
O O5 0.083563 0.013184 0.603709
O O6 0.492025 0.229508 0.465127
O O7 0.425499 0.207190 0.163762
O O8 0.485855 0.664491 0.281626
O O9 0.552222 0.625183 0.551251
O O10 0.565559 0.650001 0.055684
O O11 0.750000 0.058789 0.250000
O O12 0.634441 0.865560 0.750000
#
# Coordination Sequence:
#
# PCOD9563317 Si02
#       6
#    16  16   8  16  16  16
#     4   9  19  30  45  72 110 147 176 214 275 325
#     4   9  16  28  48  71  98 139 184 221 256 305
#     4  10  22  36  58  87 110 142 193 228 286 330
#     4  10  20  34  53  78 107 141 181 222 275 326
#     4  10  19  32  55  80 115 142 183 233 271 325
#     4  11  22  37  56  78 109 139 174 229 282 337
#
# _framework density 20.720873999999998
#
# number of rings (size 3 to 8) (size 9 to 14) (size 15 to 20)
#    0.000    2.182    1.818    1.636    2.545    4.364 
#    0.000    0.000    0.000   11.182    0.000    0.000 
#    0.000    5.455    0.000    0.000    0.000    0.545 
#
# Total GULP energy -491141.864906 kJ/mol
# GULP energy per Si atom -5581.157556 kJ/mol
# Density = 2.067371 g / cm^3
# Si number density = 20.720874 Si / 1000 Ang^3
#
#
#
# Elastic Constant Matrix: (Units=GPa)
#
#
# Indices 1 2 3 4 5 6 
#
# 1 70.4423 35.6748 11.7386 0.0000 0.0000 0.0000
# 2 35.6748 70.4452 11.7386 0.0000 0.0000 0.0000
# 3 11.7386 11.7386 85.3020 0.0000 0.0000 0.0000
# 4 0.0000 0.0000 0.0000 19.3345 0.0000 0.0000
# 5 0.0000 0.0000 0.0000 0.0000 19.3342 0.0000
# 6 0.0000 0.0000 0.0000 0.0000 0.0000 22.0139
#
#
#
# Elastic Compliance Matrix: (Units=1/GPa)
#
#
# Indices 1 2 3 4 5 6 
#
# 1 0.019241 -0.009521 -0.001338 0.000000 0.000000 0.000000
# 2 -0.009521 0.019240 -0.001337 0.000000 0.000000 0.000000
# 3 -0.001338 -0.001337 0.012091 0.000000 0.000000 0.000000
# 4 0.000000 0.000000 0.000000 0.051721 0.000000 0.000000
# 5 0.000000 0.000000 0.000000 0.000000 0.051722 0.000000
# 6 0.000000 0.000000 0.000000 0.000000 0.000000 0.045426
#
#
# Mechanical properties :
#
#
# Convention : Reuss Voigt Hill
#
# Bulk Modulus (GPa) = 38.19735 38.27705 38.23720
# Shear Modulus (GPa) = 21.49991 23.27235 22.38613
#
# Velocity S-wave (km/s) = 3.22467 3.35496 3.29046
# Velocity P-wave (km/s) = 5.68673 5.78969 5.73844
#
# Compressibility (1/GPa) = 0.02617983
#
# Stress axis : x y z
#
# Youngs Moduli (GPa) = 51.97312 51.97529 82.70499
#
# Poissons Ratio (x) = 0.49486 0.11062
# Poissons Ratio (y) = 0.49484 0.11061
# Poissons Ratio (z) = 0.06952 0.06951
#
# Static dielectric constant tensor:
#      x y z
#    x 1.829620 0.000000 0.000000 
#    y 0.000000 1.829610 0.000000 
#    z 0.000000 0.000000 1.821440 
# 
# From -- ./inp_files/657.got.cif
#   From: 2010.05.17/outbox.cif.g08.bks.cpg/sg126_1_cif.got.tgz:657.got - 2010.05.20 11:58:20.
