data_PCOD9563782
_publ_section_title
;
Structure prediction by ZEFSAII (Michael W. Deem and Ramdas Pophale) SiO2 
 PCOD9563782
Probable space group: P 4/M B M
;
_chemical_formula_sum "Si O2"
_cell_formula_units_Z 104
_cell_length_a 21.142111
_cell_length_b 21.142111
_cell_length_c 13.670191
_cell_angle_alpha 90.000000
_cell_angle_beta 90.000000
_cell_angle_gamma 90.000000
_cell_volume 6110.423057
_symmetry_space_group_name_H-M "P 4/M B M"
_symmetry_group_IT_number 127
_symmetry_cell_setting 'tetragonal'
loop_
_space_group_symop_operation_xyz
x,y,z
-y,x,z
-x,-y,z
y,-x,z
1/2+x,1/2-y,-z
1/2-x,1/2+y,-z
1/2+y,1/2+x,-z
1/2-y,1/2-x,-z
-x,-y,-z
y,-x,-z
x,y,-z
-y,x,-z
1/2-x,1/2+y,z
1/2+x,1/2-y,z
1/2-y,1/2-x,z
1/2+y,1/2+x,z
loop_
_atom_site_type_symbol
_atom_site_label
_atom_site_fract_x
_atom_site_fract_y
_atom_site_fract_z
Si Si1 0.719102 0.884173 0.265911
Si Si2 0.810120 0.587654 0.271196
Si Si3 0.485269 0.194177 0.116266
Si Si4 0.549845 0.950156 0.117441
Si Si5 0.165364 0.092967 0.616167
Si Si6 0.874364 0.475376 0.383166
Si Si7 0.445728 0.684330 0.616078
O O1 0.675657 0.824344 0.239770
O O2 0.731330 0.930083 0.173357
O O3 0.783633 0.868698 0.320798
O O4 0.678673 0.926725 0.342907
O O5 0.845652 0.654349 0.262109
O O6 0.797193 0.552891 0.167640
O O7 0.857355 0.540540 0.330623
O O8 0.744184 0.584274 0.328940
O O9 0.466815 0.121415 0.140610
O O10 0.485751 0.203347 0.000000
O O11 0.500000 0.000000 0.158157
O O12 0.546129 0.953872 0.000000
O O13 0.178412 0.098864 0.500000
O O14 0.096491 0.122280 0.633715
O O15 0.173273 0.019056 0.642700
O O16 0.869752 0.482112 0.500000
O O17 0.941405 0.441405 0.360980
O O18 0.444315 0.697699 0.500000
#
# Coordination Sequence:
#
# PCOD9563782 Si02
#       7
#    16  16  16   8  16  16  16
#     4  10  18  30  51  77 104 138 178 216 255 308
#     4  11  22  33  49  75 109 145 180 218 259 311
#     4  10  19  32  50  73 102 142 185 226 268 305
#     4   9  16  26  42  68 101 135 177 223 262 300
#     4  10  20  36  58  82 110 138 170 215 266 323
#     4   9  17  29  45  66  97 138 178 212 249 297
#     4  10  21  37  57  82 109 138 172 214 267 323
#
# _framework density 17.020098000000001
#
# number of rings (size 3 to 8) (size 9 to 14) (size 15 to 20)
#    0.000    2.077    3.846    1.385    1.077    4.308 
#    0.000    3.846    0.000    0.923    0.000    2.154 
#    0.000    1.231    0.000    0.000    0.000    0.000 
#
# Total GULP energy -579891.796000 kJ/mol
# GULP energy per Si atom -5575.882654 kJ/mol
# Density = 1.698136 g / cm^3
# Si number density = 17.020098 Si / 1000 Ang^3
#
#
#
# Elastic Constant Matrix: (Units=GPa)
#
#
# Indices 1 2 3 4 5 6 
#
# 1 49.2385 40.9179 25.9036 0.0000 0.0000 0.0000
# 2 40.9179 49.2384 25.9037 0.0000 0.0000 0.0000
# 3 25.9036 25.9037 84.3555 0.0000 0.0000 0.0000
# 4 0.0000 0.0000 0.0000 18.0584 0.0000 0.0000
# 5 0.0000 0.0000 0.0000 0.0000 18.0585 0.0000
# 6 0.0000 0.0000 0.0000 0.0000 0.0000 14.3818
#
#
#
# Elastic Compliance Matrix: (Units=1/GPa)
#
#
# Indices 1 2 3 4 5 6 
#
# 1 0.066826 -0.053358 -0.004136 0.000000 0.000000 0.000000
# 2 -0.053358 0.066826 -0.004136 0.000000 0.000000 0.000000
# 3 -0.004136 -0.004136 0.014395 0.000000 0.000000 0.000000
# 4 0.000000 0.000000 0.000000 0.055376 0.000000 0.000000
# 5 0.000000 0.000000 0.000000 0.000000 0.055376 0.000000
# 6 0.000000 0.000000 0.000000 0.000000 0.000000 0.069532
#
#
# Mechanical properties :
#
#
# Convention : Reuss Voigt Hill
#
# Bulk Modulus (GPa) = 40.34188 40.92032 40.63110
# Shear Modulus (GPa) = 10.87306 16.10689 13.48997
#
# Velocity S-wave (km/s) = 2.53026 3.07961 2.81835
# Velocity P-wave (km/s) = 5.68245 6.06134 5.87495
#
# Compressibility (1/GPa) = 0.02478814
#
# Stress axis : x y z
#
# Youngs Moduli (GPa) = 14.96422 14.96417 69.47033
#
# Poissons Ratio (x) = 0.79845 0.28731
# Poissons Ratio (y) = 0.79846 0.28732
# Poissons Ratio (z) = 0.06189 0.06189
#
# Static dielectric constant tensor:
#      x y z
#    x 1.588930 0.000000 0.000000 
#    y 0.000000 1.588930 0.000000 
#    z 0.000000 0.000000 1.580320 
# 
# From -- ./inp_files/4606.got.cif
#   From: 2010.05.17/outbox.cif.g08.bks.cpg/sg127_3_cif.got.tgz:4606.got - 2010.05.20 12:03:00.
