data_PCOD9563853
_publ_section_title
;
Structure prediction by ZEFSAII (Michael W. Deem and Ramdas Pophale) SiO2 
 PCOD9563853
Probable space group: P 4/M B M
;
_chemical_formula_sum "Si O2"
_cell_formula_units_Z 96
_cell_length_a 24.572980
_cell_length_b 24.572980
_cell_length_c 7.456846
_cell_angle_alpha 90.000000
_cell_angle_beta 90.000000
_cell_angle_gamma 90.000000
_cell_volume 4502.677358
_symmetry_space_group_name_H-M "P 4/M B M"
_symmetry_group_IT_number 127
_symmetry_cell_setting 'tetragonal'
loop_
_space_group_symop_operation_xyz
x,y,z
-y,x,z
-x,-y,z
y,-x,z
1/2+x,1/2-y,-z
1/2-x,1/2+y,-z
1/2+y,1/2+x,-z
1/2-y,1/2-x,-z
-x,-y,-z
y,-x,-z
x,y,-z
-y,x,-z
1/2-x,1/2+y,z
1/2+x,1/2-y,z
1/2-y,1/2-x,z
1/2+y,1/2+x,z
loop_
_atom_site_type_symbol
_atom_site_label
_atom_site_fract_x
_atom_site_fract_y
_atom_site_fract_z
Si Si1 0.850436 0.857814 0.700827
Si Si2 0.782733 0.054342 0.291318
Si Si3 0.342549 0.929814 0.782227
Si Si4 0.549862 0.863618 0.214182
Si Si5 0.933181 0.237497 0.283958
Si Si6 0.049046 0.926777 0.216066
O O1 0.839108 0.836302 0.500000
O O2 0.895990 0.818477 0.787022
O O3 0.794201 0.879563 0.784381
O O4 0.881699 0.915270 0.693184
O O5 0.799396 0.050263 0.500000
O O6 0.719654 0.071253 0.280438
O O7 0.784563 0.992415 0.216181
O O8 0.379572 0.879572 0.724159
O O9 0.367345 0.987609 0.721216
O O10 0.341184 0.929895 0.000000
O O11 0.592017 0.907983 0.286333
O O12 0.568263 0.801636 0.247002
O O13 0.547608 0.870728 0.000000
O O14 0.933618 0.231338 0.500000
O O15 0.985892 0.927227 0.263975
O O16 0.052522 0.921306 0.000000
#
# Coordination Sequence:
#
# PCOD9563853 Si02
#       6
#    16  16  16  16  16  16
#     4  10  19  31  48  69  92 124 168 209 242 279
#     4   9  18  32  49  70  97 128 162 201 243 285
#     4   9  18  33  53  76 100 125 154 190 235 288
#     4   9  18  33  53  76 100 125 154 190 235 288
#     4   9  18  32  49  70  97 128 162 201 243 285
#     4   9  18  30  42  61  91 123 156 200 253 300
#
# _framework density 21.320647999999998
#
# number of rings (size 3 to 8) (size 9 to 14) (size 15 to 20)
#    0.000    2.833    0.000    1.500    0.000    4.333 
#    0.000    6.667    0.000    5.000    0.000    4.667 
#    0.000    0.000    0.000    0.000    0.000    0.000 
#
# Total GULP energy -535328.927290 kJ/mol
# GULP energy per Si atom -5576.342993 kJ/mol
# Density = 2.127212 g / cm^3
# Si number density = 21.320648 Si / 1000 Ang^3
#
#
#
# Elastic Constant Matrix: (Units=GPa)
#
#
# Indices 1 2 3 4 5 6 
#
# 1 67.6600 57.3808 -2.6560 0.0000 0.0000 0.0000
# 2 57.3808 67.6600 -2.6560 0.0000 0.0000 0.0000
# 3 -2.6560 -2.6560 64.8401 0.0000 0.0000 0.0000
# 4 0.0000 0.0000 0.0000 18.8186 0.0000 0.0000
# 5 0.0000 0.0000 0.0000 0.0000 18.8186 0.0000
# 6 0.0000 0.0000 0.0000 0.0000 0.0000 47.1734
#
#
#
# Elastic Compliance Matrix: (Units=1/GPa)
#
#
# Indices 1 2 3 4 5 6 
#
# 1 0.052648 -0.044636 0.000328 0.000000 0.000000 0.000000
# 2 -0.044636 0.052648 0.000328 0.000000 0.000000 0.000000
# 3 0.000328 0.000328 0.015449 0.000000 0.000000 0.000000
# 4 0.000000 0.000000 0.000000 0.053139 0.000000 0.000000
# 5 0.000000 0.000000 0.000000 0.000000 0.053139 0.000000
# 6 0.000000 0.000000 0.000000 0.000000 0.000000 0.021198
#
#
# Mechanical properties :
#
#
# Convention : Reuss Voigt Hill
#
# Bulk Modulus (GPa) = 30.50197 33.81084 32.15641
# Shear Modulus (GPa) = 14.40468 26.83486 20.61977
#
# Velocity S-wave (km/s) = 2.60209 3.55157 3.11324
# Velocity P-wave (km/s) = 4.83376 5.71934 5.29510
#
# Compressibility (1/GPa) = 0.03278476
#
# Stress axis : x y z
#
# Youngs Moduli (GPa) = 18.99420 18.99420 64.72724
#
# Poissons Ratio (x) = 0.84783 -0.02124
# Poissons Ratio (y) = 0.84783 -0.02124
# Poissons Ratio (z) = -0.00623 -0.00623
#
# Static dielectric constant tensor:
#      x y z
#    x 1.773610 0.000000 0.000000 
#    y 0.000000 1.773610 0.000000 
#    z 0.000000 0.000000 1.823220 
# 
# From -- ./inp_files/1974.got.cif
#   From: 2010.05.17/outbox.cif.g08.bks.cpg/sg127_1_cif.got.tgz:1974.got - 2010.05.20 12:03:00.
