data_PCOD9563035
_publ_section_title
;
Structure prediction by ZEFSAII (Michael W. Deem and Ramdas Pophale) SiO2 
 PCOD9563035
Probable space group: P 4/N B M
;
_chemical_formula_sum "Si O2"
_cell_formula_units_Z 128
_cell_length_a 23.168982
_cell_length_b 23.168982
_cell_length_c 12.573418
_cell_angle_alpha 90.000000
_cell_angle_beta 90.000000
_cell_angle_gamma 90.000000
_cell_volume 6749.432496
_symmetry_space_group_name_H-M "P 4/N B M"
_symmetry_group_IT_number 125
_space_group.IT_coordinate_system_code '2'
_symmetry_cell_setting 'tetragonal'
loop_
_space_group_symop_operation_xyz
x,y,z
1/2-y,x,z
1/2-x,1/2-y,z
y,1/2-x,z
x,1/2-y,-z
1/2-x,y,-z
y,x,-z
1/2-y,1/2-x,-z
-x,-y,-z
1/2+y,-x,-z
1/2+x,1/2+y,-z
-y,1/2+x,-z
-x,1/2+y,z
1/2+x,-y,z
-y,-x,z
1/2+y,1/2+x,z
loop_
_atom_site_type_symbol
_atom_site_label
_atom_site_fract_x
_atom_site_fract_y
_atom_site_fract_z
Si Si1 0.816204 0.679395 0.375929
Si Si2 0.518970 0.572115 0.605151
Si Si3 0.305520 0.901811 0.297432
Si Si4 0.983436 0.312733 0.508119
Si Si5 0.603989 0.896127 0.223716
Si Si6 0.006796 0.187717 0.136633
Si Si7 0.921247 0.173139 0.710159
Si Si8 0.490732 0.323555 0.890140
O O1 0.828683 0.747500 0.358221
O O2 0.830754 0.669247 0.500000
O O3 0.851879 0.637550 0.300323
O O4 0.541741 0.541741 0.500000
O O5 0.456209 0.543792 0.628393
O O6 0.518035 0.638885 0.570765
O O7 0.562182 0.564818 0.702606
O O8 0.346657 0.846657 0.285485
O O9 0.307743 0.926501 0.417876
O O10 0.237253 0.894720 0.277466
O O11 0.323931 0.953288 0.216349
O O12 0.012382 0.250000 0.500000
O O13 0.965406 0.328369 0.389129
O O14 0.561665 0.849587 0.170726
O O15 0.638542 0.935460 0.140927
O O16 0.019926 0.256221 0.139979
O O17 0.993721 0.173483 0.013990
O O18 0.871870 0.128131 0.687565
O O19 0.956347 0.158112 0.815819
#
# Coordination Sequence:
#
# PCOD9563035 Si02
#       8
#    16  16  16  16  16  16  16  16
#     4   9  19  36  54  80 120 156 187 234 290 343
#     4  11  23  37  53  81 120 154 187 235 288 338
#     4  10  20  37  61  86 114 150 189 234 289 348
#     4  10  20  37  59  84 115 155 194 233 284 350
#     4  12  21  35  59  86 107 149 200 243 283 347
#     4  10  22  40  59  81 112 154 193 248 292 341
#     4  10  21  37  59  86 117 151 186 233 289 348
#     4  10  23  40  57  81 116 150 196 242 296 342
#
# _framework density 18.964556999999999
#
# number of rings (size 3 to 8) (size 9 to 14) (size 15 to 20)
#    0.000    1.750    1.250    3.750    0.000    2.250 
#    4.500    0.000    0.000    4.500    0.000    8.750 
#    0.000    0.000    0.000    0.000    0.000    0.000 
#
# Total GULP energy -714715.474800 kJ/mol
# GULP energy per Si atom -5583.714647 kJ/mol
# Density = 1.892139 g / cm^3
# Si number density = 18.964557 Si / 1000 Ang^3
#
#
#
# Elastic Constant Matrix: (Units=GPa)
#
#
# Indices 1 2 3 4 5 6 
#
# 1 23.7088 5.0817 7.3747 0.0000 0.0000 0.0000
# 2 5.0817 23.7085 7.3747 0.0000 0.0000 0.0000
# 3 7.3747 7.3747 84.3290 0.0000 0.0000 0.0000
# 4 0.0000 0.0000 0.0000 24.4719 0.0000 0.0000
# 5 0.0000 0.0000 0.0000 0.0000 24.4719 0.0000
# 6 0.0000 0.0000 0.0000 0.0000 0.0000 15.1569
#
#
#
# Elastic Compliance Matrix: (Units=1/GPa)
#
#
# Indices 1 2 3 4 5 6 
#
# 1 0.045024 -0.008661 -0.003180 0.000000 0.000000 0.000000
# 2 -0.008661 0.045025 -0.003180 0.000000 0.000000 0.000000
# 3 -0.003180 -0.003180 0.012415 0.000000 0.000000 0.000000
# 4 0.000000 0.000000 0.000000 0.040863 0.000000 0.000000
# 5 0.000000 0.000000 0.000000 0.000000 0.040863 0.000000
# 6 0.000000 0.000000 0.000000 0.000000 0.000000 0.065977
#
#
# Mechanical properties :
#
#
# Convention : Reuss Voigt Hill
#
# Bulk Modulus (GPa) = 13.80824 19.04538 16.42681
# Shear Modulus (GPa) = 16.42850 20.28113 18.35482
#
# Velocity S-wave (km/s) = 2.94645 3.27375 3.11440
# Velocity P-wave (km/s) = 4.34422 4.93501 4.64901
#
# Compressibility (1/GPa) = 0.07242053
#
# Stress axis : x y z
#
# Youngs Moduli (GPa) = 22.21033 22.21011 80.55085
#
# Poissons Ratio (x) = 0.19237 0.25615
# Poissons Ratio (y) = 0.19237 0.25615
# Poissons Ratio (z) = 0.07063 0.07063
#
# Static dielectric constant tensor:
#      x y z
#    x 1.665500 0.000000 0.000000 
#    y 0.000000 1.665500 0.000000 
#    z 0.000000 0.000000 1.637530 
# 
# From -- ./inp_files/4384.got.cif
#   From: 2010.05.17/outbox.cif.g08.bks.cpg/sg125_3_cif.got.tgz:4384.got - 2010.05.20 11:54:10.
