data_PCOD9563290
_publ_section_title
;
Structure prediction by ZEFSAII (Michael W. Deem and Ramdas Pophale) SiO2 
 PCOD9563290
Probable space group: P 4/N N C
;
_chemical_formula_sum "Si O2"
_cell_formula_units_Z 64
_cell_length_a 13.124020
_cell_length_b 13.124020
_cell_length_c 18.885514
_cell_angle_alpha 90.000000
_cell_angle_beta 90.000000
_cell_angle_gamma 90.000000
_cell_volume 3252.839061
_symmetry_space_group_name_H-M "P 4/N N C"
_symmetry_group_IT_number 126
_space_group.IT_coordinate_system_code '2'
_symmetry_cell_setting 'tetragonal'
loop_
_space_group_symop_operation_xyz
x,y,z
1/2-y,x,z
1/2-x,1/2-y,z
y,1/2-x,z
x,1/2-y,1/2-z
1/2-x,y,1/2-z
y,x,1/2-z
1/2-y,1/2-x,1/2-z
-x,-y,-z
1/2+y,-x,-z
1/2+x,1/2+y,-z
-y,1/2+x,-z
-x,1/2+y,1/2+z
1/2+x,-y,1/2+z
-y,-x,1/2+z
1/2+y,1/2+x,1/2+z
loop_
_atom_site_type_symbol
_atom_site_label
_atom_site_fract_x
_atom_site_fract_y
_atom_site_fract_z
Si Si1 0.489485 0.638351 0.530854
Si Si2 0.296430 0.982947 0.672862
Si Si3 0.897012 0.551714 0.091539
Si Si4 0.691106 0.358726 0.585251
O O1 0.587824 0.619191 0.480461
O O2 0.476287 0.540068 0.580147
O O3 0.457548 0.737367 0.575644
O O4 0.393510 0.634298 0.476379
O O5 0.250000 0.986309 0.750000
O O6 0.209038 0.000934 0.612959
O O7 0.377448 0.070477 0.656336
O O8 0.349488 0.875126 0.656364
O O9 0.750000 0.250000 0.579933
#
# Coordination Sequence:
#
# PCOD9563290 Si02
#       4
#    16  16  16  16
#     4  10  17  32  56  86 111 138 186 250 308 327
#     4  11  23  37  53  78 118 162 197 221 278 358
#     4  10  21  34  54  79 113 160 187 231 281 345
#     4  11  17  32  59  84 110 135 183 250 294 328
#
# _framework density 19.67512
#
# number of rings (size 3 to 8) (size 9 to 14) (size 15 to 20)
#    0.000    1.500    5.000    2.250    0.000    1.000 
#    0.000    1.250    0.000    0.000    0.000    0.000 
#    0.000    0.000    0.000    0.000   12.500    0.000 
#
# Total GULP energy -356430.715920 kJ/mol
# GULP energy per Si atom -5569.229936 kJ/mol
# Density = 1.963034 g / cm^3
# Si number density = 19.675120 Si / 1000 Ang^3
#
#
#
# Elastic Constant Matrix: (Units=GPa)
#
#
# Indices 1 2 3 4 5 6 
#
# 1 58.7913 28.4408 32.6016 0.0000 0.0000 0.0000
# 2 28.4408 58.7913 32.6016 0.0000 0.0000 0.0000
# 3 32.6016 32.6016 78.5405 0.0000 0.0000 0.0000
# 4 0.0000 0.0000 0.0000 25.5894 0.0000 0.0000
# 5 0.0000 0.0000 0.0000 0.0000 25.5894 0.0000
# 6 0.0000 0.0000 0.0000 0.0000 0.0000 36.6341
#
#
#
# Elastic Compliance Matrix: (Units=1/GPa)
#
#
# Indices 1 2 3 4 5 6 
#
# 1 0.024784 -0.008164 -0.006899 0.000000 0.000000 0.000000
# 2 -0.008164 0.024784 -0.006899 0.000000 0.000000 0.000000
# 3 -0.006899 -0.006899 0.018460 0.000000 0.000000 0.000000
# 4 0.000000 0.000000 0.000000 0.039079 0.000000 0.000000
# 5 0.000000 0.000000 0.000000 0.000000 0.039079 0.000000
# 6 0.000000 0.000000 0.000000 0.000000 0.000000 0.027297
#
#
# Mechanical properties :
#
#
# Convention : Reuss Voigt Hill
#
# Bulk Modulus (GPa) = 41.48592 42.60123 42.04358
# Shear Modulus (GPa) = 22.17869 24.39454 23.28662
#
# Velocity S-wave (km/s) = 3.36109 3.52500 3.44402
# Velocity P-wave (km/s) = 6.01613 6.18602 6.10166
#
# Compressibility (1/GPa) = 0.02410456
#
# Stress axis : x y z
#
# Youngs Moduli (GPa) = 40.34796 40.34796 54.17196
#
# Poissons Ratio (x) = 0.32940 0.37373
# Poissons Ratio (y) = 0.32940 0.37373
# Poissons Ratio (z) = 0.27836 0.27836
#
# Static dielectric constant tensor:
#      x y z
#    x 1.758260 0.000000 0.000000 
#    y 0.000000 1.758260 0.000000 
#    z 0.000000 0.000000 1.729490 
# 
# From -- ./inp_files/4277.got.cif
#   From: 2010.05.17/outbox.cif.g08.bks.cpg/sg126_3_cif.got.tgz:4277.got - 2010.05.20 11:58:20.
