data_PCOD9563656
_publ_section_title
;
Structure prediction by ZEFSAII (Michael W. Deem and Ramdas Pophale) SiO2 
 PCOD9563656
Probable space group: P 4/N N C
;
_chemical_formula_sum "Si O2"
_cell_formula_units_Z 32
_cell_length_a 13.209876
_cell_length_b 13.209876
_cell_length_c 7.845044
_cell_angle_alpha 90.000000
_cell_angle_beta 90.000000
_cell_angle_gamma 90.000000
_cell_volume 1368.966642
_symmetry_space_group_name_H-M "P 4/N N C"
_symmetry_group_IT_number 126
_space_group.IT_coordinate_system_code '2'
_symmetry_cell_setting 'tetragonal'
loop_
_space_group_symop_operation_xyz
x,y,z
1/2-y,x,z
1/2-x,1/2-y,z
y,1/2-x,z
x,1/2-y,1/2-z
1/2-x,y,1/2-z
y,x,1/2-z
1/2-y,1/2-x,1/2-z
-x,-y,-z
1/2+y,-x,-z
1/2+x,1/2+y,-z
-y,1/2+x,-z
-x,1/2+y,1/2+z
1/2+x,-y,1/2+z
-y,-x,1/2+z
1/2+y,1/2+x,1/2+z
loop_
_atom_site_type_symbol
_atom_site_label
_atom_site_fract_x
_atom_site_fract_y
_atom_site_fract_z
Si Si1 0.671998 0.503367 0.407835
Si Si2 0.520713 0.632497 0.593324
O O1 0.750000 0.495885 0.250000
O O2 0.904637 0.592774 0.435798
O O3 0.748393 0.511545 0.567534
O O4 0.593073 0.410899 0.413898
O O5 0.577103 0.577103 0.750000
#
# Coordination Sequence:
#
# PCOD9563656 Si02
#       2
#    16  16
#     4  11  23  43  71 102 138 180 227 280 339 404
#     4  11  24  44  69 102 139 177 228 282 335 404
#
# _framework density 23.375295999999999
#
# number of rings (size 3 to 8) (size 9 to 14) (size 15 to 20)
#    0.000    1.000    0.000    9.000    0.000    2.000 
#    0.000   12.500    0.000    0.000    0.000    0.000 
#    0.000    0.000    0.000    0.000    0.000    0.000 
#
# Total GULP energy -178363.536589 kJ/mol
# GULP energy per Si atom -5573.860518 kJ/mol
# Density = 2.332209 g / cm^3
# Si number density = 23.375296 Si / 1000 Ang^3
#
#
#
# Elastic Constant Matrix: (Units=GPa)
#
#
# Indices 1 2 3 4 5 6 
#
# 1 206.4512 87.2780 49.2515 0.0000 0.0000 0.0000
# 2 87.2780 206.4512 49.2515 0.0000 0.0000 0.0000
# 3 49.2515 49.2515 150.1027 0.0000 0.0000 0.0000
# 4 0.0000 0.0000 0.0000 5.3870 0.0000 0.0000
# 5 0.0000 0.0000 0.0000 0.0000 5.3870 0.0000
# 6 0.0000 0.0000 0.0000 0.0000 0.0000 -4.6093
#
#
#
# Elastic Compliance Matrix: (Units=1/GPa)
#
#
# Indices 1 2 3 4 5 6 
#
# 1 0.006108 -0.002283 -0.001255 0.000000 0.000000 0.000000
# 2 -0.002283 0.006108 -0.001255 0.000000 0.000000 0.000000
# 3 -0.001255 -0.001255 0.007486 0.000000 0.000000 0.000000
# 4 0.000000 0.000000 0.000000 0.185634 0.000000 0.000000
# 5 0.000000 0.000000 0.000000 0.000000 0.185634 0.000000
# 6 0.000000 0.000000 0.000000 0.000000 0.000000 -0.216951
#
#
# Mechanical properties :
#
#
# Convention : Reuss Voigt Hill
#
# Bulk Modulus (GPa) = 98.85435 103.84077 101.34756
# Shear Modulus (GPa) = 26.74129 26.38120 26.56124
#
# Velocity S-wave (km/s) = 3.38597 3.36310 3.37456
# Velocity P-wave (km/s) = 7.59397 7.72012 7.65730
#
# Compressibility (1/GPa) = 0.01011589
#
# Stress axis : x y z
#
# Youngs Moduli (GPa) = 163.71198 163.71198 133.58611
#
# Poissons Ratio (x) = 0.37373 0.16768
# Poissons Ratio (y) = 0.37373 0.16768
# Poissons Ratio (z) = 0.20549 0.20549
#
# Static dielectric constant tensor:
#      x y z
#    x 1.811470 0.000000 0.000000 
#    y 0.000000 1.811470 0.000000 
#    z 0.000000 0.000000 2.292920 
# 
# From -- ./inp_files/797.got.cif
#   From: 2010.05.17/outbox.cif.g08.bks.cpg/sg126_1_cif.got.tgz:797.got - 2010.05.20 11:58:20.
