data_PCOD9563059
_publ_section_title
;
Structure prediction by ZEFSAII (Michael W. Deem and Ramdas Pophale) SiO2 
 PCOD9563059
Probable space group: P 4/N B M
;
_chemical_formula_sum "Si O2"
_cell_formula_units_Z 96
_cell_length_a 29.527158
_cell_length_b 29.527158
_cell_length_c 5.675358
_cell_angle_alpha 90.000000
_cell_angle_beta 90.000000
_cell_angle_gamma 90.000000
_cell_volume 4948.078236
_symmetry_space_group_name_H-M "P 4/N B M"
_symmetry_group_IT_number 125
_space_group.IT_coordinate_system_code '2'
_symmetry_cell_setting 'tetragonal'
loop_
_space_group_symop_operation_xyz
x,y,z
1/2-y,x,z
1/2-x,1/2-y,z
y,1/2-x,z
x,1/2-y,-z
1/2-x,y,-z
y,x,-z
1/2-y,1/2-x,-z
-x,-y,-z
1/2+y,-x,-z
1/2+x,1/2+y,-z
-y,1/2+x,-z
-x,1/2+y,z
1/2+x,-y,z
-y,-x,z
1/2+y,1/2+x,z
loop_
_atom_site_type_symbol
_atom_site_label
_atom_site_fract_x
_atom_site_fract_y
_atom_site_fract_z
Si Si1 0.820229 0.849271 0.253307
Si Si2 0.696060 0.303941 0.492245
Si Si3 0.300782 0.935683 0.105686
Si Si4 0.814545 0.523704 0.160038
Si Si5 0.601043 0.750000 0.000000
Si Si6 0.080948 0.399417 0.254860
Si Si7 0.250000 0.532314 0.500000
Si Si8 0.157568 0.657568 0.991222
O O1 0.823155 0.823155 0.500000
O O2 0.771482 0.872742 0.220094
O O3 0.866186 0.880859 0.256849
O O4 0.824188 0.824188 0.000000
O O5 0.687745 0.250000 0.500000
O O6 0.678885 0.321116 0.234246
O O7 0.675601 0.324400 0.737270
O O8 0.288380 0.936910 0.380115
O O9 0.330969 0.895301 0.014036
O O10 0.250000 0.930409 0.000000
O O11 0.320209 0.984785 0.035863
O O12 0.791000 0.568789 0.068091
O O13 0.860217 0.543175 0.265013
O O14 0.778070 0.500516 0.330708
O O15 0.074768 0.425233 0.500000
O O16 0.077012 0.422989 0.000000
#
# Coordination Sequence:
#
# PCOD9563059 Si02
#       8
#    16   8  16  16   8  16   8   8
#     4  10  22  35  52  83 119 152 208 243 312 378
#     4  11  24  42  66  94 124 173 231 270 304 362
#     4  10  23  40  59  94 128 168 216 265 326 392
#     4  11  22  36  59  90 126 160 204 266 333 389
#     4  12  20  38  58  89 124 170 197 278 330 392
#     4  10  21  36  52  85 123 153 201 252 315 379
#     4  10  22  34  60  88 129 162 215 258 332 394
#     4  12  26  41  68  90 136 176 215 273 326 374
#
# _framework density 19.40147
#
# number of rings (size 3 to 8) (size 9 to 14) (size 15 to 20)
#    0.000    1.417    5.833    1.500   12.833    1.333 
#    0.000    0.000    0.000    0.250    0.000    3.500 
#    0.000    0.000    0.000    0.000    0.000    0.000 
#
# Total GULP energy -534491.281760 kJ/mol
# GULP energy per Si atom -5567.617518 kJ/mol
# Density = 1.935731 g / cm^3
# Si number density = 19.401470 Si / 1000 Ang^3
#
#
#
# Elastic Constant Matrix: (Units=GPa)
#
#
# Indices 1 2 3 4 5 6 
#
# 1 40.9216 38.2258 20.3593 0.0000 0.0000 0.0000
# 2 38.2258 40.9169 20.3572 0.0000 0.0000 0.0000
# 3 20.3593 20.3572 137.2184 0.0000 0.0000 0.0000
# 4 0.0000 0.0000 0.0000 14.1065 0.0000 0.0000
# 5 0.0000 0.0000 0.0000 0.0000 14.1078 0.0000
# 6 0.0000 0.0000 0.0000 0.0000 0.0000 19.7662
#
#
#
# Elastic Compliance Matrix: (Units=1/GPa)
#
#
# Indices 1 2 3 4 5 6 
#
# 1 0.192469 -0.178800 -0.002031 0.000000 0.000000 0.000000
# 2 -0.178800 0.192489 -0.002028 0.000000 0.000000 0.000000
# 3 -0.002031 -0.002028 0.007890 0.000000 0.000000 0.000000
# 4 0.000000 0.000000 0.000000 0.070889 0.000000 0.000000
# 5 0.000000 0.000000 0.000000 0.000000 0.070883 0.000000
# 6 0.000000 0.000000 0.000000 0.000000 0.000000 0.050591
#
#
# Mechanical properties :
#
#
# Convention : Reuss Voigt Hill
#
# Bulk Modulus (GPa) = 36.85940 41.88241 39.37090
# Shear Modulus (GPa) = 5.20848 18.93705 12.07276
#
# Velocity S-wave (km/s) = 1.64025 3.12759 2.49722
# Velocity P-wave (km/s) = 4.75675 5.88868 5.35272
#
# Compressibility (1/GPa) = 0.02713012
#
# Stress axis : x y z
#
# Youngs Moduli (GPa) = 5.19565 5.19509 126.74501
#
# Poissons Ratio (x) = 0.92888 0.25740
# Poissons Ratio (y) = 0.92898 0.25705
# Poissons Ratio (z) = 0.01055 0.01054
#
# Static dielectric constant tensor:
#      x y z
#    x 1.666900 0.000000 0.000000 
#    y 0.000000 1.666910 0.000000 
#    z 0.000000 0.000000 1.847390 
# 
# From -- ./inp_files/1344.got.cif
#   From: 2010.05.17/outbox.cif.g08.bks.cpg/sg125_1_cif.got.tgz:1344.got - 2010.05.20 11:54:10.
