data_PCOD9563966
_publ_section_title
;
Structure prediction by ZEFSAII (Michael W. Deem and Ramdas Pophale) SiO2 
 PCOD9563966
Probable space group: P 4/M B M
;
_chemical_formula_sum "Si O2"
_cell_formula_units_Z 72
_cell_length_a 18.967060
_cell_length_b 18.967060
_cell_length_c 11.035209
_cell_angle_alpha 90.000000
_cell_angle_beta 90.000000
_cell_angle_gamma 90.000000
_cell_volume 3969.909431
_symmetry_space_group_name_H-M "P 4/M B M"
_symmetry_group_IT_number 127
_symmetry_cell_setting 'tetragonal'
loop_
_space_group_symop_operation_xyz
x,y,z
-y,x,z
-x,-y,z
y,-x,z
1/2+x,1/2-y,-z
1/2-x,1/2+y,-z
1/2+y,1/2+x,-z
1/2-y,1/2-x,-z
-x,-y,-z
y,-x,-z
x,y,-z
-y,x,-z
1/2-x,1/2+y,z
1/2+x,1/2-y,z
1/2-y,1/2-x,z
1/2+y,1/2+x,z
loop_
_atom_site_type_symbol
_atom_site_label
_atom_site_fract_x
_atom_site_fract_y
_atom_site_fract_z
Si Si1 0.114933 0.614933 0.361924
Si Si2 0.304727 0.195274 0.144432
Si Si3 0.690534 0.521636 0.253110
Si Si4 0.046340 0.337295 0.640890
Si Si5 0.343477 0.623652 0.139343
Si Si6 0.618104 0.490564 0.500000
O O1 0.137632 0.637632 0.500000
O O2 0.152882 0.652882 0.248693
O O3 0.130220 0.531877 0.353725
O O4 0.325251 0.276958 0.163193
O O5 0.320855 0.179146 0.000000
O O6 0.770096 0.547360 0.272042
O O7 0.681924 0.456244 0.162535
O O8 0.642954 0.588157 0.217369
O O9 0.665327 0.490251 0.381169
O O10 0.058512 0.315580 0.500000
O O11 0.104509 0.395492 0.671569
O O12 0.364070 0.632159 0.000000
O O13 0.572625 0.562352 0.500000
#
# Coordination Sequence:
#
# PCOD9563966 Si02
#       6
#     8   8  16  16  16   8
#     4  10  19  38  66  92 122 162 205 247 301 364
#     4  10  22  43  63  87 124 161 201 254 308 360
#     4  12  22  39  63  87 123 158 202 247 299 362
#     4  10  21  36  59  93 127 158 195 246 305 364
#     4  11  25  42  62  86 119 162 207 249 297 357
#     4  11  22  38  57  87 124 159 192 250 308 351
#
# _framework density 18.136434999999999
#
# number of rings (size 3 to 8) (size 9 to 14) (size 15 to 20)
#    0.000    1.222    5.556    1.000    1.556    1.778 
#    2.000    1.111    0.000    4.000    0.000    0.000 
#    0.000    0.000    0.000    0.000    0.000    0.000 
#
# Total GULP energy -401822.471353 kJ/mol
# GULP energy per Si atom -5580.867658 kJ/mol
# Density = 1.809516 g / cm^3
# Si number density = 18.136435 Si / 1000 Ang^3
#
#
#
# Elastic Constant Matrix: (Units=GPa)
#
#
# Indices 1 2 3 4 5 6 
#
# 1 47.3937 24.2824 10.5430 0.0000 0.0000 0.0000
# 2 24.2824 47.3940 10.5429 0.0000 0.0000 0.0000
# 3 10.5430 10.5429 40.3460 0.0000 0.0000 0.0000
# 4 0.0000 0.0000 0.0000 21.2195 0.0000 0.0000
# 5 0.0000 0.0000 0.0000 0.0000 21.2194 0.0000
# 6 0.0000 0.0000 0.0000 0.0000 0.0000 29.5288
#
#
#
# Elastic Compliance Matrix: (Units=1/GPa)
#
#
# Indices 1 2 3 4 5 6 
#
# 1 0.029191 -0.014078 -0.003949 0.000000 0.000000 0.000000
# 2 -0.014078 0.029191 -0.003949 0.000000 0.000000 0.000000
# 3 -0.003949 -0.003949 0.026850 0.000000 0.000000 0.000000
# 4 0.000000 0.000000 0.000000 0.047126 0.000000 0.000000
# 5 0.000000 0.000000 0.000000 0.000000 0.047127 0.000000
# 6 0.000000 0.000000 0.000000 0.000000 0.000000 0.033865
#
#
# Mechanical properties :
#
#
# Convention : Reuss Voigt Hill
#
# Bulk Modulus (GPa) = 24.22532 25.09671 24.66102
# Shear Modulus (GPa) = 18.44594 20.37790 19.41192
#
# Velocity S-wave (km/s) = 3.19261 3.35563 3.27513
# Velocity P-wave (km/s) = 5.19390 5.37415 5.28479
#
# Compressibility (1/GPa) = 0.04127913
#
# Stress axis : x y z
#
# Youngs Moduli (GPa) = 34.25701 34.25719 37.24449
#
# Poissons Ratio (x) = 0.48226 0.14709
# Poissons Ratio (y) = 0.48226 0.14709
# Poissons Ratio (z) = 0.13529 0.13529
#
# Static dielectric constant tensor:
#      x y z
#    x 1.597890 0.000000 0.000000 
#    y 0.000000 1.597890 0.000000 
#    z 0.000000 0.000000 1.615930 
# 
# From -- ./inp_files/1623.got.cif
#   From: 2010.05.17/outbox.cif.g08.bks.cpg/sg127_1_cif.got.tgz:1623.got - 2010.05.20 12:03:00.
