data_PCOD9563130
_publ_section_title
;
Structure prediction by ZEFSAII (Michael W. Deem and Ramdas Pophale) SiO2 
 PCOD9563130
Probable space group: P 4/N B M
;
_chemical_formula_sum "Si O2"
_cell_formula_units_Z 112
_cell_length_a 14.873377
_cell_length_b 14.873377
_cell_length_c 27.048051
_cell_angle_alpha 90.000000
_cell_angle_beta 90.000000
_cell_angle_gamma 90.000000
_cell_volume 5983.497986
_symmetry_space_group_name_H-M "P 4/N B M"
_symmetry_group_IT_number 125
_space_group.IT_coordinate_system_code '2'
_symmetry_cell_setting 'tetragonal'
loop_
_space_group_symop_operation_xyz
x,y,z
1/2-y,x,z
1/2-x,1/2-y,z
y,1/2-x,z
x,1/2-y,-z
1/2-x,y,-z
y,x,-z
1/2-y,1/2-x,-z
-x,-y,-z
1/2+y,-x,-z
1/2+x,1/2+y,-z
-y,1/2+x,-z
-x,1/2+y,z
1/2+x,-y,z
-y,-x,z
1/2+y,1/2+x,z
loop_
_atom_site_type_symbol
_atom_site_label
_atom_site_fract_x
_atom_site_fract_y
_atom_site_fract_z
Si Si1 0.745666 0.902477 0.946979
Si Si2 0.735682 0.597435 0.162047
Si Si3 0.855528 0.859139 0.322231
Si Si4 0.343157 0.505711 0.749108
Si Si5 0.243988 0.895333 0.339858
Si Si6 0.519338 0.262780 0.448365
Si Si7 0.562011 0.915344 0.575189
O O1 0.661739 0.833331 0.947173
O O2 0.738921 0.945900 0.892955
O O3 0.750000 0.952235 0.000000
O O4 0.827241 0.656114 0.166385
O O5 0.715068 0.524729 0.203968
O O6 0.747385 0.869712 0.324340
O O7 0.906394 0.902695 0.368336
O O8 0.884746 0.913933 0.273924
O O9 0.420035 0.579966 0.759509
O O10 0.280290 0.544407 0.704982
O O11 0.145760 0.854240 0.330563
O O12 0.314901 0.814901 0.340805
O O13 0.248351 0.934544 0.395261
O O14 0.571961 0.250000 0.500000
O O15 0.445118 0.183571 0.447701
O O16 0.476823 0.361162 0.448097
O O17 0.468020 0.968020 0.571373
#
# Coordination Sequence:
#
# PCOD9563130 Si02
#       7
#    16  16  16  16  16  16  16
#     4   7  10  19  39  70 105 136 170 213 260 312
#     4   9  17  30  50  78 109 141 178 222 273 324
#     4  11  21  37  61  84 106 137 176 220 276 335
#     4  11  21  35  53  77 109 143 181 224 270 322
#     4  10  22  41  61  78 101 137 182 228 270 318
#     4  12  26  42  62  87 112 139 172 215 273 339
#     4  12  24  42  63  86 114 142 174 217 270 331
#
# _framework density 18.718147999999999
#
# number of rings (size 3 to 8) (size 9 to 14) (size 15 to 20)
#    0.000    1.714    2.857    3.857    0.000    4.286 
#    0.000    5.714    0.000    0.000    0.000    9.000 
#    0.000    0.000    0.000    0.000    0.000    0.429 
#
# Total GULP energy -624131.392277 kJ/mol
# GULP energy per Si atom -5572.601717 kJ/mol
# Density = 1.867554 g / cm^3
# Si number density = 18.718148 Si / 1000 Ang^3
#
#
#
# Elastic Constant Matrix: (Units=GPa)
#
#
# Indices 1 2 3 4 5 6 
#
# 1 52.2351 13.7051 26.8084 0.0000 0.0000 0.0000
# 2 13.7051 52.2351 26.8084 0.0000 0.0000 0.0000
# 3 26.8084 26.8084 174.1083 0.0000 0.0000 0.0000
# 4 0.0000 0.0000 0.0000 0.7728 0.0000 0.0000
# 5 0.0000 0.0000 0.0000 0.0000 0.7728 0.0000
# 6 0.0000 0.0000 0.0000 0.0000 0.0000 10.0232
#
#
#
# Elastic Compliance Matrix: (Units=1/GPa)
#
#
# Indices 1 2 3 4 5 6 
#
# 1 0.021645 -0.004309 -0.002669 0.000000 0.000000 0.000000
# 2 -0.004309 0.021645 -0.002669 0.000000 0.000000 0.000000
# 3 -0.002669 -0.002669 0.006566 0.000000 0.000000 0.000000
# 4 0.000000 0.000000 0.000000 1.294007 0.000000 0.000000
# 5 0.000000 0.000000 0.000000 0.000000 1.294007 0.000000
# 6 0.000000 0.000000 0.000000 0.000000 0.000000 0.099768
#
#
# Mechanical properties :
#
#
# Convention : Reuss Voigt Hill
#
# Bulk Modulus (GPa) = 32.72270 45.91358 39.31814
# Shear Modulus (GPa) = 1.80693 16.39754 9.10224
#
# Velocity S-wave (km/s) = 0.98358 2.96298 2.20757
# Velocity P-wave (km/s) = 4.33701 6.02394 5.24869
#
# Compressibility (1/GPa) = 0.03055982
#
# Stress axis : x y z
#
# Youngs Moduli (GPa) = 46.20057 46.20057 152.31016
#
# Poissons Ratio (x) = 0.19908 0.40656
# Poissons Ratio (y) = 0.19908 0.40656
# Poissons Ratio (z) = 0.12332 0.12332
#
# Static dielectric constant tensor:
#      x y z
#    x 1.675930 0.000000 0.000000 
#    y 0.000000 1.675930 0.000000 
#    z 0.000000 0.000000 1.715640 
# 
# From -- ./inp_files/6431.got.cif
#   From: 2010.05.17/outbox.cif.g08.bks.cpg/sg125_4_cif.got.tgz:6431.got - 2010.05.20 11:54:10.
