data_PCOD9563304
_publ_section_title
;
Structure prediction by ZEFSAII (Michael W. Deem and Ramdas Pophale) SiO2 
 PCOD9563304
Probable space group: P 4/N N C
;
_chemical_formula_sum "Si O2"
_cell_formula_units_Z 72
_cell_length_a 21.461097
_cell_length_b 21.461097
_cell_length_c 8.613700
_cell_angle_alpha 90.000000
_cell_angle_beta 90.000000
_cell_angle_gamma 90.000000
_cell_volume 3967.286614
_symmetry_space_group_name_H-M "P 4/N N C"
_symmetry_group_IT_number 126
_space_group.IT_coordinate_system_code '2'
_symmetry_cell_setting 'tetragonal'
loop_
_space_group_symop_operation_xyz
x,y,z
1/2-y,x,z
1/2-x,1/2-y,z
y,1/2-x,z
x,1/2-y,1/2-z
1/2-x,y,1/2-z
y,x,1/2-z
1/2-y,1/2-x,1/2-z
-x,-y,-z
1/2+y,-x,-z
1/2+x,1/2+y,-z
-y,1/2+x,-z
-x,1/2+y,1/2+z
1/2+x,-y,1/2+z
-y,-x,1/2+z
1/2+y,1/2+x,1/2+z
loop_
_atom_site_type_symbol
_atom_site_label
_atom_site_fract_x
_atom_site_fract_y
_atom_site_fract_z
Si Si1 0.074012 0.776334 0.906820
Si Si2 0.380636 0.119365 0.750000
Si Si3 0.134209 0.689446 0.157091
Si Si4 0.823844 0.825286 0.927460
Si Si5 0.006840 0.680838 0.316253
O O1 0.047299 0.750000 0.750000
O O2 0.134221 0.818950 0.874321
O O3 0.102704 0.719285 0.005562
O O4 0.020152 0.810565 0.002297
O O5 0.351685 0.145044 0.586409
O O6 0.453267 0.135163 0.734765
O O7 0.160865 0.750000 0.250000
O O8 0.075517 0.664603 0.254140
O O9 0.749179 0.835227 0.935124
O O10 0.844546 0.844546 0.750000
O O11 0.991867 0.750000 0.250000
#
# Coordination Sequence:
#
# PCOD9563304 Si02
#       5
#    16   8  16  16  16
#     4  10  18  33  55  82 111 147 179 234 293 346
#     4  12  20  37  56  74 110 164 194 228 282 335
#     4   9  19  33  53  81 116 141 178 228 289 351
#     4   9  18  32  53  83 108 131 179 248 309 354
#     4   9  21  37  52  78 111 147 189 236 283 338
#
# _framework density 18.148423999999999
#
# number of rings (size 3 to 8) (size 9 to 14) (size 15 to 20)
#    0.000    2.889    0.000    5.333    0.000    3.556 
#   12.000    1.111    0.000    0.000    0.000    0.000 
#    0.000    0.000    0.000    0.000    0.000    0.000 
#
# Total GULP energy -400935.989123 kJ/mol
# GULP energy per Si atom -5568.555404 kJ/mol
# Density = 1.810712 g / cm^3
# Si number density = 18.148424 Si / 1000 Ang^3
#
#
#
# Elastic Constant Matrix: (Units=GPa)
#
#
# Indices 1 2 3 4 5 6 
#
# 1 49.2278 34.0230 28.0304 0.0000 0.0000 0.0000
# 2 34.0230 49.2267 28.0304 0.0000 0.0000 0.0000
# 3 28.0304 28.0304 138.8349 0.0000 0.0000 0.0000
# 4 0.0000 0.0000 0.0000 11.5286 0.0000 0.0000
# 5 0.0000 0.0000 0.0000 0.0000 11.5279 0.0000
# 6 0.0000 0.0000 0.0000 0.0000 0.0000 17.8636
#
#
#
# Elastic Compliance Matrix: (Units=1/GPa)
#
#
# Indices 1 2 3 4 5 6 
#
# 1 0.039836 -0.025935 -0.002807 0.000000 0.000000 0.000000
# 2 -0.025935 0.039837 -0.002807 0.000000 0.000000 0.000000
# 3 -0.002807 -0.002807 0.008336 0.000000 0.000000 0.000000
# 4 0.000000 0.000000 0.000000 0.086741 0.000000 0.000000
# 5 0.000000 0.000000 0.000000 0.000000 0.086746 0.000000
# 6 0.000000 0.000000 0.000000 0.000000 0.000000 0.055980
#
#
# Mechanical properties :
#
#
# Convention : Reuss Voigt Hill
#
# Bulk Modulus (GPa) = 40.13945 46.38412 43.26178
# Shear Modulus (GPa) = 12.85753 17.99771 15.42762
#
# Velocity S-wave (km/s) = 2.66459 3.15254 2.91878
# Velocity P-wave (km/s) = 5.62424 6.23418 5.93705
#
# Compressibility (1/GPa) = 0.02491315
#
# Stress axis : x y z
#
# Youngs Moduli (GPa) = 25.10287 25.10220 119.95919
#
# Poissons Ratio (x) = 0.65101 0.33669
# Poissons Ratio (y) = 0.65103 0.33672
# Poissons Ratio (z) = 0.07046 0.07046
#
# Static dielectric constant tensor:
#      x y z
#    x 1.606130 0.000000 0.000000 
#    y 0.000000 1.606130 0.000000 
#    z 0.000000 0.000000 1.717560 
# 
# From -- ./inp_files/1600.got.cif
#   From: 2010.05.17/outbox.cif.g08.bks.cpg/sg126_1_cif.got.tgz:1600.got - 2010.05.20 11:58:20.
