data_PCOD9563374
_publ_section_title
;
Structure prediction by ZEFSAII (Michael W. Deem and Ramdas Pophale) SiO2 
 PCOD9563374
Probable space group: P 4/N N C
;
_chemical_formula_sum "Si O2"
_cell_formula_units_Z 80
_cell_length_a 11.998591
_cell_length_b 11.998591
_cell_length_c 29.138697
_cell_angle_alpha 90.000000
_cell_angle_beta 90.000000
_cell_angle_gamma 90.000000
_cell_volume 4194.987072
_symmetry_space_group_name_H-M "P 4/N N C"
_symmetry_group_IT_number 126
_space_group.IT_coordinate_system_code '2'
_symmetry_cell_setting 'tetragonal'
loop_
_space_group_symop_operation_xyz
x,y,z
1/2-y,x,z
1/2-x,1/2-y,z
y,1/2-x,z
x,1/2-y,1/2-z
1/2-x,y,1/2-z
y,x,1/2-z
1/2-y,1/2-x,1/2-z
-x,-y,-z
1/2+y,-x,-z
1/2+x,1/2+y,-z
-y,1/2+x,-z
-x,1/2+y,1/2+z
1/2+x,-y,1/2+z
-y,-x,1/2+z
1/2+y,1/2+x,1/2+z
loop_
_atom_site_type_symbol
_atom_site_label
_atom_site_fract_x
_atom_site_fract_y
_atom_site_fract_z
Si Si1 0.099379 0.874084 0.893069
Si Si2 0.090242 0.712298 0.978557
Si Si3 0.250000 0.928584 0.250000
Si Si4 0.081666 0.329156 0.953794
Si Si5 0.250000 0.750000 0.175588
Si Si6 0.082960 0.335670 0.320052
O O1 0.089693 0.774173 0.930262
O O2 0.196820 0.842308 0.857438
O O3 0.987144 0.875830 0.863469
O O4 0.125546 0.987864 0.919401
O O5 0.124786 0.809463 0.015327
O O6 0.974829 0.660152 0.995637
O O7 0.207432 0.847610 0.209363
O O8 0.158080 0.004850 0.275044
O O9 0.108723 0.198337 0.948150
O O10 0.106913 0.202620 0.320434
#
# Coordination Sequence:
#
# PCOD9563374 Si02
#       6
#    16  16   8  16   8  16
#     4  10  20  34  56  80 108 144 186 234 280 333
#     4   9  18  33  53  76 103 139 179 224 280 333
#     4   9  18  33  54  76 110 149 172 209 270 334
#     4  10  22  37  52  75 109 148 190 235 280 332
#     4   9  18  34  55  82 108 140 189 224 258 331
#     4  10  21  35  53  82 115 143 177 229 293 355
#
# _framework density 19.07038
#
# number of rings (size 3 to 8) (size 9 to 14) (size 15 to 20)
#    0.000    2.400    0.000    3.000    0.000   10.400 
#    0.000    2.000    0.000    0.000    0.000    0.000 
#    0.000   22.400    0.000    0.000    0.000    0.000 
#
# Total GULP energy -446150.482351 kJ/mol
# GULP energy per Si atom -5576.881029 kJ/mol
# Density = 1.902697 g / cm^3
# Si number density = 19.070380 Si / 1000 Ang^3
#
#
#
# Elastic Constant Matrix: (Units=GPa)
#
#
# Indices 1 2 3 4 5 6 
#
# 1 92.8817 22.4969 37.1580 0.0000 0.0000 0.0000
# 2 22.4969 92.8817 37.1580 0.0000 0.0000 0.0000
# 3 37.1580 37.1580 101.5992 0.0000 0.0000 0.0000
# 4 0.0000 0.0000 0.0000 21.6972 0.0000 0.0000
# 5 0.0000 0.0000 0.0000 0.0000 21.6972 0.0000
# 6 0.0000 0.0000 0.0000 0.0000 0.0000 12.9956
#
#
#
# Elastic Compliance Matrix: (Units=1/GPa)
#
#
# Indices 1 2 3 4 5 6 
#
# 1 0.012773 -0.001435 -0.004147 0.000000 0.000000 0.000000
# 2 -0.001435 0.012773 -0.004147 0.000000 0.000000 0.000000
# 3 -0.004147 -0.004147 0.012876 0.000000 0.000000 0.000000
# 4 0.000000 0.000000 0.000000 0.046089 0.000000 0.000000
# 5 0.000000 0.000000 0.000000 0.000000 0.046089 0.000000
# 6 0.000000 0.000000 0.000000 0.000000 0.000000 0.076949
#
#
# Mechanical properties :
#
#
# Convention : Reuss Voigt Hill
#
# Bulk Modulus (GPa) = 52.72848 53.44317 53.08583
# Shear Modulus (GPa) = 21.42921 23.98131 22.70526
#
# Velocity S-wave (km/s) = 3.35579 3.54999 3.45426
# Velocity P-wave (km/s) = 6.53640 6.69987 6.61864
#
# Compressibility (1/GPa) = 0.01896508
#
# Stress axis : x y z
#
# Youngs Moduli (GPa) = 78.29126 78.29126 77.66551
#
# Poissons Ratio (x) = 0.11233 0.32205
# Poissons Ratio (y) = 0.11233 0.32205
# Poissons Ratio (z) = 0.32465 0.32465
#
# Static dielectric constant tensor:
#      x y z
#    x 1.687500 0.000000 0.000000 
#    y 0.000000 1.687500 0.000000 
#    z 0.000000 0.000000 1.681200 
# 
# From -- ./inp_files/6493.got.cif
#   From: 2010.05.17/outbox.cif.g08.bks.cpg/sg126_4_cif.got.tgz:6493.got - 2010.05.20 11:58:20.
