data_PCOD9563669
_publ_section_title
;
Structure prediction by ZEFSAII (Michael W. Deem and Ramdas Pophale) SiO2 
 PCOD9563669
Probable space group: P 4/N N C
;
_chemical_formula_sum "Si O2"
_cell_formula_units_Z 116
_cell_length_a 18.362641
_cell_length_b 18.362641
_cell_length_c 15.129579
_cell_angle_alpha 90.000000
_cell_angle_beta 90.000000
_cell_angle_gamma 90.000000
_cell_volume 5101.491068
_symmetry_space_group_name_H-M "P 4/N N C"
_symmetry_group_IT_number 126
_space_group.IT_coordinate_system_code '2'
_symmetry_cell_setting 'tetragonal'
loop_
_space_group_symop_operation_xyz
x,y,z
1/2-y,x,z
1/2-x,1/2-y,z
y,1/2-x,z
x,1/2-y,1/2-z
1/2-x,y,1/2-z
y,x,1/2-z
1/2-y,1/2-x,1/2-z
-x,-y,-z
1/2+y,-x,-z
1/2+x,1/2+y,-z
-y,1/2+x,-z
-x,1/2+y,1/2+z
1/2+x,-y,1/2+z
-y,-x,1/2+z
1/2+y,1/2+x,1/2+z
loop_
_atom_site_type_symbol
_atom_site_label
_atom_site_fract_x
_atom_site_fract_y
_atom_site_fract_z
Si Si1 0.121131 0.884134 0.584083
Si Si2 0.266952 0.580925 0.354782
Si Si3 0.153112 0.484774 0.687074
Si Si4 0.495931 0.981256 0.843095
Si Si5 0.705955 0.916883 0.125546
Si Si6 0.010602 0.127724 0.041882
Si Si7 0.358149 0.720227 0.341955
Si Si8 0.250000 0.250000 0.868256
O O1 0.082851 0.806941 0.589418
O O2 0.077536 0.934659 0.653635
O O3 0.109505 0.931046 0.497432
O O4 0.207202 0.875256 0.602195
O O5 0.250000 0.580501 0.250000
O O6 0.315259 0.511649 0.382121
O O7 0.304580 0.658642 0.377088
O O8 0.211550 0.447408 0.622055
O O9 0.051039 0.328590 0.716883
O O10 0.178607 0.568134 0.684005
O O11 0.068596 0.481189 0.658629
O O12 0.533684 0.966316 0.750000
O O13 0.552478 0.959898 0.919236
O O14 0.710454 0.830490 0.133394
O O15 0.663030 0.944197 0.038417
O O16 0.327793 0.750000 0.250000
#
# Coordination Sequence:
#
# PCOD9563669 Si02
#       8
#    16  16  16  16  16  16  16   4
#     4  12  27  41  67 106 143 196 244 311 375 448
#     4  12  27  44  69 107 150 201 259 309 368 457
#     4  11  24  43  77 109 157 191 248 303 397 479
#     4  12  26  46  75 106 146 200 254 311 385 468
#     4  11  27  47  74 113 153 198 248 324 388 476
#     4  12  27  48  73 105 147 199 260 319 380 459
#     4  12  20  44  67 104 152 200 241 296 377 451
#     4  12  32  49  76 112 153 196 258 316 409 460
#
# _framework density 22.738451000000001
#
# number of rings (size 3 to 8) (size 9 to 14) (size 15 to 20)
#    0.000    0.276    5.517    3.310    7.724    3.862 
#    0.000    0.000    0.000    0.000    0.000    2.897 
#    0.000    0.000    0.000    0.000    0.000    0.000 
#
# Total GULP energy -648167.967484 kJ/mol
# GULP energy per Si atom -5587.654892 kJ/mol
# Density = 2.268670 g / cm^3
# Si number density = 22.738451 Si / 1000 Ang^3
#
#
#
# Elastic Constant Matrix: (Units=GPa)
#
#
# Indices 1 2 3 4 5 6 
#
# 1 142.8762 28.9404 24.0945 0.0000 0.0000 0.0000
# 2 28.9404 142.8762 24.0945 0.0000 0.0000 0.0000
# 3 24.0945 24.0945 81.3873 0.0000 0.0000 0.0000
# 4 0.0000 0.0000 0.0000 26.5763 0.0000 0.0000
# 5 0.0000 0.0000 0.0000 0.0000 26.5763 0.0000
# 6 0.0000 0.0000 0.0000 0.0000 0.0000 29.7111
#
#
#
# Elastic Compliance Matrix: (Units=1/GPa)
#
#
# Indices 1 2 3 4 5 6 
#
# 1 0.007562 -0.001215 -0.001879 0.000000 0.000000 0.000000
# 2 -0.001215 0.007562 -0.001879 0.000000 0.000000 0.000000
# 3 -0.001879 -0.001879 0.013400 0.000000 0.000000 0.000000
# 4 0.000000 0.000000 0.000000 0.037628 0.000000 0.000000
# 5 0.000000 0.000000 0.000000 0.000000 0.037628 0.000000
# 6 0.000000 0.000000 0.000000 0.000000 0.000000 0.033657
#
#
# Mechanical properties :
#
#
# Convention : Reuss Voigt Hill
#
# Bulk Modulus (GPa) = 53.82824 57.93316 55.88070
# Shear Modulus (GPa) = 32.55748 35.90675 34.23211
#
# Velocity S-wave (km/s) = 3.78805 3.97813 3.88425
# Velocity P-wave (km/s) = 6.54650 6.82891 6.68919
#
# Compressibility (1/GPa) = 0.01857761
#
# Stress axis : x y z
#
# Youngs Moduli (GPa) = 132.23968 132.23968 74.62959
#
# Poissons Ratio (x) = 0.16065 0.14023
# Poissons Ratio (y) = 0.16065 0.14023
# Poissons Ratio (z) = 0.24849 0.24849
#
# Static dielectric constant tensor:
#      x y z
#    x 1.888760 0.000000 0.000000 
#    y 0.000000 1.888760 0.000000 
#    z 0.000000 0.000000 1.924440 
# 
# From -- ./inp_files/4622.got.cif
#   From: 2010.05.17/outbox.cif.g08.bks.cpg/sg126_3_cif.got.tgz:4622.got - 2010.05.20 11:58:20.
