data_PCOD9563463
_publ_section_title
;
Structure prediction by ZEFSAII (Michael W. Deem and Ramdas Pophale) SiO2 
 PCOD9563463
Probable space group: P 4/N N C
;
_chemical_formula_sum "Si O2"
_cell_formula_units_Z 112
_cell_length_a 14.598625
_cell_length_b 14.598625
_cell_length_c 27.580566
_cell_angle_alpha 90.000000
_cell_angle_beta 90.000000
_cell_angle_gamma 90.000000
_cell_volume 5877.966141
_symmetry_space_group_name_H-M "P 4/N N C"
_symmetry_group_IT_number 126
_space_group.IT_coordinate_system_code '2'
_symmetry_cell_setting 'tetragonal'
loop_
_space_group_symop_operation_xyz
x,y,z
1/2-y,x,z
1/2-x,1/2-y,z
y,1/2-x,z
x,1/2-y,1/2-z
1/2-x,y,1/2-z
y,x,1/2-z
1/2-y,1/2-x,1/2-z
-x,-y,-z
1/2+y,-x,-z
1/2+x,1/2+y,-z
-y,1/2+x,-z
-x,1/2+y,1/2+z
1/2+x,-y,1/2+z
-y,-x,1/2+z
1/2+y,1/2+x,1/2+z
loop_
_atom_site_type_symbol
_atom_site_label
_atom_site_fract_x
_atom_site_fract_y
_atom_site_fract_z
Si Si1 0.423745 0.417544 0.307838
Si Si2 0.067508 0.066408 0.808497
Si Si3 0.895250 0.223127 0.516543
Si Si4 0.979390 0.247109 0.691492
Si Si5 0.598200 0.731768 0.529074
Si Si6 0.179587 0.832171 0.880140
Si Si7 0.752347 0.977373 0.636059
O O1 0.412973 0.412973 0.250000
O O2 0.475923 0.511184 0.320925
O O3 0.483493 0.335409 0.329252
O O4 0.327129 0.419620 0.334356
O O5 0.069883 0.069883 0.750000
O O6 0.012950 0.154421 0.825928
O O7 0.172157 0.055565 0.823045
O O8 0.823581 0.152636 0.490230
O O9 0.894688 0.191403 0.572352
O O10 0.998993 0.223544 0.496720
O O11 0.970004 0.250000 0.750000
O O12 0.887034 0.212536 0.666978
O O13 0.671901 0.650882 0.518546
O O14 0.573464 0.729071 0.586189
O O15 0.250000 0.750000 0.887984
O O16 0.077524 0.792791 0.875457
#
# Coordination Sequence:
#
# PCOD9563463 Si02
#       7
#    16  16  16  16  16  16  16
#     4  11  23  39  59  93 134 174 220 266 315 386
#     4   9  19  37  58  84 126 166 215 265 313 375
#     4  11  22  44  68  94 128 163 213 276 333 387
#     4  10  21  39  61  91 128 172 214 266 324 388
#     4  11  24  44  67  95 130 168 215 270 332 402
#     4  12  23  41  65  95 126 164 221 269 325 391
#     4  12  22  40  66  90 127 177 213 261 330 388
#
# _framework density 19.054209
#
# number of rings (size 3 to 8) (size 9 to 14) (size 15 to 20)
#    0.000    1.143    5.714    1.286    0.000    1.429 
#    5.143    2.143    0.000    0.000    0.000    0.000 
#    0.000    0.000    0.000    0.000    0.000    0.000 
#
# Total GULP energy -624987.365175 kJ/mol
# GULP energy per Si atom -5580.244332 kJ/mol
# Density = 1.901084 g / cm^3
# Si number density = 19.054209 Si / 1000 Ang^3
#
#
#
# Elastic Constant Matrix: (Units=GPa)
#
#
# Indices 1 2 3 4 5 6 
#
# 1 102.4398 28.2263 43.8635 0.0000 0.0000 0.0000
# 2 28.2263 102.4398 43.8635 0.0000 0.0000 0.0000
# 3 43.8635 43.8635 78.4906 0.0000 0.0000 0.0000
# 4 0.0000 0.0000 0.0000 23.0902 0.0000 0.0000
# 5 0.0000 0.0000 0.0000 0.0000 23.0902 0.0000
# 6 0.0000 0.0000 0.0000 0.0000 0.0000 23.8449
#
#
#
# Elastic Compliance Matrix: (Units=1/GPa)
#
#
# Indices 1 2 3 4 5 6 
#
# 1 0.012862 -0.000613 -0.006845 0.000000 0.000000 0.000000
# 2 -0.000613 0.012862 -0.006845 0.000000 0.000000 0.000000
# 3 -0.006845 -0.006845 0.020391 0.000000 0.000000 0.000000
# 4 0.000000 0.000000 0.000000 0.043308 0.000000 0.000000
# 5 0.000000 0.000000 0.000000 0.000000 0.043308 0.000000
# 6 0.000000 0.000000 0.000000 0.000000 0.000000 0.041938
#
#
# Mechanical properties :
#
#
# Convention : Reuss Voigt Hill
#
# Bulk Modulus (GPa) = 57.11615 57.25299 57.18457
# Shear Modulus (GPa) = 23.91072 25.16618 24.53845
#
# Velocity S-wave (km/s) = 3.54627 3.63818 3.59252
# Velocity P-wave (km/s) = 6.84169 6.91094 6.87640
#
# Compressibility (1/GPa) = 0.01750818
#
# Stress axis : x y z
#
# Youngs Moduli (GPa) = 77.75019 77.75019 49.04134
#
# Poissons Ratio (x) = 0.04766 0.33569
# Poissons Ratio (y) = 0.04766 0.33569
# Poissons Ratio (z) = 0.53221 0.53221
#
# Static dielectric constant tensor:
#      x y z
#    x 1.665110 0.000000 0.000000 
#    y 0.000000 1.665110 0.000000 
#    z 0.000000 0.000000 1.659400 
# 
# From -- ./inp_files/6226.got.cif
#   From: 2010.05.17/outbox.cif.g08.bks.cpg/sg126_4_cif.got.tgz:6226.got - 2010.05.20 11:58:20.
