data_PCOD9563405
_publ_section_title
;
Structure prediction by ZEFSAII (Michael W. Deem and Ramdas Pophale) SiO2 
 PCOD9563405
Probable space group: P 4/N N C
;
_chemical_formula_sum "Si O2"
_cell_formula_units_Z 96
_cell_length_a 24.146157
_cell_length_b 24.146157
_cell_length_c 8.573626
_cell_angle_alpha 90.000000
_cell_angle_beta 90.000000
_cell_angle_gamma 90.000000
_cell_volume 4998.740307
_symmetry_space_group_name_H-M "P 4/N N C"
_symmetry_group_IT_number 126
_space_group.IT_coordinate_system_code '2'
_symmetry_cell_setting 'tetragonal'
loop_
_space_group_symop_operation_xyz
x,y,z
1/2-y,x,z
1/2-x,1/2-y,z
y,1/2-x,z
x,1/2-y,1/2-z
1/2-x,y,1/2-z
y,x,1/2-z
1/2-y,1/2-x,1/2-z
-x,-y,-z
1/2+y,-x,-z
1/2+x,1/2+y,-z
-y,1/2+x,-z
-x,1/2+y,1/2+z
1/2+x,-y,1/2+z
-y,-x,1/2+z
1/2+y,1/2+x,1/2+z
loop_
_atom_site_type_symbol
_atom_site_label
_atom_site_fract_x
_atom_site_fract_y
_atom_site_fract_z
Si Si1 0.418820 0.555123 0.102795
Si Si2 0.341149 0.253291 0.063124
Si Si3 0.546914 0.722416 0.412613
Si Si4 0.542140 0.197249 0.175894
Si Si5 0.406004 0.056632 0.585271
Si Si6 0.610937 0.996587 0.898889
O O1 0.355975 0.577600 0.122733
O O2 0.428788 0.522463 0.264499
O O3 0.414493 0.504996 0.980238
O O4 0.462640 0.599825 0.045194
O O5 0.301675 0.305197 0.023766
O O6 0.349237 0.250000 0.250000
O O7 0.399965 0.254472 0.979704
O O8 0.529760 0.750000 0.250000
O O9 0.497009 0.717230 0.535953
O O10 0.566259 0.658826 0.392527
O O11 0.571489 0.250000 0.250000
O O12 0.503344 0.330714 0.188728
O O13 0.434712 0.065289 0.750000
O O14 0.435922 0.095794 0.457664
#
# Coordination Sequence:
#
# PCOD9563405 Si02
#       6
#    16  16  16  16  16  16
#     4   9  20  36  60  85 114 152 187 236 283 334
#     4   9  20  38  56  69  88 132 196 258 309 354
#     4  11  25  36  51  76 109 149 195 246 303 348
#     4   9  22  39  58  81 118 157 185 221 283 359
#     4  11  23  35  54  83 114 150 196 244 299 341
#     4  10  20  37  61  83 117 147 194 235 283 338
#
# _framework density 19.204837999999999
#
# number of rings (size 3 to 8) (size 9 to 14) (size 15 to 20)
#    1.000    1.167    0.000    3.000    4.667    2.667 
#    0.000    0.833    0.000    0.000    0.000    0.000 
#    0.000    2.000    0.000    0.000    0.000    0.000 
#
# Total GULP energy -534840.185101 kJ/mol
# GULP energy per Si atom -5571.251928 kJ/mol
# Density = 1.916113 g / cm^3
# Si number density = 19.204838 Si / 1000 Ang^3
#
#
#
# Elastic Constant Matrix: (Units=GPa)
#
#
# Indices 1 2 3 4 5 6 
#
# 1 46.8780 15.6546 23.2185 0.0000 0.0000 0.0000
# 2 15.6546 46.8772 23.2178 0.0000 0.0000 0.0000
# 3 23.2185 23.2178 80.5963 0.0000 0.0000 0.0000
# 4 0.0000 0.0000 0.0000 28.5325 0.0000 0.0000
# 5 0.0000 0.0000 0.0000 0.0000 28.5322 0.0000
# 6 0.0000 0.0000 0.0000 0.0000 0.0000 6.7308
#
#
#
# Elastic Compliance Matrix: (Units=1/GPa)
#
#
# Indices 1 2 3 4 5 6 
#
# 1 0.026186 -0.005842 -0.005861 0.000000 0.000000 0.000000
# 2 -0.005842 0.026186 -0.005861 0.000000 0.000000 0.000000
# 3 -0.005861 -0.005861 0.015784 0.000000 0.000000 0.000000
# 4 0.000000 0.000000 0.000000 0.035048 0.000000 0.000000
# 5 0.000000 0.000000 0.000000 0.000000 0.035048 0.000000
# 6 0.000000 0.000000 0.000000 0.000000 0.000000 0.148572
#
#
# Mechanical properties :
#
#
# Convention : Reuss Voigt Hill
#
# Bulk Modulus (GPa) = 30.27613 33.17035 31.72324
# Shear Modulus (GPa) = 15.01685 20.24314 17.62999
#
# Velocity S-wave (km/s) = 2.79934 3.25016 3.03313
# Velocity P-wave (km/s) = 5.12323 5.60304 5.36850
#
# Compressibility (1/GPa) = 0.03302932
#
# Stress axis : x y z
#
# Youngs Moduli (GPa) = 38.18889 38.18853 63.35457
#
# Poissons Ratio (x) = 0.22309 0.37130
# Poissons Ratio (y) = 0.22310 0.37129
# Poissons Ratio (z) = 0.22382 0.22381
#
# Static dielectric constant tensor:
#      x y z
#    x 1.694180 0.000000 0.000000 
#    y 0.000000 1.694180 0.000000 
#    z 0.000000 0.000000 1.737510 
# 
# From -- ./inp_files/1753.got.cif
#   From: 2010.05.17/outbox.cif.g08.bks.cpg/sg126_1_cif.got.tgz:1753.got - 2010.05.20 11:58:20.
