data_PCOD9563703
_publ_section_title
;
Structure prediction by ZEFSAII (Michael W. Deem and Ramdas Pophale) SiO2 
 PCOD9563703
Probable space group: P 4/N N C
;
_chemical_formula_sum "Si O2"
_cell_formula_units_Z 56
_cell_length_a 11.400679
_cell_length_b 11.400679
_cell_length_c 18.820048
_cell_angle_alpha 90.000000
_cell_angle_beta 90.000000
_cell_angle_gamma 90.000000
_cell_volume 2446.144804
_symmetry_space_group_name_H-M "P 4/N N C"
_symmetry_group_IT_number 126
_space_group.IT_coordinate_system_code '2'
_symmetry_cell_setting 'tetragonal'
loop_
_space_group_symop_operation_xyz
x,y,z
1/2-y,x,z
1/2-x,1/2-y,z
y,1/2-x,z
x,1/2-y,1/2-z
1/2-x,y,1/2-z
y,x,1/2-z
1/2-y,1/2-x,1/2-z
-x,-y,-z
1/2+y,-x,-z
1/2+x,1/2+y,-z
-y,1/2+x,-z
-x,1/2+y,1/2+z
1/2+x,-y,1/2+z
-y,-x,1/2+z
1/2+y,1/2+x,1/2+z
loop_
_atom_site_type_symbol
_atom_site_label
_atom_site_fract_x
_atom_site_fract_y
_atom_site_fract_z
Si Si1 0.561926 0.760549 0.525633
Si Si2 0.296483 0.431515 0.856204
Si Si3 0.125315 0.689648 0.631127
Si Si4 0.553561 0.750000 0.750000
O O1 0.630703 0.643830 0.550612
O O2 0.564024 0.734284 0.441354
O O3 0.434604 0.792491 0.554316
O O4 0.168736 0.387538 0.831290
O O5 0.351093 0.557533 0.842690
O O6 0.250000 0.750000 0.633487
O O7 0.030863 0.748866 0.682429
O O8 0.637479 0.637479 0.750000
#
# Coordination Sequence:
#
# PCOD9563703 Si02
#       4
#    16  16  16   8
#     4   9  20  39  63  95 136 178 218 266 326 382
#     4   9  22  41  63  97 140 179 213 261 332 403
#     4  12  26  38  68 101 131 169 224 277 326 395
#     4  11  27  52  74  92 123 171 224 286 340 381
#
# _framework density 22.893167999999999
#
# number of rings (size 3 to 8) (size 9 to 14) (size 15 to 20)
#    0.000    1.857    0.000    3.857   12.000    4.571 
#    0.000    0.000    0.000    0.000    0.000    0.000 
#    0.000    0.000    0.000    0.000    0.000    0.000 
#
# Total GULP energy -312669.569196 kJ/mol
# GULP energy per Si atom -5583.385164 kJ/mol
# Density = 2.284106 g / cm^3
# Si number density = 22.893168 Si / 1000 Ang^3
#
#
#
# Elastic Constant Matrix: (Units=GPa)
#
#
# Indices 1 2 3 4 5 6 
#
# 1 131.9005 82.5579 15.7162 0.0000 0.0000 0.0000
# 2 82.5579 131.9005 15.7162 0.0000 0.0000 0.0000
# 3 15.7162 15.7162 35.3581 0.0000 0.0000 0.0000
# 4 0.0000 0.0000 0.0000 -652.6662 0.0000 0.0000
# 5 0.0000 0.0000 0.0000 0.0000 -652.6662 0.0000
# 6 0.0000 0.0000 0.0000 0.0000 0.0000 16.2357
#
#
#
# Elastic Compliance Matrix: (Units=1/GPa)
#
#
# Indices 1 2 3 4 5 6 
#
# 1 0.012627 -0.007639 -0.002217 0.000000 0.000000 0.000000
# 2 -0.007639 0.012627 -0.002217 0.000000 0.000000 0.000000
# 3 -0.002217 -0.002217 0.030253 0.000000 0.000000 0.000000
# 4 0.000000 0.000000 0.000000 -0.001532 0.000000 0.000000
# 5 0.000000 0.000000 0.000000 0.000000 -0.001532 0.000000
# 6 0.000000 0.000000 0.000000 0.000000 0.000000 0.061593
#
#
# Mechanical properties :
#
#
# Convention : Reuss Voigt Hill
#
# Bulk Modulus (GPa) = 31.88726 58.57110 45.22918
# Shear Modulus (GPa) = 33.63928 -245.47475 -105.91773
#
# Velocity S-wave (km/s) = 3.83744 -10.36624 -6.80930
# Velocity P-wave (km/s) = 5.79599 10.84613 6.48248
#
# Compressibility (1/GPa) = 0.03136048
#
# Stress axis : x y z
#
# Youngs Moduli (GPa) = 79.19449 79.19449 33.05465
#
# Poissons Ratio (x) = 0.60499 0.07328
# Poissons Ratio (y) = 0.60499 0.07328
# Poissons Ratio (z) = 0.17558 0.17558
#
# Static dielectric constant tensor:
#      x y z
#    x 1.830820 0.000000 0.000000 
#    y 0.000000 1.830820 0.000000 
#    z 0.000000 0.000000 1.998990 
# 
# From -- ./inp_files/4885.got.cif
#   From: 2010.05.17/outbox.cif.g08.bks.cpg/sg126_3_cif.got.tgz:4885.got - 2010.05.20 11:58:20.
