data_PCOD9563015
_publ_section_title
;
Structure prediction by ZEFSAII (Michael W. Deem and Ramdas Pophale) SiO2 
 PCOD9563015
Probable space group: P 4/N B M
;
_chemical_formula_sum "Si O2"
_cell_formula_units_Z 72
_cell_length_a 13.775217
_cell_length_b 13.775217
_cell_length_c 18.995989
_cell_angle_alpha 90.000000
_cell_angle_beta 90.000000
_cell_angle_gamma 90.000000
_cell_volume 3604.614351
_symmetry_space_group_name_H-M "P 4/N B M"
_symmetry_group_IT_number 125
_space_group.IT_coordinate_system_code '2'
_symmetry_cell_setting 'tetragonal'
loop_
_space_group_symop_operation_xyz
x,y,z
1/2-y,x,z
1/2-x,1/2-y,z
y,1/2-x,z
x,1/2-y,-z
1/2-x,y,-z
y,x,-z
1/2-y,1/2-x,-z
-x,-y,-z
1/2+y,-x,-z
1/2+x,1/2+y,-z
-y,1/2+x,-z
-x,1/2+y,z
1/2+x,-y,z
-y,-x,z
1/2+y,1/2+x,z
loop_
_atom_site_type_symbol
_atom_site_label
_atom_site_fract_x
_atom_site_fract_y
_atom_site_fract_z
Si Si1 0.250000 0.593099 0.000000
Si Si2 0.373088 0.353913 0.774783
Si Si3 0.129851 0.474639 0.633850
Si Si4 0.491749 0.675495 0.566604
Si Si5 0.384069 0.046354 0.928210
O O1 0.293070 0.525487 0.060613
O O2 0.162699 0.662699 0.024325
O O3 0.261556 0.380806 0.765558
O O4 0.437787 0.396198 0.712079
O O5 0.400623 0.378183 0.854599
O O6 0.243175 0.498690 0.627333
O O7 0.071277 0.571277 0.616884
O O8 0.085826 0.393397 0.580372
O O9 0.490589 0.750000 0.500000
O O10 0.398470 0.601531 0.567009
O O11 0.479570 0.979570 0.926866
O O12 0.390864 0.109137 0.000000
#
# Coordination Sequence:
#
# PCOD9563015 Si02
#       5
#     8  16  16  16  16
#     4   9  18  34  54  79 114 154 200 255 316 378
#     4  11  22  38  59  84 121 164 214 263 317 379
#     4  11  23  42  65  94 132 172 214 259 317 384
#     4  11  24  43  69 100 132 167 212 264 319 383
#     4  10  20  35  57  86 117 155 206 263 322 381
#
# _framework density 19.974398000000001
#
# number of rings (size 3 to 8) (size 9 to 14) (size 15 to 20)
#    0.000    1.444    2.222    3.333    0.000    3.778 
#    0.000    4.444    0.000    2.667    0.000    0.000 
#    0.000    0.000    0.000    0.000    0.000    0.000 
#
# Total GULP energy -401345.257818 kJ/mol
# GULP energy per Si atom -5574.239692 kJ/mol
# Density = 1.992894 g / cm^3
# Si number density = 19.974398 Si / 1000 Ang^3
#
#
#
# Elastic Constant Matrix: (Units=GPa)
#
#
# Indices 1 2 3 4 5 6 
#
# 1 116.3653 17.6357 27.9903 0.0000 0.0000 0.0000
# 2 17.6357 116.3655 27.9901 0.0000 0.0000 0.0000
# 3 27.9903 27.9901 127.1483 0.0000 0.0000 0.0000
# 4 0.0000 0.0000 0.0000 27.4656 0.0000 0.0000
# 5 0.0000 0.0000 0.0000 0.0000 27.4657 0.0000
# 6 0.0000 0.0000 0.0000 0.0000 0.0000 22.6911
#
#
#
# Elastic Compliance Matrix: (Units=1/GPa)
#
#
# Indices 1 2 3 4 5 6 
#
# 1 0.009174 -0.000955 -0.001809 0.000000 0.000000 0.000000
# 2 -0.000955 0.009174 -0.001809 0.000000 0.000000 0.000000
# 3 -0.001809 -0.001809 0.008661 0.000000 0.000000 0.000000
# 4 0.000000 0.000000 0.000000 0.036409 0.000000 0.000000
# 5 0.000000 0.000000 0.000000 0.000000 0.036409 0.000000
# 6 0.000000 0.000000 0.000000 0.000000 0.000000 0.044070
#
#
# Mechanical properties :
#
#
# Convention : Reuss Voigt Hill
#
# Bulk Modulus (GPa) = 55.98639 56.34568 56.16604
# Shear Modulus (GPa) = 31.44699 34.60868 33.02783
#
# Velocity S-wave (km/s) = 3.97213 4.16703 4.07075
# Velocity P-wave (km/s) = 7.00907 7.17094 7.09047
#
# Compressibility (1/GPa) = 0.01786148
#
# Stress axis : x y z
#
# Youngs Moduli (GPa) = 109.00890 109.00923 115.45504
#
# Poissons Ratio (x) = 0.10412 0.20888
# Poissons Ratio (y) = 0.10412 0.20888
# Poissons Ratio (z) = 0.19722 0.19722
#
# Static dielectric constant tensor:
#      x y z
#    x 1.713460 0.000000 0.000000 
#    y 0.000000 1.713460 0.000000 
#    z 0.000000 0.000000 1.757200 
# 
# From -- ./inp_files/5349.got.cif
#   From: 2010.05.17/outbox.cif.g08.bks.cpg/sg125_3_cif.got.tgz:5349.got - 2010.05.20 11:54:10.
