data_PCOD9563233
_publ_section_title
;
Structure prediction by ZEFSAII (Michael W. Deem and Ramdas Pophale) SiO2 
 PCOD9563233
Probable space group: P 4/N B M
;
_chemical_formula_sum "Si O2"
_cell_formula_units_Z 40
_cell_length_a 15.422906
_cell_length_b 15.422906
_cell_length_c 7.419702
_cell_angle_alpha 90.000000
_cell_angle_beta 90.000000
_cell_angle_gamma 90.000000
_cell_volume 1764.895055
_symmetry_space_group_name_H-M "P 4/N B M"
_symmetry_group_IT_number 125
_space_group.IT_coordinate_system_code '2'
_symmetry_cell_setting 'tetragonal'
loop_
_space_group_symop_operation_xyz
x,y,z
1/2-y,x,z
1/2-x,1/2-y,z
y,1/2-x,z
x,1/2-y,-z
1/2-x,y,-z
y,x,-z
1/2-y,1/2-x,-z
-x,-y,-z
1/2+y,-x,-z
1/2+x,1/2+y,-z
-y,1/2+x,-z
-x,1/2+y,z
1/2+x,-y,z
-y,-x,z
1/2+y,1/2+x,z
loop_
_atom_site_type_symbol
_atom_site_label
_atom_site_fract_x
_atom_site_fract_y
_atom_site_fract_z
Si Si1 0.843342 0.858681 0.787241
Si Si2 0.250000 0.609241 0.000000
Si Si3 0.671572 0.470697 0.640662
O O1 0.740278 0.866051 0.745820
O O2 0.879497 0.939769 0.679495
O O3 0.863907 0.863907 0.000000
O O4 0.286315 0.554309 0.165418
O O5 0.172575 0.672575 0.063903
O O6 0.750000 0.476963 0.500000
O O7 0.605834 0.394167 0.589302
#
# Coordination Sequence:
#
# PCOD9563233 Si02
#       3
#    16   8  16
#     4   9  19  39  65  90 121 163 210 263 329 397
#     4   9  18  34  56  81 116 166 216 263 320 382
#     4  11  23  39  62  93 129 169 217 270 323 385
#
# _framework density 22.664235000000001
#
# number of rings (size 3 to 8) (size 9 to 14) (size 15 to 20)
#    0.000    2.200    0.000    4.800    0.000    4.400 
#    0.000    8.000    0.000    0.000    0.000    0.000 
#    0.000    0.000    0.000    0.000    0.000    0.000 
#
# Total GULP energy -223487.970722 kJ/mol
# GULP energy per Si atom -5587.199268 kJ/mol
# Density = 2.261265 g / cm^3
# Si number density = 22.664235 Si / 1000 Ang^3
#
#
#
# Elastic Constant Matrix: (Units=GPa)
#
#
# Indices 1 2 3 4 5 6 
#
# 1 94.9636 29.7133 47.2438 0.0000 0.0000 0.0000
# 2 29.7133 94.9636 47.2438 0.0000 0.0000 0.0000
# 3 47.2438 47.2438 94.8216 0.0000 0.0000 0.0000
# 4 0.0000 0.0000 0.0000 36.6869 0.0000 0.0000
# 5 0.0000 0.0000 0.0000 0.0000 36.6869 0.0000
# 6 0.0000 0.0000 0.0000 0.0000 0.0000 -11.1680
#
#
#
# Elastic Compliance Matrix: (Units=1/GPa)
#
#
# Indices 1 2 3 4 5 6 
#
# 1 0.014106 -0.001219 -0.006421 0.000000 0.000000 0.000000
# 2 -0.001219 0.014106 -0.006421 0.000000 0.000000 0.000000
# 3 -0.006421 -0.006421 0.016944 0.000000 0.000000 0.000000
# 4 0.000000 0.000000 0.000000 0.027258 0.000000 0.000000
# 5 0.000000 0.000000 0.000000 0.000000 0.027258 0.000000
# 6 0.000000 0.000000 0.000000 0.000000 0.000000 -0.089541
#
#
# Mechanical properties :
#
#
# Convention : Reuss Voigt Hill
#
# Bulk Modulus (GPa) = 58.70289 59.23894 58.97092
# Shear Modulus (GPa) = 113.81629 23.14434 68.48031
#
# Velocity S-wave (km/s) = 7.09419 3.19906 5.50279
# Velocity P-wave (km/s) = 9.64679 6.31187 8.15170
#
# Compressibility (1/GPa) = 0.01703494
#
# Stress axis : x y z
#
# Youngs Moduli (GPa) = 70.89110 70.89110 59.01744
#
# Poissons Ratio (x) = 0.08645 0.37893
# Poissons Ratio (y) = 0.08645 0.37893
# Poissons Ratio (z) = 0.45517 0.45517
#
# Static dielectric constant tensor:
#      x y z
#    x 1.872380 0.000000 0.000000 
#    y 0.000000 1.872380 0.000000 
#    z 0.000000 0.000000 1.825100 
# 
# From -- ./inp_files/1659.got.cif
#   From: 2010.05.17/outbox.cif.g08.bks.cpg/sg125_1_cif.got.tgz:1659.got - 2010.05.20 11:54:10.
