data_PCOD9563473
_publ_section_title
;
Structure prediction by ZEFSAII (Michael W. Deem and Ramdas Pophale) SiO2 
 PCOD9563473
Probable space group: P 4/N N C
;
_chemical_formula_sum "Si O2"
_cell_formula_units_Z 40
_cell_length_a 16.173877
_cell_length_b 16.173877
_cell_length_c 6.137702
_cell_angle_alpha 90.000000
_cell_angle_beta 90.000000
_cell_angle_gamma 90.000000
_cell_volume 1605.587841
_symmetry_space_group_name_H-M "P 4/N N C"
_symmetry_group_IT_number 126
_space_group.IT_coordinate_system_code '2'
_symmetry_cell_setting 'tetragonal'
loop_
_space_group_symop_operation_xyz
x,y,z
1/2-y,x,z
1/2-x,1/2-y,z
y,1/2-x,z
x,1/2-y,1/2-z
1/2-x,y,1/2-z
y,x,1/2-z
1/2-y,1/2-x,1/2-z
-x,-y,-z
1/2+y,-x,-z
1/2+x,1/2+y,-z
-y,1/2+x,-z
-x,1/2+y,1/2+z
1/2+x,-y,1/2+z
-y,-x,1/2+z
1/2+y,1/2+x,1/2+z
loop_
_atom_site_type_symbol
_atom_site_label
_atom_site_fract_x
_atom_site_fract_y
_atom_site_fract_z
Si Si1 0.750000 0.515494 0.750000
Si Si2 0.039011 0.161640 0.862483
Si Si3 0.657686 0.357886 0.883292
O O1 0.684729 0.564186 0.608150
O O2 0.695572 0.449815 0.890156
O O3 0.051500 0.250000 0.750000
O O4 0.091228 0.091228 0.750000
O O5 0.941855 0.139552 0.874360
O O6 0.678412 0.325729 0.631061
#
# Coordination Sequence:
#
# PCOD9563473 Si02
#       3
#     8  16  16
#     4  10  22  42  69 105 144 186 244 304 378 441
#     4  11  24  44  68 104 146 193 253 302 372 443
#     4  10  21  40  69  99 140 182 238 299 366 438
#
# _framework density 24.912996
#
# number of rings (size 3 to 8) (size 9 to 14) (size 15 to 20)
#    0.000    1.600    4.000    0.000    0.000    8.400 
#    0.000    1.000    0.000    2.400    0.000    0.000 
#    0.000    0.000    0.000    0.000    0.000    0.000 
#
# Total GULP energy -223081.760226 kJ/mol
# GULP energy per Si atom -5577.044006 kJ/mol
# Density = 2.485629 g / cm^3
# Si number density = 24.912996 Si / 1000 Ang^3
#
#
#
# Elastic Constant Matrix: (Units=GPa)
#
#
# Indices 1 2 3 4 5 6 
#
# 1 87.2224 60.0630 74.6760 0.0000 0.0000 0.0000
# 2 60.0630 87.2224 74.6760 0.0000 0.0000 0.0000
# 3 74.6760 74.6760 237.6128 0.0000 0.0000 0.0000
# 4 0.0000 0.0000 0.0000 39.5909 0.0000 0.0000
# 5 0.0000 0.0000 0.0000 0.0000 39.5909 0.0000
# 6 0.0000 0.0000 0.0000 0.0000 0.0000 31.9650
#
#
#
# Elastic Compliance Matrix: (Units=1/GPa)
#
#
# Indices 1 2 3 4 5 6 
#
# 1 0.023392 -0.013427 -0.003132 0.000000 0.000000 0.000000
# 2 -0.013427 0.023392 -0.003132 0.000000 0.000000 0.000000
# 3 -0.003132 -0.003132 0.006177 0.000000 0.000000 0.000000
# 4 0.000000 0.000000 0.000000 0.025258 0.000000 0.000000
# 5 0.000000 0.000000 0.000000 0.000000 0.025258 0.000000
# 6 0.000000 0.000000 0.000000 0.000000 0.000000 0.031284
#
#
# Mechanical properties :
#
#
# Convention : Reuss Voigt Hill
#
# Bulk Modulus (GPa) = 73.63607 92.32084 82.97846
# Shear Modulus (GPa) = 27.98431 35.73885 31.86158
#
# Velocity S-wave (km/s) = 3.35518 3.79165 3.58007
# Velocity P-wave (km/s) = 6.68065 7.50377 7.10414
#
# Compressibility (1/GPa) = 0.01358030
#
# Stress axis : x y z
#
# Youngs Moduli (GPa) = 42.74875 42.74875 161.88890
#
# Poissons Ratio (x) = 0.57399 0.50702
# Poissons Ratio (y) = 0.57399 0.50702
# Poissons Ratio (z) = 0.13388 0.13388
#
# Static dielectric constant tensor:
#      x y z
#    x 1.973360 0.000000 0.000000 
#    y 0.000000 1.973360 0.000000 
#    z 0.000000 0.000000 2.342590 
# 
# From -- ./inp_files/184.got.cif
#   From: 2010.05.17/outbox.cif.g08.bks.cpg/sg126_1_cif.got.tgz:184.got - 2010.05.20 11:58:20.
