data_PCOD9563941
_publ_section_title
;
Structure prediction by ZEFSAII (Michael W. Deem and Ramdas Pophale) SiO2 
 PCOD9563941
Probable space group: P 4/M B M
;
_chemical_formula_sum "Si O2"
_cell_formula_units_Z 72
_cell_length_a 19.989692
_cell_length_b 19.989692
_cell_length_c 7.263489
_cell_angle_alpha 90.000000
_cell_angle_beta 90.000000
_cell_angle_gamma 90.000000
_cell_volume 2902.401490
_symmetry_space_group_name_H-M "P 4/M B M"
_symmetry_group_IT_number 127
_symmetry_cell_setting 'tetragonal'
loop_
_space_group_symop_operation_xyz
x,y,z
-y,x,z
-x,-y,z
y,-x,z
1/2+x,1/2-y,-z
1/2-x,1/2+y,-z
1/2+y,1/2+x,-z
1/2-y,1/2-x,-z
-x,-y,-z
y,-x,-z
x,y,-z
-y,x,-z
1/2-x,1/2+y,z
1/2+x,1/2-y,z
1/2-y,1/2-x,z
1/2+y,1/2+x,z
loop_
_atom_site_type_symbol
_atom_site_label
_atom_site_fract_x
_atom_site_fract_y
_atom_site_fract_z
Si Si1 0.296529 0.006455 0.286097
Si Si2 0.400163 0.465715 0.277298
Si Si3 0.554037 0.945964 0.220334
Si Si4 0.246964 0.146285 0.724075
Si Si5 0.882633 0.771830 0.279549
O O1 0.275715 0.001439 0.500000
O O2 0.372201 0.031989 0.279482
O O3 0.252500 0.069308 0.211343
O O4 0.289851 0.929486 0.216097
O O5 0.460178 0.417761 0.215511
O O6 0.402275 0.466635 0.500000
O O7 0.330115 0.435204 0.231892
O O8 0.500000 0.000000 0.284635
O O9 0.554382 0.945619 0.000000
O O10 0.241234 0.142953 0.500000
O O11 0.315577 0.184423 0.768657
O O12 0.187077 0.195725 0.786972
O O13 0.870881 0.763427 0.500000
#
# Coordination Sequence:
#
# PCOD9563941 Si02
#       5
#    16  16   8  16  16
#     4  10  19  34  57  84 112 144 185 229 275 334
#     4   8  12  18  29  51  91 138 173 199 237 297
#     4  11  25  43  61  79 103 141 187 238 295 342
#     4   9  16  27  44  70 108 145 177 220 277 329
#     4   9  16  24  41  72 106 138 173 215 265 320
#
# _framework density 24.807043
#
# number of rings (size 3 to 8) (size 9 to 14) (size 15 to 20)
#    0.000    2.778    1.111    2.333    0.000    7.111 
#    0.000    2.222    0.000    1.333    0.000    0.000 
#    0.000    0.000    0.000    6.889    0.000    6.667 
#
# Total GULP energy -401461.831862 kJ/mol
# GULP energy per Si atom -5575.858776 kJ/mol
# Density = 2.475058 g / cm^3
# Si number density = 24.807043 Si / 1000 Ang^3
#
#
#
# Elastic Constant Matrix: (Units=GPa)
#
#
# Indices 1 2 3 4 5 6 
#
# 1 95.9277 44.7318 -4.9006 0.0000 0.0000 0.0000
# 2 44.7318 95.9279 -4.9006 0.0000 0.0000 0.0000
# 3 -4.9006 -4.9006 104.3822 0.0000 0.0000 0.0000
# 4 0.0000 0.0000 0.0000 -16.1736 0.0000 0.0000
# 5 0.0000 0.0000 0.0000 0.0000 -16.1723 0.0000
# 6 0.0000 0.0000 0.0000 0.0000 0.0000 29.1125
#
#
#
# Elastic Compliance Matrix: (Units=1/GPa)
#
#
# Indices 1 2 3 4 5 6 
#
# 1 0.013333 -0.006200 0.000335 0.000000 0.000000 0.000000
# 2 -0.006200 0.013333 0.000335 0.000000 0.000000 0.000000
# 3 0.000335 0.000335 0.009612 0.000000 0.000000 0.000000
# 4 0.000000 0.000000 0.000000 -0.061829 0.000000 0.000000
# 5 0.000000 0.000000 0.000000 0.000000 -0.061834 0.000000
# 6 0.000000 0.000000 0.000000 0.000000 0.000000 0.034350
#
#
# Mechanical properties :
#
#
# Convention : Reuss Voigt Hill
#
# Bulk Modulus (GPa) = 39.65659 40.67767 40.16713
# Shear Modulus (GPa) = -148.93898 16.77380 -66.08259
#
# Velocity S-wave (km/s) = -7.75689 2.60315 -5.16686
# Velocity P-wave (km/s) = 8.01281 5.04662 4.40095
#
# Compressibility (1/GPa) = 0.02521649
#
# Stress axis : x y z
#
# Youngs Moduli (GPa) = 75.00334 75.00347 104.04072
#
# Poissons Ratio (x) = 0.46502 -0.03484
# Poissons Ratio (y) = 0.46502 -0.03484
# Poissons Ratio (z) = -0.02512 -0.02512
#
# Static dielectric constant tensor:
#      x y z
#    x 1.974570 0.000000 0.000000 
#    y 0.000000 1.974570 0.000000 
#    z 0.000000 0.000000 2.059320 
# 
# From -- ./inp_files/1551.got.cif
#   From: 2010.05.17/outbox.cif.g08.bks.cpg/sg127_1_cif.got.tgz:1551.got - 2010.05.20 12:03:00.
