data_PCOD9563256
_publ_section_title
;
Structure prediction by ZEFSAII (Michael W. Deem and Ramdas Pophale) SiO2 
 PCOD9563256
Probable space group: P 4/N B M
;
_chemical_formula_sum "Si O2"
_cell_formula_units_Z 80
_cell_length_a 11.539493
_cell_length_b 11.539493
_cell_length_c 30.718967
_cell_angle_alpha 90.000000
_cell_angle_beta 90.000000
_cell_angle_gamma 90.000000
_cell_volume 4090.534534
_symmetry_space_group_name_H-M "P 4/N B M"
_symmetry_group_IT_number 125
_space_group.IT_coordinate_system_code '2'
_symmetry_cell_setting 'tetragonal'
loop_
_space_group_symop_operation_xyz
x,y,z
1/2-y,x,z
1/2-x,1/2-y,z
y,1/2-x,z
x,1/2-y,-z
1/2-x,y,-z
y,x,-z
1/2-y,1/2-x,-z
-x,-y,-z
1/2+y,-x,-z
1/2+x,1/2+y,-z
-y,1/2+x,-z
-x,1/2+y,z
1/2+x,-y,z
-y,-x,z
1/2+y,1/2+x,z
loop_
_atom_site_type_symbol
_atom_site_label
_atom_site_fract_x
_atom_site_fract_y
_atom_site_fract_z
Si Si1 0.443539 0.745444 0.047838
Si Si2 0.651927 0.151927 0.703538
Si Si3 0.553043 0.743294 0.546536
Si Si4 0.938474 0.775539 0.861033
Si Si5 0.847378 0.152623 0.197209
Si Si6 0.554455 0.728182 0.642271
O O1 0.377308 0.622693 0.054304
O O2 0.342221 0.842221 0.046361
O O3 0.522835 0.774001 0.088596
O O4 0.499998 0.750000 0.000000
O O5 0.750000 0.250000 0.704002
O O6 0.620994 0.120994 0.753321
O O7 0.541417 0.202905 0.678077
O O8 0.642941 0.635310 0.546340
O O9 0.488717 0.750000 0.500000
O O10 0.496719 0.732790 0.593895
O O11 0.845874 0.876025 0.852837
O O12 0.046320 0.796681 0.830072
O O13 0.750000 0.250000 0.199089
O O14 0.651855 0.626768 0.645591
#
# Coordination Sequence:
#
# PCOD9563256 Si02
#       6
#    16   8  16  16   8  16
#     4   9  18  34  60  93 129 170 207 241 293 361
#     4  11  26  42  62  90 119 155 203 257 310 366
#     4   7  10  21  48  83 113 148 196 238 281 352
#     4  11  25  42  64  96 127 157 202 261 309 361
#     4  11  26  46  68  86 115 165 205 249 317 377
#     4   9  19  37  63  90 120 159 200 251 307 361
#
# _framework density 19.557347
#
# number of rings (size 3 to 8) (size 9 to 14) (size 15 to 20)
#    0.000    2.600    1.000    3.000    4.200    2.400 
#    0.000    5.000    2.200    2.400    0.000    0.000 
#    0.000    0.000    0.000    0.000    0.000    0.000 
#
# Total GULP energy -446097.590437 kJ/mol
# GULP energy per Si atom -5576.219880 kJ/mol
# Density = 1.951283 g / cm^3
# Si number density = 19.557347 Si / 1000 Ang^3
#
#
#
# Elastic Constant Matrix: (Units=GPa)
#
#
# Indices 1 2 3 4 5 6 
#
# 1 82.5736 11.4708 59.1601 0.0000 0.0000 0.0000
# 2 11.4708 82.5736 59.1601 0.0000 0.0000 0.0000
# 3 59.1601 59.1601 186.3796 0.0000 0.0000 0.0000
# 4 0.0000 0.0000 0.0000 5.9639 0.0000 0.0000
# 5 0.0000 0.0000 0.0000 0.0000 5.9639 0.0000
# 6 0.0000 0.0000 0.0000 0.0000 0.0000 -12.4729
#
#
#
# Elastic Compliance Matrix: (Units=1/GPa)
#
#
# Indices 1 2 3 4 5 6 
#
# 1 0.015884 0.001819 -0.005619 0.000000 0.000000 0.000000
# 2 0.001819 0.015884 -0.005619 0.000000 0.000000 0.000000
# 3 -0.005619 -0.005619 0.008933 0.000000 0.000000 0.000000
# 4 0.000000 0.000000 0.000000 0.167675 0.000000 0.000000
# 5 0.000000 0.000000 0.000000 0.000000 0.167675 0.000000
# 6 0.000000 0.000000 0.000000 0.000000 0.000000 -0.080174
#
#
# Mechanical properties :
#
#
# Convention : Reuss Voigt Hill
#
# Bulk Modulus (GPa) = 45.74200 67.90096 56.82148
# Shear Modulus (GPa) = 15.52784 14.67337 15.10060
#
# Velocity S-wave (km/s) = 2.82079 2.74208 2.78172
# Velocity P-wave (km/s) = 5.83512 6.69475 6.27966
#
# Compressibility (1/GPa) = 0.02186174
#
# Stress axis : x y z
#
# Youngs Moduli (GPa) = 62.95811 62.95811 111.94852
#
# Poissons Ratio (x) = -0.11455 0.62907
# Poissons Ratio (y) = -0.11455 0.62907
# Poissons Ratio (z) = 0.35378 0.35378
#
# Static dielectric constant tensor:
#      x y z
#    x 1.676670 0.000000 0.000000 
#    y 0.000000 1.676670 0.000000 
#    z 0.000000 0.000000 1.714990 
# 
# From -- ./inp_files/6495.got.cif
#   From: 2010.05.17/outbox.cif.g08.bks.cpg/sg125_4_cif.got.tgz:6495.got - 2010.05.20 11:54:10.
