data_PCOD9563398
_publ_section_title
;
Structure prediction by ZEFSAII (Michael W. Deem and Ramdas Pophale) SiO2 
 PCOD9563398
Probable space group: P 4/N N C
;
_chemical_formula_sum "Si O2"
_cell_formula_units_Z 96
_cell_length_a 15.895403
_cell_length_b 15.895403
_cell_length_c 18.926549
_cell_angle_alpha 90.000000
_cell_angle_beta 90.000000
_cell_angle_gamma 90.000000
_cell_volume 4782.054483
_symmetry_space_group_name_H-M "P 4/N N C"
_symmetry_group_IT_number 126
_space_group.IT_coordinate_system_code '2'
_symmetry_cell_setting 'tetragonal'
loop_
_space_group_symop_operation_xyz
x,y,z
1/2-y,x,z
1/2-x,1/2-y,z
y,1/2-x,z
x,1/2-y,1/2-z
1/2-x,y,1/2-z
y,x,1/2-z
1/2-y,1/2-x,1/2-z
-x,-y,-z
1/2+y,-x,-z
1/2+x,1/2+y,-z
-y,1/2+x,-z
-x,1/2+y,1/2+z
1/2+x,-y,1/2+z
-y,-x,1/2+z
1/2+y,1/2+x,1/2+z
loop_
_atom_site_type_symbol
_atom_site_label
_atom_site_fract_x
_atom_site_fract_y
_atom_site_fract_z
Si Si1 0.975072 0.383012 0.950669
Si Si2 0.939210 0.309491 0.312185
Si Si3 0.344821 0.597614 0.103211
Si Si4 0.139593 0.164219 0.474802
Si Si5 0.051505 0.054465 0.132017
Si Si6 0.097846 0.770768 0.326114
O O1 0.956478 0.477488 0.926083
O O2 0.955013 0.319744 0.886254
O O3 0.072467 0.373455 0.970908
O O4 0.919126 0.362175 0.020254
O O5 0.966909 0.250000 0.250000
O O6 0.935133 0.249792 0.381261
O O7 0.842629 0.336268 0.302719
O O8 0.001347 0.388389 0.313402
O O9 0.410252 0.537006 0.144961
O O10 0.361039 0.690395 0.134361
O O11 0.235518 0.136384 0.482242
O O12 0.107027 0.128873 0.400054
O O13 0.055312 0.750000 0.250000
#
# Coordination Sequence:
#
# PCOD9563398 Si02
#       6
#    16  16  16  16  16  16
#     4  10  24  38  65  96 128 164 223 274 320 388
#     4  11  23  42  61  91 136 172 213 270 335 398
#     4  11  22  38  67  90 126 170 215 272 323 395
#     4  10  20  36  63  92 126 163 204 269 330 375
#     4  10  22  40  62  95 128 161 214 274 326 386
#     4  11  24  42  62  92 136 177 214 266 336 388
#
# _framework density 20.075054000000002
#
# number of rings (size 3 to 8) (size 9 to 14) (size 15 to 20)
#    0.000    1.500    1.667    4.500    9.333    0.667 
#    0.000    0.000    0.000    0.000    0.000    3.500 
#    0.000    0.000    0.000    0.000    0.000    0.000 
#
# Total GULP energy -535322.481802 kJ/mol
# GULP energy per Si atom -5576.275852 kJ/mol
# Density = 2.002936 g / cm^3
# Si number density = 20.075054 Si / 1000 Ang^3
#
#
#
# Elastic Constant Matrix: (Units=GPa)
#
#
# Indices 1 2 3 4 5 6 
#
# 1 81.2302 25.8992 20.8472 0.0000 0.0000 0.0000
# 2 25.8992 81.2302 20.8472 0.0000 0.0000 0.0000
# 3 20.8472 20.8472 82.9497 0.0000 0.0000 0.0000
# 4 0.0000 0.0000 0.0000 25.4769 0.0000 0.0000
# 5 0.0000 0.0000 0.0000 0.0000 25.4769 0.0000
# 6 0.0000 0.0000 0.0000 0.0000 0.0000 19.8917
#
#
#
# Elastic Compliance Matrix: (Units=1/GPa)
#
#
# Indices 1 2 3 4 5 6 
#
# 1 0.014210 -0.003863 -0.002600 0.000000 0.000000 0.000000
# 2 -0.003863 0.014210 -0.002600 0.000000 0.000000 0.000000
# 3 -0.002600 -0.002600 0.013363 0.000000 0.000000 0.000000
# 4 0.000000 0.000000 0.000000 0.039251 0.000000 0.000000
# 5 0.000000 0.000000 0.000000 0.000000 0.039251 0.000000
# 6 0.000000 0.000000 0.000000 0.000000 0.000000 0.050272
#
#
# Mechanical properties :
#
#
# Convention : Reuss Voigt Hill
#
# Bulk Modulus (GPa) = 42.27557 42.28859 42.28208
# Shear Modulus (GPa) = 25.43632 26.02355 25.72994
#
# Velocity S-wave (km/s) = 3.56344 3.60434 3.58395
# Velocity P-wave (km/s) = 6.16728 6.19941 6.18336
#
# Compressibility (1/GPa) = 0.02365432
#
# Stress axis : x y z
#
# Youngs Moduli (GPa) = 70.37398 70.37398 74.83606
#
# Poissons Ratio (x) = 0.27187 0.19460
# Poissons Ratio (y) = 0.27187 0.19460
# Poissons Ratio (z) = 0.18300 0.18300
#
# Static dielectric constant tensor:
#      x y z
#    x 1.726020 0.000000 0.000000 
#    y 0.000000 1.726020 0.000000 
#    z 0.000000 0.000000 1.784930 
# 
# From -- ./inp_files/5266.got.cif
#   From: 2010.05.17/outbox.cif.g08.bks.cpg/sg126_3_cif.got.tgz:5266.got - 2010.05.20 11:58:20.
