data_PCOD9563303
_publ_section_title
;
Structure prediction by ZEFSAII (Michael W. Deem and Ramdas Pophale) SiO2 
 PCOD9563303
Probable space group: P 4/N N C
;
_chemical_formula_sum "Si O2"
_cell_formula_units_Z 96
_cell_length_a 26.227615
_cell_length_b 26.227615
_cell_length_c 8.812154
_cell_angle_alpha 90.000000
_cell_angle_beta 90.000000
_cell_angle_gamma 90.000000
_cell_volume 6061.773128
_symmetry_space_group_name_H-M "P 4/N N C"
_symmetry_group_IT_number 126
_space_group.IT_coordinate_system_code '2'
_symmetry_cell_setting 'tetragonal'
loop_
_space_group_symop_operation_xyz
x,y,z
1/2-y,x,z
1/2-x,1/2-y,z
y,1/2-x,z
x,1/2-y,1/2-z
1/2-x,y,1/2-z
y,x,1/2-z
1/2-y,1/2-x,1/2-z
-x,-y,-z
1/2+y,-x,-z
1/2+x,1/2+y,-z
-y,1/2+x,-z
-x,1/2+y,1/2+z
1/2+x,-y,1/2+z
-y,-x,1/2+z
1/2+y,1/2+x,1/2+z
loop_
_atom_site_type_symbol
_atom_site_label
_atom_site_fract_x
_atom_site_fract_y
_atom_site_fract_z
Si Si1 0.334687 0.250000 0.750000
Si Si2 0.638498 0.561054 0.211443
Si Si3 0.353067 0.146934 0.250000
Si Si4 0.058155 0.512403 0.559728
Si Si5 0.595339 0.722124 0.523519
Si Si6 0.827728 0.552524 0.948642
Si Si7 0.910457 0.999497 0.741827
O O1 0.298685 0.298685 0.750000
O O2 0.368638 0.250720 0.600221
O O3 0.616982 0.616982 0.250000
O O4 0.589652 0.528095 0.158681
O O5 0.678752 0.566213 0.074433
O O6 0.660871 0.542977 0.373451
O O7 0.302625 0.130747 0.345179
O O8 0.352835 0.105089 0.115388
O O9 0.093162 0.517132 0.413478
O O10 0.000000 0.500000 0.500000
O O11 0.045183 0.561426 0.656385
O O12 0.558052 0.767352 0.575841
O O13 0.858696 0.513567 0.843383
O O14 0.949117 0.949117 0.750000
#
# Coordination Sequence:
#
# PCOD9563303 Si02
#       7
#     8  16   8  16  16  16  16
#     4  11  22  40  56  70  92 124 180 238 282 335
#     4  12  20  36  58  73 102 134 169 220 277 334
#     4  12  24  38  52  73 100 126 176 232 274 324
#     4  10  20  32  52  81 102 128 160 204 272 339
#     4  12  24  39  56  77  94 138 180 222 286 335
#     4  12  22  36  53  75 100 133 174 221 274 332
#     4  10  18  33  49  75 103 124 160 208 264 325
#
# _framework density 15.83695
#
# number of rings (size 3 to 8) (size 9 to 14) (size 15 to 20)
#    0.000    0.750    4.167    7.500    0.000    0.000 
#    0.000    0.000    0.000    1.000    0.000    0.000 
#    0.000    0.000    0.000    0.000    0.000    0.833 
#
# Total GULP energy -534804.534021 kJ/mol
# GULP energy per Si atom -5570.880563 kJ/mol
# Density = 1.580090 g / cm^3
# Si number density = 15.836950 Si / 1000 Ang^3
#
#
#
# Elastic Constant Matrix: (Units=GPa)
#
#
# Indices 1 2 3 4 5 6 
#
# 1 66.6742 59.9156 43.8981 0.0000 0.0000 0.0000
# 2 59.9156 66.6743 43.8984 0.0000 0.0000 0.0000
# 3 43.8981 43.8984 127.6120 0.0000 0.0000 0.0000
# 4 0.0000 0.0000 0.0000 21.1205 0.0000 0.0000
# 5 0.0000 0.0000 0.0000 0.0000 21.1192 0.0000
# 6 0.0000 0.0000 0.0000 0.0000 0.0000 34.2630
#
#
#
# Elastic Compliance Matrix: (Units=1/GPa)
#
#
# Indices 1 2 3 4 5 6 
#
# 1 0.079166 -0.068791 -0.003569 0.000000 0.000000 0.000000
# 2 -0.068791 0.079166 -0.003569 0.000000 0.000000 0.000000
# 3 -0.003569 -0.003569 0.010292 0.000000 0.000000 0.000000
# 4 0.000000 0.000000 0.000000 0.047347 0.000000 0.000000
# 5 0.000000 0.000000 0.000000 0.000000 0.047350 0.000000
# 6 0.000000 0.000000 0.000000 0.000000 0.000000 0.029186
#
#
# Mechanical properties :
#
#
# Convention : Reuss Voigt Hill
#
# Bulk Modulus (GPa) = 59.64609 61.82051 60.73330
# Shear Modulus (GPa) = 11.11224 22.85043 16.98134
#
# Velocity S-wave (km/s) = 2.65177 3.80261 3.27809
# Velocity P-wave (km/s) = 6.86442 7.64200 7.26362
#
# Compressibility (1/GPa) = 0.01676556
#
# Stress axis : x y z
#
# Youngs Moduli (GPa) = 12.63167 12.63168 97.16631
#
# Poissons Ratio (x) = 0.86895 0.34676
# Poissons Ratio (y) = 0.86895 0.34679
# Poissons Ratio (z) = 0.04508 0.04508
#
# Static dielectric constant tensor:
#      x y z
#    x 1.562930 0.000000 0.000000 
#    y 0.000000 1.562930 0.000000 
#    z 0.000000 0.000000 1.777630 
# 
# From -- ./inp_files/1802.got.cif
#   From: 2010.05.17/outbox.cif.g08.bks.cpg/sg126_1_cif.got.tgz:1802.got - 2010.05.20 11:58:20.
