data_PCOD9563097
_publ_section_title
;
Structure prediction by ZEFSAII (Michael W. Deem and Ramdas Pophale) SiO2 
 PCOD9563097
Probable space group: P 4/N B M
;
_chemical_formula_sum "Si O2"
_cell_formula_units_Z 96
_cell_length_a 24.411592
_cell_length_b 24.411592
_cell_length_c 8.550068
_cell_angle_alpha 90.000000
_cell_angle_beta 90.000000
_cell_angle_gamma 90.000000
_cell_volume 5095.206318
_symmetry_space_group_name_H-M "P 4/N B M"
_symmetry_group_IT_number 125
_space_group.IT_coordinate_system_code '2'
_symmetry_cell_setting 'tetragonal'
loop_
_space_group_symop_operation_xyz
x,y,z
1/2-y,x,z
1/2-x,1/2-y,z
y,1/2-x,z
x,1/2-y,-z
1/2-x,y,-z
y,x,-z
1/2-y,1/2-x,-z
-x,-y,-z
1/2+y,-x,-z
1/2+x,1/2+y,-z
-y,1/2+x,-z
-x,1/2+y,z
1/2+x,-y,z
-y,-x,z
1/2+y,1/2+x,z
loop_
_atom_site_type_symbol
_atom_site_label
_atom_site_fract_x
_atom_site_fract_y
_atom_site_fract_z
Si Si1 0.223949 0.524084 0.650772
Si Si2 0.827370 0.502092 0.861964
Si Si3 0.690261 0.099857 0.068716
Si Si4 0.574080 0.644110 0.375707
Si Si5 0.807852 0.607413 0.067732
Si Si6 0.463084 0.446745 0.186618
O O1 0.250000 0.552756 0.500000
O O2 0.274214 0.498294 0.751379
O O3 0.196092 0.566366 0.769566
O O4 0.183261 0.477229 0.583987
O O5 0.884665 0.517219 0.782700
O O6 0.833409 0.443564 0.943840
O O7 0.816226 0.546669 0.997435
O O8 0.651313 0.151313 0.085271
O O9 0.750000 0.114246 0.000000
O O10 0.615155 0.615155 0.500000
O O11 0.606853 0.682317 0.252571
O O12 0.547974 0.593457 0.279003
O O13 0.750000 0.626752 0.000000
O O14 0.855474 0.644527 0.000000
O O15 0.508330 0.491671 0.231936
O O16 0.453101 0.453101 0.000000
#
# Coordination Sequence:
#
# PCOD9563097 Si02
#       6
#    16  16  16  16  16  16
#     4  11  23  38  60  89 125 166 211 254 310 388
#     4  11  18  39  65  88 116 162 213 254 305 381
#     4  10  21  39  66  96 125 162 213 264 312 374
#     4  12  23  37  58  91 124 162 205 260 324 376
#     4  12  22  40  62  85 116 159 215 266 315 381
#     4  11  21  35  58  88 122 157 195 247 315 382
#
# _framework density 18.841238000000001
#
# number of rings (size 3 to 8) (size 9 to 14) (size 15 to 20)
#    0.000    0.833    6.667    2.000    0.000    2.667 
#    0.000    5.833    0.000    0.000    0.000    1.167 
#    0.000    0.000    0.000    0.000    0.000    0.000 
#
# Total GULP energy -535823.101213 kJ/mol
# GULP energy per Si atom -5581.490638 kJ/mol
# Density = 1.879835 g / cm^3
# Si number density = 18.841238 Si / 1000 Ang^3
#
#
#
# Elastic Constant Matrix: (Units=GPa)
#
#
# Indices 1 2 3 4 5 6 
#
# 1 74.1595 52.8760 26.5746 0.0000 0.0000 0.0000
# 2 52.8760 74.1608 26.5738 0.0000 0.0000 0.0000
# 3 26.5746 26.5738 82.0740 0.0000 0.0000 0.0000
# 4 0.0000 0.0000 0.0000 21.8576 0.0000 0.0000
# 5 0.0000 0.0000 0.0000 0.0000 21.8570 0.0000
# 6 0.0000 0.0000 0.0000 0.0000 0.0000 35.7383
#
#
#
# Elastic Compliance Matrix: (Units=1/GPa)
#
#
# Indices 1 2 3 4 5 6 
#
# 1 0.028045 -0.018939 -0.002948 0.000000 0.000000 0.000000
# 2 -0.018939 0.028044 -0.002948 0.000000 0.000000 0.000000
# 3 -0.002948 -0.002948 0.014093 0.000000 0.000000 0.000000
# 4 0.000000 0.000000 0.000000 0.045751 0.000000 0.000000
# 5 0.000000 0.000000 0.000000 0.000000 0.045752 0.000000
# 6 0.000000 0.000000 0.000000 0.000000 0.000000 0.027981
#
#
# Mechanical properties :
#
#
# Convention : Reuss Voigt Hill
#
# Bulk Modulus (GPa) = 48.75393 49.16033 48.95713
# Shear Modulus (GPa) = 20.31089 24.18189 22.24639
#
# Velocity S-wave (km/s) = 3.28686 3.58642 3.43990
# Velocity P-wave (km/s) = 6.35114 6.58015 6.46666
#
# Compressibility (1/GPa) = 0.02051117
#
# Stress axis : x y z
#
# Youngs Moduli (GPa) = 35.65744 35.65842 70.95606
#
# Poissons Ratio (x) = 0.67534 0.20921
# Poissons Ratio (y) = 0.67532 0.20916
# Poissons Ratio (z) = 0.10513 0.10511
#
# Static dielectric constant tensor:
#      x y z
#    x 1.645760 0.000000 0.000000 
#    y 0.000000 1.645760 0.000000 
#    z 0.000000 0.000000 1.713330 
# 
# From -- ./inp_files/2861.got.cif
#   From: 2010.05.17/outbox.cif.g08.bks.cpg/sg125_2_cif.got.tgz:2861.got - 2010.05.20 11:54:10.
