data_PCOD9563920
_publ_section_title
;
Structure prediction by ZEFSAII (Michael W. Deem and Ramdas Pophale) SiO2 
 PCOD9563920
Probable space group: P 4/M B M
;
_chemical_formula_sum "Si O2"
_cell_formula_units_Z 112
_cell_length_a 15.042839
_cell_length_b 15.042839
_cell_length_c 23.403086
_cell_angle_alpha 90.000000
_cell_angle_beta 90.000000
_cell_angle_gamma 90.000000
_cell_volume 5295.814243
_symmetry_space_group_name_H-M "P 4/M B M"
_symmetry_group_IT_number 127
_symmetry_cell_setting 'tetragonal'
loop_
_space_group_symop_operation_xyz
x,y,z
-y,x,z
-x,-y,z
y,-x,z
1/2+x,1/2-y,-z
1/2-x,1/2+y,-z
1/2+y,1/2+x,-z
1/2-y,1/2-x,-z
-x,-y,-z
y,-x,-z
x,y,-z
-y,x,-z
1/2-x,1/2+y,z
1/2+x,1/2-y,z
1/2-y,1/2-x,z
1/2+y,1/2+x,z
loop_
_atom_site_type_symbol
_atom_site_label
_atom_site_fract_x
_atom_site_fract_y
_atom_site_fract_z
Si Si1 0.991514 0.643612 0.198668
Si Si2 0.317861 0.034191 0.676332
Si Si3 0.788765 0.849964 0.432483
Si Si4 0.631026 0.429642 0.286378
Si Si5 0.762381 0.545037 0.566827
Si Si6 0.220787 0.130448 0.829590
Si Si7 0.104887 0.892693 0.935327
O O1 0.899956 0.600045 0.178164
O O2 0.064241 0.564241 0.200596
O O3 0.980558 0.678246 0.263916
O O4 0.041323 0.719136 0.163124
O O5 0.396305 0.103696 0.680502
O O6 0.222478 0.086339 0.678607
O O7 0.328868 0.978782 0.618255
O O8 0.794388 0.832076 0.500000
O O9 0.694535 0.805466 0.414819
O O10 0.796601 0.955821 0.431857
O O11 0.871186 0.792857 0.411162
O O12 0.614631 0.535210 0.296372
O O13 0.657275 0.396282 0.222954
O O14 0.793067 0.554456 0.500000
O O15 0.288863 0.211138 0.815567
O O16 0.164212 0.149554 0.885739
O O17 0.998191 0.879882 0.929284
O O18 0.130039 0.866869 0.000000
#
# Coordination Sequence:
#
# PCOD9563920 Si02
#       7
#    16  16  16  16  16  16  16
#     4   8  16  33  53  73 102 140 179 219 269 328
#     4  10  21  36  55  80 108 137 178 231 282 338
#     4   9  19  36  56  80 109 140 179 224 272 333
#     4  10  21  37  56  77 107 144 182 228 281 337
#     4  10  21  36  57  82 111 148 184 227 288 352
#     4  10  19  33  56  84 114 145 185 234 278 325
#     4   9  18  34  56  81 113 154 194 230 274 327
#
# _framework density 21.148779000000001
#
# number of rings (size 3 to 8) (size 9 to 14) (size 15 to 20)
#    0.000    2.571    0.000    3.000    2.000    3.143 
#    0.000   10.714    0.000    2.571    0.000   13.000 
#    0.000    0.000    0.000    0.000    0.000    0.000 
#
# Total GULP energy -623703.227927 kJ/mol
# GULP energy per Si atom -5568.778821 kJ/mol
# Density = 2.110064 g / cm^3
# Si number density = 21.148779 Si / 1000 Ang^3
#
#
#
# Elastic Constant Matrix: (Units=GPa)
#
#
# Indices 1 2 3 4 5 6 
#
# 1 13.3650 34.5189 -8.8066 0.0000 0.0000 0.0000
# 2 34.5189 13.3650 -8.8066 0.0000 0.0000 0.0000
# 3 -8.8066 -8.8066 62.7891 0.0000 0.0000 0.0000
# 4 0.0000 0.0000 0.0000 18.9146 0.0000 0.0000
# 5 0.0000 0.0000 0.0000 0.0000 18.9146 0.0000
# 6 0.0000 0.0000 0.0000 0.0000 0.0000 27.9415
#
#
#
# Elastic Compliance Matrix: (Units=1/GPa)
#
#
# Indices 1 2 3 4 5 6 
#
# 1 -0.012626 0.034646 0.003088 0.000000 0.000000 0.000000
# 2 0.034646 -0.012626 0.003088 0.000000 0.000000 0.000000
# 3 0.003088 0.003088 0.016793 0.000000 0.000000 0.000000
# 4 0.000000 0.000000 0.000000 0.052869 0.000000 0.000000
# 5 0.000000 0.000000 0.000000 0.000000 0.052869 0.000000
# 6 0.000000 0.000000 0.000000 0.000000 0.000000 0.035789
#
#
# Mechanical properties :
#
#
# Convention : Reuss Voigt Hill
#
# Bulk Modulus (GPa) = 13.66378 13.70338 13.68358
# Shear Modulus (GPa) = 65.94860 17.99503 41.97181
#
# Velocity S-wave (km/s) = 5.59025 2.92015 4.45972
# Velocity P-wave (km/s) = 6.93849 4.22649 5.74482
#
# Compressibility (1/GPa) = 0.07318620
#
# Stress axis : x y z
#
# Youngs Moduli (GPa) = -79.19904 -79.19904 59.54975
#
# Poissons Ratio (x) = 2.74395 -0.18392
# Poissons Ratio (y) = 2.74395 -0.18392
# Poissons Ratio (z) = 0.24460 0.24460
#
# Static dielectric constant tensor:
#      x y z
#    x 1.797510 0.000000 0.000000 
#    y 0.000000 1.797510 0.000000 
#    z 0.000000 0.000000 1.842740 
# 
# From -- ./inp_files/6188.got.cif
#   From: 2010.05.17/outbox.cif.g08.bks.cpg/sg127_4_cif.got.tgz:6188.got - 2010.05.20 12:03:00.
