data_PCOD9563046
_publ_section_title
;
Structure prediction by ZEFSAII (Michael W. Deem and Ramdas Pophale) SiO2 
 PCOD9563046
Probable space group: P 4/N B M
;
_chemical_formula_sum "Si O2"
_cell_formula_units_Z 96
_cell_length_a 21.566276
_cell_length_b 21.566276
_cell_length_c 9.000444
_cell_angle_alpha 90.000000
_cell_angle_beta 90.000000
_cell_angle_gamma 90.000000
_cell_volume 4186.144851
_symmetry_space_group_name_H-M "P 4/N B M"
_symmetry_group_IT_number 125
_space_group.IT_coordinate_system_code '2'
_symmetry_cell_setting 'tetragonal'
loop_
_space_group_symop_operation_xyz
x,y,z
1/2-y,x,z
1/2-x,1/2-y,z
y,1/2-x,z
x,1/2-y,-z
1/2-x,y,-z
y,x,-z
1/2-y,1/2-x,-z
-x,-y,-z
1/2+y,-x,-z
1/2+x,1/2+y,-z
-y,1/2+x,-z
-x,1/2+y,z
1/2+x,-y,z
-y,-x,z
1/2+y,1/2+x,z
loop_
_atom_site_type_symbol
_atom_site_label
_atom_site_fract_x
_atom_site_fract_y
_atom_site_fract_z
Si Si1 0.227806 0.869876 0.334026
Si Si2 0.093165 0.492135 0.923142
Si Si3 0.945842 0.303798 0.880078
Si Si4 0.198805 0.043733 0.620671
Si Si5 0.125237 0.521450 0.609520
Si Si6 0.760367 0.646121 0.840108
O O1 0.250000 0.854846 0.500000
O O2 0.186440 0.813561 0.272920
O O3 0.284426 0.887795 0.225149
O O4 0.179915 0.927732 0.358529
O O5 0.030988 0.530988 0.890299
O O6 0.123000 0.482710 0.762432
O O7 0.134913 0.536951 0.025972
O O8 0.071463 0.428538 0.000000
O O9 0.999728 0.301331 0.760912
O O10 0.947695 0.250000 0.000000
O O11 0.250000 0.027171 0.500000
O O12 0.222042 0.106805 0.695707
O O13 0.137658 0.024948 0.527349
O O14 0.064127 0.564127 0.584632
O O15 0.814731 0.697176 0.838572
O O16 0.750000 0.611105 0.000000
#
# Coordination Sequence:
#
# PCOD9563046 Si02
#       6
#    16  16  16  16  16  16
#     4  11  22  42  69  99 138 184 229 285 360 436
#     4  10  23  45  70  97 135 187 243 297 361 433
#     4  12  22  40  66 102 136 181 235 291 356 428
#     4  12  22  40  63 102 136 176 230 283 346 425
#     4  10  20  41  68  93 136 185 234 291 351 419
#     4   9  21  45  71  98 136 182 226 277 351 435
#
# _framework density 22.932793
#
# number of rings (size 3 to 8) (size 9 to 14) (size 15 to 20)
#    0.000    1.333    5.000    1.000    0.000    2.167 
#   12.000    0.833    0.000    3.000    0.000    0.000 
#    0.000    0.000    0.000    0.000    0.000    0.000 
#
# Total GULP energy -535064.006566 kJ/mol
# GULP energy per Si atom -5573.583402 kJ/mol
# Density = 2.288060 g / cm^3
# Si number density = 22.932793 Si / 1000 Ang^3
#
#
#
# Elastic Constant Matrix: (Units=GPa)
#
#
# Indices 1 2 3 4 5 6 
#
# 1 -261.6306 346.7504 36.1489 0.0000 0.0000 0.0000
# 2 346.7504 -261.7301 36.1358 0.0000 0.0000 0.0000
# 3 36.1489 36.1358 145.2901 0.0000 0.0000 0.0000
# 4 0.0000 0.0000 0.0000 30.2560 0.0000 0.0000
# 5 0.0000 0.0000 0.0000 0.0000 30.2546 0.0000
# 6 0.0000 0.0000 0.0000 0.0000 0.0000 50.0250
#
#
#
# Elastic Compliance Matrix: (Units=1/GPa)
#
#
# Indices 1 2 3 4 5 6 
#
# 1 0.006632 0.008275 -0.003708 0.000000 0.000000 0.000000
# 2 0.008275 0.006630 -0.003708 0.000000 0.000000 0.000000
# 3 -0.003708 -0.003708 0.008728 0.000000 0.000000 0.000000
# 4 0.000000 0.000000 0.000000 0.033051 0.000000 0.000000
# 5 0.000000 0.000000 0.000000 0.000000 0.033053 0.000000
# 6 0.000000 0.000000 0.000000 0.000000 0.000000 0.019990
#
#
# Mechanical properties :
#
#
# Convention : Reuss Voigt Hill
#
# Bulk Modulus (GPa) = 42.18130 51.11105 46.64618
# Shear Modulus (GPa) = 43.75652 -31.03326 6.36163
#
# Velocity S-wave (km/s) = 4.37284 -3.68261 1.66735
# Velocity P-wave (km/s) = 6.62790 2.06241 4.90829
#
# Compressibility (1/GPa) = 0.02370719
#
# Stress axis : x y z
#
# Youngs Moduli (GPa) = 150.77948 150.83130 114.57962
#
# Poissons Ratio (x) = -1.24807 0.42488
# Poissons Ratio (y) = -1.24765 0.42483
# Poissons Ratio (z) = 0.55911 0.55924
#
# Static dielectric constant tensor:
#      x y z
#    x 1.614820 0.000000 0.000000 
#    y 0.000000 1.614260 0.000000 
#    z 0.000000 0.000000 1.890320 
# 
# From -- ./inp_files/2887.got.cif
#   From: 2010.05.17/outbox.cif.g08.bks.cpg/sg125_2_cif.got.tgz:2887.got - 2010.05.20 11:54:10.
