data_PCOD9563055
_publ_section_title
;
Structure prediction by ZEFSAII (Michael W. Deem and Ramdas Pophale) SiO2 
 PCOD9563055
Probable space group: P 4/N B M
;
_chemical_formula_sum "Si O2"
_cell_formula_units_Z 72
_cell_length_a 20.949546
_cell_length_b 20.949546
_cell_length_c 7.340528
_cell_angle_alpha 90.000000
_cell_angle_beta 90.000000
_cell_angle_gamma 90.000000
_cell_volume 3221.636456
_symmetry_space_group_name_H-M "P 4/N B M"
_symmetry_group_IT_number 125
_space_group.IT_coordinate_system_code '2'
_symmetry_cell_setting 'tetragonal'
loop_
_space_group_symop_operation_xyz
x,y,z
1/2-y,x,z
1/2-x,1/2-y,z
y,1/2-x,z
x,1/2-y,-z
1/2-x,y,-z
y,x,-z
1/2-y,1/2-x,-z
-x,-y,-z
1/2+y,-x,-z
1/2+x,1/2+y,-z
-y,1/2+x,-z
-x,1/2+y,z
1/2+x,-y,z
-y,-x,z
1/2+y,1/2+x,z
loop_
_atom_site_type_symbol
_atom_site_label
_atom_site_fract_x
_atom_site_fract_y
_atom_site_fract_z
Si Si1 0.849534 0.939220 0.127426
Si Si2 0.779018 0.377791 0.692750
Si Si3 0.050953 0.658294 0.845030
Si Si4 0.379203 0.983094 0.454016
Si Si5 0.642781 0.750000 0.000000
O O1 0.779845 0.905854 0.147991
O O2 0.878360 0.956242 0.322832
O O3 0.897235 0.897235 0.000000
O O4 0.838482 0.003547 0.013087
O O5 0.750000 0.354882 0.500000
O O6 0.820938 0.320938 0.777844
O O7 0.721602 0.407917 0.806728
O O8 0.827942 0.433497 0.632382
O O9 0.100155 0.600155 0.869563
O O10 0.010507 0.643136 0.661831
O O11 0.446598 0.946598 0.449738
O O12 0.691654 0.691654 0.000000
#
# Coordination Sequence:
#
# PCOD9563055 Si02
#       5
#    16  16  16  16   8
#     4  11  22  37  61  85 109 148 187 225 283 344
#     4   9  17  31  53  79 109 149 192 233 279 325
#     4  10  21  35  54  83 117 153 191 231 274 323
#     4   9  19  35  54  81 117 151 188 234 273 318
#     4   9  20  40  64  88 110 135 178 238 296 345
#
# _framework density 22.348890000000001
#
# number of rings (size 3 to 8) (size 9 to 14) (size 15 to 20)
#    0.000    2.333    0.000    4.000    0.000    4.222 
#    0.000    2.222    0.000    9.333    0.000   24.889 
#    0.000    0.000    0.000    0.000    0.000    0.000 
#
# Total GULP energy -401665.172152 kJ/mol
# GULP energy per Si atom -5578.682947 kJ/mol
# Density = 2.229802 g / cm^3
# Si number density = 22.348890 Si / 1000 Ang^3
#
#
#
# Elastic Constant Matrix: (Units=GPa)
#
#
# Indices 1 2 3 4 5 6 
#
# 1 66.7118 27.8839 36.6700 0.0000 0.0000 0.0000
# 2 27.8839 66.7118 36.6700 0.0000 0.0000 0.0000
# 3 36.6700 36.6700 114.6646 0.0000 0.0000 0.0000
# 4 0.0000 0.0000 0.0000 19.6205 0.0000 0.0000
# 5 0.0000 0.0000 0.0000 0.0000 19.6205 0.0000
# 6 0.0000 0.0000 0.0000 0.0000 0.0000 38.3519
#
#
#
# Elastic Compliance Matrix: (Units=1/GPa)
#
#
# Indices 1 2 3 4 5 6 
#
# 1 0.019906 -0.005849 -0.004495 0.000000 0.000000 0.000000
# 2 -0.005849 0.019906 -0.004495 0.000000 0.000000 0.000000
# 3 -0.004495 -0.004495 0.011596 0.000000 0.000000 0.000000
# 4 0.000000 0.000000 0.000000 0.050967 0.000000 0.000000
# 5 0.000000 0.000000 0.000000 0.000000 0.050967 0.000000
# 6 0.000000 0.000000 0.000000 0.000000 0.000000 0.026074
#
#
# Mechanical properties :
#
#
# Convention : Reuss Voigt Hill
#
# Bulk Modulus (GPa) = 46.02335 50.05958 48.04146
# Shear Modulus (GPa) = 23.11199 25.30954 24.21077
#
# Velocity S-wave (km/s) = 3.21930 3.36888 3.29494
# Velocity P-wave (km/s) = 5.86995 6.13027 6.00152
#
# Compressibility (1/GPa) = 0.02172810
#
# Stress axis : x y z
#
# Youngs Moduli (GPa) = 50.23714 50.23714 86.23433
#
# Poissons Ratio (x) = 0.29384 0.38765
# Poissons Ratio (y) = 0.29384 0.38765
# Poissons Ratio (z) = 0.22583 0.22583
#
# Static dielectric constant tensor:
#      x y z
#    x 1.823290 0.000000 0.000000 
#    y 0.000000 1.823290 0.000000 
#    z 0.000000 0.000000 1.710340 
# 
# From -- ./inp_files/2589.got.cif
#   From: 2010.05.17/outbox.cif.g08.bks.cpg/sg125_2_cif.got.tgz:2589.got - 2010.05.20 11:54:10.
