data_PCOD9563392
_publ_section_title
;
Structure prediction by ZEFSAII (Michael W. Deem and Ramdas Pophale) SiO2 
 PCOD9563392
Probable space group: P 4/N N C
;
_chemical_formula_sum "Si O2"
_cell_formula_units_Z 88
_cell_length_a 18.807972
_cell_length_b 18.807972
_cell_length_c 12.677549
_cell_angle_alpha 90.000000
_cell_angle_beta 90.000000
_cell_angle_gamma 90.000000
_cell_volume 4484.553784
_symmetry_space_group_name_H-M "P 4/N N C"
_symmetry_group_IT_number 126
_space_group.IT_coordinate_system_code '2'
_symmetry_cell_setting 'tetragonal'
loop_
_space_group_symop_operation_xyz
x,y,z
1/2-y,x,z
1/2-x,1/2-y,z
y,1/2-x,z
x,1/2-y,1/2-z
1/2-x,y,1/2-z
y,x,1/2-z
1/2-y,1/2-x,1/2-z
-x,-y,-z
1/2+y,-x,-z
1/2+x,1/2+y,-z
-y,1/2+x,-z
-x,1/2+y,1/2+z
1/2+x,-y,1/2+z
-y,-x,1/2+z
1/2+y,1/2+x,1/2+z
loop_
_atom_site_type_symbol
_atom_site_label
_atom_site_fract_x
_atom_site_fract_y
_atom_site_fract_z
Si Si1 0.625582 0.482817 0.030013
Si Si2 0.991571 0.397804 0.211947
Si Si3 0.173004 0.892675 0.372900
Si Si4 0.275351 0.539975 0.574521
Si Si5 0.536496 0.907880 0.346568
Si Si6 0.847878 0.250000 0.750000
O O1 0.612501 0.400822 0.060747
O O2 0.699937 0.498199 0.087315
O O3 0.563627 0.532206 0.073881
O O4 0.630467 0.496367 0.906188
O O5 0.955037 0.340952 0.288644
O O6 0.935409 0.463138 0.205220
O O7 0.064673 0.435328 0.250000
O O8 0.226837 0.919330 0.462160
O O9 0.187036 0.816660 0.314911
O O10 0.337421 0.483294 0.590693
O O11 0.284566 0.600706 0.662559
O O12 0.592325 0.907676 0.250000
#
# Coordination Sequence:
#
# PCOD9563392 Si02
#       6
#    16  16  16  16  16   8
#     4  11  21  34  55  82 117 152 189 239 295 345
#     4  11  19  32  55  86 110 143 182 248 299 335
#     4  11  19  34  55  81 114 145 193 234 289 343
#     4  11  22  35  57  86 117 153 191 241 293 356
#     4  11  18  34  57  87 113 145 191 241 301 343
#     4  10  20  36  56  81 112 153 192 238 288 346
#
# _framework density 19.622911999999999
#
# number of rings (size 3 to 8) (size 9 to 14) (size 15 to 20)
#    0.000    1.091    7.273    2.727    0.000    0.727 
#    0.000    0.000    0.000   33.273    0.000    1.273 
#    0.000    1.455    0.000    0.000    0.000    0.000 
#
# Total GULP energy -491120.951094 kJ/mol
# GULP energy per Si atom -5580.919899 kJ/mol
# Density = 1.957825 g / cm^3
# Si number density = 19.622912 Si / 1000 Ang^3
#
#
#
# Elastic Constant Matrix: (Units=GPa)
#
#
# Indices 1 2 3 4 5 6 
#
# 1 46.6153 20.5322 11.5833 0.0000 0.0000 0.0000
# 2 20.5322 46.6158 11.5828 0.0000 0.0000 0.0000
# 3 11.5833 11.5828 103.4761 0.0000 0.0000 0.0000
# 4 0.0000 0.0000 0.0000 28.9653 0.0000 0.0000
# 5 0.0000 0.0000 0.0000 0.0000 28.9649 0.0000
# 6 0.0000 0.0000 0.0000 0.0000 0.0000 10.0203
#
#
#
# Elastic Compliance Matrix: (Units=1/GPa)
#
#
# Indices 1 2 3 4 5 6 
#
# 1 0.026915 -0.011424 -0.001734 0.000000 0.000000 0.000000
# 2 -0.011424 0.026915 -0.001734 0.000000 0.000000 0.000000
# 3 -0.001734 -0.001734 0.010052 0.000000 0.000000 0.000000
# 4 0.000000 0.000000 0.000000 0.034524 0.000000 0.000000
# 5 0.000000 0.000000 0.000000 0.000000 0.034524 0.000000
# 6 0.000000 0.000000 0.000000 0.000000 0.000000 0.099797
#
#
# Mechanical properties :
#
#
# Convention : Reuss Voigt Hill
#
# Bulk Modulus (GPa) = 29.32748 31.56709 30.44729
# Shear Modulus (GPa) = 18.25633 23.79071 21.02352
#
# Velocity S-wave (km/s) = 3.05349 3.48572 3.27674
# Velocity P-wave (km/s) = 5.23543 5.68526 5.46497
#
# Compressibility (1/GPa) = 0.03409771
#
# Stress axis : x y z
#
# Youngs Moduli (GPa) = 37.15410 37.15463 99.47996
#
# Poissons Ratio (x) = 0.42445 0.17251
# Poissons Ratio (y) = 0.42445 0.17249
# Poissons Ratio (z) = 0.06443 0.06442
#
# Static dielectric constant tensor:
#      x y z
#    x 1.708160 0.000000 0.000000 
#    y 0.000000 1.708160 0.000000 
#    z 0.000000 0.000000 1.785440 
# 
# From -- ./inp_files/3764.got.cif
#   From: 2010.05.17/outbox.cif.g08.bks.cpg/sg126_2_cif.got.tgz:3764.got - 2010.05.20 11:58:20.
