data_PCOD9563225
_publ_section_title
;
Structure prediction by ZEFSAII (Michael W. Deem and Ramdas Pophale) SiO2 
 PCOD9563225
Probable space group: P 4/N B M
;
_chemical_formula_sum "Si O2"
_cell_formula_units_Z 96
_cell_length_a 14.471049
_cell_length_b 14.471049
_cell_length_c 23.137088
_cell_angle_alpha 90.000000
_cell_angle_beta 90.000000
_cell_angle_gamma 90.000000
_cell_volume 4845.166731
_symmetry_space_group_name_H-M "P 4/N B M"
_symmetry_group_IT_number 125
_space_group.IT_coordinate_system_code '2'
_symmetry_cell_setting 'tetragonal'
loop_
_space_group_symop_operation_xyz
x,y,z
1/2-y,x,z
1/2-x,1/2-y,z
y,1/2-x,z
x,1/2-y,-z
1/2-x,y,-z
y,x,-z
1/2-y,1/2-x,-z
-x,-y,-z
1/2+y,-x,-z
1/2+x,1/2+y,-z
-y,1/2+x,-z
-x,1/2+y,z
1/2+x,-y,z
-y,-x,z
1/2+y,1/2+x,z
loop_
_atom_site_type_symbol
_atom_site_label
_atom_site_fract_x
_atom_site_fract_y
_atom_site_fract_z
Si Si1 0.826061 0.326061 0.133263
Si Si2 0.576430 0.576495 0.870672
Si Si3 0.042251 0.803172 0.664610
Si Si4 0.382535 0.332809 0.252116
Si Si5 0.999220 0.748101 0.068748
Si Si6 0.753006 0.595989 0.568249
Si Si7 0.170950 0.829051 0.264282
O O1 0.750000 0.250000 0.144363
O O2 0.779931 0.404315 0.095007
O O3 0.855254 0.355254 0.198468
O O4 0.519933 0.480068 0.867586
O O5 0.583255 0.627161 0.809023
O O6 0.520802 0.645296 0.911330
O O7 0.677386 0.567062 0.899588
O O8 0.123751 0.876250 0.651906
O O9 0.086477 0.720025 0.702598
O O10 0.961340 0.853954 0.701085
O O11 0.993007 0.762383 0.608078
O O12 0.278573 0.371603 0.257614
O O13 0.994312 0.750000 0.000000
O O14 0.840667 0.663218 0.580208
O O15 0.750000 0.574671 0.500000
O O16 0.250000 0.750000 0.263360
#
# Coordination Sequence:
#
# PCOD9563225 Si02
#       7
#     8  16  16  16  16  16   8
#     4  11  24  44  69  95 128 171 226 282 341 405
#     4  12  25  45  66  95 133 167 215 275 342 400
#     4  11  22  40  64  97 136 172 221 269 328 396
#     4  11  23  42  66  93 127 168 219 272 328 398
#     4  12  27  43  67  95 127 171 218 272 338 414
#     4   9  19  41  67  93 132 179 224 270 321 377
#     4   9  22  42  62  88 132 178 209 261 337 400
#
# _framework density 19.813559999999999
#
# number of rings (size 3 to 8) (size 9 to 14) (size 15 to 20)
#    0.000    1.167    2.500    4.000    2.333    3.667 
#    7.500    1.667    0.000    0.000    0.000    0.000 
#    0.000    0.000    0.000    0.000    0.000    0.000 
#
# Total GULP energy -536141.707269 kJ/mol
# GULP energy per Si atom -5584.809451 kJ/mol
# Density = 1.976846 g / cm^3
# Si number density = 19.813560 Si / 1000 Ang^3
#
#
#
# Elastic Constant Matrix: (Units=GPa)
#
#
# Indices 1 2 3 4 5 6 
#
# 1 73.7670 0.4693 12.9435 0.0000 0.0000 0.0000
# 2 0.4693 73.7670 12.9435 0.0000 0.0000 0.0000
# 3 12.9435 12.9435 47.6314 0.0000 0.0000 0.0000
# 4 0.0000 0.0000 0.0000 18.7088 0.0000 0.0000
# 5 0.0000 0.0000 0.0000 0.0000 18.7088 0.0000
# 6 0.0000 0.0000 0.0000 0.0000 0.0000 21.6254
#
#
#
# Elastic Compliance Matrix: (Units=1/GPa)
#
#
# Indices 1 2 3 4 5 6 
#
# 1 0.014262 0.000619 -0.004044 0.000000 0.000000 0.000000
# 2 0.000619 0.014262 -0.004044 0.000000 0.000000 0.000000
# 3 -0.004044 -0.004044 0.023192 0.000000 0.000000 0.000000
# 4 0.000000 0.000000 0.000000 0.053451 0.000000 0.000000
# 5 0.000000 0.000000 0.000000 0.000000 0.053451 0.000000
# 6 0.000000 0.000000 0.000000 0.000000 0.000000 0.046242
#
#
# Mechanical properties :
#
#
# Convention : Reuss Voigt Hill
#
# Bulk Modulus (GPa) = 27.18972 27.54201 27.36587
# Shear Modulus (GPa) = 21.54655 23.06257 22.30456
#
# Velocity S-wave (km/s) = 3.30125 3.41541 3.35882
# Velocity P-wave (km/s) = 5.31823 5.42993 5.37437
#
# Compressibility (1/GPa) = 0.03677861
#
# Stress axis : x y z
#
# Youngs Moduli (GPa) = 70.11747 70.11747 43.11783
#
# Poissons Ratio (x) = -0.04339 0.17436
# Poissons Ratio (y) = -0.04339 0.17436
# Poissons Ratio (z) = 0.28353 0.28353
#
# Static dielectric constant tensor:
#      x y z
#    x 1.695880 0.000000 0.000000 
#    y 0.000000 1.695880 0.000000 
#    z 0.000000 0.000000 1.679870 
# 
# From -- ./inp_files/5976.got.cif
#   From: 2010.05.17/outbox.cif.g08.bks.cpg/sg125_3_cif.got.tgz:5976.got - 2010.05.20 11:54:10.
