data_PCOD9563970
_publ_section_title
;
Structure prediction by ZEFSAII (Michael W. Deem and Ramdas Pophale) SiO2 
 PCOD9563970
Probable space group: P 4/M B M
;
_chemical_formula_sum "Si O2"
_cell_formula_units_Z 96
_cell_length_a 25.626853
_cell_length_b 25.626853
_cell_length_c 9.140704
_cell_angle_alpha 90.000000
_cell_angle_beta 90.000000
_cell_angle_gamma 90.000000
_cell_volume 6003.025677
_symmetry_space_group_name_H-M "P 4/M B M"
_symmetry_group_IT_number 127
_symmetry_cell_setting 'tetragonal'
loop_
_space_group_symop_operation_xyz
x,y,z
-y,x,z
-x,-y,z
y,-x,z
1/2+x,1/2-y,-z
1/2-x,1/2+y,-z
1/2+y,1/2+x,-z
1/2-y,1/2-x,-z
-x,-y,-z
y,-x,-z
x,y,-z
-y,x,-z
1/2-x,1/2+y,z
1/2+x,1/2-y,z
1/2-y,1/2-x,z
1/2+y,1/2+x,z
loop_
_atom_site_type_symbol
_atom_site_label
_atom_site_fract_x
_atom_site_fract_y
_atom_site_fract_z
Si Si1 0.744067 0.535348 0.676170
Si Si2 0.226336 0.184947 0.170356
Si Si3 0.763275 0.651551 0.325293
Si Si4 0.241962 0.078505 0.665952
Si Si5 0.439949 0.382341 0.667196
Si Si6 0.457053 0.632668 0.826275
O O1 0.732693 0.533850 0.500000
O O2 0.772831 0.590275 0.704573
O O3 0.766721 0.477616 0.711121
O O4 0.691618 0.541293 0.769394
O O5 0.273057 0.226944 0.184446
O O6 0.176936 0.212061 0.250661
O O7 0.245381 0.130079 0.236743
O O8 0.213562 0.178159 0.000000
O O9 0.755830 0.656587 0.500000
O O10 0.812230 0.687771 0.282100
O O11 0.258850 0.090629 0.500000
O O12 0.180034 0.066051 0.662878
O O13 0.437909 0.401453 0.500000
O O14 0.394354 0.405821 0.764335
O O15 0.494164 0.394956 0.746470
O O16 0.461196 0.629624 0.000000
#
# Coordination Sequence:
#
# PCOD9563970 Si02
#       6
#    16  16  16  16  16  16
#     4   9  18  32  47  65  90 118 147 179 219 265
#     4  10  20  31  44  66  95 122 149 186 229 268
#     4   9  17  30  49  70  92 121 154 184 218 267
#     4   9  18  31  47  64  84 114 149 181 214 261
#     4  10  20  34  47  59  79 109 142 178 223 266
#     4  11  21  31  44  63  82 104 141 184 222 261
#
# _framework density 15.991935
#
# number of rings (size 3 to 8) (size 9 to 14) (size 15 to 20)
#    0.000    2.333    0.000    4.500    0.000    9.333 
#    0.000    1.667    0.000    0.000    0.000    0.000 
#    0.000    0.667    0.000    8.333    0.000    1.333 
#
# Total GULP energy -534716.936784 kJ/mol
# GULP energy per Si atom -5569.968092 kJ/mol
# Density = 1.595554 g / cm^3
# Si number density = 15.991935 Si / 1000 Ang^3
#
#
#
# Elastic Constant Matrix: (Units=GPa)
#
#
# Indices 1 2 3 4 5 6 
#
# 1 48.8091 -8.1239 13.7362 0.0000 0.0000 0.0000
# 2 -8.1239 48.8091 13.7362 0.0000 0.0000 0.0000
# 3 13.7362 13.7362 46.5435 0.0000 0.0000 0.0000
# 4 0.0000 0.0000 0.0000 9.2331 0.0000 0.0000
# 5 0.0000 0.0000 0.0000 0.0000 9.2331 0.0000
# 6 0.0000 0.0000 0.0000 0.0000 0.0000 16.1260
#
#
#
# Elastic Compliance Matrix: (Units=1/GPa)
#
#
# Indices 1 2 3 4 5 6 
#
# 1 0.024130 0.006566 -0.009059 0.000000 0.000000 0.000000
# 2 0.006566 0.024130 -0.009059 0.000000 0.000000 0.000000
# 3 -0.009059 -0.009059 0.026833 0.000000 0.000000 0.000000
# 4 0.000000 0.000000 0.000000 0.108306 0.000000 0.000000
# 5 0.000000 0.000000 0.000000 0.000000 0.108306 0.000000
# 6 0.000000 0.000000 0.000000 0.000000 0.000000 0.062012
#
#
# Mechanical properties :
#
#
# Convention : Reuss Voigt Hill
#
# Bulk Modulus (GPa) = 19.23526 20.31765 19.77646
# Shear Modulus (GPa) = 12.68548 15.23932 13.96240
#
# Velocity S-wave (km/s) = 2.81951 3.09032 2.95802
# Velocity P-wave (km/s) = 4.75959 5.04638 4.90508
#
# Compressibility (1/GPa) = 0.05198785
#
# Stress axis : x y z
#
# Youngs Moduli (GPa) = 41.44161 41.44161 37.26822
#
# Poissons Ratio (x) = -0.27210 0.33762
# Poissons Ratio (y) = -0.27210 0.33762
# Poissons Ratio (z) = 0.37543 0.37543
#
# Static dielectric constant tensor:
#      x y z
#    x 1.569690 0.000000 0.000000 
#    y 0.000000 1.569690 0.000000 
#    z 0.000000 0.000000 1.534680 
# 
# From -- ./inp_files/1925.got.cif
#   From: 2010.05.17/outbox.cif.g08.bks.cpg/sg127_1_cif.got.tgz:1925.got - 2010.05.20 12:03:00.
