data_PCOD9563404
_publ_section_title
;
Structure prediction by ZEFSAII (Michael W. Deem and Ramdas Pophale) SiO2 
 PCOD9563404
Probable space group: P 4/N N C
;
_chemical_formula_sum "Si O2"
_cell_formula_units_Z 128
_cell_length_a 23.148622
_cell_length_b 23.148622
_cell_length_c 13.308388
_cell_angle_alpha 90.000000
_cell_angle_beta 90.000000
_cell_angle_gamma 90.000000
_cell_volume 7131.415499
_symmetry_space_group_name_H-M "P 4/N N C"
_symmetry_group_IT_number 126
_space_group.IT_coordinate_system_code '2'
_symmetry_cell_setting 'tetragonal'
loop_
_space_group_symop_operation_xyz
x,y,z
1/2-y,x,z
1/2-x,1/2-y,z
y,1/2-x,z
x,1/2-y,1/2-z
1/2-x,y,1/2-z
y,x,1/2-z
1/2-y,1/2-x,1/2-z
-x,-y,-z
1/2+y,-x,-z
1/2+x,1/2+y,-z
-y,1/2+x,-z
-x,1/2+y,1/2+z
1/2+x,-y,1/2+z
-y,-x,1/2+z
1/2+y,1/2+x,1/2+z
loop_
_atom_site_type_symbol
_atom_site_label
_atom_site_fract_x
_atom_site_fract_y
_atom_site_fract_z
Si Si1 0.815051 0.187440 0.535355
Si Si2 0.573868 0.506545 0.163983
Si Si3 0.686840 0.494533 0.293440
Si Si4 0.686171 0.399339 0.705969
Si Si5 0.392074 0.972812 0.065107
Si Si6 0.895669 0.127578 0.887996
Si Si7 0.876082 0.578526 0.049037
Si Si8 0.818023 0.680984 0.135490
O O1 0.754892 0.175044 0.477766
O O2 0.811627 0.162390 0.647573
O O3 0.861531 0.152631 0.471580
O O4 0.534924 0.534924 0.250000
O O5 0.637062 0.492348 0.208591
O O6 0.543007 0.449490 0.124552
O O7 0.580501 0.557658 0.084178
O O8 0.750000 0.506286 0.250000
O O9 0.682710 0.431858 0.347298
O O10 0.664639 0.543280 0.371431
O O11 0.750000 0.411428 0.750000
O O12 0.662112 0.442229 0.619978
O O13 0.638393 0.399048 0.794268
O O14 0.403432 0.945865 0.952962
O O15 0.377088 0.039662 0.050072
O O16 0.851392 0.642743 0.055049
O O17 0.828401 0.749307 0.126906
O O18 0.835963 0.664038 0.250000
#
# Coordination Sequence:
#
# PCOD9563404 Si02
#       8
#    16  16  16  16  16  16  16  16
#     4  10  21  33  49  75 101 141 196 240 286 343
#     4  10  20  37  60  82 113 157 188 240 295 347
#     4  10  21  32  52  81 113 149 188 234 285 344
#     4  11  21  39  58  73 111 153 189 247 300 337
#     4  10  22  40  59  82 113 151 201 243 290 353
#     4  10  21  36  52  77 109 149 191 237 295 339
#     4  10  21  35  54  85 117 145 189 234 278 344
#     4   9  18  32  55  85 122 160 184 216 284 366
#
# _framework density 17.948751000000001
#
# number of rings (size 3 to 8) (size 9 to 14) (size 15 to 20)
#    0.000    2.000    2.500    1.875    5.250    0.000 
#    2.250    0.000    0.000    0.000    0.000    0.000 
#    0.000    0.000    0.000    0.000    0.000    0.000 
#
# Total GULP energy -713168.381074 kJ/mol
# GULP energy per Si atom -5571.627977 kJ/mol
# Density = 1.790790 g / cm^3
# Si number density = 17.948751 Si / 1000 Ang^3
#
#
#
# Elastic Constant Matrix: (Units=GPa)
#
#
# Indices 1 2 3 4 5 6 
#
# 1 66.9166 17.7287 20.5787 0.0000 0.0000 0.0000
# 2 17.7287 66.9158 20.5785 0.0000 0.0000 0.0000
# 3 20.5787 20.5785 57.9221 0.0000 0.0000 0.0000
# 4 0.0000 0.0000 0.0000 14.3322 0.0000 0.0000
# 5 0.0000 0.0000 0.0000 0.0000 14.3321 0.0000
# 6 0.0000 0.0000 0.0000 0.0000 0.0000 17.4437
#
#
#
# Elastic Compliance Matrix: (Units=1/GPa)
#
#
# Indices 1 2 3 4 5 6 
#
# 1 0.017306 -0.003025 -0.005074 0.000000 0.000000 0.000000
# 2 -0.003025 0.017306 -0.005074 0.000000 0.000000 0.000000
# 3 -0.005074 -0.005074 0.020870 0.000000 0.000000 0.000000
# 4 0.000000 0.000000 0.000000 0.069773 0.000000 0.000000
# 5 0.000000 0.000000 0.000000 0.000000 0.069773 0.000000
# 6 0.000000 0.000000 0.000000 0.000000 0.000000 0.057327
#
#
# Mechanical properties :
#
#
# Convention : Reuss Voigt Hill
#
# Bulk Modulus (GPa) = 34.32082 34.39181 34.35632
# Shear Modulus (GPa) = 17.33633 18.07951 17.70792
#
# Velocity S-wave (km/s) = 3.11123 3.17722 3.14440
# Velocity P-wave (km/s) = 5.66299 5.71510 5.68910
#
# Compressibility (1/GPa) = 0.02913683
#
# Stress axis : x y z
#
# Youngs Moduli (GPa) = 57.78460 57.78399 47.91609
#
# Poissons Ratio (x) = 0.17477 0.24312
# Poissons Ratio (y) = 0.17478 0.24312
# Poissons Ratio (z) = 0.29319 0.29319
#
# Static dielectric constant tensor:
#      x y z
#    x 1.638870 0.000000 0.000000 
#    y 0.000000 1.638870 0.000000 
#    z 0.000000 0.000000 1.643320 
# 
# From -- ./inp_files/3085.got.cif
#   From: 2010.05.17/outbox.cif.g08.bks.cpg/sg126_2_cif.got.tgz:3085.got - 2010.05.20 11:58:20.
