data_PCOD9563407
_publ_section_title
;
Structure prediction by ZEFSAII (Michael W. Deem and Ramdas Pophale) SiO2 
 PCOD9563407
Probable space group: P 4/N N C
;
_chemical_formula_sum "Si O2"
_cell_formula_units_Z 44
_cell_length_a 11.395665
_cell_length_b 11.395665
_cell_length_c 13.927905
_cell_angle_alpha 90.000000
_cell_angle_beta 90.000000
_cell_angle_gamma 90.000000
_cell_volume 1808.694189
_symmetry_space_group_name_H-M "P 4/N N C"
_symmetry_group_IT_number 126
_space_group.IT_coordinate_system_code '2'
_symmetry_cell_setting 'tetragonal'
loop_
_space_group_symop_operation_xyz
x,y,z
1/2-y,x,z
1/2-x,1/2-y,z
y,1/2-x,z
x,1/2-y,1/2-z
1/2-x,y,1/2-z
y,x,1/2-z
1/2-y,1/2-x,1/2-z
-x,-y,-z
1/2+y,-x,-z
1/2+x,1/2+y,-z
-y,1/2+x,-z
-x,1/2+y,1/2+z
1/2+x,-y,1/2+z
-y,-x,1/2+z
1/2+y,1/2+x,1/2+z
loop_
_atom_site_type_symbol
_atom_site_label
_atom_site_fract_x
_atom_site_fract_y
_atom_site_fract_z
Si Si1 0.876021 0.479819 0.443923
Si Si2 0.250000 0.750000 0.000000
Si Si3 0.815557 0.570549 0.634528
Si Si4 0.016430 0.483571 0.750000
O O1 0.826637 0.346968 0.443131
O O2 0.799017 0.548536 0.520961
O O3 0.000000 0.500000 0.500000
O O4 0.890371 0.522188 0.335636
O O5 0.895111 0.683789 0.659168
O O6 0.891828 0.472542 0.690027
#
# Coordination Sequence:
#
# PCOD9563407 Si02
#       4
#    16   4  16   8
#     4  10  22  41  63  95 135 172 220 276 331 398
#     4  12  24  44  70  96 140 190 220 272 350 400
#     4  10  20  38  63  90 125 169 218 273 331 392
#     4  10  20  37  62  93 126 166 222 282 326 391
#
# _framework density 24.326944999999998
#
# number of rings (size 3 to 8) (size 9 to 14) (size 15 to 20)
#    0.000    1.818    0.000    5.455    0.000    4.364 
#    0.000   23.636    0.000    2.182    0.000    0.000 
#    0.000    0.000    0.000    0.000    0.000    0.000 
#
# Total GULP energy -245024.811232 kJ/mol
# GULP energy per Si atom -5568.745710 kJ/mol
# Density = 2.427158 g / cm^3
# Si number density = 24.326945 Si / 1000 Ang^3
#
#
#
# Elastic Constant Matrix: (Units=GPa)
#
#
# Indices 1 2 3 4 5 6 
#
# 1 32.0250 35.6186 28.6332 0.0000 0.0000 0.0000
# 2 35.6186 32.0258 28.6330 0.0000 0.0000 0.0000
# 3 28.6332 28.6330 222.4769 0.0000 0.0000 0.0000
# 4 0.0000 0.0000 0.0000 32.8372 0.0000 0.0000
# 5 0.0000 0.0000 0.0000 0.0000 32.8374 0.0000
# 6 0.0000 0.0000 0.0000 0.0000 0.0000 39.4884
#
#
#
# Elastic Compliance Matrix: (Units=1/GPa)
#
#
# Indices 1 2 3 4 5 6 
#
# 1 -0.130858 0.147447 -0.002135 0.000000 0.000000 0.000000
# 2 0.147447 -0.130854 -0.002136 0.000000 0.000000 0.000000
# 3 -0.002135 -0.002136 0.005044 0.000000 0.000000 0.000000
# 4 0.000000 0.000000 0.000000 0.030453 0.000000 0.000000
# 5 0.000000 0.000000 0.000000 0.000000 0.030453 0.000000
# 6 0.000000 0.000000 0.000000 0.000000 0.000000 0.025324
#
#
# Mechanical properties :
#
#
# Convention : Reuss Voigt Hill
#
# Bulk Modulus (GPa) = 33.68672 52.47747 43.08209
# Shear Modulus (GPa) = -11.18829 33.94212 11.37691
#
# Velocity S-wave (km/s) = -2.14689 3.73935 2.16491
# Velocity P-wave (km/s) = 2.78066 6.34526 4.89869
#
# Compressibility (1/GPa) = 0.02968529
#
# Stress axis : x y z
#
# Youngs Moduli (GPa) = -7.64186 -7.64209 198.23663
#
# Poissons Ratio (x) = 1.12680 0.42321
# Poissons Ratio (y) = 1.12677 0.42337
# Poissons Ratio (z) = -0.01631 -0.01632
#
# Static dielectric constant tensor:
#      x y z
#    x 2.064220 0.000000 0.000000 
#    y 0.000000 2.064220 0.000000 
#    z 0.000000 0.000000 2.133040 
# 
# From -- ./inp_files/2262.got.cif
#   From: 2010.05.17/outbox.cif.g08.bks.cpg/sg126_2_cif.got.tgz:2262.got - 2010.05.20 11:58:20.
