data_PCOD9563484
_publ_section_title
;
Structure prediction by ZEFSAII (Michael W. Deem and Ramdas Pophale) SiO2 
 PCOD9563484
Probable space group: P 4/N N C
;
_chemical_formula_sum "Si O2"
_cell_formula_units_Z 120
_cell_length_a 20.041751
_cell_length_b 20.041751
_cell_length_c 14.074702
_cell_angle_alpha 90.000000
_cell_angle_beta 90.000000
_cell_angle_gamma 90.000000
_cell_volume 5653.410650
_symmetry_space_group_name_H-M "P 4/N N C"
_symmetry_group_IT_number 126
_space_group.IT_coordinate_system_code '2'
_symmetry_cell_setting 'tetragonal'
loop_
_space_group_symop_operation_xyz
x,y,z
1/2-y,x,z
1/2-x,1/2-y,z
y,1/2-x,z
x,1/2-y,1/2-z
1/2-x,y,1/2-z
y,x,1/2-z
1/2-y,1/2-x,1/2-z
-x,-y,-z
1/2+y,-x,-z
1/2+x,1/2+y,-z
-y,1/2+x,-z
-x,1/2+y,1/2+z
1/2+x,-y,1/2+z
-y,-x,1/2+z
1/2+y,1/2+x,1/2+z
loop_
_atom_site_type_symbol
_atom_site_label
_atom_site_fract_x
_atom_site_fract_y
_atom_site_fract_z
Si Si1 0.427805 0.010344 0.047698
Si Si2 0.549887 0.250000 0.750000
Si Si3 0.643046 0.931950 0.665053
Si Si4 0.820607 0.057941 0.932879
Si Si5 0.246866 0.825737 0.363333
Si Si6 0.241086 0.138842 0.045649
Si Si7 0.788993 0.987471 0.447633
Si Si8 0.623659 0.100767 0.373039
O O1 0.413998 0.956075 0.133079
O O2 0.423070 0.086064 0.084908
O O3 0.500000 0.000000 0.000000
O O4 0.366523 0.005652 0.973942
O O5 0.510308 0.223939 0.658806
O O6 0.584010 0.318138 0.705169
O O7 0.609065 0.890936 0.750000
O O8 0.715804 0.902255 0.637768
O O9 0.655153 0.011688 0.653967
O O10 0.809418 0.132688 0.899375
O O11 0.863096 0.059923 0.029200
O O12 0.751004 0.030815 0.974702
O O13 0.250000 0.750000 0.395540
O O14 0.250000 0.826242 0.250000
O O15 0.178017 0.860530 0.391601
O O16 0.307710 0.181925 0.042818
O O17 0.254529 0.084535 0.964561
#
# Coordination Sequence:
#
# PCOD9563484 Si02
#       8
#    16   8  16  16  16  16  16  16
#     4  12  24  44  68  98 142 189 233 288 367 438
#     4  10  24  44  73 103 136 184 246 298 348 426
#     4  11  25  42  65 104 138 179 236 284 350 432
#     4  10  23  42  65  91 133 183 225 284 350 422
#     4  11  25  40  62  98 132 171 228 291 346 416
#     4  10  21  43  73 100 138 182 224 284 354 432
#     4  10  22  44  70  98 136 183 234 290 354 416
#     4  11  24  43  65  95 135 180 234 288 357 420
#
# _framework density 21.226125
#
# number of rings (size 3 to 8) (size 9 to 14) (size 15 to 20)
#    0.000    1.333    4.000    0.800    3.733    2.667 
#    0.000    2.667    0.000    0.800    0.000    0.000 
#    0.000    0.000    0.000    0.000    0.000    0.000 
#
# Total GULP energy -668065.886297 kJ/mol
# GULP energy per Si atom -5567.215719 kJ/mol
# Density = 2.117781 g / cm^3
# Si number density = 21.226125 Si / 1000 Ang^3
#
#
#
# Elastic Constant Matrix: (Units=GPa)
#
#
# Indices 1 2 3 4 5 6 
#
# 1 100.1006 40.6104 33.2427 0.0000 0.0000 0.0000
# 2 40.6104 100.1014 33.2434 0.0000 0.0000 0.0000
# 3 33.2427 33.2434 99.0732 0.0000 0.0000 0.0000
# 4 0.0000 0.0000 0.0000 25.3391 0.0000 0.0000
# 5 0.0000 0.0000 0.0000 0.0000 25.3393 0.0000
# 6 0.0000 0.0000 0.0000 0.0000 0.0000 36.3223
#
#
#
# Elastic Compliance Matrix: (Units=1/GPa)
#
#
# Indices 1 2 3 4 5 6 
#
# 1 0.012628 -0.004182 -0.002834 0.000000 0.000000 0.000000
# 2 -0.004182 0.012628 -0.002834 0.000000 0.000000 0.000000
# 3 -0.002834 -0.002834 0.011995 0.000000 0.000000 0.000000
# 4 0.000000 0.000000 0.000000 0.039465 0.000000 0.000000
# 5 0.000000 0.000000 0.000000 0.000000 0.039464 0.000000
# 6 0.000000 0.000000 0.000000 0.000000 0.000000 0.027531
#
#
# Mechanical properties :
#
#
# Convention : Reuss Voigt Hill
#
# Bulk Modulus (GPa) = 56.97596 57.05203 57.01400
# Shear Modulus (GPa) = 29.54026 30.21204 29.87615
#
# Velocity S-wave (km/s) = 3.73459 3.77681 3.75576
# Velocity P-wave (km/s) = 6.74513 6.77906 6.76212
#
# Compressibility (1/GPa) = 0.01755126
#
# Stress axis : x y z
#
# Youngs Moduli (GPa) = 79.19171 79.19200 83.36587
#
# Poissons Ratio (x) = 0.33117 0.23625
# Poissons Ratio (y) = 0.33116 0.23625
# Poissons Ratio (z) = 0.22442 0.22443
#
# Static dielectric constant tensor:
#      x y z
#    x 1.841930 0.000000 0.000000 
#    y 0.000000 1.841930 0.000000 
#    z 0.000000 0.000000 1.761210 
# 
# From -- ./inp_files/3960.got.cif
#   From: 2010.05.17/outbox.cif.g08.bks.cpg/sg126_2_cif.got.tgz:3960.got - 2010.05.20 11:58:20.
