data_PCOD9563850
_publ_section_title
;
Structure prediction by ZEFSAII (Michael W. Deem and Ramdas Pophale) SiO2 
 PCOD9563850
Probable space group: P 4/M B M
;
_chemical_formula_sum "Si O2"
_cell_formula_units_Z 120
_cell_length_a 18.112424
_cell_length_b 18.112424
_cell_length_c 22.534356
_cell_angle_alpha 90.000000
_cell_angle_beta 90.000000
_cell_angle_gamma 90.000000
_cell_volume 7392.618647
_symmetry_space_group_name_H-M "P 4/M B M"
_symmetry_group_IT_number 127
_symmetry_cell_setting 'tetragonal'
loop_
_space_group_symop_operation_xyz
x,y,z
-y,x,z
-x,-y,z
y,-x,z
1/2+x,1/2-y,-z
1/2-x,1/2+y,-z
1/2+y,1/2+x,-z
1/2-y,1/2-x,-z
-x,-y,-z
y,-x,-z
x,y,-z
-y,x,-z
1/2-x,1/2+y,z
1/2+x,1/2-y,z
1/2-y,1/2-x,z
1/2+y,1/2+x,z
loop_
_atom_site_type_symbol
_atom_site_label
_atom_site_fract_x
_atom_site_fract_y
_atom_site_fract_z
Si Si1 0.241044 0.376410 0.156177
Si Si2 0.712255 0.092475 0.290194
Si Si3 0.070441 0.900647 0.571376
Si Si4 0.782470 0.458777 0.128837
Si Si5 0.334475 0.287836 0.065387
Si Si6 0.796233 0.417535 0.265057
Si Si7 0.437844 0.062157 0.930494
Si Si8 0.199313 0.178395 0.645592
O O1 0.163950 0.336051 0.140777
O O2 0.244065 0.379046 0.226984
O O3 0.244587 0.459416 0.136486
O O4 0.301875 0.332971 0.119840
O O5 0.632618 0.132618 0.297278
O O6 0.768274 0.131116 0.335918
O O7 0.705582 0.003325 0.287431
O O8 0.074318 0.895205 0.500000
O O9 0.118940 0.836178 0.600759
O O10 0.983134 0.900125 0.587809
O O11 0.732869 0.416604 0.081655
O O12 0.782601 0.420675 0.193945
O O13 0.864425 0.462173 0.103068
O O14 0.288498 0.211503 0.065092
O O15 0.325085 0.321534 0.000000
O O16 0.874000 0.374000 0.274386
O O17 0.735275 0.368843 0.300103
O O18 0.500000 0.000000 0.926659
O O19 0.422978 0.077023 0.000000
O O20 0.265728 0.234273 0.625423
#
# Coordination Sequence:
#
# PCOD9563850 Si02
#       8
#    16  16  16  16  16  16   8  16
#     4   9  19  33  48  68  91 118 154 196 241 291
#     4   9  18  31  47  69  96 127 160 200 246 289
#     4   9  18  33  53  77 105 138 173 211 255 298
#     4  11  19  33  50  68  94 122 156 199 246 300
#     4  10  19  31  47  64  85 116 151 187 233 294
#     4  10  19  31  48  72  95 129 165 200 247 298
#     4  11  22  32  46  70  98 126 155 198 256 312
#     4  10  19  31  50  74 105 135 169 208 245 292
#
# _framework density 16.232409000000001
#
# number of rings (size 3 to 8) (size 9 to 14) (size 15 to 20)
#    0.000    2.200    1.333    2.800    0.000    4.267 
#    0.000    1.333    0.000    0.400    0.000    4.667 
#    0.000    0.000    0.000   24.800    0.000    0.000 
#
# Total GULP energy -668038.805369 kJ/mol
# GULP energy per Si atom -5566.990045 kJ/mol
# Density = 1.619546 g / cm^3
# Si number density = 16.232409 Si / 1000 Ang^3
#
#
#
# Elastic Constant Matrix: (Units=GPa)
#
#
# Indices 1 2 3 4 5 6 
#
# 1 61.7505 38.4858 29.2642 0.0000 0.0000 0.0000
# 2 38.4858 61.7503 29.2643 0.0000 0.0000 0.0000
# 3 29.2642 29.2643 39.0980 0.0000 0.0000 0.0000
# 4 0.0000 0.0000 0.0000 28.0894 0.0000 0.0000
# 5 0.0000 0.0000 0.0000 0.0000 28.0891 0.0000
# 6 0.0000 0.0000 0.0000 0.0000 0.0000 50.0736
#
#
#
# Elastic Compliance Matrix: (Units=1/GPa)
#
#
# Indices 1 2 3 4 5 6 
#
# 1 0.030353 -0.012631 -0.013264 0.000000 0.000000 0.000000
# 2 -0.012631 0.030353 -0.013264 0.000000 0.000000 0.000000
# 3 -0.013264 -0.013264 0.045433 0.000000 0.000000 0.000000
# 4 0.000000 0.000000 0.000000 0.035601 0.000000 0.000000
# 5 0.000000 0.000000 0.000000 0.000000 0.035601 0.000000
# 6 0.000000 0.000000 0.000000 0.000000 0.000000 0.019971
#
#
# Mechanical properties :
#
#
# Convention : Reuss Voigt Hill
#
# Bulk Modulus (GPa) = 35.94682 39.62527 37.78605
# Shear Modulus (GPa) = 17.54985 25.62272 21.58629
#
# Velocity S-wave (km/s) = 3.29167 3.97733 3.65063
# Velocity P-wave (km/s) = 6.05309 6.74955 6.41079
#
# Compressibility (1/GPa) = 0.02781887
#
# Stress axis : x y z
#
# Youngs Moduli (GPa) = 32.94617 32.94596 22.01046
#
# Poissons Ratio (x) = 0.41614 0.29195
# Poissons Ratio (y) = 0.41615 0.29196
# Poissons Ratio (z) = 0.43700 0.43701
#
# Static dielectric constant tensor:
#      x y z
#    x 1.544460 0.000000 0.000000 
#    y 0.000000 1.544460 0.000000 
#    z 0.000000 0.000000 1.574650 
# 
# From -- ./inp_files/5996.got.cif
#   From: 2010.05.17/outbox.cif.g08.bks.cpg/sg127_3_cif.got.tgz:5996.got - 2010.05.20 12:03:00.
