data_PCOD9563674
_publ_section_title
;
Structure prediction by ZEFSAII (Michael W. Deem and Ramdas Pophale) SiO2 
 PCOD9563674
Probable space group: P 4/N N C
;
_chemical_formula_sum "Si O2"
_cell_formula_units_Z 64
_cell_length_a 10.963891
_cell_length_b 10.963891
_cell_length_c 20.425959
_cell_angle_alpha 90.000000
_cell_angle_beta 90.000000
_cell_angle_gamma 90.000000
_cell_volume 2455.341331
_symmetry_space_group_name_H-M "P 4/N N C"
_symmetry_group_IT_number 126
_space_group.IT_coordinate_system_code '2'
_symmetry_cell_setting 'tetragonal'
loop_
_space_group_symop_operation_xyz
x,y,z
1/2-y,x,z
1/2-x,1/2-y,z
y,1/2-x,z
x,1/2-y,1/2-z
1/2-x,y,1/2-z
y,x,1/2-z
1/2-y,1/2-x,1/2-z
-x,-y,-z
1/2+y,-x,-z
1/2+x,1/2+y,-z
-y,1/2+x,-z
-x,1/2+y,1/2+z
1/2+x,-y,1/2+z
-y,-x,1/2+z
1/2+y,1/2+x,1/2+z
loop_
_atom_site_type_symbol
_atom_site_label
_atom_site_fract_x
_atom_site_fract_y
_atom_site_fract_z
Si Si1 0.438357 0.614571 0.267227
Si Si2 0.670792 0.065506 0.516304
Si Si3 0.323996 0.442510 0.156697
Si Si4 0.571465 0.845541 0.110589
O O1 0.401662 0.750000 0.250000
O O2 0.578283 0.578283 0.250000
O O3 0.527409 0.364754 0.282528
O O4 0.455860 0.612491 0.345719
O O5 0.598735 0.188817 0.499752
O O6 0.656024 0.017217 0.589911
O O7 0.634684 0.962028 0.464788
O O8 0.183951 0.398703 0.159584
O O9 0.590824 0.701222 0.123086
#
# Coordination Sequence:
#
# PCOD9563674 Si02
#       4
#    16  16  16  16
#     4  12  26  48  80 122 164 219 271 344 412 491
#     4  11  26  48  79 120 161 208 275 348 416 490
#     4  11  28  56  85 119 166 224 280 336 417 507
#     4  11  24  45  77 116 157 207 271 341 417 491
#
# _framework density 26.065621
#
# number of rings (size 3 to 8) (size 9 to 14) (size 15 to 20)
#    0.000    0.750    2.500    3.000    3.500    5.250 
#    0.000    5.000    0.000    0.000    0.000    0.000 
#    0.000    0.000    0.000    0.000    0.000    0.000 
#
# Total GULP energy -358544.182935 kJ/mol
# GULP energy per Si atom -5602.252858 kJ/mol
# Density = 2.600629 g / cm^3
# Si number density = 26.065621 Si / 1000 Ang^3
#
#
#
# Elastic Constant Matrix: (Units=GPa)
#
#
# Indices 1 2 3 4 5 6 
#
# 1 170.7921 77.8248 89.4114 0.0000 0.0000 0.0000
# 2 77.8248 170.7921 89.4114 0.0000 0.0000 0.0000
# 3 89.4114 89.4114 240.5847 0.0000 0.0000 0.0000
# 4 0.0000 0.0000 0.0000 52.5332 0.0000 0.0000
# 5 0.0000 0.0000 0.0000 0.0000 52.5332 0.0000
# 6 0.0000 0.0000 0.0000 0.0000 0.0000 43.0870
#
#
#
# Elastic Compliance Matrix: (Units=1/GPa)
#
#
# Indices 1 2 3 4 5 6 
#
# 1 0.008123 -0.002633 -0.002040 0.000000 0.000000 0.000000
# 2 -0.002633 0.008123 -0.002040 0.000000 0.000000 0.000000
# 3 -0.002040 -0.002040 0.005673 0.000000 0.000000 0.000000
# 4 0.000000 0.000000 0.000000 0.019036 0.000000 0.000000
# 5 0.000000 0.000000 0.000000 0.000000 0.019036 0.000000
# 6 0.000000 0.000000 0.000000 0.000000 0.000000 0.023209
#
#
# Mechanical properties :
#
#
# Convention : Reuss Voigt Hill
#
# Bulk Modulus (GPa) = 117.76361 121.71825 119.74093
# Shear Modulus (GPa) = 50.27281 51.33208 50.80244
#
# Velocity S-wave (km/s) = 4.39646 4.44254 4.41956
# Velocity P-wave (km/s) = 8.42909 8.55062 8.49007
#
# Compressibility (1/GPa) = 0.00849159
#
# Stress axis : x y z
#
# Youngs Moduli (GPa) = 123.10576 123.10576 176.27366
#
# Poissons Ratio (x) = 0.32418 0.35964
# Poissons Ratio (y) = 0.32418 0.35964
# Poissons Ratio (z) = 0.25116 0.25116
#
# Static dielectric constant tensor:
#      x y z
#    x 2.126670 0.000000 0.000000 
#    y 0.000000 2.126670 0.000000 
#    z 0.000000 0.000000 2.053410 
# 
# From -- ./inp_files/4939.got.cif
#   From: 2010.05.17/outbox.cif.g08.bks.cpg/sg126_3_cif.got.tgz:4939.got - 2010.05.20 11:58:20.
