data_PCOD9563743
_publ_section_title
;
Structure prediction by ZEFSAII (Michael W. Deem and Ramdas Pophale) SiO2 
 PCOD9563743
Probable space group: P 4/M B M
;
_chemical_formula_sum "Si O2"
_cell_formula_units_Z 96
_cell_length_a 23.790383
_cell_length_b 23.790383
_cell_length_c 7.385235
_cell_angle_alpha 90.000000
_cell_angle_beta 90.000000
_cell_angle_gamma 90.000000
_cell_volume 4179.912463
_symmetry_space_group_name_H-M "P 4/M B M"
_symmetry_group_IT_number 127
_symmetry_cell_setting 'tetragonal'
loop_
_space_group_symop_operation_xyz
x,y,z
-y,x,z
-x,-y,z
y,-x,z
1/2+x,1/2-y,-z
1/2-x,1/2+y,-z
1/2+y,1/2+x,-z
1/2-y,1/2-x,-z
-x,-y,-z
y,-x,-z
x,y,-z
-y,x,-z
1/2-x,1/2+y,z
1/2+x,1/2-y,z
1/2-y,1/2-x,z
1/2+y,1/2+x,z
loop_
_atom_site_type_symbol
_atom_site_label
_atom_site_fract_x
_atom_site_fract_y
_atom_site_fract_z
Si Si1 0.996746 0.285827 0.200981
Si Si2 0.622744 0.209711 0.717829
Si Si3 0.889264 0.120911 0.213597
Si Si4 0.995451 0.835989 0.222755
Si Si5 0.090610 0.497896 0.220412
Si Si6 0.284835 0.697476 0.716876
O O1 0.064182 0.282526 0.188948
O O2 0.985071 0.225819 0.287710
O O3 0.988772 0.346897 0.287976
O O4 0.970534 0.287111 0.000000
O O5 0.615535 0.212485 0.500000
O O6 0.650517 0.150517 0.764003
O O7 0.668009 0.256572 0.768629
O O8 0.854353 0.066920 0.285039
O O9 0.859590 0.182103 0.235060
O O10 0.953690 0.123259 0.277573
O O11 0.891867 0.111320 0.000000
O O12 0.994439 0.832795 0.000000
O O13 0.059056 0.440945 0.281905
O O14 0.048273 0.548273 0.263273
O O15 0.094532 0.494194 0.000000
O O16 0.280544 0.696414 0.500000
O O17 0.225079 0.725079 0.781425
#
# Coordination Sequence:
#
# PCOD9563743 Si02
#       6
#    16  16  16  16  16  16
#     4  10  17  28  46  71  95 122 163 205 243 291
#     4   9  17  28  44  69  99 126 152 190 244 297
#     4  10  19  35  53  74 104 134 170 212 256 310
#     4   9  19  32  50  74 100 128 164 212 260 307
#     4   8  14  24  39  62  92 124 157 195 238 282
#     4   9  18  33  52  75 104 134 164 203 252 305
#
# _framework density 22.966987
#
# number of rings (size 3 to 8) (size 9 to 14) (size 15 to 20)
#    0.000    2.833    1.667    2.000    0.000    1.667 
#    0.000    5.833    0.000    3.500    0.000    3.500 
#    0.000    0.000    0.000    0.000    0.000    0.000 
#
# Total GULP energy -534794.522357 kJ/mol
# GULP energy per Si atom -5570.776275 kJ/mol
# Density = 2.291471 g / cm^3
# Si number density = 22.966987 Si / 1000 Ang^3
#
#
#
# Elastic Constant Matrix: (Units=GPa)
#
#
# Indices 1 2 3 4 5 6 
#
# 1 94.5385 67.8983 0.9505 0.0000 0.0000 0.0000
# 2 67.8983 94.5385 0.9505 0.0000 0.0000 0.0000
# 3 0.9505 0.9505 74.8741 0.0000 0.0000 0.0000
# 4 0.0000 0.0000 0.0000 9.7301 0.0000 0.0000
# 5 0.0000 0.0000 0.0000 0.0000 9.7301 0.0000
# 6 0.0000 0.0000 0.0000 0.0000 0.0000 28.2234
#
#
#
# Elastic Compliance Matrix: (Units=1/GPa)
#
#
# Indices 1 2 3 4 5 6 
#
# 1 0.021847 -0.015690 -0.000078 0.000000 0.000000 0.000000
# 2 -0.015690 0.021847 -0.000078 0.000000 0.000000 0.000000
# 3 -0.000078 -0.000078 0.013358 0.000000 0.000000 0.000000
# 4 0.000000 0.000000 0.000000 0.102773 0.000000 0.000000
# 5 0.000000 0.000000 0.000000 0.000000 0.102773 0.000000
# 6 0.000000 0.000000 0.000000 0.000000 0.000000 0.035432
#
#
# Mechanical properties :
#
#
# Convention : Reuss Voigt Hill
#
# Bulk Modulus (GPa) = 39.43312 44.83886 42.13599
# Shear Modulus (GPa) = 14.78518 22.48019 18.63268
#
# Velocity S-wave (km/s) = 2.53999 3.13198 2.85139
# Velocity P-wave (km/s) = 5.08024 5.71355 5.40617
#
# Compressibility (1/GPa) = 0.02535940
#
# Stress axis : x y z
#
# Youngs Moduli (GPa) = 45.77251 45.77251 74.86296
#
# Poissons Ratio (x) = 0.71817 0.00585
# Poissons Ratio (y) = 0.71817 0.00585
# Poissons Ratio (z) = 0.00358 0.00358
#
# Static dielectric constant tensor:
#      x y z
#    x 1.893210 0.000000 0.000000 
#    y 0.000000 1.893210 0.000000 
#    z 0.000000 0.000000 1.888170 
# 
# From -- ./inp_files/1981.got.cif
#   From: 2010.05.17/outbox.cif.g08.bks.cpg/sg127_1_cif.got.tgz:1981.got - 2010.05.20 12:03:00.
