data_PCOD9563985
_publ_section_title
;
Structure prediction by ZEFSAII (Michael W. Deem and Ramdas Pophale) SiO2 
 PCOD9563985
Probable space group: P 4/M B M
;
_chemical_formula_sum "Si O2"
_cell_formula_units_Z 112
_cell_length_a 15.497981
_cell_length_b 15.497981
_cell_length_c 24.739974
_cell_angle_alpha 90.000000
_cell_angle_beta 90.000000
_cell_angle_gamma 90.000000
_cell_volume 5942.230404
_symmetry_space_group_name_H-M "P 4/M B M"
_symmetry_group_IT_number 127
_symmetry_cell_setting 'tetragonal'
loop_
_space_group_symop_operation_xyz
x,y,z
-y,x,z
-x,-y,z
y,-x,z
1/2+x,1/2-y,-z
1/2-x,1/2+y,-z
1/2+y,1/2+x,-z
1/2-y,1/2-x,-z
-x,-y,-z
y,-x,-z
x,y,-z
-y,x,-z
1/2-x,1/2+y,z
1/2+x,1/2-y,z
1/2-y,1/2-x,z
1/2+y,1/2+x,z
loop_
_atom_site_type_symbol
_atom_site_label
_atom_site_fract_x
_atom_site_fract_y
_atom_site_fract_z
Si Si1 0.755281 0.600225 0.843617
Si Si2 0.356247 0.004660 0.633808
Si Si3 0.757107 0.110540 0.561544
Si Si4 0.860085 0.034240 0.063611
Si Si5 0.504670 0.857037 0.244145
Si Si6 0.106738 0.901975 0.353082
Si Si7 0.902576 0.891887 0.768600
O O1 0.827134 0.672867 0.853447
O O2 0.718415 0.557678 0.897723
O O3 0.795670 0.529297 0.802757
O O4 0.672537 0.638015 0.811528
O O5 0.405746 0.094255 0.622780
O O6 0.318982 0.007770 0.694985
O O7 0.431337 0.931337 0.634480
O O8 0.289060 0.971716 0.589702
O O9 0.783296 0.092519 0.500000
O O10 0.686120 0.186120 0.561179
O O11 0.835628 0.137320 0.600058
O O12 0.939463 0.100237 0.074139
O O13 0.838981 0.039366 0.000000
O O14 0.595100 0.904901 0.233361
O O15 0.432674 0.932674 0.246798
O O16 0.134097 0.877799 0.292335
O O17 0.005532 0.884268 0.357741
O O18 0.006698 0.884594 0.775025
#
# Coordination Sequence:
#
# PCOD9563985 Si02
#       7
#    16  16  16  16  16  16  16
#     4  11  20  29  50  83 113 138 165 204 253 301
#     4   8  14  27  47  68  93 129 170 206 239 283
#     4  10  20  32  48  72 100 128 160 205 261 313
#     4   9  19  38  61  78  96 133 182 221 253 291
#     4   8  15  28  45  67  98 136 171 198 233 291
#     4   9  19  36  56  74  92 123 168 211 250 297
#     4   9  18  34  54  74  99 131 168 209 251 298
#
# _framework density 18.848141999999999
#
# number of rings (size 3 to 8) (size 9 to 14) (size 15 to 20)
#    0.000    2.857    0.000    3.857    0.000    4.000 
#    0.000    5.714    0.000    3.000    0.000    2.000 
#    0.000    0.000    0.000    0.000    0.000    0.000 
#
# Total GULP energy -624710.156912 kJ/mol
# GULP energy per Si atom -5577.769258 kJ/mol
# Density = 1.880524 g / cm^3
# Si number density = 18.848142 Si / 1000 Ang^3
#
#
#
# Elastic Constant Matrix: (Units=GPa)
#
#
# Indices 1 2 3 4 5 6 
#
# 1 33.7538 -6.4657 10.8217 0.0000 0.0000 0.0000
# 2 -6.4657 33.7538 10.8217 0.0000 0.0000 0.0000
# 3 10.8217 10.8217 62.4958 0.0000 0.0000 0.0000
# 4 0.0000 0.0000 0.0000 21.9106 0.0000 0.0000
# 5 0.0000 0.0000 0.0000 0.0000 21.9106 0.0000
# 6 0.0000 0.0000 0.0000 0.0000 0.0000 7.4882
#
#
#
# Elastic Compliance Matrix: (Units=1/GPa)
#
#
# Indices 1 2 3 4 5 6 
#
# 1 0.033672 0.008808 -0.007356 0.000000 0.000000 0.000000
# 2 0.008808 0.033672 -0.007356 0.000000 0.000000 0.000000
# 3 -0.007356 -0.007356 0.018549 0.000000 0.000000 0.000000
# 4 0.000000 0.000000 0.000000 0.045640 0.000000 0.000000
# 5 0.000000 0.000000 0.000000 0.000000 0.045640 0.000000
# 6 0.000000 0.000000 0.000000 0.000000 0.000000 0.133543
#
#
# Mechanical properties :
#
#
# Convention : Reuss Voigt Hill
#
# Bulk Modulus (GPa) = 13.49788 17.81766 15.65777
# Shear Modulus (GPa) = 14.40019 17.91693 16.15856
#
# Velocity S-wave (km/s) = 2.76707 3.08652 2.93115
# Velocity P-wave (km/s) = 4.16964 4.70913 4.44757
#
# Compressibility (1/GPa) = 0.07408571
#
# Stress axis : x y z
#
# Youngs Moduli (GPa) = 29.69832 29.69832 53.91258
#
# Poissons Ratio (x) = -0.26159 0.39657
# Poissons Ratio (y) = -0.26159 0.39657
# Poissons Ratio (z) = 0.21846 0.21846
#
# Static dielectric constant tensor:
#      x y z
#    x 1.677450 0.000000 0.000000 
#    y 0.000000 1.677450 0.000000 
#    z 0.000000 0.000000 1.652750 
# 
# From -- ./inp_files/6184.got.cif
#   From: 2010.05.17/outbox.cif.g08.bks.cpg/sg127_4_cif.got.tgz:6184.got - 2010.05.20 12:03:00.
