data_PCOD9563445
_publ_section_title
;
Structure prediction by ZEFSAII (Michael W. Deem and Ramdas Pophale) SiO2 
 PCOD9563445
Probable space group: P 4/N N C
;
_chemical_formula_sum "Si O2"
_cell_formula_units_Z 56
_cell_length_a 18.519849
_cell_length_b 18.519849
_cell_length_c 8.245679
_cell_angle_alpha 90.000000
_cell_angle_beta 90.000000
_cell_angle_gamma 90.000000
_cell_volume 2828.142620
_symmetry_space_group_name_H-M "P 4/N N C"
_symmetry_group_IT_number 126
_space_group.IT_coordinate_system_code '2'
_symmetry_cell_setting 'tetragonal'
loop_
_space_group_symop_operation_xyz
x,y,z
1/2-y,x,z
1/2-x,1/2-y,z
y,1/2-x,z
x,1/2-y,1/2-z
1/2-x,y,1/2-z
y,x,1/2-z
1/2-y,1/2-x,1/2-z
-x,-y,-z
1/2+y,-x,-z
1/2+x,1/2+y,-z
-y,1/2+x,-z
-x,1/2+y,1/2+z
1/2+x,-y,1/2+z
-y,-x,1/2+z
1/2+y,1/2+x,1/2+z
loop_
_atom_site_type_symbol
_atom_site_label
_atom_site_fract_x
_atom_site_fract_y
_atom_site_fract_z
Si Si1 0.663951 0.836656 0.064992
Si Si2 0.838802 0.182787 0.957247
Si Si3 0.450295 0.827859 0.714552
Si Si4 0.408980 0.091021 0.250000
O O1 0.651561 0.750342 0.052216
O O2 0.641863 0.858138 0.250000
O O3 0.625768 0.875791 0.914496
O O4 0.916722 0.170574 0.036375
O O5 0.768549 0.167951 0.072633
O O6 0.829811 0.121574 0.823688
O O7 0.486141 0.750000 0.750000
O O8 0.506874 0.889676 0.749826
#
# Coordination Sequence:
#
# PCOD9563445 Si02
#       4
#    16  16  16   8
#     4   9  18  34  56  79 107 155 212 251 280 322
#     4   9  18  37  62  84 108 143 198 257 292 336
#     4  10  21  36  57  86 114 152 196 234 297 356
#     4  12  22  35  54  86 132 156 180 233 294 362
#
# _framework density 19.800982000000001
#
# number of rings (size 3 to 8) (size 9 to 14) (size 15 to 20)
#    0.000    2.286    0.000    4.286    0.000    5.714 
#    5.143    0.000    0.000    0.000    0.000    0.000 
#    0.000    0.000    0.000    0.000    0.000    0.000 
#
# Total GULP energy -311951.003556 kJ/mol
# GULP energy per Si atom -5570.553635 kJ/mol
# Density = 1.975591 g / cm^3
# Si number density = 19.800982 Si / 1000 Ang^3
#
#
#
# Elastic Constant Matrix: (Units=GPa)
#
#
# Indices 1 2 3 4 5 6 
#
# 1 79.4370 46.8267 24.1695 0.0000 0.0000 0.0000
# 2 46.8267 79.4346 24.1699 0.0000 0.0000 0.0000
# 3 24.1695 24.1699 84.4054 0.0000 0.0000 0.0000
# 4 0.0000 0.0000 0.0000 0.2526 0.0000 0.0000
# 5 0.0000 0.0000 0.0000 0.0000 0.2520 0.0000
# 6 0.0000 0.0000 0.0000 0.0000 0.0000 21.8150
#
#
#
# Elastic Compliance Matrix: (Units=1/GPa)
#
#
# Indices 1 2 3 4 5 6 
#
# 1 0.019780 -0.010886 -0.002547 0.000000 0.000000 0.000000
# 2 -0.010886 0.019781 -0.002547 0.000000 0.000000 0.000000
# 3 -0.002547 -0.002547 0.013306 0.000000 0.000000 0.000000
# 4 0.000000 0.000000 0.000000 3.958862 0.000000 0.000000
# 5 0.000000 0.000000 0.000000 0.000000 3.967703 0.000000
# 6 0.000000 0.000000 0.000000 0.000000 0.000000 0.045840
#
#
# Mechanical properties :
#
#
# Convention : Reuss Voigt Hill
#
# Bulk Modulus (GPa) = 47.82837 48.17879 48.00358
# Shear Modulus (GPa) = 0.62002 14.33798 7.47900
#
# Velocity S-wave (km/s) = 0.56019 2.69384 1.94558
# Velocity P-wave (km/s) = 4.96240 5.83610 5.41689
#
# Compressibility (1/GPa) = 0.02090809
#
# Stress axis : x y z
#
# Youngs Moduli (GPa) = 50.55514 50.55337 75.15204
#
# Poissons Ratio (x) = 0.55030 0.19141
# Poissons Ratio (y) = 0.55032 0.19144
# Poissons Ratio (z) = 0.12876 0.12878
#
# Static dielectric constant tensor:
#      x y z
#    x 1.672110 0.000000 0.000000 
#    y 0.000000 1.672110 0.000000 
#    z 0.000000 0.000000 1.781660 
# 
# From -- ./inp_files/1258.got.cif
#   From: 2010.05.17/outbox.cif.g08.bks.cpg/sg126_1_cif.got.tgz:1258.got - 2010.05.20 11:58:20.
