data_PCOD9563359
_publ_section_title
;
Structure prediction by ZEFSAII (Michael W. Deem and Ramdas Pophale) SiO2 
 PCOD9563359
Probable space group: P 4/N N C
;
_chemical_formula_sum "Si O2"
_cell_formula_units_Z 96
_cell_length_a 15.552294
_cell_length_b 15.552294
_cell_length_c 21.934173
_cell_angle_alpha 90.000000
_cell_angle_beta 90.000000
_cell_angle_gamma 90.000000
_cell_volume 5305.302841
_symmetry_space_group_name_H-M "P 4/N N C"
_symmetry_group_IT_number 126
_space_group.IT_coordinate_system_code '2'
_symmetry_cell_setting 'tetragonal'
loop_
_space_group_symop_operation_xyz
x,y,z
1/2-y,x,z
1/2-x,1/2-y,z
y,1/2-x,z
x,1/2-y,1/2-z
1/2-x,y,1/2-z
y,x,1/2-z
1/2-y,1/2-x,1/2-z
-x,-y,-z
1/2+y,-x,-z
1/2+x,1/2+y,-z
-y,1/2+x,-z
-x,1/2+y,1/2+z
1/2+x,-y,1/2+z
-y,-x,1/2+z
1/2+y,1/2+x,1/2+z
loop_
_atom_site_type_symbol
_atom_site_label
_atom_site_fract_x
_atom_site_fract_y
_atom_site_fract_z
Si Si1 0.000537 0.738186 0.679277
Si Si2 0.362012 0.161520 0.988525
Si Si3 0.912138 0.597682 0.875937
Si Si4 0.304032 0.866214 0.077848
Si Si5 0.016840 0.042002 0.932958
Si Si6 0.304641 0.893095 0.942997
O O1 0.019945 0.750000 0.750000
O O2 0.970763 0.829925 0.653941
O O3 0.924545 0.670365 0.664659
O O4 0.079461 0.703497 0.638786
O O5 0.366919 0.263333 0.980784
O O6 0.421858 0.112198 0.940626
O O7 0.386501 0.134573 0.057538
O O8 0.967267 0.511250 0.887270
O O9 0.380247 0.794741 0.077107
O O10 0.206629 0.831624 0.066359
O O11 0.313530 0.917889 0.014595
O O12 0.956087 0.123875 0.915887
O O13 0.000000 0.000000 0.000000
#
# Coordination Sequence:
#
# PCOD9563359 Si02
#       6
#    16  16  16  16  16  16
#     4  12  24  39  56  79 112 158 209 245 276 337
#     4  10  20  34  54  83 118 149 183 238 294 353
#     4  11  22  38  53  76 111 154 201 242 286 336
#     4   9  18  33  56  81 111 146 186 234 291 351
#     4  10  20  31  56  84 112 146 186 240 288 356
#     4   9  17  32  56  85 111 141 180 232 299 362
#
# _framework density 18.095102000000001
#
# number of rings (size 3 to 8) (size 9 to 14) (size 15 to 20)
#    0.000    1.833    3.333    3.500    0.000    3.000 
#    0.000    2.500    0.000    0.000    0.000    0.000 
#    0.000    0.000    0.000    8.667    0.000    0.000 
#
# Total GULP energy -534746.390541 kJ/mol
# GULP energy per Si atom -5570.274901 kJ/mol
# Density = 1.805392 g / cm^3
# Si number density = 18.095102 Si / 1000 Ang^3
#
#
#
# Elastic Constant Matrix: (Units=GPa)
#
#
# Indices 1 2 3 4 5 6 
#
# 1 65.1452 34.6774 43.8489 0.0000 0.0000 0.0000
# 2 34.6774 65.1452 43.8489 0.0000 0.0000 0.0000
# 3 43.8489 43.8489 77.2203 0.0000 0.0000 0.0000
# 4 0.0000 0.0000 0.0000 6.7303 0.0000 0.0000
# 5 0.0000 0.0000 0.0000 0.0000 6.7303 0.0000
# 6 0.0000 0.0000 0.0000 0.0000 0.0000 31.5946
#
#
#
# Elastic Compliance Matrix: (Units=1/GPa)
#
#
# Indices 1 2 3 4 5 6 
#
# 1 0.026406 -0.006416 -0.011351 0.000000 0.000000 0.000000
# 2 -0.006416 0.026406 -0.011351 0.000000 0.000000 0.000000
# 3 -0.011351 -0.011351 0.025841 0.000000 0.000000 0.000000
# 4 0.000000 0.000000 0.000000 0.148583 0.000000 0.000000
# 5 0.000000 0.000000 0.000000 0.000000 0.148583 0.000000
# 6 0.000000 0.000000 0.000000 0.000000 0.000000 0.031651
#
#
# Mechanical properties :
#
#
# Convention : Reuss Voigt Hill
#
# Bulk Modulus (GPa) = 48.97927 50.25121 49.61524
# Shear Modulus (GPa) = 10.58174 14.68673 12.63423
#
# Velocity S-wave (km/s) = 2.42086 2.85202 2.64524
# Velocity P-wave (km/s) = 5.91105 6.21903 6.06699
#
# Compressibility (1/GPa) = 0.02041680
#
# Stress axis : x y z
#
# Youngs Moduli (GPa) = 37.87027 37.87027 38.69748
#
# Poissons Ratio (x) = 0.24296 0.43927
# Poissons Ratio (y) = 0.24296 0.43927
# Poissons Ratio (z) = 0.42988 0.42988
#
# Static dielectric constant tensor:
#      x y z
#    x 1.689310 0.000000 0.000000 
#    y 0.000000 1.689310 0.000000 
#    z 0.000000 0.000000 1.593490 
# 
# From -- ./inp_files/5249.got.cif
#   From: 2010.05.17/outbox.cif.g08.bks.cpg/sg126_3_cif.got.tgz:5249.got - 2010.05.20 11:58:20.
