data_PCOD9563769
_publ_section_title
;
Structure prediction by ZEFSAII (Michael W. Deem and Ramdas Pophale) SiO2 
 PCOD9563769
Probable space group: P 4/M B M
;
_chemical_formula_sum "Si O2"
_cell_formula_units_Z 72
_cell_length_a 20.450205
_cell_length_b 20.450205
_cell_length_c 7.289598
_cell_angle_alpha 90.000000
_cell_angle_beta 90.000000
_cell_angle_gamma 90.000000
_cell_volume 3048.589228
_symmetry_space_group_name_H-M "P 4/M B M"
_symmetry_group_IT_number 127
_symmetry_cell_setting 'tetragonal'
loop_
_space_group_symop_operation_xyz
x,y,z
-y,x,z
-x,-y,z
y,-x,z
1/2+x,1/2-y,-z
1/2-x,1/2+y,-z
1/2+y,1/2+x,-z
1/2-y,1/2-x,-z
-x,-y,-z
y,-x,-z
x,y,-z
-y,x,-z
1/2-x,1/2+y,z
1/2+x,1/2-y,z
1/2-y,1/2-x,z
1/2+y,1/2+x,z
loop_
_atom_site_type_symbol
_atom_site_label
_atom_site_fract_x
_atom_site_fract_y
_atom_site_fract_z
Si Si1 0.053334 0.446667 0.723697
Si Si2 0.842818 0.342818 0.279283
Si Si3 0.008724 0.686130 0.278349
Si Si4 0.263028 0.763028 0.795125
Si Si5 0.848307 0.136678 0.775282
Si Si6 0.330151 0.506741 0.795977
O O1 0.052001 0.448000 0.500000
O O2 0.125076 0.466322 0.781219
O O3 0.000000 0.500000 0.782594
O O4 0.837371 0.337371 0.500000
O O5 0.916596 0.327618 0.228111
O O6 0.792560 0.292560 0.195822
O O7 0.005155 0.691043 0.500000
O O8 0.989065 0.754117 0.196033
O O9 0.217988 0.823570 0.715235
O O10 0.283634 0.783634 0.000000
O O11 0.856165 0.061045 0.713145
O O12 0.918993 0.167404 0.719651
O O13 0.844808 0.138651 0.000000
O O14 0.359437 0.511738 0.000000
#
# Coordination Sequence:
#
# PCOD9563769 Si02
#       6
#     8   8  16   8  16  16
#     4   9  16  29  49  73 104 140 171 202 252 315
#     4  10  18  29  51  79 102 130 173 216 252 301
#     4  10  19  32  52  78 104 134 173 215 256 307
#     4  10  18  33  54  78 104 136 171 212 266 314
#     4   9  19  33  54  78 103 135 175 215 258 310
#     4  10  20  36  54  76 103 137 176 219 265 310
#
# _framework density 23.617483
#
# number of rings (size 3 to 8) (size 9 to 14) (size 15 to 20)
#    0.000    2.333    3.333    0.000    0.000    1.333 
#    0.000    6.111    0.000    0.667    0.000    1.556 
#    0.000    0.000    0.000    0.000    0.000    0.000 
#
# Total GULP energy -401382.149494 kJ/mol
# GULP energy per Si atom -5574.752076 kJ/mol
# Density = 2.356373 g / cm^3
# Si number density = 23.617483 Si / 1000 Ang^3
#
#
#
# Elastic Constant Matrix: (Units=GPa)
#
#
# Indices 1 2 3 4 5 6 
#
# 1 135.9092 -14.5630 -1.0536 0.0000 0.0000 0.0000
# 2 -14.5630 135.9089 -1.0535 0.0000 0.0000 0.0000
# 3 -1.0536 -1.0535 91.1846 0.0000 0.0000 0.0000
# 4 0.0000 0.0000 0.0000 -15.9520 0.0000 0.0000
# 5 0.0000 0.0000 0.0000 0.0000 -15.9498 0.0000
# 6 0.0000 0.0000 0.0000 0.0000 0.0000 40.0591
#
#
#
# Elastic Compliance Matrix: (Units=1/GPa)
#
#
# Indices 1 2 3 4 5 6 
#
# 1 0.007444 0.000798 0.000095 0.000000 0.000000 0.000000
# 2 0.000798 0.007444 0.000095 0.000000 0.000000 0.000000
# 3 0.000095 0.000095 0.010969 0.000000 0.000000 0.000000
# 4 0.000000 0.000000 0.000000 -0.062688 0.000000 0.000000
# 5 0.000000 0.000000 0.000000 0.000000 -0.062697 0.000000
# 6 0.000000 0.000000 0.000000 0.000000 0.000000 0.024963
#
#
# Mechanical properties :
#
#
# Convention : Reuss Voigt Hill
#
# Bulk Modulus (GPa) = 35.92600 36.62918 36.27759
# Shear Modulus (GPa) = -74.33437 26.94297 -23.69570
#
# Velocity S-wave (km/s) = -5.61628 3.38125 -3.17095
# Velocity P-wave (km/s) = 5.17805 5.54858 1.40971
#
# Compressibility (1/GPa) = 0.02783499
#
# Stress axis : x y z
#
# Youngs Moduli (GPa) = 134.33383 134.33355 91.16635
#
# Poissons Ratio (x) = -0.10725 -0.00868
# Poissons Ratio (y) = -0.10725 -0.00868
# Poissons Ratio (z) = -0.01279 -0.01279
#
# Static dielectric constant tensor:
#      x y z
#    x 1.904200 0.000000 0.000000 
#    y 0.000000 1.904200 0.000000 
#    z 0.000000 0.000000 1.937020 
# 
# From -- ./inp_files/1667.got.cif
#   From: 2010.05.17/outbox.cif.g08.bks.cpg/sg127_1_cif.got.tgz:1667.got - 2010.05.20 12:03:00.
