data_PCOD9563010
_publ_section_title
;
Structure prediction by ZEFSAII (Michael W. Deem and Ramdas Pophale) SiO2 
 PCOD9563010
Probable space group: P 4/N B M
;
_chemical_formula_sum "Si O2"
_cell_formula_units_Z 56
_cell_length_a 13.995989
_cell_length_b 13.995989
_cell_length_c 14.452801
_cell_angle_alpha 90.000000
_cell_angle_beta 90.000000
_cell_angle_gamma 90.000000
_cell_volume 2831.126063
_symmetry_space_group_name_H-M "P 4/N B M"
_symmetry_group_IT_number 125
_space_group.IT_coordinate_system_code '2'
_symmetry_cell_setting 'tetragonal'
loop_
_space_group_symop_operation_xyz
x,y,z
1/2-y,x,z
1/2-x,1/2-y,z
y,1/2-x,z
x,1/2-y,-z
1/2-x,y,-z
y,x,-z
1/2-y,1/2-x,-z
-x,-y,-z
1/2+y,-x,-z
1/2+x,1/2+y,-z
-y,1/2+x,-z
-x,1/2+y,z
1/2+x,-y,z
-y,-x,z
1/2+y,1/2+x,z
loop_
_atom_site_type_symbol
_atom_site_label
_atom_site_fract_x
_atom_site_fract_y
_atom_site_fract_z
Si Si1 0.250000 0.910009 0.500000
Si Si2 0.498093 0.352601 0.047689
Si Si3 0.611988 0.956418 0.399917
Si Si4 0.831397 0.615253 0.776800
O O1 0.338675 0.838675 0.473892
O O2 0.292991 0.979434 0.580011
O O3 0.600751 0.399250 0.032236
O O4 0.469811 0.359807 0.155700
O O5 0.492245 0.250000 0.000000
O O6 0.419589 0.419589 0.000000
O O7 0.583287 0.916714 0.500000
O O8 0.608811 0.869241 0.328178
O O9 0.531794 0.031794 0.368487
O O10 0.875044 0.719203 0.798013
#
# Coordination Sequence:
#
# PCOD9563010 Si02
#       4
#     8  16  16  16
#     4   9  18  34  56  81 118 174 224 263 322 395
#     4  11  23  42  69  96 127 166 210 265 327 390
#     4  10  20  35  56  83 120 163 209 260 316 381
#     4  11  22  36  59  90 121 159 210 263 318 385
#
# _framework density 19.780116
#
# number of rings (size 3 to 8) (size 9 to 14) (size 15 to 20)
#    0.000    1.571    2.857    2.571    0.000    0.571 
#    0.000    2.857    0.000    0.000    0.000    0.000 
#    0.000    0.000    0.000    0.000    0.000    0.000 
#
# Total GULP energy -311772.760920 kJ/mol
# GULP energy per Si atom -5567.370731 kJ/mol
# Density = 1.973510 g / cm^3
# Si number density = 19.780116 Si / 1000 Ang^3
#
#
#
# Elastic Constant Matrix: (Units=GPa)
#
#
# Indices 1 2 3 4 5 6 
#
# 1 75.7180 50.5583 28.8905 0.0000 0.0000 0.0000
# 2 50.5583 75.7177 28.8889 0.0000 0.0000 0.0000
# 3 28.8905 28.8889 62.2468 0.0000 0.0000 0.0000
# 4 0.0000 0.0000 0.0000 20.8134 0.0000 0.0000
# 5 0.0000 0.0000 0.0000 0.0000 20.8133 0.0000
# 6 0.0000 0.0000 0.0000 0.0000 0.0000 -117.0445
#
#
#
# Elastic Compliance Matrix: (Units=1/GPa)
#
#
# Indices 1 2 3 4 5 6 
#
# 1 0.024901 -0.014846 -0.004667 0.000000 0.000000 0.000000
# 2 -0.014846 0.024900 -0.004666 0.000000 0.000000 0.000000
# 3 -0.004667 -0.004666 0.020397 0.000000 0.000000 0.000000
# 4 0.000000 0.000000 0.000000 0.048046 0.000000 0.000000
# 5 0.000000 0.000000 0.000000 0.000000 0.048046 0.000000
# 6 0.000000 0.000000 0.000000 0.000000 0.000000 -0.008544
#
#
# Mechanical properties :
#
#
# Convention : Reuss Voigt Hill
#
# Bulk Modulus (GPa) = 45.78812 47.81754 46.80283
# Shear Modulus (GPa) = 23.43205 -8.06058 7.68574
#
# Velocity S-wave (km/s) = 3.44557 -2.02088 1.97333
# Velocity P-wave (km/s) = 6.24725 4.33380 5.37633
#
# Compressibility (1/GPa) = 0.02183973
#
# Stress axis : x y z
#
# Youngs Moduli (GPa) = 40.15976 40.16054 49.02790
#
# Poissons Ratio (x) = 0.59622 0.22881
# Poissons Ratio (y) = 0.59621 0.22875
# Poissons Ratio (z) = 0.18743 0.18738
#
# Static dielectric constant tensor:
#      x y z
#    x 1.721950 0.000000 0.000000 
#    y 0.000000 1.721950 0.000000 
#    z 0.000000 0.000000 1.734570 
# 
# From -- ./inp_files/3511.got.cif
#   From: 2010.05.17/outbox.cif.g08.bks.cpg/sg125_2_cif.got.tgz:3511.got - 2010.05.20 11:54:10.
