data_PCOD9563513
_publ_section_title
;
Structure prediction by ZEFSAII (Michael W. Deem and Ramdas Pophale) SiO2 
 PCOD9563513
Probable space group: P 4/N N C
;
_chemical_formula_sum "Si O2"
_cell_formula_units_Z 56
_cell_length_a 15.020902
_cell_length_b 15.020902
_cell_length_c 9.223736
_cell_angle_alpha 90.000000
_cell_angle_beta 90.000000
_cell_angle_gamma 90.000000
_cell_volume 2081.128466
_symmetry_space_group_name_H-M "P 4/N N C"
_symmetry_group_IT_number 126
_space_group.IT_coordinate_system_code '2'
_symmetry_cell_setting 'tetragonal'
loop_
_space_group_symop_operation_xyz
x,y,z
1/2-y,x,z
1/2-x,1/2-y,z
y,1/2-x,z
x,1/2-y,1/2-z
1/2-x,y,1/2-z
y,x,1/2-z
1/2-y,1/2-x,1/2-z
-x,-y,-z
1/2+y,-x,-z
1/2+x,1/2+y,-z
-y,1/2+x,-z
-x,1/2+y,1/2+z
1/2+x,-y,1/2+z
-y,-x,1/2+z
1/2+y,1/2+x,1/2+z
loop_
_atom_site_type_symbol
_atom_site_label
_atom_site_fract_x
_atom_site_fract_y
_atom_site_fract_z
Si Si1 0.092372 0.407629 0.250000
Si Si2 0.234448 0.928352 0.941907
Si Si3 0.892358 0.361262 0.226426
Si Si4 0.118676 0.190490 0.550100
O O1 0.104488 0.512541 0.216255
O O2 0.160166 0.386491 0.380793
O O3 0.335467 0.925914 0.885307
O O4 0.181470 0.853878 0.852575
O O5 0.216695 0.918125 0.112354
O O6 0.180478 0.018051 0.899107
O O7 0.207104 0.138284 0.591738
#
# Coordination Sequence:
#
# PCOD9563513 Si02
#       4
#     8  16  16  16
#     4  10  22  39  72 100 139 194 238 306 372 452
#     4  10  24  44  69 104 139 193 238 306 370 445
#     4  10  24  43  68 103 140 188 245 298 369 445
#     4  10  22  40  68 108 145 186 244 311 381 455
#
# _framework density 26.908477999999999
#
# number of rings (size 3 to 8) (size 9 to 14) (size 15 to 20)
#    0.000    2.000    0.000    0.857    8.000    5.143 
#    0.000    2.857    0.000    6.857    0.000    0.000 
#    0.000    0.000    0.000    0.000    0.000    0.000 
#
# Total GULP energy -312272.410630 kJ/mol
# GULP energy per Si atom -5576.293047 kJ/mol
# Density = 2.684723 g / cm^3
# Si number density = 26.908478 Si / 1000 Ang^3
#
#
#
# Elastic Constant Matrix: (Units=GPa)
#
#
# Indices 1 2 3 4 5 6 
#
# 1 117.1476 39.7522 -1.9189 0.0000 0.0000 0.0000
# 2 39.7522 117.1491 -1.9191 0.0000 0.0000 0.0000
# 3 -1.9189 -1.9191 96.5896 0.0000 0.0000 0.0000
# 4 0.0000 0.0000 0.0000 28.9115 0.0000 0.0000
# 5 0.0000 0.0000 0.0000 0.0000 28.9119 0.0000
# 6 0.0000 0.0000 0.0000 0.0000 0.0000 43.9675
#
#
#
# Elastic Compliance Matrix: (Units=1/GPa)
#
#
# Indices 1 2 3 4 5 6 
#
# 1 0.009649 -0.003272 0.000127 0.000000 0.000000 0.000000
# 2 -0.003272 0.009648 0.000127 0.000000 0.000000 0.000000
# 3 0.000127 0.000127 0.010358 0.000000 0.000000 0.000000
# 4 0.000000 0.000000 0.000000 0.034588 0.000000 0.000000
# 5 0.000000 0.000000 0.000000 0.000000 0.034588 0.000000
# 6 0.000000 0.000000 0.000000 0.000000 0.000000 0.022744
#
#
# Mechanical properties :
#
#
# Convention : Reuss Voigt Hill
#
# Bulk Modulus (GPa) = 42.34061 44.74608 43.54334
# Shear Modulus (GPa) = 36.90439 40.02300 38.46369
#
# Velocity S-wave (km/s) = 3.70736 3.86083 3.78488
# Velocity P-wave (km/s) = 5.83912 6.04482 5.94286
#
# Compressibility (1/GPa) = 0.02361799
#
# Stress axis : x y z
#
# Youngs Moduli (GPa) = 103.64184 103.64318 96.54263
#
# Poissons Ratio (x) = 0.33912 -0.01223
# Poissons Ratio (y) = 0.33911 -0.01223
# Poissons Ratio (z) = -0.01313 -0.01313
#
# Static dielectric constant tensor:
#      x y z
#    x 2.082270 0.000000 0.000000 
#    y 0.000000 2.082270 0.000000 
#    z 0.000000 0.000000 2.242840 
# 
# From -- ./inp_files/1266.got.cif
#   From: 2010.05.17/outbox.cif.g08.bks.cpg/sg126_1_cif.got.tgz:1266.got - 2010.05.20 11:58:20.
