data_PCOD9563416
_publ_section_title
;
Structure prediction by ZEFSAII (Michael W. Deem and Ramdas Pophale) SiO2 
 PCOD9563416
Probable space group: P 4/N N C
;
_chemical_formula_sum "Si O2"
_cell_formula_units_Z 120
_cell_length_a 19.212347
_cell_length_b 19.212347
_cell_length_c 16.965149
_cell_angle_alpha 90.000000
_cell_angle_beta 90.000000
_cell_angle_gamma 90.000000
_cell_volume 6262.078712
_symmetry_space_group_name_H-M "P 4/N N C"
_symmetry_group_IT_number 126
_space_group.IT_coordinate_system_code '2'
_symmetry_cell_setting 'tetragonal'
loop_
_space_group_symop_operation_xyz
x,y,z
1/2-y,x,z
1/2-x,1/2-y,z
y,1/2-x,z
x,1/2-y,1/2-z
1/2-x,y,1/2-z
y,x,1/2-z
1/2-y,1/2-x,1/2-z
-x,-y,-z
1/2+y,-x,-z
1/2+x,1/2+y,-z
-y,1/2+x,-z
-x,1/2+y,1/2+z
1/2+x,-y,1/2+z
-y,-x,1/2+z
1/2+y,1/2+x,1/2+z
loop_
_atom_site_type_symbol
_atom_site_label
_atom_site_fract_x
_atom_site_fract_y
_atom_site_fract_z
Si Si1 0.947674 0.729544 0.659278
Si Si2 0.880677 0.587533 0.611666
Si Si3 0.243745 0.592944 0.410649
Si Si4 0.250000 0.841117 0.250000
Si Si5 0.177555 0.903796 0.785378
Si Si6 0.883598 0.135566 0.541008
Si Si7 0.047070 0.960095 0.686779
Si Si8 0.486440 0.078911 0.522028
O O1 0.959295 0.750000 0.750000
O O2 0.907684 0.656451 0.656523
O O3 0.913730 0.797250 0.617750
O O4 0.020742 0.721300 0.615051
O O5 0.910579 0.514926 0.650168
O O6 0.915658 0.596492 0.524747
O O7 0.219443 0.620665 0.326486
O O8 0.181915 0.585039 0.471869
O O9 0.300667 0.644202 0.448631
O O10 0.320275 0.810417 0.213658
O O11 0.250000 0.933852 0.750000
O O12 0.155962 0.919446 0.876102
O O13 0.110707 0.923081 0.732311
O O14 0.887548 0.055553 0.514757
O O15 0.080657 0.005892 0.616127
O O16 0.007944 0.007944 0.750000
O O17 0.500000 0.000000 0.500000
#
# Coordination Sequence:
#
# PCOD9563416 Si02
#       8
#    16  16  16   8  16  16  16  16
#     4  12  23  39  63  94 124 168 212 264 323 392
#     4  11  24  39  64  92 126 165 216 266 324 390
#     4  11  23  38  61  85 124 165 219 258 320 383
#     4  10  21  38  60  82 120 169 216 254 315 384
#     4  11  24  38  58  88 125 166 213 265 321 375
#     4  11  24  37  58  87 122 163 211 260 315 376
#     4  11  23  40  64  89 122 164 213 265 319 388
#     4  10  20  39  61  85 115 157 207 260 312 373
#
# _framework density 19.162965
#
# number of rings (size 3 to 8) (size 9 to 14) (size 15 to 20)
#    0.000    1.067    2.000    6.200    7.467    0.533 
#    0.000    0.667    0.000    0.000    0.000    0.000 
#    0.000    0.267    0.000    0.133    0.000    0.000 
#
# Total GULP energy -668347.167852 kJ/mol
# GULP energy per Si atom -5569.559732 kJ/mol
# Density = 1.911935 g / cm^3
# Si number density = 19.162965 Si / 1000 Ang^3
#
#
#
# Elastic Constant Matrix: (Units=GPa)
#
#
# Indices 1 2 3 4 5 6 
#
# 1 57.9854 -0.9642 29.2082 0.0000 0.0000 0.0000
# 2 -0.9642 57.9854 29.2082 0.0000 0.0000 0.0000
# 3 29.2082 29.2082 134.9650 0.0000 0.0000 0.0000
# 4 0.0000 0.0000 0.0000 17.8678 0.0000 0.0000
# 5 0.0000 0.0000 0.0000 0.0000 17.8678 0.0000
# 6 0.0000 0.0000 0.0000 0.0000 0.0000 18.3517
#
#
#
# Elastic Compliance Matrix: (Units=1/GPa)
#
#
# Indices 1 2 3 4 5 6 
#
# 1 0.019748 0.002785 -0.004876 0.000000 0.000000 0.000000
# 2 0.002785 0.019748 -0.004876 0.000000 0.000000 0.000000
# 3 -0.004876 -0.004876 0.009520 0.000000 0.000000 0.000000
# 4 0.000000 0.000000 0.000000 0.055967 0.000000 0.000000
# 5 0.000000 0.000000 0.000000 0.000000 0.055967 0.000000
# 6 0.000000 0.000000 0.000000 0.000000 0.000000 0.054491
#
#
# Mechanical properties :
#
#
# Convention : Reuss Voigt Hill
#
# Bulk Modulus (GPa) = 28.50598 40.64890 34.57744
# Shear Modulus (GPa) = 20.74080 23.71636 22.22858
#
# Velocity S-wave (km/s) = 3.29346 3.52179 3.40954
# Velocity P-wave (km/s) = 5.41944 6.14781 5.79508
#
# Compressibility (1/GPa) = 0.03508036
#
# Stress axis : x y z
#
# Youngs Moduli (GPa) = 50.63709 50.63709 105.04227
#
# Poissons Ratio (x) = -0.14101 0.51223
# Poissons Ratio (y) = -0.14101 0.51223
# Poissons Ratio (z) = 0.24693 0.24693
#
# Static dielectric constant tensor:
#      x y z
#    x 1.712550 0.000000 0.000000 
#    y 0.000000 1.712550 0.000000 
#    z 0.000000 0.000000 1.753650 
# 
# From -- ./inp_files/3956.got.cif
#   From: 2010.05.17/outbox.cif.g08.bks.cpg/sg126_2_cif.got.tgz:3956.got - 2010.05.20 11:58:20.
