data_PCOD9563173
_publ_section_title
;
Structure prediction by ZEFSAII (Michael W. Deem and Ramdas Pophale) SiO2 
 PCOD9563173
Probable space group: P 4/N B M
;
_chemical_formula_sum "Si O2"
_cell_formula_units_Z 112
_cell_length_a 15.165378
_cell_length_b 15.165378
_cell_length_c 25.635371
_cell_angle_alpha 90.000000
_cell_angle_beta 90.000000
_cell_angle_gamma 90.000000
_cell_volume 5895.845391
_symmetry_space_group_name_H-M "P 4/N B M"
_symmetry_group_IT_number 125
_space_group.IT_coordinate_system_code '2'
_symmetry_cell_setting 'tetragonal'
loop_
_space_group_symop_operation_xyz
x,y,z
1/2-y,x,z
1/2-x,1/2-y,z
y,1/2-x,z
x,1/2-y,-z
1/2-x,y,-z
y,x,-z
1/2-y,1/2-x,-z
-x,-y,-z
1/2+y,-x,-z
1/2+x,1/2+y,-z
-y,1/2+x,-z
-x,1/2+y,z
1/2+x,-y,z
-y,-x,z
1/2+y,1/2+x,z
loop_
_atom_site_type_symbol
_atom_site_label
_atom_site_fract_x
_atom_site_fract_y
_atom_site_fract_z
Si Si1 0.344988 0.135462 0.239425
Si Si2 0.493476 0.357908 0.150793
Si Si3 0.757571 0.105780 0.656431
Si Si4 0.857893 0.852741 0.442292
Si Si5 0.397628 0.232124 0.941212
Si Si6 0.033751 0.385328 0.653386
Si Si7 0.759352 0.390612 0.224020
O O1 0.368433 0.238427 0.239381
O O2 0.383220 0.090390 0.186911
O O3 0.374661 0.085503 0.292079
O O4 0.559728 0.440273 0.141876
O O5 0.469092 0.303180 0.099179
O O6 0.540336 0.287558 0.188315
O O7 0.846718 0.153283 0.635032
O O8 0.683665 0.183665 0.654861
O O9 0.777126 0.082024 0.716782
O O10 0.703949 0.020466 0.637645
O O11 0.752471 0.868500 0.439074
O O12 0.884949 0.884949 0.500000
O O13 0.903457 0.900290 0.394029
O O14 0.343273 0.322557 0.933854
O O15 0.431804 0.250000 0.000000
O O16 0.962032 0.462032 0.659895
O O17 0.686795 0.313206 0.228897
O O18 0.847469 0.347469 0.201563
#
# Coordination Sequence:
#
# PCOD9563173 Si02
#       7
#    16  16  16  16  16  16  16
#     4  11  23  38  55  76 109 154 196 229 273 341
#     4  11  20  34  56  85 117 142 178 239 296 330
#     4   8  14  27  47  71 105 150 185 208 256 335
#     4   9  19  38  61  79 102 144 191 229 277 343
#     4   9  19  39  63  80 101 144 194 228 269 339
#     4  11  20  33  55  85 117 144 182 241 292 331
#     4   8  14  27  47  70 103 149 186 206 249 330
#
# _framework density 18.996427000000001
#
# number of rings (size 3 to 8) (size 9 to 14) (size 15 to 20)
#    0.000    2.429    1.429    3.857    0.000    2.571 
#    0.000    9.286    0.000    0.857    0.000    0.000 
#    0.000    0.000    0.000    0.000    0.000    0.000 
#
# Total GULP energy -623626.616420 kJ/mol
# GULP energy per Si atom -5568.094789 kJ/mol
# Density = 1.895319 g / cm^3
# Si number density = 18.996427 Si / 1000 Ang^3
#
#
#
# Elastic Constant Matrix: (Units=GPa)
#
#
# Indices 1 2 3 4 5 6 
#
# 1 64.2619 24.0445 37.4798 0.0000 0.0000 0.0000
# 2 24.0445 64.2619 37.4798 0.0000 0.0000 0.0000
# 3 37.4798 37.4798 96.9984 0.0000 0.0000 0.0000
# 4 0.0000 0.0000 0.0000 15.4522 0.0000 0.0000
# 5 0.0000 0.0000 0.0000 0.0000 15.4522 0.0000
# 6 0.0000 0.0000 0.0000 0.0000 0.0000 16.9170
#
#
#
# Elastic Compliance Matrix: (Units=1/GPa)
#
#
# Indices 1 2 3 4 5 6 
#
# 1 0.020858 -0.004007 -0.006511 0.000000 0.000000 0.000000
# 2 -0.004007 0.020858 -0.006511 0.000000 0.000000 0.000000
# 3 -0.006511 -0.006511 0.015341 0.000000 0.000000 0.000000
# 4 0.000000 0.000000 0.000000 0.064716 0.000000 0.000000
# 5 0.000000 0.000000 0.000000 0.000000 0.064716 0.000000
# 6 0.000000 0.000000 0.000000 0.000000 0.000000 0.059112
#
#
# Mechanical properties :
#
#
# Convention : Reuss Voigt Hill
#
# Bulk Modulus (GPa) = 43.48039 47.05892 45.26966
# Shear Modulus (GPa) = 17.40182 17.99882 17.70032
#
# Velocity S-wave (km/s) = 3.02993 3.08146 3.05580
# Velocity P-wave (km/s) = 5.93119 6.12265 6.02768
#
# Compressibility (1/GPa) = 0.02299887
#
# Stress axis : x y z
#
# Youngs Moduli (GPa) = 47.94301 47.94301 65.18346
#
# Poissons Ratio (x) = 0.19209 0.42443
# Poissons Ratio (y) = 0.19209 0.42443
# Poissons Ratio (z) = 0.31217 0.31217
#
# Static dielectric constant tensor:
#      x y z
#    x 1.712420 0.000000 0.000000 
#    y 0.000000 1.712420 0.000000 
#    z 0.000000 0.000000 1.665010 
# 
# From -- ./inp_files/6264.got.cif
#   From: 2010.05.17/outbox.cif.g08.bks.cpg/sg125_4_cif.got.tgz:6264.got - 2010.05.20 11:54:10.
