data_PCOD9563472
_publ_section_title
;
Structure prediction by ZEFSAII (Michael W. Deem and Ramdas Pophale) SiO2 
 PCOD9563472
Probable space group: P 4/N N C
;
_chemical_formula_sum "Si O2"
_cell_formula_units_Z 68
_cell_length_a 17.711433
_cell_length_b 17.711433
_cell_length_c 10.882015
_cell_angle_alpha 90.000000
_cell_angle_beta 90.000000
_cell_angle_gamma 90.000000
_cell_volume 3413.632160
_symmetry_space_group_name_H-M "P 4/N N C"
_symmetry_group_IT_number 126
_space_group.IT_coordinate_system_code '2'
_symmetry_cell_setting 'tetragonal'
loop_
_space_group_symop_operation_xyz
x,y,z
1/2-y,x,z
1/2-x,1/2-y,z
y,1/2-x,z
x,1/2-y,1/2-z
1/2-x,y,1/2-z
y,x,1/2-z
1/2-y,1/2-x,1/2-z
-x,-y,-z
1/2+y,-x,-z
1/2+x,1/2+y,-z
-y,1/2+x,-z
-x,1/2+y,1/2+z
1/2+x,-y,1/2+z
-y,-x,1/2+z
1/2+y,1/2+x,1/2+z
loop_
_atom_site_type_symbol
_atom_site_label
_atom_site_fract_x
_atom_site_fract_y
_atom_site_fract_z
Si Si1 0.735752 0.435248 0.383497
Si Si2 0.101946 0.914884 0.992971
Si Si3 0.250000 0.250000 0.901502
Si Si4 0.597075 0.656825 0.123501
Si Si5 0.562302 0.555338 0.615875
O O1 0.750000 0.400287 0.250000
O O2 0.670512 0.393631 0.459337
O O3 0.816214 0.439556 0.448713
O O4 0.700958 0.518506 0.366265
O O5 0.034484 0.921943 0.893308
O O6 0.072291 0.973870 0.095469
O O7 0.336365 0.283237 0.893949
O O8 0.611835 0.611835 0.250000
O O9 0.591001 0.605046 0.001411
O O10 0.584970 0.584970 0.750000
#
# Coordination Sequence:
#
# PCOD9563472 Si02
#       5
#    16  16   4  16  16
#     4  11  22  40  62  86 117 157 207 257 305 363
#     4  10  22  38  62  88 116 155 204 253 303 359
#     4  12  21  36  61  94 125 156 201 250 301 364
#     4  11  22  37  64  93 123 160 202 251 305 370
#     4  10  21  40  62  88 121 159 200 245 303 369
#
# _framework density 19.920131000000001
#
# number of rings (size 3 to 8) (size 9 to 14) (size 15 to 20)
#    0.000    1.412    0.000    6.706    0.000    7.059 
#    0.000   20.588    0.000    0.000    0.000    0.000 
#    0.000    0.000    0.000    0.000    0.000    0.000 
#
# Total GULP energy -378800.712830 kJ/mol
# GULP energy per Si atom -5570.598718 kJ/mol
# Density = 1.987479 g / cm^3
# Si number density = 19.920131 Si / 1000 Ang^3
#
#
#
# Elastic Constant Matrix: (Units=GPa)
#
#
# Indices 1 2 3 4 5 6 
#
# 1 80.6465 -4.0931 14.6626 0.0000 0.0000 0.0000
# 2 -4.0931 80.6465 14.6626 0.0000 0.0000 0.0000
# 3 14.6626 14.6626 112.1028 0.0000 0.0000 0.0000
# 4 0.0000 0.0000 0.0000 7.1279 0.0000 0.0000
# 5 0.0000 0.0000 0.0000 0.0000 7.1279 0.0000
# 6 0.0000 0.0000 0.0000 0.0000 0.0000 24.7469
#
#
#
# Elastic Compliance Matrix: (Units=1/GPa)
#
#
# Indices 1 2 3 4 5 6 
#
# 1 0.012776 0.000975 -0.001799 0.000000 0.000000 0.000000
# 2 0.000975 0.012776 -0.001799 0.000000 0.000000 0.000000
# 3 -0.001799 -0.001799 0.009391 0.000000 0.000000 0.000000
# 4 0.000000 0.000000 0.000000 0.140293 0.000000 0.000000
# 5 0.000000 0.000000 0.000000 0.000000 0.140293 0.000000
# 6 0.000000 0.000000 0.000000 0.000000 0.000000 0.040409
#
#
# Mechanical properties :
#
#
# Convention : Reuss Voigt Hill
#
# Bulk Modulus (GPa) = 33.67030 35.98445 34.82737
# Shear Modulus (GPa) = 13.47408 24.34480 18.90944
#
# Velocity S-wave (km/s) = 2.60360 3.49968 3.08435
# Velocity P-wave (km/s) = 5.09683 5.86804 5.49598
#
# Compressibility (1/GPa) = 0.02969977
#
# Stress axis : x y z
#
# Youngs Moduli (GPa) = 78.26981 78.26981 106.48610
#
# Poissons Ratio (x) = -0.07635 0.19153
# Poissons Ratio (y) = -0.07635 0.19153
# Poissons Ratio (z) = 0.14078 0.14078
#
# Static dielectric constant tensor:
#      x y z
#    x 1.713810 0.000000 0.000000 
#    y 0.000000 1.713810 0.000000 
#    z 0.000000 0.000000 1.750000 
# 
# From -- ./inp_files/2633.got.cif
#   From: 2010.05.17/outbox.cif.g08.bks.cpg/sg126_2_cif.got.tgz:2633.got - 2010.05.20 11:58:20.
