data_PCOD9563648
_publ_section_title
;
Structure prediction by ZEFSAII (Michael W. Deem and Ramdas Pophale) SiO2 
 PCOD9563648
Probable space group: P 4/N N C
;
_chemical_formula_sum "Si O2"
_cell_formula_units_Z 88
_cell_length_a 14.463114
_cell_length_b 14.463114
_cell_length_c 19.283579
_cell_angle_alpha 90.000000
_cell_angle_beta 90.000000
_cell_angle_gamma 90.000000
_cell_volume 4033.771193
_symmetry_space_group_name_H-M "P 4/N N C"
_symmetry_group_IT_number 126
_space_group.IT_coordinate_system_code '2'
_symmetry_cell_setting 'tetragonal'
loop_
_space_group_symop_operation_xyz
x,y,z
1/2-y,x,z
1/2-x,1/2-y,z
y,1/2-x,z
x,1/2-y,1/2-z
1/2-x,y,1/2-z
y,x,1/2-z
1/2-y,1/2-x,1/2-z
-x,-y,-z
1/2+y,-x,-z
1/2+x,1/2+y,-z
-y,1/2+x,-z
-x,1/2+y,1/2+z
1/2+x,-y,1/2+z
-y,-x,1/2+z
1/2+y,1/2+x,1/2+z
loop_
_atom_site_type_symbol
_atom_site_label
_atom_site_fract_x
_atom_site_fract_y
_atom_site_fract_z
Si Si1 0.998566 0.991928 0.917963
Si Si2 0.676508 0.874279 0.894125
Si Si3 0.750000 0.592787 0.250000
Si Si4 0.750000 0.250000 0.350794
Si Si5 0.918153 0.750000 0.750000
Si Si6 0.328652 0.946546 0.658561
Si Si7 0.125217 0.917153 0.198541
O O1 0.960942 0.887968 0.904945
O O2 0.102405 0.997644 0.891812
O O3 0.937029 0.059860 0.869259
O O4 0.000000 0.000000 0.000000
O O5 0.627177 0.781428 0.921921
O O6 0.694885 0.868778 0.811641
O O7 0.839659 0.660342 0.250000
O O8 0.753795 0.521439 0.315101
O O9 0.704753 0.150892 0.375453
O O10 0.837349 0.200508 0.315063
O O11 0.989016 0.679018 0.786672
O O12 0.385454 0.924103 0.730027
#
# Coordination Sequence:
#
# PCOD9563648 Si02
#       7
#    16  16   8   8   8  16  16
#     4  12  28  48  66 101 152 200 247 291 365 460
#     4  11  23  40  67 106 147 183 226 288 368 445
#     4  11  24  43  70 106 138 183 256 309 364 436
#     4  12  23  42  75 118 145 170 245 328 387 434
#     4  12  20  36  72 110 144 176 222 301 369 428
#     4  12  23  43  74 108 140 188 242 324 382 425
#     4  12  21  41  72 104 145 178 236 308 367 436
#
# _framework density 21.815812000000001
#
# number of rings (size 3 to 8) (size 9 to 14) (size 15 to 20)
#    0.000    0.273    7.273    2.727    0.000    0.727 
#    3.273    0.909    0.000    4.364    0.000    0.000 
#    0.000    0.000    0.000    0.000    0.000    0.000 
#
# Total GULP energy -490382.324284 kJ/mol
# GULP energy per Si atom -5572.526412 kJ/mol
# Density = 2.176616 g / cm^3
# Si number density = 21.815812 Si / 1000 Ang^3
#
#
#
# Elastic Constant Matrix: (Units=GPa)
#
#
# Indices 1 2 3 4 5 6 
#
# 1 98.6666 15.0626 30.4174 0.0000 0.0000 0.0000
# 2 15.0626 98.6668 30.4174 0.0000 0.0000 0.0000
# 3 30.4174 30.4174 79.8513 0.0000 0.0000 0.0000
# 4 0.0000 0.0000 0.0000 3.8555 0.0000 0.0000
# 5 0.0000 0.0000 0.0000 0.0000 3.8554 0.0000
# 6 0.0000 0.0000 0.0000 0.0000 0.0000 52.6097
#
#
#
# Elastic Compliance Matrix: (Units=1/GPa)
#
#
# Indices 1 2 3 4 5 6 
#
# 1 0.011502 -0.000459 -0.004207 0.000000 0.000000 0.000000
# 2 -0.000459 0.011502 -0.004207 0.000000 0.000000 0.000000
# 3 -0.004207 -0.004207 0.015728 0.000000 0.000000 0.000000
# 4 0.000000 0.000000 0.000000 0.259373 0.000000 0.000000
# 5 0.000000 0.000000 0.000000 0.000000 0.259379 0.000000
# 6 0.000000 0.000000 0.000000 0.000000 0.000000 0.019008
#
#
# Mechanical properties :
#
#
# Convention : Reuss Voigt Hill
#
# Bulk Modulus (GPa) = 47.64686 47.66440 47.65563
# Shear Modulus (GPa) = 8.31626 25.48325 16.89975
#
# Velocity S-wave (km/s) = 1.95456 3.42147 2.78628
# Velocity P-wave (km/s) = 5.19439 6.12410 5.67830
#
# Compressibility (1/GPa) = 0.02098774
#
# Stress axis : x y z
#
# Youngs Moduli (GPa) = 86.94108 86.94122 63.58074
#
# Poissons Ratio (x) = 0.03992 0.26745
# Poissons Ratio (y) = 0.03992 0.26745
# Poissons Ratio (z) = 0.36572 0.36572
#
# Static dielectric constant tensor:
#      x y z
#    x 1.868960 0.000000 0.000000 
#    y 0.000000 1.868960 0.000000 
#    z 0.000000 0.000000 1.827930 
# 
# From -- ./inp_files/5201.got.cif
#   From: 2010.05.17/outbox.cif.g08.bks.cpg/sg126_3_cif.got.tgz:5201.got - 2010.05.20 11:58:20.
