data_PCOD9563120
_publ_section_title
;
Structure prediction by ZEFSAII (Michael W. Deem and Ramdas Pophale) SiO2 
 PCOD9563120
Probable space group: P 4/N B M
;
_chemical_formula_sum "Si O2"
_cell_formula_units_Z 80
_cell_length_a 13.811782
_cell_length_b 13.811782
_cell_length_c 23.366850
_cell_angle_alpha 90.000000
_cell_angle_beta 90.000000
_cell_angle_gamma 90.000000
_cell_volume 4457.584665
_symmetry_space_group_name_H-M "P 4/N B M"
_symmetry_group_IT_number 125
_space_group.IT_coordinate_system_code '2'
_symmetry_cell_setting 'tetragonal'
loop_
_space_group_symop_operation_xyz
x,y,z
1/2-y,x,z
1/2-x,1/2-y,z
y,1/2-x,z
x,1/2-y,-z
1/2-x,y,-z
y,x,-z
1/2-y,1/2-x,-z
-x,-y,-z
1/2+y,-x,-z
1/2+x,1/2+y,-z
-y,1/2+x,-z
-x,1/2+y,z
1/2+x,-y,z
-y,-x,z
1/2+y,1/2+x,z
loop_
_atom_site_type_symbol
_atom_site_label
_atom_site_fract_x
_atom_site_fract_y
_atom_site_fract_z
Si Si1 0.745397 0.589690 0.068162
Si Si2 0.749518 0.410931 0.152138
Si Si3 0.473104 0.371696 0.320718
Si Si4 0.637863 0.869653 0.562777
Si Si5 0.990024 0.169391 0.728822
O O1 0.840900 0.653812 0.081209
O O2 0.739642 0.491863 0.103789
O O3 0.750000 0.571448 0.000000
O O4 0.651790 0.348211 0.160794
O O5 0.833516 0.333516 0.137318
O O6 0.784013 0.463346 0.210328
O O7 0.574252 0.425749 0.314373
O O8 0.426575 0.398443 0.382010
O O9 0.488547 0.258526 0.312754
O O10 0.400088 0.416432 0.273597
O O11 0.619372 0.754593 0.565367
O O12 0.600182 0.899819 0.500000
O O13 0.899868 0.100133 0.711944
#
# Coordination Sequence:
#
# PCOD9563120 Si02
#       5
#    16  16  16  16  16
#     4   9  20  39  60  85 117 150 189 237 285 332
#     4  10  22  39  58  82 115 153 190 233 286 340
#     4  11  21  35  59  84 110 152 192 229 281 341
#     4   9  17  32  54  79 110 143 181 234 290 329
#     4  10  23  39  55  84 119 147 187 235 281 340
#
# _framework density 17.946940000000001
#
# number of rings (size 3 to 8) (size 9 to 14) (size 15 to 20)
#    0.000    2.200    2.000    1.800    2.800    3.600 
#    0.000    3.000    0.000    0.000    0.000    0.000 
#    0.000    0.000    0.000    0.000    0.000    0.000 
#
# Total GULP energy -445991.057055 kJ/mol
# GULP energy per Si atom -5574.888213 kJ/mol
# Density = 1.790609 g / cm^3
# Si number density = 17.946940 Si / 1000 Ang^3
#
#
#
# Elastic Constant Matrix: (Units=GPa)
#
#
# Indices 1 2 3 4 5 6 
#
# 1 85.4597 27.5359 39.1832 0.0000 0.0000 0.0000
# 2 27.5359 85.4596 39.1832 0.0000 0.0000 0.0000
# 3 39.1832 39.1832 72.3786 0.0000 0.0000 0.0000
# 4 0.0000 0.0000 0.0000 19.7510 0.0000 0.0000
# 5 0.0000 0.0000 0.0000 0.0000 19.7512 0.0000
# 6 0.0000 0.0000 0.0000 0.0000 0.0000 10.5330
#
#
#
# Elastic Compliance Matrix: (Units=1/GPa)
#
#
# Indices 1 2 3 4 5 6 
#
# 1 0.015717 -0.001547 -0.007671 0.000000 0.000000 0.000000
# 2 -0.001547 0.015717 -0.007671 0.000000 0.000000 0.000000
# 3 -0.007671 -0.007671 0.022122 0.000000 0.000000 0.000000
# 4 0.000000 0.000000 0.000000 0.050630 0.000000 0.000000
# 5 0.000000 0.000000 0.000000 0.000000 0.050630 0.000000
# 6 0.000000 0.000000 0.000000 0.000000 0.000000 0.094940
#
#
# Mechanical properties :
#
#
# Convention : Reuss Voigt Hill
#
# Bulk Modulus (GPa) = 50.56244 50.56696 50.56470
# Shear Modulus (GPa) = 17.23377 19.16674 18.20025
#
# Velocity S-wave (km/s) = 3.10217 3.27152 3.18797
# Velocity P-wave (km/s) = 6.40826 6.51977 6.46426
#
# Compressibility (1/GPa) = 0.01977753
#
# Stress axis : x y z
#
# Youngs Moduli (GPa) = 63.62492 63.62474 45.20362
#
# Poissons Ratio (x) = 0.09842 0.34677
# Poissons Ratio (y) = 0.09842 0.34677
# Poissons Ratio (z) = 0.48808 0.48808
#
# Static dielectric constant tensor:
#      x y z
#    x 1.594440 0.000000 0.000000 
#    y 0.000000 1.594440 0.000000 
#    z 0.000000 0.000000 1.634800 
# 
# From -- ./inp_files/5795.got.cif
#   From: 2010.05.17/outbox.cif.g08.bks.cpg/sg125_3_cif.got.tgz:5795.got - 2010.05.20 11:54:10.
