data_PCOD9563651
_publ_section_title
;
Structure prediction by ZEFSAII (Michael W. Deem and Ramdas Pophale) SiO2 
 PCOD9563651
Probable space group: P 4/N N C
;
_chemical_formula_sum "Si O2"
_cell_formula_units_Z 92
_cell_length_a 14.739229
_cell_length_b 14.739229
_cell_length_c 22.212989
_cell_angle_alpha 90.000000
_cell_angle_beta 90.000000
_cell_angle_gamma 90.000000
_cell_volume 4825.657941
_symmetry_space_group_name_H-M "P 4/N N C"
_symmetry_group_IT_number 126
_space_group.IT_coordinate_system_code '2'
_symmetry_cell_setting 'tetragonal'
loop_
_space_group_symop_operation_xyz
x,y,z
1/2-y,x,z
1/2-x,1/2-y,z
y,1/2-x,z
x,1/2-y,1/2-z
1/2-x,y,1/2-z
y,x,1/2-z
1/2-y,1/2-x,1/2-z
-x,-y,-z
1/2+y,-x,-z
1/2+x,1/2+y,-z
-y,1/2+x,-z
-x,1/2+y,1/2+z
1/2+x,-y,1/2+z
-y,-x,1/2+z
1/2+y,1/2+x,1/2+z
loop_
_atom_site_type_symbol
_atom_site_label
_atom_site_fract_x
_atom_site_fract_y
_atom_site_fract_z
Si Si1 0.401306 0.250000 0.250000
Si Si2 0.250000 0.250000 0.910796
Si Si3 0.944102 0.396739 0.685511
Si Si4 0.245613 0.598167 0.488527
Si Si5 0.465361 0.248792 0.900618
Si Si6 0.748221 0.445376 0.650512
Si Si7 0.411631 0.959088 0.676018
O O1 0.337809 0.337809 0.250000
O O2 0.462752 0.249567 0.309993
O O3 0.360228 0.266245 0.909124
O O4 0.836031 0.393291 0.676497
O O5 0.968203 0.379936 0.754982
O O6 0.990761 0.325029 0.642194
O O7 0.988019 0.496056 0.671656
O O8 0.161187 0.665045 0.503141
O O9 0.248986 0.518343 0.536614
O O10 0.239113 0.557343 0.421423
O O11 0.486069 0.154059 0.867478
O O12 0.647377 0.407415 0.661345
#
# Coordination Sequence:
#
# PCOD9563651 Si02
#       7
#     8   4  16  16  16  16  16
#     4  11  24  46  70 103 148 190 238 301 370 437
#     4  12  28  52  69  96 144 185 232 292 330 412
#     4  11  23  41  68 102 139 183 233 285 356 420
#     4  11  24  44  70 104 142 181 233 298 361 413
#     4  12  24  48  69 100 139 184 236 288 342 416
#     4  12  22  42  70 102 140 182 231 297 351 418
#     4  11  23  41  68 102 139 183 233 285 356 420
#
# _framework density 19.064758000000001
#
# number of rings (size 3 to 8) (size 9 to 14) (size 15 to 20)
#    0.000    0.609    6.957    1.565    0.000    0.696 
#    6.261    6.087    0.000    0.000    0.000    0.000 
#    0.000    0.000    0.000    0.000    0.000    0.000 
#
# Total GULP energy -512745.758750 kJ/mol
# GULP energy per Si atom -5573.323465 kJ/mol
# Density = 1.902137 g / cm^3
# Si number density = 19.064758 Si / 1000 Ang^3
#
#
#
# Elastic Constant Matrix: (Units=GPa)
#
#
# Indices 1 2 3 4 5 6 
#
# 1 99.7026 0.5868 16.4026 0.0000 0.0000 0.0000
# 2 0.5868 99.7026 16.4026 0.0000 0.0000 0.0000
# 3 16.4026 16.4026 123.3132 0.0000 0.0000 0.0000
# 4 0.0000 0.0000 0.0000 4.6708 0.0000 0.0000
# 5 0.0000 0.0000 0.0000 0.0000 4.6708 0.0000
# 6 0.0000 0.0000 0.0000 0.0000 0.0000 13.0844
#
#
#
# Elastic Compliance Matrix: (Units=1/GPa)
#
#
# Indices 1 2 3 4 5 6 
#
# 1 0.010257 0.000168 -0.001387 0.000000 0.000000 0.000000
# 2 0.000168 0.010257 -0.001387 0.000000 0.000000 0.000000
# 3 -0.001387 -0.001387 0.008478 0.000000 0.000000 0.000000
# 4 0.000000 0.000000 0.000000 0.214097 0.000000 0.000000
# 5 0.000000 0.000000 0.000000 0.000000 0.214097 0.000000
# 6 0.000000 0.000000 0.000000 0.000000 0.000000 0.076427
#
#
# Mechanical properties :
#
#
# Convention : Reuss Voigt Hill
#
# Bulk Modulus (GPa) = 42.05010 43.27806 42.66408
# Shear Modulus (GPa) = 9.14495 23.77362 16.45928
#
# Velocity S-wave (km/s) = 2.19253 3.53511 2.94144
# Velocity P-wave (km/s) = 5.33984 6.27794 5.82780
#
# Compressibility (1/GPa) = 0.02378115
#
# Stress axis : x y z
#
# Youngs Moduli (GPa) = 97.49467 97.49467 117.94778
#
# Poissons Ratio (x) = -0.01636 0.16355
# Poissons Ratio (y) = -0.01636 0.16355
# Poissons Ratio (z) = 0.13519 0.13519
#
# Static dielectric constant tensor:
#      x y z
#    x 1.662950 0.000000 0.000000 
#    y 0.000000 1.662950 0.000000 
#    z 0.000000 0.000000 1.639560 
# 
# From -- ./inp_files/5311.got.cif
#   From: 2010.05.17/outbox.cif.g08.bks.cpg/sg126_3_cif.got.tgz:5311.got - 2010.05.20 11:58:20.
