data_PCOD9563078
_publ_section_title
;
Structure prediction by ZEFSAII (Michael W. Deem and Ramdas Pophale) SiO2 
 PCOD9563078
Probable space group: P 4/N B M
;
_chemical_formula_sum "Si O2"
_cell_formula_units_Z 96
_cell_length_a 25.012347
_cell_length_b 25.012347
_cell_length_c 7.644697
_cell_angle_alpha 90.000000
_cell_angle_beta 90.000000
_cell_angle_gamma 90.000000
_cell_volume 4782.656244
_symmetry_space_group_name_H-M "P 4/N B M"
_symmetry_group_IT_number 125
_space_group.IT_coordinate_system_code '2'
_symmetry_cell_setting 'tetragonal'
loop_
_space_group_symop_operation_xyz
x,y,z
1/2-y,x,z
1/2-x,1/2-y,z
y,1/2-x,z
x,1/2-y,-z
1/2-x,y,-z
y,x,-z
1/2-y,1/2-x,-z
-x,-y,-z
1/2+y,-x,-z
1/2+x,1/2+y,-z
-y,1/2+x,-z
-x,1/2+y,z
1/2+x,-y,z
-y,-x,z
1/2+y,1/2+x,z
loop_
_atom_site_type_symbol
_atom_site_label
_atom_site_fract_x
_atom_site_fract_y
_atom_site_fract_z
Si Si1 0.541170 0.370585 0.260853
Si Si2 0.579161 0.643371 0.349442
Si Si3 0.970716 0.305526 0.404537
Si Si4 0.455830 0.460645 0.794135
Si Si5 0.317008 0.196833 0.286797
Si Si6 0.903086 0.189365 0.954348
O O1 0.579929 0.420071 0.225148
O O2 0.548352 0.349387 0.455318
O O3 0.482981 0.396884 0.247376
O O4 0.557535 0.328378 0.113213
O O5 0.609771 0.609771 0.500000
O O6 0.535677 0.688648 0.394657
O O7 0.541109 0.599907 0.261341
O O8 0.628845 0.666367 0.239349
O O9 0.958427 0.250000 0.500000
O O10 0.938446 0.310401 0.223208
O O11 0.501799 0.498202 0.713865
O O12 0.462119 0.462119 0.000000
O O13 0.322446 0.258546 0.229266
O O14 0.309998 0.190003 0.500000
O O15 0.853845 0.146156 0.944209
O O16 0.884621 0.250000 0.000000
#
# Coordination Sequence:
#
# PCOD9563078 Si02
#       6
#    16  16  16  16  16  16
#     4  10  21  40  64  90 125 166 205 255 315 378
#     4  11  22  33  57  91 121 159 209 261 305 374
#     4  12  24  39  63  94 129 166 208 264 322 387
#     4  10  21  38  58  83 121 164 208 256 310 372
#     4   8  16  31  52  78 113 156 199 251 312 359
#     4  11  24  45  70  96 127 165 208 258 324 391
#
# _framework density 20.072528999999999
#
# number of rings (size 3 to 8) (size 9 to 14) (size 15 to 20)
#    0.000    1.667    3.333    2.000    4.667    3.167 
#    0.000    0.000    0.000    0.000    0.000    1.167 
#    0.000    0.000    0.000    0.000    0.000    0.000 
#
# Total GULP energy -534779.218679 kJ/mol
# GULP energy per Si atom -5570.616861 kJ/mol
# Density = 2.002684 g / cm^3
# Si number density = 20.072529 Si / 1000 Ang^3
#
#
#
# Elastic Constant Matrix: (Units=GPa)
#
#
# Indices 1 2 3 4 5 6 
#
# 1 90.9198 35.0316 24.7569 0.0000 0.0000 0.0000
# 2 35.0316 90.9198 24.7568 0.0000 0.0000 0.0000
# 3 24.7569 24.7568 88.4993 0.0000 0.0000 0.0000
# 4 0.0000 0.0000 0.0000 14.5005 0.0000 0.0000
# 5 0.0000 0.0000 0.0000 0.0000 14.5006 0.0000
# 6 0.0000 0.0000 0.0000 0.0000 0.0000 24.7977
#
#
#
# Elastic Compliance Matrix: (Units=1/GPa)
#
#
# Indices 1 2 3 4 5 6 
#
# 1 0.013407 -0.004486 -0.002495 0.000000 0.000000 0.000000
# 2 -0.004486 0.013407 -0.002495 0.000000 0.000000 0.000000
# 3 -0.002495 -0.002495 0.012696 0.000000 0.000000 0.000000
# 4 0.000000 0.000000 0.000000 0.068963 0.000000 0.000000
# 5 0.000000 0.000000 0.000000 0.000000 0.068963 0.000000
# 6 0.000000 0.000000 0.000000 0.000000 0.000000 0.040326
#
#
# Mechanical properties :
#
#
# Convention : Reuss Voigt Hill
#
# Bulk Modulus (GPa) = 48.64985 48.82548 48.73767
# Shear Modulus (GPa) = 20.52821 23.14599 21.83710
#
# Velocity S-wave (km/s) = 3.20144 3.39944 3.30193
# Velocity P-wave (km/s) = 6.16079 6.30758 6.23462
#
# Compressibility (1/GPa) = 0.02055505
#
# Stress axis : x y z
#
# Youngs Moduli (GPa) = 74.58942 74.58947 78.76696
#
# Poissons Ratio (x) = 0.33462 0.19656
# Poissons Ratio (y) = 0.33462 0.19656
# Poissons Ratio (z) = 0.18613 0.18613
#
# Static dielectric constant tensor:
#      x y z
#    x 1.779570 0.000000 0.000000 
#    y 0.000000 1.779570 0.000000 
#    z 0.000000 0.000000 1.775280 
# 
# From -- ./inp_files/2894.got.cif
#   From: 2010.05.17/outbox.cif.g08.bks.cpg/sg125_2_cif.got.tgz:2894.got - 2010.05.20 11:54:10.
