data_PCOD9563700
_publ_section_title
;
Structure prediction by ZEFSAII (Michael W. Deem and Ramdas Pophale) SiO2 
 PCOD9563700
Probable space group: P 4/N N C
;
_chemical_formula_sum "Si O2"
_cell_formula_units_Z 48
_cell_length_a 12.416798
_cell_length_b 12.416798
_cell_length_c 13.686497
_cell_angle_alpha 90.000000
_cell_angle_beta 90.000000
_cell_angle_gamma 90.000000
_cell_volume 2110.141304
_symmetry_space_group_name_H-M "P 4/N N C"
_symmetry_group_IT_number 126
_space_group.IT_coordinate_system_code '2'
_symmetry_cell_setting 'tetragonal'
loop_
_space_group_symop_operation_xyz
x,y,z
1/2-y,x,z
1/2-x,1/2-y,z
y,1/2-x,z
x,1/2-y,1/2-z
1/2-x,y,1/2-z
y,x,1/2-z
1/2-y,1/2-x,1/2-z
-x,-y,-z
1/2+y,-x,-z
1/2+x,1/2+y,-z
-y,1/2+x,-z
-x,1/2+y,1/2+z
1/2+x,-y,1/2+z
-y,-x,1/2+z
1/2+y,1/2+x,1/2+z
loop_
_atom_site_type_symbol
_atom_site_label
_atom_site_fract_x
_atom_site_fract_y
_atom_site_fract_z
Si Si1 0.579322 0.783549 0.026325
Si Si2 0.493556 0.152899 0.180433
Si Si3 0.374622 0.774275 0.364109
O O1 0.628388 0.667830 0.055787
O O2 0.461549 0.791333 0.073653
O O3 0.571733 0.795649 0.909112
O O4 0.531961 0.250000 0.250000
O O5 0.426845 0.073156 0.250000
O O6 0.598398 0.103225 0.129939
O O7 0.250000 0.750000 0.389915
O O8 0.389313 0.750000 0.250000
#
# Coordination Sequence:
#
# PCOD9563700 Si02
#       3
#    16  16  16
#     4  11  27  46  73 109 145 192 245 306 372 440
#     4  12  25  45  74 105 144 192 244 305 361 436
#     4  11  27  47  69 105 149 193 243 302 370 444
#
# _framework density 22.747291000000001
#
# number of rings (size 3 to 8) (size 9 to 14) (size 15 to 20)
#    0.000    0.667    6.667    0.000    9.333    1.667 
#    0.000    1.667    0.000    0.000    0.000    0.000 
#    0.000    0.000    0.000    0.000    0.000    0.000 
#
# Total GULP energy -268388.493136 kJ/mol
# GULP energy per Si atom -5591.426940 kJ/mol
# Density = 2.269552 g / cm^3
# Si number density = 22.747291 Si / 1000 Ang^3
#
#
#
# Elastic Constant Matrix: (Units=GPa)
#
#
# Indices 1 2 3 4 5 6 
#
# 1 118.5446 51.5428 44.6780 0.0000 0.0000 0.0000
# 2 51.5428 118.5450 44.6791 0.0000 0.0000 0.0000
# 3 44.6780 44.6791 109.0418 0.0000 0.0000 0.0000
# 4 0.0000 0.0000 0.0000 16.8922 0.0000 0.0000
# 5 0.0000 0.0000 0.0000 0.0000 16.8913 0.0000
# 6 0.0000 0.0000 0.0000 0.0000 0.0000 29.1025
#
#
#
# Elastic Compliance Matrix: (Units=1/GPa)
#
#
# Indices 1 2 3 4 5 6 
#
# 1 0.011208 -0.003716 -0.003070 0.000000 0.000000 0.000000
# 2 -0.003716 0.011209 -0.003070 0.000000 0.000000 0.000000
# 3 -0.003070 -0.003070 0.011686 0.000000 0.000000 0.000000
# 4 0.000000 0.000000 0.000000 0.059199 0.000000 0.000000
# 5 0.000000 0.000000 0.000000 0.000000 0.059202 0.000000
# 6 0.000000 0.000000 0.000000 0.000000 0.000000 0.034361
#
#
# Mechanical properties :
#
#
# Convention : Reuss Voigt Hill
#
# Bulk Modulus (GPa) = 69.48590 69.77011 69.62801
# Shear Modulus (GPa) = 23.65468 26.25931 24.95699
#
# Velocity S-wave (km/s) = 3.22823 3.40132 3.31591
# Velocity P-wave (km/s) = 6.67147 6.79439 6.73321
#
# Compressibility (1/GPa) = 0.01439141
#
# Stress axis : x y z
#
# Youngs Moduli (GPa) = 89.21826 89.21782 85.56948
#
# Poissons Ratio (x) = 0.33157 0.26267
# Poissons Ratio (y) = 0.33157 0.26269
# Poissons Ratio (z) = 0.27387 0.27389
#
# Static dielectric constant tensor:
#      x y z
#    x 1.878740 0.000000 0.000000 
#    y 0.000000 1.878740 0.000000 
#    z 0.000000 0.000000 1.826440 
# 
# From -- ./inp_files/4126.got.cif
#   From: 2010.05.17/outbox.cif.g08.bks.cpg/sg126_3_cif.got.tgz:4126.got - 2010.05.20 11:58:20.
