data_PCOD9563378
_publ_section_title
;
Structure prediction by ZEFSAII (Michael W. Deem and Ramdas Pophale) SiO2 
 PCOD9563378
Probable space group: P 4/N N C
;
_chemical_formula_sum "Si O2"
_cell_formula_units_Z 80
_cell_length_a 11.440904
_cell_length_b 11.440904
_cell_length_c 30.796313
_cell_angle_alpha 90.000000
_cell_angle_beta 90.000000
_cell_angle_gamma 90.000000
_cell_volume 4031.061350
_symmetry_space_group_name_H-M "P 4/N N C"
_symmetry_group_IT_number 126
_space_group.IT_coordinate_system_code '2'
_symmetry_cell_setting 'tetragonal'
loop_
_space_group_symop_operation_xyz
x,y,z
1/2-y,x,z
1/2-x,1/2-y,z
y,1/2-x,z
x,1/2-y,1/2-z
1/2-x,y,1/2-z
y,x,1/2-z
1/2-y,1/2-x,1/2-z
-x,-y,-z
1/2+y,-x,-z
1/2+x,1/2+y,-z
-y,1/2+x,-z
-x,1/2+y,1/2+z
1/2+x,-y,1/2+z
-y,-x,1/2+z
1/2+y,1/2+x,1/2+z
loop_
_atom_site_type_symbol
_atom_site_label
_atom_site_fract_x
_atom_site_fract_y
_atom_site_fract_z
Si Si1 0.130973 0.895688 0.110824
Si Si2 0.436144 0.750000 0.750000
Si Si3 0.750000 0.250000 0.680279
Si Si4 0.918723 0.649112 0.820942
Si Si5 0.446460 0.272341 0.055351
Si Si6 0.059621 0.300173 0.544688
O O1 0.155487 0.800119 0.147465
O O2 0.041304 0.845940 0.075953
O O3 0.093844 0.004245 0.141255
O O4 0.248261 0.942787 0.086087
O O5 0.351117 0.796356 0.712074
O O6 0.512619 0.846558 0.775161
O O7 0.901611 0.789653 0.825111
O O8 0.348914 0.372912 0.061733
O O9 0.481922 0.295021 0.005495
O O10 0.112496 0.170094 0.550989
#
# Coordination Sequence:
#
# PCOD9563378 Si02
#       6
#    16   8   8  16  16  16
#     4  11  21  33  56  82 111 145 182 236 291 332
#     4   9  18  37  54  70 112 153 168 205 272 336
#     4   9  22  36  49  80 114 138 179 228 270 335
#     4  10  20  34  56  87 115 141 179 227 288 362
#     4   9  19  36  55  78 111 147 184 233 291 347
#     4   9  21  39  54  73 108 154 199 235 271 331
#
# _framework density 19.845890000000001
#
# number of rings (size 3 to 8) (size 9 to 14) (size 15 to 20)
#    0.000    2.400    0.000    3.000    0.000   12.000 
#    0.000    0.000    0.000    0.000    0.000    0.000 
#    0.000   22.400    0.000    0.000    0.000    0.000 
#
# Total GULP energy -445339.539831 kJ/mol
# GULP energy per Si atom -5566.744248 kJ/mol
# Density = 1.980072 g / cm^3
# Si number density = 19.845890 Si / 1000 Ang^3
#
#
#
# Elastic Constant Matrix: (Units=GPa)
#
#
# Indices 1 2 3 4 5 6 
#
# 1 56.0934 18.9174 47.1818 0.0000 0.0000 0.0000
# 2 18.9174 56.0934 47.1818 0.0000 0.0000 0.0000
# 3 47.1818 47.1818 139.7239 0.0000 0.0000 0.0000
# 4 0.0000 0.0000 0.0000 8.3430 0.0000 0.0000
# 5 0.0000 0.0000 0.0000 0.0000 8.3430 0.0000
# 6 0.0000 0.0000 0.0000 0.0000 0.0000 11.9822
#
#
#
# Elastic Compliance Matrix: (Units=1/GPa)
#
#
# Indices 1 2 3 4 5 6 
#
# 1 0.025038 -0.001861 -0.007826 0.000000 0.000000 0.000000
# 2 -0.001861 0.025038 -0.007826 0.000000 0.000000 0.000000
# 3 -0.007826 -0.007826 0.012443 0.000000 0.000000 0.000000
# 4 0.000000 0.000000 0.000000 0.119861 0.000000 0.000000
# 5 0.000000 0.000000 0.000000 0.000000 0.119861 0.000000
# 6 0.000000 0.000000 0.000000 0.000000 0.000000 0.083457
#
#
# Mechanical properties :
#
#
# Convention : Reuss Voigt Hill
#
# Bulk Modulus (GPa) = 36.37548 53.16364 44.76956
# Shear Modulus (GPa) = 11.63091 14.97563 13.30327
#
# Velocity S-wave (km/s) = 2.42350 2.74997 2.59188
# Velocity P-wave (km/s) = 5.11858 6.07697 5.61825
#
# Compressibility (1/GPa) = 0.02749104
#
# Stress axis : x y z
#
# Youngs Moduli (GPa) = 39.93926 39.93926 80.36919
#
# Poissons Ratio (x) = 0.07433 0.62900
# Poissons Ratio (y) = 0.07433 0.62900
# Poissons Ratio (z) = 0.31258 0.31258
#
# Static dielectric constant tensor:
#      x y z
#    x 1.739110 0.000000 0.000000 
#    y 0.000000 1.739110 0.000000 
#    z 0.000000 0.000000 1.755730 
# 
# From -- ./inp_files/6472.got.cif
#   From: 2010.05.17/outbox.cif.g08.bks.cpg/sg126_4_cif.got.tgz:6472.got - 2010.05.20 11:58:20.
