data_PCOD9563736
_publ_section_title
;
Structure prediction by ZEFSAII (Michael W. Deem and Ramdas Pophale) SiO2 
 PCOD9563736
Probable space group: P 4/M B M
;
_chemical_formula_sum "Si O2"
_cell_formula_units_Z 92
_cell_length_a 15.707251
_cell_length_b 15.707251
_cell_length_c 14.323980
_cell_angle_alpha 90.000000
_cell_angle_beta 90.000000
_cell_angle_gamma 90.000000
_cell_volume 3533.979887
_symmetry_space_group_name_H-M "P 4/M B M"
_symmetry_group_IT_number 127
_symmetry_cell_setting 'tetragonal'
loop_
_space_group_symop_operation_xyz
x,y,z
-y,x,z
-x,-y,z
y,-x,z
1/2+x,1/2-y,-z
1/2-x,1/2+y,-z
1/2+y,1/2+x,-z
1/2-y,1/2-x,-z
-x,-y,-z
y,-x,-z
x,y,-z
-y,x,-z
1/2-x,1/2+y,z
1/2+x,1/2-y,z
1/2-y,1/2-x,z
1/2+y,1/2+x,z
loop_
_atom_site_type_symbol
_atom_site_label
_atom_site_fract_x
_atom_site_fract_y
_atom_site_fract_z
Si Si1 0.459090 0.626627 0.111704
Si Si2 0.460142 0.636976 0.606617
Si Si3 0.996550 0.687283 0.896799
Si Si4 0.200239 0.700239 0.100048
Si Si5 0.496606 0.799336 0.301122
Si Si6 0.702182 0.797819 0.300444
Si Si7 0.016828 0.652065 0.500000
Si Si8 0.705206 0.794795 0.500000
O O1 0.396867 0.553625 0.148992
O O2 0.443521 0.726062 0.115695
O O3 0.458777 0.613437 0.000000
O O4 0.399464 0.555873 0.614014
O O5 0.448607 0.671072 0.500000
O O6 0.451427 0.707340 0.686416
O O7 0.097367 0.710686 0.900585
O O8 0.983029 0.648814 0.794268
O O9 0.979628 0.650024 0.000000
O O10 0.233586 0.733586 0.199360
O O11 0.233374 0.733374 0.000000
O O12 0.599544 0.785924 0.302274
O O13 0.473907 0.839276 0.400434
O O14 0.737038 0.762963 0.399414
O O15 0.062566 0.562566 0.500000
O O16 0.101687 0.714535 0.500000
#
# Coordination Sequence:
#
# PCOD9563736 Si02
#       8
#    16  16  16   8  16   8   8   4
#     4   8  14  25  38  50  67  93 127 162 184 199
#     4   9  18  29  38  51  73 101 128 150 178 218
#     4   9  17  25  35  52  70  90 112 139 179 219
#     4   8  14  24  34  46  68  88 106 132 170 218
#     4  10  15  25  41  51  67  86 113 152 180 207
#     4   8  14  22  36  56  62  76 108 146 182 208
#     4   8  14  24  38  55  65  76 110 152 182 207
#     4   6  10  18  30  46  64  66  86 134 166 196
#
# _framework density 26.032971
#
# number of rings (size 3 to 8) (size 9 to 14) (size 15 to 20)
#    0.261    3.130    1.739    1.043    0.000    1.391 
#    0.000    1.739    0.000    0.000    0.000    0.000 
#    0.000    0.000    0.000    0.000    0.000    1.739 
#
# Total GULP energy -512398.118558 kJ/mol
# GULP energy per Si atom -5569.544767 kJ/mol
# Density = 2.597372 g / cm^3
# Si number density = 26.032971 Si / 1000 Ang^3
#
#
#
# Elastic Constant Matrix: (Units=GPa)
#
#
# Indices 1 2 3 4 5 6 
#
# 1 31.2362 16.8130 15.7431 0.0000 0.0000 0.0000
# 2 16.8130 31.2368 15.7432 0.0000 0.0000 0.0000
# 3 15.7431 15.7432 312.5197 0.0000 0.0000 0.0000
# 4 0.0000 0.0000 0.0000 -29.2665 0.0000 0.0000
# 5 0.0000 0.0000 0.0000 0.0000 -29.2665 0.0000
# 6 0.0000 0.0000 0.0000 0.0000 0.0000 10.8228
#
#
#
# Elastic Compliance Matrix: (Units=1/GPa)
#
#
# Indices 1 2 3 4 5 6 
#
# 1 0.045427 -0.023905 -0.001084 0.000000 0.000000 0.000000
# 2 -0.023905 0.045426 -0.001084 0.000000 0.000000 0.000000
# 3 -0.001084 -0.001084 0.003309 0.000000 0.000000 0.000000
# 4 0.000000 0.000000 0.000000 -0.034169 0.000000 0.000000
# 5 0.000000 0.000000 0.000000 0.000000 -0.034169 0.000000
# 6 0.000000 0.000000 0.000000 0.000000 0.000000 0.092397
#
#
# Mechanical properties :
#
#
# Convention : Reuss Voigt Hill
#
# Bulk Modulus (GPa) = 23.79993 52.39903 38.09948
# Shear Modulus (GPa) = 27.11881 12.23752 19.67817
#
# Velocity S-wave (km/s) = 3.23105 2.17048 2.75234
# Velocity P-wave (km/s) = 4.80434 5.14324 4.97668
#
# Compressibility (1/GPa) = 0.04201693
#
# Stress axis : x y z
#
# Youngs Moduli (GPa) = 22.01323 22.01359 302.20339
#
# Poissons Ratio (x) = 0.52622 0.32765
# Poissons Ratio (y) = 0.52622 0.32764
# Poissons Ratio (z) = 0.02387 0.02387
#
# Static dielectric constant tensor:
#      x y z
#    x 2.085490 0.000000 0.000000 
#    y 0.000000 2.085490 0.000000 
#    z 0.000000 0.000000 2.124020 
# 
# From -- ./inp_files/4573.got.cif
#   From: 2010.05.17/outbox.cif.g08.bks.cpg/sg127_3_cif.got.tgz:4573.got - 2010.05.20 12:03:00.
