data_PCOD9563291
_publ_section_title
;
Structure prediction by ZEFSAII (Michael W. Deem and Ramdas Pophale) SiO2 
 PCOD9563291
Probable space group: P 4/N N C
;
_chemical_formula_sum "Si O2"
_cell_formula_units_Z 56
_cell_length_a 12.939383
_cell_length_b 12.939383
_cell_length_c 17.624703
_cell_angle_alpha 90.000000
_cell_angle_beta 90.000000
_cell_angle_gamma 90.000000
_cell_volume 2950.862295
_symmetry_space_group_name_H-M "P 4/N N C"
_symmetry_group_IT_number 126
_space_group.IT_coordinate_system_code '2'
_symmetry_cell_setting 'tetragonal'
loop_
_space_group_symop_operation_xyz
x,y,z
1/2-y,x,z
1/2-x,1/2-y,z
y,1/2-x,z
x,1/2-y,1/2-z
1/2-x,y,1/2-z
y,x,1/2-z
1/2-y,1/2-x,1/2-z
-x,-y,-z
1/2+y,-x,-z
1/2+x,1/2+y,-z
-y,1/2+x,-z
-x,1/2+y,1/2+z
1/2+x,-y,1/2+z
-y,-x,1/2+z
1/2+y,1/2+x,1/2+z
loop_
_atom_site_type_symbol
_atom_site_label
_atom_site_fract_x
_atom_site_fract_y
_atom_site_fract_z
Si Si1 0.909329 0.312106 0.485384
Si Si2 0.592204 0.686788 0.096256
Si Si3 0.688473 0.358601 0.677355
Si Si4 0.502850 0.750000 0.250000
O O1 0.879146 0.193972 0.503840
O O2 0.930521 0.315355 0.395630
O O3 0.997882 0.345561 0.543074
O O4 0.693810 0.620788 0.080269
O O5 0.565162 0.688262 0.185792
O O6 0.750000 0.250000 0.657521
O O7 0.750000 0.400729 0.750000
O O8 0.575120 0.324767 0.703988
#
# Coordination Sequence:
#
# PCOD9563291 Si02
#       4
#    16  16  16   8
#     4  11  18  35  58  85 110 143 188 234 283 327
#     4  11  24  38  55  80 117 156 186 225 277 334
#     4   9  16  29  55  83 110 141 178 232 283 327
#     4  10  17  35  54  80 110 148 186 222 274 332
#
# _framework density 18.977504
#
# number of rings (size 3 to 8) (size 9 to 14) (size 15 to 20)
#    0.000    2.000    5.714    2.571    0.000    2.286 
#    0.000    0.000    0.000    0.000    0.000    2.000 
#    0.000    0.000    0.000    0.000    0.000    0.000 
#
# Total GULP energy -312551.403945 kJ/mol
# GULP energy per Si atom -5581.275070 kJ/mol
# Density = 1.893431 g / cm^3
# Si number density = 18.977504 Si / 1000 Ang^3
#
#
#
# Elastic Constant Matrix: (Units=GPa)
#
#
# Indices 1 2 3 4 5 6 
#
# 1 36.8411 -10.7795 1.1228 0.0000 0.0000 0.0000
# 2 -10.7795 36.8411 1.1228 0.0000 0.0000 0.0000
# 3 1.1228 1.1228 126.9703 0.0000 0.0000 0.0000
# 4 0.0000 0.0000 0.0000 16.6718 0.0000 0.0000
# 5 0.0000 0.0000 0.0000 0.0000 16.6718 0.0000
# 6 0.0000 0.0000 0.0000 0.0000 0.0000 -0.5423
#
#
#
# Elastic Compliance Matrix: (Units=1/GPa)
#
#
# Indices 1 2 3 4 5 6 
#
# 1 0.029700 0.008700 -0.000340 0.000000 0.000000 0.000000
# 2 0.008700 0.029700 -0.000340 0.000000 0.000000 0.000000
# 3 -0.000340 -0.000340 0.007882 0.000000 0.000000 0.000000
# 4 0.000000 0.000000 0.000000 0.059982 0.000000 0.000000
# 5 0.000000 0.000000 0.000000 0.000000 0.059982 0.000000
# 6 0.000000 0.000000 0.000000 0.000000 0.000000 -1.843874
#
#
# Mechanical properties :
#
#
# Convention : Reuss Voigt Hill
#
# Bulk Modulus (GPa) = 12.00142 20.39830 16.19986
# Shear Modulus (GPa) = -3.03970 20.50599 8.73314
#
# Velocity S-wave (km/s) = -1.26697 3.29073 2.14752
# Velocity P-wave (km/s) = 2.04877 5.02101 3.83458
#
# Compressibility (1/GPa) = 0.08332348
#
# Stress axis : x y z
#
# Youngs Moduli (GPa) = 33.67043 33.67043 126.87360
#
# Poissons Ratio (x) = -0.29294 0.04308
# Poissons Ratio (y) = -0.29294 0.04308
# Poissons Ratio (z) = 0.01143 0.01143
#
# Static dielectric constant tensor:
#      x y z
#    x 1.665510 0.000000 0.000000 
#    y 0.000000 1.665510 0.000000 
#    z 0.000000 0.000000 1.712060 
# 
# From -- ./inp_files/4194.got.cif
#   From: 2010.05.17/outbox.cif.g08.bks.cpg/sg126_3_cif.got.tgz:4194.got - 2010.05.20 11:58:20.
