data_PCOD9563326
_publ_section_title
;
Structure prediction by ZEFSAII (Michael W. Deem and Ramdas Pophale) SiO2 
 PCOD9563326
Probable space group: P 4/N N C
;
_chemical_formula_sum "Si O2"
_cell_formula_units_Z 96
_cell_length_a 17.382050
_cell_length_b 17.382050
_cell_length_c 16.551472
_cell_angle_alpha 90.000000
_cell_angle_beta 90.000000
_cell_angle_gamma 90.000000
_cell_volume 5000.789953
_symmetry_space_group_name_H-M "P 4/N N C"
_symmetry_group_IT_number 126
_space_group.IT_coordinate_system_code '2'
_symmetry_cell_setting 'tetragonal'
loop_
_space_group_symop_operation_xyz
x,y,z
1/2-y,x,z
1/2-x,1/2-y,z
y,1/2-x,z
x,1/2-y,1/2-z
1/2-x,y,1/2-z
y,x,1/2-z
1/2-y,1/2-x,1/2-z
-x,-y,-z
1/2+y,-x,-z
1/2+x,1/2+y,-z
-y,1/2+x,-z
-x,1/2+y,1/2+z
1/2+x,-y,1/2+z
-y,-x,1/2+z
1/2+y,1/2+x,1/2+z
loop_
_atom_site_type_symbol
_atom_site_label
_atom_site_fract_x
_atom_site_fract_y
_atom_site_fract_z
Si Si1 0.789880 0.632470 0.494349
Si Si2 0.943019 0.250000 0.750000
Si Si3 0.840886 0.840886 0.750000
Si Si4 0.971310 0.468129 0.337304
Si Si5 0.340668 0.896374 0.264597
Si Si6 0.963902 0.628443 0.885694
Si Si7 0.840456 0.918630 0.172872
O O1 0.844095 0.704101 0.518302
O O2 0.818510 0.556321 0.539010
O O3 0.798495 0.625587 0.398236
O O4 0.888146 0.318017 0.716782
O O5 0.005618 0.290013 0.807876
O O6 0.750000 0.854099 0.750000
O O7 0.866985 0.890651 0.825704
O O8 0.930508 0.387413 0.313776
O O9 0.917782 0.540301 0.357665
O O10 0.007873 0.492128 0.250000
O O11 0.038002 0.465820 0.402876
O O12 0.250000 0.883089 0.250000
O O13 0.348114 0.960082 0.335595
O O14 0.866071 0.866071 0.250000
#
# Coordination Sequence:
#
# PCOD9563326 Si02
#       7
#    16   8   8  16  16  16  16
#     4  11  25  38  53  86 123 155 201 256 308 370
#     4  10  21  38  64  91 116 144 212 276 296 359
#     4  11  20  30  50  78 116 168 203 236 288 352
#     4   8  17  32  54  85 109 142 201 244 283 360
#     4  10  19  33  59  90 118 159 205 242 304 369
#     4  11  20  34  54  82 123 160 199 243 295 372
#     4  10  20  40  64  81 108 154 200 263 324 365
#
# _framework density 19.196967999999998
#
# number of rings (size 3 to 8) (size 9 to 14) (size 15 to 20)
#    0.000    1.917    2.500    3.750    2.333    2.000 
#    0.000    0.833    0.000    0.000    0.000    0.000 
#    0.000    0.000    0.000    0.000    0.000    0.000 
#
# Total GULP energy -534575.465914 kJ/mol
# GULP energy per Si atom -5568.494437 kJ/mol
# Density = 1.915327 g / cm^3
# Si number density = 19.196968 Si / 1000 Ang^3
#
#
#
# Elastic Constant Matrix: (Units=GPa)
#
#
# Indices 1 2 3 4 5 6 
#
# 1 113.5096 11.1269 24.1727 0.0000 0.0000 0.0000
# 2 11.1269 113.5088 24.1727 0.0000 0.0000 0.0000
# 3 24.1727 24.1727 50.7272 0.0000 0.0000 0.0000
# 4 0.0000 0.0000 0.0000 17.2240 0.0000 0.0000
# 5 0.0000 0.0000 0.0000 0.0000 17.2242 0.0000
# 6 0.0000 0.0000 0.0000 0.0000 0.0000 18.4571
#
#
#
# Elastic Compliance Matrix: (Units=1/GPa)
#
#
# Indices 1 2 3 4 5 6 
#
# 1 0.009805 0.000038 -0.004690 0.000000 0.000000 0.000000
# 2 0.000038 0.009805 -0.004690 0.000000 0.000000 0.000000
# 3 -0.004690 -0.004690 0.024183 0.000000 0.000000 0.000000
# 4 0.000000 0.000000 0.000000 0.058059 0.000000 0.000000
# 5 0.000000 0.000000 0.000000 0.000000 0.058058 0.000000
# 6 0.000000 0.000000 0.000000 0.000000 0.000000 0.054180
#
#
# Mechanical properties :
#
#
# Convention : Reuss Voigt Hill
#
# Bulk Modulus (GPa) = 39.82857 44.07670 41.95263
# Shear Modulus (GPa) = 20.73448 25.13262 22.93355
#
# Velocity S-wave (km/s) = 3.29004 3.62221 3.46011
# Velocity P-wave (km/s) = 5.93505 6.36427 6.15341
#
# Compressibility (1/GPa) = 0.02510761
#
# Stress axis : x y z
#
# Youngs Moduli (GPa) = 101.98921 101.98845 41.35083
#
# Poissons Ratio (x) = -0.00384 0.19395
# Poissons Ratio (y) = -0.00384 0.19395
# Poissons Ratio (z) = 0.47835 0.47836
#
# Static dielectric constant tensor:
#      x y z
#    x 2.183610 0.000000 0.000000 
#    y 0.000000 2.183520 0.000000 
#    z 0.000000 0.000000 1.691940 
# 
# From -- ./inp_files/4531.got.cif
#   From: 2010.05.17/outbox.cif.g08.bks.cpg/sg126_3_cif.got.tgz:4531.got - 2010.05.20 11:58:20.
