data_PCOD9563199
_publ_section_title
;
Structure prediction by ZEFSAII (Michael W. Deem and Ramdas Pophale) SiO2 
 PCOD9563199
Probable space group: P 4/N B M
;
_chemical_formula_sum "Si O2"
_cell_formula_units_Z 112
_cell_length_a 14.125999
_cell_length_b 14.125999
_cell_length_c 34.159516
_cell_angle_alpha 90.000000
_cell_angle_beta 90.000000
_cell_angle_gamma 90.000000
_cell_volume 6816.321260
_symmetry_space_group_name_H-M "P 4/N B M"
_symmetry_group_IT_number 125
_space_group.IT_coordinate_system_code '2'
_symmetry_cell_setting 'tetragonal'
loop_
_space_group_symop_operation_xyz
x,y,z
1/2-y,x,z
1/2-x,1/2-y,z
y,1/2-x,z
x,1/2-y,-z
1/2-x,y,-z
y,x,-z
1/2-y,1/2-x,-z
-x,-y,-z
1/2+y,-x,-z
1/2+x,1/2+y,-z
-y,1/2+x,-z
-x,1/2+y,z
1/2+x,-y,z
-y,-x,z
1/2+y,1/2+x,z
loop_
_atom_site_type_symbol
_atom_site_label
_atom_site_fract_x
_atom_site_fract_y
_atom_site_fract_z
Si Si1 0.492542 0.149518 0.979412
Si Si2 0.808334 0.899055 0.189599
Si Si3 0.346471 0.496965 0.730410
Si Si4 0.308776 0.398728 0.898917
Si Si5 0.853473 0.987756 0.688013
Si Si6 0.399194 0.307894 0.604392
Si Si7 0.650205 0.991917 0.478433
O O1 0.467346 0.163535 0.933881
O O2 0.583768 0.083768 0.984138
O O3 0.504656 0.250000 0.000000
O O4 0.405527 0.094474 0.000000
O O5 0.698504 0.867729 0.193547
O O6 0.823008 0.935115 0.145323
O O7 0.835353 0.969203 0.224157
O O8 0.409326 0.590675 0.725726
O O9 0.244095 0.505038 0.710744
O O10 0.403951 0.412041 0.709297
O O11 0.198914 0.367912 0.902714
O O12 0.830943 0.955090 0.643972
O O13 0.920737 0.079264 0.688305
O O14 0.301991 0.368144 0.603811
O O15 0.459412 0.331729 0.565993
O O16 0.750000 0.005434 0.500000
O O17 0.591419 0.908582 0.500000
O O18 0.584911 0.084911 0.479948
#
# Coordination Sequence:
#
# PCOD9563199 Si02
#       7
#    16  16  16  16  16  16  16
#     4  11  22  35  55  81 108 146 189 230 280 338
#     4   9  17  31  55  84 112 142 184 236 286 331
#     4  11  22  36  59  84 111 155 196 228 283 342
#     4   9  17  31  54  83 110 141 182 234 287 331
#     4  11  23  39  58  85 119 150 189 240 285 337
#     4  11  21  36  63  91 116 150 191 241 293 336
#     4  11  23  40  62  87 120 157 194 238 286 339
#
# _framework density 16.431151
#
# number of rings (size 3 to 8) (size 9 to 14) (size 15 to 20)
#    0.000    1.571    5.714    1.286    0.000    1.714 
#    0.000    0.714    0.000    2.571    0.000    2.000 
#    0.000    0.000    0.000    0.000    0.000    0.000 
#
# Total GULP energy -625205.343779 kJ/mol
# GULP energy per Si atom -5582.190569 kJ/mol
# Density = 1.639375 g / cm^3
# Si number density = 16.431151 Si / 1000 Ang^3
#
#
#
# Elastic Constant Matrix: (Units=GPa)
#
#
# Indices 1 2 3 4 5 6 
#
# 1 106.4721 61.8856 61.4546 0.0000 0.0000 0.0000
# 2 61.8856 106.4725 61.4546 0.0000 0.0000 0.0000
# 3 61.4546 61.4546 151.3820 0.0000 0.0000 0.0000
# 4 0.0000 0.0000 0.0000 19.6829 0.0000 0.0000
# 5 0.0000 0.0000 0.0000 0.0000 19.6840 0.0000
# 6 0.0000 0.0000 0.0000 0.0000 0.0000 8.7837
#
#
#
# Elastic Compliance Matrix: (Units=1/GPa)
#
#
# Indices 1 2 3 4 5 6 
#
# 1 0.015435 -0.006993 -0.003427 0.000000 0.000000 0.000000
# 2 -0.006993 0.015435 -0.003427 0.000000 0.000000 0.000000
# 3 -0.003427 -0.003427 0.009388 0.000000 0.000000 0.000000
# 4 0.000000 0.000000 0.000000 0.050806 0.000000 0.000000
# 5 0.000000 0.000000 0.000000 0.000000 0.050803 0.000000
# 6 0.000000 0.000000 0.000000 0.000000 0.000000 0.113847
#
#
# Mechanical properties :
#
#
# Convention : Reuss Voigt Hill
#
# Bulk Modulus (GPa) = 79.59496 81.54626 80.57061
# Shear Modulus (GPa) = 17.38551 21.59889 19.49220
#
# Velocity S-wave (km/s) = 3.25635 3.62955 3.44800
# Velocity P-wave (km/s) = 7.91739 8.20376 8.06184
#
# Compressibility (1/GPa) = 0.01256361
#
# Stress axis : x y z
#
# Youngs Moduli (GPa) = 64.78819 64.78854 106.51723
#
# Poissons Ratio (x) = 0.45309 0.36503
# Poissons Ratio (y) = 0.45309 0.36502
# Poissons Ratio (z) = 0.22202 0.22202
#
# Static dielectric constant tensor:
#      x y z
#    x 1.526930 0.000000 0.000000 
#    y 0.000000 1.526930 0.000000 
#    z 0.000000 0.000000 1.542090 
# 
# From -- ./inp_files/6661.got.cif
#   From: 2010.05.17/outbox.cif.g08.bks.cpg/sg125_4_cif.got.tgz:6661.got - 2010.05.20 11:54:10.
