data_PCOD9563076
_publ_section_title
;
Structure prediction by ZEFSAII (Michael W. Deem and Ramdas Pophale) SiO2 
 PCOD9563076
Probable space group: P 4/N B M
;
_chemical_formula_sum "Si O2"
_cell_formula_units_Z 64
_cell_length_a 14.015978
_cell_length_b 14.015978
_cell_length_c 18.739136
_cell_angle_alpha 90.000000
_cell_angle_beta 90.000000
_cell_angle_gamma 90.000000
_cell_volume 3681.259030
_symmetry_space_group_name_H-M "P 4/N B M"
_symmetry_group_IT_number 125
_space_group.IT_coordinate_system_code '2'
_symmetry_cell_setting 'tetragonal'
loop_
_space_group_symop_operation_xyz
x,y,z
1/2-y,x,z
1/2-x,1/2-y,z
y,1/2-x,z
x,1/2-y,-z
1/2-x,y,-z
y,x,-z
1/2-y,1/2-x,-z
-x,-y,-z
1/2+y,-x,-z
1/2+x,1/2+y,-z
-y,1/2+x,-z
-x,1/2+y,z
1/2+x,-y,z
-y,-x,z
1/2+y,1/2+x,z
loop_
_atom_site_type_symbol
_atom_site_label
_atom_site_fract_x
_atom_site_fract_y
_atom_site_fract_z
Si Si1 0.989940 0.848616 0.038010
Si Si2 0.375243 0.147494 0.578191
Si Si3 0.142716 0.009948 0.720005
Si Si4 0.153990 0.003717 0.205393
O O1 0.979405 0.826610 0.121930
O O2 0.011883 0.750000 0.000000
O O3 0.899410 0.899410 0.000000
O O4 0.076166 0.923835 0.030772
O O5 0.377478 0.263033 0.583622
O O6 0.396118 0.103883 0.500000
O O7 0.444539 0.120517 0.642314
O O8 0.252108 0.006007 0.745305
O O9 0.087139 0.081950 0.771835
O O10 0.092717 0.907284 0.724713
O O11 0.095087 0.904914 0.213731
#
# Coordination Sequence:
#
# PCOD9563076 Si02
#       4
#    16  16  16  16
#     4  10  21  38  57  79 109 144 185 232 280 334
#     4   9  17  32  55  82 112 143 181 227 274 318
#     4  11  21  35  57  82 111 150 186 225 278 327
#     4  10  22  37  55  82 112 143 184 232 281 336
#
# _framework density 17.385356999999999
#
# number of rings (size 3 to 8) (size 9 to 14) (size 15 to 20)
#    0.000    2.000    2.500    2.250    0.000    5.000 
#    0.000    5.000    0.000    0.000    0.000    0.000 
#    0.000    0.000    0.000    0.000    0.000    0.000 
#
# Total GULP energy -356415.904094 kJ/mol
# GULP energy per Si atom -5568.998501 kJ/mol
# Density = 1.734579 g / cm^3
# Si number density = 17.385357 Si / 1000 Ang^3
#
#
#
# Elastic Constant Matrix: (Units=GPa)
#
#
# Indices 1 2 3 4 5 6 
#
# 1 58.7723 -0.7556 32.7351 0.0000 0.0000 0.0000
# 2 -0.7556 58.7727 32.7350 0.0000 0.0000 0.0000
# 3 32.7351 32.7350 125.9744 0.0000 0.0000 0.0000
# 4 0.0000 0.0000 0.0000 15.9240 0.0000 0.0000
# 5 0.0000 0.0000 0.0000 0.0000 15.9239 0.0000
# 6 0.0000 0.0000 0.0000 0.0000 0.0000 5.0940
#
#
#
# Elastic Compliance Matrix: (Units=1/GPa)
#
#
# Indices 1 2 3 4 5 6 
#
# 1 0.020593 0.003795 -0.006337 0.000000 0.000000 0.000000
# 2 0.003795 0.020593 -0.006337 0.000000 0.000000 0.000000
# 3 -0.006337 -0.006337 0.011232 0.000000 0.000000 0.000000
# 4 0.000000 0.000000 0.000000 0.062798 0.000000 0.000000
# 5 0.000000 0.000000 0.000000 0.000000 0.062799 0.000000
# 6 0.000000 0.000000 0.000000 0.000000 0.000000 0.196308
#
#
# Mechanical properties :
#
#
# Convention : Reuss Voigt Hill
#
# Bulk Modulus (GPa) = 28.85326 41.43870 35.14598
# Shear Modulus (GPa) = 12.38739 19.30871 15.84805
#
# Velocity S-wave (km/s) = 2.67220 3.33623 3.02251
# Velocity P-wave (km/s) = 5.11402 6.22316 5.69565
#
# Compressibility (1/GPa) = 0.03465812
#
# Stress axis : x y z
#
# Youngs Moduli (GPa) = 48.55928 48.55974 89.03400
#
# Poissons Ratio (x) = -0.18426 0.56424
# Poissons Ratio (y) = -0.18426 0.56423
# Poissons Ratio (z) = 0.30774 0.30774
#
# Static dielectric constant tensor:
#      x y z
#    x 1.573070 0.000000 0.000000 
#    y 0.000000 1.573070 0.000000 
#    z 0.000000 0.000000 1.664470 
# 
# From -- ./inp_files/4617.got.cif
#   From: 2010.05.17/outbox.cif.g08.bks.cpg/sg125_3_cif.got.tgz:4617.got - 2010.05.20 11:54:10.
