data_PCOD9563638
_publ_section_title
;
Structure prediction by ZEFSAII (Michael W. Deem and Ramdas Pophale) SiO2 
 PCOD9563638
Probable space group: P 4/N N C
;
_chemical_formula_sum "Si O2"
_cell_formula_units_Z 56
_cell_length_a 10.191229
_cell_length_b 10.191229
_cell_length_c 30.180054
_cell_angle_alpha 90.000000
_cell_angle_beta 90.000000
_cell_angle_gamma 90.000000
_cell_volume 3134.535071
_symmetry_space_group_name_H-M "P 4/N N C"
_symmetry_group_IT_number 126
_space_group.IT_coordinate_system_code '2'
_symmetry_cell_setting 'tetragonal'
loop_
_space_group_symop_operation_xyz
x,y,z
1/2-y,x,z
1/2-x,1/2-y,z
y,1/2-x,z
x,1/2-y,1/2-z
1/2-x,y,1/2-z
y,x,1/2-z
1/2-y,1/2-x,1/2-z
-x,-y,-z
1/2+y,-x,-z
1/2+x,1/2+y,-z
-y,1/2+x,-z
-x,1/2+y,1/2+z
1/2+x,-y,1/2+z
-y,-x,1/2+z
1/2+y,1/2+x,1/2+z
loop_
_atom_site_type_symbol
_atom_site_label
_atom_site_fract_x
_atom_site_fract_y
_atom_site_fract_z
Si Si1 0.720820 0.401547 0.060114
Si Si2 0.250000 0.027319 0.750000
Si Si3 0.049639 0.333677 0.478992
Si Si4 0.972489 0.748717 0.153435
O O1 0.750000 0.250000 0.050696
O O2 0.567873 0.404271 0.046657
O O3 0.744227 0.435610 0.111025
O O4 0.808806 0.496667 0.029302
O O5 0.375248 0.124753 0.750000
O O6 0.249263 0.959849 0.798026
O O7 0.086648 0.182105 0.468899
O O8 0.876556 0.874858 0.150976
#
# Coordination Sequence:
#
# PCOD9563638 Si02
#       4
#    16   8  16  16
#     4  12  22  34  51  78 105 140 175 214 261 312
#     4   7  12  28  51  78 104 130 167 209 262 314
#     4  11  23  38  54  71 103 143 178 220 262 305
#     4   9  18  32  55  80 105 137 170 212 265 315
#
# _framework density 17.865489
#
# number of rings (size 3 to 8) (size 9 to 14) (size 15 to 20)
#    0.000    1.857    2.857    4.286    4.000    2.286 
#    0.000    0.714    0.000    0.000    0.000    0.000 
#    0.000    0.000    0.000    0.000    0.000    0.000 
#
# Total GULP energy -311844.760271 kJ/mol
# GULP energy per Si atom -5568.656433 kJ/mol
# Density = 1.782483 g / cm^3
# Si number density = 17.865489 Si / 1000 Ang^3
#
#
#
# Elastic Constant Matrix: (Units=GPa)
#
#
# Indices 1 2 3 4 5 6 
#
# 1 44.6625 21.6088 7.0333 0.0000 0.0000 0.0000
# 2 21.6088 44.6627 7.0333 0.0000 0.0000 0.0000
# 3 7.0333 7.0333 128.6261 0.0000 0.0000 0.0000
# 4 0.0000 0.0000 0.0000 18.7127 0.0000 0.0000
# 5 0.0000 0.0000 0.0000 0.0000 18.7125 0.0000
# 6 0.0000 0.0000 0.0000 0.0000 0.0000 -22.9841
#
#
#
# Elastic Compliance Matrix: (Units=1/GPa)
#
#
# Indices 1 2 3 4 5 6 
#
# 1 0.029322 -0.014055 -0.000835 0.000000 0.000000 0.000000
# 2 -0.014055 0.029322 -0.000835 0.000000 0.000000 0.000000
# 3 -0.000835 -0.000835 0.007866 0.000000 0.000000 0.000000
# 4 0.000000 0.000000 0.000000 0.053440 0.000000 0.000000
# 5 0.000000 0.000000 0.000000 0.000000 0.053440 0.000000
# 6 0.000000 0.000000 0.000000 0.000000 0.000000 -0.043508
#
#
# Mechanical properties :
#
#
# Convention : Reuss Voigt Hill
#
# Bulk Modulus (GPa) = 28.52260 32.14470 30.33365
# Shear Modulus (GPa) = 28.89894 15.03995 21.96945
#
# Velocity S-wave (km/s) = 4.02628 2.90460 3.51053
# Velocity P-wave (km/s) = 6.13306 5.41116 5.78339
#
# Compressibility (1/GPa) = 0.03505991
#
# Stress axis : x y z
#
# Youngs Moduli (GPa) = 34.10428 34.10448 127.13322
#
# Poissons Ratio (x) = 0.47934 0.10613
# Poissons Ratio (y) = 0.47934 0.10613
# Poissons Ratio (z) = 0.02847 0.02847
#
# Static dielectric constant tensor:
#      x y z
#    x 1.651430 0.000000 0.000000 
#    y 0.000000 1.651430 0.000000 
#    z 0.000000 0.000000 1.645980 
# 
# From -- ./inp_files/6035.got.cif
#   From: 2010.05.17/outbox.cif.g08.bks.cpg/sg126_4_cif.got.tgz:6035.got - 2010.05.20 11:58:20.
