data_PCOD9563017
_publ_section_title
;
Structure prediction by ZEFSAII (Michael W. Deem and Ramdas Pophale) SiO2 
 PCOD9563017
Probable space group: P 4/N B M
;
_chemical_formula_sum "Si O2"
_cell_formula_units_Z 96
_cell_length_a 13.993652
_cell_length_b 13.993652
_cell_length_c 24.424232
_cell_angle_alpha 90.000000
_cell_angle_beta 90.000000
_cell_angle_gamma 90.000000
_cell_volume 4782.809196
_symmetry_space_group_name_H-M "P 4/N B M"
_symmetry_group_IT_number 125
_space_group.IT_coordinate_system_code '2'
_symmetry_cell_setting 'tetragonal'
loop_
_space_group_symop_operation_xyz
x,y,z
1/2-y,x,z
1/2-x,1/2-y,z
y,1/2-x,z
x,1/2-y,-z
1/2-x,y,-z
y,x,-z
1/2-y,1/2-x,-z
-x,-y,-z
1/2+y,-x,-z
1/2+x,1/2+y,-z
-y,1/2+x,-z
-x,1/2+y,z
1/2+x,-y,z
-y,-x,z
1/2+y,1/2+x,z
loop_
_atom_site_type_symbol
_atom_site_label
_atom_site_fract_x
_atom_site_fract_y
_atom_site_fract_z
Si Si1 0.596804 0.253583 0.764160
Si Si2 0.502170 0.852181 0.528412
Si Si3 0.970344 0.626953 0.846670
Si Si4 0.105315 0.055231 0.741893
Si Si5 0.508766 0.650785 0.031509
Si Si6 0.609965 0.825258 0.635760
O O1 0.661865 0.338136 0.737646
O O2 0.672863 0.172863 0.782376
O O3 0.541625 0.302557 0.814212
O O4 0.517037 0.193313 0.731305
O O5 0.508119 0.750000 0.500000
O O6 0.579868 0.920133 0.500000
O O7 0.530365 0.853573 0.592253
O O8 0.399583 0.899583 0.520198
O O9 0.888510 0.601676 0.802450
O O10 0.951714 0.666109 0.906823
O O11 0.027585 0.527585 0.855869
O O12 0.092099 0.137108 0.697026
O O13 0.011045 0.988956 0.740882
O O14 0.409623 0.590378 0.034372
O O15 0.495751 0.750000 0.000000
O O16 0.584050 0.584050 0.000000
O O17 0.626464 0.713220 0.625820
#
# Coordination Sequence:
#
# PCOD9563017 Si02
#       6
#    16  16  16  16  16  16
#     4   9  18  33  56  85 116 156 204 251 310 385
#     4  11  23  42  70  99 132 176 222 268 324 384
#     4   9  19  35  55  82 113 152 198 248 310 377
#     4  10  20  35  58  86 123 163 201 252 318 383
#     4  10  23  41  62  88 120 157 206 261 318 385
#     4  11  22  37  60  92 127 164 217 269 311 373
#
# _framework density 20.071885999999999
#
# number of rings (size 3 to 8) (size 9 to 14) (size 15 to 20)
#    0.000    2.000    1.667    1.500    2.333    1.333 
#    0.000    2.500    0.000    0.000    0.000    0.000 
#    0.000    0.000    0.000    0.000    0.000    0.000 
#
# Total GULP energy -535142.380165 kJ/mol
# GULP energy per Si atom -5574.399793 kJ/mol
# Density = 2.002620 g / cm^3
# Si number density = 20.071886 Si / 1000 Ang^3
#
#
#
# Elastic Constant Matrix: (Units=GPa)
#
#
# Indices 1 2 3 4 5 6 
#
# 1 75.1769 45.1601 26.4344 0.0000 0.0000 0.0000
# 2 45.1601 75.1797 26.4343 0.0000 0.0000 0.0000
# 3 26.4344 26.4343 98.3471 0.0000 0.0000 0.0000
# 4 0.0000 0.0000 0.0000 23.5885 0.0000 0.0000
# 5 0.0000 0.0000 0.0000 0.0000 23.5882 0.0000
# 6 0.0000 0.0000 0.0000 0.0000 0.0000 27.7915
#
#
#
# Elastic Compliance Matrix: (Units=1/GPa)
#
#
# Indices 1 2 3 4 5 6 
#
# 1 0.021368 -0.011945 -0.002533 0.000000 0.000000 0.000000
# 2 -0.011945 0.021367 -0.002533 0.000000 0.000000 0.000000
# 3 -0.002533 -0.002533 0.011530 0.000000 0.000000 0.000000
# 4 0.000000 0.000000 0.000000 0.042393 0.000000 0.000000
# 5 0.000000 0.000000 0.000000 0.000000 0.042394 0.000000
# 6 0.000000 0.000000 0.000000 0.000000 0.000000 0.035982
#
#
# Mechanical properties :
#
#
# Convention : Reuss Voigt Hill
#
# Bulk Modulus (GPa) = 49.39718 49.41794 49.40756
# Shear Modulus (GPa) = 23.16913 25.03863 24.10388
#
# Velocity S-wave (km/s) = 3.40120 3.53575 3.46913
# Velocity P-wave (km/s) = 6.33149 6.42983 6.38085
#
# Compressibility (1/GPa) = 0.02024407
#
# Stress axis : x y z
#
# Youngs Moduli (GPa) = 46.79820 46.80020 86.73354
#
# Poissons Ratio (x) = 0.55904 0.21968
# Poissons Ratio (y) = 0.55902 0.21965
# Poissons Ratio (z) = 0.11853 0.11852
#
# Static dielectric constant tensor:
#      x y z
#    x 1.723660 0.000000 0.000000 
#    y 0.000000 1.723660 0.000000 
#    z 0.000000 0.000000 1.733910 
# 
# From -- ./inp_files/5937.got.cif
#   From: 2010.05.17/outbox.cif.g08.bks.cpg/sg125_3_cif.got.tgz:5937.got - 2010.05.20 11:54:10.
