data_PCOD9563575
_publ_section_title
;
Structure prediction by ZEFSAII (Michael W. Deem and Ramdas Pophale) SiO2 
 PCOD9563575
Probable space group: P 4/N N C
;
_chemical_formula_sum "Si O2"
_cell_formula_units_Z 64
_cell_length_a 14.492929
_cell_length_b 14.492929
_cell_length_c 15.748567
_cell_angle_alpha 90.000000
_cell_angle_beta 90.000000
_cell_angle_gamma 90.000000
_cell_volume 3307.907614
_symmetry_space_group_name_H-M "P 4/N N C"
_symmetry_group_IT_number 126
_space_group.IT_coordinate_system_code '2'
_symmetry_cell_setting 'tetragonal'
loop_
_space_group_symop_operation_xyz
x,y,z
1/2-y,x,z
1/2-x,1/2-y,z
y,1/2-x,z
x,1/2-y,1/2-z
1/2-x,y,1/2-z
y,x,1/2-z
1/2-y,1/2-x,1/2-z
-x,-y,-z
1/2+y,-x,-z
1/2+x,1/2+y,-z
-y,1/2+x,-z
-x,1/2+y,1/2+z
1/2+x,-y,1/2+z
-y,-x,1/2+z
1/2+y,1/2+x,1/2+z
loop_
_atom_site_type_symbol
_atom_site_label
_atom_site_fract_x
_atom_site_fract_y
_atom_site_fract_z
Si Si1 0.937083 0.589775 0.514027
Si Si2 0.655874 0.974507 0.796025
Si Si3 0.308856 0.840132 0.132614
Si Si4 0.263979 0.530280 0.980900
O O1 0.835114 0.551396 0.501375
O O2 0.000000 0.500000 0.500000
O O3 0.945147 0.637988 0.606474
O O4 0.982073 0.668316 0.455376
O O5 0.750000 0.940274 0.750000
O O6 0.663496 0.085353 0.796632
O O7 0.568219 0.931782 0.750000
O O8 0.250000 0.750000 0.154534
O O9 0.402972 0.805800 0.089586
O O10 0.253296 0.900741 0.061424
#
# Coordination Sequence:
#
# PCOD9563575 Si02
#       4
#    16  16  16  16
#     4  11  21  38  64  94 126 174 222 277 332 403
#     4  11  24  40  60  92 140 176 217 269 351 422
#     4  11  19  37  65  93 127 169 224 279 334 389
#     4  11  19  35  63  96 123 164 223 280 332 384
#
# _framework density 19.347577999999999
#
# number of rings (size 3 to 8) (size 9 to 14) (size 15 to 20)
#    0.000    1.000    7.500    3.000    0.000    1.250 
#    0.000    5.000    0.000    0.000    0.000    0.000 
#    0.000    2.000    0.000    0.000    0.000    0.000 
#
# Total GULP energy -356847.175211 kJ/mol
# GULP energy per Si atom -5575.737113 kJ/mol
# Density = 1.930354 g / cm^3
# Si number density = 19.347578 Si / 1000 Ang^3
#
#
#
# Elastic Constant Matrix: (Units=GPa)
#
#
# Indices 1 2 3 4 5 6 
#
# 1 141.8407 85.5203 29.7303 0.0000 0.0000 0.0000
# 2 85.5203 141.8380 29.7308 0.0000 0.0000 0.0000
# 3 29.7303 29.7308 46.0274 0.0000 0.0000 0.0000
# 4 0.0000 0.0000 0.0000 28.6378 0.0000 0.0000
# 5 0.0000 0.0000 0.0000 0.0000 28.6378 0.0000
# 6 0.0000 0.0000 0.0000 0.0000 0.0000 63.9871
#
#
#
# Elastic Compliance Matrix: (Units=1/GPa)
#
#
# Indices 1 2 3 4 5 6 
#
# 1 0.011524 -0.006232 -0.003418 0.000000 0.000000 0.000000
# 2 -0.006232 0.011524 -0.003419 0.000000 0.000000 0.000000
# 3 -0.003418 -0.003419 0.026142 0.000000 0.000000 0.000000
# 4 0.000000 0.000000 0.000000 0.034919 0.000000 0.000000
# 5 0.000000 0.000000 0.000000 0.000000 0.034919 0.000000
# 6 0.000000 0.000000 0.000000 0.000000 0.000000 0.015628
#
#
# Mechanical properties :
#
#
# Convention : Reuss Voigt Hill
#
# Bulk Modulus (GPa) = 43.37803 68.85209 56.11506
# Shear Modulus (GPa) = 29.67736 36.56753 33.12245
#
# Velocity S-wave (km/s) = 3.92076 4.35217 4.14208
# Velocity P-wave (km/s) = 6.55481 7.80508 7.20711
#
# Compressibility (1/GPa) = 0.02305314
#
# Stress axis : x y z
#
# Youngs Moduli (GPa) = 86.77536 86.77301 38.25198
#
# Poissons Ratio (x) = 0.54075 0.13076
# Poissons Ratio (y) = 0.54077 0.13077
# Poissons Ratio (z) = 0.29663 0.29665
#
# Static dielectric constant tensor:
#      x y z
#    x 1.732960 0.000000 0.000000 
#    y 0.000000 1.732950 0.000000 
#    z 0.000000 0.000000 1.824740 
# 
# From -- ./inp_files/3452.got.cif
#   From: 2010.05.17/outbox.cif.g08.bks.cpg/sg126_2_cif.got.tgz:3452.got - 2010.05.20 11:58:20.
