data_PCOD9563486
_publ_section_title
;
Structure prediction by ZEFSAII (Michael W. Deem and Ramdas Pophale) SiO2 
 PCOD9563486
Probable space group: P 4/N N C
;
_chemical_formula_sum "Si O2"
_cell_formula_units_Z 88
_cell_length_a 15.293166
_cell_length_b 15.293166
_cell_length_c 20.622409
_cell_angle_alpha 90.000000
_cell_angle_beta 90.000000
_cell_angle_gamma 90.000000
_cell_volume 4823.188120
_symmetry_space_group_name_H-M "P 4/N N C"
_symmetry_group_IT_number 126
_space_group.IT_coordinate_system_code '2'
_symmetry_cell_setting 'tetragonal'
loop_
_space_group_symop_operation_xyz
x,y,z
1/2-y,x,z
1/2-x,1/2-y,z
y,1/2-x,z
x,1/2-y,1/2-z
1/2-x,y,1/2-z
y,x,1/2-z
1/2-y,1/2-x,1/2-z
-x,-y,-z
1/2+y,-x,-z
1/2+x,1/2+y,-z
-y,1/2+x,-z
-x,1/2+y,1/2+z
1/2+x,-y,1/2+z
-y,-x,1/2+z
1/2+y,1/2+x,1/2+z
loop_
_atom_site_type_symbol
_atom_site_label
_atom_site_fract_x
_atom_site_fract_y
_atom_site_fract_z
Si Si1 0.886424 0.799919 0.543214
Si Si2 0.501323 0.394478 0.358626
Si Si3 0.350522 0.852282 0.759957
Si Si4 0.798133 0.885050 0.111291
Si Si5 0.855459 0.644542 0.750000
Si Si6 0.423093 0.501196 0.816733
O O1 0.799948 0.858323 0.559309
O O2 0.969577 0.836690 0.581324
O O3 0.899774 0.803576 0.465876
O O4 0.593956 0.369520 0.325630
O O5 0.420254 0.383602 0.308031
O O6 0.507514 0.498670 0.368042
O O7 0.350009 0.750000 0.750000
O O8 0.250000 0.883264 0.750000
O O9 0.406921 0.900336 0.705131
O O10 0.699340 0.858056 0.126421
O O11 0.835622 0.962564 0.153379
O O12 0.868016 0.750000 0.750000
O O13 0.451659 0.451659 0.750000
#
# Coordination Sequence:
#
# PCOD9563486 Si02
#       6
#    16  16  16  16   8  16
#     4   9  19  35  57  86 116 147 179 222 287 355
#     4  11  20  33  54  82 112 146 185 226 277 339
#     4  10  22  38  54  74 110 152 187 230 276 323
#     4   9  20  38  58  82 113 145 181 232 291 339
#     4  11  20  30  50  84 118 143 174 230 290 345
#     4  10  22  34  55  85 107 142 188 235 275 337
#
# _framework density 18.245194999999999
#
# number of rings (size 3 to 8) (size 9 to 14) (size 15 to 20)
#    0.000    2.091    2.727    2.727    7.636    2.182 
#    0.000    0.909    0.000    0.000    0.000    2.545 
#    0.000    0.000    0.000    0.000    0.000    0.000 
#
# Total GULP energy -490175.570964 kJ/mol
# GULP energy per Si atom -5570.176943 kJ/mol
# Density = 1.820367 g / cm^3
# Si number density = 18.245195 Si / 1000 Ang^3
#
#
#
# Elastic Constant Matrix: (Units=GPa)
#
#
# Indices 1 2 3 4 5 6 
#
# 1 64.8295 23.7617 18.8307 0.0000 0.0000 0.0000
# 2 23.7617 64.8302 18.8306 0.0000 0.0000 0.0000
# 3 18.8307 18.8306 21.9907 0.0000 0.0000 0.0000
# 4 0.0000 0.0000 0.0000 27.6570 0.0000 0.0000
# 5 0.0000 0.0000 0.0000 0.0000 27.6571 0.0000
# 6 0.0000 0.0000 0.0000 0.0000 0.0000 17.1795
#
#
#
# Elastic Compliance Matrix: (Units=1/GPa)
#
#
# Indices 1 2 3 4 5 6 
#
# 1 0.021049 -0.003301 -0.015198 0.000000 0.000000 0.000000
# 2 -0.003301 0.021049 -0.015198 0.000000 0.000000 0.000000
# 3 -0.015198 -0.015198 0.071502 0.000000 0.000000 0.000000
# 4 0.000000 0.000000 0.000000 0.036157 0.000000 0.000000
# 5 0.000000 0.000000 0.000000 0.000000 0.036157 0.000000
# 6 0.000000 0.000000 0.000000 0.000000 0.000000 0.058209
#
#
# Mechanical properties :
#
#
# Convention : Reuss Voigt Hill
#
# Bulk Modulus (GPa) = 21.64185 30.49961 26.07073
# Shear Modulus (GPa) = 15.29425 20.51388 17.90406
#
# Velocity S-wave (km/s) = 2.89842 3.35676 3.13597
# Velocity P-wave (km/s) = 4.80505 5.63707 5.23761
#
# Compressibility (1/GPa) = 0.04620677
#
# Stress axis : x y z
#
# Youngs Moduli (GPa) = 47.50726 47.50814 13.98557
#
# Poissons Ratio (x) = 0.15680 0.21256
# Poissons Ratio (y) = 0.15680 0.21255
# Poissons Ratio (z) = 0.72204 0.72203
#
# Static dielectric constant tensor:
#      x y z
#    x 1.657730 0.000000 0.000000 
#    y 0.000000 1.657730 0.000000 
#    z 0.000000 0.000000 1.628420 
# 
# From -- ./inp_files/5777.got.cif
#   From: 2010.05.17/outbox.cif.g08.bks.cpg/sg126_3_cif.got.tgz:5777.got - 2010.05.20 11:58:20.
