data_PCOD9563527
_publ_section_title
;
Structure prediction by ZEFSAII (Michael W. Deem and Ramdas Pophale) SiO2 
 PCOD9563527
Probable space group: P 4/N N C
;
_chemical_formula_sum "Si O2"
_cell_formula_units_Z 64
_cell_length_a 12.026684
_cell_length_b 12.026684
_cell_length_c 19.902907
_cell_angle_alpha 90.000000
_cell_angle_beta 90.000000
_cell_angle_gamma 90.000000
_cell_volume 2878.778920
_symmetry_space_group_name_H-M "P 4/N N C"
_symmetry_group_IT_number 126
_space_group.IT_coordinate_system_code '2'
_symmetry_cell_setting 'tetragonal'
loop_
_space_group_symop_operation_xyz
x,y,z
1/2-y,x,z
1/2-x,1/2-y,z
y,1/2-x,z
x,1/2-y,1/2-z
1/2-x,y,1/2-z
y,x,1/2-z
1/2-y,1/2-x,1/2-z
-x,-y,-z
1/2+y,-x,-z
1/2+x,1/2+y,-z
-y,1/2+x,-z
-x,1/2+y,1/2+z
1/2+x,-y,1/2+z
-y,-x,1/2+z
1/2+y,1/2+x,1/2+z
loop_
_atom_site_type_symbol
_atom_site_label
_atom_site_fract_x
_atom_site_fract_y
_atom_site_fract_z
Si Si1 0.596170 0.341027 0.613395
Si Si2 0.119941 0.936963 0.244487
Si Si3 0.157429 0.598678 0.407240
Si Si4 0.157510 0.086647 0.986356
O O1 0.591982 0.351553 0.694766
O O2 0.708166 0.409751 0.597582
O O3 0.624303 0.224724 0.575022
O O4 0.478743 0.373569 0.581816
O O5 0.250000 0.963164 0.250000
O O6 0.107721 0.901335 0.167676
O O7 0.044523 0.044523 0.250000
O O8 0.121937 0.498149 0.454611
O O9 0.290955 0.105724 0.989627
#
# Coordination Sequence:
#
# PCOD9563527 Si02
#       4
#    16  16  16  16
#     4  10  22  42  66  97 131 174 227 276 328 402
#     4  10  23  40  65 100 133 177 223 279 339 402
#     4  10  22  41  67  96 131 172 226 280 328 397
#     4  11  26  42  65 101 139 178 222 279 345 414
#
# _framework density 22.231649000000001
#
# number of rings (size 3 to 8) (size 9 to 14) (size 15 to 20)
#    0.000    1.750    0.000    2.250   10.500    7.250 
#    0.000    0.000    0.000    0.000    0.000    0.000 
#    0.000    0.000    0.000    0.000    0.000    0.000 
#
# Total GULP energy -357027.931825 kJ/mol
# GULP energy per Si atom -5578.561435 kJ/mol
# Density = 2.218105 g / cm^3
# Si number density = 22.231649 Si / 1000 Ang^3
#
#
#
# Elastic Constant Matrix: (Units=GPa)
#
#
# Indices 1 2 3 4 5 6 
#
# 1 120.3416 28.5131 56.9508 0.0000 0.0000 0.0000
# 2 28.5131 120.3416 56.9508 0.0000 0.0000 0.0000
# 3 56.9508 56.9508 131.0267 0.0000 0.0000 0.0000
# 4 0.0000 0.0000 0.0000 26.4778 0.0000 0.0000
# 5 0.0000 0.0000 0.0000 0.0000 26.4778 0.0000
# 6 0.0000 0.0000 0.0000 0.0000 0.0000 12.5286
#
#
#
# Elastic Compliance Matrix: (Units=1/GPa)
#
#
# Indices 1 2 3 4 5 6 
#
# 1 0.010478 -0.000412 -0.004375 0.000000 0.000000 0.000000
# 2 -0.000412 0.010478 -0.004375 0.000000 0.000000 0.000000
# 3 -0.004375 -0.004375 0.011435 0.000000 0.000000 0.000000
# 4 0.000000 0.000000 0.000000 0.037768 0.000000 0.000000
# 5 0.000000 0.000000 0.000000 0.000000 0.037768 0.000000
# 6 0.000000 0.000000 0.000000 0.000000 0.000000 0.079817
#
#
# Mechanical properties :
#
#
# Convention : Reuss Voigt Hill
#
# Bulk Modulus (GPa) = 71.09122 72.94881 72.02002
# Shear Modulus (GPa) = 23.72406 28.38317 26.05362
#
# Velocity S-wave (km/s) = 3.27024 3.57697 3.42704
# Velocity P-wave (km/s) = 6.80487 7.06710 6.93722
#
# Compressibility (1/GPa) = 0.01406643
#
# Stress axis : x y z
#
# Youngs Moduli (GPa) = 95.44001 95.44001 87.44868
#
# Poissons Ratio (x) = 0.03933 0.38259
# Poissons Ratio (y) = 0.03933 0.38259
# Poissons Ratio (z) = 0.41756 0.41756
#
# Static dielectric constant tensor:
#      x y z
#    x 1.863440 0.000000 0.000000 
#    y 0.000000 1.863440 0.000000 
#    z 0.000000 0.000000 1.883160 
# 
# From -- ./inp_files/4951.got.cif
#   From: 2010.05.17/outbox.cif.g08.bks.cpg/sg126_3_cif.got.tgz:4951.got - 2010.05.20 11:58:20.
