data_PCOD9563203
_publ_section_title
;
Structure prediction by ZEFSAII (Michael W. Deem and Ramdas Pophale) SiO2 
 PCOD9563203
Probable space group: P 4/N B M
;
_chemical_formula_sum "Si O2"
_cell_formula_units_Z 48
_cell_length_a 13.579185
_cell_length_b 13.579185
_cell_length_c 13.619191
_cell_angle_alpha 90.000000
_cell_angle_beta 90.000000
_cell_angle_gamma 90.000000
_cell_volume 2511.300718
_symmetry_space_group_name_H-M "P 4/N B M"
_symmetry_group_IT_number 125
_space_group.IT_coordinate_system_code '2'
_symmetry_cell_setting 'tetragonal'
loop_
_space_group_symop_operation_xyz
x,y,z
1/2-y,x,z
1/2-x,1/2-y,z
y,1/2-x,z
x,1/2-y,-z
1/2-x,y,-z
y,x,-z
1/2-y,1/2-x,-z
-x,-y,-z
1/2+y,-x,-z
1/2+x,1/2+y,-z
-y,1/2+x,-z
-x,1/2+y,z
1/2+x,-y,z
-y,-x,z
1/2+y,1/2+x,z
loop_
_atom_site_type_symbol
_atom_site_label
_atom_site_fract_x
_atom_site_fract_y
_atom_site_fract_z
Si Si1 0.132612 0.132612 0.000000
Si Si2 0.023927 0.366483 0.200921
Si Si3 0.250000 0.417789 0.500000
Si Si4 0.996367 0.330607 0.695551
O O1 0.250000 0.117408 0.000000
O O2 0.075436 0.103825 0.901545
O O3 0.006031 0.251978 0.220113
O O4 0.095013 0.413108 0.283615
O O5 0.920777 0.420777 0.207030
O O6 0.155973 0.344027 0.500000
O O7 0.272018 0.485772 0.594412
O O8 0.898005 0.398005 0.697038
#
# Coordination Sequence:
#
# PCOD9563203 Si02
#       4
#     8  16   8  16
#     4  11  21  36  66  98 123 163 218 274 318 388
#     4  11  23  41  64  92 132 171 213 269 334 396
#     4  11  22  38  66  95 122 172 225 276 328 393
#     4  11  24  41  65  96 129 169 220 274 332 398
#
# _framework density 19.113602
#
# number of rings (size 3 to 8) (size 9 to 14) (size 15 to 20)
#    0.000    1.000    6.667    0.500    0.000    3.333 
#    0.000    0.000    0.000    0.000    0.000    0.000 
#    0.000    0.000    0.000    0.000    0.000    0.000 
#
# Total GULP energy -267480.163890 kJ/mol
# GULP energy per Si atom -5572.503414 kJ/mol
# Density = 1.907010 g / cm^3
# Si number density = 19.113602 Si / 1000 Ang^3
#
#
#
# Elastic Constant Matrix: (Units=GPa)
#
#
# Indices 1 2 3 4 5 6 
#
# 1 95.8127 64.7138 31.0967 0.0000 0.0000 0.0000
# 2 64.7138 95.8124 31.0968 0.0000 0.0000 0.0000
# 3 31.0967 31.0968 111.3690 0.0000 0.0000 0.0000
# 4 0.0000 0.0000 0.0000 20.0909 0.0000 0.0000
# 5 0.0000 0.0000 0.0000 0.0000 20.0910 0.0000
# 6 0.0000 0.0000 0.0000 0.0000 0.0000 16.9165
#
#
#
# Elastic Compliance Matrix: (Units=1/GPa)
#
#
# Indices 1 2 3 4 5 6 
#
# 1 0.019570 -0.012585 -0.001950 0.000000 0.000000 0.000000
# 2 -0.012585 0.019570 -0.001950 0.000000 0.000000 0.000000
# 3 -0.001950 -0.001950 0.010068 0.000000 0.000000 0.000000
# 4 0.000000 0.000000 0.000000 0.049774 0.000000 0.000000
# 5 0.000000 0.000000 0.000000 0.000000 0.049774 0.000000
# 6 0.000000 0.000000 0.000000 0.000000 0.000000 0.059114
#
#
# Mechanical properties :
#
#
# Convention : Reuss Voigt Hill
#
# Bulk Modulus (GPa) = 61.58762 61.86763 61.72763
# Shear Modulus (GPa) = 20.30416 23.15879 21.73147
#
# Velocity S-wave (km/s) = 3.26281 3.48464 3.37555
# Velocity P-wave (km/s) = 6.81810 6.97344 6.89621
#
# Compressibility (1/GPa) = 0.01623703
#
# Stress axis : x y z
#
# Youngs Moduli (GPa) = 51.09769 51.09752 99.32101
#
# Poissons Ratio (x) = 0.64307 0.19371
# Poissons Ratio (y) = 0.64308 0.19372
# Poissons Ratio (z) = 0.09966 0.09966
#
# Static dielectric constant tensor:
#      x y z
#    x 1.635340 0.000000 0.000000 
#    y 0.000000 1.635340 0.000000 
#    z 0.000000 0.000000 1.740040 
# 
# From -- ./inp_files/3448.got.cif
#   From: 2010.05.17/outbox.cif.g08.bks.cpg/sg125_2_cif.got.tgz:3448.got - 2010.05.20 11:54:10.
