data_PCOD9563386
_publ_section_title
;
Structure prediction by ZEFSAII (Michael W. Deem and Ramdas Pophale) SiO2 
 PCOD9563386
Probable space group: P 4/N N C
;
_chemical_formula_sum "Si O2"
_cell_formula_units_Z 64
_cell_length_a 26.572621
_cell_length_b 26.572621
_cell_length_c 4.970499
_cell_angle_alpha 90.000000
_cell_angle_beta 90.000000
_cell_angle_gamma 90.000000
_cell_volume 3509.690154
_symmetry_space_group_name_H-M "P 4/N N C"
_symmetry_group_IT_number 126
_space_group.IT_coordinate_system_code '2'
_symmetry_cell_setting 'tetragonal'
loop_
_space_group_symop_operation_xyz
x,y,z
1/2-y,x,z
1/2-x,1/2-y,z
y,1/2-x,z
x,1/2-y,1/2-z
1/2-x,y,1/2-z
y,x,1/2-z
1/2-y,1/2-x,1/2-z
-x,-y,-z
1/2+y,-x,-z
1/2+x,1/2+y,-z
-y,1/2+x,-z
-x,1/2+y,1/2+z
1/2+x,-y,1/2+z
-y,-x,1/2+z
1/2+y,1/2+x,1/2+z
loop_
_atom_site_type_symbol
_atom_site_label
_atom_site_fract_x
_atom_site_fract_y
_atom_site_fract_z
Si Si1 0.806393 0.145780 0.353400
Si Si2 0.609774 0.063447 0.186301
Si Si3 0.361280 0.138721 0.250000
Si Si4 0.404494 0.047778 0.017461
Si Si5 0.809938 0.690063 0.250000
O O1 0.750000 0.139412 0.250000
O O2 0.814435 0.166705 0.652641
O O3 0.838243 0.094123 0.338492
O O4 0.592092 0.069880 0.492779
O O5 0.610874 0.007089 0.077726
O O6 0.359864 0.080122 0.157268
O O7 0.329941 0.158753 0.498077
O O8 0.447789 0.052212 0.250000
O O9 0.423393 0.076608 0.750000
O O10 0.817900 0.750000 0.250000
#
# Coordination Sequence:
#
# PCOD9563386 Si02
#       5
#    16  16   8  16   8
#     4  10  21  37  57  81 110 146 186 238 287 337
#     4  10  21  35  55  83 115 148 188 232 281 333
#     4  10  20  39  54  85 118 141 180 233 282 329
#     4  10  20  35  57  81 116 148 185 227 276 322
#     4  11  22  38  64  85 106 143 188 237 284 335
#
# _framework density 18.235227999999999
#
# number of rings (size 3 to 8) (size 9 to 14) (size 15 to 20)
#    0.750    1.125    1.250    3.000    0.000    5.500 
#    0.000    1.250    0.000    0.000    0.000    0.000 
#    0.000    0.000    0.000    0.000    0.000    0.000 
#
# Total GULP energy -356431.159543 kJ/mol
# GULP energy per Si atom -5569.236868 kJ/mol
# Density = 1.819372 g / cm^3
# Si number density = 18.235228 Si / 1000 Ang^3
#
#
#
# Elastic Constant Matrix: (Units=GPa)
#
#
# Indices 1 2 3 4 5 6 
#
# 1 74.1118 95.0638 22.8907 0.0000 0.0000 0.0000
# 2 95.0638 74.1150 22.8913 0.0000 0.0000 0.0000
# 3 22.8907 22.8913 102.9638 0.0000 0.0000 0.0000
# 4 0.0000 0.0000 0.0000 21.1427 0.0000 0.0000
# 5 0.0000 0.0000 0.0000 0.0000 21.1427 0.0000
# 6 0.0000 0.0000 0.0000 0.0000 0.0000 8.9424
#
#
#
# Elastic Compliance Matrix: (Units=1/GPa)
#
#
# Indices 1 2 3 4 5 6 
#
# 1 -0.020722 0.027011 -0.001398 0.000000 0.000000 0.000000
# 2 0.027011 -0.020721 -0.001398 0.000000 0.000000 0.000000
# 3 -0.001398 -0.001398 0.010334 0.000000 0.000000 0.000000
# 4 0.000000 0.000000 0.000000 0.047298 0.000000 0.000000
# 5 0.000000 0.000000 0.000000 0.000000 0.047298 0.000000
# 6 0.000000 0.000000 0.000000 0.000000 0.000000 0.111827
#
#
# Mechanical properties :
#
#
# Convention : Reuss Voigt Hill
#
# Bulk Modulus (GPa) = 57.73819 59.20914 58.47367
# Shear Modulus (GPa) = 37.69070 17.60187 27.64629
#
# Velocity S-wave (km/s) = 4.55127 3.11025 3.89793
# Velocity P-wave (km/s) = 7.70392 6.74079 7.23840
#
# Compressibility (1/GPa) = 0.01731956
#
# Stress axis : x y z
#
# Youngs Moduli (GPa) = -48.25856 -48.26062 96.76918
#
# Poissons Ratio (x) = 1.30355 0.13531
# Poissons Ratio (y) = 1.30349 0.13531
# Poissons Ratio (z) = -0.06748 -0.06748
#
# Static dielectric constant tensor:
#      x y z
#    x 1.616110 0.000000 0.000000 
#    y 0.000000 1.616100 0.000000 
#    z 0.000000 0.000000 1.632390 
# 
# From -- ./inp_files/467.got.cif
#   From: 2010.05.17/outbox.cif.g08.bks.cpg/sg126_1_cif.got.tgz:467.got - 2010.05.20 11:58:20.
