data_PCOD9563747
_publ_section_title
;
Structure prediction by ZEFSAII (Michael W. Deem and Ramdas Pophale) SiO2 
 PCOD9563747
Probable space group: P 4/M B M
;
_chemical_formula_sum "Si O2"
_cell_formula_units_Z 116
_cell_length_a 28.637489
_cell_length_b 28.637489
_cell_length_c 7.573016
_cell_angle_alpha 90.000000
_cell_angle_beta 90.000000
_cell_angle_gamma 90.000000
_cell_volume 6210.674165
_symmetry_space_group_name_H-M "P 4/M B M"
_symmetry_group_IT_number 127
_symmetry_cell_setting 'tetragonal'
loop_
_space_group_symop_operation_xyz
x,y,z
-y,x,z
-x,-y,z
y,-x,z
1/2+x,1/2-y,-z
1/2-x,1/2+y,-z
1/2+y,1/2+x,-z
1/2-y,1/2-x,-z
-x,-y,-z
y,-x,-z
x,y,-z
-y,x,-z
1/2-x,1/2+y,z
1/2+x,1/2-y,z
1/2-y,1/2-x,z
1/2+y,1/2+x,z
loop_
_atom_site_type_symbol
_atom_site_label
_atom_site_fract_x
_atom_site_fract_y
_atom_site_fract_z
Si Si1 0.876489 0.302661 0.784961
Si Si2 0.257694 0.834994 0.785275
Si Si3 0.885711 0.614290 0.000000
Si Si4 0.021698 0.727412 0.214406
Si Si5 0.072414 0.016584 0.712191
Si Si6 0.423396 0.817255 0.696176
Si Si7 0.299546 0.657034 0.784539
Si Si8 0.672854 0.443737 0.210034
O O1 0.847127 0.347127 0.723888
O O2 0.850562 0.254526 0.733496
O O3 0.930506 0.298916 0.731741
O O4 0.876407 0.303074 0.000000
O O5 0.294797 0.794797 0.735140
O O6 0.276962 0.884145 0.718542
O O7 0.205867 0.821234 0.725354
O O8 0.258190 0.837111 0.000000
O O9 0.854758 0.587714 0.845933
O O10 0.974590 0.704637 0.281996
O O11 0.029250 0.781077 0.274272
O O12 0.019502 0.726827 0.000000
O O13 0.069985 0.015843 0.500000
O O14 0.124560 0.030536 0.758110
O O15 0.034000 0.054375 0.774883
O O16 0.418955 0.837021 0.500000
O O17 0.325914 0.609933 0.724953
O O18 0.300483 0.658601 0.000000
O O19 0.679065 0.440157 0.000000
#
# Coordination Sequence:
#
# PCOD9563747 Si02
#       8
#    16  16   4  16  16  16  16  16
#     4   8  13  25  49  81 108 141 188 225 263 325
#     4  10  17  30  49  74 110 147 182 225 271 320
#     4  12  22  44  60  82 113 146 182 236 280 314
#     4   9  18  34  52  77 116 146 174 223 271 320
#     4   9  19  35  51  65  87 125 175 234 295 342
#     4  12  23  37  59  84 112 150 191 226 273 332
#     4   8  15  26  45  73 108 146 182 220 272 329
#     4   9  18  32  50  74 104 140 178 222 276 330
#
# _framework density 18.677520999999999
#
# number of rings (size 3 to 8) (size 9 to 14) (size 15 to 20)
#    0.000    2.621    2.069    2.690    0.000    3.862 
#    0.000    5.517    0.000    1.241    0.000    0.966 
#    0.000    1.103    0.000    0.000    0.000    0.000 
#
# Total GULP energy -646017.695087 kJ/mol
# GULP energy per Si atom -5569.118061 kJ/mol
# Density = 1.863501 g / cm^3
# Si number density = 18.677521 Si / 1000 Ang^3
#
#
#
# Elastic Constant Matrix: (Units=GPa)
#
#
# Indices 1 2 3 4 5 6 
#
# 1 98.2093 72.2279 15.4526 0.0000 0.0000 0.0000
# 2 72.2279 98.2108 15.4532 0.0000 0.0000 0.0000
# 3 15.4526 15.4532 74.1672 0.0000 0.0000 0.0000
# 4 0.0000 0.0000 0.0000 92.2843 0.0000 0.0000
# 5 0.0000 0.0000 0.0000 0.0000 92.2955 0.0000
# 6 0.0000 0.0000 0.0000 0.0000 0.0000 21.0755
#
#
#
# Elastic Compliance Matrix: (Units=1/GPa)
#
#
# Indices 1 2 3 4 5 6 
#
# 1 0.022293 -0.016195 -0.001270 0.000000 0.000000 0.000000
# 2 -0.016195 0.022293 -0.001271 0.000000 0.000000 0.000000
# 3 -0.001270 -0.001271 0.014012 0.000000 0.000000 0.000000
# 4 0.000000 0.000000 0.000000 0.010836 0.000000 0.000000
# 5 0.000000 0.000000 0.000000 0.000000 0.010835 0.000000
# 6 0.000000 0.000000 0.000000 0.000000 0.000000 0.047449
#
#
# Mechanical properties :
#
#
# Convention : Reuss Voigt Hill
#
# Bulk Modulus (GPa) = 47.33531 52.98384 50.15958
# Shear Modulus (GPa) = 29.03069 52.29463 40.66266
#
# Velocity S-wave (km/s) = 3.94675 5.29712 4.67099
# Velocity P-wave (km/s) = 6.79468 8.11430 7.48363
#
# Compressibility (1/GPa) = 0.02112588
#
# Stress axis : x y z
#
# Youngs Moduli (GPa) = 44.85725 44.85786 71.36509
#
# Poissons Ratio (x) = 0.72648 0.09066
# Poissons Ratio (y) = 0.72647 0.09068
# Poissons Ratio (z) = 0.05698 0.05700
#
# Static dielectric constant tensor:
#      x y z
#    x 1.629050 0.000000 0.000000 
#    y 0.000000 1.629050 0.000000 
#    z 0.000000 0.000000 1.703870 
# 
# From -- ./inp_files/2395.got.cif
#   From: 2010.05.17/outbox.cif.g08.bks.cpg/sg127_2_cif.got.tgz:2395.got - 2010.05.20 12:03:00.
