data_PCOD9563632
_publ_section_title
;
Structure prediction by ZEFSAII (Michael W. Deem and Ramdas Pophale) SiO2 
 PCOD9563632
Probable space group: P 4/N N C
;
_chemical_formula_sum "Si O2"
_cell_formula_units_Z 112
_cell_length_a 14.737563
_cell_length_b 14.737563
_cell_length_c 27.662399
_cell_angle_alpha 90.000000
_cell_angle_beta 90.000000
_cell_angle_gamma 90.000000
_cell_volume 6008.155862
_symmetry_space_group_name_H-M "P 4/N N C"
_symmetry_group_IT_number 126
_space_group.IT_coordinate_system_code '2'
_symmetry_cell_setting 'tetragonal'
loop_
_space_group_symop_operation_xyz
x,y,z
1/2-y,x,z
1/2-x,1/2-y,z
y,1/2-x,z
x,1/2-y,1/2-z
1/2-x,y,1/2-z
y,x,1/2-z
1/2-y,1/2-x,1/2-z
-x,-y,-z
1/2+y,-x,-z
1/2+x,1/2+y,-z
-y,1/2+x,-z
-x,1/2+y,1/2+z
1/2+x,-y,1/2+z
-y,-x,1/2+z
1/2+y,1/2+x,1/2+z
loop_
_atom_site_type_symbol
_atom_site_label
_atom_site_fract_x
_atom_site_fract_y
_atom_site_fract_z
Si Si1 0.743335 0.904947 0.929499
Si Si2 0.488958 0.266934 0.640267
Si Si3 0.651831 0.291891 0.698825
Si Si4 0.249224 0.097365 0.539442
Si Si5 0.963360 0.901880 0.697383
Si Si6 0.935872 0.905912 0.193136
Si Si7 0.795583 0.493461 0.836069
O O1 0.659214 0.833146 0.924151
O O2 0.736302 0.988124 0.891684
O O3 0.745460 0.939099 0.984932
O O4 0.592025 0.254170 0.655581
O O5 0.470367 0.253673 0.584157
O O6 0.432896 0.194391 0.671650
O O7 0.462862 0.364937 0.661423
O O8 0.750000 0.250000 0.697199
O O9 0.612459 0.250000 0.750000
O O10 0.665835 0.399609 0.687572
O O11 0.336679 0.162578 0.544511
O O12 0.931210 0.931210 0.750000
O O13 0.983209 0.796032 0.693006
O O14 0.876948 0.934422 0.667184
O O15 0.050208 0.964537 0.686231
O O16 0.912203 0.912203 0.250000
#
# Coordination Sequence:
#
# PCOD9563632 Si02
#       7
#    16  16  16  16  16  16  16
#     4   9  18  36  63  95 127 162 204 258 333 397
#     4  12  21  38  62  90 125 165 213 271 318 378
#     4  11  26  42  65  85 123 179 222 240 305 404
#     4   9  18  35  61  92 126 164 203 258 330 398
#     4  11  25  38  60  91 128 163 204 264 323 393
#     4  11  23  37  56  87 128 168 215 262 318 384
#     4  12  22  41  65  93 126 162 210 271 322 379
#
# _framework density 18.641328000000001
#
# number of rings (size 3 to 8) (size 9 to 14) (size 15 to 20)
#    0.000    1.286    4.286    3.429    6.000    0.571 
#    0.000    1.429    6.286    3.429    0.000    0.000 
#    0.000    0.000    0.000    0.000    0.000    0.000 
#
# Total GULP energy -624011.504284 kJ/mol
# GULP energy per Si atom -5571.531288 kJ/mol
# Density = 1.859890 g / cm^3
# Si number density = 18.641328 Si / 1000 Ang^3
#
#
#
# Elastic Constant Matrix: (Units=GPa)
#
#
# Indices 1 2 3 4 5 6 
#
# 1 61.5292 19.1162 43.5876 0.0000 0.0000 0.0000
# 2 19.1162 61.5292 43.5876 0.0000 0.0000 0.0000
# 3 43.5876 43.5876 139.7731 0.0000 0.0000 0.0000
# 4 0.0000 0.0000 0.0000 -54.0759 0.0000 0.0000
# 5 0.0000 0.0000 0.0000 0.0000 -54.0759 0.0000
# 6 0.0000 0.0000 0.0000 0.0000 0.0000 20.7296
#
#
#
# Elastic Compliance Matrix: (Units=1/GPa)
#
#
# Indices 1 2 3 4 5 6 
#
# 1 0.021142 -0.002436 -0.005833 0.000000 0.000000 0.000000
# 2 -0.002436 0.021142 -0.005833 0.000000 0.000000 0.000000
# 3 -0.005833 -0.005833 0.010793 0.000000 0.000000 0.000000
# 4 0.000000 0.000000 0.000000 -0.018493 0.000000 0.000000
# 5 0.000000 0.000000 0.000000 0.000000 -0.018493 0.000000
# 6 0.000000 0.000000 0.000000 0.000000 0.000000 0.048240
#
#
# Mechanical properties :
#
#
# Convention : Reuss Voigt Hill
#
# Bulk Modulus (GPa) = 40.20797 52.82383 46.51590
# Shear Modulus (GPa) = 49.59026 -7.04843 21.27091
#
# Velocity S-wave (km/s) = 5.16334 -1.94661 3.38163
# Velocity P-wave (km/s) = 7.56061 4.83178 6.34464
#
# Compressibility (1/GPa) = 0.02487069
#
# Stress axis : x y z
#
# Youngs Moduli (GPa) = 47.30015 47.30015 92.65614
#
# Poissons Ratio (x) = 0.11523 0.54049
# Poissons Ratio (y) = 0.11523 0.54049
# Poissons Ratio (z) = 0.27591 0.27591
#
# Static dielectric constant tensor:
#      x y z
#    x 1.720880 0.000000 0.000000 
#    y 0.000000 1.720880 0.000000 
#    z 0.000000 0.000000 1.674900 
# 
# From -- ./inp_files/6639.got.cif
#   From: 2010.05.17/outbox.cif.g08.bks.cpg/sg126_4_cif.got.tgz:6639.got - 2010.05.20 11:58:20.
