data_PCOD9563536
_publ_section_title
;
Structure prediction by ZEFSAII (Michael W. Deem and Ramdas Pophale) SiO2 
 PCOD9563536
Probable space group: P 4/N N C
;
_chemical_formula_sum "Si O2"
_cell_formula_units_Z 88
_cell_length_a 11.912281
_cell_length_b 11.912281
_cell_length_c 32.641004
_cell_angle_alpha 90.000000
_cell_angle_beta 90.000000
_cell_angle_gamma 90.000000
_cell_volume 4631.838067
_symmetry_space_group_name_H-M "P 4/N N C"
_symmetry_group_IT_number 126
_space_group.IT_coordinate_system_code '2'
_symmetry_cell_setting 'tetragonal'
loop_
_space_group_symop_operation_xyz
x,y,z
1/2-y,x,z
1/2-x,1/2-y,z
y,1/2-x,z
x,1/2-y,1/2-z
1/2-x,y,1/2-z
y,x,1/2-z
1/2-y,1/2-x,1/2-z
-x,-y,-z
1/2+y,-x,-z
1/2+x,1/2+y,-z
-y,1/2+x,-z
-x,1/2+y,1/2+z
1/2+x,-y,1/2+z
-y,-x,1/2+z
1/2+y,1/2+x,1/2+z
loop_
_atom_site_type_symbol
_atom_site_label
_atom_site_fract_x
_atom_site_fract_y
_atom_site_fract_z
Si Si1 0.828054 0.033160 0.834556
Si Si2 0.766738 0.375372 0.113577
Si Si3 0.821244 0.927330 0.444735
Si Si4 0.487135 0.604590 0.878903
Si Si5 0.059745 0.250000 0.250000
Si Si6 0.346737 0.413082 0.463356
O O1 0.853435 0.160847 0.845909
O O2 0.733862 0.992854 0.866653
O O3 0.773888 0.012388 0.790473
O O4 0.938671 0.965134 0.847096
O O5 0.750000 0.250000 0.094054
O O6 0.830650 0.466786 0.085641
O O7 0.644137 0.419240 0.124909
O O8 0.690003 0.889049 0.439870
O O9 0.855886 0.962103 0.490875
O O10 0.517910 0.598376 0.926709
O O11 0.142941 0.142941 0.250000
O O12 0.212162 0.397010 0.459709
#
# Coordination Sequence:
#
# PCOD9563536 Si02
#       6
#    16  16  16  16   8  16
#     4  11  22  38  62  88 119 152 190 240 300 362
#     4  10  23  39  51  81 123 166 194 228 297 366
#     4   9  18  37  61  83 109 153 218 266 283 324
#     4  11  20  36  58  85 120 160 194 243 299 355
#     4  11  22  38  67  98 116 133 184 249 298 354
#     4   9  17  31  56  85 110 148 205 261 301 332
#
# _framework density 18.998937999999999
#
# number of rings (size 3 to 8) (size 9 to 14) (size 15 to 20)
#    0.000    1.909    3.636    2.182    0.000    0.364 
#    6.545    6.818    0.000    0.000    0.000    0.000 
#    0.000    0.000    3.273    0.000    0.000    0.000 
#
# Total GULP energy -490431.659504 kJ/mol
# GULP energy per Si atom -5573.087040 kJ/mol
# Density = 1.895570 g / cm^3
# Si number density = 18.998938 Si / 1000 Ang^3
#
#
#
# Elastic Constant Matrix: (Units=GPa)
#
#
# Indices 1 2 3 4 5 6 
#
# 1 65.6408 38.2158 50.6715 0.0000 0.0000 0.0000
# 2 38.2158 65.6408 50.6715 0.0000 0.0000 0.0000
# 3 50.6715 50.6715 141.7581 0.0000 0.0000 0.0000
# 4 0.0000 0.0000 0.0000 24.1921 0.0000 0.0000
# 5 0.0000 0.0000 0.0000 0.0000 24.1921 0.0000
# 6 0.0000 0.0000 0.0000 0.0000 0.0000 13.1272
#
#
#
# Elastic Compliance Matrix: (Units=1/GPa)
#
#
# Indices 1 2 3 4 5 6 
#
# 1 0.025625 -0.010839 -0.005285 0.000000 0.000000 0.000000
# 2 -0.010839 0.025625 -0.005285 0.000000 0.000000 0.000000
# 3 -0.005285 -0.005285 0.010833 0.000000 0.000000 0.000000
# 4 0.000000 0.000000 0.000000 0.041336 0.000000 0.000000
# 5 0.000000 0.000000 0.000000 0.000000 0.041336 0.000000
# 6 0.000000 0.000000 0.000000 0.000000 0.000000 0.076178
#
#
# Mechanical properties :
#
#
# Convention : Reuss Voigt Hill
#
# Bulk Modulus (GPa) = 51.91116 61.35078 56.63097
# Shear Modulus (GPa) = 18.50686 21.20103 19.85394
#
# Velocity S-wave (km/s) = 3.12444 3.34414 3.23616
# Velocity P-wave (km/s) = 6.35600 6.87552 6.62086
#
# Compressibility (1/GPa) = 0.01926368
#
# Stress axis : x y z
#
# Youngs Moduli (GPa) = 39.02511 39.02511 92.31306
#
# Poissons Ratio (x) = 0.42297 0.48790
# Poissons Ratio (y) = 0.42297 0.48790
# Poissons Ratio (z) = 0.20626 0.20626
#
# Static dielectric constant tensor:
#      x y z
#    x 1.695600 0.000000 0.000000 
#    y 0.000000 1.695600 0.000000 
#    z 0.000000 0.000000 1.663410 
# 
# From -- ./inp_files/6509.got.cif
#   From: 2010.05.17/outbox.cif.g08.bks.cpg/sg126_4_cif.got.tgz:6509.got - 2010.05.20 11:58:20.
