data_PCOD9563198
_publ_section_title
;
Structure prediction by ZEFSAII (Michael W. Deem and Ramdas Pophale) SiO2 
 PCOD9563198
Probable space group: P 4/N B M
;
_chemical_formula_sum "Si O2"
_cell_formula_units_Z 112
_cell_length_a 14.034876
_cell_length_b 14.034876
_cell_length_c 34.190503
_cell_angle_alpha 90.000000
_cell_angle_beta 90.000000
_cell_angle_gamma 90.000000
_cell_volume 6734.768159
_symmetry_space_group_name_H-M "P 4/N B M"
_symmetry_group_IT_number 125
_space_group.IT_coordinate_system_code '2'
_symmetry_cell_setting 'tetragonal'
loop_
_space_group_symop_operation_xyz
x,y,z
1/2-y,x,z
1/2-x,1/2-y,z
y,1/2-x,z
x,1/2-y,-z
1/2-x,y,-z
y,x,-z
1/2-y,1/2-x,-z
-x,-y,-z
1/2+y,-x,-z
1/2+x,1/2+y,-z
-y,1/2+x,-z
-x,1/2+y,z
1/2+x,-y,z
-y,-x,z
1/2+y,1/2+x,z
loop_
_atom_site_type_symbol
_atom_site_label
_atom_site_fract_x
_atom_site_fract_y
_atom_site_fract_z
Si Si1 0.592214 0.252563 0.953708
Si Si2 0.783455 0.906780 0.190227
Si Si3 0.339987 0.500369 0.731548
Si Si4 0.409581 0.232211 0.899568
Si Si5 0.858102 0.981886 0.688649
Si Si6 0.397097 0.314459 0.603843
Si Si7 0.649732 0.992676 0.478377
O O1 0.648218 0.351783 0.945318
O O2 0.669012 0.169012 0.946620
O O3 0.498822 0.234700 0.928252
O O4 0.569627 0.250000 0.000000
O O5 0.679851 0.858513 0.195090
O O6 0.810105 0.980803 0.223677
O O7 0.781690 0.942030 0.145514
O O8 0.408667 0.591334 0.728104
O O9 0.242896 0.507809 0.707378
O O10 0.399225 0.410659 0.713877
O O11 0.351010 0.330956 0.905048
O O12 0.928895 0.071106 0.688726
O O13 0.840698 0.945700 0.644723
O O14 0.297213 0.370898 0.602059
O O15 0.461240 0.338189 0.566493
O O16 0.750000 0.002237 0.500000
O O17 0.589778 0.910223 0.500000
O O18 0.588335 0.088335 0.481056
#
# Coordination Sequence:
#
# PCOD9563198 Si02
#       7
#    16  16  16  16  16  16  16
#     4   9  19  36  55  75 104 146 192 232 276 335
#     4   9  17  33  57  80 107 143 184 230 277 329
#     4  11  22  36  59  85 111 151 195 232 281 338
#     4   9  19  34  53  83 114 141 179 230 285 337
#     4  11  23  39  58  85 119 150 189 237 282 335
#     4  11  21  36  63  91 115 148 192 241 287 330
#     4  11  23  40  62  87 120 156 190 234 286 338
#
# _framework density 16.630120000000002
#
# number of rings (size 3 to 8) (size 9 to 14) (size 15 to 20)
#    0.000    1.857    4.286    1.714    0.000    2.571 
#    0.000    5.714    0.000    1.714    0.000    0.000 
#    0.000    0.000    0.000    0.000    0.000    0.000 
#
# Total GULP energy -624784.871044 kJ/mol
# GULP energy per Si atom -5578.436349 kJ/mol
# Density = 1.659227 g / cm^3
# Si number density = 16.630120 Si / 1000 Ang^3
#
#
#
# Elastic Constant Matrix: (Units=GPa)
#
#
# Indices 1 2 3 4 5 6 
#
# 1 112.3170 53.9983 72.6891 0.0000 0.0000 0.0000
# 2 53.9983 112.3173 72.6894 0.0000 0.0000 0.0000
# 3 72.6891 72.6894 135.0462 0.0000 0.0000 0.0000
# 4 0.0000 0.0000 0.0000 22.8008 0.0000 0.0000
# 5 0.0000 0.0000 0.0000 0.0000 22.7995 0.0000
# 6 0.0000 0.0000 0.0000 0.0000 0.0000 5.8102
#
#
#
# Elastic Compliance Matrix: (Units=1/GPa)
#
#
# Indices 1 2 3 4 5 6 
#
# 1 0.014251 -0.002896 -0.006112 0.000000 0.000000 0.000000
# 2 -0.002896 0.014251 -0.006112 0.000000 0.000000 0.000000
# 3 -0.006112 -0.006112 0.013985 0.000000 0.000000 0.000000
# 4 0.000000 0.000000 0.000000 0.043858 0.000000 0.000000
# 5 0.000000 0.000000 0.000000 0.000000 0.043861 0.000000
# 6 0.000000 0.000000 0.000000 0.000000 0.000000 0.172110
#
#
# Mechanical properties :
#
#
# Convention : Reuss Voigt Hill
#
# Bulk Modulus (GPa) = 81.65293 84.27048 82.96170
# Shear Modulus (GPa) = 14.85276 20.96902 17.91089
#
# Velocity S-wave (km/s) = 2.99176 3.55478 3.28535
# Velocity P-wave (km/s) = 7.81922 8.22387 8.02409
#
# Compressibility (1/GPa) = 0.01224696
#
# Stress axis : x y z
#
# Youngs Moduli (GPa) = 70.16954 70.16949 71.50757
#
# Poissons Ratio (x) = 0.20321 0.43705
# Poissons Ratio (y) = 0.20321 0.43706
# Poissons Ratio (z) = 0.42888 0.42888
#
# Static dielectric constant tensor:
#      x y z
#    x 1.538570 0.000000 0.000000 
#    y 0.000000 1.538570 0.000000 
#    z 0.000000 0.000000 1.549830 
# 
# From -- ./inp_files/6660.got.cif
#   From: 2010.05.17/outbox.cif.g08.bks.cpg/sg125_4_cif.got.tgz:6660.got - 2010.05.20 11:54:10.
