data_PCOD9563192
_publ_section_title
;
Structure prediction by ZEFSAII (Michael W. Deem and Ramdas Pophale) SiO2 
 PCOD9563192
Probable space group: P 4/N B M
;
_chemical_formula_sum "Si O2"
_cell_formula_units_Z 112
_cell_length_a 13.571548
_cell_length_b 13.571548
_cell_length_c 28.971854
_cell_angle_alpha 90.000000
_cell_angle_beta 90.000000
_cell_angle_gamma 90.000000
_cell_volume 5336.236413
_symmetry_space_group_name_H-M "P 4/N B M"
_symmetry_group_IT_number 125
_space_group.IT_coordinate_system_code '2'
_symmetry_cell_setting 'tetragonal'
loop_
_space_group_symop_operation_xyz
x,y,z
1/2-y,x,z
1/2-x,1/2-y,z
y,1/2-x,z
x,1/2-y,-z
1/2-x,y,-z
y,x,-z
1/2-y,1/2-x,-z
-x,-y,-z
1/2+y,-x,-z
1/2+x,1/2+y,-z
-y,1/2+x,-z
-x,1/2+y,z
1/2+x,-y,z
-y,-x,z
1/2+y,1/2+x,z
loop_
_atom_site_type_symbol
_atom_site_label
_atom_site_fract_x
_atom_site_fract_y
_atom_site_fract_z
Si Si1 0.298901 0.540980 0.953987
Si Si2 0.337613 0.109166 0.114779
Si Si3 0.333981 0.833981 0.887895
Si Si4 0.083713 0.246097 0.628105
Si Si5 0.749165 0.413214 0.444989
Si Si6 0.662916 0.608271 0.216456
Si Si7 0.666299 0.166299 0.216992
Si Si8 0.543316 0.202849 0.715180
O O1 0.365657 0.634344 0.967650
O O2 0.364292 0.462083 0.926653
O O3 0.217299 0.581039 0.917868
O O4 0.250000 0.499547 0.000000
O O5 0.378120 0.219201 0.112039
O O6 0.361521 0.068205 0.165564
O O7 0.250000 0.750000 0.883913
O O8 0.362872 0.862872 0.835394
O O9 0.157115 0.153130 0.628941
O O10 0.012686 0.246450 0.583914
O O11 0.012796 0.249205 0.672529
O O12 0.750000 0.431144 0.500000
O O13 0.651701 0.348300 0.434276
O O14 0.842134 0.342134 0.434355
O O15 0.781446 0.622225 0.219852
O O16 0.635815 0.534997 0.257003
O O17 0.750000 0.250000 0.211959
O O18 0.583017 0.217773 0.247799
O O19 0.635637 0.135637 0.700193
#
# Coordination Sequence:
#
# PCOD9563192 Si02
#       8
#    16  16   8  16  16  16   8  16
#     4  11  21  36  58  83 111 143 183 229 285 351
#     4   9  20  39  60  80 109 152 190 229 290 355
#     4   9  18  34  58  79 113 149 186 231 293 369
#     4  11  25  43  62  89 131 180 226 275 328 382
#     4   9  20  41  69 100 135 175 220 274 339 400
#     4   9  18  37  60  80 111 152 192 238 298 367
#     4   9  20  36  54  82 113 152 189 243 308 369
#     4  11  22  37  58  86 122 156 204 255 316 377
#
# _framework density 20.988575000000001
#
# number of rings (size 3 to 8) (size 9 to 14) (size 15 to 20)
#    0.000    2.143    0.714    3.429    1.000    5.143 
#    5.143    3.571    0.000    0.000    0.000    0.000 
#    0.000    0.000    0.000    0.000    0.000    0.000 
#
# Total GULP energy -625604.497847 kJ/mol
# GULP energy per Si atom -5585.754445 kJ/mol
# Density = 2.094080 g / cm^3
# Si number density = 20.988575 Si / 1000 Ang^3
#
#
#
# Elastic Constant Matrix: (Units=GPa)
#
#
# Indices 1 2 3 4 5 6 
#
# 1 68.6789 5.6690 32.5987 0.0000 0.0000 0.0000
# 2 5.6690 68.6789 32.5987 0.0000 0.0000 0.0000
# 3 32.5987 32.5987 94.6360 0.0000 0.0000 0.0000
# 4 0.0000 0.0000 0.0000 19.6053 0.0000 0.0000
# 5 0.0000 0.0000 0.0000 0.0000 19.6053 0.0000
# 6 0.0000 0.0000 0.0000 0.0000 0.0000 10.6905
#
#
#
# Elastic Compliance Matrix: (Units=1/GPa)
#
#
# Indices 1 2 3 4 5 6 
#
# 1 0.017571 0.001701 -0.006638 0.000000 0.000000 0.000000
# 2 0.001701 0.017571 -0.006638 0.000000 0.000000 0.000000
# 3 -0.006638 -0.006638 0.015140 0.000000 0.000000 0.000000
# 4 0.000000 0.000000 0.000000 0.051007 0.000000 0.000000
# 5 0.000000 0.000000 0.000000 0.000000 0.051007 0.000000
# 6 0.000000 0.000000 0.000000 0.000000 0.000000 0.093541
#
#
# Mechanical properties :
#
#
# Convention : Reuss Voigt Hill
#
# Bulk Modulus (GPa) = 36.85973 41.52520 39.19246
# Shear Modulus (GPa) = 17.98355 20.72206 19.35281
#
# Velocity S-wave (km/s) = 2.93033 3.14554 3.03984
# Velocity P-wave (km/s) = 5.38972 5.74632 5.57088
#
# Compressibility (1/GPa) = 0.02712988
#
# Stress axis : x y z
#
# Youngs Moduli (GPa) = 56.91170 56.91170 66.04941
#
# Poissons Ratio (x) = -0.09678 0.43846
# Poissons Ratio (y) = -0.09678 0.43846
# Poissons Ratio (z) = 0.37780 0.37780
#
# Static dielectric constant tensor:
#      x y z
#    x 1.771080 0.000000 0.000000 
#    y 0.000000 1.771080 0.000000 
#    z 0.000000 0.000000 1.749980 
# 
# From -- ./inp_files/6471.got.cif
#   From: 2010.05.17/outbox.cif.g08.bks.cpg/sg125_4_cif.got.tgz:6471.got - 2010.05.20 11:54:10.
