data_PCOD9563428
_publ_section_title
;
Structure prediction by ZEFSAII (Michael W. Deem and Ramdas Pophale) SiO2 
 PCOD9563428
Probable space group: P 4/N N C
;
_chemical_formula_sum "Si O2"
_cell_formula_units_Z 72
_cell_length_a 20.658732
_cell_length_b 20.658732
_cell_length_c 8.203976
_cell_angle_alpha 90.000000
_cell_angle_beta 90.000000
_cell_angle_gamma 90.000000
_cell_volume 3501.319194
_symmetry_space_group_name_H-M "P 4/N N C"
_symmetry_group_IT_number 126
_space_group.IT_coordinate_system_code '2'
_symmetry_cell_setting 'tetragonal'
loop_
_space_group_symop_operation_xyz
x,y,z
1/2-y,x,z
1/2-x,1/2-y,z
y,1/2-x,z
x,1/2-y,1/2-z
1/2-x,y,1/2-z
y,x,1/2-z
1/2-y,1/2-x,1/2-z
-x,-y,-z
1/2+y,-x,-z
1/2+x,1/2+y,-z
-y,1/2+x,-z
-x,1/2+y,1/2+z
1/2+x,-y,1/2+z
-y,-x,1/2+z
1/2+y,1/2+x,1/2+z
loop_
_atom_site_type_symbol
_atom_site_label
_atom_site_fract_x
_atom_site_fract_y
_atom_site_fract_z
Si Si1 0.464142 0.750000 0.750000
Si Si2 0.575261 0.924740 0.750000
Si Si3 0.038985 0.827319 0.242150
Si Si4 0.750000 0.856287 0.250000
Si Si5 0.937983 0.379995 0.101196
Si Si6 0.309950 0.064523 0.999123
O O1 0.425980 0.812797 0.804621
O O2 0.510204 0.727065 0.896582
O O3 0.502324 0.913775 0.820663
O O4 0.629723 0.914240 0.890132
O O5 0.054651 0.750000 0.250000
O O6 0.079428 0.872517 0.119023
O O7 0.047055 0.860613 0.416357
O O8 0.966975 0.833160 0.170915
O O9 0.686819 0.813182 0.250000
O O10 0.755039 0.889295 0.427784
#
# Coordination Sequence:
#
# PCOD9563428 Si02
#       6
#     8   8  16   8  16  16
#     4  10  20  42  67  95 134 178 220 292 342 422
#     4  10  26  42  74 111 134 180 235 318 348 416
#     4  12  25  44  72 102 141 190 221 294 357 432
#     4  11  26  42  60  94 136 187 236 282 326 439
#     4  11  24  43  69 105 141 175 240 286 355 419
#     4  11  23  42  68  99 134 184 231 281 375 400
#
# _framework density 20.563676999999998
#
# number of rings (size 3 to 8) (size 9 to 14) (size 15 to 20)
#    0.000    1.000    3.333    2.667    9.333    3.556 
#    0.000    0.556    0.000    0.000    0.000    0.000 
#    0.000    0.000    0.000    0.000    0.000    0.000 
#
# Total GULP energy -401590.350494 kJ/mol
# GULP energy per Si atom -5577.643757 kJ/mol
# Density = 2.051687 g / cm^3
# Si number density = 20.563677 Si / 1000 Ang^3
#
#
#
# Elastic Constant Matrix: (Units=GPa)
#
#
# Indices 1 2 3 4 5 6 
#
# 1 83.2469 45.8713 32.0624 0.0000 0.0000 0.0000
# 2 45.8713 83.2456 32.0624 0.0000 0.0000 0.0000
# 3 32.0624 32.0624 114.1435 0.0000 0.0000 0.0000
# 4 0.0000 0.0000 0.0000 19.6544 0.0000 0.0000
# 5 0.0000 0.0000 0.0000 0.0000 19.6547 0.0000
# 6 0.0000 0.0000 0.0000 0.0000 0.0000 21.9279
#
#
#
# Elastic Compliance Matrix: (Units=1/GPa)
#
#
# Indices 1 2 3 4 5 6 
#
# 1 0.017878 -0.008878 -0.002528 0.000000 0.000000 0.000000
# 2 -0.008878 0.017878 -0.002528 0.000000 0.000000 0.000000
# 3 -0.002528 -0.002528 0.010181 0.000000 0.000000 0.000000
# 4 0.000000 0.000000 0.000000 0.050879 0.000000 0.000000
# 5 0.000000 0.000000 0.000000 0.000000 0.050878 0.000000
# 6 0.000000 0.000000 0.000000 0.000000 0.000000 0.045604
#
#
# Mechanical properties :
#
#
# Convention : Reuss Voigt Hill
#
# Bulk Modulus (GPa) = 55.34218 55.62536 55.48377
# Shear Modulus (GPa) = 22.00798 23.62341 22.81569
#
# Velocity S-wave (km/s) = 3.27499 3.39306 3.33455
# Velocity P-wave (km/s) = 6.42431 6.51610 6.47037
#
# Compressibility (1/GPa) = 0.01806940
#
# Stress axis : x y z
#
# Youngs Moduli (GPa) = 55.93462 55.93357 98.22006
#
# Poissons Ratio (x) = 0.49656 0.24832
# Poissons Ratio (y) = 0.49657 0.24832
# Poissons Ratio (z) = 0.14141 0.14141
#
# Static dielectric constant tensor:
#      x y z
#    x 1.769430 0.000000 0.000000 
#    y 0.000000 1.769430 0.000000 
#    z 0.000000 0.000000 2.163320 
# 
# From -- ./inp_files/1620.got.cif
#   From: 2010.05.17/outbox.cif.g08.bks.cpg/sg126_1_cif.got.tgz:1620.got - 2010.05.20 11:58:20.
