data_PCOD9563709
_publ_section_title
;
Structure prediction by ZEFSAII (Michael W. Deem and Ramdas Pophale) SiO2 
 PCOD9563709
Probable space group: P 4/N N C
;
_chemical_formula_sum "Si O2"
_cell_formula_units_Z 60
_cell_length_a 18.670395
_cell_length_b 18.670395
_cell_length_c 8.482236
_cell_angle_alpha 90.000000
_cell_angle_beta 90.000000
_cell_angle_gamma 90.000000
_cell_volume 2956.768780
_symmetry_space_group_name_H-M "P 4/N N C"
_symmetry_group_IT_number 126
_space_group.IT_coordinate_system_code '2'
_symmetry_cell_setting 'tetragonal'
loop_
_space_group_symop_operation_xyz
x,y,z
1/2-y,x,z
1/2-x,1/2-y,z
y,1/2-x,z
x,1/2-y,1/2-z
1/2-x,y,1/2-z
y,x,1/2-z
1/2-y,1/2-x,1/2-z
-x,-y,-z
1/2+y,-x,-z
1/2+x,1/2+y,-z
-y,1/2+x,-z
-x,1/2+y,1/2+z
1/2+x,-y,1/2+z
-y,-x,1/2+z
1/2+y,1/2+x,1/2+z
loop_
_atom_site_type_symbol
_atom_site_label
_atom_site_fract_x
_atom_site_fract_y
_atom_site_fract_z
Si Si1 0.835535 0.664446 0.075177
Si Si2 0.750000 0.250000 0.500000
Si Si3 0.167264 0.549808 0.191500
Si Si4 0.310878 0.604060 0.647092
Si Si5 0.601589 0.601589 0.750000
O O1 0.847563 0.750001 0.070656
O O2 0.861187 0.638814 0.250000
O O3 0.867339 0.632711 0.914473
O O4 0.821112 0.274994 0.589965
O O5 0.250000 0.547781 0.250000
O O6 0.128113 0.620215 0.256463
O O7 0.123489 0.481204 0.246700
O O8 0.169575 0.557473 0.003535
O O9 0.250000 0.566307 0.750000
#
# Coordination Sequence:
#
# PCOD9563709 Si02
#       5
#    16   4  16  16   8
#     4   9  18  38  66  92 120 169 239 301 339 377
#     4  12  18  36  74 100 122 156 210 304 354 388
#     4  12  24  43  66  99 134 181 225 279 350 405
#     4  12  22  41  71 102 130 164 227 293 346 410
#     4  12  26  41  60  96 148 184 222 263 338 426
#
# _framework density 20.292421999999998
#
# number of rings (size 3 to 8) (size 9 to 14) (size 15 to 20)
#    0.000    0.800    5.333    3.600    0.000    2.133 
#   14.400    0.000    0.000    0.000    0.000    0.000 
#    0.000    0.000    0.000    0.000    0.000    0.000 
#
# Total GULP energy -335258.813032 kJ/mol
# GULP energy per Si atom -5587.646884 kJ/mol
# Density = 2.024624 g / cm^3
# Si number density = 20.292422 Si / 1000 Ang^3
#
#
#
# Elastic Constant Matrix: (Units=GPa)
#
#
# Indices 1 2 3 4 5 6 
#
# 1 61.1008 46.9239 45.5408 0.0000 0.0000 0.0000
# 2 46.9239 61.1003 45.5406 0.0000 0.0000 0.0000
# 3 45.5408 45.5406 160.5866 0.0000 0.0000 0.0000
# 4 0.0000 0.0000 0.0000 -5.4807 0.0000 0.0000
# 5 0.0000 0.0000 0.0000 0.0000 -5.4805 0.0000
# 6 0.0000 0.0000 0.0000 0.0000 0.0000 10.4976
#
#
#
# Elastic Compliance Matrix: (Units=1/GPa)
#
#
# Indices 1 2 3 4 5 6 
#
# 1 0.041352 -0.029186 -0.003450 0.000000 0.000000 0.000000
# 2 -0.029186 0.041353 -0.003450 0.000000 0.000000 0.000000
# 3 -0.003450 -0.003450 0.008184 0.000000 0.000000 0.000000
# 4 0.000000 0.000000 0.000000 -0.182460 0.000000 0.000000
# 5 0.000000 0.000000 0.000000 0.000000 -0.182465 0.000000
# 6 0.000000 0.000000 0.000000 0.000000 0.000000 0.095260
#
#
# Mechanical properties :
#
#
# Convention : Reuss Voigt Hill
#
# Bulk Modulus (GPa) = 53.43117 62.08868 57.75993
# Shear Modulus (GPa) = -49.81826 9.55945 -20.12940
#
# Velocity S-wave (km/s) = -4.96019 2.17280 -3.15297
# Velocity P-wave (km/s) = 2.53315 6.07932 3.90777
#
# Compressibility (1/GPa) = 0.01871567
#
# Stress axis : x y z
#
# Youngs Moduli (GPa) = 24.18245 24.18228 122.18870
#
# Poissons Ratio (x) = 0.70579 0.42158
# Poissons Ratio (y) = 0.70579 0.42158
# Poissons Ratio (z) = 0.08344 0.08343
#
# Static dielectric constant tensor:
#      x y z
#    x 1.704230 0.000000 0.000000 
#    y 0.000000 1.704240 0.000000 
#    z 0.000000 0.000000 1.775100 
# 
# From -- ./inp_files/1319.got.cif
#   From: 2010.05.17/outbox.cif.g08.bks.cpg/sg126_1_cif.got.tgz:1319.got - 2010.05.20 11:58:20.
