data_PCOD9563146
_publ_section_title
;
Structure prediction by ZEFSAII (Michael W. Deem and Ramdas Pophale) SiO2 
 PCOD9563146
Probable space group: P 4/N B M
;
_chemical_formula_sum "Si O2"
_cell_formula_units_Z 48
_cell_length_a 13.110558
_cell_length_b 13.110558
_cell_length_c 13.473459
_cell_angle_alpha 90.000000
_cell_angle_beta 90.000000
_cell_angle_gamma 90.000000
_cell_volume 2315.908824
_symmetry_space_group_name_H-M "P 4/N B M"
_symmetry_group_IT_number 125
_space_group.IT_coordinate_system_code '2'
_symmetry_cell_setting 'tetragonal'
loop_
_space_group_symop_operation_xyz
x,y,z
1/2-y,x,z
1/2-x,1/2-y,z
y,1/2-x,z
x,1/2-y,-z
1/2-x,y,-z
y,x,-z
1/2-y,1/2-x,-z
-x,-y,-z
1/2+y,-x,-z
1/2+x,1/2+y,-z
-y,1/2+x,-z
-x,1/2+y,z
1/2+x,-y,z
-y,-x,z
1/2+y,1/2+x,z
loop_
_atom_site_type_symbol
_atom_site_label
_atom_site_fract_x
_atom_site_fract_y
_atom_site_fract_z
Si Si1 0.388097 0.347314 0.239122
Si Si2 0.031183 0.697638 0.400361
Si Si3 0.982397 0.482397 0.116017
Si Si4 0.835861 0.164140 0.750538
O O1 0.273468 0.384503 0.228037
O O2 0.441248 0.362733 0.345105
O O3 0.452675 0.408387 0.160251
O O4 0.993708 0.750000 0.500000
O O5 0.120222 0.620222 0.429967
O O6 0.084619 0.774831 0.320802
O O7 0.899707 0.399707 0.164242
O O8 0.000000 0.500000 0.000000
O O9 0.750000 0.250000 0.783798
#
# Coordination Sequence:
#
# PCOD9563146 Si02
#       4
#    16  16   8   8
#     4  11  25  46  69 102 147 185 237 297 357 450
#     4  11  21  39  73 108 146 193 242 302 372 435
#     4  12  26  49  79 103 141 191 245 311 379 426
#     4  10  22  43  71 103 145 183 246 303 353 446
#
# _framework density 20.726206000000001
#
# number of rings (size 3 to 8) (size 9 to 14) (size 15 to 20)
#    0.000    1.000    6.667    0.000    0.000    2.667 
#    0.000    6.667    3.667    0.000    0.000    0.000 
#    0.000    0.000    0.000    0.000    0.000    0.000 
#
# Total GULP energy -267835.597325 kJ/mol
# GULP energy per Si atom -5579.908278 kJ/mol
# Density = 2.067903 g / cm^3
# Si number density = 20.726206 Si / 1000 Ang^3
#
#
#
# Elastic Constant Matrix: (Units=GPa)
#
#
# Indices 1 2 3 4 5 6 
#
# 1 90.3094 15.3550 47.7878 0.0000 0.0000 0.0000
# 2 15.3550 90.3094 47.7878 0.0000 0.0000 0.0000
# 3 47.7878 47.7878 160.7550 0.0000 0.0000 0.0000
# 4 0.0000 0.0000 0.0000 25.3812 0.0000 0.0000
# 5 0.0000 0.0000 0.0000 0.0000 25.3812 0.0000
# 6 0.0000 0.0000 0.0000 0.0000 0.0000 13.9851
#
#
#
# Elastic Compliance Matrix: (Units=1/GPa)
#
#
# Indices 1 2 3 4 5 6 
#
# 1 0.013143 -0.000198 -0.003848 0.000000 0.000000 0.000000
# 2 -0.000198 0.013143 -0.003848 0.000000 0.000000 0.000000
# 3 -0.003848 -0.003848 0.008508 0.000000 0.000000 0.000000
# 4 0.000000 0.000000 0.000000 0.039399 0.000000 0.000000
# 5 0.000000 0.000000 0.000000 0.000000 0.039399 0.000000
# 6 0.000000 0.000000 0.000000 0.000000 0.000000 0.071505
#
#
# Mechanical properties :
#
#
# Convention : Reuss Voigt Hill
#
# Bulk Modulus (GPa) = 52.61660 62.58166 57.59913
# Shear Modulus (GPa) = 24.12873 28.31238 26.22056
#
# Velocity S-wave (km/s) = 3.41569 3.69998 3.56067
# Velocity P-wave (km/s) = 6.40293 6.96514 6.68994
#
# Compressibility (1/GPa) = 0.01900541
#
# Stress axis : x y z
#
# Youngs Moduli (GPa) = 76.08618 76.08618 117.53003
#
# Poissons Ratio (x) = 0.01510 0.45226
# Poissons Ratio (y) = 0.01510 0.45226
# Poissons Ratio (z) = 0.29278 0.29278
#
# Static dielectric constant tensor:
#      x y z
#    x 1.746930 0.000000 0.000000 
#    y 0.000000 1.746930 0.000000 
#    z 0.000000 0.000000 1.734380 
# 
# From -- ./inp_files/3437.got.cif
#   From: 2010.05.17/outbox.cif.g08.bks.cpg/sg125_2_cif.got.tgz:3437.got - 2010.05.20 11:54:10.
