data_PCOD9563490
_publ_section_title
;
Structure prediction by ZEFSAII (Michael W. Deem and Ramdas Pophale) SiO2 
 PCOD9563490
Probable space group: P 4/N N C
;
_chemical_formula_sum "Si O2"
_cell_formula_units_Z 72
_cell_length_a 18.248430
_cell_length_b 18.248430
_cell_length_c 10.396705
_cell_angle_alpha 90.000000
_cell_angle_beta 90.000000
_cell_angle_gamma 90.000000
_cell_volume 3462.156802
_symmetry_space_group_name_H-M "P 4/N N C"
_symmetry_group_IT_number 126
_space_group.IT_coordinate_system_code '2'
_symmetry_cell_setting 'tetragonal'
loop_
_space_group_symop_operation_xyz
x,y,z
1/2-y,x,z
1/2-x,1/2-y,z
y,1/2-x,z
x,1/2-y,1/2-z
1/2-x,y,1/2-z
y,x,1/2-z
1/2-y,1/2-x,1/2-z
-x,-y,-z
1/2+y,-x,-z
1/2+x,1/2+y,-z
-y,1/2+x,-z
-x,1/2+y,1/2+z
1/2+x,-y,1/2+z
-y,-x,1/2+z
1/2+y,1/2+x,1/2+z
loop_
_atom_site_type_symbol
_atom_site_label
_atom_site_fract_x
_atom_site_fract_y
_atom_site_fract_z
Si Si1 0.250000 0.460908 0.750000
Si Si2 0.063910 0.386961 0.587617
Si Si3 0.653593 0.042221 0.424047
Si Si4 0.072244 0.596945 0.815457
Si Si5 0.933320 0.669647 0.698965
O O1 0.322053 0.419980 0.693765
O O2 0.229907 0.513868 0.631099
O O3 0.109162 0.463564 0.571573
O O4 0.065087 0.345397 0.452109
O O5 0.983877 0.416815 0.626230
O O6 0.649909 0.080919 0.561562
O O7 0.621251 0.094442 0.312698
O O8 0.992422 0.616451 0.764113
O O9 0.950941 0.750000 0.750000
O O10 0.854148 0.645853 0.750000
#
# Coordination Sequence:
#
# PCOD9563490 Si02
#       5
#     8  16  16  16  16
#     4  10  22  36  52  85 119 156 194 242 306 376
#     4  11  22  36  60  88 117 159 196 259 315 363
#     4  11  21  36  61  86 124 151 196 250 317 365
#     4  11  20  37  61  91 118 150 197 258 321 367
#     4  12  24  39  61  87 127 167 210 248 302 367
#
# _framework density 20.796287
#
# number of rings (size 3 to 8) (size 9 to 14) (size 15 to 20)
#    0.000    0.889    4.444    6.000    0.000    0.222 
#    0.000    0.000    0.000    5.333    0.000   12.444 
#    0.000    0.000    0.000    0.000    0.000    0.000 
#
# Total GULP energy -400964.955737 kJ/mol
# GULP energy per Si atom -5568.957719 kJ/mol
# Density = 2.074895 g / cm^3
# Si number density = 20.796287 Si / 1000 Ang^3
#
#
#
# Elastic Constant Matrix: (Units=GPa)
#
#
# Indices 1 2 3 4 5 6 
#
# 1 53.6548 44.1788 25.2572 0.0000 0.0000 0.0000
# 2 44.1788 53.6527 25.2570 0.0000 0.0000 0.0000
# 3 25.2572 25.2570 177.0001 0.0000 0.0000 0.0000
# 4 0.0000 0.0000 0.0000 27.9779 0.0000 0.0000
# 5 0.0000 0.0000 0.0000 0.0000 27.9809 0.0000
# 6 0.0000 0.0000 0.0000 0.0000 0.0000 21.6321
#
#
#
# Elastic Compliance Matrix: (Units=1/GPa)
#
#
# Indices 1 2 3 4 5 6 
#
# 1 0.058286 -0.047253 -0.001574 0.000000 0.000000 0.000000
# 2 -0.047253 0.058289 -0.001575 0.000000 0.000000 0.000000
# 3 -0.001574 -0.001575 0.006099 0.000000 0.000000 0.000000
# 4 0.000000 0.000000 0.000000 0.035743 0.000000 0.000000
# 5 0.000000 0.000000 0.000000 0.000000 0.035739 0.000000
# 6 0.000000 0.000000 0.000000 0.000000 0.000000 0.046228
#
#
# Mechanical properties :
#
#
# Convention : Reuss Voigt Hill
#
# Bulk Modulus (GPa) = 45.72500 52.63263 49.17882
# Shear Modulus (GPa) = 14.34812 28.15917 21.25364
#
# Velocity S-wave (km/s) = 2.62951 3.68373 3.20033
# Velocity P-wave (km/s) = 5.59052 6.59218 6.11190
#
# Compressibility (1/GPa) = 0.02186987
#
# Stress axis : x y z
#
# Youngs Moduli (GPa) = 17.15664 17.15592 163.95902
#
# Poissons Ratio (x) = 0.81067 0.25814
# Poissons Ratio (y) = 0.81071 0.25819
# Poissons Ratio (z) = 0.02701 0.02702
#
# Static dielectric constant tensor:
#      x y z
#    x 1.784500 0.000000 0.000000 
#    y 0.000000 1.784510 0.000000 
#    z 0.000000 0.000000 1.832780 
# 
# From -- ./inp_files/2635.got.cif
#   From: 2010.05.17/outbox.cif.g08.bks.cpg/sg126_2_cif.got.tgz:2635.got - 2010.05.20 11:58:20.
