data_PCOD9563065
_publ_section_title
;
Structure prediction by ZEFSAII (Michael W. Deem and Ramdas Pophale) SiO2 
 PCOD9563065
Probable space group: P 4/N B M
;
_chemical_formula_sum "Si O2"
_cell_formula_units_Z 72
_cell_length_a 21.723686
_cell_length_b 21.723686
_cell_length_c 7.185822
_cell_angle_alpha 90.000000
_cell_angle_beta 90.000000
_cell_angle_gamma 90.000000
_cell_volume 3391.122580
_symmetry_space_group_name_H-M "P 4/N B M"
_symmetry_group_IT_number 125
_space_group.IT_coordinate_system_code '2'
_symmetry_cell_setting 'tetragonal'
loop_
_space_group_symop_operation_xyz
x,y,z
1/2-y,x,z
1/2-x,1/2-y,z
y,1/2-x,z
x,1/2-y,-z
1/2-x,y,-z
y,x,-z
1/2-y,1/2-x,-z
-x,-y,-z
1/2+y,-x,-z
1/2+x,1/2+y,-z
-y,1/2+x,-z
-x,1/2+y,z
1/2+x,-y,z
-y,-x,z
1/2+y,1/2+x,z
loop_
_atom_site_type_symbol
_atom_site_label
_atom_site_fract_x
_atom_site_fract_y
_atom_site_fract_z
Si Si1 0.239437 0.068451 0.724290
Si Si2 0.211558 0.937442 0.166359
Si Si3 0.872790 0.643054 0.705458
Si Si4 0.349633 0.750000 0.500000
Si Si5 0.086005 0.489636 0.839739
O O1 0.250000 0.066276 0.500000
O O2 0.173957 0.093910 0.786333
O O3 0.291475 0.115454 0.797103
O O4 0.251121 0.000073 0.790729
O O5 0.218007 0.893071 0.344369
O O6 0.143183 0.963710 0.114951
O O7 0.250000 0.906754 0.000000
O O8 0.846464 0.653536 0.500000
O O9 0.940541 0.614042 0.697543
O O10 0.303869 0.696132 0.574049
O O11 0.032307 0.532307 0.761804
O O12 0.052589 0.447412 0.000000
#
# Coordination Sequence:
#
# PCOD9563065 Si02
#       5
#    16  16  16   8  16
#     4   9  17  33  54  84 120 159 202 247 299 361
#     4  11  22  40  67  90 124 166 208 257 323 386
#     4   9  18  31  52  78 114 156 197 242 297 357
#     4  11  26  46  66  92 124 159 212 276 328 387
#     4  10  21  37  56  86 123 154 200 258 312 379
#
# _framework density 21.231909000000002
#
# number of rings (size 3 to 8) (size 9 to 14) (size 15 to 20)
#    0.000    2.111    1.111    2.000    0.000    2.667 
#    0.000    4.444    0.000    0.000    0.000    3.111 
#    0.000    0.000    0.000    0.000    0.000    0.000 
#
# Total GULP energy -400905.209020 kJ/mol
# GULP energy per Si atom -5568.127903 kJ/mol
# Density = 2.118358 g / cm^3
# Si number density = 21.231909 Si / 1000 Ang^3
#
#
#
# Elastic Constant Matrix: (Units=GPa)
#
#
# Indices 1 2 3 4 5 6 
#
# 1 90.7867 59.0629 3.7362 0.0000 0.0000 0.0000
# 2 59.0629 90.7869 3.7355 0.0000 0.0000 0.0000
# 3 3.7362 3.7355 64.7683 0.0000 0.0000 0.0000
# 4 0.0000 0.0000 0.0000 11.6306 0.0000 0.0000
# 5 0.0000 0.0000 0.0000 0.0000 11.6305 0.0000
# 6 0.0000 0.0000 0.0000 0.0000 0.0000 97.4147
#
#
#
# Elastic Compliance Matrix: (Units=1/GPa)
#
#
# Indices 1 2 3 4 5 6 
#
# 1 0.019107 -0.012415 -0.000386 0.000000 0.000000 0.000000
# 2 -0.012415 0.019107 -0.000386 0.000000 0.000000 0.000000
# 3 -0.000386 -0.000386 0.015484 0.000000 0.000000 0.000000
# 4 0.000000 0.000000 0.000000 0.085980 0.000000 0.000000
# 5 0.000000 0.000000 0.000000 0.000000 0.085981 0.000000
# 6 0.000000 0.000000 0.000000 0.000000 0.000000 0.010265
#
#
# Mechanical properties :
#
#
# Convention : Reuss Voigt Hill
#
# Bulk Modulus (GPa) = 36.59618 42.15680 39.37649
# Shear Modulus (GPa) = 18.42252 36.12230 27.27241
#
# Velocity S-wave (km/s) = 2.94884 4.12918 3.58788
# Velocity P-wave (km/s) = 5.37290 6.52932 5.97913
#
# Compressibility (1/GPa) = 0.02732526
#
# Stress axis : x y z
#
# Youngs Moduli (GPa) = 52.33590 52.33610 64.58202
#
# Poissons Ratio (x) = 0.64974 0.02494
# Poissons Ratio (y) = 0.64973 0.02492
# Poissons Ratio (z) = 0.02021 0.02019
#
# Static dielectric constant tensor:
#      x y z
#    x 1.778170 0.000000 0.000000 
#    y 0.000000 1.778170 0.000000 
#    z 0.000000 0.000000 1.836940 
# 
# From -- ./inp_files/2519.got.cif
#   From: 2010.05.17/outbox.cif.g08.bks.cpg/sg125_2_cif.got.tgz:2519.got - 2010.05.20 11:54:10.
