data_PCOD9563281
_publ_section_title
;
Structure prediction by ZEFSAII (Michael W. Deem and Ramdas Pophale) SiO2 
 PCOD9563281
Probable space group: P 4/N N C
;
_chemical_formula_sum "Si O2"
_cell_formula_units_Z 76
_cell_length_a 16.437468
_cell_length_b 16.437468
_cell_length_c 13.620098
_cell_angle_alpha 90.000000
_cell_angle_beta 90.000000
_cell_angle_gamma 90.000000
_cell_volume 3680.019104
_symmetry_space_group_name_H-M "P 4/N N C"
_symmetry_group_IT_number 126
_space_group.IT_coordinate_system_code '2'
_symmetry_cell_setting 'tetragonal'
loop_
_space_group_symop_operation_xyz
x,y,z
1/2-y,x,z
1/2-x,1/2-y,z
y,1/2-x,z
x,1/2-y,1/2-z
1/2-x,y,1/2-z
y,x,1/2-z
1/2-y,1/2-x,1/2-z
-x,-y,-z
1/2+y,-x,-z
1/2+x,1/2+y,-z
-y,1/2+x,-z
-x,1/2+y,1/2+z
1/2+x,-y,1/2+z
-y,-x,1/2+z
1/2+y,1/2+x,1/2+z
loop_
_atom_site_type_symbol
_atom_site_label
_atom_site_fract_x
_atom_site_fract_y
_atom_site_fract_z
Si Si1 0.702370 0.124812 0.518209
Si Si2 0.606594 0.136010 0.825692
Si Si3 0.250000 0.750000 0.750000
Si Si4 0.250000 0.020891 0.750000
Si Si5 0.998202 0.724033 0.646837
Si Si6 0.114542 0.235378 0.955813
O O1 0.650670 0.207939 0.521562
O O2 0.658866 0.074199 0.433652
O O3 0.713242 0.071146 0.614887
O O4 0.687489 0.192321 0.808457
O O5 0.538422 0.170897 0.754812
O O6 0.639425 0.044908 0.830491
O O7 0.261809 0.071951 0.849170
O O8 0.959177 0.750000 0.750000
O O9 0.943883 0.723169 0.549862
O O10 0.180311 0.163490 0.962234
#
# Coordination Sequence:
#
# PCOD9563281 Si02
#       6
#    16  16   4   8  16  16
#     4   9  17  30  52  89 134 181 221 257 311 401
#     4  10  19  31  62 101 141 182 207 268 331 419
#     4  10  16  28  54 102 138 188 228 240 316 418
#     4  11  22  42  72 105 134 160 226 291 348 392
#     4  11  22  37  62  97 140 172 218 270 333 405
#     4  11  26  50  77  94 117 175 248 300 330 380
#
# _framework density 20.652068
#
# number of rings (size 3 to 8) (size 9 to 14) (size 15 to 20)
#    0.000    1.684    3.158    3.158    2.947    1.684 
#    0.000    2.105    4.632    0.000    0.000    0.000 
#    0.000    0.000    0.000    0.000    0.000    0.000 
#
# Total GULP energy -423587.945038 kJ/mol
# GULP energy per Si atom -5573.525593 kJ/mol
# Density = 2.060506 g / cm^3
# Si number density = 20.652068 Si / 1000 Ang^3
#
#
#
# Elastic Constant Matrix: (Units=GPa)
#
#
# Indices 1 2 3 4 5 6 
#
# 1 86.8169 36.9246 59.8543 0.0000 0.0000 0.0000
# 2 36.9246 86.8169 59.8543 0.0000 0.0000 0.0000
# 3 59.8543 59.8543 168.7467 0.0000 0.0000 0.0000
# 4 0.0000 0.0000 0.0000 22.2058 0.0000 0.0000
# 5 0.0000 0.0000 0.0000 0.0000 22.2058 0.0000
# 6 0.0000 0.0000 0.0000 0.0000 0.0000 -2.8916
#
#
#
# Elastic Compliance Matrix: (Units=1/GPa)
#
#
# Indices 1 2 3 4 5 6 
#
# 1 0.016173 -0.003870 -0.004364 0.000000 0.000000 0.000000
# 2 -0.003870 0.016173 -0.004364 0.000000 0.000000 0.000000
# 3 -0.004364 -0.004364 0.009022 0.000000 0.000000 0.000000
# 4 0.000000 0.000000 0.000000 0.045033 0.000000 0.000000
# 5 0.000000 0.000000 0.000000 0.000000 0.045033 0.000000
# 6 0.000000 0.000000 0.000000 0.000000 0.000000 -0.345826
#
#
# Mechanical properties :
#
#
# Convention : Reuss Voigt Hill
#
# Bulk Modulus (GPa) = 61.83407 72.84964 67.34186
# Shear Modulus (GPa) = -27.20271 20.68716 -3.25777
#
# Velocity S-wave (km/s) = -3.63325 3.16840 -1.25733
# Velocity P-wave (km/s) = 3.52210 6.98114 5.52908
#
# Compressibility (1/GPa) = 0.01617231
#
# Stress axis : x y z
#
# Youngs Moduli (GPa) = 61.83106 61.83106 110.84314
#
# Poissons Ratio (x) = 0.23929 0.48370
# Poissons Ratio (y) = 0.23929 0.48370
# Poissons Ratio (z) = 0.26982 0.26982
#
# Static dielectric constant tensor:
#      x y z
#    x 1.762270 0.000000 0.000000 
#    y 0.000000 1.762270 0.000000 
#    z 0.000000 0.000000 1.849120 
# 
# From -- ./inp_files/3713.got.cif
#   From: 2010.05.17/outbox.cif.g08.bks.cpg/sg126_2_cif.got.tgz:3713.got - 2010.05.20 11:58:20.
