data_PCOD9563600
_publ_section_title
;
Structure prediction by ZEFSAII (Michael W. Deem and Ramdas Pophale) SiO2 
 PCOD9563600
Probable space group: P 4/N N C
;
_chemical_formula_sum "Si O2"
_cell_formula_units_Z 96
_cell_length_a 13.931092
_cell_length_b 13.931092
_cell_length_c 31.517193
_cell_angle_alpha 90.000000
_cell_angle_beta 90.000000
_cell_angle_gamma 90.000000
_cell_volume 6116.709453
_symmetry_space_group_name_H-M "P 4/N N C"
_symmetry_group_IT_number 126
_space_group.IT_coordinate_system_code '2'
_symmetry_cell_setting 'tetragonal'
loop_
_space_group_symop_operation_xyz
x,y,z
1/2-y,x,z
1/2-x,1/2-y,z
y,1/2-x,z
x,1/2-y,1/2-z
1/2-x,y,1/2-z
y,x,1/2-z
1/2-y,1/2-x,1/2-z
-x,-y,-z
1/2+y,-x,-z
1/2+x,1/2+y,-z
-y,1/2+x,-z
-x,1/2+y,1/2+z
1/2+x,-y,1/2+z
-y,-x,1/2+z
1/2+y,1/2+x,1/2+z
loop_
_atom_site_type_symbol
_atom_site_label
_atom_site_fract_x
_atom_site_fract_y
_atom_site_fract_z
Si Si1 0.008739 0.674350 0.121854
Si Si2 0.634664 0.549171 0.421024
Si Si3 0.632882 0.646709 0.509712
Si Si4 0.821436 0.158605 0.556446
Si Si5 0.863122 0.432354 0.533164
Si Si6 0.235474 0.089158 0.799359
O O1 0.949131 0.578248 0.111273
O O2 0.949792 0.762301 0.100564
O O3 0.000149 0.706680 0.170798
O O4 0.110342 0.665384 0.097507
O O5 0.626078 0.622098 0.460150
O O6 0.624788 0.443526 0.441262
O O7 0.741238 0.620489 0.519878
O O8 0.541071 0.598164 0.530637
O O9 0.750000 0.250000 0.552786
O O10 0.741281 0.075334 0.554837
O O11 0.888446 0.149525 0.514387
O O12 0.332955 0.150282 0.807547
O O13 0.250000 0.063024 0.750000
#
# Coordination Sequence:
#
# PCOD9563600 Si02
#       6
#    16  16  16  16  16  16
#     4  12  22  33  52  77  97 128 163 211 247 302
#     4  12  22  32  49  71  99 130 171 212 251 293
#     4  11  22  33  46  67  96 128 170 219 263 293
#     4  12  21  35  48  64  96 136 179 210 238 285
#     4  12  22  36  47  66  95 142 178 214 249 292
#     4   9  18  33  53  77 106 131 150 189 255 321
#
# _framework density 15.694713999999999
#
# number of rings (size 3 to 8) (size 9 to 14) (size 15 to 20)
#    0.000    0.667    8.333    2.000    2.333    0.333 
#    0.000    0.000    0.000    0.500    0.000    0.000 
#    0.000    0.000    0.000    0.000    0.000    0.000 
#
# Total GULP energy -534717.362084 kJ/mol
# GULP energy per Si atom -5569.972522 kJ/mol
# Density = 1.565899 g / cm^3
# Si number density = 15.694714 Si / 1000 Ang^3
#
#
#
# Elastic Constant Matrix: (Units=GPa)
#
#
# Indices 1 2 3 4 5 6 
#
# 1 47.0492 26.2331 26.4740 0.0000 0.0000 0.0000
# 2 26.2331 47.0492 26.4740 0.0000 0.0000 0.0000
# 3 26.4740 26.4740 79.5191 0.0000 0.0000 0.0000
# 4 0.0000 0.0000 0.0000 14.7871 0.0000 0.0000
# 5 0.0000 0.0000 0.0000 0.0000 14.7871 0.0000
# 6 0.0000 0.0000 0.0000 0.0000 0.0000 13.4365
#
#
#
# Elastic Compliance Matrix: (Units=1/GPa)
#
#
# Indices 1 2 3 4 5 6 
#
# 1 0.033004 -0.015036 -0.005982 0.000000 0.000000 0.000000
# 2 -0.015036 0.033004 -0.005982 0.000000 0.000000 0.000000
# 3 -0.005982 -0.005982 0.016559 0.000000 0.000000 0.000000
# 4 0.000000 0.000000 0.000000 0.067627 0.000000 0.000000
# 5 0.000000 0.000000 0.000000 0.000000 0.067627 0.000000
# 6 0.000000 0.000000 0.000000 0.000000 0.000000 0.074424
#
#
# Mechanical properties :
#
#
# Convention : Reuss Voigt Hill
#
# Bulk Modulus (GPa) = 35.00586 36.88665 35.94626
# Shear Modulus (GPa) = 14.05420 14.89790 14.47605
#
# Velocity S-wave (km/s) = 2.99569 3.08430 3.04032
# Velocity P-wave (km/s) = 5.85818 6.01976 5.93952
#
# Compressibility (1/GPa) = 0.02856664
#
# Stress axis : x y z
#
# Youngs Moduli (GPa) = 30.29946 30.29946 60.39104
#
# Poissons Ratio (x) = 0.45558 0.36126
# Poissons Ratio (y) = 0.45558 0.36126
# Poissons Ratio (z) = 0.18125 0.18125
#
# Static dielectric constant tensor:
#      x y z
#    x 1.573900 0.000000 0.000000 
#    y 0.000000 1.573900 0.000000 
#    z 0.000000 0.000000 1.528050 
# 
# From -- ./inp_files/6610.got.cif
#   From: 2010.05.17/outbox.cif.g08.bks.cpg/sg126_4_cif.got.tgz:6610.got - 2010.05.20 11:58:20.
