data_PCOD9563597
_publ_section_title
;
Structure prediction by ZEFSAII (Michael W. Deem and Ramdas Pophale) SiO2 
 PCOD9563597
Probable space group: P 4/N N C
;
_chemical_formula_sum "Si O2"
_cell_formula_units_Z 120
_cell_length_a 14.818903
_cell_length_b 14.818903
_cell_length_c 30.281776
_cell_angle_alpha 90.000000
_cell_angle_beta 90.000000
_cell_angle_gamma 90.000000
_cell_volume 6649.874561
_symmetry_space_group_name_H-M "P 4/N N C"
_symmetry_group_IT_number 126
_space_group.IT_coordinate_system_code '2'
_symmetry_cell_setting 'tetragonal'
loop_
_space_group_symop_operation_xyz
x,y,z
1/2-y,x,z
1/2-x,1/2-y,z
y,1/2-x,z
x,1/2-y,1/2-z
1/2-x,y,1/2-z
y,x,1/2-z
1/2-y,1/2-x,1/2-z
-x,-y,-z
1/2+y,-x,-z
1/2+x,1/2+y,-z
-y,1/2+x,-z
-x,1/2+y,1/2+z
1/2+x,-y,1/2+z
-y,-x,1/2+z
1/2+y,1/2+x,1/2+z
loop_
_atom_site_type_symbol
_atom_site_label
_atom_site_fract_x
_atom_site_fract_y
_atom_site_fract_z
Si Si1 0.274006 0.893887 0.009634
Si Si2 0.402707 0.250000 0.250000
Si Si3 0.485278 0.699585 0.079985
Si Si4 0.573987 0.912630 0.602955
Si Si5 0.739280 0.993516 0.655782
Si Si6 0.649290 0.286592 0.397628
Si Si7 0.402080 0.034318 0.576005
Si Si8 0.656741 0.869289 0.508799
O O1 0.247364 0.910974 0.060257
O O2 0.348911 0.815711 0.010833
O O3 0.306557 0.963253 0.972865
O O4 0.336768 0.336768 0.250000
O O5 0.461866 0.253023 0.294178
O O6 0.393757 0.660758 0.100679
O O7 0.566307 0.633141 0.092477
O O8 0.502607 0.803646 0.091754
O O9 0.642789 0.966064 0.634766
O O10 0.552362 0.819827 0.628126
O O11 0.627434 0.893377 0.557962
O O12 0.482115 0.965679 0.589008
O O13 0.746708 0.099915 0.645980
O O14 0.750000 0.250000 0.403739
O O15 0.386779 0.056727 0.523997
O O16 0.630638 0.764554 0.501826
#
# Coordination Sequence:
#
# PCOD9563597 Si02
#       8
#    16   8  16  16  16  16  16  16
#     4   9  17  32  52  77 113 161 215 257 300 351
#     4  11  24  46  71  98 130 158 187 240 328 413
#     4  11  23  37  55  81 118 170 221 266 307 357
#     4  12  25  39  61  91 123 160 214 264 311 374
#     4  12  25  42  68  97 122 160 205 260 319 394
#     4  11  21  40  59  86 123 162 212 265 310 364
#     4  12  25  40  55  81 123 173 223 265 309 357
#     4  11  23  38  55  78 121 173 219 265 309 355
#
# _framework density 18.045452000000001
#
# number of rings (size 3 to 8) (size 9 to 14) (size 15 to 20)
#    0.000    0.867    8.000    1.200    3.733    1.600 
#    0.000    0.333    0.000    0.000    0.000    0.000 
#    0.000    0.000    0.000    0.000    0.267    0.000 
#
# Total GULP energy -669975.854436 kJ/mol
# GULP energy per Si atom -5583.132120 kJ/mol
# Density = 1.800438 g / cm^3
# Si number density = 18.045452 Si / 1000 Ang^3
#
#
#
# Elastic Constant Matrix: (Units=GPa)
#
#
# Indices 1 2 3 4 5 6 
#
# 1 64.6714 48.8538 40.0066 0.0000 0.0000 0.0000
# 2 48.8538 64.6714 40.0066 0.0000 0.0000 0.0000
# 3 40.0066 40.0066 103.3397 0.0000 0.0000 0.0000
# 4 0.0000 0.0000 0.0000 20.7533 0.0000 0.0000
# 5 0.0000 0.0000 0.0000 0.0000 20.7533 0.0000
# 6 0.0000 0.0000 0.0000 0.0000 0.0000 28.5350
#
#
#
# Elastic Compliance Matrix: (Units=1/GPa)
#
#
# Indices 1 2 3 4 5 6 
#
# 1 0.037667 -0.025553 -0.004690 0.000000 0.000000 0.000000
# 2 -0.025553 0.037667 -0.004690 0.000000 0.000000 0.000000
# 3 -0.004690 -0.004690 0.013308 0.000000 0.000000 0.000000
# 4 0.000000 0.000000 0.000000 0.048185 0.000000 0.000000
# 5 0.000000 0.000000 0.000000 0.000000 0.048185 0.000000
# 6 0.000000 0.000000 0.000000 0.000000 0.000000 0.035045
#
#
# Mechanical properties :
#
#
# Convention : Reuss Voigt Hill
#
# Bulk Modulus (GPa) = 53.25697 54.49072 53.87384
# Shear Modulus (GPa) = 16.88148 20.92935 18.90542
#
# Velocity S-wave (km/s) = 3.06191 3.40930 3.24026
# Velocity P-wave (km/s) = 6.48669 6.76459 6.62710
#
# Compressibility (1/GPa) = 0.01877689
#
# Stress axis : x y z
#
# Youngs Moduli (GPa) = 26.54816 26.54816 75.14286
#
# Poissons Ratio (x) = 0.67840 0.35240
# Poissons Ratio (y) = 0.67840 0.35240
# Poissons Ratio (z) = 0.12450 0.12450
#
# Static dielectric constant tensor:
#      x y z
#    x 1.680240 0.000000 0.000000 
#    y 0.000000 1.680240 0.000000 
#    z 0.000000 0.000000 1.589750 
# 
# From -- ./inp_files/6658.got.cif
#   From: 2010.05.17/outbox.cif.g08.bks.cpg/sg126_4_cif.got.tgz:6658.got - 2010.05.20 11:58:20.
