data_PCOD9563589
_publ_section_title
;
Structure prediction by ZEFSAII (Michael W. Deem and Ramdas Pophale) SiO2 
 PCOD9563589
Probable space group: P 4/N N C
;
_chemical_formula_sum "Si O2"
_cell_formula_units_Z 80
_cell_length_a 16.933655
_cell_length_b 16.933655
_cell_length_c 13.152183
_cell_angle_alpha 90.000000
_cell_angle_beta 90.000000
_cell_angle_gamma 90.000000
_cell_volume 3771.371005
_symmetry_space_group_name_H-M "P 4/N N C"
_symmetry_group_IT_number 126
_space_group.IT_coordinate_system_code '2'
_symmetry_cell_setting 'tetragonal'
loop_
_space_group_symop_operation_xyz
x,y,z
1/2-y,x,z
1/2-x,1/2-y,z
y,1/2-x,z
x,1/2-y,1/2-z
1/2-x,y,1/2-z
y,x,1/2-z
1/2-y,1/2-x,1/2-z
-x,-y,-z
1/2+y,-x,-z
1/2+x,1/2+y,-z
-y,1/2+x,-z
-x,1/2+y,1/2+z
1/2+x,-y,1/2+z
-y,-x,1/2+z
1/2+y,1/2+x,1/2+z
loop_
_atom_site_type_symbol
_atom_site_label
_atom_site_fract_x
_atom_site_fract_y
_atom_site_fract_z
Si Si1 0.303120 0.640777 0.510062
Si Si2 0.679508 0.477010 0.666623
Si Si3 0.163206 0.897128 0.717079
Si Si4 0.322686 0.419370 0.681376
Si Si5 0.133918 0.186778 0.054084
O O1 0.216179 0.663704 0.548495
O O2 0.298593 0.564581 0.440559
O O3 0.357880 0.638999 0.608208
O O4 0.750000 0.480556 0.750000
O O5 0.617585 0.412379 0.711778
O O6 0.656646 0.565321 0.630270
O O7 0.250000 0.865558 0.750000
O O8 0.180626 0.986930 0.685950
O O9 0.250000 0.387117 0.750000
O O10 0.396820 0.396820 0.750000
O O11 0.324031 0.388892 0.565710
O O12 0.218924 0.145918 0.070787
#
# Coordination Sequence:
#
# PCOD9563589 Si02
#       5
#    16  16  16  16  16
#     4  11  21  36  65  98 138 181 235 288 348 427
#     4  12  25  43  68 102 140 191 243 288 357 443
#     4  11  23  40  64 101 150 185 225 291 368 438
#     4  11  22  40  72 110 140 175 235 311 375 426
#     4  11  25  47  75 103 138 189 250 309 361 429
#
# _framework density 21.212446
#
# number of rings (size 3 to 8) (size 9 to 14) (size 15 to 20)
#    0.000    0.800    8.000    0.000    0.000    1.400 
#    3.600    2.000    0.000    0.000    0.000    0.000 
#    0.000    0.000    0.000    0.000    0.000    0.000 
#
# Total GULP energy -445427.101349 kJ/mol
# GULP energy per Si atom -5567.838767 kJ/mol
# Density = 2.116417 g / cm^3
# Si number density = 21.212446 Si / 1000 Ang^3
#
#
#
# Elastic Constant Matrix: (Units=GPa)
#
#
# Indices 1 2 3 4 5 6 
#
# 1 53.1462 5.4175 26.8248 0.0000 0.0000 0.0000
# 2 5.4175 53.1462 26.8248 0.0000 0.0000 0.0000
# 3 26.8248 26.8248 105.5173 0.0000 0.0000 0.0000
# 4 0.0000 0.0000 0.0000 23.7759 0.0000 0.0000
# 5 0.0000 0.0000 0.0000 0.0000 23.7759 0.0000
# 6 0.0000 0.0000 0.0000 0.0000 0.0000 20.6127
#
#
#
# Elastic Compliance Matrix: (Units=1/GPa)
#
#
# Indices 1 2 3 4 5 6 
#
# 1 0.021606 0.000654 -0.005659 0.000000 0.000000 0.000000
# 2 0.000654 0.021606 -0.005659 0.000000 0.000000 0.000000
# 3 -0.005659 -0.005659 0.012354 0.000000 0.000000 0.000000
# 4 0.000000 0.000000 0.000000 0.042059 0.000000 0.000000
# 5 0.000000 0.000000 0.000000 0.000000 0.042059 0.000000
# 6 0.000000 0.000000 0.000000 0.000000 0.000000 0.048514
#
#
# Mechanical properties :
#
#
# Convention : Reuss Voigt Hill
#
# Bulk Modulus (GPa) = 29.20746 36.66043 32.93394
# Shear Modulus (GPa) = 22.63075 23.81574 23.22324
#
# Velocity S-wave (km/s) = 3.26983 3.35434 3.31236
# Velocity P-wave (km/s) = 5.29666 5.68526 5.49440
#
# Compressibility (1/GPa) = 0.03423783
#
# Stress axis : x y z
#
# Youngs Moduli (GPa) = 46.28430 46.28430 80.94332
#
# Poissons Ratio (x) = -0.03026 0.45805
# Poissons Ratio (y) = -0.03026 0.45805
# Poissons Ratio (z) = 0.26192 0.26192
#
# Static dielectric constant tensor:
#      x y z
#    x 1.901780 0.000000 0.000000 
#    y 0.000000 1.901780 0.000000 
#    z 0.000000 0.000000 1.812860 
# 
# From -- ./inp_files/3622.got.cif
#   From: 2010.05.17/outbox.cif.g08.bks.cpg/sg126_2_cif.got.tgz:3622.got - 2010.05.20 11:58:20.
