data_PCOD9563507
_publ_section_title
;
Structure prediction by ZEFSAII (Michael W. Deem and Ramdas Pophale) SiO2 
 PCOD9563507
Probable space group: P 4/N N C
;
_chemical_formula_sum "Si O2"
_cell_formula_units_Z 112
_cell_length_a 15.659321
_cell_length_b 15.659321
_cell_length_c 23.342006
_cell_angle_alpha 90.000000
_cell_angle_beta 90.000000
_cell_angle_gamma 90.000000
_cell_volume 5723.794460
_symmetry_space_group_name_H-M "P 4/N N C"
_symmetry_group_IT_number 126
_space_group.IT_coordinate_system_code '2'
_symmetry_cell_setting 'tetragonal'
loop_
_space_group_symop_operation_xyz
x,y,z
1/2-y,x,z
1/2-x,1/2-y,z
y,1/2-x,z
x,1/2-y,1/2-z
1/2-x,y,1/2-z
y,x,1/2-z
1/2-y,1/2-x,1/2-z
-x,-y,-z
1/2+y,-x,-z
1/2+x,1/2+y,-z
-y,1/2+x,-z
-x,1/2+y,1/2+z
1/2+x,-y,1/2+z
-y,-x,1/2+z
1/2+y,1/2+x,1/2+z
loop_
_atom_site_type_symbol
_atom_site_label
_atom_site_fract_x
_atom_site_fract_y
_atom_site_fract_z
Si Si1 0.790070 0.881839 0.936364
Si Si2 0.349154 0.481406 0.736980
Si Si3 0.675705 0.065507 0.535451
Si Si4 0.933176 0.094754 0.165604
Si Si5 0.462907 0.231048 0.186475
Si Si6 0.673641 0.180391 0.422580
Si Si7 0.448534 0.562992 0.640544
O O1 0.694954 0.852859 0.950313
O O2 0.784885 0.900796 0.867739
O O3 0.820187 0.964572 0.970520
O O4 0.250000 0.486419 0.750000
O O5 0.388592 0.388592 0.750000
O O6 0.401884 0.544277 0.778853
O O7 0.375139 0.512445 0.673796
O O8 0.680276 0.122269 0.478956
O O9 0.761246 0.090518 0.569216
O O10 0.598241 0.082485 0.579265
O O11 0.848589 0.119550 0.129935
O O12 0.982093 0.182737 0.178270
O O13 0.000078 0.030305 0.134908
O O14 0.424875 0.250000 0.250000
O O15 0.521503 0.145601 0.178701
O O16 0.750000 0.250000 0.416828
#
# Coordination Sequence:
#
# PCOD9563507 Si02
#       7
#    16  16  16  16  16  16  16
#     4  10  22  39  59  85 120 163 211 253 296 356
#     4  10  23  41  64  92 121 160 208 257 307 367
#     4  11  22  39  61  85 122 157 204 247 313 359
#     4  11  23  39  61  90 126 160 207 249 306 371
#     4  11  19  32  57  89 127 165 193 240 290 359
#     4  12  24  41  60  89 123 160 197 262 306 370
#     4  10  22  39  59  91 124 162 203 252 301 371
#
# _framework density 19.567437999999999
#
# number of rings (size 3 to 8) (size 9 to 14) (size 15 to 20)
#    0.000    1.286    5.714    1.714    2.000    2.429 
#    0.000    1.429    0.000    0.000    0.000    0.000 
#    0.000    0.000    0.000    0.000    0.000    0.000 
#
# Total GULP energy -624461.837725 kJ/mol
# GULP energy per Si atom -5575.552123 kJ/mol
# Density = 1.952290 g / cm^3
# Si number density = 19.567438 Si / 1000 Ang^3
#
#
#
# Elastic Constant Matrix: (Units=GPa)
#
#
# Indices 1 2 3 4 5 6 
#
# 1 6.9112 87.3331 25.3733 0.0000 0.0000 0.0000
# 2 87.3331 6.9112 25.3733 0.0000 0.0000 0.0000
# 3 25.3733 25.3733 54.6056 0.0000 0.0000 0.0000
# 4 0.0000 0.0000 0.0000 22.4618 0.0000 0.0000
# 5 0.0000 0.0000 0.0000 0.0000 22.4618 0.0000
# 6 0.0000 0.0000 0.0000 0.0000 0.0000 53.6116
#
#
#
# Elastic Compliance Matrix: (Units=1/GPa)
#
#
# Indices 1 2 3 4 5 6 
#
# 1 0.000859 0.013293 -0.006576 0.000000 0.000000 0.000000
# 2 0.013293 0.000859 -0.006576 0.000000 0.000000 0.000000
# 3 -0.006576 -0.006576 0.024424 0.000000 0.000000 0.000000
# 4 0.000000 0.000000 0.000000 0.044520 0.000000 0.000000
# 5 0.000000 0.000000 0.000000 0.000000 0.044520 0.000000
# 6 0.000000 0.000000 0.000000 0.000000 0.000000 0.018653
#
#
# Mechanical properties :
#
#
# Convention : Reuss Voigt Hill
#
# Bulk Modulus (GPa) = 37.84398 38.28750 38.06574
# Shear Modulus (GPa) = 35.12250 15.06358 25.09304
#
# Velocity S-wave (km/s) = 4.24128 2.77759 3.58493
# Velocity P-wave (km/s) = 6.58535 5.46773 6.05239
#
# Compressibility (1/GPa) = 0.02642428
#
# Stress axis : x y z
#
# Youngs Moduli (GPa) = 1164.79814 1164.79814 40.94313
#
# Poissons Ratio (x) = -15.48358 0.26923
# Poissons Ratio (y) = -15.48358 0.26923
# Poissons Ratio (z) = 7.65934 7.65934
#
# Static dielectric constant tensor:
#      x y z
#    x 1.697680 0.000000 0.000000 
#    y 0.000000 1.697680 0.000000 
#    z 0.000000 0.000000 1.749640 
# 
# From -- ./inp_files/5832.got.cif
#   From: 2010.05.17/outbox.cif.g08.bks.cpg/sg126_3_cif.got.tgz:5832.got - 2010.05.20 11:58:20.
