data_PCOD9563574
_publ_section_title
;
Structure prediction by ZEFSAII (Michael W. Deem and Ramdas Pophale) SiO2 
 PCOD9563574
Probable space group: P 4/N N C
;
_chemical_formula_sum "Si O2"
_cell_formula_units_Z 64
_cell_length_a 9.863526
_cell_length_b 9.863526
_cell_length_c 26.372307
_cell_angle_alpha 90.000000
_cell_angle_beta 90.000000
_cell_angle_gamma 90.000000
_cell_volume 2565.739204
_symmetry_space_group_name_H-M "P 4/N N C"
_symmetry_group_IT_number 126
_space_group.IT_coordinate_system_code '2'
_symmetry_cell_setting 'tetragonal'
loop_
_space_group_symop_operation_xyz
x,y,z
1/2-y,x,z
1/2-x,1/2-y,z
y,1/2-x,z
x,1/2-y,1/2-z
1/2-x,y,1/2-z
y,x,1/2-z
1/2-y,1/2-x,1/2-z
-x,-y,-z
1/2+y,-x,-z
1/2+x,1/2+y,-z
-y,1/2+x,-z
-x,1/2+y,1/2+z
1/2+x,-y,1/2+z
-y,-x,1/2+z
1/2+y,1/2+x,1/2+z
loop_
_atom_site_type_symbol
_atom_site_label
_atom_site_fract_x
_atom_site_fract_y
_atom_site_fract_z
Si Si1 0.627365 0.970883 0.791421
Si Si2 0.477584 0.274752 0.030867
Si Si3 0.024338 0.215966 0.919108
Si Si4 0.071250 0.694981 0.862406
O O1 0.750000 0.932703 0.750000
O O2 0.693498 0.095752 0.819842
O O3 0.509911 0.990090 0.750000
O O4 0.566217 0.876700 0.837632
O O5 0.365837 0.393585 0.031681
O O6 0.552817 0.271574 0.084045
O O7 0.543117 0.288809 0.975352
O O8 0.141820 0.101607 0.916527
O O9 0.920731 0.175839 0.875921
#
# Coordination Sequence:
#
# PCOD9563574 Si02
#       4
#    16  16  16  16
#     4   9  20  33  58  99 124 143 198 269 337 393
#     4   9  17  30  52  84 117 159 211 246 295 376
#     4   9  21  39  57  82 123 177 227 255 287 391
#     4  11  18  34  62  88 126 166 199 267 333 369
#
# _framework density 24.944078999999999
#
# number of rings (size 3 to 8) (size 9 to 14) (size 15 to 20)
#    0.000    2.500    2.500    1.500    0.000   15.750 
#    0.000    1.250    0.000   18.000    0.000   15.750 
#    0.000    0.000    0.000    0.000    0.000    0.000 
#
# Total GULP energy -356402.869111 kJ/mol
# GULP energy per Si atom -5568.794830 kJ/mol
# Density = 2.488731 g / cm^3
# Si number density = 24.944079 Si / 1000 Ang^3
#
#
#
# Elastic Constant Matrix: (Units=GPa)
#
#
# Indices 1 2 3 4 5 6 
#
# 1 69.1297 58.2307 75.5609 0.0000 0.0000 0.0000
# 2 58.2307 69.1292 75.5609 0.0000 0.0000 0.0000
# 3 75.5609 75.5609 198.5084 0.0000 0.0000 0.0000
# 4 0.0000 0.0000 0.0000 37.0031 0.0000 0.0000
# 5 0.0000 0.0000 0.0000 0.0000 37.0032 0.0000
# 6 0.0000 0.0000 0.0000 0.0000 0.0000 32.5960
#
#
#
# Elastic Compliance Matrix: (Units=1/GPa)
#
#
# Indices 1 2 3 4 5 6 
#
# 1 0.053036 -0.038717 -0.005450 0.000000 0.000000 0.000000
# 2 -0.038717 0.053037 -0.005451 0.000000 0.000000 0.000000
# 3 -0.005450 -0.005451 0.009187 0.000000 0.000000 0.000000
# 4 0.000000 0.000000 0.000000 0.027025 0.000000 0.000000
# 5 0.000000 0.000000 0.000000 0.000000 0.027025 0.000000
# 6 0.000000 0.000000 0.000000 0.000000 0.000000 0.030679
#
#
# Mechanical properties :
#
#
# Convention : Reuss Voigt Hill
#
# Bulk Modulus (GPa) = 62.40921 83.94137 73.17529
# Shear Modulus (GPa) = 16.41687 29.81479 23.11583
#
# Velocity S-wave (km/s) = 2.56822 3.46101 3.04749
# Velocity P-wave (km/s) = 5.81965 7.04956 6.46393
#
# Compressibility (1/GPa) = 0.01602328
#
# Stress axis : x y z
#
# Youngs Moduli (GPa) = 18.85514 18.85492 108.85010
#
# Poissons Ratio (x) = 0.73001 0.59327
# Poissons Ratio (y) = 0.73002 0.59330
# Poissons Ratio (z) = 0.10277 0.10277
#
# Static dielectric constant tensor:
#      x y z
#    x 2.167110 0.000000 0.000000 
#    y 0.000000 2.167110 0.000000 
#    z 0.000000 0.000000 2.055400 
# 
# From -- ./inp_files/4913.got.cif
#   From: 2010.05.17/outbox.cif.g08.bks.cpg/sg126_3_cif.got.tgz:4913.got - 2010.05.20 11:58:20.
