data_PCOD9563430
_publ_section_title
;
Structure prediction by ZEFSAII (Michael W. Deem and Ramdas Pophale) SiO2 
 PCOD9563430
Probable space group: P 4/N N C
;
_chemical_formula_sum "Si O2"
_cell_formula_units_Z 96
_cell_length_a 23.486556
_cell_length_b 23.486556
_cell_length_c 8.015289
_cell_angle_alpha 90.000000
_cell_angle_beta 90.000000
_cell_angle_gamma 90.000000
_cell_volume 4421.380194
_symmetry_space_group_name_H-M "P 4/N N C"
_symmetry_group_IT_number 126
_space_group.IT_coordinate_system_code '2'
_symmetry_cell_setting 'tetragonal'
loop_
_space_group_symop_operation_xyz
x,y,z
1/2-y,x,z
1/2-x,1/2-y,z
y,1/2-x,z
x,1/2-y,1/2-z
1/2-x,y,1/2-z
y,x,1/2-z
1/2-y,1/2-x,1/2-z
-x,-y,-z
1/2+y,-x,-z
1/2+x,1/2+y,-z
-y,1/2+x,-z
-x,1/2+y,1/2+z
1/2+x,-y,1/2+z
-y,-x,1/2+z
1/2+y,1/2+x,1/2+z
loop_
_atom_site_type_symbol
_atom_site_label
_atom_site_fract_x
_atom_site_fract_y
_atom_site_fract_z
Si Si1 0.923402 0.357877 0.408179
Si Si2 0.784004 0.558881 0.416254
Si Si3 0.063574 0.436427 0.250000
Si Si4 0.045801 0.165067 0.017226
Si Si5 0.026827 0.620309 0.947802
Si Si6 0.273628 0.833026 0.937556
Si Si7 0.637766 0.862235 0.250000
O O1 0.899310 0.421452 0.434995
O O2 0.942049 0.352911 0.215305
O O3 0.881722 0.310112 0.476694
O O4 0.980299 0.348288 0.514979
O O5 0.750000 0.538326 0.250000
O O6 0.731426 0.558616 0.543790
O O7 0.833973 0.516197 0.470097
O O8 0.808889 0.621811 0.370340
O O9 0.060295 0.374321 0.328392
O O10 0.066973 0.488256 0.381521
O O11 0.084040 0.141115 0.869323
O O12 0.250000 0.844156 0.750000
O O13 0.315082 0.778462 0.943405
#
# Coordination Sequence:
#
# PCOD9563430 Si02
#       7
#    16  16   8  16  16  16   8
#     4  11  27  41  69 105 142 190 239 302 350 432
#     4  10  23  43  75 103 136 186 236 296 354 431
#     4  10  22  43  66 106 145 189 225 289 362 440
#     4  10  23  42  69 103 138 185 229 289 359 424
#     4  11  25  45  67 105 142 187 235 293 361 428
#     4  11  24  45  68  93 135 191 245 303 354 403
#     4  10  20  43  72 101 138 175 235 286 360 425
#
# _framework density 21.712676999999999
#
# number of rings (size 3 to 8) (size 9 to 14) (size 15 to 20)
#    0.000    1.500    1.667    2.000    7.000    8.000 
#    0.000    0.833    0.000   20.250    0.000    4.667 
#    0.000    0.000    0.000    0.000    0.000    0.000 
#
# Total GULP energy -535541.080071 kJ/mol
# GULP energy per Si atom -5578.552917 kJ/mol
# Density = 2.166326 g / cm^3
# Si number density = 21.712677 Si / 1000 Ang^3
#
#
#
# Elastic Constant Matrix: (Units=GPa)
#
#
# Indices 1 2 3 4 5 6 
#
# 1 123.0691 61.5398 26.4013 0.0000 0.0000 0.0000
# 2 61.5398 123.0678 26.4018 0.0000 0.0000 0.0000
# 3 26.4013 26.4018 66.9942 0.0000 0.0000 0.0000
# 4 0.0000 0.0000 0.0000 33.1364 0.0000 0.0000
# 5 0.0000 0.0000 0.0000 0.0000 33.1362 0.0000
# 6 0.0000 0.0000 0.0000 0.0000 0.0000 29.6111
#
#
#
# Elastic Compliance Matrix: (Units=1/GPa)
#
#
# Indices 1 2 3 4 5 6 
#
# 1 0.011179 -0.005074 -0.002406 0.000000 0.000000 0.000000
# 2 -0.005074 0.011179 -0.002406 0.000000 0.000000 0.000000
# 3 -0.002406 -0.002406 0.016823 0.000000 0.000000 0.000000
# 4 0.000000 0.000000 0.000000 0.030178 0.000000 0.000000
# 5 0.000000 0.000000 0.000000 0.000000 0.030178 0.000000
# 6 0.000000 0.000000 0.000000 0.000000 0.000000 0.033771
#
#
# Mechanical properties :
#
#
# Convention : Reuss Voigt Hill
#
# Bulk Modulus (GPa) = 51.52152 60.20186 55.86169
# Shear Modulus (GPa) = 31.33826 32.42930 31.88378
#
# Velocity S-wave (km/s) = 3.80322 3.86886 3.83618
# Velocity P-wave (km/s) = 6.56249 6.90972 6.73834
#
# Compressibility (1/GPa) = 0.01940936
#
# Stress axis : x y z
#
# Youngs Moduli (GPa) = 89.45559 89.45426 59.44261
#
# Poissons Ratio (x) = 0.45387 0.14301
# Poissons Ratio (y) = 0.45388 0.14302
# Poissons Ratio (z) = 0.21521 0.21523
#
# Static dielectric constant tensor:
#      x y z
#    x 1.888180 0.000000 0.000000 
#    y 0.000000 1.888180 0.000000 
#    z 0.000000 0.000000 2.015510 
# 
# From -- ./inp_files/1798.got.cif
#   From: 2010.05.17/outbox.cif.g08.bks.cpg/sg126_1_cif.got.tgz:1798.got - 2010.05.20 11:58:20.
