data_PCOD9563530
_publ_section_title
;
Structure prediction by ZEFSAII (Michael W. Deem and Ramdas Pophale) SiO2 
 PCOD9563530
Probable space group: P 4/N N C
;
_chemical_formula_sum "Si O2"
_cell_formula_units_Z 80
_cell_length_a 26.830208
_cell_length_b 26.830208
_cell_length_c 5.420835
_cell_angle_alpha 90.000000
_cell_angle_beta 90.000000
_cell_angle_gamma 90.000000
_cell_volume 3902.242616
_symmetry_space_group_name_H-M "P 4/N N C"
_symmetry_group_IT_number 126
_space_group.IT_coordinate_system_code '2'
_symmetry_cell_setting 'tetragonal'
loop_
_space_group_symop_operation_xyz
x,y,z
1/2-y,x,z
1/2-x,1/2-y,z
y,1/2-x,z
x,1/2-y,1/2-z
1/2-x,y,1/2-z
y,x,1/2-z
1/2-y,1/2-x,1/2-z
-x,-y,-z
1/2+y,-x,-z
1/2+x,1/2+y,-z
-y,1/2+x,-z
-x,1/2+y,1/2+z
1/2+x,-y,1/2+z
-y,-x,1/2+z
1/2+y,1/2+x,1/2+z
loop_
_atom_site_type_symbol
_atom_site_label
_atom_site_fract_x
_atom_site_fract_y
_atom_site_fract_z
Si Si1 0.958037 0.750000 0.250000
Si Si2 0.949443 0.841787 0.957915
Si Si3 0.951612 0.092576 0.566677
Si Si4 0.147635 0.352366 0.250000
Si Si5 0.555564 0.555564 0.250000
Si Si6 0.691205 0.808796 0.250000
Si Si7 0.467759 0.799771 0.860191
O O1 0.931064 0.702925 0.367243
O O2 0.991824 0.773345 0.465088
O O3 0.911295 0.843059 0.733937
O O4 0.004077 0.827788 0.864077
O O5 0.946333 0.894826 0.085409
O O6 0.922281 0.071093 0.330882
O O7 0.949641 0.152684 0.521706
O O8 0.006258 0.065170 0.580739
O O9 0.169403 0.329985 0.497389
O O10 0.682330 0.750000 0.250000
O O11 0.439426 0.750000 0.750000
#
# Coordination Sequence:
#
# PCOD9563530 Si02
#       7
#     8  16  16   8   8   8  16
#     4  10  22  42  66  84 123 166 229 282 334 392
#     4  11  24  41  63  94 118 169 227 278 345 399
#     4  12  26  43  67 105 143 188 231 273 336 419
#     4  12  26  39  65  88 110 145 199 291 334 420
#     4  12  23  46  64  94 144 187 223 280 340 424
#     4  11  27  46  57  72 104 147 188 253 358 443
#     4  10  23  43  68  92 131 178 227 283 328 391
#
# _framework density 20.501031000000001
#
# number of rings (size 3 to 8) (size 9 to 14) (size 15 to 20)
#    0.000    0.900    2.000    4.200    7.000    5.600 
#    0.000    0.000    0.000    0.000    0.000    0.000 
#    0.000    2.400    0.000    0.000    0.000    0.000 
#
# Total GULP energy -446429.467408 kJ/mol
# GULP energy per Si atom -5580.368343 kJ/mol
# Density = 2.045437 g / cm^3
# Si number density = 20.501031 Si / 1000 Ang^3
#
#
#
# Elastic Constant Matrix: (Units=GPa)
#
#
# Indices 1 2 3 4 5 6 
#
# 1 107.8297 25.4501 44.0521 0.0000 0.0000 0.0000
# 2 25.4501 107.8296 44.0525 0.0000 0.0000 0.0000
# 3 44.0521 44.0525 119.3355 0.0000 0.0000 0.0000
# 4 0.0000 0.0000 0.0000 41.9858 0.0000 0.0000
# 5 0.0000 0.0000 0.0000 0.0000 41.9841 0.0000
# 6 0.0000 0.0000 0.0000 0.0000 0.0000 8.9023
#
#
#
# Elastic Compliance Matrix: (Units=1/GPa)
#
#
# Indices 1 2 3 4 5 6 
#
# 1 0.011032 -0.001107 -0.003664 0.000000 0.000000 0.000000
# 2 -0.001107 0.011032 -0.003664 0.000000 0.000000 0.000000
# 3 -0.003664 -0.003664 0.011085 0.000000 0.000000 0.000000
# 4 0.000000 0.000000 0.000000 0.023818 0.000000 0.000000
# 5 0.000000 0.000000 0.000000 0.000000 0.023819 0.000000
# 6 0.000000 0.000000 0.000000 0.000000 0.000000 0.112330
#
#
# Mechanical properties :
#
#
# Convention : Reuss Voigt Hill
#
# Bulk Modulus (GPa) = 61.42689 62.45602 61.94146
# Shear Modulus (GPa) = 23.21154 33.33712 28.27433
#
# Velocity S-wave (km/s) = 3.36849 4.03689 3.71774
# Velocity P-wave (km/s) = 6.71988 7.22908 6.97913
#
# Compressibility (1/GPa) = 0.01627952
#
# Stress axis : x y z
#
# Youngs Moduli (GPa) = 90.64610 90.64570 90.21475
#
# Poissons Ratio (x) = 0.10034 0.33052
# Poissons Ratio (y) = 0.10034 0.33053
# Poissons Ratio (z) = 0.33210 0.33211
#
# Static dielectric constant tensor:
#      x y z
#    x 1.785930 0.000000 0.000000 
#    y 0.000000 1.785930 0.000000 
#    z 0.000000 0.000000 1.769880 
# 
# From -- ./inp_files/633.got.cif
#   From: 2010.05.17/outbox.cif.g08.bks.cpg/sg126_1_cif.got.tgz:633.got - 2010.05.20 11:58:20.
