data_PCOD9563348
_publ_section_title
;
Structure prediction by ZEFSAII (Michael W. Deem and Ramdas Pophale) SiO2 
 PCOD9563348
Probable space group: P 4/N N C
;
_chemical_formula_sum "Si O2"
_cell_formula_units_Z 88
_cell_length_a 10.818068
_cell_length_b 10.818068
_cell_length_c 33.529106
_cell_angle_alpha 90.000000
_cell_angle_beta 90.000000
_cell_angle_gamma 90.000000
_cell_volume 3923.931233
_symmetry_space_group_name_H-M "P 4/N N C"
_symmetry_group_IT_number 126
_space_group.IT_coordinate_system_code '2'
_symmetry_cell_setting 'tetragonal'
loop_
_space_group_symop_operation_xyz
x,y,z
1/2-y,x,z
1/2-x,1/2-y,z
y,1/2-x,z
x,1/2-y,1/2-z
1/2-x,y,1/2-z
y,x,1/2-z
1/2-y,1/2-x,1/2-z
-x,-y,-z
1/2+y,-x,-z
1/2+x,1/2+y,-z
-y,1/2+x,-z
-x,1/2+y,1/2+z
1/2+x,-y,1/2+z
-y,-x,1/2+z
1/2+y,1/2+x,1/2+z
loop_
_atom_site_type_symbol
_atom_site_label
_atom_site_fract_x
_atom_site_fract_y
_atom_site_fract_z
Si Si1 0.541987 0.750000 0.750000
Si Si2 0.344686 0.431875 0.644336
Si Si3 0.929194 0.174182 0.087638
Si Si4 0.441092 0.668854 0.064681
Si Si5 0.649388 0.574059 0.513179
Si Si6 0.213661 0.894050 0.169206
O O1 0.630958 0.630958 0.750000
O O2 0.459110 0.756822 0.789431
O O3 0.198186 0.411951 0.654665
O O4 0.358137 0.452143 0.596692
O O5 0.394479 0.564017 0.661101
O O6 0.894895 0.313175 0.075548
O O7 0.812000 0.093293 0.073683
O O8 0.950280 0.196099 0.134558
O O9 0.038582 0.132321 0.059162
O O10 0.474559 0.622020 0.020749
O O11 0.795070 0.590834 0.505295
O O12 0.250000 0.750000 0.169246
#
# Coordination Sequence:
#
# PCOD9563348 Si02
#       6
#     8  16  16  16  16  16
#     4  11  29  50  76 110 139 177 224 268 330 409
#     4  10  21  37  67 105 137 175 224 277 338 406
#     4  10  21  38  60  90 118 163 224 272 327 402
#     4  10  19  37  58  85 125 165 222 277 327 389
#     4  11  24  36  49  80 124 172 222 278 339 395
#     4  11  23  47  73 101 135 178 220 278 344 410
#
# _framework density 22.426490000000001
#
# number of rings (size 3 to 8) (size 9 to 14) (size 15 to 20)
#    0.000    1.545    3.636    2.455    2.545   10.182 
#    0.000    1.818    0.000    0.000    0.000    0.000 
#    0.000    0.000    0.000    0.000    0.000    0.000 
#
# Total GULP energy -491682.516904 kJ/mol
# GULP energy per Si atom -5587.301328 kJ/mol
# Density = 2.237545 g / cm^3
# Si number density = 22.426490 Si / 1000 Ang^3
#
#
#
# Elastic Constant Matrix: (Units=GPa)
#
#
# Indices 1 2 3 4 5 6 
#
# 1 65.4125 11.6710 27.9676 0.0000 0.0000 0.0000
# 2 11.6710 65.4125 27.9676 0.0000 0.0000 0.0000
# 3 27.9676 27.9676 160.4428 0.0000 0.0000 0.0000
# 4 0.0000 0.0000 0.0000 31.1673 0.0000 0.0000
# 5 0.0000 0.0000 0.0000 0.0000 31.1673 0.0000
# 6 0.0000 0.0000 0.0000 0.0000 0.0000 18.8479
#
#
#
# Elastic Compliance Matrix: (Units=1/GPa)
#
#
# Indices 1 2 3 4 5 6 
#
# 1 0.016730 -0.001878 -0.002589 0.000000 0.000000 0.000000
# 2 -0.001878 0.016730 -0.002589 0.000000 0.000000 0.000000
# 3 -0.002589 -0.002589 0.007135 0.000000 0.000000 0.000000
# 4 0.000000 0.000000 0.000000 0.032085 0.000000 0.000000
# 5 0.000000 0.000000 0.000000 0.000000 0.032085 0.000000
# 6 0.000000 0.000000 0.000000 0.000000 0.000000 0.053056
#
#
# Mechanical properties :
#
#
# Convention : Reuss Voigt Hill
#
# Bulk Modulus (GPa) = 37.76012 47.38671 42.57341
# Shear Modulus (GPa) = 27.66104 31.14727 29.40416
#
# Velocity S-wave (km/s) = 3.51580 3.73079 3.62489
# Velocity P-wave (km/s) = 5.77538 6.30349 6.04520
#
# Compressibility (1/GPa) = 0.02648297
#
# Stress axis : x y z
#
# Youngs Moduli (GPa) = 59.77437 59.77437 140.14825
#
# Poissons Ratio (x) = 0.11226 0.36282
# Poissons Ratio (y) = 0.11226 0.36282
# Poissons Ratio (z) = 0.15475 0.15475
#
# Static dielectric constant tensor:
#      x y z
#    x 1.870850 0.000000 0.000000 
#    y 0.000000 1.870850 0.000000 
#    z 0.000000 0.000000 1.810740 
# 
# From -- ./inp_files/6515.got.cif
#   From: 2010.05.17/outbox.cif.g08.bks.cpg/sg126_4_cif.got.tgz:6515.got - 2010.05.20 11:58:20.
