data_PCOD9563547
_publ_section_title
;
Structure prediction by ZEFSAII (Michael W. Deem and Ramdas Pophale) SiO2 
 PCOD9563547
Probable space group: P 4/N N C
;
_chemical_formula_sum "Si O2"
_cell_formula_units_Z 72
_cell_length_a 19.083869
_cell_length_b 19.083869
_cell_length_c 10.455864
_cell_angle_alpha 90.000000
_cell_angle_beta 90.000000
_cell_angle_gamma 90.000000
_cell_volume 3807.963519
_symmetry_space_group_name_H-M "P 4/N N C"
_symmetry_group_IT_number 126
_space_group.IT_coordinate_system_code '2'
_symmetry_cell_setting 'tetragonal'
loop_
_space_group_symop_operation_xyz
x,y,z
1/2-y,x,z
1/2-x,1/2-y,z
y,1/2-x,z
x,1/2-y,1/2-z
1/2-x,y,1/2-z
y,x,1/2-z
1/2-y,1/2-x,1/2-z
-x,-y,-z
1/2+y,-x,-z
1/2+x,1/2+y,-z
-y,1/2+x,-z
-x,1/2+y,1/2+z
1/2+x,-y,1/2+z
-y,-x,1/2+z
1/2+y,1/2+x,1/2+z
loop_
_atom_site_type_symbol
_atom_site_label
_atom_site_fract_x
_atom_site_fract_y
_atom_site_fract_z
Si Si1 0.662350 0.418287 0.878834
Si Si2 0.326547 0.582380 0.413523
Si Si3 0.658591 0.586631 0.873627
Si Si4 0.424066 0.300523 0.009779
Si Si5 0.369393 0.250000 0.750000
O O1 0.646388 0.402585 0.729939
O O2 0.743721 0.400372 0.907703
O O3 0.651495 0.502724 0.888351
O O4 0.618936 0.373112 0.979250
O O5 0.325072 0.500239 0.446742
O O6 0.618313 0.618313 0.750000
O O7 0.623836 0.631248 0.986599
O O8 0.741502 0.600314 0.888536
O O9 0.417767 0.262510 0.873765
O O10 0.316517 0.316517 0.750000
#
# Coordination Sequence:
#
# PCOD9563547 Si02
#       5
#    16  16  16  16   8
#     4  10  23  43  66  94 131 163 218 269 336 399
#     4  10  23  43  66  94 126 166 211 279 326 401
#     4  11  21  39  63  91 125 171 219 269 316 388
#     4  11  22  39  62  90 131 173 218 268 324 378
#     4  11  22  38  54  86 130 173 216 262 311 384
#
# _framework density 18.907743
#
# number of rings (size 3 to 8) (size 9 to 14) (size 15 to 20)
#    0.000    1.444    4.444    0.667    0.000    6.222 
#    0.000    3.333    0.000    0.000    0.000    0.000 
#    0.000    0.000    0.000    0.000    0.000    0.000 
#
# Total GULP energy -401229.323985 kJ/mol
# GULP energy per Si atom -5572.629500 kJ/mol
# Density = 1.886471 g / cm^3
# Si number density = 18.907743 Si / 1000 Ang^3
#
#
#
# Elastic Constant Matrix: (Units=GPa)
#
#
# Indices 1 2 3 4 5 6 
#
# 1 69.2257 59.5396 64.9392 0.0000 0.0000 0.0000
# 2 59.5396 69.2257 64.9392 0.0000 0.0000 0.0000
# 3 64.9392 64.9392 175.3987 0.0000 0.0000 0.0000
# 4 0.0000 0.0000 0.0000 27.1111 0.0000 0.0000
# 5 0.0000 0.0000 0.0000 0.0000 27.1111 0.0000
# 6 0.0000 0.0000 0.0000 0.0000 0.0000 36.9318
#
#
#
# Elastic Compliance Matrix: (Units=1/GPa)
#
#
# Indices 1 2 3 4 5 6 
#
# 1 0.057818 -0.045423 -0.004589 0.000000 0.000000 0.000000
# 2 -0.045423 0.057818 -0.004589 0.000000 0.000000 0.000000
# 3 -0.004589 -0.004589 0.009099 0.000000 0.000000 0.000000
# 4 0.000000 0.000000 0.000000 0.036885 0.000000 0.000000
# 5 0.000000 0.000000 0.000000 0.000000 0.036885 0.000000
# 6 0.000000 0.000000 0.000000 0.000000 0.000000 0.027077
#
#
# Mechanical properties :
#
#
# Convention : Reuss Voigt Hill
#
# Bulk Modulus (GPa) = 64.37984 76.96512 70.67248
# Shear Modulus (GPa) = 14.70756 26.52628 20.61692
#
# Velocity S-wave (km/s) = 2.79204 3.74964 3.30570
# Velocity P-wave (km/s) = 6.67213 7.71624 7.21310
#
# Compressibility (1/GPa) = 0.01553281
#
# Stress axis : x y z
#
# Youngs Moduli (GPa) = 17.29578 17.29578 109.89818
#
# Poissons Ratio (x) = 0.78562 0.50432
# Poissons Ratio (y) = 0.78562 0.50432
# Poissons Ratio (z) = 0.07937 0.07937
#
# Static dielectric constant tensor:
#      x y z
#    x 1.671930 0.000000 0.000000 
#    y 0.000000 1.671930 0.000000 
#    z 0.000000 0.000000 1.727120 
# 
# From -- ./inp_files/2672.got.cif
#   From: 2010.05.17/outbox.cif.g08.bks.cpg/sg126_2_cif.got.tgz:2672.got - 2010.05.20 11:58:20.
