data_PCOD9563172
_publ_section_title
;
Structure prediction by ZEFSAII (Michael W. Deem and Ramdas Pophale) SiO2 
 PCOD9563172
Probable space group: P 4/N B M
;
_chemical_formula_sum "Si O2"
_cell_formula_units_Z 112
_cell_length_a 15.273643
_cell_length_b 15.273643
_cell_length_c 23.886774
_cell_angle_alpha 90.000000
_cell_angle_beta 90.000000
_cell_angle_gamma 90.000000
_cell_volume 5572.406258
_symmetry_space_group_name_H-M "P 4/N B M"
_symmetry_group_IT_number 125
_space_group.IT_coordinate_system_code '2'
_symmetry_cell_setting 'tetragonal'
loop_
_space_group_symop_operation_xyz
x,y,z
1/2-y,x,z
1/2-x,1/2-y,z
y,1/2-x,z
x,1/2-y,-z
1/2-x,y,-z
y,x,-z
1/2-y,1/2-x,-z
-x,-y,-z
1/2+y,-x,-z
1/2+x,1/2+y,-z
-y,1/2+x,-z
-x,1/2+y,z
1/2+x,-y,z
-y,-x,z
1/2+y,1/2+x,z
loop_
_atom_site_type_symbol
_atom_site_label
_atom_site_fract_x
_atom_site_fract_y
_atom_site_fract_z
Si Si1 0.104019 0.238946 0.565221
Si Si2 0.922391 0.926903 0.245152
Si Si3 0.582453 0.271909 0.132648
Si Si4 0.718373 0.428606 0.256107
Si Si5 0.480441 0.839609 0.965173
Si Si6 0.841174 0.481579 0.345497
Si Si7 0.433680 0.081088 0.878189
O O1 0.172788 0.159520 0.575283
O O2 0.078737 0.250000 0.500000
O O3 0.024187 0.214737 0.605124
O O4 0.917217 0.886203 0.182569
O O5 0.946779 0.868438 0.298284
O O6 0.833051 0.979174 0.256628
O O7 0.999686 0.000314 0.242525
O O8 0.668319 0.331682 0.125295
O O9 0.580458 0.236787 0.195832
O O10 0.572282 0.198068 0.087682
O O11 0.499438 0.336895 0.123743
O O12 0.644289 0.355712 0.256653
O O13 0.779828 0.419648 0.308616
O O14 0.417468 0.917468 0.990906
O O15 0.567417 0.879195 0.935201
O O16 0.495041 0.750000 0.000000
O O17 0.927091 0.427091 0.363891
O O18 0.496476 0.996476 0.878236
#
# Coordination Sequence:
#
# PCOD9563172 Si02
#       7
#    16  16  16  16  16  16  16
#     4   9  19  38  60  78 101 138 186 235 273 302
#     4   8  15  29  49  72  98 128 164 209 254 299
#     4   9  18  33  52  71  94 129 170 209 249 301
#     4   9  18  32  49  72 103 135 167 206 255 312
#     4  11  22  33  47  69  97 126 159 207 261 308
#     4  11  20  30  50  81 112 139 169 207 261 325
#     4   8  16  32  50  68  93 128 168 204 244 299
#
# _framework density 20.099038
#
# number of rings (size 3 to 8) (size 9 to 14) (size 15 to 20)
#    0.000    2.714    0.000    4.286    0.000    3.571 
#    0.000    5.714    0.000    0.429    0.000    5.000 
#    0.000    0.000    0.000    0.000    0.000    0.000 
#
# Total GULP energy -624259.415095 kJ/mol
# GULP energy per Si atom -5573.744778 kJ/mol
# Density = 2.005329 g / cm^3
# Si number density = 20.099038 Si / 1000 Ang^3
#
#
#
# Elastic Constant Matrix: (Units=GPa)
#
#
# Indices 1 2 3 4 5 6 
#
# 1 41.5452 25.4709 35.8840 0.0000 0.0000 0.0000
# 2 25.4709 41.5452 35.8840 0.0000 0.0000 0.0000
# 3 35.8840 35.8840 110.9770 0.0000 0.0000 0.0000
# 4 0.0000 0.0000 0.0000 24.7264 0.0000 0.0000
# 5 0.0000 0.0000 0.0000 0.0000 24.7264 0.0000
# 6 0.0000 0.0000 0.0000 0.0000 0.0000 23.7882
#
#
#
# Elastic Compliance Matrix: (Units=1/GPa)
#
#
# Indices 1 2 3 4 5 6 
#
# 1 0.042519 -0.019693 -0.007381 0.000000 0.000000 0.000000
# 2 -0.019693 0.042519 -0.007381 0.000000 0.000000 0.000000
# 3 -0.007381 -0.007381 0.013784 0.000000 0.000000 0.000000
# 4 0.000000 0.000000 0.000000 0.040443 0.000000 0.000000
# 5 0.000000 0.000000 0.000000 0.000000 0.040443 0.000000
# 6 0.000000 0.000000 0.000000 0.000000 0.000000 0.042038
#
#
# Mechanical properties :
#
#
# Convention : Reuss Voigt Hill
#
# Bulk Modulus (GPa) = 33.43041 43.17169 38.30105
# Shear Modulus (GPa) = 16.63213 21.10343 18.86778
#
# Velocity S-wave (km/s) = 2.87977 3.24384 3.06721
# Velocity P-wave (km/s) = 5.26558 5.96290 5.62505
#
# Compressibility (1/GPa) = 0.02991288
#
# Stress axis : x y z
#
# Youngs Moduli (GPa) = 23.51913 23.51913 72.54860
#
# Poissons Ratio (x) = 0.46316 0.53545
# Poissons Ratio (y) = 0.46316 0.53545
# Poissons Ratio (z) = 0.17359 0.17359
#
# Static dielectric constant tensor:
#      x y z
#    x 1.756580 0.000000 0.000000 
#    y 0.000000 1.756580 0.000000 
#    z 0.000000 0.000000 1.741090 
# 
# From -- ./inp_files/6042.got.cif
#   From: 2010.05.17/outbox.cif.g08.bks.cpg/sg125_4_cif.got.tgz:6042.got - 2010.05.20 11:54:10.
