data_PCOD9563891
_publ_section_title
;
Structure prediction by ZEFSAII (Michael W. Deem and Ramdas Pophale) SiO2 
 PCOD9563891
Probable space group: P 4/M B M
;
_chemical_formula_sum "Si O2"
_cell_formula_units_Z 96
_cell_length_a 25.471480
_cell_length_b 25.471480
_cell_length_c 8.349815
_cell_angle_alpha 90.000000
_cell_angle_beta 90.000000
_cell_angle_gamma 90.000000
_cell_volume 5417.329022
_symmetry_space_group_name_H-M "P 4/M B M"
_symmetry_group_IT_number 127
_symmetry_cell_setting 'tetragonal'
loop_
_space_group_symop_operation_xyz
x,y,z
-y,x,z
-x,-y,z
y,-x,z
1/2+x,1/2-y,-z
1/2-x,1/2+y,-z
1/2+y,1/2+x,-z
1/2-y,1/2-x,-z
-x,-y,-z
y,-x,-z
x,y,-z
-y,x,-z
1/2-x,1/2+y,z
1/2+x,1/2-y,z
1/2-y,1/2-x,z
1/2+y,1/2+x,z
loop_
_atom_site_type_symbol
_atom_site_label
_atom_site_fract_x
_atom_site_fract_y
_atom_site_fract_z
Si Si1 0.015061 0.662024 0.311366
Si Si2 0.202471 0.702471 0.686922
Si Si3 0.354396 0.308179 0.193491
Si Si4 0.913817 0.800704 0.190407
Si Si5 0.719376 0.472349 0.805068
Si Si6 0.879900 0.379900 0.182303
Si Si7 0.400788 0.816877 0.306718
O O1 0.021985 0.652519 0.500000
O O2 0.954529 0.652293 0.267540
O O3 0.023878 0.723263 0.272409
O O4 0.059716 0.631675 0.217591
O O5 0.210433 0.710433 0.500000
O O6 0.179751 0.757358 0.755499
O O7 0.157940 0.657940 0.715114
O O8 0.332022 0.363685 0.255938
O O9 0.415534 0.302799 0.240352
O O10 0.352757 0.308712 0.000000
O O11 0.903060 0.739580 0.225678
O O12 0.974048 0.810629 0.244996
O O13 0.914213 0.809439 0.000000
O O14 0.724601 0.473423 0.000000
O O15 0.866811 0.366811 0.000000
O O16 0.400606 0.809619 0.500000
O O17 0.350451 0.850451 0.260315
#
# Coordination Sequence:
#
# PCOD9563891 Si02
#       7
#    16   8  16  16  16   8  16
#     4  10  19  32  51  73  96 128 172 213 252 302
#     4  12  24  34  50  77 107 134 168 208 255 310
#     4  10  20  34  52  75 107 138 168 211 258 303
#     4   9  19  33  51  76 101 134 177 211 248 304
#     4   9  17  32  52  71  98 137 173 208 253 301
#     4  12  22  34  51  73 102 133 164 206 261 309
#     4   9  19  35  52  71  99 134 170 212 259 301
#
# _framework density 17.720911000000001
#
# number of rings (size 3 to 8) (size 9 to 14) (size 15 to 20)
#    0.000    2.167    1.667    2.000    1.167    1.667 
#    0.000    0.417    0.000    3.000    0.000    3.500 
#    0.000    0.000    0.000    9.833    0.000   10.333 
#
# Total GULP energy -535086.251917 kJ/mol
# GULP energy per Si atom -5573.815124 kJ/mol
# Density = 1.768058 g / cm^3
# Si number density = 17.720911 Si / 1000 Ang^3
#
#
#
# Elastic Constant Matrix: (Units=GPa)
#
#
# Indices 1 2 3 4 5 6 
#
# 1 82.9418 54.8566 6.3409 0.0000 0.0000 0.0000
# 2 54.8566 82.9418 6.3409 0.0000 0.0000 0.0000
# 3 6.3409 6.3409 10.0807 0.0000 0.0000 0.0000
# 4 0.0000 0.0000 0.0000 9.2236 0.0000 0.0000
# 5 0.0000 0.0000 0.0000 0.0000 9.2236 0.0000
# 6 0.0000 0.0000 0.0000 0.0000 0.0000 26.0250
#
#
#
# Elastic Compliance Matrix: (Units=1/GPa)
#
#
# Indices 1 2 3 4 5 6 
#
# 1 0.021654 -0.013951 -0.004845 0.000000 0.000000 0.000000
# 2 -0.013951 0.021654 -0.004845 0.000000 0.000000 0.000000
# 3 -0.004845 -0.004845 0.105295 0.000000 0.000000 0.000000
# 4 0.000000 0.000000 0.000000 0.108418 0.000000 0.000000
# 5 0.000000 0.000000 0.000000 0.000000 0.108418 0.000000
# 6 0.000000 0.000000 0.000000 0.000000 0.000000 0.038425
#
#
# Mechanical properties :
#
#
# Convention : Reuss Voigt Hill
#
# Bulk Modulus (GPa) = 9.86971 34.56012 22.21492
# Shear Modulus (GPa) = 10.31093 16.12282 13.21688
#
# Velocity S-wave (km/s) = 2.41478 3.01959 2.73396
# Velocity P-wave (km/s) = 3.65465 5.63046 4.74650
#
# Compressibility (1/GPa) = 0.10132006
#
# Stress axis : x y z
#
# Youngs Moduli (GPa) = 46.18005 46.18005 9.49710
#
# Poissons Ratio (x) = 0.64428 0.04602
# Poissons Ratio (y) = 0.64428 0.04602
# Poissons Ratio (z) = 0.22375 0.22375
#
# Static dielectric constant tensor:
#      x y z
#    x 1.610050 0.000000 0.000000 
#    y 0.000000 1.610050 0.000000 
#    z 0.000000 0.000000 1.613150 
# 
# From -- ./inp_files/2097.got.cif
#   From: 2010.05.17/outbox.cif.g08.bks.cpg/sg127_2_cif.got.tgz:2097.got - 2010.05.20 12:03:00.
