data_PCOD9563049
_publ_section_title
;
Structure prediction by ZEFSAII (Michael W. Deem and Ramdas Pophale) SiO2 
 PCOD9563049
Probable space group: P 4/N B M
;
_chemical_formula_sum "Si O2"
_cell_formula_units_Z 96
_cell_length_a 19.652681
_cell_length_b 19.652681
_cell_length_c 11.492990
_cell_angle_alpha 90.000000
_cell_angle_beta 90.000000
_cell_angle_gamma 90.000000
_cell_volume 4438.913053
_symmetry_space_group_name_H-M "P 4/N B M"
_symmetry_group_IT_number 125
_space_group.IT_coordinate_system_code '2'
_symmetry_cell_setting 'tetragonal'
loop_
_space_group_symop_operation_xyz
x,y,z
1/2-y,x,z
1/2-x,1/2-y,z
y,1/2-x,z
x,1/2-y,-z
1/2-x,y,-z
y,x,-z
1/2-y,1/2-x,-z
-x,-y,-z
1/2+y,-x,-z
1/2+x,1/2+y,-z
-y,1/2+x,-z
-x,1/2+y,z
1/2+x,-y,z
-y,-x,z
1/2+y,1/2+x,z
loop_
_atom_site_type_symbol
_atom_site_label
_atom_site_fract_x
_atom_site_fract_y
_atom_site_fract_z
Si Si1 0.670595 0.441037 0.514428
Si Si2 0.586831 0.817927 0.575534
Si Si3 0.101778 0.006106 0.960820
Si Si4 0.442202 0.829820 0.248687
Si Si5 0.288384 0.518022 0.116724
Si Si6 0.640974 0.778622 0.827070
O O1 0.750000 0.420418 0.500000
O O2 0.621132 0.378869 0.545546
O O3 0.660433 0.508132 0.592917
O O4 0.654075 0.462385 0.380151
O O5 0.581013 0.750000 0.500000
O O6 0.626846 0.873155 0.500000
O O7 0.626833 0.796352 0.690967
O O8 0.035035 0.964966 0.924978
O O9 0.146292 0.998450 0.845133
O O10 0.135016 0.971824 0.074269
O O11 0.080561 0.080561 0.000000
O O12 0.372339 0.872339 0.225613
O O13 0.442689 0.749029 0.221216
O O14 0.283298 0.435855 0.125176
O O15 0.250000 0.541937 0.000000
O O16 0.670309 0.703388 0.855945
#
# Coordination Sequence:
#
# PCOD9563049 Si02
#       6
#    16  16  16  16  16  16
#     4  10  22  40  63  89 118 157 202 256 317 373
#     4  11  21  36  59  83 116 153 202 251 299 353
#     4   9  19  35  58  87 120 157 195 242 301 364
#     4   9  19  38  59  82 113 153 199 246 306 361
#     4  10  21  34  58  83 113 153 198 248 298 354
#     4  11  24  37  53  79 116 163 206 241 288 352
#
# _framework density 21.626916000000001
#
# number of rings (size 3 to 8) (size 9 to 14) (size 15 to 20)
#    0.000    2.000    1.667    2.000    4.667    0.667 
#    0.000    4.167    0.000    2.500    0.000    5.833 
#    0.000    0.000    0.000    0.000    0.000    0.000 
#
# Total GULP energy -534430.057833 kJ/mol
# GULP energy per Si atom -5566.979769 kJ/mol
# Density = 2.157769 g / cm^3
# Si number density = 21.626916 Si / 1000 Ang^3
#
#
#
# Elastic Constant Matrix: (Units=GPa)
#
#
# Indices 1 2 3 4 5 6 
#
# 1 82.5097 55.4325 1.5910 0.0000 0.0000 0.0000
# 2 55.4325 82.5103 1.5906 0.0000 0.0000 0.0000
# 3 1.5910 1.5906 38.0963 0.0000 0.0000 0.0000
# 4 0.0000 0.0000 0.0000 28.4068 0.0000 0.0000
# 5 0.0000 0.0000 0.0000 0.0000 28.4069 0.0000
# 6 0.0000 0.0000 0.0000 0.0000 0.0000 36.3575
#
#
#
# Elastic Compliance Matrix: (Units=1/GPa)
#
#
# Indices 1 2 3 4 5 6 
#
# 1 0.022094 -0.014837 -0.000303 0.000000 0.000000 0.000000
# 2 -0.014837 0.022094 -0.000303 0.000000 0.000000 0.000000
# 3 -0.000303 -0.000303 0.026275 0.000000 0.000000 0.000000
# 4 0.000000 0.000000 0.000000 0.035203 0.000000 0.000000
# 5 0.000000 0.000000 0.000000 0.000000 0.035203 0.000000
# 6 0.000000 0.000000 0.000000 0.000000 0.000000 0.027505
#
#
# Mechanical properties :
#
#
# Convention : Reuss Voigt Hill
#
# Bulk Modulus (GPa) = 25.26827 35.59383 30.43105
# Shear Modulus (GPa) = 23.53488 28.26771 25.90129
#
# Velocity S-wave (km/s) = 3.30240 3.61925 3.46445
# Velocity P-wave (km/s) = 5.12349 5.82745 5.48677
#
# Compressibility (1/GPa) = 0.03957532
#
# Stress axis : x y z
#
# Youngs Moduli (GPa) = 45.26160 45.26194 38.05963
#
# Poissons Ratio (x) = 0.67157 0.01154
# Poissons Ratio (y) = 0.67156 0.01152
# Poissons Ratio (z) = 0.01372 0.01371
#
# Static dielectric constant tensor:
#      x y z
#    x 1.864600 0.000000 0.000000 
#    y 0.000000 1.864600 0.000000 
#    z 0.000000 0.000000 1.852700 
# 
# From -- ./inp_files/4165.got.cif
#   From: 2010.05.17/outbox.cif.g08.bks.cpg/sg125_3_cif.got.tgz:4165.got - 2010.05.20 11:54:10.
