data_PCOD9563983
_publ_section_title
;
Structure prediction by ZEFSAII (Michael W. Deem and Ramdas Pophale) SiO2 
 PCOD9563983
Probable space group: P 4/M B M
;
_chemical_formula_sum "Si O2"
_cell_formula_units_Z 96
_cell_length_a 19.285445
_cell_length_b 19.285445
_cell_length_c 14.170594
_cell_angle_alpha 90.000000
_cell_angle_beta 90.000000
_cell_angle_gamma 90.000000
_cell_volume 5270.446195
_symmetry_space_group_name_H-M "P 4/M B M"
_symmetry_group_IT_number 127
_symmetry_cell_setting 'tetragonal'
loop_
_space_group_symop_operation_xyz
x,y,z
-y,x,z
-x,-y,z
y,-x,z
1/2+x,1/2-y,-z
1/2-x,1/2+y,-z
1/2+y,1/2+x,-z
1/2-y,1/2-x,-z
-x,-y,-z
y,-x,-z
x,y,-z
-y,x,-z
1/2-x,1/2+y,z
1/2+x,1/2-y,z
1/2-y,1/2-x,z
1/2+y,1/2+x,z
loop_
_atom_site_type_symbol
_atom_site_label
_atom_site_fract_x
_atom_site_fract_y
_atom_site_fract_z
Si Si1 0.907161 0.711184 0.893565
Si Si2 0.361182 0.253003 0.389535
Si Si3 0.004838 0.611279 0.205443
Si Si4 0.610592 0.534051 0.397906
Si Si5 0.116280 0.210736 0.708225
Si Si6 0.987778 0.691909 0.389341
O O1 0.850039 0.649962 0.895172
O O2 0.881062 0.764907 0.815295
O O3 0.978133 0.677161 0.853550
O O4 0.915307 0.737276 0.000000
O O5 0.353254 0.271456 0.500000
O O6 0.318518 0.181483 0.373878
O O7 0.323699 0.313400 0.330196
O O8 0.443465 0.240689 0.374412
O O9 0.079246 0.579246 0.181126
O O10 0.000947 0.630249 0.315813
O O11 0.948381 0.551620 0.187065
O O12 0.543390 0.582968 0.397346
O O13 0.647247 0.545131 0.500000
O O14 0.654830 0.556240 0.309778
O O15 0.084801 0.273748 0.645086
O O16 0.985770 0.674342 0.500000
#
# Coordination Sequence:
#
# PCOD9563983 Si02
#       6
#    16  16  16  16  16  16
#     4   9  19  35  52  70  92 119 157 208 260 303
#     4  10  20  32  47  70 102 138 170 200 242 300
#     4   9  18  32  51  75  99 126 163 204 249 305
#     4   9  17  29  47  73 103 131 158 190 231 281
#     4  11  19  30  50  72  93 124 167 212 248 287
#     4  10  20  32  47  71 106 142 170 200 243 296
#
# _framework density 18.214776000000001
#
# number of rings (size 3 to 8) (size 9 to 14) (size 15 to 20)
#    0.000    2.333    0.000    4.000    0.000    5.000 
#    0.000    2.500    0.000    9.000    0.000    1.167 
#    0.000    0.000    0.000    0.000    0.000    0.000 
#
# Total GULP energy -534966.555461 kJ/mol
# GULP energy per Si atom -5572.568286 kJ/mol
# Density = 1.817332 g / cm^3
# Si number density = 18.214776 Si / 1000 Ang^3
#
#
#
# Elastic Constant Matrix: (Units=GPa)
#
#
# Indices 1 2 3 4 5 6 
#
# 1 32.7022 -5.5654 18.3506 0.0000 0.0000 0.0000
# 2 -5.5654 32.7022 18.3506 0.0000 0.0000 0.0000
# 3 18.3506 18.3506 114.8272 0.0000 0.0000 0.0000
# 4 0.0000 0.0000 0.0000 17.5779 0.0000 0.0000
# 5 0.0000 0.0000 0.0000 0.0000 17.5779 0.0000
# 6 0.0000 0.0000 0.0000 0.0000 0.0000 13.2511
#
#
#
# Elastic Compliance Matrix: (Units=1/GPa)
#
#
# Indices 1 2 3 4 5 6 
#
# 1 0.036571 0.010440 -0.007513 0.000000 0.000000 0.000000
# 2 0.010440 0.036571 -0.007513 0.000000 0.000000 0.000000
# 3 -0.007513 -0.007513 0.011110 0.000000 0.000000 0.000000
# 4 0.000000 0.000000 0.000000 0.056890 0.000000 0.000000
# 5 0.000000 0.000000 0.000000 0.000000 0.056890 0.000000
# 6 0.000000 0.000000 0.000000 0.000000 0.000000 0.075466
#
#
# Mechanical properties :
#
#
# Convention : Reuss Voigt Hill
#
# Bulk Modulus (GPa) = 13.31899 26.94479 20.13189
# Shear Modulus (GPa) = 16.24977 19.62110 17.93543
#
# Velocity S-wave (km/s) = 2.99008 3.28564 3.14134
# Velocity P-wave (km/s) = 4.38735 5.40545 4.92279
#
# Compressibility (1/GPa) = 0.07508077
#
# Stress axis : x y z
#
# Youngs Moduli (GPa) = 27.34373 27.34373 90.00891
#
# Poissons Ratio (x) = -0.28546 0.67623
# Poissons Ratio (y) = -0.28546 0.67623
# Poissons Ratio (z) = 0.20543 0.20543
#
# Static dielectric constant tensor:
#      x y z
#    x 1.673750 0.000000 0.000000 
#    y 0.000000 1.673750 0.000000 
#    z 0.000000 0.000000 1.615820 
# 
# From -- ./inp_files/3512.got.cif
#   From: 2010.05.17/outbox.cif.g08.bks.cpg/sg127_2_cif.got.tgz:3512.got - 2010.05.20 12:03:00.
