data_PCOD9563016
_publ_section_title
;
Structure prediction by ZEFSAII (Michael W. Deem and Ramdas Pophale) SiO2 
 PCOD9563016
Probable space group: P 4/N B M
;
_chemical_formula_sum "Si O2"
_cell_formula_units_Z 96
_cell_length_a 23.032572
_cell_length_b 23.032572
_cell_length_c 10.099692
_cell_angle_alpha 90.000000
_cell_angle_beta 90.000000
_cell_angle_gamma 90.000000
_cell_volume 5357.880273
_symmetry_space_group_name_H-M "P 4/N B M"
_symmetry_group_IT_number 125
_space_group.IT_coordinate_system_code '2'
_symmetry_cell_setting 'tetragonal'
loop_
_space_group_symop_operation_xyz
x,y,z
1/2-y,x,z
1/2-x,1/2-y,z
y,1/2-x,z
x,1/2-y,-z
1/2-x,y,-z
y,x,-z
1/2-y,1/2-x,-z
-x,-y,-z
1/2+y,-x,-z
1/2+x,1/2+y,-z
-y,1/2+x,-z
-x,1/2+y,z
1/2+x,-y,z
-y,-x,z
1/2+y,1/2+x,z
loop_
_atom_site_type_symbol
_atom_site_label
_atom_site_fract_x
_atom_site_fract_y
_atom_site_fract_z
Si Si1 0.519827 0.185958 0.434032
Si Si2 0.008842 0.895087 0.683891
Si Si3 0.075358 0.827897 0.889210
Si Si4 0.374279 0.402799 0.357873
Si Si5 0.181425 0.182928 0.844901
Si Si6 0.695926 0.399868 0.818745
O O1 0.516765 0.250000 0.500000
O O2 0.528551 0.140414 0.553428
O O3 0.459455 0.165738 0.367522
O O4 0.567962 0.183476 0.319144
O O5 0.049117 0.950884 0.701375
O O6 0.020452 0.851139 0.806451
O O7 0.942562 0.914472 0.664971
O O8 0.126090 0.873911 0.862259
O O9 0.098250 0.765375 0.839848
O O10 0.067079 0.826011 0.047963
O O11 0.371358 0.371358 0.500000
O O12 0.353996 0.360450 0.244122
O O13 0.249011 0.171053 0.817987
O O14 0.172142 0.172142 0.000000
O O15 0.662089 0.337912 0.820398
#
# Coordination Sequence:
#
# PCOD9563016 Si02
#       6
#    16  16  16  16  16  16
#     4  11  22  37  56  84 116 149 195 236 284 341
#     4  10  21  40  60  81 116 155 192 234 282 337
#     4   9  19  36  58  84 114 148 189 236 284 342
#     4  10  24  36  58  84 112 148 193 237 278 339
#     4   9  20  38  58  82 113 148 185 230 289 346
#     4  10  20  35  58  85 113 149 189 234 291 343
#
# _framework density 17.917532000000001
#
# number of rings (size 3 to 8) (size 9 to 14) (size 15 to 20)
#    0.000    2.167    1.667    1.000    4.667    5.333 
#    0.000    5.833    0.000    3.500    0.000    0.000 
#    0.000    0.000    0.000    0.000    0.000    0.000 
#
# Total GULP energy -535165.271948 kJ/mol
# GULP energy per Si atom -5574.638249 kJ/mol
# Density = 1.787675 g / cm^3
# Si number density = 17.917532 Si / 1000 Ang^3
#
#
#
# Elastic Constant Matrix: (Units=GPa)
#
#
# Indices 1 2 3 4 5 6 
#
# 1 103.7389 -14.1189 38.2970 0.0000 0.0000 0.0000
# 2 -14.1189 103.7389 38.2970 0.0000 0.0000 0.0000
# 3 38.2970 38.2970 60.5548 0.0000 0.0000 0.0000
# 4 0.0000 0.0000 0.0000 33.1423 0.0000 0.0000
# 5 0.0000 0.0000 0.0000 0.0000 33.1423 0.0000
# 6 0.0000 0.0000 0.0000 0.0000 0.0000 10.4573
#
#
#
# Elastic Compliance Matrix: (Units=1/GPa)
#
#
# Indices 1 2 3 4 5 6 
#
# 1 0.016384 0.007900 -0.015358 0.000000 0.000000 0.000000
# 2 0.007900 0.016384 -0.015358 0.000000 0.000000 0.000000
# 3 -0.015358 -0.015358 0.035940 0.000000 0.000000 0.000000
# 4 0.000000 0.000000 0.000000 0.030173 0.000000 0.000000
# 5 0.000000 0.000000 0.000000 0.000000 0.030173 0.000000
# 6 0.000000 0.000000 0.000000 0.000000 0.000000 0.095627
#
#
# Mechanical properties :
#
#
# Convention : Reuss Voigt Hill
#
# Bulk Modulus (GPa) = 43.33562 43.66475 43.50018
# Shear Modulus (GPa) = 17.98517 29.05223 23.51870
#
# Velocity S-wave (km/s) = 3.17168 4.03108 3.62692
# Velocity P-wave (km/s) = 6.13607 6.78888 6.47071
#
# Compressibility (1/GPa) = 0.02307571
#
# Stress axis : x y z
#
# Youngs Moduli (GPa) = 61.03346 61.03346 27.82411
#
# Poissons Ratio (x) = -0.48214 0.42733
# Poissons Ratio (y) = -0.48214 0.42733
# Poissons Ratio (z) = 0.93736 0.93736
#
# Static dielectric constant tensor:
#      x y z
#    x 1.601290 0.000000 0.000000 
#    y 0.000000 1.601290 0.000000 
#    z 0.000000 0.000000 1.622130 
# 
# From -- ./inp_files/2844.got.cif
#   From: 2010.05.17/outbox.cif.g08.bks.cpg/sg125_2_cif.got.tgz:2844.got - 2010.05.20 11:54:10.
