data_PCOD9563548
_publ_section_title
;
Structure prediction by ZEFSAII (Michael W. Deem and Ramdas Pophale) SiO2 
 PCOD9563548
Probable space group: P 4/N N C
;
_chemical_formula_sum "Si O2"
_cell_formula_units_Z 48
_cell_length_a 12.925902
_cell_length_b 12.925902
_cell_length_c 13.601270
_cell_angle_alpha 90.000000
_cell_angle_beta 90.000000
_cell_angle_gamma 90.000000
_cell_volume 2272.485808
_symmetry_space_group_name_H-M "P 4/N N C"
_symmetry_group_IT_number 126
_space_group.IT_coordinate_system_code '2'
_symmetry_cell_setting 'tetragonal'
loop_
_space_group_symop_operation_xyz
x,y,z
1/2-y,x,z
1/2-x,1/2-y,z
y,1/2-x,z
x,1/2-y,1/2-z
1/2-x,y,1/2-z
y,x,1/2-z
1/2-y,1/2-x,1/2-z
-x,-y,-z
1/2+y,-x,-z
1/2+x,1/2+y,-z
-y,1/2+x,-z
-x,1/2+y,1/2+z
1/2+x,-y,1/2+z
-y,-x,1/2+z
1/2+y,1/2+x,1/2+z
loop_
_atom_site_type_symbol
_atom_site_label
_atom_site_fract_x
_atom_site_fract_y
_atom_site_fract_z
Si Si1 0.581097 0.548430 0.142372
Si Si2 0.817936 0.118188 0.653802
Si Si3 0.772932 0.455335 0.058785
O O1 0.596394 0.596394 0.250000
O O2 0.556015 0.427347 0.160722
O O3 0.688007 0.543327 0.082077
O O4 0.495319 0.614331 0.086460
O O5 0.750000 0.106603 0.750000
O O6 0.765837 0.080658 0.552963
O O7 0.863327 0.266708 0.869663
#
# Coordination Sequence:
#
# PCOD9563548 Si02
#       3
#    16  16  16
#     4  10  23  43  71 101 143 183 240 287 365 419
#     4  10  25  43  72 101 142 185 239 292 369 418
#     4  10  24  44  69 102 144 182 240 297 355 427
#
# _framework density 21.122246000000001
#
# number of rings (size 3 to 8) (size 9 to 14) (size 15 to 20)
#    2.000    0.000    0.000    2.000    4.667    1.333 
#    6.000    1.667    0.000    0.000    0.000    2.333 
#    0.000    0.000    0.000    0.000    0.000    0.000 
#
# Total GULP energy -267896.324000 kJ/mol
# GULP energy per Si atom -5581.173417 kJ/mol
# Density = 2.107417 g / cm^3
# Si number density = 21.122246 Si / 1000 Ang^3
#
#
#
# Elastic Constant Matrix: (Units=GPa)
#
#
# Indices 1 2 3 4 5 6 
#
# 1 106.7813 61.9146 73.9206 0.0000 0.0000 0.0000
# 2 61.9146 106.7813 73.9206 0.0000 0.0000 0.0000
# 3 73.9206 73.9206 187.2894 0.0000 0.0000 0.0000
# 4 0.0000 0.0000 0.0000 33.6192 0.0000 0.0000
# 5 0.0000 0.0000 0.0000 0.0000 33.6192 0.0000
# 6 0.0000 0.0000 0.0000 0.0000 0.0000 39.5008
#
#
#
# Elastic Compliance Matrix: (Units=1/GPa)
#
#
# Indices 1 2 3 4 5 6 
#
# 1 0.015675 -0.006613 -0.003577 0.000000 0.000000 0.000000
# 2 -0.006613 0.015675 -0.003577 0.000000 0.000000 0.000000
# 3 -0.003577 -0.003577 0.008163 0.000000 0.000000 0.000000
# 4 0.000000 0.000000 0.000000 0.029745 0.000000 0.000000
# 5 0.000000 0.000000 0.000000 0.000000 0.029745 0.000000
# 6 0.000000 0.000000 0.000000 0.000000 0.000000 0.025316
#
#
# Mechanical properties :
#
#
# Convention : Reuss Voigt Hill
#
# Bulk Modulus (GPa) = 83.46964 91.15148 87.31056
# Shear Modulus (GPa) = 32.08300 34.08760 33.08530
#
# Velocity S-wave (km/s) = 3.90156 4.02160 3.96204
# Velocity P-wave (km/s) = 7.73947 8.05061 7.89657
#
# Compressibility (1/GPa) = 0.01198040
#
# Stress axis : x y z
#
# Youngs Moduli (GPa) = 63.79441 63.79441 122.50712
#
# Poissons Ratio (x) = 0.42186 0.43819
# Poissons Ratio (y) = 0.42186 0.43819
# Poissons Ratio (z) = 0.22818 0.22818
#
# Static dielectric constant tensor:
#      x y z
#    x 1.830650 0.000000 0.000000 
#    y 0.000000 1.830650 0.000000 
#    z 0.000000 0.000000 1.749980 
# 
# From -- ./inp_files/2276.got.cif
#   From: 2010.05.17/outbox.cif.g08.bks.cpg/sg126_2_cif.got.tgz:2276.got - 2010.05.20 11:58:20.
