data_PCOD9563171
_publ_section_title
;
Structure prediction by ZEFSAII (Michael W. Deem and Ramdas Pophale) SiO2 
 PCOD9563171
Probable space group: P 4/N B M
;
_chemical_formula_sum "Si O2"
_cell_formula_units_Z 64
_cell_length_a 16.038454
_cell_length_b 16.038454
_cell_length_c 16.115237
_cell_angle_alpha 90.000000
_cell_angle_beta 90.000000
_cell_angle_gamma 90.000000
_cell_volume 4145.354752
_symmetry_space_group_name_H-M "P 4/N B M"
_symmetry_group_IT_number 125
_space_group.IT_coordinate_system_code '2'
_symmetry_cell_setting 'tetragonal'
loop_
_space_group_symop_operation_xyz
x,y,z
1/2-y,x,z
1/2-x,1/2-y,z
y,1/2-x,z
x,1/2-y,-z
1/2-x,y,-z
y,x,-z
1/2-y,1/2-x,-z
-x,-y,-z
1/2+y,-x,-z
1/2+x,1/2+y,-z
-y,1/2+x,-z
-x,1/2+y,z
1/2+x,-y,z
-y,-x,z
1/2+y,1/2+x,z
loop_
_atom_site_type_symbol
_atom_site_label
_atom_site_fract_x
_atom_site_fract_y
_atom_site_fract_z
Si Si1 0.750000 0.495698 0.843682
Si Si2 0.386596 0.250000 0.000000
Si Si3 0.428332 0.571669 0.898818
Si Si4 0.391796 0.250000 0.317083
Si Si5 0.750000 0.890879 0.500000
Si Si6 0.428332 0.571669 0.101182
O O1 0.750000 0.563071 0.916427
O O2 0.837893 0.450132 0.860737
O O3 0.750000 0.540739 0.755055
O O4 0.662107 0.450132 0.860737
O O5 0.330736 0.330736 0.000000
O O6 0.500000 0.500000 0.881679
O O7 0.422818 0.577183 0.000000
O O8 0.330084 0.330084 0.309768
O O9 0.432080 0.250000 0.409469
O O10 0.670414 0.829587 0.500000
#
# Coordination Sequence:
#
# PCOD9563171 Si02
#       6
#    16   8   8  16   8   8
#     4  12  22  34  51  72 100 140 178 211 252 303
#     4  11  20  30  48  73  98 124 160 213 270 311
#     4  11  22  37  53  72 104 140 175 220 265 304
#     4   9  16  28  49  77 104 129 165 215 272 326
#     4   7  12  24  44  72 104 131 154 200 274 335
#     4  11  22  37  53  72 104 140 175 220 265 304
#
# _framework density 15.438967
#
# number of rings (size 3 to 8) (size 9 to 14) (size 15 to 20)
#    0.000    1.750    2.500    6.000    0.000    2.500 
#    0.000    1.250    0.000    1.500    0.000    7.000 
#    0.000    2.000    0.000    0.000    0.000    0.000 
#
# Total GULP energy -356302.543637 kJ/mol
# GULP energy per Si atom -5567.227244 kJ/mol
# Density = 1.540383 g / cm^3
# Si number density = 15.438967 Si / 1000 Ang^3
#
#
#
# Elastic Constant Matrix: (Units=GPa)
#
#
# Indices 1 2 3 4 5 6 
#
# 1 105.0457 67.2145 62.7775 0.0000 0.0000 0.0000
# 2 67.2145 105.0455 62.7776 0.0000 0.0000 0.0000
# 3 62.7775 62.7776 171.2091 0.0000 0.0000 0.0000
# 4 0.0000 0.0000 0.0000 22.6100 0.0000 0.0000
# 5 0.0000 0.0000 0.0000 0.0000 22.6100 0.0000
# 6 0.0000 0.0000 0.0000 0.0000 0.0000 42.8413
#
#
#
# Elastic Compliance Matrix: (Units=1/GPa)
#
#
# Indices 1 2 3 4 5 6 
#
# 1 0.017178 -0.009255 -0.002905 0.000000 0.000000 0.000000
# 2 -0.009255 0.017178 -0.002905 0.000000 0.000000 0.000000
# 3 -0.002905 -0.002905 0.007971 0.000000 0.000000 0.000000
# 4 0.000000 0.000000 0.000000 0.044228 0.000000 0.000000
# 5 0.000000 0.000000 0.000000 0.000000 0.044228 0.000000
# 6 0.000000 0.000000 0.000000 0.000000 0.000000 0.023342
#
#
# Mechanical properties :
#
#
# Convention : Reuss Voigt Hill
#
# Bulk Modulus (GPa) = 81.99192 85.20439 83.59816
# Shear Modulus (GPa) = 26.55036 30.18097 28.36566
#
# Velocity S-wave (km/s) = 4.15142 4.42617 4.29100
# Velocity P-wave (km/s) = 8.72935 9.02380 8.87780
#
# Compressibility (1/GPa) = 0.01219632
#
# Stress axis : x y z
#
# Youngs Moduli (GPa) = 58.21449 58.21433 125.45244
#
# Poissons Ratio (x) = 0.53879 0.36443
# Poissons Ratio (y) = 0.53880 0.36444
# Poissons Ratio (z) = 0.16911 0.16911
#
# Static dielectric constant tensor:
#      x y z
#    x 1.626600 0.000000 0.000000 
#    y 0.000000 1.626600 0.000000 
#    z 0.000000 0.000000 1.514540 
# 
# From -- ./inp_files/5298.got.cif
#   From: 2010.05.17/outbox.cif.g08.bks.cpg/sg125_3_cif.got.tgz:5298.got - 2010.05.20 11:54:10.
