data_PCOD9563963
_publ_section_title
;
Structure prediction by ZEFSAII (Michael W. Deem and Ramdas Pophale) SiO2 
 PCOD9563963
Probable space group: P 4/M B M
;
_chemical_formula_sum "Si O2"
_cell_formula_units_Z 108
_cell_length_a 14.957136
_cell_length_b 14.957136
_cell_length_c 27.086023
_cell_angle_alpha 90.000000
_cell_angle_beta 90.000000
_cell_angle_gamma 90.000000
_cell_volume 6059.574482
_symmetry_space_group_name_H-M "P 4/M B M"
_symmetry_group_IT_number 127
_symmetry_cell_setting 'tetragonal'
loop_
_space_group_symop_operation_xyz
x,y,z
-y,x,z
-x,-y,z
y,-x,z
1/2+x,1/2-y,-z
1/2-x,1/2+y,-z
1/2+y,1/2+x,-z
1/2-y,1/2-x,-z
-x,-y,-z
y,-x,-z
x,y,-z
-y,x,-z
1/2-x,1/2+y,z
1/2+x,1/2-y,z
1/2-y,1/2-x,z
1/2+y,1/2+x,z
loop_
_atom_site_type_symbol
_atom_site_label
_atom_site_fract_x
_atom_site_fract_y
_atom_site_fract_z
Si Si1 0.606104 0.607029 0.500000
Si Si2 0.649003 0.996826 0.944106
Si Si3 0.475987 0.703503 0.861457
Si Si4 0.305335 0.657366 0.200395
Si Si5 0.217772 0.130684 0.596245
Si Si6 0.000000 0.000000 0.892147
Si Si7 0.615382 0.402824 0.696577
Si Si8 0.646906 0.006879 0.442117
O O1 0.498742 0.620326 0.500000
O O2 0.643158 0.654687 0.451263
O O3 0.574392 0.074392 0.943124
O O4 0.720932 0.016091 0.902604
O O5 0.595688 0.904313 0.935535
O O6 0.686582 0.994421 0.000000
O O7 0.561409 0.708477 0.825376
O O8 0.385956 0.705707 0.829024
O O9 0.477523 0.607324 0.887655
O O10 0.217747 0.717747 0.198318
O O11 0.336110 0.639470 0.256319
O O12 0.290995 0.209006 0.598067
O O13 0.160093 0.127114 0.645615
O O14 0.272050 0.037177 0.587770
O O15 0.620857 0.510598 0.698951
O O16 0.671395 0.017217 0.500000
O O17 0.598818 0.098818 0.425331
O O18 0.568963 0.931038 0.441003
#
# Coordination Sequence:
#
# PCOD9563963 Si02
#       8
#     8  16  16  16  16   4  16  16
#     4  11  23  40  58  79 113 151 190 225 280 345
#     4   9  18  34  57  86 123 165 202 238 289 354
#     4  10  19  36  58  87 117 153 199 248 290 347
#     4  11  21  36  61  89 115 150 196 250 303 352
#     4  11  21  37  60  87 114 144 187 238 287 347
#     4   8  20  32  53  76 112 148 196 241 292 332
#     4  11  23  41  62  82 111 152 193 238 296 350
#     4   8  14  28  52  79 108 143 175 205 258 334
#
# _framework density 17.823034
#
# number of rings (size 3 to 8) (size 9 to 14) (size 15 to 20)
#    0.000    2.000    2.222    3.333    0.000    1.185 
#    0.000    7.778    0.000    8.000    0.000    0.000 
#    0.000    0.000    0.000    0.000    0.000    0.000 
#
# Total GULP energy -601829.647881 kJ/mol
# GULP energy per Si atom -5572.496740 kJ/mol
# Density = 1.778247 g / cm^3
# Si number density = 17.823034 Si / 1000 Ang^3
#
#
#
# Elastic Constant Matrix: (Units=GPa)
#
#
# Indices 1 2 3 4 5 6 
#
# 1 55.8428 -17.2493 8.8110 0.0000 0.0000 0.0000
# 2 -17.2493 55.8428 8.8110 0.0000 0.0000 0.0000
# 3 8.8110 8.8110 92.1305 0.0000 0.0000 0.0000
# 4 0.0000 0.0000 0.0000 18.7360 0.0000 0.0000
# 5 0.0000 0.0000 0.0000 0.0000 18.7360 0.0000
# 6 0.0000 0.0000 0.0000 0.0000 0.0000 27.0947
#
#
#
# Elastic Compliance Matrix: (Units=1/GPa)
#
#
# Indices 1 2 3 4 5 6 
#
# 1 0.020388 0.006706 -0.002591 0.000000 0.000000 0.000000
# 2 0.006706 0.020388 -0.002591 0.000000 0.000000 0.000000
# 3 -0.002591 -0.002591 0.011350 0.000000 0.000000 0.000000
# 4 0.000000 0.000000 0.000000 0.053373 0.000000 0.000000
# 5 0.000000 0.000000 0.000000 0.000000 0.053373 0.000000
# 6 0.000000 0.000000 0.000000 0.000000 0.000000 0.036908
#
#
# Mechanical properties :
#
#
# Convention : Reuss Voigt Hill
#
# Bulk Modulus (GPa) = 18.12465 22.72908 20.42686
# Shear Modulus (GPa) = 23.68292 26.47622 25.07957
#
# Velocity S-wave (km/s) = 3.64920 3.85841 3.75526
# Velocity P-wave (km/s) = 5.28648 5.71227 5.50350
#
# Compressibility (1/GPa) = 0.05517349
#
# Stress axis : x y z
#
# Youngs Moduli (GPa) = 49.04893 49.04893 88.10732
#
# Poissons Ratio (x) = -0.32894 0.22830
# Poissons Ratio (y) = -0.32894 0.22830
# Poissons Ratio (z) = 0.12710 0.12710
#
# Static dielectric constant tensor:
#      x y z
#    x 1.612730 0.000000 0.000000 
#    y 0.000000 1.612730 0.000000 
#    z 0.000000 0.000000 1.578890 
# 
# From -- ./inp_files/6229.got.cif
#   From: 2010.05.17/outbox.cif.g08.bks.cpg/sg127_4_cif.got.tgz:6229.got - 2010.05.20 12:03:00.
