data_PCOD9563181
_publ_section_title
;
Structure prediction by ZEFSAII (Michael W. Deem and Ramdas Pophale) SiO2 
 PCOD9563181
Probable space group: P 4/N B M
;
_chemical_formula_sum "Si O2"
_cell_formula_units_Z 64
_cell_length_a 19.487370
_cell_length_b 19.487370
_cell_length_c 9.436651
_cell_angle_alpha 90.000000
_cell_angle_beta 90.000000
_cell_angle_gamma 90.000000
_cell_volume 3583.639837
_symmetry_space_group_name_H-M "P 4/N B M"
_symmetry_group_IT_number 125
_space_group.IT_coordinate_system_code '2'
_symmetry_cell_setting 'tetragonal'
loop_
_space_group_symop_operation_xyz
x,y,z
1/2-y,x,z
1/2-x,1/2-y,z
y,1/2-x,z
x,1/2-y,-z
1/2-x,y,-z
y,x,-z
1/2-y,1/2-x,-z
-x,-y,-z
1/2+y,-x,-z
1/2+x,1/2+y,-z
-y,1/2+x,-z
-x,1/2+y,z
1/2+x,-y,z
-y,-x,z
1/2+y,1/2+x,z
loop_
_atom_site_type_symbol
_atom_site_label
_atom_site_fract_x
_atom_site_fract_y
_atom_site_fract_z
Si Si1 0.898743 0.984605 0.898081
Si Si2 0.491398 0.109013 0.427031
Si Si3 0.913081 0.300460 0.612806
Si Si4 0.094905 0.705486 0.876946
O O1 0.877776 0.970144 0.735370
O O2 0.835912 0.032019 0.949083
O O3 0.922805 0.922805 0.000000
O O4 0.964769 0.035232 0.890033
O O5 0.553794 0.053794 0.420764
O O6 0.522191 0.168933 0.525615
O O7 0.428116 0.071885 0.500000
O O8 0.877276 0.250000 0.500000
O O9 0.863121 0.363121 0.652285
O O10 0.927955 0.254638 0.749899
O O11 0.147915 0.647915 0.821494
O O12 0.128603 0.750000 0.000000
#
# Coordination Sequence:
#
# PCOD9563181 Si02
#       4
#    16  16  16  16
#     4   9  18  33  51  70  95 130 172 219 268 310
#     4   9  18  32  51  73  94 126 173 220 269 313
#     4  11  21  34  51  72 103 142 182 222 263 316
#     4  11  23  36  49  72 106 145 186 221 259 317
#
# _framework density 17.858937000000001
#
# number of rings (size 3 to 8) (size 9 to 14) (size 15 to 20)
#    0.000    2.000    2.500    1.500    3.500    3.000 
#    0.000    0.000    0.000    0.000    0.000    0.000 
#    0.000    1.000    2.000    0.000    0.000    0.000 
#
# Total GULP energy -356340.476310 kJ/mol
# GULP energy per Si atom -5567.819942 kJ/mol
# Density = 1.781829 g / cm^3
# Si number density = 17.858937 Si / 1000 Ang^3
#
#
#
# Elastic Constant Matrix: (Units=GPa)
#
#
# Indices 1 2 3 4 5 6 
#
# 1 58.4805 51.1718 42.4708 0.0000 0.0000 0.0000
# 2 51.1718 58.4803 42.4683 0.0000 0.0000 0.0000
# 3 42.4708 42.4683 102.1118 0.0000 0.0000 0.0000
# 4 0.0000 0.0000 0.0000 31.6058 0.0000 0.0000
# 5 0.0000 0.0000 0.0000 0.0000 31.6056 0.0000
# 6 0.0000 0.0000 0.0000 0.0000 0.0000 20.7695
#
#
#
# Elastic Compliance Matrix: (Units=1/GPa)
#
#
# Indices 1 2 3 4 5 6 
#
# 1 0.075141 -0.061685 -0.005598 0.000000 0.000000 0.000000
# 2 -0.061685 0.075138 -0.005593 0.000000 0.000000 0.000000
# 3 -0.005598 -0.005593 0.014448 0.000000 0.000000 0.000000
# 4 0.000000 0.000000 0.000000 0.031640 0.000000 0.000000
# 5 0.000000 0.000000 0.000000 0.000000 0.031640 0.000000
# 6 0.000000 0.000000 0.000000 0.000000 0.000000 0.048148
#
#
# Mechanical properties :
#
#
# Convention : Reuss Voigt Hill
#
# Bulk Modulus (GPa) = 52.70545 54.58827 53.64686
# Shear Modulus (GPa) = 11.67590 22.32695 17.00142
#
# Velocity S-wave (km/s) = 2.55969 3.53963 3.08877
# Velocity P-wave (km/s) = 6.18969 6.88026 6.54409
#
# Compressibility (1/GPa) = 0.01897337
#
# Stress axis : x y z
#
# Youngs Moduli (GPa) = 13.30826 13.30887 69.21391
#
# Poissons Ratio (x) = 0.82096 0.38748
# Poissons Ratio (y) = 0.82092 0.38715
# Poissons Ratio (z) = 0.07450 0.07444
#
# Static dielectric constant tensor:
#      x y z
#    x 1.643340 0.000000 0.000000 
#    y 0.000000 1.643340 0.000000 
#    z 0.000000 0.000000 1.668220 
# 
# From -- ./inp_files/2347.got.cif
#   From: 2010.05.17/outbox.cif.g08.bks.cpg/sg125_2_cif.got.tgz:2347.got - 2010.05.20 11:54:10.
