data_PCOD9563886
_publ_section_title
;
Structure prediction by ZEFSAII (Michael W. Deem and Ramdas Pophale) SiO2 
 PCOD9563886
Probable space group: P 4/M B M
;
_chemical_formula_sum "Si O2"
_cell_formula_units_Z 72
_cell_length_a 22.016393
_cell_length_b 22.016393
_cell_length_c 7.636732
_cell_angle_alpha 90.000000
_cell_angle_beta 90.000000
_cell_angle_gamma 90.000000
_cell_volume 3701.688654
_symmetry_space_group_name_H-M "P 4/M B M"
_symmetry_group_IT_number 127
_symmetry_cell_setting 'tetragonal'
loop_
_space_group_symop_operation_xyz
x,y,z
-y,x,z
-x,-y,z
y,-x,z
1/2+x,1/2-y,-z
1/2-x,1/2+y,-z
1/2+y,1/2+x,-z
1/2-y,1/2-x,-z
-x,-y,-z
y,-x,-z
x,y,-z
-y,x,-z
1/2-x,1/2+y,z
1/2+x,1/2-y,z
1/2-y,1/2-x,z
1/2+y,1/2+x,z
loop_
_atom_site_type_symbol
_atom_site_label
_atom_site_fract_x
_atom_site_fract_y
_atom_site_fract_z
Si Si1 0.379246 0.217123 0.212196
Si Si2 0.098947 0.851030 0.785455
Si Si3 0.822614 0.036386 0.207459
Si Si4 0.814639 0.516088 0.296942
Si Si5 0.050518 0.449483 0.284833
O O1 0.325520 0.174481 0.273268
O O2 0.371856 0.286812 0.265191
O O3 0.443753 0.192315 0.275769
O O4 0.381562 0.215722 0.000000
O O5 0.137942 0.907874 0.721903
O O6 0.028995 0.845684 0.724956
O O7 0.098005 0.852941 0.000000
O O8 0.749705 0.041867 0.228111
O O9 0.833473 0.034804 0.000000
O O10 0.815748 0.532505 0.500000
O O11 0.880741 0.534858 0.225249
O O12 0.049581 0.450420 0.500000
O O13 0.000000 0.500000 0.230945
#
# Coordination Sequence:
#
# PCOD9563886 Si02
#       5
#    16  16  16  16   8
#     4   9  17  31  50  72  98 126 158 196 239 285
#     4   8  15  28  48  71  96 126 157 193 235 285
#     4   9  17  32  50  71  98 127 160 197 242 287
#     4  10  19  32  50  70  95 126 160 200 243 283
#     4   9  18  32  49  69  93 125 161 193 235 292
#
# _framework density 19.450583000000002
#
# number of rings (size 3 to 8) (size 9 to 14) (size 15 to 20)
#    0.000    3.000    0.000    2.667    0.000    1.778 
#    2.000    8.889    0.000    4.000    0.000    6.222 
#    0.000    0.000    0.000    0.000    0.000    0.000 
#
# Total GULP energy -401205.006282 kJ/mol
# GULP energy per Si atom -5572.291754 kJ/mol
# Density = 1.940631 g / cm^3
# Si number density = 19.450583 Si / 1000 Ang^3
#
#
#
# Elastic Constant Matrix: (Units=GPa)
#
#
# Indices 1 2 3 4 5 6 
#
# 1 142.5467 124.1475 -4.1448 0.0000 0.0000 0.0000
# 2 124.1475 142.5466 -4.1449 0.0000 0.0000 0.0000
# 3 -4.1448 -4.1449 29.0398 0.0000 0.0000 0.0000
# 4 0.0000 0.0000 0.0000 23.8002 0.0000 0.0000
# 5 0.0000 0.0000 0.0000 0.0000 23.8001 0.0000
# 6 0.0000 0.0000 0.0000 0.0000 0.0000 39.2904
#
#
#
# Elastic Compliance Matrix: (Units=1/GPa)
#
#
# Indices 1 2 3 4 5 6 
#
# 1 0.029058 -0.025292 0.000538 0.000000 0.000000 0.000000
# 2 -0.025292 0.029058 0.000538 0.000000 0.000000 0.000000
# 3 0.000538 0.000538 0.034589 0.000000 0.000000 0.000000
# 4 0.000000 0.000000 0.000000 0.042017 0.000000 0.000000
# 5 0.000000 0.000000 0.000000 0.000000 0.042017 0.000000
# 6 0.000000 0.000000 0.000000 0.000000 0.000000 0.025451
#
#
# Mechanical properties :
#
#
# Convention : Reuss Voigt Hill
#
# Bulk Modulus (GPa) = 22.58769 60.64984 41.61877
# Shear Modulus (GPa) = 18.84083 30.59649 24.71866
#
# Velocity S-wave (km/s) = 3.11569 3.97046 3.56876
# Velocity P-wave (km/s) = 4.95797 7.22970 6.19879
#
# Compressibility (1/GPa) = 0.04427190
#
# Stress axis : x y z
#
# Youngs Moduli (GPa) = 34.41364 34.41360 28.91094
#
# Poissons Ratio (x) = 0.87039 -0.01554
# Poissons Ratio (y) = 0.87039 -0.01554
# Poissons Ratio (z) = -0.01850 -0.01850
#
# Static dielectric constant tensor:
#      x y z
#    x 1.668110 0.000000 0.000000 
#    y 0.000000 1.668110 0.000000 
#    z 0.000000 0.000000 1.729570 
# 
# From -- ./inp_files/1554.got.cif
#   From: 2010.05.17/outbox.cif.g08.bks.cpg/sg127_1_cif.got.tgz:1554.got - 2010.05.20 12:03:00.
