data_PCOD9563789
_publ_section_title
;
Structure prediction by ZEFSAII (Michael W. Deem and Ramdas Pophale) SiO2 
 PCOD9563789
Probable space group: P 4/M B M
;
_chemical_formula_sum "Si O2"
_cell_formula_units_Z 56
_cell_length_a 19.775163
_cell_length_b 19.775163
_cell_length_c 8.736538
_cell_angle_alpha 90.000000
_cell_angle_beta 90.000000
_cell_angle_gamma 90.000000
_cell_volume 3416.484967
_symmetry_space_group_name_H-M "P 4/M B M"
_symmetry_group_IT_number 127
_symmetry_cell_setting 'tetragonal'
loop_
_space_group_symop_operation_xyz
x,y,z
-y,x,z
-x,-y,z
y,-x,z
1/2+x,1/2-y,-z
1/2-x,1/2+y,-z
1/2+y,1/2+x,-z
1/2-y,1/2-x,-z
-x,-y,-z
y,-x,-z
x,y,-z
-y,x,-z
1/2-x,1/2+y,z
1/2+x,1/2-y,z
1/2-y,1/2-x,z
1/2+y,1/2+x,z
loop_
_atom_site_type_symbol
_atom_site_label
_atom_site_fract_x
_atom_site_fract_y
_atom_site_fract_z
Si Si1 0.841875 0.770531 0.316385
Si Si2 0.944995 0.555006 0.686535
Si Si3 0.018462 0.292538 0.685193
Si Si4 0.372554 0.238318 0.182942
O O1 0.840884 0.779736 0.500000
O O2 0.795112 0.704889 0.283153
O O3 0.918173 0.754081 0.268153
O O4 0.805270 0.833760 0.239120
O O5 0.944814 0.555187 0.500000
O O6 0.965298 0.630481 0.734525
O O7 0.000000 0.500000 0.737243
O O8 0.015945 0.292306 0.500000
O O9 0.946840 0.269283 0.748935
O O10 0.324866 0.175135 0.232729
O O11 0.375639 0.237915 0.000000
#
# Coordination Sequence:
#
# PCOD9563789 Si02
#       4
#    16   8  16  16
#     4   9  17  32  53  75  98 127 170 216 254 297
#     4   9  16  26  45  75 107 133 159 196 247 304
#     4  10  18  31  52  77 101 130 168 211 256 299
#     4  10  21  34  48  71 104 139 173 205 245 301
#
# _framework density 16.391114000000002
#
# number of rings (size 3 to 8) (size 9 to 14) (size 15 to 20)
#    0.000    2.429    1.429    1.714    0.000    4.000 
#    0.000    0.714    0.000    3.429    0.000    6.000 
#    0.000    0.000    0.000    0.000    0.000    0.000 
#
# Total GULP energy -312370.114681 kJ/mol
# GULP energy per Si atom -5578.037762 kJ/mol
# Density = 1.635381 g / cm^3
# Si number density = 16.391114 Si / 1000 Ang^3
#
#
#
# Elastic Constant Matrix: (Units=GPa)
#
#
# Indices 1 2 3 4 5 6 
#
# 1 140.4554 105.1044 36.5096 0.0000 0.0000 0.0000
# 2 105.1044 140.4554 36.5095 0.0000 0.0000 0.0000
# 3 36.5096 36.5095 17.6695 0.0000 0.0000 0.0000
# 4 0.0000 0.0000 0.0000 13.2556 0.0000 0.0000
# 5 0.0000 0.0000 0.0000 0.0000 13.2556 0.0000
# 6 0.0000 0.0000 0.0000 0.0000 0.0000 22.2755
#
#
#
# Elastic Compliance Matrix: (Units=1/GPa)
#
#
# Indices 1 2 3 4 5 6 
#
# 1 0.019425 -0.008863 -0.021823 0.000000 0.000000 0.000000
# 2 -0.008863 0.019425 -0.021822 0.000000 0.000000 0.000000
# 3 -0.021823 -0.021822 0.146775 0.000000 0.000000 0.000000
# 4 0.000000 0.000000 0.000000 0.075440 0.000000 0.000000
# 5 0.000000 0.000000 0.000000 0.000000 0.075440 0.000000
# 6 0.000000 0.000000 0.000000 0.000000 0.000000 0.044892
#
#
# Mechanical properties :
#
#
# Convention : Reuss Voigt Hill
#
# Bulk Modulus (GPa) = 12.40562 72.75859 42.58210
# Shear Modulus (GPa) = 9.74124 17.78780 13.76452
#
# Velocity S-wave (km/s) = 2.44047 3.29783 2.90100
# Velocity P-wave (km/s) = 3.94032 7.68025 6.10379
#
# Compressibility (1/GPa) = 0.08060862
#
# Stress axis : x y z
#
# Youngs Moduli (GPa) = 51.48109 51.48136 6.81313
#
# Poissons Ratio (x) = 0.45629 0.14868
# Poissons Ratio (y) = 0.45629 0.14868
# Poissons Ratio (z) = 1.12345 1.12344
#
# Static dielectric constant tensor:
#      x y z
#    x 1.533990 0.000000 0.000000 
#    y 0.000000 1.533990 0.000000 
#    z 0.000000 0.000000 1.549820 
# 
# From -- ./inp_files/1077.got.cif
#   From: 2010.05.17/outbox.cif.g08.bks.cpg/sg127_1_cif.got.tgz:1077.got - 2010.05.20 12:03:00.
