data_PCOD9563545
_publ_section_title
;
Structure prediction by ZEFSAII (Michael W. Deem and Ramdas Pophale) SiO2 
 PCOD9563545
Probable space group: P 4/N N C
;
_chemical_formula_sum "Si O2"
_cell_formula_units_Z 96
_cell_length_a 22.880246
_cell_length_b 22.880246
_cell_length_c 8.657690
_cell_angle_alpha 90.000000
_cell_angle_beta 90.000000
_cell_angle_gamma 90.000000
_cell_volume 4532.349692
_symmetry_space_group_name_H-M "P 4/N N C"
_symmetry_group_IT_number 126
_space_group.IT_coordinate_system_code '2'
_symmetry_cell_setting 'tetragonal'
loop_
_space_group_symop_operation_xyz
x,y,z
1/2-y,x,z
1/2-x,1/2-y,z
y,1/2-x,z
x,1/2-y,1/2-z
1/2-x,y,1/2-z
y,x,1/2-z
1/2-y,1/2-x,1/2-z
-x,-y,-z
1/2+y,-x,-z
1/2+x,1/2+y,-z
-y,1/2+x,-z
-x,1/2+y,1/2+z
1/2+x,-y,1/2+z
-y,-x,1/2+z
1/2+y,1/2+x,1/2+z
loop_
_atom_site_type_symbol
_atom_site_label
_atom_site_fract_x
_atom_site_fract_y
_atom_site_fract_z
Si Si1 0.891254 0.155004 0.900549
Si Si2 0.147430 0.432155 0.148538
Si Si3 0.807783 0.314900 0.824613
Si Si4 0.947208 0.537040 0.429237
Si Si5 0.345632 0.524966 0.074736
Si Si6 0.006369 0.226895 0.926298
O O1 0.872633 0.169005 0.727264
O O2 0.876508 0.087093 0.908276
O O3 0.956522 0.176395 0.926337
O O4 0.842304 0.190033 0.004052
O O5 0.125197 0.374804 0.250000
O O6 0.151095 0.485536 0.270576
O O7 0.095093 0.443071 0.029872
O O8 0.204046 0.439595 0.034483
O O9 0.803790 0.250000 0.750000
O O10 0.750000 0.344604 0.750000
O O11 0.956217 0.543783 0.250000
O O12 0.884835 0.507075 0.448943
O O13 0.000000 0.500000 0.500000
O O14 0.279752 0.524680 0.017141
O O15 0.019280 0.250000 0.750000
#
# Coordination Sequence:
#
# PCOD9563545 Si02
#       6
#    16  16  16  16  16  16
#     4  12  23  37  53  79 117 162 215 274 335 393
#     4  10  23  42  64  89 123 168 220 278 345 414
#     4  11  22  35  50  68  99 152 217 281 335 386
#     4  11  22  39  61  89 123 165 215 268 330 398
#     4  11  23  39  62  90 124 172 225 278 332 399
#     4  12  24  39  61  93 130 172 225 285 346 414
#
# _framework density 21.181066000000001
#
# number of rings (size 3 to 8) (size 9 to 14) (size 15 to 20)
#    0.000    0.833    0.000    9.500    0.000    4.000 
#    0.000    0.000    0.000    0.000    0.000    0.000 
#    0.000   64.667    0.000   94.833    0.000    2.333 
#
# Total GULP energy -534744.864558 kJ/mol
# GULP energy per Si atom -5570.259006 kJ/mol
# Density = 2.113286 g / cm^3
# Si number density = 21.181066 Si / 1000 Ang^3
#
#
#
# Elastic Constant Matrix: (Units=GPa)
#
#
# Indices 1 2 3 4 5 6 
#
# 1 51.5194 44.0499 18.8761 0.0000 0.0000 0.0000
# 2 44.0499 51.5211 18.8777 0.0000 0.0000 0.0000
# 3 18.8761 18.8777 112.3246 0.0000 0.0000 0.0000
# 4 0.0000 0.0000 0.0000 42.0034 0.0000 0.0000
# 5 0.0000 0.0000 0.0000 0.0000 42.0028 0.0000
# 6 0.0000 0.0000 0.0000 0.0000 0.0000 25.4639
#
#
#
# Elastic Compliance Matrix: (Units=1/GPa)
#
#
# Indices 1 2 3 4 5 6 
#
# 1 0.072536 -0.061327 -0.001883 0.000000 0.000000 0.000000
# 2 -0.061327 0.072534 -0.001884 0.000000 0.000000 0.000000
# 3 -0.001883 -0.001884 0.009536 0.000000 0.000000 0.000000
# 4 0.000000 0.000000 0.000000 0.023808 0.000000 0.000000
# 5 0.000000 0.000000 0.000000 0.000000 0.023808 0.000000
# 6 0.000000 0.000000 0.000000 0.000000 0.000000 0.039271
#
#
# Mechanical properties :
#
#
# Convention : Reuss Voigt Hill
#
# Bulk Modulus (GPa) = 40.95515 42.10806 41.53160
# Shear Modulus (GPa) = 13.16413 30.79813 21.98113
#
# Velocity S-wave (km/s) = 2.49570 3.81733 3.22494
# Velocity P-wave (km/s) = 5.26141 6.27316 5.78943
#
# Compressibility (1/GPa) = 0.02441696
#
# Stress axis : x y z
#
# Youngs Moduli (GPa) = 13.78631 13.78664 104.86755
#
# Poissons Ratio (x) = 0.84550 0.19743
# Poissons Ratio (y) = 0.84548 0.19760
# Poissons Ratio (z) = 0.02596 0.02598
#
# Static dielectric constant tensor:
#      x y z
#    x 1.991350 0.000000 0.000000 
#    y 0.000000 1.991350 0.000000 
#    z 0.000000 0.000000 1.838130 
# 
# From -- ./inp_files/1787.got.cif
#   From: 2010.05.17/outbox.cif.g08.bks.cpg/sg126_1_cif.got.tgz:1787.got - 2010.05.20 11:58:20.
