data_PCOD9563797
_publ_section_title
;
Structure prediction by ZEFSAII (Michael W. Deem and Ramdas Pophale) SiO2 
 PCOD9563797
Probable space group: P 4/M B M
;
_chemical_formula_sum "Si O2"
_cell_formula_units_Z 84
_cell_length_a 19.482505
_cell_length_b 19.482505
_cell_length_c 10.988883
_cell_angle_alpha 90.000000
_cell_angle_beta 90.000000
_cell_angle_gamma 90.000000
_cell_volume 4171.028354
_symmetry_space_group_name_H-M "P 4/M B M"
_symmetry_group_IT_number 127
_symmetry_cell_setting 'tetragonal'
loop_
_space_group_symop_operation_xyz
x,y,z
-y,x,z
-x,-y,z
y,-x,z
1/2+x,1/2-y,-z
1/2-x,1/2+y,-z
1/2+y,1/2+x,-z
1/2-y,1/2-x,-z
-x,-y,-z
y,-x,-z
x,y,-z
-y,x,-z
1/2-x,1/2+y,z
1/2+x,1/2-y,z
1/2-y,1/2-x,z
1/2+y,1/2+x,z
loop_
_atom_site_type_symbol
_atom_site_label
_atom_site_fract_x
_atom_site_fract_y
_atom_site_fract_z
Si Si1 0.102712 0.283715 0.365324
Si Si2 0.464715 0.395028 0.353497
Si Si3 0.537176 0.857928 0.357243
Si Si4 0.221674 0.721674 0.500000
Si Si5 0.773790 0.158676 0.133003
Si Si6 0.766333 0.878513 0.281564
O O1 0.090967 0.251620 0.500000
O O2 0.173473 0.326527 0.375349
O O3 0.109099 0.235035 0.249324
O O4 0.041863 0.338478 0.343784
O O5 0.541546 0.415842 0.315772
O O6 0.464476 0.392753 0.500000
O O7 0.435321 0.323821 0.307534
O O8 0.553513 0.841984 0.500000
O O9 0.565388 0.934613 0.336624
O O10 0.582480 0.805877 0.278763
O O11 0.175786 0.760446 0.392619
O O12 0.704878 0.204878 0.129162
O O13 0.835499 0.210042 0.165372
O O14 0.782730 0.126466 0.000000
#
# Coordination Sequence:
#
# PCOD9563797 Si02
#       6
#    16  16  16   4  16  16
#     4   9  20  34  56  85 112 148 192 232 273 332
#     4   9  19  33  50  78 111 144 184 228 275 324
#     4  10  18  32  52  84 121 149 184 233 288 335
#     4  12  20  32  50  94 113 140 183 228 284 328
#     4  10  22  38  55  77 112 148 182 230 283 332
#     4  12  20  33  55  80 114 147 178 230 281 336
#
# _framework density 20.138919000000001
#
# number of rings (size 3 to 8) (size 9 to 14) (size 15 to 20)
#    0.000    1.905    3.810    0.571    4.000    0.381 
#    0.000    2.857    0.000    1.714    0.000    4.000 
#    0.000    0.000    0.000    0.000    0.000    0.000 
#
# Total GULP energy -467645.294128 kJ/mol
# GULP energy per Si atom -5567.205882 kJ/mol
# Density = 2.009308 g / cm^3
# Si number density = 20.138919 Si / 1000 Ang^3
#
#
#
# Elastic Constant Matrix: (Units=GPa)
#
#
# Indices 1 2 3 4 5 6 
#
# 1 66.8857 -12.8136 12.4226 0.0000 0.0000 0.0000
# 2 -12.8136 66.8857 12.4226 0.0000 0.0000 0.0000
# 3 12.4226 12.4226 105.8533 0.0000 0.0000 0.0000
# 4 0.0000 0.0000 0.0000 3.7989 0.0000 0.0000
# 5 0.0000 0.0000 0.0000 0.0000 3.7989 0.0000
# 6 0.0000 0.0000 0.0000 0.0000 0.0000 39.1052
#
#
#
# Elastic Compliance Matrix: (Units=1/GPa)
#
#
# Indices 1 2 3 4 5 6 
#
# 1 0.016048 0.003500 -0.002294 0.000000 0.000000 0.000000
# 2 0.003500 0.016048 -0.002294 0.000000 0.000000 0.000000
# 3 -0.002294 -0.002294 0.009985 0.000000 0.000000 0.000000
# 4 0.000000 0.000000 0.000000 0.263236 0.000000 0.000000
# 5 0.000000 0.000000 0.000000 0.000000 0.263236 0.000000
# 6 0.000000 0.000000 0.000000 0.000000 0.000000 0.025572
#
#
# Mechanical properties :
#
#
# Convention : Reuss Voigt Hill
#
# Bulk Modulus (GPa) = 25.05955 29.29869 27.17912
# Shear Modulus (GPa) = 8.20207 24.51345 16.35776
#
# Velocity S-wave (km/s) = 2.02029 3.49265 2.85309
# Velocity P-wave (km/s) = 4.23231 5.55380 4.93747
#
# Compressibility (1/GPa) = 0.03990495
#
# Stress axis : x y z
#
# Youngs Moduli (GPa) = 62.31487 62.31487 100.14530
#
# Poissons Ratio (x) = -0.21813 0.22974
# Poissons Ratio (y) = -0.21813 0.22974
# Poissons Ratio (z) = 0.14296 0.14296
#
# Static dielectric constant tensor:
#      x y z
#    x 1.755160 0.000000 0.000000 
#    y 0.000000 1.755160 0.000000 
#    z 0.000000 0.000000 1.718850 
# 
# From -- ./inp_files/3463.got.cif
#   From: 2010.05.17/outbox.cif.g08.bks.cpg/sg127_2_cif.got.tgz:3463.got - 2010.05.20 12:03:00.
