data_PCOD9563216
_publ_section_title
;
Structure prediction by ZEFSAII (Michael W. Deem and Ramdas Pophale) SiO2 
 PCOD9563216
Probable space group: P 4/N B M
;
_chemical_formula_sum "Si O2"
_cell_formula_units_Z 48
_cell_length_a 11.134040
_cell_length_b 11.134040
_cell_length_c 17.960816
_cell_angle_alpha 90.000000
_cell_angle_beta 90.000000
_cell_angle_gamma 90.000000
_cell_volume 2226.545724
_symmetry_space_group_name_H-M "P 4/N B M"
_symmetry_group_IT_number 125
_space_group.IT_coordinate_system_code '2'
_symmetry_cell_setting 'tetragonal'
loop_
_space_group_symop_operation_xyz
x,y,z
1/2-y,x,z
1/2-x,1/2-y,z
y,1/2-x,z
x,1/2-y,-z
1/2-x,y,-z
y,x,-z
1/2-y,1/2-x,-z
-x,-y,-z
1/2+y,-x,-z
1/2+x,1/2+y,-z
-y,1/2+x,-z
-x,1/2+y,z
1/2+x,-y,z
-y,-x,z
1/2+y,1/2+x,z
loop_
_atom_site_type_symbol
_atom_site_label
_atom_site_fract_x
_atom_site_fract_y
_atom_site_fract_z
Si Si1 0.104340 0.604340 0.477800
Si Si2 0.330729 0.479336 0.942986
Si Si3 0.443023 0.257002 0.222097
Si Si4 0.657175 0.157175 0.683097
O O1 0.080282 0.750000 0.500000
O O2 0.097464 0.597464 0.388073
O O3 0.000000 0.500000 0.500000
O O4 0.448212 0.551789 0.918944
O O5 0.260714 0.451178 0.867683
O O6 0.250000 0.554544 0.000000
O O7 0.375904 0.375904 0.000000
O O8 0.361469 0.371111 0.243005
O O9 0.566177 0.272545 0.263794
O O10 0.750000 0.250000 0.649084
#
# Coordination Sequence:
#
# PCOD9563216 Si02
#       4
#     8  16  16   8
#     4  11  27  54  85 122 161 207 258 312 391 481
#     4  11  22  37  59  85 126 180 238 297 358 428
#     4  11  25  42  67 101 137 186 242 302 365 430
#     4  12  28  47  78 105 152 187 231 300 374 452
#
# _framework density 21.558057999999999
#
# number of rings (size 3 to 8) (size 9 to 14) (size 15 to 20)
#    0.000    0.833    6.667    0.000    7.000    2.333 
#    0.000    0.000    0.000    0.000    0.000    0.000 
#    0.000    0.000    0.000    0.000    0.000    0.000 
#
# Total GULP energy -267293.133075 kJ/mol
# GULP energy per Si atom -5568.606939 kJ/mol
# Density = 2.150899 g / cm^3
# Si number density = 21.558058 Si / 1000 Ang^3
#
#
#
# Elastic Constant Matrix: (Units=GPa)
#
#
# Indices 1 2 3 4 5 6 
#
# 1 82.6257 33.5643 16.3960 0.0000 0.0000 0.0000
# 2 33.5643 82.6257 16.3960 0.0000 0.0000 0.0000
# 3 16.3960 16.3960 101.6488 0.0000 0.0000 0.0000
# 4 0.0000 0.0000 0.0000 29.1678 0.0000 0.0000
# 5 0.0000 0.0000 0.0000 0.0000 29.1678 0.0000
# 6 0.0000 0.0000 0.0000 0.0000 0.0000 12.5481
#
#
#
# Elastic Compliance Matrix: (Units=1/GPa)
#
#
# Indices 1 2 3 4 5 6 
#
# 1 0.014700 -0.005683 -0.001454 0.000000 0.000000 0.000000
# 2 -0.005683 0.014700 -0.001454 0.000000 0.000000 0.000000
# 3 -0.001454 -0.001454 0.010307 0.000000 0.000000 0.000000
# 4 0.000000 0.000000 0.000000 0.034284 0.000000 0.000000
# 5 0.000000 0.000000 0.000000 0.000000 0.034284 0.000000
# 6 0.000000 0.000000 0.000000 0.000000 0.000000 0.079693
#
#
# Mechanical properties :
#
#
# Convention : Reuss Voigt Hill
#
# Bulk Modulus (GPa) = 44.39843 44.40144 44.39993
# Shear Modulus (GPa) = 23.51173 27.54632 25.52903
#
# Velocity S-wave (km/s) = 3.30604 3.57847 3.44495
# Velocity P-wave (km/s) = 5.93403 6.14125 6.03853
#
# Compressibility (1/GPa) = 0.02252332
#
# Stress axis : x y z
#
# Youngs Moduli (GPa) = 68.02789 68.02789 97.02137
#
# Poissons Ratio (x) = 0.38659 0.14111
# Poissons Ratio (y) = 0.38659 0.14111
# Poissons Ratio (z) = 0.09894 0.09894
#
# Static dielectric constant tensor:
#      x y z
#    x 1.902350 0.000000 0.000000 
#    y 0.000000 1.902350 0.000000 
#    z 0.000000 0.000000 1.717530 
# 
# From -- ./inp_files/5197.got.cif
#   From: 2010.05.17/outbox.cif.g08.bks.cpg/sg125_3_cif.got.tgz:5197.got - 2010.05.20 11:54:10.
