data_PCOD9563355
_publ_section_title
;
Structure prediction by ZEFSAII (Michael W. Deem and Ramdas Pophale) SiO2 
 PCOD9563355
Probable space group: P 4/N N C
;
_chemical_formula_sum "Si O2"
_cell_formula_units_Z 96
_cell_length_a 26.187715
_cell_length_b 26.187715
_cell_length_c 9.887774
_cell_angle_alpha 90.000000
_cell_angle_beta 90.000000
_cell_angle_gamma 90.000000
_cell_volume 6780.999981
_symmetry_space_group_name_H-M "P 4/N N C"
_symmetry_group_IT_number 126
_space_group.IT_coordinate_system_code '2'
_symmetry_cell_setting 'tetragonal'
loop_
_space_group_symop_operation_xyz
x,y,z
1/2-y,x,z
1/2-x,1/2-y,z
y,1/2-x,z
x,1/2-y,1/2-z
1/2-x,y,1/2-z
y,x,1/2-z
1/2-y,1/2-x,1/2-z
-x,-y,-z
1/2+y,-x,-z
1/2+x,1/2+y,-z
-y,1/2+x,-z
-x,1/2+y,1/2+z
1/2+x,-y,1/2+z
-y,-x,1/2+z
1/2+y,1/2+x,1/2+z
loop_
_atom_site_type_symbol
_atom_site_label
_atom_site_fract_x
_atom_site_fract_y
_atom_site_fract_z
Si Si1 0.417867 0.618490 0.269781
Si Si2 0.769667 0.385823 0.598395
Si Si3 0.464393 0.434073 0.391620
Si Si4 0.150413 0.704476 0.349509
Si Si5 0.064873 0.007100 0.638734
Si Si6 0.361960 0.548213 0.064212
O O1 0.391298 0.671748 0.233818
O O2 0.471795 0.609853 0.194509
O O3 0.381903 0.575724 0.201074
O O4 0.426709 0.612426 0.429751
O O5 0.750000 0.393920 0.750000
O O6 0.727449 0.373528 0.486121
O O7 0.805942 0.335600 0.608047
O O8 0.803484 0.434592 0.555184
O O9 0.436127 0.436127 0.250000
O O10 0.429462 0.461937 0.501412
O O11 0.515657 0.469553 0.379313
O O12 0.489693 0.380071 0.431310
O O13 0.168503 0.750000 0.250000
O O14 0.047543 0.047543 0.750000
#
# Coordination Sequence:
#
# PCOD9563355 Si02
#       6
#    16  16  16  16  16  16
#     4  10  20  30  46  61  83 105 130 164 208 261
#     4  11  24  35  50  62  79 103 139 187 235 278
#     4   9  17  25  41  63  87 106 126 150 188 248
#     4  11  22  37  49  62  78 103 139 184 236 273
#     4   9  15  25  40  61  84 105 124 147 188 243
#     4  10  20  32  44  62  83 104 130 164 210 260
#
# _framework density 14.157204
#
# number of rings (size 3 to 8) (size 9 to 14) (size 15 to 20)
#    0.000    2.000    3.333    1.000   14.000    2.000 
#    0.000    0.000    0.000    0.000    0.000    0.000 
#    0.000    0.000    0.000    0.000    0.000    0.000 
#
# Total GULP energy -534668.432883 kJ/mol
# GULP energy per Si atom -5569.462843 kJ/mol
# Density = 1.412498 g / cm^3
# Si number density = 14.157204 Si / 1000 Ang^3
#
#
#
# Elastic Constant Matrix: (Units=GPa)
#
#
# Indices 1 2 3 4 5 6 
#
# 1 18.4734 20.6245 -5.4062 0.0000 0.0000 0.0000
# 2 20.6245 18.4734 -5.4062 0.0000 0.0000 0.0000
# 3 -5.4062 -5.4062 54.9907 0.0000 0.0000 0.0000
# 4 0.0000 0.0000 0.0000 18.7198 0.0000 0.0000
# 5 0.0000 0.0000 0.0000 0.0000 18.7198 0.0000
# 6 0.0000 0.0000 0.0000 0.0000 0.0000 19.9273
#
#
#
# Elastic Compliance Matrix: (Units=1/GPa)
#
#
# Indices 1 2 3 4 5 6 
#
# 1 -0.219294 0.245585 0.002585 0.000000 0.000000 0.000000
# 2 0.245585 -0.219294 0.002585 0.000000 0.000000 0.000000
# 3 0.002585 0.002585 0.018693 0.000000 0.000000 0.000000
# 4 0.000000 0.000000 0.000000 0.053419 0.000000 0.000000
# 5 0.000000 0.000000 0.000000 0.000000 0.053419 0.000000
# 6 0.000000 0.000000 0.000000 0.000000 0.000000 0.050182
#
#
# Mechanical properties :
#
#
# Convention : Reuss Voigt Hill
#
# Bulk Modulus (GPa) = 12.25256 12.39572 12.32414
# Shear Modulus (GPa) = -6.78262 16.94840 5.08289
#
# Velocity S-wave (km/s) = -2.19119 3.46375 1.89687
# Velocity P-wave (km/s) = 1.50720 4.97710 3.67717
#
# Compressibility (1/GPa) = 0.08161557
#
# Stress axis : x y z
#
# Youngs Moduli (GPa) = -4.56009 -4.56009 53.49559
#
# Poissons Ratio (x) = 1.11989 -0.13827
# Poissons Ratio (y) = 1.11989 -0.13827
# Poissons Ratio (z) = 0.01179 0.01179
#
# Static dielectric constant tensor:
#      x y z
#    x 1.482970 0.000000 0.000000 
#    y 0.000000 1.482970 0.000000 
#    z 0.000000 0.000000 1.522110 
# 
# From -- ./inp_files/1864.got.cif
#   From: 2010.05.17/outbox.cif.g08.bks.cpg/sg126_1_cif.got.tgz:1864.got - 2010.05.20 11:58:20.
