data_PCOD9563650
_publ_section_title
;
Structure prediction by ZEFSAII (Michael W. Deem and Ramdas Pophale) SiO2 
 PCOD9563650
Probable space group: P 4/N N C
;
_chemical_formula_sum "Si O2"
_cell_formula_units_Z 88
_cell_length_a 14.380836
_cell_length_b 14.380836
_cell_length_c 22.298989
_cell_angle_alpha 90.000000
_cell_angle_beta 90.000000
_cell_angle_gamma 90.000000
_cell_volume 4611.619219
_symmetry_space_group_name_H-M "P 4/N N C"
_symmetry_group_IT_number 126
_space_group.IT_coordinate_system_code '2'
_symmetry_cell_setting 'tetragonal'
loop_
_space_group_symop_operation_xyz
x,y,z
1/2-y,x,z
1/2-x,1/2-y,z
y,1/2-x,z
x,1/2-y,1/2-z
1/2-x,y,1/2-z
y,x,1/2-z
1/2-y,1/2-x,1/2-z
-x,-y,-z
1/2+y,-x,-z
1/2+x,1/2+y,-z
-y,1/2+x,-z
-x,1/2+y,1/2+z
1/2+x,-y,1/2+z
-y,-x,1/2+z
1/2+y,1/2+x,1/2+z
loop_
_atom_site_type_symbol
_atom_site_label
_atom_site_fract_x
_atom_site_fract_y
_atom_site_fract_z
Si Si1 0.042705 0.042705 0.250000
Si Si2 0.342446 0.809914 0.905891
Si Si3 0.143390 0.857587 0.230053
Si Si4 0.873880 0.652918 0.861750
Si Si5 0.910570 0.561939 0.509516
Si Si6 0.468557 0.769292 0.494038
O O1 0.102856 0.078640 0.193931
O O2 0.934021 0.071664 0.243789
O O3 0.250000 0.750000 0.894901
O O4 0.368345 0.853256 0.842105
O O5 0.312976 0.890344 0.952029
O O6 0.418518 0.747322 0.941194
O O7 0.124321 0.750000 0.250000
O O8 0.250000 0.878379 0.250000
O O9 0.875430 0.764962 0.860661
O O10 0.925629 0.620332 0.921814
O O11 0.829711 0.508824 0.474788
O O12 0.000000 0.500000 0.500000
O O13 0.942471 0.664518 0.492639
#
# Coordination Sequence:
#
# PCOD9563650 Si02
#       6
#     8  16  16  16  16  16
#     4  12  26  41  68  99 134 172 218 268 334 396
#     4  12  21  43  66  93 127 173 225 272 326 382
#     4  11  25  44  67  97 134 175 220 274 330 392
#     4  11  23  41  66  96 135 171 208 264 334 410
#     4  12  24  40  62  97 132 173 217 265 326 390
#     4  12  24  39  66  95 130 175 217 270 327 395
#
# _framework density 19.082234
#
# number of rings (size 3 to 8) (size 9 to 14) (size 15 to 20)
#    0.000    0.364    7.273    2.727    2.545    2.545 
#    0.000    0.000    0.000    0.273    0.000    0.000 
#    0.000    0.000    0.000    0.000    0.000    0.000 
#
# Total GULP energy -491459.008928 kJ/mol
# GULP energy per Si atom -5584.761465 kJ/mol
# Density = 1.903880 g / cm^3
# Si number density = 19.082234 Si / 1000 Ang^3
#
#
#
# Elastic Constant Matrix: (Units=GPa)
#
#
# Indices 1 2 3 4 5 6 
#
# 1 98.5272 42.8917 15.3618 0.0000 0.0000 0.0000
# 2 42.8917 98.5272 15.3618 0.0000 0.0000 0.0000
# 3 15.3618 15.3618 78.5162 0.0000 0.0000 0.0000
# 4 0.0000 0.0000 0.0000 26.2396 0.0000 0.0000
# 5 0.0000 0.0000 0.0000 0.0000 26.2396 0.0000
# 6 0.0000 0.0000 0.0000 0.0000 0.0000 42.6086
#
#
#
# Elastic Compliance Matrix: (Units=1/GPa)
#
#
# Indices 1 2 3 4 5 6 
#
# 1 0.012680 -0.005295 -0.001445 0.000000 0.000000 0.000000
# 2 -0.005295 0.012680 -0.001445 0.000000 0.000000 0.000000
# 3 -0.001445 -0.001445 0.013302 0.000000 0.000000 0.000000
# 4 0.000000 0.000000 0.000000 0.038110 0.000000 0.000000
# 5 0.000000 0.000000 0.000000 0.000000 0.038110 0.000000
# 6 0.000000 0.000000 0.000000 0.000000 0.000000 0.023469
#
#
# Mechanical properties :
#
#
# Convention : Reuss Voigt Hill
#
# Bulk Modulus (GPa) = 44.85872 46.97789 45.91831
# Shear Modulus (GPa) = 30.83559 32.48125 31.65842
#
# Velocity S-wave (km/s) = 4.02423 4.13022 4.07757
# Velocity P-wave (km/s) = 6.71950 6.88600 6.80326
#
# Compressibility (1/GPa) = 0.02229221
#
# Stress axis : x y z
#
# Youngs Moduli (GPa) = 78.86672 78.86672 75.17880
#
# Poissons Ratio (x) = 0.41756 0.10863
# Poissons Ratio (y) = 0.41756 0.10863
# Poissons Ratio (z) = 0.11395 0.11395
#
# Static dielectric constant tensor:
#      x y z
#    x 1.695920 0.000000 0.000000 
#    y 0.000000 1.695920 0.000000 
#    z 0.000000 0.000000 1.676750 
# 
# From -- ./inp_files/5137.got.cif
#   From: 2010.05.17/outbox.cif.g08.bks.cpg/sg126_3_cif.got.tgz:5137.got - 2010.05.20 11:58:20.
