data_PCOD9563691
_publ_section_title
;
Structure prediction by ZEFSAII (Michael W. Deem and Ramdas Pophale) SiO2 
 PCOD9563691
Probable space group: P 4/N N C
;
_chemical_formula_sum "Si O2"
_cell_formula_units_Z 64
_cell_length_a 10.722179
_cell_length_b 10.722179
_cell_length_c 26.749169
_cell_angle_alpha 90.000000
_cell_angle_beta 90.000000
_cell_angle_gamma 90.000000
_cell_volume 3075.221491
_symmetry_space_group_name_H-M "P 4/N N C"
_symmetry_group_IT_number 126
_space_group.IT_coordinate_system_code '2'
_symmetry_cell_setting 'tetragonal'
loop_
_space_group_symop_operation_xyz
x,y,z
1/2-y,x,z
1/2-x,1/2-y,z
y,1/2-x,z
x,1/2-y,1/2-z
1/2-x,y,1/2-z
y,x,1/2-z
1/2-y,1/2-x,1/2-z
-x,-y,-z
1/2+y,-x,-z
1/2+x,1/2+y,-z
-y,1/2+x,-z
-x,1/2+y,1/2+z
1/2+x,-y,1/2+z
-y,-x,1/2+z
1/2+y,1/2+x,1/2+z
loop_
_atom_site_type_symbol
_atom_site_label
_atom_site_fract_x
_atom_site_fract_y
_atom_site_fract_z
Si Si1 0.839973 0.562076 0.429365
Si Si2 0.931480 0.643699 0.963104
Si Si3 0.017293 0.461720 0.358502
Si Si4 0.604535 0.227901 0.190741
O O1 0.909055 0.694826 0.429399
O O2 0.876205 0.501711 0.483032
O O3 0.880946 0.495783 0.379188
O O4 0.912780 0.792314 0.962796
O O5 0.980608 0.595788 0.910293
O O6 0.089460 0.553268 0.321323
O O7 0.993429 0.325073 0.335298
O O8 0.750000 0.250000 0.175090
O O9 0.599878 0.250000 0.250000
#
# Coordination Sequence:
#
# PCOD9563691 Si02
#       4
#    16  16  16  16
#     4   9  19  34  56  83 116 157 199 238 299 356
#     4   9  17  32  53  85 118 152 189 236 289 359
#     4  12  20  38  62  83 119 158 199 246 305 362
#     4  11  26  43  61  89 119 154 209 263 309 356
#
# _framework density 20.811510999999999
#
# number of rings (size 3 to 8) (size 9 to 14) (size 15 to 20)
#    0.000    1.750    2.500    4.500    0.000    0.500 
#    0.000    1.250    0.000    0.000    0.000   10.500 
#    0.000    0.000    0.000    0.000    0.000    0.000 
#
# Total GULP energy -356278.024500 kJ/mol
# GULP energy per Si atom -5566.844133 kJ/mol
# Density = 2.076414 g / cm^3
# Si number density = 20.811511 Si / 1000 Ang^3
#
#
#
# Elastic Constant Matrix: (Units=GPa)
#
#
# Indices 1 2 3 4 5 6 
#
# 1 40.3737 20.5531 23.7861 0.0000 0.0000 0.0000
# 2 20.5531 40.3737 23.7861 0.0000 0.0000 0.0000
# 3 23.7861 23.7861 95.0090 0.0000 0.0000 0.0000
# 4 0.0000 0.0000 0.0000 24.6369 0.0000 0.0000
# 5 0.0000 0.0000 0.0000 0.0000 24.6369 0.0000
# 6 0.0000 0.0000 0.0000 0.0000 0.0000 35.3162
#
#
#
# Elastic Compliance Matrix: (Units=1/GPa)
#
#
# Indices 1 2 3 4 5 6 
#
# 1 0.035427 -0.015026 -0.005108 0.000000 0.000000 0.000000
# 2 -0.015026 0.035427 -0.005108 0.000000 0.000000 0.000000
# 3 -0.005108 -0.005108 0.013083 0.000000 0.000000 0.000000
# 4 0.000000 0.000000 0.000000 0.040589 0.000000 0.000000
# 5 0.000000 0.000000 0.000000 0.000000 0.040589 0.000000
# 6 0.000000 0.000000 0.000000 0.000000 0.000000 0.028316
#
#
# Mechanical properties :
#
#
# Convention : Reuss Voigt Hill
#
# Bulk Modulus (GPa) = 29.89104 34.66743 32.27924
# Shear Modulus (GPa) = 19.60292 24.09342 21.84817
#
# Velocity S-wave (km/s) = 3.07241 3.40619 3.24360
# Velocity P-wave (km/s) = 5.19425 5.67128 5.43800
#
# Compressibility (1/GPa) = 0.03345484
#
# Stress axis : x y z
#
# Youngs Moduli (GPa) = 28.22721 28.22721 76.43653
#
# Poissons Ratio (x) = 0.42413 0.39040
# Poissons Ratio (y) = 0.42413 0.39040
# Poissons Ratio (z) = 0.14417 0.14417
#
# Static dielectric constant tensor:
#      x y z
#    x 1.778090 0.000000 0.000000 
#    y 0.000000 1.778090 0.000000 
#    z 0.000000 0.000000 1.807320 
# 
# From -- ./inp_files/4935.got.cif
#   From: 2010.05.17/outbox.cif.g08.bks.cpg/sg126_3_cif.got.tgz:4935.got - 2010.05.20 11:58:20.
