data_PCOD9563943
_publ_section_title
;
Structure prediction by ZEFSAII (Michael W. Deem and Ramdas Pophale) SiO2 
 PCOD9563943
Probable space group: P 4/M B M
;
_chemical_formula_sum "Si O2"
_cell_formula_units_Z 96
_cell_length_a 21.025890
_cell_length_b 21.025890
_cell_length_c 11.793745
_cell_angle_alpha 90.000000
_cell_angle_beta 90.000000
_cell_angle_gamma 90.000000
_cell_volume 5213.873733
_symmetry_space_group_name_H-M "P 4/M B M"
_symmetry_group_IT_number 127
_symmetry_cell_setting 'tetragonal'
loop_
_space_group_symop_operation_xyz
x,y,z
-y,x,z
-x,-y,z
y,-x,z
1/2+x,1/2-y,-z
1/2-x,1/2+y,-z
1/2+y,1/2+x,-z
1/2-y,1/2-x,-z
-x,-y,-z
y,-x,-z
x,y,-z
-y,x,-z
1/2-x,1/2+y,z
1/2+x,1/2-y,z
1/2-y,1/2-x,z
1/2+y,1/2+x,z
loop_
_atom_site_type_symbol
_atom_site_label
_atom_site_fract_x
_atom_site_fract_y
_atom_site_fract_z
Si Si1 0.487535 0.880859 0.000000
Si Si2 0.599437 0.717872 0.861683
Si Si3 0.077336 0.316652 0.365054
Si Si4 0.887855 0.721031 0.000000
Si Si5 0.949475 0.350231 0.769747
Si Si6 0.018436 0.899789 0.136877
Si Si7 0.837144 0.771460 0.227121
O O1 0.455606 0.811220 0.000000
O O2 0.523597 0.883473 0.117435
O O3 0.434012 0.934012 0.000000
O O4 0.586054 0.788099 0.817319
O O5 0.539955 0.671249 0.836632
O O6 0.658320 0.689885 0.789719
O O7 0.611361 0.717445 0.000000
O O8 0.070483 0.316053 0.500000
O O9 0.124957 0.375043 0.332420
O O10 0.114521 0.253186 0.323520
O O11 0.009712 0.329138 0.305712
O O12 0.876075 0.760173 0.888262
O O13 0.835432 0.664569 0.000000
O O14 0.899391 0.399391 0.714375
O O15 0.950593 0.927547 0.175229
O O16 0.016872 0.902609 0.000000
O O17 0.777183 0.722818 0.229659
#
# Coordination Sequence:
#
# PCOD9563943 Si02
#       7
#     8  16  16   8  16  16  16
#     4  11  21  35  55  84 123 165 203 247 304 365
#     4  11  22  33  54  88 129 166 192 231 303 384
#     4  10  23  44  67  87 110 153 217 275 310 349
#     4   9  16  28  52  83 113 145 188 239 290 351
#     4  12  25  38  55  87 129 163 201 253 311 378
#     4   8  16  30  47  73 111 152 193 233 274 336
#     4  10  19  34  57  85 117 152 194 241 295 362
#
# _framework density 18.412413999999998
#
# number of rings (size 3 to 8) (size 9 to 14) (size 15 to 20)
#    0.000    1.833    3.333    1.750    2.333    2.667 
#    0.000    1.667    0.000    2.000    0.000    0.000 
#    0.000    1.333    0.000    0.000    0.000    0.000 
#
# Total GULP energy -535274.591919 kJ/mol
# GULP energy per Si atom -5575.776999 kJ/mol
# Density = 1.837051 g / cm^3
# Si number density = 18.412414 Si / 1000 Ang^3
#
#
#
# Elastic Constant Matrix: (Units=GPa)
#
#
# Indices 1 2 3 4 5 6 
#
# 1 67.7115 44.1360 23.0267 0.0000 0.0000 0.0000
# 2 44.1360 67.7178 23.0284 0.0000 0.0000 0.0000
# 3 23.0267 23.0284 52.2017 0.0000 0.0000 0.0000
# 4 0.0000 0.0000 0.0000 -86.6776 0.0000 0.0000
# 5 0.0000 0.0000 0.0000 0.0000 -86.5536 0.0000
# 6 0.0000 0.0000 0.0000 0.0000 0.0000 32.2532
#
#
#
# Elastic Compliance Matrix: (Units=1/GPa)
#
#
# Indices 1 2 3 4 5 6 
#
# 1 0.026669 -0.015743 -0.004819 0.000000 0.000000 0.000000
# 2 -0.015743 0.026667 -0.004819 0.000000 0.000000 0.000000
# 3 -0.004819 -0.004819 0.023408 0.000000 0.000000 0.000000
# 4 0.000000 0.000000 0.000000 -0.011537 0.000000 0.000000
# 5 0.000000 0.000000 0.000000 0.000000 -0.011554 0.000000
# 6 0.000000 0.000000 0.000000 0.000000 0.000000 0.031005
#
#
# Mechanical properties :
#
#
# Convention : Reuss Voigt Hill
#
# Bulk Modulus (GPa) = 38.48967 40.89033 39.69000
# Shear Modulus (GPa) = 34.70244 -21.69959 6.50142
#
# Velocity S-wave (km/s) = 4.34606 -3.43670 1.88113
# Velocity P-wave (km/s) = 6.79219 2.55115 5.13041
#
# Compressibility (1/GPa) = 0.02598100
#
# Stress axis : x y z
#
# Youngs Moduli (GPa) = 37.49652 37.49962 42.71999
#
# Poissons Ratio (x) = 0.59036 0.20587
# Poissons Ratio (y) = 0.59032 0.20589
# Poissons Ratio (z) = 0.18070 0.18073
#
# Static dielectric constant tensor:
#      x y z
#    x 1.677590 0.000000 0.000000 
#    y 0.000000 1.677590 0.000000 
#    z 0.000000 0.000000 1.601330 
# 
# From -- ./inp_files/3612.got.cif
#   From: 2010.05.17/outbox.cif.g08.bks.cpg/sg127_2_cif.got.tgz:3612.got - 2010.05.20 12:03:00.
