data_PCOD9563825
_publ_section_title
;
Structure prediction by ZEFSAII (Michael W. Deem and Ramdas Pophale) SiO2 
 PCOD9563825
Probable space group: P 4/M B M
;
_chemical_formula_sum "Si O2"
_cell_formula_units_Z 120
_cell_length_a 21.212999
_cell_length_b 21.212999
_cell_length_c 15.896350
_cell_angle_alpha 90.000000
_cell_angle_beta 90.000000
_cell_angle_gamma 90.000000
_cell_volume 7153.219624
_symmetry_space_group_name_H-M "P 4/M B M"
_symmetry_group_IT_number 127
_symmetry_cell_setting 'tetragonal'
loop_
_space_group_symop_operation_xyz
x,y,z
-y,x,z
-x,-y,z
y,-x,z
1/2+x,1/2-y,-z
1/2-x,1/2+y,-z
1/2+y,1/2+x,-z
1/2-y,1/2-x,-z
-x,-y,-z
y,-x,-z
x,y,-z
-y,x,-z
1/2-x,1/2+y,z
1/2+x,1/2-y,z
1/2-y,1/2-x,z
1/2+y,1/2+x,z
loop_
_atom_site_type_symbol
_atom_site_label
_atom_site_fract_x
_atom_site_fract_y
_atom_site_fract_z
Si Si1 0.872904 0.148792 0.245605
Si Si2 0.603180 0.999996 0.317787
Si Si3 0.773985 0.488448 0.593756
Si Si4 0.656114 0.737698 0.401822
Si Si5 0.515716 0.308853 0.750777
Si Si6 0.500727 0.894739 0.000000
Si Si7 0.974786 0.311459 0.156521
Si Si8 0.744367 0.348159 0.098474
O O1 0.846667 0.184035 0.329867
O O2 0.850907 0.077090 0.240687
O O3 0.849054 0.186774 0.163522
O O4 0.948822 0.155333 0.246487
O O5 0.554436 0.945565 0.342537
O O6 0.655433 0.011183 0.388327
O O7 0.561568 0.061568 0.297933
O O8 0.643258 0.976630 0.237455
O O9 0.753523 0.503194 0.500000
O O10 0.771634 0.412311 0.604821
O O11 0.727296 0.517310 0.661797
O O12 0.661667 0.715961 0.500000
O O13 0.711845 0.788156 0.386283
O O14 0.511183 0.252567 0.819169
O O15 0.496702 0.850956 0.080941
O O16 0.567066 0.932935 0.000000
O O17 0.446785 0.946785 0.000000
O O18 0.905054 0.289643 0.129535
O O19 0.784066 0.284066 0.104238
O O20 0.727857 0.358719 0.000000
#
# Coordination Sequence:
#
# PCOD9563825 Si02
#       8
#    16  16  16  16  16   8  16  16
#     4  10  20  37  55  80 107 138 171 219 269 323
#     4  10  19  29  44  70 106 146 184 216 249 299
#     4   9  18  33  52  74 102 136 175 219 265 308
#     4   9  17  31  55  83 106 133 175 222 265 310
#     4   9  21  37  57  76 101 135 171 216 275 324
#     4  11  20  30  50  78 108 141 176 210 244 297
#     4  10  19  34  52  74 103 138 173 216 262 305
#     4  10  19  33  56  83 104 130 174 221 263 307
#
# _framework density 16.775663999999999
#
# number of rings (size 3 to 8) (size 9 to 14) (size 15 to 20)
#    0.000    2.333    0.667    3.200    0.000    2.933 
#    1.200    7.333    0.000    0.000    0.000    5.600 
#    0.000    0.000    0.000    0.000    0.000    0.000 
#
# Total GULP energy -669025.354107 kJ/mol
# GULP energy per Si atom -5575.211284 kJ/mol
# Density = 1.673748 g / cm^3
# Si number density = 16.775664 Si / 1000 Ang^3
#
#
#
# Elastic Constant Matrix: (Units=GPa)
#
#
# Indices 1 2 3 4 5 6 
#
# 1 86.2539 67.1127 48.0524 0.0000 0.0000 0.0000
# 2 67.1127 86.2556 48.0528 0.0000 0.0000 0.0000
# 3 48.0524 48.0528 103.9041 0.0000 0.0000 0.0000
# 4 0.0000 0.0000 0.0000 18.5508 0.0000 0.0000
# 5 0.0000 0.0000 0.0000 0.0000 18.5515 0.0000
# 6 0.0000 0.0000 0.0000 0.0000 0.0000 21.8146
#
#
#
# Elastic Compliance Matrix: (Units=1/GPa)
#
#
# Indices 1 2 3 4 5 6 
#
# 1 0.030711 -0.021530 -0.004246 0.000000 0.000000 0.000000
# 2 -0.021530 0.030711 -0.004246 0.000000 0.000000 0.000000
# 3 -0.004246 -0.004246 0.013551 0.000000 0.000000 0.000000
# 4 0.000000 0.000000 0.000000 0.053906 0.000000 0.000000
# 5 0.000000 0.000000 0.000000 0.000000 0.053904 0.000000
# 6 0.000000 0.000000 0.000000 0.000000 0.000000 0.045841
#
#
# Mechanical properties :
#
#
# Convention : Reuss Voigt Hill
#
# Bulk Modulus (GPa) = 66.98065 66.98327 66.98196
# Shear Modulus (GPa) = 17.02740 19.32976 18.17858
#
# Velocity S-wave (km/s) = 3.18937 3.39816 3.29542
# Velocity P-wave (km/s) = 7.31961 7.44394 7.38204
#
# Compressibility (1/GPa) = 0.01492968
#
# Stress axis : x y z
#
# Youngs Moduli (GPa) = 32.56136 32.56207 73.79267
#
# Poissons Ratio (x) = 0.70106 0.31332
# Poissons Ratio (y) = 0.70105 0.31331
# Poissons Ratio (z) = 0.13825 0.13825
#
# Static dielectric constant tensor:
#      x y z
#    x 1.548970 0.000000 0.000000 
#    y 0.000000 1.548970 0.000000 
#    z 0.000000 0.000000 1.645460 
# 
# From -- ./inp_files/4636.got.cif
#   From: 2010.05.17/outbox.cif.g08.bks.cpg/sg127_3_cif.got.tgz:4636.got - 2010.05.20 12:03:00.
