data_PCOD9563111
_publ_section_title
;
Structure prediction by ZEFSAII (Michael W. Deem and Ramdas Pophale) SiO2 
 PCOD9563111
Probable space group: P 4/N B M
;
_chemical_formula_sum "Si O2"
_cell_formula_units_Z 88
_cell_length_a 11.982963
_cell_length_b 11.982963
_cell_length_c 28.991943
_cell_angle_alpha 90.000000
_cell_angle_beta 90.000000
_cell_angle_gamma 90.000000
_cell_volume 4162.993750
_symmetry_space_group_name_H-M "P 4/N B M"
_symmetry_group_IT_number 125
_space_group.IT_coordinate_system_code '2'
_symmetry_cell_setting 'tetragonal'
loop_
_space_group_symop_operation_xyz
x,y,z
1/2-y,x,z
1/2-x,1/2-y,z
y,1/2-x,z
x,1/2-y,-z
1/2-x,y,-z
y,x,-z
1/2-y,1/2-x,-z
-x,-y,-z
1/2+y,-x,-z
1/2+x,1/2+y,-z
-y,1/2+x,-z
-x,1/2+y,z
1/2+x,-y,z
-y,-x,z
1/2+y,1/2+x,z
loop_
_atom_site_type_symbol
_atom_site_label
_atom_site_fract_x
_atom_site_fract_y
_atom_site_fract_z
Si Si1 0.065561 0.287632 0.588376
Si Si2 0.925881 0.250000 0.500000
Si Si3 0.256923 0.566344 0.881817
Si Si4 0.661591 0.521543 0.967766
Si Si5 0.436866 0.278484 0.211432
Si Si6 0.563165 0.783194 0.311935
O O1 0.123815 0.166125 0.587072
O O2 0.005805 0.296475 0.638320
O O3 0.995299 0.298097 0.542341
O O4 0.846871 0.153130 0.519332
O O5 0.364406 0.635595 0.898945
O O6 0.155775 0.655775 0.878477
O O7 0.219958 0.470915 0.918043
O O8 0.283796 0.516906 0.832030
O O9 0.551739 0.448262 0.960245
O O10 0.750000 0.457487 0.000000
O O11 0.624648 0.624648 0.000000
O O12 0.340209 0.372217 0.209033
O O13 0.493411 0.290362 0.261963
O O14 0.626272 0.663588 0.311981
#
# Coordination Sequence:
#
# PCOD9563111 Si02
#       6
#    16   8  16  16  16  16
#     4   9  17  32  57  82 101 129 177 230 278 325
#     4  11  24  37  46  66 106 149 182 219 274 332
#     4  10  22  38  56  80 111 148 186 223 268 322
#     4  10  22  39  59  82 107 140 180 220 266 317
#     4   9  18  33  56  85 114 143 179 220 271 323
#     4   7  12  27  51  79 108 135 168 220 274 323
#
# _framework density 21.138632999999999
#
# number of rings (size 3 to 8) (size 9 to 14) (size 15 to 20)
#    0.000    2.818    0.000    3.273    2.545    4.000 
#    0.000    1.818    0.000    8.727    0.000    0.000 
#    0.000    0.000    0.000    0.000    0.000    0.000 
#
# Total GULP energy -490303.763448 kJ/mol
# GULP energy per Si atom -5571.633676 kJ/mol
# Density = 2.109052 g / cm^3
# Si number density = 21.138633 Si / 1000 Ang^3
#
#
#
# Elastic Constant Matrix: (Units=GPa)
#
#
# Indices 1 2 3 4 5 6 
#
# 1 47.2386 6.1585 26.1110 0.0000 0.0000 0.0000
# 2 6.1585 47.2386 26.1110 0.0000 0.0000 0.0000
# 3 26.1110 26.1110 146.2969 0.0000 0.0000 0.0000
# 4 0.0000 0.0000 0.0000 5.6600 0.0000 0.0000
# 5 0.0000 0.0000 0.0000 0.0000 5.6600 0.0000
# 6 0.0000 0.0000 0.0000 0.0000 0.0000 -28.2245
#
#
#
# Elastic Compliance Matrix: (Units=1/GPa)
#
#
# Indices 1 2 3 4 5 6 
#
# 1 0.023515 -0.000827 -0.004049 0.000000 0.000000 0.000000
# 2 -0.000827 0.023515 -0.004049 0.000000 0.000000 0.000000
# 3 -0.004049 -0.004049 0.008281 0.000000 0.000000 0.000000
# 4 0.000000 0.000000 0.000000 0.176677 0.000000 0.000000
# 5 0.000000 0.000000 0.000000 0.000000 0.176677 0.000000
# 6 0.000000 0.000000 0.000000 0.000000 0.000000 -0.035430
#
#
# Mechanical properties :
#
#
# Convention : Reuss Voigt Hill
#
# Bulk Modulus (GPa) = 26.69570 39.72614 33.21092
# Shear Modulus (GPa) = 12.38929 8.77869 10.58399
#
# Velocity S-wave (km/s) = 2.42357 2.04008 2.24005
# Velocity P-wave (km/s) = 4.52635 4.93793 4.73662
#
# Compressibility (1/GPa) = 0.03745922
#
# Stress axis : x y z
#
# Youngs Moduli (GPa) = 42.52563 42.52563 120.76047
#
# Poissons Ratio (x) = 0.03519 0.48900
# Poissons Ratio (y) = 0.03519 0.48900
# Poissons Ratio (z) = 0.17220 0.17220
#
# Static dielectric constant tensor:
#      x y z
#    x 1.772520 0.000000 0.000000 
#    y 0.000000 1.772520 0.000000 
#    z 0.000000 0.000000 1.795070 
# 
# From -- ./inp_files/6548.got.cif
#   From: 2010.05.17/outbox.cif.g08.bks.cpg/sg125_4_cif.got.tgz:6548.got - 2010.05.20 11:54:10.
