data_PCOD9563661
_publ_section_title
;
Structure prediction by ZEFSAII (Michael W. Deem and Ramdas Pophale) SiO2 
 PCOD9563661
Probable space group: P 4/N N C
;
_chemical_formula_sum "Si O2"
_cell_formula_units_Z 56
_cell_length_a 11.823055
_cell_length_b 11.823055
_cell_length_c 17.697085
_cell_angle_alpha 90.000000
_cell_angle_beta 90.000000
_cell_angle_gamma 90.000000
_cell_volume 2473.780471
_symmetry_space_group_name_H-M "P 4/N N C"
_symmetry_group_IT_number 126
_space_group.IT_coordinate_system_code '2'
_symmetry_cell_setting 'tetragonal'
loop_
_space_group_symop_operation_xyz
x,y,z
1/2-y,x,z
1/2-x,1/2-y,z
y,1/2-x,z
x,1/2-y,1/2-z
1/2-x,y,1/2-z
y,x,1/2-z
1/2-y,1/2-x,1/2-z
-x,-y,-z
1/2+y,-x,-z
1/2+x,1/2+y,-z
-y,1/2+x,-z
-x,1/2+y,1/2+z
1/2+x,-y,1/2+z
-y,-x,1/2+z
1/2+y,1/2+x,1/2+z
loop_
_atom_site_type_symbol
_atom_site_label
_atom_site_fract_x
_atom_site_fract_y
_atom_site_fract_z
Si Si1 0.940684 0.744583 0.163479
Si Si2 0.904230 0.636244 0.910638
Si Si3 0.085306 0.688146 0.021683
Si Si4 0.386205 0.113796 0.250000
O O1 0.861343 0.854784 0.153399
O O2 0.982439 0.750000 0.250000
O O3 0.036567 0.731130 0.100965
O O4 0.897281 0.773301 0.914099
O O5 0.941354 0.582574 0.829953
O O6 0.990809 0.616504 0.977658
O O7 0.118890 0.799027 0.973008
O O8 0.402266 0.250000 0.250000
#
# Coordination Sequence:
#
# PCOD9563661 Si02
#       4
#    16  16  16   8
#     4   9  19  39  66  90 112 145 196 253 298 343
#     4   9  17  32  56  83 110 141 182 234 286 340
#     4  11  24  39  53  80 122 162 197 234 285 347
#     4   7  12  26  48  78 110 130 158 211 278 337
#
# _framework density 22.637418
#
# number of rings (size 3 to 8) (size 9 to 14) (size 15 to 20)
#    0.000    2.714    0.000    4.286    0.000    6.857 
#    0.000   14.286    0.000   17.143    0.000    0.000 
#    0.000    0.000    0.000    0.000    0.000    0.000 
#
# Total GULP energy -312322.633591 kJ/mol
# GULP energy per Si atom -5577.189886 kJ/mol
# Density = 2.258589 g / cm^3
# Si number density = 22.637418 Si / 1000 Ang^3
#
#
#
# Elastic Constant Matrix: (Units=GPa)
#
#
# Indices 1 2 3 4 5 6 
#
# 1 91.6487 17.4794 61.9851 0.0000 0.0000 0.0000
# 2 17.4794 91.6492 61.9852 0.0000 0.0000 0.0000
# 3 61.9851 61.9852 132.4031 0.0000 0.0000 0.0000
# 4 0.0000 0.0000 0.0000 4.2804 0.0000 0.0000
# 5 0.0000 0.0000 0.0000 0.0000 4.2803 0.0000
# 6 0.0000 0.0000 0.0000 0.0000 0.0000 -9.7168
#
#
#
# Elastic Compliance Matrix: (Units=1/GPa)
#
#
# Indices 1 2 3 4 5 6 
#
# 1 0.016528 0.003045 -0.009163 0.000000 0.000000 0.000000
# 2 0.003045 0.016528 -0.009163 0.000000 0.000000 0.000000
# 3 -0.009163 -0.009163 0.016132 0.000000 0.000000 0.000000
# 4 0.000000 0.000000 0.000000 0.233620 0.000000 0.000000
# 5 0.000000 0.000000 0.000000 0.000000 0.233629 0.000000
# 6 0.000000 0.000000 0.000000 0.000000 0.000000 -0.102914
#
#
# Mechanical properties :
#
#
# Convention : Reuss Voigt Hill
#
# Bulk Modulus (GPa) = 53.68999 66.51117 60.10058
# Shear Modulus (GPa) = 11.10386 11.38553 11.24469
#
# Velocity S-wave (km/s) = 2.21715 2.24509 2.23116
# Velocity P-wave (km/s) = 5.50665 6.01377 5.76579
#
# Compressibility (1/GPa) = 0.01862545
#
# Stress axis : x y z
#
# Youngs Moduli (GPa) = 60.50401 60.50444 61.98766
#
# Poissons Ratio (x) = -0.18424 0.56800
# Poissons Ratio (y) = -0.18424 0.56800
# Poissons Ratio (z) = 0.55441 0.55441
#
# Static dielectric constant tensor:
#      x y z
#    x 1.838480 0.000000 0.000000 
#    y 0.000000 1.838480 0.000000 
#    z 0.000000 0.000000 1.928440 
# 
# From -- ./inp_files/4882.got.cif
#   From: 2010.05.17/outbox.cif.g08.bks.cpg/sg126_3_cif.got.tgz:4882.got - 2010.05.20 11:58:20.
