data_PCOD9563907
_publ_section_title
;
Structure prediction by ZEFSAII (Michael W. Deem and Ramdas Pophale) SiO2 
 PCOD9563907
Probable space group: P 4/M B M
;
_chemical_formula_sum "Si O2"
_cell_formula_units_Z 120
_cell_length_a 17.728138
_cell_length_b 17.728138
_cell_length_c 22.865756
_cell_angle_alpha 90.000000
_cell_angle_beta 90.000000
_cell_angle_gamma 90.000000
_cell_volume 7186.407042
_symmetry_space_group_name_H-M "P 4/M B M"
_symmetry_group_IT_number 127
_symmetry_cell_setting 'tetragonal'
loop_
_space_group_symop_operation_xyz
x,y,z
-y,x,z
-x,-y,z
y,-x,z
1/2+x,1/2-y,-z
1/2-x,1/2+y,-z
1/2+y,1/2+x,-z
1/2-y,1/2-x,-z
-x,-y,-z
y,-x,-z
x,y,-z
-y,x,-z
1/2-x,1/2+y,z
1/2+x,1/2-y,z
1/2-y,1/2-x,z
1/2+y,1/2+x,z
loop_
_atom_site_type_symbol
_atom_site_label
_atom_site_fract_x
_atom_site_fract_y
_atom_site_fract_z
Si Si1 0.121172 0.983086 0.070340
Si Si2 0.176461 0.805802 0.433501
Si Si3 0.223389 0.405370 0.355358
Si Si4 0.110810 0.735387 0.781181
Si Si5 0.728953 0.646758 0.232722
Si Si6 0.435997 0.935997 0.070416
Si Si7 0.701790 0.922491 0.354698
Si Si8 0.721814 0.032366 0.864894
O O1 0.204465 0.972147 0.094491
O O2 0.062411 0.917397 0.088488
O O3 0.123353 0.982733 0.000000
O O4 0.152341 0.820253 0.500000
O O5 0.241379 0.741379 0.434810
O O6 0.216527 0.876543 0.402902
O O7 0.112130 0.769849 0.392872
O O8 0.153756 0.346245 0.354788
O O9 0.264569 0.401099 0.292068
O O10 0.194357 0.489216 0.366451
O O11 0.174573 0.674573 0.798196
O O12 0.147743 0.818673 0.782621
O O13 0.089142 0.719642 0.713886
O O14 0.041289 0.723427 0.824007
O O15 0.780287 0.719714 0.245878
O O16 0.764842 0.601878 0.179189
O O17 0.459450 0.855995 0.099458
O O18 0.500000 0.000000 0.081766
O O19 0.428424 0.928424 0.000000
O O20 0.627356 0.872645 0.367753
#
# Coordination Sequence:
#
# PCOD9563907 Si02
#       8
#    16  16  16  16  16   8  16  16
#     4   9  19  36  57  81 108 138 177 229 286 338
#     4   9  18  34  56  77 102 146 198 232 265 331
#     4  10  19  33  53  79 114 147 181 228 284 334
#     4  10  20  33  52  78 112 142 176 229 281 329
#     4  10  19  33  51  79 110 140 177 227 282 327
#     4  11  26  44  58  78 118 164 199 232 278 344
#     4  10  19  33  52  80 113 147 182 227 283 334
#     4  12  20  35  57  85 105 146 188 230 274 342
#
# _framework density 16.698191000000001
#
# number of rings (size 3 to 8) (size 9 to 14) (size 15 to 20)
#    0.000    1.933    3.333    2.000    0.000    0.800 
#    0.000    0.000    0.000    0.400    0.000    4.667 
#    0.000    0.000    0.000    0.000    0.000    0.000 
#
# Total GULP energy -668895.959005 kJ/mol
# GULP energy per Si atom -5574.132992 kJ/mol
# Density = 1.666019 g / cm^3
# Si number density = 16.698191 Si / 1000 Ang^3
#
#
#
# Elastic Constant Matrix: (Units=GPa)
#
#
# Indices 1 2 3 4 5 6 
#
# 1 89.1999 50.6136 34.2069 0.0000 0.0000 0.0000
# 2 50.6136 89.1999 34.2069 0.0000 0.0000 0.0000
# 3 34.2069 34.2069 79.2090 0.0000 0.0000 0.0000
# 4 0.0000 0.0000 0.0000 13.3805 0.0000 0.0000
# 5 0.0000 0.0000 0.0000 0.0000 13.3805 0.0000
# 6 0.0000 0.0000 0.0000 0.0000 0.0000 19.1216
#
#
#
# Elastic Compliance Matrix: (Units=1/GPa)
#
#
# Indices 1 2 3 4 5 6 
#
# 1 0.017492 -0.008424 -0.003916 0.000000 0.000000 0.000000
# 2 -0.008424 0.017492 -0.003916 0.000000 0.000000 0.000000
# 3 -0.003916 -0.003916 0.016007 0.000000 0.000000 0.000000
# 4 0.000000 0.000000 0.000000 0.074736 0.000000 0.000000
# 5 0.000000 0.000000 0.000000 0.000000 0.074736 0.000000
# 6 0.000000 0.000000 0.000000 0.000000 0.000000 0.052297
#
#
# Mechanical properties :
#
#
# Convention : Reuss Voigt Hill
#
# Bulk Modulus (GPa) = 54.11436 55.07376 54.59406
# Shear Modulus (GPa) = 17.15662 18.41529 17.78595
#
# Velocity S-wave (km/s) = 3.20887 3.32449 3.26719
# Velocity P-wave (km/s) = 6.79756 6.91302 6.85553
#
# Compressibility (1/GPa) = 0.01847938
#
# Stress axis : x y z
#
# Youngs Moduli (GPa) = 57.16781 57.16781 62.47082
#
# Poissons Ratio (x) = 0.48156 0.24466
# Poissons Ratio (y) = 0.48156 0.24466
# Poissons Ratio (z) = 0.22389 0.22389
#
# Static dielectric constant tensor:
#      x y z
#    x 1.559880 0.000000 0.000000 
#    y 0.000000 1.559880 0.000000 
#    z 0.000000 0.000000 1.557810 
# 
# From -- ./inp_files/5972.got.cif
#   From: 2010.05.17/outbox.cif.g08.bks.cpg/sg127_3_cif.got.tgz:5972.got - 2010.05.20 12:03:00.
