data_PCOD9563402
_publ_section_title
;
Structure prediction by ZEFSAII (Michael W. Deem and Ramdas Pophale) SiO2 
 PCOD9563402
Probable space group: P 4/N N C
;
_chemical_formula_sum "Si O2"
_cell_formula_units_Z 112
_cell_length_a 16.142049
_cell_length_b 16.142049
_cell_length_c 20.584372
_cell_angle_alpha 90.000000
_cell_angle_beta 90.000000
_cell_angle_gamma 90.000000
_cell_volume 5363.582244
_symmetry_space_group_name_H-M "P 4/N N C"
_symmetry_group_IT_number 126
_space_group.IT_coordinate_system_code '2'
_symmetry_cell_setting 'tetragonal'
loop_
_space_group_symop_operation_xyz
x,y,z
1/2-y,x,z
1/2-x,1/2-y,z
y,1/2-x,z
x,1/2-y,1/2-z
1/2-x,y,1/2-z
y,x,1/2-z
1/2-y,1/2-x,1/2-z
-x,-y,-z
1/2+y,-x,-z
1/2+x,1/2+y,-z
-y,1/2+x,-z
-x,1/2+y,1/2+z
1/2+x,-y,1/2+z
-y,-x,1/2+z
1/2+y,1/2+x,1/2+z
loop_
_atom_site_type_symbol
_atom_site_label
_atom_site_fract_x
_atom_site_fract_y
_atom_site_fract_z
Si Si1 0.103327 0.530598 0.565980
Si Si2 0.000045 0.052935 0.817670
Si Si3 0.210011 0.531547 0.083314
Si Si4 0.110622 0.924164 0.075175
Si Si5 0.760858 0.883674 0.672464
Si Si6 0.372732 0.190394 0.670320
Si Si7 0.972470 0.786561 0.052380
O O1 0.051582 0.484775 0.621634
O O2 0.084864 0.627109 0.579222
O O3 0.088336 0.518418 0.487801
O O4 0.196733 0.501539 0.574945
O O5 0.005330 0.005330 0.750000
O O6 0.045705 0.141764 0.804281
O O7 0.910399 0.049884 0.851044
O O8 0.291304 0.586984 0.070661
O O9 0.222242 0.474916 0.145836
O O10 0.209044 0.464815 0.024491
O O11 0.050327 0.846261 0.066948
O O12 0.676347 0.836846 0.651235
O O13 0.750000 0.885349 0.750000
O O14 0.357136 0.287260 0.686487
O O15 0.391793 0.189329 0.592910
#
# Coordination Sequence:
#
# PCOD9563402 Si02
#       7
#    16  16  16  16  16  16  16
#     4  10  20  39  60  85 117 155 195 245 298 350
#     4  11  23  38  59  86 119 160 198 245 298 351
#     4  10  21  34  61  88 111 153 197 237 296 361
#     4   9  21  39  59  85 118 153 197 243 296 355
#     4   9  20  38  55  76 115 155 192 243 296 346
#     4  10  20  37  59  85 118 156 198 241 291 349
#     4   9  19  38  59  85 119 151 192 248 293 345
#
# _framework density 20.881564999999998
#
# number of rings (size 3 to 8) (size 9 to 14) (size 15 to 20)
#    0.000    2.286    1.429    0.857    2.000    3.429 
#    0.000    5.000    0.000    0.000    0.000    3.000 
#    0.000    0.000    0.000    0.000    0.000    0.000 
#
# Total GULP energy -623913.868399 kJ/mol
# GULP energy per Si atom -5570.659539 kJ/mol
# Density = 2.083404 g / cm^3
# Si number density = 20.881565 Si / 1000 Ang^3
#
#
#
# Elastic Constant Matrix: (Units=GPa)
#
#
# Indices 1 2 3 4 5 6 
#
# 1 79.6587 11.9829 20.8715 0.0000 0.0000 0.0000
# 2 11.9829 79.6587 20.8715 0.0000 0.0000 0.0000
# 3 20.8715 20.8715 83.1934 0.0000 0.0000 0.0000
# 4 0.0000 0.0000 0.0000 23.1766 0.0000 0.0000
# 5 0.0000 0.0000 0.0000 0.0000 23.1766 0.0000
# 6 0.0000 0.0000 0.0000 0.0000 0.0000 17.8339
#
#
#
# Elastic Compliance Matrix: (Units=1/GPa)
#
#
# Indices 1 2 3 4 5 6 
#
# 1 0.013548 -0.001228 -0.003091 0.000000 0.000000 0.000000
# 2 -0.001228 0.013548 -0.003091 0.000000 0.000000 0.000000
# 3 -0.003091 -0.003091 0.013571 0.000000 0.000000 0.000000
# 4 0.000000 0.000000 0.000000 0.043147 0.000000 0.000000
# 5 0.000000 0.000000 0.000000 0.000000 0.043147 0.000000
# 6 0.000000 0.000000 0.000000 0.000000 0.000000 0.056073
#
#
# Mechanical properties :
#
#
# Convention : Reuss Voigt Hill
#
# Bulk Modulus (GPa) = 38.68823 38.88473 38.78648
# Shear Modulus (GPa) = 24.21663 25.42309 24.81986
#
# Velocity S-wave (km/s) = 3.40915 3.49304 3.45135
# Velocity P-wave (km/s) = 5.83645 5.91020 5.87344
#
# Compressibility (1/GPa) = 0.02584765
#
# Stress axis : x y z
#
# Youngs Moduli (GPa) = 73.81085 73.81085 73.68645
#
# Poissons Ratio (x) = 0.09065 0.22775
# Poissons Ratio (y) = 0.09065 0.22775
# Poissons Ratio (z) = 0.22814 0.22814
#
# Static dielectric constant tensor:
#      x y z
#    x 1.762890 0.000000 0.000000 
#    y 0.000000 1.762890 0.000000 
#    z 0.000000 0.000000 1.841180 
# 
# From -- ./inp_files/5409.got.cif
#   From: 2010.05.17/outbox.cif.g08.bks.cpg/sg126_3_cif.got.tgz:5409.got - 2010.05.20 11:58:20.
