data_PCOD9563676
_publ_section_title
;
Structure prediction by ZEFSAII (Michael W. Deem and Ramdas Pophale) SiO2 
 PCOD9563676
Probable space group: P 4/N N C
;
_chemical_formula_sum "Si O2"
_cell_formula_units_Z 40
_cell_length_a 12.399824
_cell_length_b 12.399824
_cell_length_c 12.011944
_cell_angle_alpha 90.000000
_cell_angle_beta 90.000000
_cell_angle_gamma 90.000000
_cell_volume 1846.904080
_symmetry_space_group_name_H-M "P 4/N N C"
_symmetry_group_IT_number 126
_space_group.IT_coordinate_system_code '2'
_symmetry_cell_setting 'tetragonal'
loop_
_space_group_symop_operation_xyz
x,y,z
1/2-y,x,z
1/2-x,1/2-y,z
y,1/2-x,z
x,1/2-y,1/2-z
1/2-x,y,1/2-z
y,x,1/2-z
1/2-y,1/2-x,1/2-z
-x,-y,-z
1/2+y,-x,-z
1/2+x,1/2+y,-z
-y,1/2+x,-z
-x,1/2+y,1/2+z
1/2+x,-y,1/2+z
-y,-x,1/2+z
1/2+y,1/2+x,1/2+z
loop_
_atom_site_type_symbol
_atom_site_label
_atom_site_fract_x
_atom_site_fract_y
_atom_site_fract_z
Si Si1 0.083160 0.189024 0.976100
Si Si2 0.250000 0.981529 0.750000
Si Si3 0.033327 0.866407 0.808638
O O1 0.188009 0.117229 0.998689
O O2 0.994416 0.148575 0.061531
O O3 0.049920 0.192790 0.847400
O O4 0.154273 0.909787 0.799140
O O5 0.022021 0.750000 0.750000
O O6 0.950033 0.950033 0.750000
#
# Coordination Sequence:
#
# PCOD9563676 Si02
#       3
#    16   8  16
#     4  11  24  46  77 107 141 191 254 307 360 437
#     4  12  29  45  72 108 156 193 234 311 384 436
#     4  12  26  47  74 109 147 194 247 298 362 441
#
# _framework density 21.657865999999999
#
# number of rings (size 3 to 8) (size 9 to 14) (size 15 to 20)
#    0.000    0.400    4.000    4.200    5.600    5.200 
#    0.000    0.000    0.000    0.000    0.000    0.000 
#    0.000    0.000    0.000    0.000    0.000    0.000 
#
# Total GULP energy -223955.734903 kJ/mol
# GULP energy per Si atom -5598.893373 kJ/mol
# Density = 2.160857 g / cm^3
# Si number density = 21.657866 Si / 1000 Ang^3
#
#
#
# Elastic Constant Matrix: (Units=GPa)
#
#
# Indices 1 2 3 4 5 6 
#
# 1 114.6226 34.8353 28.6912 0.0000 0.0000 0.0000
# 2 34.8353 114.6226 28.6912 0.0000 0.0000 0.0000
# 3 28.6912 28.6912 125.4608 0.0000 0.0000 0.0000
# 4 0.0000 0.0000 0.0000 41.8152 0.0000 0.0000
# 5 0.0000 0.0000 0.0000 0.0000 41.8152 0.0000
# 6 0.0000 0.0000 0.0000 0.0000 0.0000 -3.0077
#
#
#
# Elastic Compliance Matrix: (Units=1/GPa)
#
#
# Indices 1 2 3 4 5 6 
#
# 1 0.009934 -0.002599 -0.001677 0.000000 0.000000 0.000000
# 2 -0.002599 0.009934 -0.001677 0.000000 0.000000 0.000000
# 3 -0.001677 -0.001677 0.008738 0.000000 0.000000 0.000000
# 4 0.000000 0.000000 0.000000 0.023915 0.000000 0.000000
# 5 0.000000 0.000000 0.000000 0.000000 0.023915 0.000000
# 6 0.000000 0.000000 0.000000 0.000000 0.000000 -0.332484
#
#
# Mechanical properties :
#
#
# Convention : Reuss Voigt Hill
#
# Bulk Modulus (GPa) = 59.88743 59.90457 59.89600
# Shear Modulus (GPa) = -20.95783 33.62378 6.33298
#
# Velocity S-wave (km/s) = -3.11413 3.94445 1.71185
# Velocity P-wave (km/s) = 3.84464 6.96164 5.62342
#
# Compressibility (1/GPa) = 0.01669800
#
# Stress axis : x y z
#
# Youngs Moduli (GPa) = 100.66350 100.66350 114.44520
#
# Poissons Ratio (x) = 0.26165 0.19197
# Poissons Ratio (y) = 0.26165 0.19197
# Poissons Ratio (z) = 0.16885 0.16885
#
# Static dielectric constant tensor:
#      x y z
#    x 1.763890 0.000000 0.000000 
#    y 0.000000 1.763890 0.000000 
#    z 0.000000 0.000000 1.796500 
# 
# From -- ./inp_files/947.got.cif
#   From: 2010.05.17/outbox.cif.g08.bks.cpg/sg126_1_cif.got.tgz:947.got - 2010.05.20 11:58:20.
