data_PCOD9563319
_publ_section_title
;
Structure prediction by ZEFSAII (Michael W. Deem and Ramdas Pophale) SiO2 
 PCOD9563319
Probable space group: P 4/N N C
;
_chemical_formula_sum "Si O2"
_cell_formula_units_Z 64
_cell_length_a 14.496694
_cell_length_b 14.496694
_cell_length_c 11.978611
_cell_angle_alpha 90.000000
_cell_angle_beta 90.000000
_cell_angle_gamma 90.000000
_cell_volume 2517.354656
_symmetry_space_group_name_H-M "P 4/N N C"
_symmetry_group_IT_number 126
_space_group.IT_coordinate_system_code '2'
_symmetry_cell_setting 'tetragonal'
loop_
_space_group_symop_operation_xyz
x,y,z
1/2-y,x,z
1/2-x,1/2-y,z
y,1/2-x,z
x,1/2-y,1/2-z
1/2-x,y,1/2-z
y,x,1/2-z
1/2-y,1/2-x,1/2-z
-x,-y,-z
1/2+y,-x,-z
1/2+x,1/2+y,-z
-y,1/2+x,-z
-x,1/2+y,1/2+z
1/2+x,-y,1/2+z
-y,-x,1/2+z
1/2+y,1/2+x,1/2+z
loop_
_atom_site_type_symbol
_atom_site_label
_atom_site_fract_x
_atom_site_fract_y
_atom_site_fract_z
Si Si1 0.451125 0.305684 0.645270
Si Si2 0.667447 0.626553 0.903627
Si Si3 0.550506 0.012276 0.881475
Si Si4 0.605500 0.287466 0.999362
O O1 0.410814 0.250000 0.750000
O O2 0.386789 0.329598 0.539010
O O3 0.500453 0.402047 0.677311
O O4 0.532241 0.240962 0.594527
O O5 0.773616 0.628262 0.872689
O O6 0.596599 0.553511 0.851905
O O7 0.652012 0.051833 0.909827
O O8 0.500000 0.000000 0.000000
O O9 0.691521 0.349785 0.958849
#
# Coordination Sequence:
#
# PCOD9563319 Si02
#       4
#    16  16  16  16
#     4  10  20  34  55  87 119 151 195 271 345 389
#     4  10  19  33  54  82 119 165 211 250 302 393
#     4   9  18  34  53  76 109 156 206 250 305 398
#     4   9  17  33  54  75 104 151 197 256 315 390
#
# _framework density 25.423511999999999
#
# number of rings (size 3 to 8) (size 9 to 14) (size 15 to 20)
#    0.000    2.500    2.500    0.000    0.000    1.000 
#    0.000   11.250    0.000    0.000    6.500    0.000 
#    0.000    0.750    3.000    0.000    0.000    0.000 
#
# Total GULP energy -357193.571941 kJ/mol
# GULP energy per Si atom -5581.149562 kJ/mol
# Density = 2.536565 g / cm^3
# Si number density = 25.423512 Si / 1000 Ang^3
#
#
#
# Elastic Constant Matrix: (Units=GPa)
#
#
# Indices 1 2 3 4 5 6 
#
# 1 110.8162 31.1006 19.2322 0.0000 0.0000 0.0000
# 2 31.1006 110.8162 19.2322 0.0000 0.0000 0.0000
# 3 19.2322 19.2322 110.4891 0.0000 0.0000 0.0000
# 4 0.0000 0.0000 0.0000 15.1204 0.0000 0.0000
# 5 0.0000 0.0000 0.0000 0.0000 15.1204 0.0000
# 6 0.0000 0.0000 0.0000 0.0000 0.0000 53.1567
#
#
#
# Elastic Compliance Matrix: (Units=1/GPa)
#
#
# Indices 1 2 3 4 5 6 
#
# 1 0.009970 -0.002575 -0.001287 0.000000 0.000000 0.000000
# 2 -0.002575 0.009970 -0.001287 0.000000 0.000000 0.000000
# 3 -0.001287 -0.001287 0.009499 0.000000 0.000000 0.000000
# 4 0.000000 0.000000 0.000000 0.066136 0.000000 0.000000
# 5 0.000000 0.000000 0.000000 0.000000 0.066136 0.000000
# 6 0.000000 0.000000 0.000000 0.000000 0.000000 0.018812
#
#
# Mechanical properties :
#
#
# Convention : Reuss Voigt Hill
#
# Bulk Modulus (GPa) = 52.24570 52.36128 52.30349
# Shear Modulus (GPa) = 25.35486 34.18328 29.76907
#
# Velocity S-wave (km/s) = 3.16143 3.67079 3.42559
# Velocity P-wave (km/s) = 5.82417 6.21342 6.02194
#
# Compressibility (1/GPa) = 0.01914033
#
# Stress axis : x y z
#
# Youngs Moduli (GPa) = 100.30155 100.30155 105.27652
#
# Poissons Ratio (x) = 0.25824 0.13552
# Poissons Ratio (y) = 0.25824 0.13552
# Poissons Ratio (z) = 0.12911 0.12911
#
# Static dielectric constant tensor:
#      x y z
#    x 1.990380 0.000000 0.000000 
#    y 0.000000 1.990380 0.000000 
#    z 0.000000 0.000000 2.129210 
# 
# From -- ./inp_files/3473.got.cif
#   From: 2010.05.17/outbox.cif.g08.bks.cpg/sg126_2_cif.got.tgz:3473.got - 2010.05.20 11:58:20.
