data_PCOD9563927
_publ_section_title
;
Structure prediction by ZEFSAII (Michael W. Deem and Ramdas Pophale) SiO2 
 PCOD9563927
Probable space group: P 4/M B M
;
_chemical_formula_sum "Si O2"
_cell_formula_units_Z 112
_cell_length_a 15.705083
_cell_length_b 15.705083
_cell_length_c 25.617893
_cell_angle_alpha 90.000000
_cell_angle_beta 90.000000
_cell_angle_gamma 90.000000
_cell_volume 6318.643882
_symmetry_space_group_name_H-M "P 4/M B M"
_symmetry_group_IT_number 127
_symmetry_cell_setting 'tetragonal'
loop_
_space_group_symop_operation_xyz
x,y,z
-y,x,z
-x,-y,z
y,-x,z
1/2+x,1/2-y,-z
1/2-x,1/2+y,-z
1/2+y,1/2+x,-z
1/2-y,1/2-x,-z
-x,-y,-z
y,-x,-z
x,y,-z
-y,x,-z
1/2-x,1/2+y,z
1/2+x,1/2-y,z
1/2-y,1/2-x,z
1/2+y,1/2+x,z
loop_
_atom_site_type_symbol
_atom_site_label
_atom_site_fract_x
_atom_site_fract_y
_atom_site_fract_z
Si Si1 0.572983 0.379176 0.698131
Si Si2 0.175223 0.534604 0.228428
Si Si3 0.486744 0.640746 0.937825
Si Si4 0.314812 0.681011 0.787150
Si Si5 0.413950 0.780958 0.132647
Si Si6 0.293389 0.936988 0.662090
Si Si7 0.502906 0.856654 0.557055
O O1 0.611985 0.472006 0.690801
O O2 0.602775 0.348509 0.755128
O O3 0.602242 0.301084 0.662820
O O4 0.086428 0.586428 0.229338
O O5 0.248455 0.604040 0.215681
O O6 0.181549 0.465827 0.182153
O O7 0.192237 0.492331 0.285106
O O8 0.410496 0.573626 0.925959
O O9 0.472974 0.727364 0.906087
O O10 0.485186 0.656293 0.000000
O O11 0.263242 0.763242 0.764549
O O12 0.348157 0.712449 0.842584
O O13 0.357111 0.857111 0.109140
O O14 0.364543 0.864543 0.662401
O O15 0.303302 0.990991 0.609312
O O16 0.499205 0.813360 0.500000
O O17 0.589419 0.910582 0.560017
O O18 0.427044 0.927044 0.557383
#
# Coordination Sequence:
#
# PCOD9563927 Si02
#       7
#    16  16  16  16  16  16  16
#     4  11  21  34  51  73 102 137 180 222 266 316
#     4  11  22  34  51  78 113 146 179 215 263 324
#     4   9  19  37  60  82 103 132 177 232 280 317
#     4  10  19  34  52  75 109 143 179 222 264 311
#     4  11  21  33  52  78 112 147 176 211 263 324
#     4  11  20  33  53  77 107 142 179 219 272 326
#     4   8  15  29  50  77 106 136 175 223 272 321
#
# _framework density 17.725322999999999
#
# number of rings (size 3 to 8) (size 9 to 14) (size 15 to 20)
#    0.000    1.857    2.857    3.000    0.000    2.000 
#    0.000    1.429    0.000    2.143    0.000    4.000 
#    0.000    0.000    0.000    0.000    0.000    0.000 
#
# Total GULP energy -623982.543896 kJ/mol
# GULP energy per Si atom -5571.272713 kJ/mol
# Density = 1.768498 g / cm^3
# Si number density = 17.725323 Si / 1000 Ang^3
#
#
#
# Elastic Constant Matrix: (Units=GPa)
#
#
# Indices 1 2 3 4 5 6 
#
# 1 68.9761 21.5161 29.7276 0.0000 0.0000 0.0000
# 2 21.5161 68.9761 29.7276 0.0000 0.0000 0.0000
# 3 29.7276 29.7276 69.5696 0.0000 0.0000 0.0000
# 4 0.0000 0.0000 0.0000 21.0213 0.0000 0.0000
# 5 0.0000 0.0000 0.0000 0.0000 21.0213 0.0000
# 6 0.0000 0.0000 0.0000 0.0000 0.0000 28.2968
#
#
#
# Elastic Compliance Matrix: (Units=1/GPa)
#
#
# Indices 1 2 3 4 5 6 
#
# 1 0.018217 -0.002853 -0.006565 0.000000 0.000000 0.000000
# 2 -0.002853 0.018217 -0.006565 0.000000 0.000000 0.000000
# 3 -0.006565 -0.006565 0.019985 0.000000 0.000000 0.000000
# 4 0.000000 0.000000 0.000000 0.047571 0.000000 0.000000
# 5 0.000000 0.000000 0.000000 0.000000 0.047571 0.000000
# 6 0.000000 0.000000 0.000000 0.000000 0.000000 0.035340
#
#
# Mechanical properties :
#
#
# Convention : Reuss Voigt Hill
#
# Bulk Modulus (GPa) = 40.89600 41.05160 40.97380
# Shear Modulus (GPa) = 22.02465 22.50459 22.26462
#
# Velocity S-wave (km/s) = 3.52881 3.56705 3.54798
# Velocity P-wave (km/s) = 6.30282 6.33840 6.32063
#
# Compressibility (1/GPa) = 0.02445227
#
# Stress axis : x y z
#
# Youngs Moduli (GPa) = 54.89304 54.89304 50.03800
#
# Poissons Ratio (x) = 0.15662 0.32851
# Poissons Ratio (y) = 0.15662 0.32851
# Poissons Ratio (z) = 0.36038 0.36038
#
# Static dielectric constant tensor:
#      x y z
#    x 1.636130 0.000000 0.000000 
#    y 0.000000 1.636130 0.000000 
#    z 0.000000 0.000000 1.603820 
# 
# From -- ./inp_files/6173.got.cif
#   From: 2010.05.17/outbox.cif.g08.bks.cpg/sg127_4_cif.got.tgz:6173.got - 2010.05.20 12:03:00.
