data_PCOD9563259
_publ_section_title
;
Structure prediction by ZEFSAII (Michael W. Deem and Ramdas Pophale) SiO2 
 PCOD9563259
Probable space group: P 4/N B M
;
_chemical_formula_sum "Si O2"
_cell_formula_units_Z 64
_cell_length_a 11.212800
_cell_length_b 11.212800
_cell_length_c 25.710376
_cell_angle_alpha 90.000000
_cell_angle_beta 90.000000
_cell_angle_gamma 90.000000
_cell_volume 3232.485457
_symmetry_space_group_name_H-M "P 4/N B M"
_symmetry_group_IT_number 125
_space_group.IT_coordinate_system_code '2'
_symmetry_cell_setting 'tetragonal'
loop_
_space_group_symop_operation_xyz
x,y,z
1/2-y,x,z
1/2-x,1/2-y,z
y,1/2-x,z
x,1/2-y,-z
1/2-x,y,-z
y,x,-z
1/2-y,1/2-x,-z
-x,-y,-z
1/2+y,-x,-z
1/2+x,1/2+y,-z
-y,1/2+x,-z
-x,1/2+y,z
1/2+x,-y,z
-y,-x,z
1/2+y,1/2+x,z
loop_
_atom_site_type_symbol
_atom_site_label
_atom_site_fract_x
_atom_site_fract_y
_atom_site_fract_z
Si Si1 0.450653 0.237599 0.558111
Si Si2 0.650788 0.150788 0.635415
Si Si3 0.950652 0.770489 0.830787
Si Si4 0.452981 0.243714 0.944312
Si Si5 0.350234 0.649767 0.752095
O O1 0.371428 0.356798 0.562193
O O2 0.504538 0.250000 0.500000
O O3 0.546102 0.210972 0.601967
O O4 0.750000 0.250000 0.641753
O O5 0.612956 0.112956 0.693577
O O6 0.852056 0.875815 0.827977
O O7 0.012616 0.766435 0.887969
O O8 0.041558 0.794651 0.784894
O O9 0.367776 0.360634 0.944430
O O10 0.518446 0.250000 0.000000
O O11 0.250000 0.750000 0.749124
#
# Coordination Sequence:
#
# PCOD9563259 Si02
#       5
#    16   8  16  16   8
#     4   9  21  41  65  94 125 155 189 239 295 345
#     4  11  26  39  59  90 119 160 204 240 289 348
#     4   9  19  37  63  86 108 154 204 242 297 359
#     4   7  10  21  48  83 109 132 179 241 291 349
#     4  11  26  42  55  81 123 159 196 250 295 335
#
# _framework density 19.799007
#
# number of rings (size 3 to 8) (size 9 to 14) (size 15 to 20)
#    0.000    3.000    0.000    3.000    5.250    3.000 
#    0.000    2.500    2.750    3.000    0.000    0.000 
#    0.000    0.000    0.000    0.000    0.000    0.000 
#
# Total GULP energy -356513.727923 kJ/mol
# GULP energy per Si atom -5570.526999 kJ/mol
# Density = 1.975394 g / cm^3
# Si number density = 19.799007 Si / 1000 Ang^3
#
#
#
# Elastic Constant Matrix: (Units=GPa)
#
#
# Indices 1 2 3 4 5 6 
#
# 1 95.3625 -26.6565 61.1462 0.0000 0.0000 0.0000
# 2 -26.6565 95.3625 61.1462 0.0000 0.0000 0.0000
# 3 61.1462 61.1462 232.9016 0.0000 0.0000 0.0000
# 4 0.0000 0.0000 0.0000 111.2568 0.0000 0.0000
# 5 0.0000 0.0000 0.0000 0.0000 111.2568 0.0000
# 6 0.0000 0.0000 0.0000 0.0000 0.0000 3.5449
#
#
#
# Elastic Compliance Matrix: (Units=1/GPa)
#
#
# Indices 1 2 3 4 5 6 
#
# 1 0.017759 0.009564 -0.007173 0.000000 0.000000 0.000000
# 2 0.009564 0.017759 -0.007173 0.000000 0.000000 0.000000
# 3 -0.007173 -0.007173 0.008060 0.000000 0.000000 0.000000
# 4 0.000000 0.000000 0.000000 0.008988 0.000000 0.000000
# 5 0.000000 0.000000 0.000000 0.000000 0.008988 0.000000
# 6 0.000000 0.000000 0.000000 0.000000 0.000000 0.282093
#
#
# Mechanical properties :
#
#
# Convention : Reuss Voigt Hill
#
# Bulk Modulus (GPa) = 29.40085 68.32205 48.86145
# Shear Modulus (GPa) = 13.71549 67.07776 40.39663
#
# Velocity S-wave (km/s) = 2.63484 5.82691 4.52191
# Velocity P-wave (km/s) = 4.91309 8.93607 7.21081
#
# Compressibility (1/GPa) = 0.03401262
#
# Stress axis : x y z
#
# Youngs Moduli (GPa) = 56.30882 56.30882 124.06514
#
# Poissons Ratio (x) = -0.53852 0.88997
# Poissons Ratio (y) = -0.53852 0.88997
# Poissons Ratio (z) = 0.40393 0.40393
#
# Static dielectric constant tensor:
#      x y z
#    x 1.643110 0.000000 0.000000 
#    y 0.000000 1.643110 0.000000 
#    z 0.000000 0.000000 1.750130 
# 
# From -- ./inp_files/6134.got.cif
#   From: 2010.05.17/outbox.cif.g08.bks.cpg/sg125_4_cif.got.tgz:6134.got - 2010.05.20 11:54:10.
