data_PCOD9563560
_publ_section_title
;
Structure prediction by ZEFSAII (Michael W. Deem and Ramdas Pophale) SiO2 
 PCOD9563560
Probable space group: P 4/N N C
;
_chemical_formula_sum "Si O2"
_cell_formula_units_Z 88
_cell_length_a 17.739142
_cell_length_b 17.739142
_cell_length_c 14.634158
_cell_angle_alpha 90.000000
_cell_angle_beta 90.000000
_cell_angle_gamma 90.000000
_cell_volume 4605.035262
_symmetry_space_group_name_H-M "P 4/N N C"
_symmetry_group_IT_number 126
_space_group.IT_coordinate_system_code '2'
_symmetry_cell_setting 'tetragonal'
loop_
_space_group_symop_operation_xyz
x,y,z
1/2-y,x,z
1/2-x,1/2-y,z
y,1/2-x,z
x,1/2-y,1/2-z
1/2-x,y,1/2-z
y,x,1/2-z
1/2-y,1/2-x,1/2-z
-x,-y,-z
1/2+y,-x,-z
1/2+x,1/2+y,-z
-y,1/2+x,-z
-x,1/2+y,1/2+z
1/2+x,-y,1/2+z
-y,-x,1/2+z
1/2+y,1/2+x,1/2+z
loop_
_atom_site_type_symbol
_atom_site_label
_atom_site_fract_x
_atom_site_fract_y
_atom_site_fract_z
Si Si1 0.065206 0.667431 0.269178
Si Si2 0.984664 0.515337 0.250000
Si Si3 0.325416 0.801485 0.624006
Si Si4 0.839316 0.390085 0.566054
Si Si5 0.468271 0.065496 0.066330
Si Si6 0.842873 0.835982 0.858893
O O1 0.033372 0.750000 0.250000
O O2 0.138402 0.664230 0.203330
O O3 0.098158 0.652183 0.370892
O O4 0.006181 0.602768 0.245004
O O5 0.016455 0.471462 0.163843
O O6 0.250000 0.750000 0.633493
O O7 0.390194 0.739202 0.619966
O O8 0.325850 0.845815 0.528129
O O9 0.866843 0.473762 0.549154
O O10 0.385397 0.101989 0.076543
O O11 0.500000 0.000000 0.000000
O O12 0.753753 0.853181 0.873964
O O13 0.854043 0.854043 0.750000
#
# Coordination Sequence:
#
# PCOD9563560 Si02
#       6
#    16   8  16  16  16  16
#     4  11  22  37  61  82 115 166 204 250 314 368
#     4  10  24  42  54  88 126 158 218 258 312 390
#     4  12  20  36  57  87 126 153 202 250 301 385
#     4  11  22  34  55  87 123 163 197 249 306 374
#     4  11  23  39  59  90 130 169 207 258 325 383
#     4   9  19  40  68  94 123 164 217 271 323 383
#
# _framework density 19.109517
#
# number of rings (size 3 to 8) (size 9 to 14) (size 15 to 20)
#    0.000    1.273    4.545    2.182    0.000    2.909 
#    3.273    1.818    0.000    0.273    0.000    0.000 
#    0.000    0.000    0.000    0.000    0.000    0.000 
#
# Total GULP energy -490882.227746 kJ/mol
# GULP energy per Si atom -5578.207133 kJ/mol
# Density = 1.906602 g / cm^3
# Si number density = 19.109517 Si / 1000 Ang^3
#
#
#
# Elastic Constant Matrix: (Units=GPa)
#
#
# Indices 1 2 3 4 5 6 
#
# 1 104.9842 71.5021 26.0145 0.0000 0.0000 0.0000
# 2 71.5021 104.9860 26.0154 0.0000 0.0000 0.0000
# 3 26.0145 26.0154 68.1561 0.0000 0.0000 0.0000
# 4 0.0000 0.0000 0.0000 23.1030 0.0000 0.0000
# 5 0.0000 0.0000 0.0000 0.0000 23.1021 0.0000
# 6 0.0000 0.0000 0.0000 0.0000 0.0000 41.8006
#
#
#
# Elastic Compliance Matrix: (Units=1/GPa)
#
#
# Indices 1 2 3 4 5 6 
#
# 1 0.018125 -0.011741 -0.002437 0.000000 0.000000 0.000000
# 2 -0.011741 0.018125 -0.002437 0.000000 0.000000 0.000000
# 3 -0.002437 -0.002437 0.016533 0.000000 0.000000 0.000000
# 4 0.000000 0.000000 0.000000 0.043284 0.000000 0.000000
# 5 0.000000 0.000000 0.000000 0.000000 0.043286 0.000000
# 6 0.000000 0.000000 0.000000 0.000000 0.000000 0.023923
#
#
# Mechanical properties :
#
#
# Convention : Reuss Voigt Hill
#
# Bulk Modulus (GPa) = 51.14087 58.35447 54.74767
# Shear Modulus (GPa) = 24.62766 27.90744 26.26755
#
# Velocity S-wave (km/s) = 3.59383 3.82566 3.71155
# Velocity P-wave (km/s) = 6.63633 7.07936 6.86142
#
# Compressibility (1/GPa) = 0.01955383
#
# Stress axis : x y z
#
# Youngs Moduli (GPa) = 55.17132 55.17203 60.48672
#
# Poissons Ratio (x) = 0.64776 0.14740
# Poissons Ratio (y) = 0.64775 0.14741
# Poissons Ratio (z) = 0.13444 0.13446
#
# Static dielectric constant tensor:
#      x y z
#    x 1.698160 0.000000 0.000000 
#    y 0.000000 1.698150 0.000000 
#    z 0.000000 0.000000 1.712360 
# 
# From -- ./inp_files/3729.got.cif
#   From: 2010.05.17/outbox.cif.g08.bks.cpg/sg126_2_cif.got.tgz:3729.got - 2010.05.20 11:58:20.
