data_PCOD9563859
_publ_section_title
;
Structure prediction by ZEFSAII (Michael W. Deem and Ramdas Pophale) SiO2 
 PCOD9563859
Probable space group: P 4/M B M
;
_chemical_formula_sum "Si O2"
_cell_formula_units_Z 112
_cell_length_a 14.140409
_cell_length_b 14.140409
_cell_length_c 30.584108
_cell_angle_alpha 90.000000
_cell_angle_beta 90.000000
_cell_angle_gamma 90.000000
_cell_volume 6115.328077
_symmetry_space_group_name_H-M "P 4/M B M"
_symmetry_group_IT_number 127
_symmetry_cell_setting 'tetragonal'
loop_
_space_group_symop_operation_xyz
x,y,z
-y,x,z
-x,-y,z
y,-x,z
1/2+x,1/2-y,-z
1/2-x,1/2+y,-z
1/2+y,1/2+x,-z
1/2-y,1/2-x,-z
-x,-y,-z
y,-x,-z
x,y,-z
-y,x,-z
1/2-x,1/2+y,z
1/2+x,1/2-y,z
1/2-y,1/2-x,z
1/2+y,1/2+x,z
loop_
_atom_site_type_symbol
_atom_site_label
_atom_site_fract_x
_atom_site_fract_y
_atom_site_fract_z
Si Si1 0.638207 0.703205 0.366380
Si Si2 0.502453 0.154727 0.601149
Si Si3 0.599623 0.376027 0.722032
Si Si4 0.767082 0.112694 0.092646
Si Si5 0.246724 0.590361 0.948623
Si Si6 0.631207 0.592669 0.817457
Si Si7 0.212367 0.872531 0.548068
O O1 0.723203 0.776798 0.369467
O O2 0.544183 0.768426 0.366506
O O3 0.657860 0.643683 0.323061
O O4 0.642281 0.642167 0.411001
O O5 0.589993 0.089993 0.617922
O O6 0.543539 0.215375 0.561048
O O7 0.419226 0.080775 0.589103
O O8 0.627101 0.486628 0.721786
O O9 0.625962 0.334175 0.769468
O O10 0.670723 0.170723 0.087741
O O11 0.844647 0.162441 0.061637
O O12 0.807294 0.124541 0.141646
O O13 0.752921 0.004443 0.079445
O O14 0.155857 0.655857 0.937864
O O15 0.242993 0.567226 0.000000
O O16 0.521937 0.626143 0.820221
O O17 0.170148 0.886313 0.500000
O O18 0.279036 0.779036 0.546110
#
# Coordination Sequence:
#
# PCOD9563859 Si02
#       7
#    16  16  16  16  16  16  16
#     4  10  19  31  49  73 102 133 167 213 264 317
#     4   9  18  32  50  72  98 131 172 213 256 312
#     4   9  18  32  52  75 101 132 169 214 266 323
#     4  11  21  35  58  84 114 156 200 243 293 346
#     4  10  22  38  56  85 122 156 197 245 290 346
#     4   9  17  33  55  78 105 136 177 236 292 331
#     4   9  18  31  46  67  96 128 163 208 261 314
#
# _framework density 18.314634999999999
#
# number of rings (size 3 to 8) (size 9 to 14) (size 15 to 20)
#    0.000    2.429    1.429    2.143    0.000    2.857 
#    0.000    4.286    0.000    0.857    0.000    3.000 
#    0.000    0.000    0.000    0.000    0.000    0.000 
#
# Total GULP energy -623785.946400 kJ/mol
# GULP energy per Si atom -5569.517379 kJ/mol
# Density = 1.827295 g / cm^3
# Si number density = 18.314635 Si / 1000 Ang^3
#
#
#
# Elastic Constant Matrix: (Units=GPa)
#
#
# Indices 1 2 3 4 5 6 
#
# 1 68.9027 20.5295 32.7320 0.0000 0.0000 0.0000
# 2 20.5295 68.9027 32.7320 0.0000 0.0000 0.0000
# 3 32.7320 32.7320 116.9140 0.0000 0.0000 0.0000
# 4 0.0000 0.0000 0.0000 22.2623 0.0000 0.0000
# 5 0.0000 0.0000 0.0000 0.0000 22.2623 0.0000
# 6 0.0000 0.0000 0.0000 0.0000 0.0000 13.8885
#
#
#
# Elastic Compliance Matrix: (Units=1/GPa)
#
#
# Indices 1 2 3 4 5 6 
#
# 1 0.017368 -0.003304 -0.003937 0.000000 0.000000 0.000000
# 2 -0.003304 0.017368 -0.003937 0.000000 0.000000 0.000000
# 3 -0.003937 -0.003937 0.010758 0.000000 0.000000 0.000000
# 4 0.000000 0.000000 0.000000 0.044919 0.000000 0.000000
# 5 0.000000 0.000000 0.000000 0.000000 0.044919 0.000000
# 6 0.000000 0.000000 0.000000 0.000000 0.000000 0.072002
#
#
# Mechanical properties :
#
#
# Convention : Reuss Voigt Hill
#
# Bulk Modulus (GPa) = 43.22270 47.41185 45.31728
# Shear Modulus (GPa) = 21.06107 22.93101 21.99604
#
# Velocity S-wave (km/s) = 3.39478 3.54228 3.46932
# Velocity P-wave (km/s) = 6.24639 6.53253 6.39106
#
# Compressibility (1/GPa) = 0.02313599
#
# Stress axis : x y z
#
# Youngs Moduli (GPa) = 57.57649 57.57649 92.95432
#
# Poissons Ratio (x) = 0.19026 0.36600
# Poissons Ratio (y) = 0.19026 0.36600
# Poissons Ratio (z) = 0.22670 0.22670
#
# Static dielectric constant tensor:
#      x y z
#    x 1.639810 0.000000 0.000000 
#    y 0.000000 1.639810 0.000000 
#    z 0.000000 0.000000 1.668040 
# 
# From -- ./inp_files/6398.got.cif
#   From: 2010.05.17/outbox.cif.g08.bks.cpg/sg127_4_cif.got.tgz:6398.got - 2010.05.20 12:03:00.
