data_PCOD9563653
_publ_section_title
;
Structure prediction by ZEFSAII (Michael W. Deem and Ramdas Pophale) SiO2 
 PCOD9563653
Probable space group: P 4/N N C
;
_chemical_formula_sum "Si O2"
_cell_formula_units_Z 64
_cell_length_a 10.841790
_cell_length_b 10.841790
_cell_length_c 22.212790
_cell_angle_alpha 90.000000
_cell_angle_beta 90.000000
_cell_angle_gamma 90.000000
_cell_volume 2610.989304
_symmetry_space_group_name_H-M "P 4/N N C"
_symmetry_group_IT_number 126
_space_group.IT_coordinate_system_code '2'
_symmetry_cell_setting 'tetragonal'
loop_
_space_group_symop_operation_xyz
x,y,z
1/2-y,x,z
1/2-x,1/2-y,z
y,1/2-x,z
x,1/2-y,1/2-z
1/2-x,y,1/2-z
y,x,1/2-z
1/2-y,1/2-x,1/2-z
-x,-y,-z
1/2+y,-x,-z
1/2+x,1/2+y,-z
-y,1/2+x,-z
-x,1/2+y,1/2+z
1/2+x,-y,1/2+z
-y,-x,1/2+z
1/2+y,1/2+x,1/2+z
loop_
_atom_site_type_symbol
_atom_site_label
_atom_site_fract_x
_atom_site_fract_y
_atom_site_fract_z
Si Si1 0.455880 0.261456 0.855053
Si Si2 0.291335 0.560605 0.986077
Si Si3 0.083960 0.612575 0.781437
Si Si4 0.431634 0.337034 0.397979
O O1 0.360991 0.374523 0.847047
O O2 0.506814 0.251228 0.922854
O O3 0.559756 0.282731 0.805011
O O4 0.174999 0.617232 0.021750
O O5 0.352924 0.466379 0.032212
O O6 0.082782 0.750000 0.750000
O O7 0.988356 0.511645 0.750000
O O8 0.029070 0.624909 0.849086
O O9 0.305845 0.406657 0.386726
#
# Coordination Sequence:
#
# PCOD9563653 Si02
#       4
#    16  16  16  16
#     4  11  27  52  79 112 159 214 271 328 400 485
#     4  11  24  42  73 116 158 195 260 333 402 474
#     4  12  26  48  80 112 158 209 265 333 394 483
#     4  11  23  41  71 109 151 199 252 320 401 469
#
# _framework density 24.511779000000001
#
# number of rings (size 3 to 8) (size 9 to 14) (size 15 to 20)
#    0.000    0.750    5.000    1.500    3.500    5.250 
#    0.000    5.000    0.000    0.000    0.000    0.000 
#    0.000    0.000    0.000    0.000    0.000    0.000 
#
# Total GULP energy -357848.600761 kJ/mol
# GULP energy per Si atom -5591.384387 kJ/mol
# Density = 2.445599 g / cm^3
# Si number density = 24.511779 Si / 1000 Ang^3
#
#
#
# Elastic Constant Matrix: (Units=GPa)
#
#
# Indices 1 2 3 4 5 6 
#
# 1 52.1784 16.0981 40.0047 0.0000 0.0000 0.0000
# 2 16.0981 52.1774 40.0044 0.0000 0.0000 0.0000
# 3 40.0047 40.0044 186.3495 0.0000 0.0000 0.0000
# 4 0.0000 0.0000 0.0000 32.6930 0.0000 0.0000
# 5 0.0000 0.0000 0.0000 0.0000 32.6938 0.0000
# 6 0.0000 0.0000 0.0000 0.0000 0.0000 59.0894
#
#
#
# Elastic Compliance Matrix: (Units=1/GPa)
#
#
# Indices 1 2 3 4 5 6 
#
# 1 0.023643 -0.004073 -0.004201 0.000000 0.000000 0.000000
# 2 -0.004073 0.023643 -0.004201 0.000000 0.000000 0.000000
# 3 -0.004201 -0.004201 0.007170 0.000000 0.000000 0.000000
# 4 0.000000 0.000000 0.000000 0.030588 0.000000 0.000000
# 5 0.000000 0.000000 0.000000 0.000000 0.030587 0.000000
# 6 0.000000 0.000000 0.000000 0.000000 0.000000 0.016924
#
#
# Mechanical properties :
#
#
# Convention : Reuss Voigt Hill
#
# Bulk Modulus (GPa) = 33.89301 53.65775 43.77538
# Shear Modulus (GPa) = 29.87934 37.86845 33.87389
#
# Velocity S-wave (km/s) = 3.49518 3.93480 3.72148
# Velocity P-wave (km/s) = 5.49050 6.52546 6.03022
#
# Compressibility (1/GPa) = 0.02950461
#
# Stress axis : x y z
#
# Youngs Moduli (GPa) = 42.29648 42.29554 139.47028
#
# Poissons Ratio (x) = 0.17229 0.58592
# Poissons Ratio (y) = 0.17229 0.58593
# Poissons Ratio (z) = 0.17769 0.17769
#
# Static dielectric constant tensor:
#      x y z
#    x 1.991530 0.000000 0.000000 
#    y 0.000000 1.991530 0.000000 
#    z 0.000000 0.000000 1.987620 
# 
# From -- ./inp_files/4915.got.cif
#   From: 2010.05.17/outbox.cif.g08.bks.cpg/sg126_3_cif.got.tgz:4915.got - 2010.05.20 11:58:20.
