data_PCOD9563495
_publ_section_title
;
Structure prediction by ZEFSAII (Michael W. Deem and Ramdas Pophale) SiO2 
 PCOD9563495
Probable space group: P 4/N N C
;
_chemical_formula_sum "Si O2"
_cell_formula_units_Z 56
_cell_length_a 10.455951
_cell_length_b 10.455951
_cell_length_c 23.483558
_cell_angle_alpha 90.000000
_cell_angle_beta 90.000000
_cell_angle_gamma 90.000000
_cell_volume 2567.384863
_symmetry_space_group_name_H-M "P 4/N N C"
_symmetry_group_IT_number 126
_space_group.IT_coordinate_system_code '2'
_symmetry_cell_setting 'tetragonal'
loop_
_space_group_symop_operation_xyz
x,y,z
1/2-y,x,z
1/2-x,1/2-y,z
y,1/2-x,z
x,1/2-y,1/2-z
1/2-x,y,1/2-z
y,x,1/2-z
1/2-y,1/2-x,1/2-z
-x,-y,-z
1/2+y,-x,-z
1/2+x,1/2+y,-z
-y,1/2+x,-z
-x,1/2+y,1/2+z
1/2+x,-y,1/2+z
-y,-x,1/2+z
1/2+y,1/2+x,1/2+z
loop_
_atom_site_type_symbol
_atom_site_label
_atom_site_fract_x
_atom_site_fract_y
_atom_site_fract_z
Si Si1 0.034713 0.250000 0.750000
Si Si2 0.213610 0.899743 0.868187
Si Si3 0.698792 0.453167 0.485539
Si Si4 0.429850 0.150690 0.400661
O O1 0.126840 0.126840 0.750000
O O2 0.949832 0.249829 0.806651
O O3 0.250000 0.750000 0.876088
O O4 0.282431 0.978459 0.918986
O O5 0.060761 0.907129 0.877494
O O6 0.834161 0.397172 0.507068
O O7 0.654560 0.558276 0.530405
O O8 0.417805 0.299628 0.382836
#
# Coordination Sequence:
#
# PCOD9563495 Si02
#       4
#     8  16  16  16
#     4  11  29  48  66  96 125 165 230 282 324 389
#     4  11  22  42  69  92 129 178 219 266 335 392
#     4   9  16  34  59  93 127 164 212 251 312 387
#     4  10  22  37  62 102 137 167 214 267 325 401
#
# _framework density 21.812080000000002
#
# number of rings (size 3 to 8) (size 9 to 14) (size 15 to 20)
#    0.000    1.857    5.714    0.429    4.000    6.857 
#    0.000    2.857    0.000    0.000    0.000    0.000 
#    0.000    0.000    0.000    0.000    0.000    0.000 
#
# Total GULP energy -313201.185644 kJ/mol
# GULP energy per Si atom -5592.878315 kJ/mol
# Density = 2.176243 g / cm^3
# Si number density = 21.812080 Si / 1000 Ang^3
#
#
#
# Elastic Constant Matrix: (Units=GPa)
#
#
# Indices 1 2 3 4 5 6 
#
# 1 48.7382 28.0008 14.7570 0.0000 0.0000 0.0000
# 2 28.0008 48.7382 14.7570 0.0000 0.0000 0.0000
# 3 14.7570 14.7570 158.2964 0.0000 0.0000 0.0000
# 4 0.0000 0.0000 0.0000 21.8588 0.0000 0.0000
# 5 0.0000 0.0000 0.0000 0.0000 21.8588 0.0000
# 6 0.0000 0.0000 0.0000 0.0000 0.0000 20.9308
#
#
#
# Elastic Compliance Matrix: (Units=1/GPa)
#
#
# Indices 1 2 3 4 5 6 
#
# 1 0.030869 -0.017353 -0.001260 0.000000 0.000000 0.000000
# 2 -0.017353 0.030869 -0.001260 0.000000 0.000000 0.000000
# 3 -0.001260 -0.001260 0.006552 0.000000 0.000000 0.000000
# 4 0.000000 0.000000 0.000000 0.045748 0.000000 0.000000
# 5 0.000000 0.000000 0.000000 0.000000 0.045748 0.000000
# 6 0.000000 0.000000 0.000000 0.000000 0.000000 0.047777
#
#
# Mechanical properties :
#
#
# Convention : Reuss Voigt Hill
#
# Bulk Modulus (GPa) = 35.03388 41.20026 38.11707
# Shear Modulus (GPa) = 19.46859 26.14686 22.80773
#
# Velocity S-wave (km/s) = 2.99082 3.46603 3.23715
# Velocity P-wave (km/s) = 5.29369 5.91164 5.61118
#
# Compressibility (1/GPa) = 0.02854379
#
# Stress axis : x y z
#
# Youngs Moduli (GPa) = 32.39502 32.39502 152.62083
#
# Poissons Ratio (x) = 0.56216 0.19230
# Poissons Ratio (y) = 0.56216 0.19230
# Poissons Ratio (z) = 0.04082 0.04082
#
# Static dielectric constant tensor:
#      x y z
#    x 1.812350 0.000000 0.000000 
#    y 0.000000 1.812350 0.000000 
#    z 0.000000 0.000000 1.771890 
# 
# From -- ./inp_files/4864.got.cif
#   From: 2010.05.17/outbox.cif.g08.bks.cpg/sg126_3_cif.got.tgz:4864.got - 2010.05.20 11:58:20.
