data_PCOD9563462
_publ_section_title
;
Structure prediction by ZEFSAII (Michael W. Deem and Ramdas Pophale) SiO2 
 PCOD9563462
Probable space group: P 4/N N C
;
_chemical_formula_sum "Si O2"
_cell_formula_units_Z 112
_cell_length_a 13.755325
_cell_length_b 13.755325
_cell_length_c 30.049980
_cell_angle_alpha 90.000000
_cell_angle_beta 90.000000
_cell_angle_gamma 90.000000
_cell_volume 5685.725640
_symmetry_space_group_name_H-M "P 4/N N C"
_symmetry_group_IT_number 126
_space_group.IT_coordinate_system_code '2'
_symmetry_cell_setting 'tetragonal'
loop_
_space_group_symop_operation_xyz
x,y,z
1/2-y,x,z
1/2-x,1/2-y,z
y,1/2-x,z
x,1/2-y,1/2-z
1/2-x,y,1/2-z
y,x,1/2-z
1/2-y,1/2-x,1/2-z
-x,-y,-z
1/2+y,-x,-z
1/2+x,1/2+y,-z
-y,1/2+x,-z
-x,1/2+y,1/2+z
1/2+x,-y,1/2+z
-y,-x,1/2+z
1/2+y,1/2+x,1/2+z
loop_
_atom_site_type_symbol
_atom_site_label
_atom_site_fract_x
_atom_site_fract_y
_atom_site_fract_z
Si Si1 0.824016 0.022383 0.899790
Si Si2 0.181521 0.842008 0.344827
Si Si3 0.204561 0.510751 0.586953
Si Si4 0.651111 0.624955 0.829702
Si Si5 0.412215 0.742200 0.504989
Si Si6 0.979881 0.036306 0.703049
Si Si7 0.534689 0.603745 0.116398
O O1 0.749985 0.073750 0.865189
O O2 0.779929 0.033625 0.948861
O O3 0.923337 0.083277 0.896739
O O4 0.850775 0.915387 0.880792
O O5 0.250000 0.750000 0.331803
O O6 0.111412 0.809554 0.385815
O O7 0.110159 0.889751 0.307491
O O8 0.248628 0.521781 0.538243
O O9 0.103052 0.456501 0.583823
O O10 0.282098 0.449386 0.614979
O O11 0.765067 0.620524 0.819594
O O12 0.574146 0.558601 0.804375
O O13 0.338199 0.653923 0.493528
O O14 0.033265 0.033265 0.750000
O O15 0.056874 0.053960 0.664111
#
# Coordination Sequence:
#
# PCOD9563462 Si02
#       7
#    16  16  16  16  16  16  16
#     4  11  20  37  60  90 125 163 218 265 323 381
#     4  11  19  38  68  90 126 164 208 270 334 375
#     4  11  22  40  60  92 126 168 212 261 330 380
#     4  10  21  39  60  84 126 178 209 239 316 395
#     4  11  20  33  61  95 123 159 217 271 318 385
#     4  10  23  42  67  97 130 162 212 268 325 397
#     4  10  23  40  63  85 126 170 204 264 329 388
#
# _framework density 19.698452
#
# number of rings (size 3 to 8) (size 9 to 14) (size 15 to 20)
#    0.000    1.429    5.714    0.000    0.000    1.429 
#    2.571    3.571    6.286    0.000    0.000    4.000 
#    0.000    0.000    0.000    0.000    0.000    0.000 
#
# Total GULP energy -624396.667385 kJ/mol
# GULP energy per Si atom -5574.970245 kJ/mol
# Density = 1.965362 g / cm^3
# Si number density = 19.698452 Si / 1000 Ang^3
#
#
#
# Elastic Constant Matrix: (Units=GPa)
#
#
# Indices 1 2 3 4 5 6 
#
# 1 61.1289 11.7987 11.9964 0.0000 0.0000 0.0000
# 2 11.7987 61.1289 11.9964 0.0000 0.0000 0.0000
# 3 11.9964 11.9964 65.8765 0.0000 0.0000 0.0000
# 4 0.0000 0.0000 0.0000 9.8156 0.0000 0.0000
# 5 0.0000 0.0000 0.0000 0.0000 9.8156 0.0000
# 6 0.0000 0.0000 0.0000 0.0000 0.0000 24.7816
#
#
#
# Elastic Compliance Matrix: (Units=1/GPa)
#
#
# Indices 1 2 3 4 5 6 
#
# 1 0.017429 -0.002843 -0.002656 0.000000 0.000000 0.000000
# 2 -0.002843 0.017429 -0.002656 0.000000 0.000000 0.000000
# 3 -0.002656 -0.002656 0.016147 0.000000 0.000000 0.000000
# 4 0.000000 0.000000 0.000000 0.101879 0.000000 0.000000
# 5 0.000000 0.000000 0.000000 0.000000 0.101879 0.000000
# 6 0.000000 0.000000 0.000000 0.000000 0.000000 0.040352
#
#
# Mechanical properties :
#
#
# Convention : Reuss Voigt Hill
#
# Bulk Modulus (GPa) = 28.82280 28.85748 28.84014
# Shear Modulus (GPa) = 15.48037 19.03877 17.25957
#
# Velocity S-wave (km/s) = 2.80637 3.11225 2.96326
# Velocity P-wave (km/s) = 5.01645 5.25321 5.13619
#
# Compressibility (1/GPa) = 0.03469476
#
# Stress axis : x y z
#
# Youngs Moduli (GPa) = 57.37624 57.37624 61.92982
#
# Poissons Ratio (x) = 0.16311 0.16450
# Poissons Ratio (y) = 0.16311 0.16450
# Poissons Ratio (z) = 0.15240 0.15240
#
# Static dielectric constant tensor:
#      x y z
#    x 1.728200 0.000000 0.000000 
#    y 0.000000 1.728200 0.000000 
#    z 0.000000 0.000000 1.703580 
# 
# From -- ./inp_files/6209.got.cif
#   From: 2010.05.17/outbox.cif.g08.bks.cpg/sg126_4_cif.got.tgz:6209.got - 2010.05.20 11:58:20.
