data_PCOD9563045
_publ_section_title
;
Structure prediction by ZEFSAII (Michael W. Deem and Ramdas Pophale) SiO2 
 PCOD9563045
Probable space group: P 4/N B M
;
_chemical_formula_sum "Si O2"
_cell_formula_units_Z 72
_cell_length_a 14.310701
_cell_length_b 14.310701
_cell_length_c 16.690653
_cell_angle_alpha 90.000000
_cell_angle_beta 90.000000
_cell_angle_gamma 90.000000
_cell_volume 3418.181694
_symmetry_space_group_name_H-M "P 4/N B M"
_symmetry_group_IT_number 125
_space_group.IT_coordinate_system_code '2'
_symmetry_cell_setting 'tetragonal'
loop_
_space_group_symop_operation_xyz
x,y,z
1/2-y,x,z
1/2-x,1/2-y,z
y,1/2-x,z
x,1/2-y,-z
1/2-x,y,-z
y,x,-z
1/2-y,1/2-x,-z
-x,-y,-z
1/2+y,-x,-z
1/2+x,1/2+y,-z
-y,1/2+x,-z
-x,1/2+y,z
1/2+x,-y,z
-y,-x,z
1/2+y,1/2+x,z
loop_
_atom_site_type_symbol
_atom_site_label
_atom_site_fract_x
_atom_site_fract_y
_atom_site_fract_z
Si Si1 0.636761 0.363239 0.748322
Si Si2 0.648754 0.859666 0.596687
Si Si3 0.750000 0.039716 0.000000
Si Si4 0.645705 0.145705 0.715855
Si Si5 0.032563 0.532563 0.607298
Si Si6 0.857695 0.357695 0.525365
Si Si7 0.556820 0.056820 0.086060
Si Si8 0.902155 0.097846 0.119243
O O1 0.623687 0.252788 0.737847
O O2 0.589067 0.410934 0.673077
O O3 0.593584 0.406417 0.828371
O O4 0.621370 0.754723 0.623750
O O5 0.646822 0.853179 0.500000
O O6 0.573964 0.936788 0.618983
O O7 0.850485 0.013543 0.958178
O O8 0.700087 0.080395 0.919680
O O9 0.635389 0.135389 0.620836
O O10 0.591204 0.091204 0.784813
O O11 0.073399 0.573399 0.522877
O O12 0.878023 0.250000 0.500000
O O13 0.478279 0.978279 0.092334
#
# Coordination Sequence:
#
# PCOD9563045 Si02
#       8
#     8  16   8   8   8   8   8   8
#     4  11  22  40  59  96 138 167 223 273 353 400
#     4   9  21  42  63  89 124 163 225 300 345 403
#     4  10  20  39  70  97 130 158 202 261 322 411
#     4  11  21  40  64  87 142 188 200 299 361 384
#     4  12  23  40  66  94 124 185 237 289 332 422
#     4  11  21  38  58  92 139 175 228 292 356 408
#     4  11  23  40  64 107 131 166 214 260 328 417
#     4  11  23  39  67 102 134 169 216 259 331 417
#
# _framework density 21.063829999999999
#
# number of rings (size 3 to 8) (size 9 to 14) (size 15 to 20)
#    0.000    1.444    4.444    3.000    3.111    3.556 
#    8.000    1.111    0.000    5.333    0.000    0.000 
#    0.000    0.000    0.000    0.000    0.000    0.000 
#
# Total GULP energy -400904.162247 kJ/mol
# GULP energy per Si atom -5568.113365 kJ/mol
# Density = 2.101589 g / cm^3
# Si number density = 21.063830 Si / 1000 Ang^3
#
#
#
# Elastic Constant Matrix: (Units=GPa)
#
#
# Indices 1 2 3 4 5 6 
#
# 1 115.9432 96.3845 31.6973 0.0000 0.0000 0.0000
# 2 96.3845 115.9434 31.6973 0.0000 0.0000 0.0000
# 3 31.6973 31.6973 148.2734 0.0000 0.0000 0.0000
# 4 0.0000 0.0000 0.0000 25.3299 0.0000 0.0000
# 5 0.0000 0.0000 0.0000 0.0000 25.3299 0.0000
# 6 0.0000 0.0000 0.0000 0.0000 0.0000 27.7566
#
#
#
# Elastic Compliance Matrix: (Units=1/GPa)
#
#
# Indices 1 2 3 4 5 6 
#
# 1 0.028079 -0.023048 -0.001075 0.000000 0.000000 0.000000
# 2 -0.023048 0.028079 -0.001075 0.000000 0.000000 0.000000
# 3 -0.001075 -0.001075 0.007204 0.000000 0.000000 0.000000
# 4 0.000000 0.000000 0.000000 0.039479 0.000000 0.000000
# 5 0.000000 0.000000 0.000000 0.000000 0.039479 0.000000
# 6 0.000000 0.000000 0.000000 0.000000 0.000000 0.036027
#
#
# Mechanical properties :
#
#
# Convention : Reuss Voigt Hill
#
# Bulk Modulus (GPa) = 77.13753 77.74646 77.44200
# Shear Modulus (GPa) = 21.45295 30.37535 25.91415
#
# Velocity S-wave (km/s) = 3.19482 3.80157 3.51132
# Velocity P-wave (km/s) = 7.09292 7.50062 7.29962
#
# Compressibility (1/GPa) = 0.01296386
#
# Stress axis : x y z
#
# Youngs Moduli (GPa) = 35.61346 35.61352 138.80962
#
# Poissons Ratio (x) = 0.82084 0.14929
# Poissons Ratio (y) = 0.82083 0.14928
# Poissons Ratio (z) = 0.03830 0.03830
#
# Static dielectric constant tensor:
#      x y z
#    x 1.773950 0.000000 0.000000 
#    y 0.000000 1.773950 0.000000 
#    z 0.000000 0.000000 1.788210 
# 
# From -- ./inp_files/5404.got.cif
#   From: 2010.05.17/outbox.cif.g08.bks.cpg/sg125_3_cif.got.tgz:5404.got - 2010.05.20 11:54:10.
