data_PCOD9563518
_publ_section_title
;
Structure prediction by ZEFSAII (Michael W. Deem and Ramdas Pophale) SiO2 
 PCOD9563518
Probable space group: P 4/N N C
;
_chemical_formula_sum "Si O2"
_cell_formula_units_Z 72
_cell_length_a 16.028765
_cell_length_b 16.028765
_cell_length_c 15.116939
_cell_angle_alpha 90.000000
_cell_angle_beta 90.000000
_cell_angle_gamma 90.000000
_cell_volume 3883.863732
_symmetry_space_group_name_H-M "P 4/N N C"
_symmetry_group_IT_number 126
_space_group.IT_coordinate_system_code '2'
_symmetry_cell_setting 'tetragonal'
loop_
_space_group_symop_operation_xyz
x,y,z
1/2-y,x,z
1/2-x,1/2-y,z
y,1/2-x,z
x,1/2-y,1/2-z
1/2-x,y,1/2-z
y,x,1/2-z
1/2-y,1/2-x,1/2-z
-x,-y,-z
1/2+y,-x,-z
1/2+x,1/2+y,-z
-y,1/2+x,-z
-x,1/2+y,1/2+z
1/2+x,-y,1/2+z
-y,-x,1/2+z
1/2+y,1/2+x,1/2+z
loop_
_atom_site_type_symbol
_atom_site_label
_atom_site_fract_x
_atom_site_fract_y
_atom_site_fract_z
Si Si1 0.630616 0.678011 0.072529
Si Si2 0.666532 0.023119 0.192583
Si Si3 0.483743 0.417344 0.060017
Si Si4 0.870109 0.318730 0.512546
Si Si5 0.482503 0.017498 0.250000
O O1 0.722388 0.639729 0.074624
O O2 0.570331 0.656831 0.153777
O O3 0.583821 0.640780 0.987820
O O4 0.750000 0.030326 0.250000
O O5 0.672921 0.084521 0.107765
O O6 0.581125 0.037178 0.244577
O O7 0.454860 0.443170 0.157271
O O8 0.500000 0.500000 0.000000
O O9 0.570011 0.366144 0.056072
O O10 0.859057 0.221572 0.488630
#
# Coordination Sequence:
#
# PCOD9563518 Si02
#       5
#    16  16  16  16   8
#     4  10  22  40  63  91 127 166 205 258 323 383
#     4  11  22  36  64  94 130 159 207 266 323 394
#     4  11  23  40  65  86 127 166 212 261 322 385
#     4  10  22  41  63  90 127 171 210 258 323 385
#     4  12  22  38  58  98 114 164 216 250 324 380
#
# _framework density 18.538239999999998
#
# number of rings (size 3 to 8) (size 9 to 14) (size 15 to 20)
#    0.000    1.333    4.444    2.667    6.222    0.000 
#    0.000   12.222    0.000    1.333    0.000    0.000 
#    0.000    0.000    0.000    0.000    0.000    0.000 
#
# Total GULP energy -402041.614701 kJ/mol
# GULP energy per Si atom -5583.911315 kJ/mol
# Density = 1.849605 g / cm^3
# Si number density = 18.538240 Si / 1000 Ang^3
#
#
#
# Elastic Constant Matrix: (Units=GPa)
#
#
# Indices 1 2 3 4 5 6 
#
# 1 41.7498 36.9467 13.7407 0.0000 0.0000 0.0000
# 2 36.9467 41.7494 13.7410 0.0000 0.0000 0.0000
# 3 13.7407 13.7410 93.4016 0.0000 0.0000 0.0000
# 4 0.0000 0.0000 0.0000 26.5661 0.0000 0.0000
# 5 0.0000 0.0000 0.0000 0.0000 26.5665 0.0000
# 6 0.0000 0.0000 0.0000 0.0000 0.0000 23.5018
#
#
#
# Elastic Compliance Matrix: (Units=1/GPa)
#
#
# Indices 1 2 3 4 5 6 
#
# 1 0.110800 -0.097405 -0.001970 0.000000 0.000000 0.000000
# 2 -0.097405 0.110801 -0.001971 0.000000 0.000000 0.000000
# 3 -0.001970 -0.001971 0.011286 0.000000 0.000000 0.000000
# 4 0.000000 0.000000 0.000000 0.037642 0.000000 0.000000
# 5 0.000000 0.000000 0.000000 0.000000 0.037641 0.000000
# 6 0.000000 0.000000 0.000000 0.000000 0.000000 0.042550
#
#
# Mechanical properties :
#
#
# Convention : Reuss Voigt Hill
#
# Bulk Modulus (GPa) = 33.11896 33.97306 33.54601
# Shear Modulus (GPa) = 8.87346 22.82505 15.84925
#
# Velocity S-wave (km/s) = 2.19020 3.51271 2.92712
# Velocity P-wave (km/s) = 4.92950 5.90067 5.43681
#
# Compressibility (1/GPa) = 0.03019418
#
# Stress axis : x y z
#
# Youngs Moduli (GPa) = 9.02529 9.02518 88.60310
#
# Poissons Ratio (x) = 0.87910 0.17456
# Poissons Ratio (y) = 0.87911 0.17465
# Poissons Ratio (z) = 0.01778 0.01779
#
# Static dielectric constant tensor:
#      x y z
#    x 1.653440 0.000000 0.000000 
#    y 0.000000 1.653440 0.000000 
#    z 0.000000 0.000000 1.638690 
# 
# From -- ./inp_files/4343.got.cif
#   From: 2010.05.17/outbox.cif.g08.bks.cpg/sg126_3_cif.got.tgz:4343.got - 2010.05.20 11:58:20.
