data_PCOD9563194
_publ_section_title
;
Structure prediction by ZEFSAII (Michael W. Deem and Ramdas Pophale) SiO2 
 PCOD9563194
Probable space group: P 4/N B M
;
_chemical_formula_sum "Si O2"
_cell_formula_units_Z 88
_cell_length_a 13.715156
_cell_length_b 13.715156
_cell_length_c 21.503393
_cell_angle_alpha 90.000000
_cell_angle_beta 90.000000
_cell_angle_gamma 90.000000
_cell_volume 4044.906580
_symmetry_space_group_name_H-M "P 4/N B M"
_symmetry_group_IT_number 125
_space_group.IT_coordinate_system_code '2'
_symmetry_cell_setting 'tetragonal'
loop_
_space_group_symop_operation_xyz
x,y,z
1/2-y,x,z
1/2-x,1/2-y,z
y,1/2-x,z
x,1/2-y,-z
1/2-x,y,-z
y,x,-z
1/2-y,1/2-x,-z
-x,-y,-z
1/2+y,-x,-z
1/2+x,1/2+y,-z
-y,1/2+x,-z
-x,1/2+y,z
1/2+x,-y,z
-y,-x,z
1/2+y,1/2+x,z
loop_
_atom_site_type_symbol
_atom_site_label
_atom_site_fract_x
_atom_site_fract_y
_atom_site_fract_z
Si Si1 0.833208 0.166793 0.152292
Si Si2 0.167015 0.667015 0.294031
Si Si3 0.799269 0.042140 0.617635
Si Si4 0.610064 0.835608 0.848360
Si Si5 0.043692 0.797606 0.062630
Si Si6 0.390586 0.335522 0.710236
Si Si7 0.250000 0.415227 0.500000
O O1 0.750000 0.250000 0.157388
O O2 0.861311 0.138690 0.223196
O O3 0.782875 0.082177 0.111953
O O4 0.250000 0.750000 0.287799
O O5 0.083579 0.718068 0.334831
O O6 0.867537 0.132464 0.597723
O O7 0.863455 0.965157 0.657018
O O8 0.754445 0.983981 0.560205
O O9 0.623275 0.718520 0.853109
O O10 0.536175 0.862423 0.902236
O O11 0.571613 0.858250 0.779343
O O12 0.136630 0.863371 0.045207
O O13 0.004301 0.750000 0.000000
O O14 0.281747 0.376662 0.704813
O O15 0.156166 0.343835 0.500000
#
# Coordination Sequence:
#
# PCOD9563194 Si02
#       7
#     8   8  16  16  16  16   8
#     4   9  18  34  60  82 120 162 206 248 309 384
#     4   9  20  38  57  89 124 166 198 248 326 381
#     4  11  23  39  64  95 129 161 209 258 311 365
#     4   9  20  39  61  84 117 163 207 253 312 375
#     4  11  21  36  58  85 117 156 205 255 313 380
#     4   9  18  38  64  88 120 163 207 253 314 377
#     4  11  26  48  69  90 128 180 217 250 312 385
#
# _framework density 21.755755000000001
#
# number of rings (size 3 to 8) (size 9 to 14) (size 15 to 20)
#    0.000    2.091    0.909    3.273    1.273    4.727 
#    6.545    1.818    0.000    0.000    0.000    0.000 
#    0.000    0.000    0.000    0.000    0.000    0.000 
#
# Total GULP energy -491589.748213 kJ/mol
# GULP energy per Si atom -5586.247139 kJ/mol
# Density = 2.170624 g / cm^3
# Si number density = 21.755755 Si / 1000 Ang^3
#
#
#
# Elastic Constant Matrix: (Units=GPa)
#
#
# Indices 1 2 3 4 5 6 
#
# 1 62.3714 -0.7123 30.8575 0.0000 0.0000 0.0000
# 2 -0.7123 62.3712 30.8576 0.0000 0.0000 0.0000
# 3 30.8575 30.8576 136.7594 0.0000 0.0000 0.0000
# 4 0.0000 0.0000 0.0000 19.9595 0.0000 0.0000
# 5 0.0000 0.0000 0.0000 0.0000 19.9584 0.0000
# 6 0.0000 0.0000 0.0000 0.0000 0.0000 11.3572
#
#
#
# Elastic Compliance Matrix: (Units=1/GPa)
#
#
# Indices 1 2 3 4 5 6 
#
# 1 0.018401 0.002549 -0.004727 0.000000 0.000000 0.000000
# 2 0.002549 0.018401 -0.004727 0.000000 0.000000 0.000000
# 3 -0.004727 -0.004727 0.009445 0.000000 0.000000 0.000000
# 4 0.000000 0.000000 0.000000 0.050102 0.000000 0.000000
# 5 0.000000 0.000000 0.000000 0.000000 0.050104 0.000000
# 6 0.000000 0.000000 0.000000 0.000000 0.000000 0.088050
#
#
# Mechanical properties :
#
#
# Convention : Reuss Voigt Hill
#
# Bulk Modulus (GPa) = 30.82950 42.61196 36.72073
# Shear Modulus (GPa) = 19.29575 23.62164 21.45870
#
# Velocity S-wave (km/s) = 2.98136 3.29867 3.14402
# Velocity P-wave (km/s) = 5.10420 5.84272 5.48590
#
# Compressibility (1/GPa) = 0.03243647
#
# Stress axis : x y z
#
# Youngs Moduli (GPa) = 54.34585 54.34566 105.87385
#
# Poissons Ratio (x) = -0.13851 0.50045
# Poissons Ratio (y) = -0.13851 0.50046
# Poissons Ratio (z) = 0.25689 0.25689
#
# Static dielectric constant tensor:
#      x y z
#    x 1.804670 0.000000 0.000000 
#    y 0.000000 1.804670 0.000000 
#    z 0.000000 0.000000 1.785010 
# 
# From -- ./inp_files/5892.got.cif
#   From: 2010.05.17/outbox.cif.g08.bks.cpg/sg125_3_cif.got.tgz:5892.got - 2010.05.20 11:54:10.
