data_PCOD9563913
_publ_section_title
;
Structure prediction by ZEFSAII (Michael W. Deem and Ramdas Pophale) SiO2 
 PCOD9563913
Probable space group: P 4/M B M
;
_chemical_formula_sum "Si O2"
_cell_formula_units_Z 96
_cell_length_a 18.020109
_cell_length_b 18.020109
_cell_length_c 16.822982
_cell_angle_alpha 90.000000
_cell_angle_beta 90.000000
_cell_angle_gamma 90.000000
_cell_volume 5462.831531
_symmetry_space_group_name_H-M "P 4/M B M"
_symmetry_group_IT_number 127
_symmetry_cell_setting 'tetragonal'
loop_
_space_group_symop_operation_xyz
x,y,z
-y,x,z
-x,-y,z
y,-x,z
1/2+x,1/2-y,-z
1/2-x,1/2+y,-z
1/2+y,1/2+x,-z
1/2-y,1/2-x,-z
-x,-y,-z
y,-x,-z
x,y,-z
-y,x,-z
1/2-x,1/2+y,z
1/2+x,1/2-y,z
1/2-y,1/2-x,z
1/2+y,1/2+x,z
loop_
_atom_site_type_symbol
_atom_site_label
_atom_site_fract_x
_atom_site_fract_y
_atom_site_fract_z
Si Si1 0.274919 0.103679 0.167053
Si Si2 0.567907 0.185236 0.846706
Si Si3 0.664571 0.710823 0.320212
Si Si4 0.559346 0.820700 0.594129
Si Si5 0.799594 0.898419 0.000000
Si Si6 0.219229 0.400625 0.332154
Si Si7 0.925560 0.783672 0.000000
O O1 0.343103 0.156898 0.186118
O O2 0.215304 0.118437 0.237438
O O3 0.242300 0.123170 0.080935
O O4 0.306250 0.020429 0.161486
O O5 0.603410 0.103410 0.856693
O O6 0.598644 0.215742 0.763662
O O7 0.590892 0.234625 0.922020
O O8 0.737043 0.762958 0.307452
O O9 0.614055 0.752998 0.384041
O O10 0.699273 0.633147 0.348931
O O11 0.547863 0.825941 0.500000
O O12 0.604421 0.895580 0.619981
O O13 0.481644 0.803000 0.636536
O O14 0.877450 0.857308 0.000000
O O15 0.803165 0.987466 0.000000
O O16 0.156182 0.343819 0.362543
#
# Coordination Sequence:
#
# PCOD9563913 Si02
#       7
#    16  16  16  16   8  16   8
#     4  10  19  33  53  78 109 144 180 216 260 318
#     4  10  20  33  52  80 111 143 177 219 270 320
#     4   9  18  34  55  78 106 141 181 222 262 317
#     4  10  21  37  56  80 111 143 175 222 282 334
#     4  10  21  34  52  76 104 140 181 226 274 318
#     4  10  20  34  56  83 109 142 182 221 269 325
#     4  10  21  36  52  76 108 140 181 230 274 324
#
# _framework density 17.573302999999999
#
# number of rings (size 3 to 8) (size 9 to 14) (size 15 to 20)
#    0.000    2.167    1.667    1.500    0.000    4.500 
#    0.000    4.167    0.000    3.500    0.000    1.167 
#    0.000    0.000    0.000    0.000    0.000    0.000 
#
# Total GULP energy -534739.335404 kJ/mol
# GULP energy per Si atom -5570.201410 kJ/mol
# Density = 1.753331 g / cm^3
# Si number density = 17.573303 Si / 1000 Ang^3
#
#
#
# Elastic Constant Matrix: (Units=GPa)
#
#
# Indices 1 2 3 4 5 6 
#
# 1 76.9993 66.3300 23.7165 0.0000 0.0000 0.0000
# 2 66.3300 76.9993 23.7165 0.0000 0.0000 0.0000
# 3 23.7165 23.7165 67.4955 0.0000 0.0000 0.0000
# 4 0.0000 0.0000 0.0000 8.8541 0.0000 0.0000
# 5 0.0000 0.0000 0.0000 0.0000 8.8541 0.0000
# 6 0.0000 0.0000 0.0000 0.0000 0.0000 28.0298
#
#
#
# Elastic Compliance Matrix: (Units=1/GPa)
#
#
# Indices 1 2 3 4 5 6 
#
# 1 0.050811 -0.042916 -0.002774 0.000000 0.000000 0.000000
# 2 -0.042916 0.050811 -0.002774 0.000000 0.000000 0.000000
# 3 -0.002774 -0.002774 0.016765 0.000000 0.000000 0.000000
# 4 0.000000 0.000000 0.000000 0.112943 0.000000 0.000000
# 5 0.000000 0.000000 0.000000 0.000000 0.112943 0.000000
# 6 0.000000 0.000000 0.000000 0.000000 0.000000 0.035676
#
#
# Mechanical properties :
#
#
# Convention : Reuss Voigt Hill
#
# Bulk Modulus (GPa) = 46.60090 49.89110 48.24600
# Shear Modulus (GPa) = 10.32993 16.32966 13.32980
#
# Velocity S-wave (km/s) = 2.42713 3.05164 2.75712
# Velocity P-wave (km/s) = 5.86772 6.39285 6.13591
#
# Compressibility (1/GPa) = 0.02145881
#
# Stress axis : x y z
#
# Youngs Moduli (GPa) = 19.68077 19.68077 59.64688
#
# Poissons Ratio (x) = 0.84462 0.16547
# Poissons Ratio (y) = 0.84462 0.16547
# Poissons Ratio (z) = 0.05460 0.05460
#
# Static dielectric constant tensor:
#      x y z
#    x 1.601960 0.000000 0.000000 
#    y 0.000000 1.601960 0.000000 
#    z 0.000000 0.000000 1.616590 
# 
# From -- ./inp_files/5154.got.cif
#   From: 2010.05.17/outbox.cif.g08.bks.cpg/sg127_3_cif.got.tgz:5154.got - 2010.05.20 12:03:00.
