data_PCOD9563663
_publ_section_title
;
Structure prediction by ZEFSAII (Michael W. Deem and Ramdas Pophale) SiO2 
 PCOD9563663
Probable space group: P 4/N N C
;
_chemical_formula_sum "Si O2"
_cell_formula_units_Z 112
_cell_length_a 14.479550
_cell_length_b 14.479550
_cell_length_c 24.198021
_cell_angle_alpha 90.000000
_cell_angle_beta 90.000000
_cell_angle_gamma 90.000000
_cell_volume 5073.293399
_symmetry_space_group_name_H-M "P 4/N N C"
_symmetry_group_IT_number 126
_space_group.IT_coordinate_system_code '2'
_symmetry_cell_setting 'tetragonal'
loop_
_space_group_symop_operation_xyz
x,y,z
1/2-y,x,z
1/2-x,1/2-y,z
y,1/2-x,z
x,1/2-y,1/2-z
1/2-x,y,1/2-z
y,x,1/2-z
1/2-y,1/2-x,1/2-z
-x,-y,-z
1/2+y,-x,-z
1/2+x,1/2+y,-z
-y,1/2+x,-z
-x,1/2+y,1/2+z
1/2+x,-y,1/2+z
-y,-x,1/2+z
1/2+y,1/2+x,1/2+z
loop_
_atom_site_type_symbol
_atom_site_label
_atom_site_fract_x
_atom_site_fract_y
_atom_site_fract_z
Si Si1 0.492445 0.151054 0.221203
Si Si2 0.165220 0.378284 0.014701
Si Si3 0.140990 0.513978 0.739234
Si Si4 0.022314 0.112730 0.401712
Si Si5 0.510733 0.316324 0.618919
Si Si6 0.042299 0.116803 0.903305
Si Si7 0.891225 0.183345 0.502067
O O1 0.495911 0.250000 0.250000
O O2 0.473270 0.164480 0.156102
O O3 0.414934 0.085067 0.250000
O O4 0.588814 0.094823 0.227548
O O5 0.128355 0.274074 0.007555
O O6 0.123521 0.404662 0.073407
O O7 0.127964 0.447067 0.968827
O O8 0.250000 0.498055 0.750000
O O9 0.077675 0.422326 0.750000
O O10 0.141097 0.547793 0.675276
O O11 0.956834 0.156823 0.450063
O O12 0.972493 0.016438 0.389784
O O13 0.503946 0.206236 0.621747
O O14 0.405837 0.354702 0.616045
O O15 0.561010 0.338744 0.561063
O O16 0.792539 0.132251 0.498647
#
# Coordination Sequence:
#
# PCOD9563663 Si02
#       7
#    16  16  16  16  16  16  16
#     4  11  28  52  75 107 144 196 257 316 369 440
#     4  11  24  41  63 103 142 176 224 282 351 423
#     4  11  25  49  71 106 146 195 253 302 366 440
#     4  12  25  44  74 100 141 183 241 283 374 419
#     4  12  24  41  71  94 144 176 233 292 352 422
#     4  12  22  41  64 105 133 188 219 285 354 426
#     4  11  25  43  67 105 141 179 228 293 355 428
#
# _framework density 22.07639
#
# number of rings (size 3 to 8) (size 9 to 14) (size 15 to 20)
#    0.000    0.571    4.286    3.857    4.000    0.857 
#    0.000    1.429    0.000    0.000    0.000    0.000 
#    0.000    0.000    0.000    0.000    0.000    0.000 
#
# Total GULP energy -625828.602515 kJ/mol
# GULP energy per Si atom -5587.755380 kJ/mol
# Density = 2.202614 g / cm^3
# Si number density = 22.076390 Si / 1000 Ang^3
#
#
#
# Elastic Constant Matrix: (Units=GPa)
#
#
# Indices 1 2 3 4 5 6 
#
# 1 90.1648 24.6080 23.2103 0.0000 0.0000 0.0000
# 2 24.6080 90.1662 23.2102 0.0000 0.0000 0.0000
# 3 23.2103 23.2102 155.1021 0.0000 0.0000 0.0000
# 4 0.0000 0.0000 0.0000 32.6485 0.0000 0.0000
# 5 0.0000 0.0000 0.0000 0.0000 32.6485 0.0000
# 6 0.0000 0.0000 0.0000 0.0000 0.0000 30.0055
#
#
#
# Elastic Compliance Matrix: (Units=1/GPa)
#
#
# Indices 1 2 3 4 5 6 
#
# 1 0.012264 -0.002990 -0.001388 0.000000 0.000000 0.000000
# 2 -0.002990 0.012264 -0.001388 0.000000 0.000000 0.000000
# 3 -0.001388 -0.001388 0.006863 0.000000 0.000000 0.000000
# 4 0.000000 0.000000 0.000000 0.030629 0.000000 0.000000
# 5 0.000000 0.000000 0.000000 0.000000 0.030629 0.000000
# 6 0.000000 0.000000 0.000000 0.000000 0.000000 0.033327
#
#
# Mechanical properties :
#
#
# Convention : Reuss Voigt Hill
#
# Bulk Modulus (GPa) = 50.35329 53.05444 51.70386
# Shear Modulus (GPa) = 34.69156 36.68747 35.68951
#
# Velocity S-wave (km/s) = 3.96843 4.08099 4.02510
# Velocity P-wave (km/s) = 6.62239 6.80370 6.71366
#
# Compressibility (1/GPa) = 0.01985968
#
# Stress axis : x y z
#
# Youngs Moduli (GPa) = 81.53906 81.54042 145.71462
#
# Poissons Ratio (x) = 0.24379 0.20223
# Poissons Ratio (y) = 0.24379 0.20222
# Poissons Ratio (z) = 0.11316 0.11316
#
# Static dielectric constant tensor:
#      x y z
#    x 1.823160 0.000000 0.000000 
#    y 0.000000 1.823160 0.000000 
#    z 0.000000 0.000000 1.881400 
# 
# From -- ./inp_files/5811.got.cif
#   From: 2010.05.17/outbox.cif.g08.bks.cpg/sg126_3_cif.got.tgz:5811.got - 2010.05.20 11:58:20.
