data_PCOD9563206
_publ_section_title
;
Structure prediction by ZEFSAII (Michael W. Deem and Ramdas Pophale) SiO2 
 PCOD9563206
Probable space group: P 4/N B M
;
_chemical_formula_sum "Si O2"
_cell_formula_units_Z 112
_cell_length_a 15.524747
_cell_length_b 15.524747
_cell_length_c 25.854548
_cell_angle_alpha 90.000000
_cell_angle_beta 90.000000
_cell_angle_gamma 90.000000
_cell_volume 6231.405488
_symmetry_space_group_name_H-M "P 4/N B M"
_symmetry_group_IT_number 125
_space_group.IT_coordinate_system_code '2'
_symmetry_cell_setting 'tetragonal'
loop_
_space_group_symop_operation_xyz
x,y,z
1/2-y,x,z
1/2-x,1/2-y,z
y,1/2-x,z
x,1/2-y,-z
1/2-x,y,-z
y,x,-z
1/2-y,1/2-x,-z
-x,-y,-z
1/2+y,-x,-z
1/2+x,1/2+y,-z
-y,1/2+x,-z
-x,1/2+y,z
1/2+x,-y,z
-y,-x,z
1/2+y,1/2+x,z
loop_
_atom_site_type_symbol
_atom_site_label
_atom_site_fract_x
_atom_site_fract_y
_atom_site_fract_z
Si Si1 0.322403 0.822403 0.256265
Si Si2 0.242689 0.496521 0.289154
Si Si3 0.233575 0.109988 0.194038
Si Si4 0.216380 0.578972 0.944539
Si Si5 0.112935 0.280966 0.071174
Si Si6 0.324254 0.675747 0.864127
Si Si7 0.932052 0.578665 0.660919
Si Si8 0.646898 0.852087 0.440098
O O1 0.250000 0.750000 0.253327
O O2 0.404332 0.784670 0.286466
O O3 0.344915 0.844915 0.195678
O O4 0.266650 0.471832 0.230078
O O5 0.157895 0.445680 0.309965
O O6 0.329277 0.470223 0.319896
O O7 0.322513 0.158580 0.206710
O O8 0.223964 0.098640 0.133058
O O9 0.130870 0.630870 0.930918
O O10 0.198341 0.478853 0.951253
O O11 0.284557 0.598704 0.898816
O O12 0.250000 0.611201 0.000000
O O13 0.151220 0.187335 0.057991
O O14 0.250000 0.750000 0.864460
O O15 0.905531 0.592839 0.601194
O O16 0.002896 0.502896 0.668054
O O17 0.632977 0.749466 0.432193
O O18 0.627744 0.872257 0.500000
#
# Coordination Sequence:
#
# PCOD9563206 Si02
#       8
#     8  16  16  16  16   8  16  16
#     4  11  24  42  58  80 122 165 197 237 307 370
#     4  12  22  37  59  86 122 155 201 255 296 362
#     4   9  17  32  58  85 112 146 186 232 291 350
#     4  11  21  38  62  86 111 143 189 239 286 343
#     4   9  20  39  59  83 115 150 184 227 288 354
#     4   9  20  38  64  83 109 158 193 236 296 355
#     4  12  24  37  58  92 121 164 212 251 310 365
#     4   9  18  35  61  89 118 157 205 261 318 364
#
# _framework density 17.973472000000001
#
# number of rings (size 3 to 8) (size 9 to 14) (size 15 to 20)
#    0.000    1.714    4.286    2.571    0.000    1.143 
#    1.286    2.143    4.714    0.000    0.000    0.000 
#    0.000    2.286    0.000    0.000    0.000    0.000 
#
# Total GULP energy -624446.962226 kJ/mol
# GULP energy per Si atom -5575.419306 kJ/mol
# Density = 1.793256 g / cm^3
# Si number density = 17.973472 Si / 1000 Ang^3
#
#
#
# Elastic Constant Matrix: (Units=GPa)
#
#
# Indices 1 2 3 4 5 6 
#
# 1 86.3974 33.7076 26.1636 0.0000 0.0000 0.0000
# 2 33.7076 86.3973 26.1636 0.0000 0.0000 0.0000
# 3 26.1636 26.1636 80.5113 0.0000 0.0000 0.0000
# 4 0.0000 0.0000 0.0000 19.8588 0.0000 0.0000
# 5 0.0000 0.0000 0.0000 0.0000 19.8589 0.0000
# 6 0.0000 0.0000 0.0000 0.0000 0.0000 23.7883
#
#
#
# Elastic Compliance Matrix: (Units=1/GPa)
#
#
# Indices 1 2 3 4 5 6 
#
# 1 0.014339 -0.004640 -0.003152 0.000000 0.000000 0.000000
# 2 -0.004640 0.014339 -0.003152 0.000000 0.000000 0.000000
# 3 -0.003152 -0.003152 0.014469 0.000000 0.000000 0.000000
# 4 0.000000 0.000000 0.000000 0.050355 0.000000 0.000000
# 5 0.000000 0.000000 0.000000 0.000000 0.050355 0.000000
# 6 0.000000 0.000000 0.000000 0.000000 0.000000 0.042038
#
#
# Mechanical properties :
#
#
# Convention : Reuss Voigt Hill
#
# Bulk Modulus (GPa) = 47.03682 47.26394 47.15038
# Shear Modulus (GPa) = 23.26989 23.85262 23.56125
#
# Velocity S-wave (km/s) = 3.60207 3.64689 3.62455
# Velocity P-wave (km/s) = 6.59749 6.63978 6.61867
#
# Compressibility (1/GPa) = 0.02125994
#
# Stress axis : x y z
#
# Youngs Moduli (GPa) = 69.73911 69.73902 69.11240
#
# Poissons Ratio (x) = 0.32358 0.21784
# Poissons Ratio (y) = 0.32358 0.21784
# Poissons Ratio (z) = 0.21981 0.21981
#
# Static dielectric constant tensor:
#      x y z
#    x 1.606110 0.000000 0.000000 
#    y 0.000000 1.606110 0.000000 
#    z 0.000000 0.000000 1.645370 
# 
# From -- ./inp_files/6466.got.cif
#   From: 2010.05.17/outbox.cif.g08.bks.cpg/sg125_4_cif.got.tgz:6466.got - 2010.05.20 11:54:10.
