data_PCOD9563332
_publ_section_title
;
Structure prediction by ZEFSAII (Michael W. Deem and Ramdas Pophale) SiO2 
 PCOD9563332
Probable space group: P 4/N N C
;
_chemical_formula_sum "Si O2"
_cell_formula_units_Z 40
_cell_length_a 15.609536
_cell_length_b 15.609536
_cell_length_c 5.473887
_cell_angle_alpha 90.000000
_cell_angle_beta 90.000000
_cell_angle_gamma 90.000000
_cell_volume 1333.754246
_symmetry_space_group_name_H-M "P 4/N N C"
_symmetry_group_IT_number 126
_space_group.IT_coordinate_system_code '2'
_symmetry_cell_setting 'tetragonal'
loop_
_space_group_symop_operation_xyz
x,y,z
1/2-y,x,z
1/2-x,1/2-y,z
y,1/2-x,z
x,1/2-y,1/2-z
1/2-x,y,1/2-z
y,x,1/2-z
1/2-y,1/2-x,1/2-z
-x,-y,-z
1/2+y,-x,-z
1/2+x,1/2+y,-z
-y,1/2+x,-z
-x,1/2+y,1/2+z
1/2+x,-y,1/2+z
-y,-x,1/2+z
1/2+y,1/2+x,1/2+z
loop_
_atom_site_type_symbol
_atom_site_label
_atom_site_fract_x
_atom_site_fract_y
_atom_site_fract_z
Si Si1 0.850875 0.393619 0.882719
Si Si2 0.047366 0.452635 0.750000
Si Si3 0.205769 0.421974 0.007277
O O1 0.832826 0.354199 0.617913
O O2 0.794713 0.475022 0.964079
O O3 0.950065 0.429198 0.823296
O O4 0.087320 0.396073 0.529742
O O5 0.250000 0.386115 0.250000
O O6 0.250000 0.397389 0.750000
#
# Coordination Sequence:
#
# PCOD9563332 Si02
#       3
#    16   8  16
#     4  10  19  34  57  82 114 153 190 233 300 362
#     4  10  22  40  62  85 122 167 196 242 314 372
#     4  11  22  34  54  89 124 151 197 257 298 346
#
# _framework density 29.990532999999999
#
# number of rings (size 3 to 8) (size 9 to 14) (size 15 to 20)
#    0.000    1.600    0.000    9.600    0.000    8.000 
#    0.000    2.000    0.000    0.600    0.000   14.000 
#    0.000  896.000    0.000    0.000    0.000    0.000 
#
# Total GULP energy -223460.966528 kJ/mol
# GULP energy per Si atom -5586.524163 kJ/mol
# Density = 2.992227 g / cm^3
# Si number density = 29.990533 Si / 1000 Ang^3
#
#
#
# Elastic Constant Matrix: (Units=GPa)
#
#
# Indices 1 2 3 4 5 6 
#
# 1 79.3742 12.1075 31.8874 0.0000 0.0000 0.0000
# 2 12.1075 79.3763 31.8876 0.0000 0.0000 0.0000
# 3 31.8874 31.8876 299.1035 0.0000 0.0000 0.0000
# 4 0.0000 0.0000 0.0000 49.2930 0.0000 0.0000
# 5 0.0000 0.0000 0.0000 0.0000 49.2933 0.0000
# 6 0.0000 0.0000 0.0000 0.0000 0.0000 48.2928
#
#
#
# Elastic Compliance Matrix: (Units=1/GPa)
#
#
# Indices 1 2 3 4 5 6 
#
# 1 0.013337 -0.001529 -0.001259 0.000000 0.000000 0.000000
# 2 -0.001529 0.013337 -0.001259 0.000000 0.000000 0.000000
# 3 -0.001259 -0.001259 0.003612 0.000000 0.000000 0.000000
# 4 0.000000 0.000000 0.000000 0.020287 0.000000 0.000000
# 5 0.000000 0.000000 0.000000 0.000000 0.020287 0.000000
# 6 0.000000 0.000000 0.000000 0.000000 0.000000 0.020707
#
#
# Mechanical properties :
#
#
# Convention : Reuss Voigt Hill
#
# Bulk Modulus (GPa) = 45.05850 67.73543 56.39697
# Shear Modulus (GPa) = 46.70377 54.84060 50.77219
#
# Velocity S-wave (km/s) = 3.95052 4.28085 4.11900
# Velocity P-wave (km/s) = 5.98880 6.86067 6.43951
#
# Compressibility (1/GPa) = 0.02219337
#
# Stress axis : x y z
#
# Youngs Moduli (GPa) = 74.97664 74.97867 276.87388
#
# Poissons Ratio (x) = 0.11462 0.34857
# Poissons Ratio (y) = 0.11461 0.34856
# Poissons Ratio (z) = 0.09439 0.09439
#
# Static dielectric constant tensor:
#      x y z
#    x 2.544830 0.000000 0.000000 
#    y 0.000000 2.544810 0.000000 
#    z 0.000000 0.000000 2.576470 
# 
# From -- ./inp_files/190.got.cif
#   From: 2010.05.17/outbox.cif.g08.bks.cpg/sg126_1_cif.got.tgz:190.got - 2010.05.20 11:58:20.
