data_PCOD9563080
_publ_section_title
;
Structure prediction by ZEFSAII (Michael W. Deem and Ramdas Pophale) SiO2 
 PCOD9563080
Probable space group: P 4/N B M
;
_chemical_formula_sum "Si O2"
_cell_formula_units_Z 80
_cell_length_a 14.112391
_cell_length_b 14.112391
_cell_length_c 23.458809
_cell_angle_alpha 90.000000
_cell_angle_beta 90.000000
_cell_angle_gamma 90.000000
_cell_volume 4672.046542
_symmetry_space_group_name_H-M "P 4/N B M"
_symmetry_group_IT_number 125
_space_group.IT_coordinate_system_code '2'
_symmetry_cell_setting 'tetragonal'
loop_
_space_group_symop_operation_xyz
x,y,z
1/2-y,x,z
1/2-x,1/2-y,z
y,1/2-x,z
x,1/2-y,-z
1/2-x,y,-z
y,x,-z
1/2-y,1/2-x,-z
-x,-y,-z
1/2+y,-x,-z
1/2+x,1/2+y,-z
-y,1/2+x,-z
-x,1/2+y,z
1/2+x,-y,z
-y,-x,z
1/2+y,1/2+x,z
loop_
_atom_site_type_symbol
_atom_site_label
_atom_site_fract_x
_atom_site_fract_y
_atom_site_fract_z
Si Si1 0.994218 0.652601 0.835639
Si Si2 0.849982 0.990895 0.970332
Si Si3 0.807469 0.600448 0.652454
Si Si4 0.011119 0.352050 0.774010
Si Si5 0.849681 0.508236 0.531564
O O1 0.005973 0.754284 0.806910
O O2 0.909493 0.595428 0.805219
O O3 0.087708 0.587708 0.828786
O O4 0.974462 0.661423 0.902913
O O5 0.918846 0.081154 0.977906
O O6 0.750000 0.007186 0.000000
O O7 0.903224 0.903224 0.000000
O O8 0.868113 0.697559 0.652006
O O9 0.830512 0.543242 0.709661
O O10 0.831041 0.541086 0.596134
O O11 0.919723 0.419723 0.775163
O O12 0.750000 0.494191 0.500000
O O13 0.915324 0.415324 0.529704
O O14 0.908430 0.591571 0.500000
#
# Coordination Sequence:
#
# PCOD9563080 Si02
#       5
#    16  16  16  16  16
#     4  10  22  38  59  85 114 153 197 239 293 359
#     4  10  21  38  58  84 116 150 192 241 295 353
#     4  11  21  37  63  91 120 156 198 249 297 345
#     4  11  22  39  60  84 120 157 194 246 297 345
#     4  11  23  40  63  90 123 160 199 245 295 351
#
# _framework density 17.123117000000001
#
# number of rings (size 3 to 8) (size 9 to 14) (size 15 to 20)
#    0.000    1.400    4.000    1.800    0.000    4.000 
#    0.000    5.000    0.000    2.400    0.000    0.000 
#    0.000    0.000    0.000    0.000    0.000    0.000 
#
# Total GULP energy -446976.643369 kJ/mol
# GULP energy per Si atom -5587.208042 kJ/mol
# Density = 1.708414 g / cm^3
# Si number density = 17.123117 Si / 1000 Ang^3
#
#
#
# Elastic Constant Matrix: (Units=GPa)
#
#
# Indices 1 2 3 4 5 6 
#
# 1 137.4445 51.1503 85.7183 0.0000 0.0000 0.0000
# 2 51.1503 137.4452 85.7172 0.0000 0.0000 0.0000
# 3 85.7183 85.7172 179.4647 0.0000 0.0000 0.0000
# 4 0.0000 0.0000 0.0000 31.3632 0.0000 0.0000
# 5 0.0000 0.0000 0.0000 0.0000 31.3636 0.0000
# 6 0.0000 0.0000 0.0000 0.0000 0.0000 8.3159
#
#
#
# Elastic Compliance Matrix: (Units=1/GPa)
#
#
# Indices 1 2 3 4 5 6 
#
# 1 0.010480 -0.001109 -0.004476 0.000000 0.000000 0.000000
# 2 -0.001109 0.010479 -0.004476 0.000000 0.000000 0.000000
# 3 -0.004476 -0.004476 0.009848 0.000000 0.000000 0.000000
# 4 0.000000 0.000000 0.000000 0.031885 0.000000 0.000000
# 5 0.000000 0.000000 0.000000 0.000000 0.031884 0.000000
# 6 0.000000 0.000000 0.000000 0.000000 0.000000 0.120251
#
#
# Mechanical properties :
#
#
# Convention : Reuss Voigt Hill
#
# Bulk Modulus (GPa) = 93.57819 99.94734 96.76277
# Shear Modulus (GPa) = 20.96355 29.65979 25.31167
#
# Velocity S-wave (km/s) = 3.50277 4.16642 3.84893
# Velocity P-wave (km/s) = 8.43375 9.03560 8.73985
#
# Compressibility (1/GPa) = 0.01068625
#
# Stress axis : x y z
#
# Youngs Moduli (GPa) = 95.42260 95.42443 101.54621
#
# Poissons Ratio (x) = 0.10579 0.45452
# Poissons Ratio (y) = 0.10579 0.45450
# Poissons Ratio (z) = 0.42711 0.42710
#
# Static dielectric constant tensor:
#      x y z
#    x 1.552070 0.000000 0.000000 
#    y 0.000000 1.552080 0.000000 
#    z 0.000000 0.000000 1.555010 
# 
# From -- ./inp_files/5810.got.cif
#   From: 2010.05.17/outbox.cif.g08.bks.cpg/sg125_3_cif.got.tgz:5810.got - 2010.05.20 11:54:10.
