data_PCOD9563731
_publ_section_title
;
Structure prediction by ZEFSAII (Michael W. Deem and Ramdas Pophale) SiO2 
 PCOD9563731
Probable space group: P 4/N N C
;
_chemical_formula_sum "Si O2"
_cell_formula_units_Z 112
_cell_length_a 15.000000
_cell_length_b 15.000000
_cell_length_c 24.000000
_cell_angle_alpha 90.000000
_cell_angle_beta 90.000000
_cell_angle_gamma 90.000000
_cell_volume 5400.000000
_symmetry_space_group_name_H-M "P 4/N N C"
_symmetry_group_IT_number 126
_space_group.IT_coordinate_system_code '2'
_symmetry_cell_setting 'tetragonal'
loop_
_space_group_symop_operation_xyz
x,y,z
1/2-y,x,z
1/2-x,1/2-y,z
y,1/2-x,z
x,1/2-y,1/2-z
1/2-x,y,1/2-z
y,x,1/2-z
1/2-y,1/2-x,1/2-z
-x,-y,-z
1/2+y,-x,-z
1/2+x,1/2+y,-z
-y,1/2+x,-z
-x,1/2+y,1/2+z
1/2+x,-y,1/2+z
-y,-x,1/2+z
1/2+y,1/2+x,1/2+z
loop_
_atom_site_type_symbol
_atom_site_label
_atom_site_fract_x
_atom_site_fract_y
_atom_site_fract_z
Si Si1 0.355109 0.146221 0.517288
Si Si2 0.315140 0.560279 0.803992
Si Si3 0.748108 0.128537 0.527542
Si Si4 0.959554 0.217340 0.193464
Si Si5 0.960470 0.556545 0.117841
Si Si6 0.353057 0.024384 0.080398
Si Si7 0.625414 0.144851 0.635226
O O1 0.370290 0.251069 0.524521
O O2 0.405973 0.093617 0.565344
O O3 0.387241 0.124237 0.454306
O O4 0.250000 0.542145 0.750000
O O5 0.393374 0.633631 0.794197
O O6 0.369110 0.479119 0.833977
O O7 0.245566 0.602752 0.847793
O O8 0.693950 0.165220 0.473939
O O9 0.674040 0.137296 0.575677
O O10 0.791969 0.033383 0.538004
O O11 0.006036 0.250000 0.250000
O O12 0.896590 0.299209 0.174996
O O13 0.023186 0.194702 0.140888
O O14 0.910592 0.466779 0.138355
O O15 0.055924 0.526850 0.093860
#
# Coordination Sequence:
#
# PCOD9563731 Si02
#       7
#    16  16  16  16  16  16  16
#     4  11  25  44  67  88 128 183 232 277 333 410
#     4  11  23  41  67  97 134 178 228 282 348 415
#     4  10  23  34  60  96 131 166 215 277 348 416
#     4  10  21  40  67  99 134 174 218 282 358 410
#     4  11  25  42  64  98 137 177 222 284 345 414
#     4  10  24  39  66  96 133 176 222 285 352 416
#     4  11  23  39  62  94 135 173 218 277 341 419
#
# _framework density 20.740741
#
# number of rings (size 3 to 8) (size 9 to 14) (size 15 to 20)
#    0.000    1.429    1.429    2.571   18.000    0.571 
#    0.000    0.000    0.000    0.000    0.000    2.000 
#    0.000    0.000    0.000    0.000    0.000    0.000 
#
# Total GULP energy -624729.072614 kJ/mol
# GULP energy per Si atom -5577.938148 kJ/mol
# Density = 2.069353 g / cm^3
# Si number density = 20.740741 Si / 1000 Ang^3
#
#
#
# Elastic Constant Matrix: (Units=GPa)
#
#
# Indices 1 2 3 4 5 6 
#
# 1 51.6007 -6.1738 49.7028 0.0000 0.0000 0.0000
# 2 -6.1738 51.6007 49.7028 0.0000 0.0000 0.0000
# 3 49.7028 49.7028 99.1001 0.0000 0.0000 0.0000
# 4 0.0000 0.0000 0.0000 34.6073 0.0000 0.0000
# 5 0.0000 0.0000 0.0000 0.0000 34.6073 0.0000
# 6 0.0000 0.0000 0.0000 0.0000 0.0000 15.4375
#
#
#
# Elastic Compliance Matrix: (Units=1/GPa)
#
#
# Indices 1 2 3 4 5 6 
#
# 1 -0.104234 -0.121543 0.113237 0.000000 0.000000 0.000000
# 2 -0.121543 -0.104234 0.113237 0.000000 0.000000 0.000000
# 3 0.113237 0.113237 -0.103495 0.000000 0.000000 0.000000
# 4 0.000000 0.000000 0.000000 0.028896 0.000000 0.000000
# 5 0.000000 0.000000 0.000000 0.000000 0.028896 0.000000
# 6 0.000000 0.000000 0.000000 0.000000 0.000000 0.064778
#
#
# Mechanical properties :
#
#
# Convention : Reuss Voigt Hill
#
# Bulk Modulus (GPa) = -9.79406 43.19616 16.70105
# Shear Modulus (GPa) = -11.53962 24.20174 6.33106
#
# Velocity S-wave (km/s) = -2.36132 3.41965 1.74903
# Velocity P-wave (km/s) = 3.48810 6.03854 3.48548
#
# Compressibility (1/GPa) = -0.10210267
#
# Stress axis : x y z
#
# Youngs Moduli (GPa) = -9.59378 -9.59378 -9.66230
#
# Poissons Ratio (x) = -1.16606 1.09413
# Poissons Ratio (y) = -1.16606 1.09413
# Poissons Ratio (z) = 1.08637 1.08637
#
# Static dielectric constant tensor:
#      x y z
#    x 1.752540 0.000000 0.000000 
#    y 0.000000 1.752540 0.000000 
#    z 0.000000 0.000000 1.816450 
# 
# From -- ./inp_files/5828.got.cif
#   From: 2010.05.17/outbox.ucp.g08.bks.cvg/sg126_3_cif.got.tgz:5828.got - 2010.06.11 11:36:48.
