data_PCOD9563001
_publ_section_title
;
Structure prediction by ZEFSAII (Michael W. Deem and Ramdas Pophale) SiO2 
 PCOD9563001
Probable space group: P 4/N B M
;
_chemical_formula_sum "Si O2"
_cell_formula_units_Z 72
_cell_length_a 14.186898
_cell_length_b 14.186898
_cell_length_c 18.111353
_cell_angle_alpha 90.000000
_cell_angle_beta 90.000000
_cell_angle_gamma 90.000000
_cell_volume 3645.237151
_symmetry_space_group_name_H-M "P 4/N B M"
_symmetry_group_IT_number 125
_space_group.IT_coordinate_system_code '2'
_symmetry_cell_setting 'tetragonal'
loop_
_space_group_symop_operation_xyz
x,y,z
1/2-y,x,z
1/2-x,1/2-y,z
y,1/2-x,z
x,1/2-y,-z
1/2-x,y,-z
y,x,-z
1/2-y,1/2-x,-z
-x,-y,-z
1/2+y,-x,-z
1/2+x,1/2+y,-z
-y,1/2+x,-z
-x,1/2+y,z
1/2+x,-y,z
-y,-x,z
1/2+y,1/2+x,z
loop_
_atom_site_type_symbol
_atom_site_label
_atom_site_fract_x
_atom_site_fract_y
_atom_site_fract_z
Si Si1 0.140611 0.640611 0.518996
Si Si2 0.541698 0.041698 0.925849
Si Si3 0.928290 0.428290 0.322066
Si Si4 0.333688 0.119594 0.149866
Si Si5 0.266427 0.516484 0.739547
Si Si6 0.920405 0.420405 0.630188
Si Si7 0.672528 0.327473 0.141511
O O1 0.123349 0.750000 0.500000
O O2 0.114506 0.614506 0.602151
O O3 0.083471 0.583471 0.457419
O O4 0.456156 0.094526 0.884133
O O5 0.622462 0.122462 0.927738
O O6 0.500000 0.000000 0.000000
O O7 0.977543 0.343807 0.277092
O O8 0.004781 0.504781 0.342366
O O9 0.374432 0.222293 0.128903
O O10 0.313721 0.081334 0.233462
O O11 0.321311 0.552208 0.667544
O O12 0.284199 0.590783 0.806083
O O13 0.750000 0.250000 0.123894
#
# Coordination Sequence:
#
# PCOD9563001 Si02
#       7
#     8   8   8  16  16   8   8
#     4  11  22  37  56  78 119 170 214 273 331 397
#     4  10  23  42  65  95 135 175 220 266 304 390
#     4  12  21  34  60  84 127 169 211 283 330 398
#     4  10  22  42  68  95 130 172 211 264 334 394
#     4  10  20  34  59  94 123 157 207 272 332 396
#     4  11  22  35  53  85 119 162 217 259 331 392
#     4   9  17  34  60  94 129 159 205 263 335 380
#
# _framework density 19.751802000000001
#
# number of rings (size 3 to 8) (size 9 to 14) (size 15 to 20)
#    0.000    1.667    3.333    2.333    0.000    1.778 
#    2.000    1.111    2.444    0.000    0.000    1.556 
#    0.000    0.000    0.000    0.000    0.000    0.000 
#
# Total GULP energy -401084.370696 kJ/mol
# GULP energy per Si atom -5570.616260 kJ/mol
# Density = 1.970685 g / cm^3
# Si number density = 19.751802 Si / 1000 Ang^3
#
#
#
# Elastic Constant Matrix: (Units=GPa)
#
#
# Indices 1 2 3 4 5 6 
#
# 1 103.2155 73.7642 33.9242 0.0000 0.0000 0.0000
# 2 73.7642 103.2155 33.9242 0.0000 0.0000 0.0000
# 3 33.9242 33.9242 74.9102 0.0000 0.0000 0.0000
# 4 0.0000 0.0000 0.0000 23.3219 0.0000 0.0000
# 5 0.0000 0.0000 0.0000 0.0000 23.3219 0.0000
# 6 0.0000 0.0000 0.0000 0.0000 0.0000 41.9206
#
#
#
# Elastic Compliance Matrix: (Units=1/GPa)
#
#
# Indices 1 2 3 4 5 6 
#
# 1 0.020396 -0.013558 -0.003096 0.000000 0.000000 0.000000
# 2 -0.013558 0.020396 -0.003096 0.000000 0.000000 0.000000
# 3 -0.003096 -0.003096 0.016154 0.000000 0.000000 0.000000
# 4 0.000000 0.000000 0.000000 0.042878 0.000000 0.000000
# 5 0.000000 0.000000 0.000000 0.000000 0.042878 0.000000
# 6 0.000000 0.000000 0.000000 0.000000 0.000000 0.023855
#
#
# Mechanical properties :
#
#
# Convention : Reuss Voigt Hill
#
# Bulk Modulus (GPa) = 57.32966 62.72961 60.02963
# Shear Modulus (GPa) = 23.59898 27.02812 25.31355
#
# Velocity S-wave (km/s) = 3.46030 3.70319 3.58380
# Velocity P-wave (km/s) = 6.71215 7.07903 6.89803
#
# Compressibility (1/GPa) = 0.01744298
#
# Stress axis : x y z
#
# Youngs Moduli (GPa) = 49.02949 49.02949 61.90477
#
# Poissons Ratio (x) = 0.66476 0.19168
# Poissons Ratio (y) = 0.66476 0.19168
# Poissons Ratio (z) = 0.15182 0.15182
#
# Static dielectric constant tensor:
#      x y z
#    x 1.729010 0.000000 0.000000 
#    y 0.000000 1.729010 0.000000 
#    z 0.000000 0.000000 1.695100 
# 
# From -- ./inp_files/5399.got.cif
#   From: 2010.05.17/outbox.cif.g08.bks.cpg/sg125_3_cif.got.tgz:5399.got - 2010.05.20 11:54:10.
