data_PCOD9563068
_publ_section_title
;
Structure prediction by ZEFSAII (Michael W. Deem and Ramdas Pophale) SiO2 
 PCOD9563068
Probable space group: P 4/N B M
;
_chemical_formula_sum "Si O2"
_cell_formula_units_Z 32
_cell_length_a 17.826237
_cell_length_b 17.826237
_cell_length_c 4.879963
_cell_angle_alpha 90.000000
_cell_angle_beta 90.000000
_cell_angle_gamma 90.000000
_cell_volume 1550.728903
_symmetry_space_group_name_H-M "P 4/N B M"
_symmetry_group_IT_number 125
_space_group.IT_coordinate_system_code '2'
_symmetry_cell_setting 'tetragonal'
loop_
_space_group_symop_operation_xyz
x,y,z
1/2-y,x,z
1/2-x,1/2-y,z
y,1/2-x,z
x,1/2-y,-z
1/2-x,y,-z
y,x,-z
1/2-y,1/2-x,-z
-x,-y,-z
1/2+y,-x,-z
1/2+x,1/2+y,-z
-y,1/2+x,-z
-x,1/2+y,z
1/2+x,-y,z
-y,-x,z
1/2+y,1/2+x,z
loop_
_atom_site_type_symbol
_atom_site_label
_atom_site_fract_x
_atom_site_fract_y
_atom_site_fract_z
Si Si1 0.869191 0.250000 0.500000
Si Si2 0.401582 0.022213 0.742847
Si Si3 0.750000 0.031673 0.000000
O O1 0.815181 0.184820 0.611258
O O2 0.917599 0.281422 0.751785
O O3 0.419796 0.080205 0.500000
O O4 0.443136 0.943136 0.670572
O O5 0.316645 0.011349 0.843363
O O6 0.444489 0.055512 0.000000
#
# Coordination Sequence:
#
# PCOD9563068 Si02
#       3
#     8  16   8
#     4  11  22  34  52  84 122 157 198 248 306 381
#     4  10  21  37  57  84 118 155 200 254 310 371
#     4  12  22  37  60  83 116 164 208 250 314 376
#
# _framework density 20.635456000000001
#
# number of rings (size 3 to 8) (size 9 to 14) (size 15 to 20)
#    0.000    1.250    0.000    7.500    0.000    6.000 
#    0.000    0.000    0.000    0.750    0.000    3.500 
#    0.000    0.000    0.000    0.000    0.000    0.000 
#
# Total GULP energy -178625.384406 kJ/mol
# GULP energy per Si atom -5582.043263 kJ/mol
# Density = 2.058849 g / cm^3
# Si number density = 20.635456 Si / 1000 Ang^3
#
#
#
# Elastic Constant Matrix: (Units=GPa)
#
#
# Indices 1 2 3 4 5 6 
#
# 1 134.1612 36.7855 38.8989 0.0000 0.0000 0.0000
# 2 36.7855 134.1573 38.8975 0.0000 0.0000 0.0000
# 3 38.8989 38.8975 143.4455 0.0000 0.0000 0.0000
# 4 0.0000 0.0000 0.0000 46.8498 0.0000 0.0000
# 5 0.0000 0.0000 0.0000 0.0000 46.8492 0.0000
# 6 0.0000 0.0000 0.0000 0.0000 0.0000 28.6216
#
#
#
# Elastic Compliance Matrix: (Units=1/GPa)
#
#
# Indices 1 2 3 4 5 6 
#
# 1 0.008471 -0.001798 -0.001810 0.000000 0.000000 0.000000
# 2 -0.001798 0.008472 -0.001810 0.000000 0.000000 0.000000
# 3 -0.001810 -0.001810 0.007953 0.000000 0.000000 0.000000
# 4 0.000000 0.000000 0.000000 0.021345 0.000000 0.000000
# 5 0.000000 0.000000 0.000000 0.000000 0.021345 0.000000
# 6 0.000000 0.000000 0.000000 0.000000 0.000000 0.034939
#
#
# Mechanical properties :
#
#
# Convention : Reuss Voigt Hill
#
# Bulk Modulus (GPa) = 71.11866 71.21419 71.16642
# Shear Modulus (GPa) = 42.35628 44.27626 43.31627
#
# Velocity S-wave (km/s) = 4.53548 4.63713 4.58658
# Velocity P-wave (km/s) = 7.87188 7.95337 7.91273
#
# Compressibility (1/GPa) = 0.01406101
#
# Stress axis : x y z
#
# Youngs Moduli (GPa) = 118.04364 118.04062 125.74309
#
# Poissons Ratio (x) = 0.21226 0.22755
# Poissons Ratio (y) = 0.21226 0.22755
# Poissons Ratio (z) = 0.21362 0.21361
#
# Static dielectric constant tensor:
#      x y z
#    x 1.775730 0.000000 0.000000 
#    y 0.000000 1.775730 0.000000 
#    z 0.000000 0.000000 1.702230 
# 
# From -- ./inp_files/339.got.cif
#   From: 2010.05.17/outbox.cif.g08.bks.cpg/sg125_1_cif.got.tgz:339.got - 2010.05.20 11:54:10.
