data_PCOD9563213
_publ_section_title
;
Structure prediction by ZEFSAII (Michael W. Deem and Ramdas Pophale) SiO2 
 PCOD9563213
Probable space group: P 4/N B M
;
_chemical_formula_sum "Si O2"
_cell_formula_units_Z 80
_cell_length_a 16.087454
_cell_length_b 16.087454
_cell_length_c 18.426501
_cell_angle_alpha 90.000000
_cell_angle_beta 90.000000
_cell_angle_gamma 90.000000
_cell_volume 4768.892265
_symmetry_space_group_name_H-M "P 4/N B M"
_symmetry_group_IT_number 125
_space_group.IT_coordinate_system_code '2'
_symmetry_cell_setting 'tetragonal'
loop_
_space_group_symop_operation_xyz
x,y,z
1/2-y,x,z
1/2-x,1/2-y,z
y,1/2-x,z
x,1/2-y,-z
1/2-x,y,-z
y,x,-z
1/2-y,1/2-x,-z
-x,-y,-z
1/2+y,-x,-z
1/2+x,1/2+y,-z
-y,1/2+x,-z
-x,1/2+y,z
1/2+x,-y,z
-y,-x,z
1/2+y,1/2+x,z
loop_
_atom_site_type_symbol
_atom_site_label
_atom_site_fract_x
_atom_site_fract_y
_atom_site_fract_z
Si Si1 0.380610 0.119391 0.500000
Si Si2 0.315444 0.133087 0.655642
Si Si3 0.948936 0.311899 0.565070
Si Si4 0.541430 0.317494 0.696848
Si Si5 0.753403 0.110681 0.157858
Si Si6 0.890739 0.250000 0.000000
O O1 0.318291 0.127183 0.567720
O O2 0.469527 0.137675 0.537595
O O3 0.358996 0.218904 0.676874
O O4 0.355413 0.050703 0.688854
O O5 0.925960 0.250000 0.500000
O O6 0.877212 0.377212 0.579439
O O7 0.958384 0.252802 0.634627
O O8 0.613689 0.386311 0.685564
O O9 0.556170 0.273616 0.774007
O O10 0.840620 0.159381 0.168933
O O11 0.684117 0.184117 0.154078
O O12 0.750989 0.066761 0.078871
O O13 0.829566 0.170435 0.002457
#
# Coordination Sequence:
#
# PCOD9563213 Si02
#       6
#     8  16  16  16  16   8
#     4  12  21  41  56  72  90 123 183 234 266 294
#     4  11  22  39  58  74  94 128 177 229 270 303
#     4  12  24  36  51  71 100 138 175 211 258 315
#     4  11  22  36  51  77 110 139 169 211 266 319
#     4   8  14  26  46  73 109 146 175 207 253 315
#     4   7  10  20  42  72 102 139 182 210 238 299
#
# _framework density 16.775385
#
# number of rings (size 3 to 8) (size 9 to 14) (size 15 to 20)
#    0.000    1.700    4.000    3.300    0.000    3.800 
#    0.000    0.000    0.000    0.000    0.000    1.400 
#    0.000    8.000    0.000    0.000    0.000    0.000 
#
# Total GULP energy -445694.865840 kJ/mol
# GULP energy per Si atom -5571.185823 kJ/mol
# Density = 1.673720 g / cm^3
# Si number density = 16.775385 Si / 1000 Ang^3
#
#
#
# Elastic Constant Matrix: (Units=GPa)
#
#
# Indices 1 2 3 4 5 6 
#
# 1 59.5249 35.0267 18.4973 0.0000 0.0000 0.0000
# 2 35.0267 59.5247 18.4983 0.0000 0.0000 0.0000
# 3 18.4973 18.4983 102.7598 0.0000 0.0000 0.0000
# 4 0.0000 0.0000 0.0000 5.2743 0.0000 0.0000
# 5 0.0000 0.0000 0.0000 0.0000 5.2742 0.0000
# 6 0.0000 0.0000 0.0000 0.0000 0.0000 10.0478
#
#
#
# Elastic Compliance Matrix: (Units=1/GPa)
#
#
# Indices 1 2 3 4 5 6 
#
# 1 0.026098 -0.014721 -0.002048 0.000000 0.000000 0.000000
# 2 -0.014721 0.026099 -0.002048 0.000000 0.000000 0.000000
# 3 -0.002048 -0.002048 0.010469 0.000000 0.000000 0.000000
# 4 0.000000 0.000000 0.000000 0.189598 0.000000 0.000000
# 5 0.000000 0.000000 0.000000 0.000000 0.189601 0.000000
# 6 0.000000 0.000000 0.000000 0.000000 0.000000 0.099524
#
#
# Mechanical properties :
#
#
# Convention : Reuss Voigt Hill
#
# Bulk Modulus (GPa) = 39.94940 40.65045 40.29992
# Shear Modulus (GPa) = 8.51256 14.10508 11.30882
#
# Velocity S-wave (km/s) = 2.25509 2.90284 2.59922
# Velocity P-wave (km/s) = 5.53594 5.95987 5.75181
#
# Compressibility (1/GPa) = 0.02503166
#
# Stress axis : x y z
#
# Youngs Moduli (GPa) = 38.31657 38.31619 95.52206
#
# Poissons Ratio (x) = 0.56405 0.19562
# Poissons Ratio (y) = 0.56405 0.19566
# Poissons Ratio (z) = 0.07847 0.07848
#
# Static dielectric constant tensor:
#      x y z
#    x 1.594860 0.000000 0.000000 
#    y 0.000000 1.594860 0.000000 
#    z 0.000000 0.000000 1.587300 
# 
# From -- ./inp_files/5420.got.cif
#   From: 2010.05.17/outbox.cif.g08.bks.cpg/sg125_3_cif.got.tgz:5420.got - 2010.05.20 11:54:10.
