data_PCOD9563217
_publ_section_title
;
Structure prediction by ZEFSAII (Michael W. Deem and Ramdas Pophale) SiO2 
 PCOD9563217
Probable space group: P 4/N B M
;
_chemical_formula_sum "Si O2"
_cell_formula_units_Z 48
_cell_length_a 13.504572
_cell_length_b 13.504572
_cell_length_c 13.634350
_cell_angle_alpha 90.000000
_cell_angle_beta 90.000000
_cell_angle_gamma 90.000000
_cell_volume 2486.543651
_symmetry_space_group_name_H-M "P 4/N B M"
_symmetry_group_IT_number 125
_space_group.IT_coordinate_system_code '2'
_symmetry_cell_setting 'tetragonal'
loop_
_space_group_symop_operation_xyz
x,y,z
1/2-y,x,z
1/2-x,1/2-y,z
y,1/2-x,z
x,1/2-y,-z
1/2-x,y,-z
y,x,-z
1/2-y,1/2-x,-z
-x,-y,-z
1/2+y,-x,-z
1/2+x,1/2+y,-z
-y,1/2+x,-z
-x,1/2+y,z
1/2+x,-y,z
-y,-x,z
1/2+y,1/2+x,z
loop_
_atom_site_type_symbol
_atom_site_label
_atom_site_fract_x
_atom_site_fract_y
_atom_site_fract_z
Si Si1 0.175168 0.993965 0.407462
Si Si2 0.472456 0.131066 0.690495
Si Si3 0.364176 0.127160 0.107075
O O1 0.250000 0.990966 0.500000
O O2 0.099954 0.900047 0.407046
O O3 0.106564 0.090488 0.389357
O O4 0.254018 0.002615 0.319136
O O5 0.429960 0.101465 0.796661
O O6 0.571565 0.071565 0.670321
O O7 0.383361 0.244743 0.110918
O O8 0.403919 0.096082 0.000000
#
# Coordination Sequence:
#
# PCOD9563217 Si02
#       3
#    16  16  16
#     4  11  24  41  60  85 120 158 199 246 295 349
#     4  11  22  37  60  89 118 154 201 246 294 355
#     4   9  17  33  58  85 116 151 193 242 299 353
#
# _framework density 19.303903999999999
#
# number of rings (size 3 to 8) (size 9 to 14) (size 15 to 20)
#    0.000    1.667    3.333    3.000    0.000    6.333 
#    0.000    1.667    0.000    0.000    0.000    0.000 
#    0.000    0.000    0.000    0.000    0.000    0.000 
#
# Total GULP energy -267322.309767 kJ/mol
# GULP energy per Si atom -5569.214787 kJ/mol
# Density = 1.925997 g / cm^3
# Si number density = 19.303904 Si / 1000 Ang^3
#
#
#
# Elastic Constant Matrix: (Units=GPa)
#
#
# Indices 1 2 3 4 5 6 
#
# 1 81.4054 42.2771 20.4277 0.0000 0.0000 0.0000
# 2 42.2771 81.4057 20.4277 0.0000 0.0000 0.0000
# 3 20.4277 20.4277 124.1042 0.0000 0.0000 0.0000
# 4 0.0000 0.0000 0.0000 15.1559 0.0000 0.0000
# 5 0.0000 0.0000 0.0000 0.0000 15.1557 0.0000
# 6 0.0000 0.0000 0.0000 0.0000 0.0000 13.2859
#
#
#
# Elastic Compliance Matrix: (Units=1/GPa)
#
#
# Indices 1 2 3 4 5 6 
#
# 1 0.017054 -0.008503 -0.001407 0.000000 0.000000 0.000000
# 2 -0.008503 0.017053 -0.001407 0.000000 0.000000 0.000000
# 3 -0.001407 -0.001407 0.008521 0.000000 0.000000 0.000000
# 4 0.000000 0.000000 0.000000 0.065981 0.000000 0.000000
# 5 0.000000 0.000000 0.000000 0.000000 0.065982 0.000000
# 6 0.000000 0.000000 0.000000 0.000000 0.000000 0.075268
#
#
# Mechanical properties :
#
#
# Convention : Reuss Voigt Hill
#
# Bulk Modulus (GPa) = 50.02049 50.35338 50.18693
# Shear Modulus (GPa) = 17.91094 22.30499 20.10797
#
# Velocity S-wave (km/s) = 3.04935 3.40290 3.23097
# Velocity P-wave (km/s) = 6.19406 6.44832 6.32247
#
# Compressibility (1/GPa) = 0.01999181
#
# Stress axis : x y z
#
# Youngs Moduli (GPa) = 58.63891 58.63917 117.35637
#
# Poissons Ratio (x) = 0.49863 0.16516
# Poissons Ratio (y) = 0.49863 0.16516
# Poissons Ratio (z) = 0.08253 0.08253
#
# Static dielectric constant tensor:
#      x y z
#    x 1.652750 0.000000 0.000000 
#    y 0.000000 1.652750 0.000000 
#    z 0.000000 0.000000 1.801990 
# 
# From -- ./inp_files/3345.got.cif
#   From: 2010.05.17/outbox.cif.g08.bks.cpg/sg125_2_cif.got.tgz:3345.got - 2010.05.20 11:54:10.
