data_PCOD9563367
_publ_section_title
;
Structure prediction by ZEFSAII (Michael W. Deem and Ramdas Pophale) SiO2 
 PCOD9563367
Probable space group: P 4/N N C
;
_chemical_formula_sum "Si O2"
_cell_formula_units_Z 112
_cell_length_a 13.812299
_cell_length_b 13.812299
_cell_length_c 29.150369
_cell_angle_alpha 90.000000
_cell_angle_beta 90.000000
_cell_angle_gamma 90.000000
_cell_volume 5561.295845
_symmetry_space_group_name_H-M "P 4/N N C"
_symmetry_group_IT_number 126
_space_group.IT_coordinate_system_code '2'
_symmetry_cell_setting 'tetragonal'
loop_
_space_group_symop_operation_xyz
x,y,z
1/2-y,x,z
1/2-x,1/2-y,z
y,1/2-x,z
x,1/2-y,1/2-z
1/2-x,y,1/2-z
y,x,1/2-z
1/2-y,1/2-x,1/2-z
-x,-y,-z
1/2+y,-x,-z
1/2+x,1/2+y,-z
-y,1/2+x,-z
-x,1/2+y,1/2+z
1/2+x,-y,1/2+z
-y,-x,1/2+z
1/2+y,1/2+x,1/2+z
loop_
_atom_site_type_symbol
_atom_site_label
_atom_site_fract_x
_atom_site_fract_y
_atom_site_fract_z
Si Si1 0.989007 0.885818 0.510445
Si Si2 0.515463 0.139436 0.264821
Si Si3 0.351998 0.640261 0.345379
Si Si4 0.627041 0.345882 0.815525
Si Si5 0.074652 0.553553 0.904335
Si Si6 0.135199 0.355239 0.931024
Si Si7 0.137602 0.722929 0.056200
O O1 0.999228 0.885013 0.565274
O O2 0.074444 0.825104 0.484635
O O3 0.889833 0.857159 0.485317
O O4 0.000000 0.000000 0.500000
O O5 0.492051 0.250000 0.250000
O O6 0.430491 0.069510 0.250000
O O7 0.544127 0.121588 0.317751
O O8 0.612578 0.117798 0.235056
O O9 0.404427 0.735814 0.324851
O O10 0.239137 0.650689 0.331172
O O11 0.360321 0.650537 0.400002
O O12 0.576127 0.416799 0.851375
O O13 0.067598 0.438000 0.910295
O O14 0.177736 0.585757 0.927535
O O15 0.119169 0.244601 0.917835
O O16 0.250000 0.750000 0.047474
#
# Coordination Sequence:
#
# PCOD9563367 Si02
#       7
#    16  16  16  16  16  16  16
#     4  10  23  35  51  82 117 156 191 245 299 359
#     4  10  21  35  57  83 112 152 191 231 288 352
#     4   9  17  34  57  84 112 144 177 239 306 357
#     4   9  17  35  55  85 114 138 180 238 300 362
#     4  10  20  33  54  83 111 143 193 241 298 347
#     4  10  20  37  54  70 105 157 204 232 269 343
#     4  11  20  33  56  88 117 146 190 249 316 359
#
# _framework density 20.139192999999999
#
# number of rings (size 3 to 8) (size 9 to 14) (size 15 to 20)
#    0.000    2.143    4.286    0.429    2.000    4.143 
#    0.000    0.000    0.000    0.000    0.000    0.000 
#    0.000    1.143    0.000    0.000    0.000    0.000 
#
# Total GULP energy -623999.717623 kJ/mol
# GULP energy per Si atom -5571.426050 kJ/mol
# Density = 2.009336 g / cm^3
# Si number density = 20.139193 Si / 1000 Ang^3
#
#
#
# Elastic Constant Matrix: (Units=GPa)
#
#
# Indices 1 2 3 4 5 6 
#
# 1 59.3977 14.5230 7.6242 0.0000 0.0000 0.0000
# 2 14.5230 59.3976 7.6258 0.0000 0.0000 0.0000
# 3 7.6242 7.6258 78.1729 0.0000 0.0000 0.0000
# 4 0.0000 0.0000 0.0000 20.7507 0.0000 0.0000
# 5 0.0000 0.0000 0.0000 0.0000 20.7503 0.0000
# 6 0.0000 0.0000 0.0000 0.0000 0.0000 20.1265
#
#
#
# Elastic Compliance Matrix: (Units=1/GPa)
#
#
# Indices 1 2 3 4 5 6 
#
# 1 0.018045 -0.004239 -0.001346 0.000000 0.000000 0.000000
# 2 -0.004239 0.018045 -0.001347 0.000000 0.000000 0.000000
# 3 -0.001346 -0.001347 0.013055 0.000000 0.000000 0.000000
# 4 0.000000 0.000000 0.000000 0.048191 0.000000 0.000000
# 5 0.000000 0.000000 0.000000 0.000000 0.048192 0.000000
# 6 0.000000 0.000000 0.000000 0.000000 0.000000 0.049686
#
#
# Mechanical properties :
#
#
# Convention : Reuss Voigt Hill
#
# Bulk Modulus (GPa) = 28.34467 28.50159 28.42313
# Shear Modulus (GPa) = 22.64092 23.47183 23.05637
#
# Velocity S-wave (km/s) = 3.35658 3.41762 3.38724
# Velocity P-wave (km/s) = 5.39695 5.45495 5.42603
#
# Compressibility (1/GPa) = 0.03528001
#
# Stress axis : x y z
#
# Youngs Moduli (GPa) = 55.41697 55.41660 76.59984
#
# Poissons Ratio (x) = 0.23492 0.10313
# Poissons Ratio (y) = 0.23493 0.10317
# Poissons Ratio (z) = 0.07461 0.07464
#
# Static dielectric constant tensor:
#      x y z
#    x 1.759430 0.000000 0.000000 
#    y 0.000000 1.759430 0.000000 
#    z 0.000000 0.000000 1.762370 
# 
# From -- ./inp_files/6630.got.cif
#   From: 2010.05.17/outbox.cif.g08.bks.cpg/sg126_4_cif.got.tgz:6630.got - 2010.05.20 11:58:20.
