data_PCOD9563957
_publ_section_title
;
Structure prediction by ZEFSAII (Michael W. Deem and Ramdas Pophale) SiO2 
 PCOD9563957
Probable space group: P 4/M B M
;
_chemical_formula_sum "Si O2"
_cell_formula_units_Z 72
_cell_length_a 20.661211
_cell_length_b 20.661211
_cell_length_c 7.596342
_cell_angle_alpha 90.000000
_cell_angle_beta 90.000000
_cell_angle_gamma 90.000000
_cell_volume 3242.769316
_symmetry_space_group_name_H-M "P 4/M B M"
_symmetry_group_IT_number 127
_symmetry_cell_setting 'tetragonal'
loop_
_space_group_symop_operation_xyz
x,y,z
-y,x,z
-x,-y,z
y,-x,z
1/2+x,1/2-y,-z
1/2-x,1/2+y,-z
1/2+y,1/2+x,-z
1/2-y,1/2-x,-z
-x,-y,-z
y,-x,-z
x,y,-z
-y,x,-z
1/2-x,1/2+y,z
1/2+x,1/2-y,z
1/2-y,1/2-x,z
1/2+y,1/2+x,z
loop_
_atom_site_type_symbol
_atom_site_label
_atom_site_fract_x
_atom_site_fract_y
_atom_site_fract_z
Si Si1 0.330327 0.169674 0.715477
Si Si2 0.585608 0.557766 0.785579
Si Si3 0.977676 0.323730 0.704346
Si Si4 0.415798 0.724258 0.207329
Si Si5 0.775189 0.724812 0.289922
Si Si6 0.054804 0.445197 0.703047
O O1 0.327868 0.172133 0.500000
O O2 0.315757 0.095446 0.773005
O O3 0.277526 0.222475 0.777008
O O4 0.517304 0.586874 0.729412
O O5 0.650980 0.590940 0.725075
O O6 0.583818 0.559633 0.000000
O O7 0.968014 0.342426 0.500000
O O8 0.022875 0.261137 0.713093
O O9 0.020960 0.381977 0.784405
O O10 0.348016 0.759152 0.235086
O O11 0.429325 0.721541 0.000000
O O12 0.772990 0.727011 0.500000
O O13 0.072876 0.427125 0.500000
O O14 0.000000 0.500000 0.698118
#
# Coordination Sequence:
#
# PCOD9563957 Si02
#       6
#     8  16  16  16   8   8
#     4   9  20  37  60  88 118 157 205 244 283 350
#     4   8  16  33  56  81 110 146 188 233 285 346
#     4  10  19  35  59  87 116 151 193 235 284 348
#     4  11  23  37  59  88 117 150 194 243 294 350
#     4  11  24  42  58  79 118 165 202 241 294 351
#     4   9  15  28  54  80 103 136 183 226 266 325
#
# _framework density 22.203244999999999
#
# number of rings (size 3 to 8) (size 9 to 14) (size 15 to 20)
#    0.000    2.333    1.111    2.333    3.111    0.889 
#    0.000    1.667    0.000    0.667    0.000    6.222 
#    0.000    0.000    0.000    0.000    0.000    0.000 
#
# Total GULP energy -401911.680650 kJ/mol
# GULP energy per Si atom -5582.106676 kJ/mol
# Density = 2.215271 g / cm^3
# Si number density = 22.203245 Si / 1000 Ang^3
#
#
#
# Elastic Constant Matrix: (Units=GPa)
#
#
# Indices 1 2 3 4 5 6 
#
# 1 84.8230 36.9411 -8.3007 0.0000 0.0000 0.0000
# 2 36.9411 84.8226 -8.3008 0.0000 0.0000 0.0000
# 3 -8.3007 -8.3008 46.8237 0.0000 0.0000 0.0000
# 4 0.0000 0.0000 0.0000 0.2717 0.0000 0.0000
# 5 0.0000 0.0000 0.0000 0.0000 0.2717 0.0000
# 6 0.0000 0.0000 0.0000 0.0000 0.0000 41.3480
#
#
#
# Elastic Compliance Matrix: (Units=1/GPa)
#
#
# Indices 1 2 3 4 5 6 
#
# 1 0.014650 -0.006234 0.001492 0.000000 0.000000 0.000000
# 2 -0.006234 0.014650 0.001492 0.000000 0.000000 0.000000
# 3 0.001492 0.001492 0.021886 0.000000 0.000000 0.000000
# 4 0.000000 0.000000 0.000000 3.679989 0.000000 0.000000
# 5 0.000000 0.000000 0.000000 0.000000 3.680190 0.000000
# 6 0.000000 0.000000 0.000000 0.000000 0.000000 0.024185
#
#
# Mechanical properties :
#
#
# Convention : Reuss Voigt Hill
#
# Bulk Modulus (GPa) = 22.37857 28.57206 25.47531
# Shear Modulus (GPa) = 0.67052 21.45359 11.06205
#
# Velocity S-wave (km/s) = 0.55013 3.11181 2.23450
# Velocity P-wave (km/s) = 3.24104 5.08011 4.26098
#
# Compressibility (1/GPa) = 0.04468561
#
# Stress axis : x y z
#
# Youngs Moduli (GPa) = 68.25759 68.25725 45.69196
#
# Poissons Ratio (x) = 0.42554 -0.06817
# Poissons Ratio (y) = 0.42554 -0.06817
# Poissons Ratio (z) = -0.10184 -0.10184
#
# Static dielectric constant tensor:
#      x y z
#    x 1.803400 0.000000 0.000000 
#    y 0.000000 1.803400 0.000000 
#    z 0.000000 0.000000 1.867640 
# 
# From -- ./inp_files/1608.got.cif
#   From: 2010.05.17/outbox.cif.g08.bks.cpg/sg127_1_cif.got.tgz:1608.got - 2010.05.20 12:03:00.
