data_PCOD9563657
_publ_section_title
;
Structure prediction by ZEFSAII (Michael W. Deem and Ramdas Pophale) SiO2 
 PCOD9563657
Probable space group: P 4/N N C
;
_chemical_formula_sum "Si O2"
_cell_formula_units_Z 80
_cell_length_a 11.343219
_cell_length_b 11.343219
_cell_length_c 31.602822
_cell_angle_alpha 90.000000
_cell_angle_beta 90.000000
_cell_angle_gamma 90.000000
_cell_volume 4066.291409
_symmetry_space_group_name_H-M "P 4/N N C"
_symmetry_group_IT_number 126
_space_group.IT_coordinate_system_code '2'
_symmetry_cell_setting 'tetragonal'
loop_
_space_group_symop_operation_xyz
x,y,z
1/2-y,x,z
1/2-x,1/2-y,z
y,1/2-x,z
x,1/2-y,1/2-z
1/2-x,y,1/2-z
y,x,1/2-z
1/2-y,1/2-x,1/2-z
-x,-y,-z
1/2+y,-x,-z
1/2+x,1/2+y,-z
-y,1/2+x,-z
-x,1/2+y,1/2+z
1/2+x,-y,1/2+z
-y,-x,1/2+z
1/2+y,1/2+x,1/2+z
loop_
_atom_site_type_symbol
_atom_site_label
_atom_site_fract_x
_atom_site_fract_y
_atom_site_fract_z
Si Si1 0.491353 0.008647 0.949823
Si Si2 0.886164 0.613836 0.877252
Si Si3 0.250000 0.890777 0.684968
Si Si4 0.608648 0.250000 0.917508
Si Si5 0.499490 0.499491 0.704289
O O1 0.577157 0.922843 0.923970
O O2 0.363392 0.962381 0.934740
O O3 0.537619 0.136607 0.934740
O O4 0.500000 0.000000 0.000000
O O5 0.911836 0.750000 0.871987
O O6 0.949893 0.550107 0.839121
O O7 0.250000 0.750000 0.696374
O O8 0.250000 0.894704 0.633601
O O9 0.363758 0.960827 0.701593
O O10 0.136242 0.960827 0.701593
O O11 0.750000 0.250000 0.929366
O O12 0.545129 0.545129 0.750000
#
# Coordination Sequence:
#
# PCOD9563657 Si02
#       5
#    16  16  16  16  16
#     4  12  27  42  70 105 136 179 234 281 342 411
#     4  11  24  44  67  94 134 178 225 284 344 402
#     4  11  23  45  71  98 138 183 226 279 341 405
#     4  11  24  46  73  99 142 187 226 284 345 405
#     4  12  25  42  68 102 136 176 229 280 337 407
#
# _framework density 19.673946000000001
#
# number of rings (size 3 to 8) (size 9 to 14) (size 15 to 20)
#    0.000    0.600    4.000    3.000    5.600    4.800 
#    0.000    4.000    0.000    0.000    0.000    0.000 
#    0.000    0.000    0.000    0.000    0.000    0.000 
#
# Total GULP energy -446499.923132 kJ/mol
# GULP energy per Si atom -5581.249039 kJ/mol
# Density = 1.962917 g / cm^3
# Si number density = 19.673946 Si / 1000 Ang^3
#
#
#
# Elastic Constant Matrix: (Units=GPa)
#
#
# Indices 1 2 3 4 5 6 
#
# 1 162.8980 44.0587 36.9109 0.0000 0.0000 0.0000
# 2 44.0587 162.8980 36.9109 0.0000 0.0000 0.0000
# 3 36.9109 36.9109 152.1943 0.0000 0.0000 0.0000
# 4 0.0000 0.0000 0.0000 -15.9578 0.0000 0.0000
# 5 0.0000 0.0000 0.0000 0.0000 -15.9578 0.0000
# 6 0.0000 0.0000 0.0000 0.0000 0.0000 34.2711
#
#
#
# Elastic Compliance Matrix: (Units=1/GPa)
#
#
# Indices 1 2 3 4 5 6 
#
# 1 0.006852 -0.001563 -0.001283 0.000000 0.000000 0.000000
# 2 -0.001563 0.006852 -0.001283 0.000000 0.000000 0.000000
# 3 -0.001283 -0.001283 0.007193 0.000000 0.000000 0.000000
# 4 0.000000 0.000000 0.000000 -0.062665 0.000000 0.000000
# 5 0.000000 0.000000 0.000000 0.000000 -0.062665 0.000000
# 6 0.000000 0.000000 0.000000 0.000000 0.000000 0.029179
#
#
# Mechanical properties :
#
#
# Convention : Reuss Voigt Hill
#
# Bulk Modulus (GPa) = 79.11099 79.30570 79.20835
# Shear Modulus (GPa) = -79.63756 24.47841 -27.57957
#
# Velocity S-wave (km/s) = -6.36919 3.53115 -3.74817
# Velocity P-wave (km/s) = 3.71355 7.55135 4.64933
#
# Compressibility (1/GPa) = 0.01264047
#
# Stress axis : x y z
#
# Youngs Moduli (GPa) = 145.94014 145.94014 139.02812
#
# Poissons Ratio (x) = 0.22805 0.17835
# Poissons Ratio (y) = 0.22805 0.17835
# Poissons Ratio (z) = 0.18722 0.18722
#
# Static dielectric constant tensor:
#      x y z
#    x 1.731910 0.000000 0.000000 
#    y 0.000000 1.731910 0.000000 
#    z 0.000000 0.000000 1.663420 
# 
# From -- ./inp_files/6437.got.cif
#   From: 2010.05.17/outbox.cif.g08.bks.cpg/sg126_4_cif.got.tgz:6437.got - 2010.05.20 11:58:20.
