data_PCOD9563294
_publ_section_title
;
Structure prediction by ZEFSAII (Michael W. Deem and Ramdas Pophale) SiO2 
 PCOD9563294
Probable space group: P 4/N N C
;
_chemical_formula_sum "Si O2"
_cell_formula_units_Z 112
_cell_length_a 19.292427
_cell_length_b 19.292427
_cell_length_c 18.700951
_cell_angle_alpha 90.000000
_cell_angle_beta 90.000000
_cell_angle_gamma 90.000000
_cell_volume 6960.451690
_symmetry_space_group_name_H-M "P 4/N N C"
_symmetry_group_IT_number 126
_space_group.IT_coordinate_system_code '2'
_symmetry_cell_setting 'tetragonal'
loop_
_space_group_symop_operation_xyz
x,y,z
1/2-y,x,z
1/2-x,1/2-y,z
y,1/2-x,z
x,1/2-y,1/2-z
1/2-x,y,1/2-z
y,x,1/2-z
1/2-y,1/2-x,1/2-z
-x,-y,-z
1/2+y,-x,-z
1/2+x,1/2+y,-z
-y,1/2+x,-z
-x,1/2+y,1/2+z
1/2+x,-y,1/2+z
-y,-x,1/2+z
1/2+y,1/2+x,1/2+z
loop_
_atom_site_type_symbol
_atom_site_label
_atom_site_fract_x
_atom_site_fract_y
_atom_site_fract_z
Si Si1 0.612406 0.382053 0.170372
Si Si2 0.869190 0.128416 0.830306
Si Si3 0.520664 0.399509 0.446719
Si Si4 0.474292 0.742290 0.327600
Si Si5 0.029486 0.746572 0.492113
Si Si6 0.667797 0.260527 0.073118
Si Si7 0.496732 0.898656 0.559215
O O1 0.607020 0.352304 0.249708
O O2 0.663586 0.447198 0.172905
O O3 0.650239 0.329751 0.116202
O O4 0.538606 0.398212 0.136651
O O5 0.905871 0.066784 0.874658
O O6 0.913833 0.199020 0.823667
O O7 0.801852 0.143790 0.876535
O O8 0.513406 0.319986 0.471189
O O9 0.564258 0.440999 0.506739
O O10 0.446250 0.435779 0.441145
O O11 0.512712 0.750000 0.250000
O O12 0.496897 0.753343 0.410121
O O13 0.114224 0.739224 0.505060
O O14 0.997308 0.680083 0.531821
O O15 0.750000 0.250000 0.066271
#
# Coordination Sequence:
#
# PCOD9563294 Si02
#       7
#    16  16  16  16  16  16  16
#     4  10  19  30  44  66  98 133 165 199 241 285
#     4  10  19  30  44  66  98 133 165 199 241 285
#     4  10  20  34  51  72  98 129 169 212 251 301
#     4  10  18  29  43  65  97 129 164 200 235 288
#     4  10  20  35  50  70  95 135 169 206 257 302
#     4  10  19  28  44  69 101 133 168 200 231 293
#     4  10  20  34  51  72  98 129 169 212 251 301
#
# _framework density 16.090910000000001
#
# number of rings (size 3 to 8) (size 9 to 14) (size 15 to 20)
#    0.000    2.000    4.286    0.429    0.000    1.143 
#    2.571    0.000    0.000    1.286    0.000    0.000 
#    0.000    0.000    0.000   11.714    0.000    0.000 
#
# Total GULP energy -623497.970452 kJ/mol
# GULP energy per Si atom -5566.946165 kJ/mol
# Density = 1.605429 g / cm^3
# Si number density = 16.090910 Si / 1000 Ang^3
#
#
#
# Elastic Constant Matrix: (Units=GPa)
#
#
# Indices 1 2 3 4 5 6 
#
# 1 58.1234 33.7905 20.1696 0.0000 0.0000 0.0000
# 2 33.7905 58.1234 20.1696 0.0000 0.0000 0.0000
# 3 20.1696 20.1696 107.1195 0.0000 0.0000 0.0000
# 4 0.0000 0.0000 0.0000 11.2306 0.0000 0.0000
# 5 0.0000 0.0000 0.0000 0.0000 11.2306 0.0000
# 6 0.0000 0.0000 0.0000 0.0000 0.0000 18.6169
#
#
#
# Elastic Compliance Matrix: (Units=1/GPa)
#
#
# Indices 1 2 3 4 5 6 
#
# 1 0.026478 -0.014618 -0.002233 0.000000 0.000000 0.000000
# 2 -0.014618 0.026478 -0.002233 0.000000 0.000000 0.000000
# 3 -0.002233 -0.002233 0.010176 0.000000 0.000000 0.000000
# 4 0.000000 0.000000 0.000000 0.089043 0.000000 0.000000
# 5 0.000000 0.000000 0.000000 0.000000 0.089043 0.000000
# 6 0.000000 0.000000 0.000000 0.000000 0.000000 0.053714
#
#
# Mechanical properties :
#
#
# Convention : Reuss Voigt Hill
#
# Bulk Modulus (GPa) = 40.05838 41.29173 40.67505
# Shear Modulus (GPa) = 14.64459 18.16472 16.40466
#
# Velocity S-wave (km/s) = 3.02009 3.36353 3.19642
# Velocity P-wave (km/s) = 6.09182 6.38762 6.24147
#
# Compressibility (1/GPa) = 0.02496357
#
# Stress axis : x y z
#
# Youngs Moduli (GPa) = 37.76684 37.76684 98.26747
#
# Poissons Ratio (x) = 0.55209 0.21944
# Poissons Ratio (y) = 0.55209 0.21944
# Poissons Ratio (z) = 0.08434 0.08434
#
# Static dielectric constant tensor:
#      x y z
#    x 1.536090 0.000000 0.000000 
#    y 0.000000 1.536090 0.000000 
#    z 0.000000 0.000000 1.597890 
# 
# From -- ./inp_files/4691.got.cif
#   From: 2010.05.17/outbox.cif.g08.bks.cpg/sg126_3_cif.got.tgz:4691.got - 2010.05.20 11:58:20.
