data_PCOD9563116
_publ_section_title
;
Structure prediction by ZEFSAII (Michael W. Deem and Ramdas Pophale) SiO2 
 PCOD9563116
Probable space group: P 4/N B M
;
_chemical_formula_sum "Si O2"
_cell_formula_units_Z 48
_cell_length_a 13.859584
_cell_length_b 13.859584
_cell_length_c 13.214000
_cell_angle_alpha 90.000000
_cell_angle_beta 90.000000
_cell_angle_gamma 90.000000
_cell_volume 2538.251739
_symmetry_space_group_name_H-M "P 4/N B M"
_symmetry_group_IT_number 125
_space_group.IT_coordinate_system_code '2'
_symmetry_cell_setting 'tetragonal'
loop_
_space_group_symop_operation_xyz
x,y,z
1/2-y,x,z
1/2-x,1/2-y,z
y,1/2-x,z
x,1/2-y,-z
1/2-x,y,-z
y,x,-z
1/2-y,1/2-x,-z
-x,-y,-z
1/2+y,-x,-z
1/2+x,1/2+y,-z
-y,1/2+x,-z
-x,1/2+y,z
1/2+x,-y,z
-y,-x,z
1/2+y,1/2+x,z
loop_
_atom_site_type_symbol
_atom_site_label
_atom_site_fract_x
_atom_site_fract_y
_atom_site_fract_z
Si Si1 0.333013 0.507820 0.703135
Si Si2 0.365197 0.365197 0.000000
Si Si3 0.907968 0.250000 0.500000
Si Si4 0.870130 0.973742 0.793899
O O1 0.400256 0.599745 0.731686
O O2 0.289688 0.530466 0.593103
O O3 0.242536 0.489377 0.776105
O O4 0.403482 0.415973 0.709142
O O5 0.250000 0.380258 0.000000
O O6 0.421074 0.396438 0.899231
O O7 0.836712 0.163289 0.534632
O O8 0.925402 0.074599 0.789174
#
# Coordination Sequence:
#
# PCOD9563116 Si02
#       4
#    16   8   8  16
#     4  10  22  38  59  90 120 156 201 242 295 355
#     4  11  21  38  62  84 115 159 194 246 298 356
#     4   9  18  36  60  85 122 164 198 239 292 351
#     4  11  22  38  62  87 119 156 197 248 297 354
#
# _framework density 18.910655999999999
#
# number of rings (size 3 to 8) (size 9 to 14) (size 15 to 20)
#    0.000    1.667    3.333    1.500    0.000    4.000 
#    0.000    5.000    0.000    2.000    0.000    0.000 
#    0.000    0.000    0.000    0.000    0.000    0.000 
#
# Total GULP energy -267775.448397 kJ/mol
# GULP energy per Si atom -5578.655175 kJ/mol
# Density = 1.886761 g / cm^3
# Si number density = 18.910656 Si / 1000 Ang^3
#
#
#
# Elastic Constant Matrix: (Units=GPa)
#
#
# Indices 1 2 3 4 5 6 
#
# 1 91.3444 44.8873 24.6923 0.0000 0.0000 0.0000
# 2 44.8873 91.3444 24.6923 0.0000 0.0000 0.0000
# 3 24.6923 24.6923 72.2870 0.0000 0.0000 0.0000
# 4 0.0000 0.0000 0.0000 26.5780 0.0000 0.0000
# 5 0.0000 0.0000 0.0000 0.0000 26.5780 0.0000
# 6 0.0000 0.0000 0.0000 0.0000 0.0000 14.8432
#
#
#
# Elastic Compliance Matrix: (Units=1/GPa)
#
#
# Indices 1 2 3 4 5 6 
#
# 1 0.014952 -0.006574 -0.002862 0.000000 0.000000 0.000000
# 2 -0.006574 0.014952 -0.002862 0.000000 0.000000 0.000000
# 3 -0.002862 -0.002862 0.015789 0.000000 0.000000 0.000000
# 4 0.000000 0.000000 0.000000 0.037625 0.000000 0.000000
# 5 0.000000 0.000000 0.000000 0.000000 0.037625 0.000000
# 6 0.000000 0.000000 0.000000 0.000000 0.000000 0.067371
#
#
# Mechanical properties :
#
#
# Convention : Reuss Voigt Hill
#
# Bulk Modulus (GPa) = 47.39904 49.27992 48.33948
# Shear Modulus (GPa) = 22.73347 24.31343 23.52345
#
# Velocity S-wave (km/s) = 3.47097 3.58956 3.53076
# Velocity P-wave (km/s) = 6.41737 6.57995 6.49917
#
# Compressibility (1/GPa) = 0.02109747
#
# Stress axis : x y z
#
# Youngs Moduli (GPa) = 66.88276 66.88276 63.33597
#
# Poissons Ratio (x) = 0.43967 0.18125
# Poissons Ratio (y) = 0.43967 0.18125
# Poissons Ratio (z) = 0.19140 0.19140
#
# Static dielectric constant tensor:
#      x y z
#    x 1.639880 0.000000 0.000000 
#    y 0.000000 1.639880 0.000000 
#    z 0.000000 0.000000 1.683530 
# 
# From -- ./inp_files/3429.got.cif
#   From: 2010.05.17/outbox.cif.g08.bks.cpg/sg125_2_cif.got.tgz:3429.got - 2010.05.20 11:54:10.
