data_PCOD9563522
_publ_section_title
;
Structure prediction by ZEFSAII (Michael W. Deem and Ramdas Pophale) SiO2 
 PCOD9563522
Probable space group: P 4/N N C
;
_chemical_formula_sum "Si O2"
_cell_formula_units_Z 96
_cell_length_a 22.680097
_cell_length_b 22.680097
_cell_length_c 9.871502
_cell_angle_alpha 90.000000
_cell_angle_beta 90.000000
_cell_angle_gamma 90.000000
_cell_volume 5077.770324
_symmetry_space_group_name_H-M "P 4/N N C"
_symmetry_group_IT_number 126
_space_group.IT_coordinate_system_code '2'
_symmetry_cell_setting 'tetragonal'
loop_
_space_group_symop_operation_xyz
x,y,z
1/2-y,x,z
1/2-x,1/2-y,z
y,1/2-x,z
x,1/2-y,1/2-z
1/2-x,y,1/2-z
y,x,1/2-z
1/2-y,1/2-x,1/2-z
-x,-y,-z
1/2+y,-x,-z
1/2+x,1/2+y,-z
-y,1/2+x,-z
-x,1/2+y,1/2+z
1/2+x,-y,1/2+z
-y,-x,1/2+z
1/2+y,1/2+x,1/2+z
loop_
_atom_site_type_symbol
_atom_site_label
_atom_site_fract_x
_atom_site_fract_y
_atom_site_fract_z
Si Si1 0.086361 0.581236 0.278172
Si Si2 0.001565 0.431426 0.966143
Si Si3 0.189627 0.393792 0.171679
Si Si4 0.635982 0.902059 0.106959
Si Si5 0.699584 0.033832 0.847595
Si Si6 0.971081 0.303419 0.647206
O O1 0.093664 0.537478 0.407955
O O2 0.029591 0.572664 0.180460
O O3 0.140411 0.568849 0.179424
O O4 0.078949 0.648280 0.324927
O O5 0.068823 0.408044 0.952138
O O6 0.000000 0.500000 0.000000
O O7 0.250000 0.376179 0.250000
O O8 0.136338 0.363663 0.250000
O O9 0.186572 0.464647 0.179366
O O10 0.178731 0.378355 0.012856
O O11 0.632119 0.867882 0.250000
O O12 0.660827 0.967213 0.139928
O O13 0.750000 0.055080 0.750000
O O14 0.722065 0.038374 0.998979
O O15 0.974246 0.250000 0.750000
#
# Coordination Sequence:
#
# PCOD9563522 Si02
#       6
#    16  16  16  16  16  16
#     4  12  22  38  60  92 128 165 203 257 325 384
#     4  12  20  34  59  94 129 158 199 255 323 390
#     4  10  22  41  60  86 120 163 213 260 317 383
#     4  11  21  37  59  91 125 164 205 263 329 387
#     4  10  23  40  60  89 122 166 210 257 318 381
#     4  11  24  38  56  87 127 167 205 250 315 383
#
# _framework density 18.905936000000001
#
# number of rings (size 3 to 8) (size 9 to 14) (size 15 to 20)
#    0.000    1.000    5.000    2.500    2.333    4.167 
#    0.000    0.000    0.000    0.500    0.000    3.500 
#    0.000    0.000    0.000    0.000    0.000    0.000 
#
# Total GULP energy -535452.889620 kJ/mol
# GULP energy per Si atom -5577.634267 kJ/mol
# Density = 1.886290 g / cm^3
# Si number density = 18.905936 Si / 1000 Ang^3
#
#
#
# Elastic Constant Matrix: (Units=GPa)
#
#
# Indices 1 2 3 4 5 6 
#
# 1 52.7813 16.0968 46.2163 0.0000 0.0000 0.0000
# 2 16.0968 52.7711 46.2191 0.0000 0.0000 0.0000
# 3 46.2163 46.2191 159.9142 0.0000 0.0000 0.0000
# 4 0.0000 0.0000 0.0000 34.1181 0.0000 0.0000
# 5 0.0000 0.0000 0.0000 0.0000 34.1183 0.0000
# 6 0.0000 0.0000 0.0000 0.0000 0.0000 -0.6938
#
#
#
# Elastic Compliance Matrix: (Units=1/GPa)
#
#
# Indices 1 2 3 4 5 6 
#
# 1 0.025488 -0.001771 -0.006854 0.000000 0.000000 0.000000
# 2 -0.001771 0.025496 -0.006857 0.000000 0.000000 0.000000
# 3 -0.006854 -0.006857 0.010216 0.000000 0.000000 0.000000
# 4 0.000000 0.000000 0.000000 0.029310 0.000000 0.000000
# 5 0.000000 0.000000 0.000000 0.000000 0.029310 0.000000
# 6 0.000000 0.000000 0.000000 0.000000 0.000000 -1.441303
#
#
# Mechanical properties :
#
#
# Convention : Reuss Voigt Hill
#
# Bulk Modulus (GPa) = 33.07463 53.61455 43.34459
# Shear Modulus (GPa) = -3.90491 23.97083 10.03296
#
# Velocity S-wave (km/s) = -1.43872 3.56462 2.30614
# Velocity P-wave (km/s) = 3.84349 6.73514 5.48336
#
# Compressibility (1/GPa) = 0.03023465
#
# Stress axis : x y z
#
# Youngs Moduli (GPa) = 39.23415 39.22239 97.88479
#
# Poissons Ratio (x) = 0.06948 0.67092
# Poissons Ratio (y) = 0.06950 0.67119
# Poissons Ratio (z) = 0.26892 0.26894
#
# Static dielectric constant tensor:
#      x y z
#    x 1.671190 0.000000 0.000000 
#    y 0.000000 1.671190 0.000000 
#    z 0.000000 0.000000 1.748910 
# 
# From -- ./inp_files/1786.got.cif
#   From: 2010.05.17/outbox.cif.g08.bks.cpg/sg126_1_cif.got.tgz:1786.got - 2010.05.20 11:58:20.
