data_PCOD9563531
_publ_section_title
;
Structure prediction by ZEFSAII (Michael W. Deem and Ramdas Pophale) SiO2 
 PCOD9563531
Probable space group: P 4/N N C
;
_chemical_formula_sum "Si O2"
_cell_formula_units_Z 60
_cell_length_a 10.921107
_cell_length_b 10.921107
_cell_length_c 20.879004
_cell_angle_alpha 90.000000
_cell_angle_beta 90.000000
_cell_angle_gamma 90.000000
_cell_volume 2490.250877
_symmetry_space_group_name_H-M "P 4/N N C"
_symmetry_group_IT_number 126
_space_group.IT_coordinate_system_code '2'
_symmetry_cell_setting 'tetragonal'
loop_
_space_group_symop_operation_xyz
x,y,z
1/2-y,x,z
1/2-x,1/2-y,z
y,1/2-x,z
x,1/2-y,1/2-z
1/2-x,y,1/2-z
y,x,1/2-z
1/2-y,1/2-x,1/2-z
-x,-y,-z
1/2+y,-x,-z
1/2+x,1/2+y,-z
-y,1/2+x,-z
-x,1/2+y,1/2+z
1/2+x,-y,1/2+z
-y,-x,1/2+z
1/2+y,1/2+x,1/2+z
loop_
_atom_site_type_symbol
_atom_site_label
_atom_site_fract_x
_atom_site_fract_y
_atom_site_fract_z
Si Si1 0.250000 0.750000 0.000000
Si Si2 0.125294 0.394309 0.439077
Si Si3 0.250000 0.459085 0.250000
Si Si4 0.129582 0.551361 0.710397
Si Si5 0.130599 0.511906 0.570492
O O1 0.187558 0.861935 0.959684
O O2 0.086151 0.261137 0.415262
O O3 0.143005 0.410840 0.515470
O O4 0.017030 0.482417 0.420935
O O5 0.137993 0.362008 0.250000
O O6 0.319389 0.556821 0.297052
O O7 0.250000 0.576422 0.750000
O O8 0.173491 0.497346 0.642310
O O9 0.043858 0.456143 0.750000
#
# Coordination Sequence:
#
# PCOD9563531 Si02
#       5
#     4  16   8  16  16
#     4  12  24  44  70 104 136 196 228 314 352 440
#     4  10  22  42  68 103 135 181 229 305 371 422
#     4   9  21  46  70 100 135 189 250 302 378 429
#     4  11  27  45  71 105 146 202 252 308 378 453
#     4  11  25  43  70 101 145 180 248 292 377 446
#
# _framework density 24.093959000000002
#
# number of rings (size 3 to 8) (size 9 to 14) (size 15 to 20)
#    0.000    1.467    2.667    0.400    7.467    4.533 
#    0.000    5.333    0.000    0.000    0.000    0.000 
#    0.000    0.000    0.000    0.000    0.000    0.000 
#
# Total GULP energy -334021.744234 kJ/mol
# GULP energy per Si atom -5567.029071 kJ/mol
# Density = 2.403912 g / cm^3
# Si number density = 24.093959 Si / 1000 Ang^3
#
#
#
# Elastic Constant Matrix: (Units=GPa)
#
#
# Indices 1 2 3 4 5 6 
#
# 1 75.1133 56.6003 22.0922 0.0000 0.0000 0.0000
# 2 56.6003 75.1113 22.0929 0.0000 0.0000 0.0000
# 3 22.0922 22.0929 112.5626 0.0000 0.0000 0.0000
# 4 0.0000 0.0000 0.0000 18.5682 0.0000 0.0000
# 5 0.0000 0.0000 0.0000 0.0000 18.5701 0.0000
# 6 0.0000 0.0000 0.0000 0.0000 0.0000 19.7541
#
#
#
# Elastic Compliance Matrix: (Units=1/GPa)
#
#
# Indices 1 2 3 4 5 6 
#
# 1 0.031073 -0.022946 -0.001595 0.000000 0.000000 0.000000
# 2 -0.022946 0.031074 -0.001595 0.000000 0.000000 0.000000
# 3 -0.001595 -0.001595 0.009510 0.000000 0.000000 0.000000
# 4 0.000000 0.000000 0.000000 0.053856 0.000000 0.000000
# 5 0.000000 0.000000 0.000000 0.000000 0.053850 0.000000
# 6 0.000000 0.000000 0.000000 0.000000 0.000000 0.050622
#
#
# Mechanical properties :
#
#
# Convention : Reuss Voigt Hill
#
# Bulk Modulus (GPa) = 51.58818 51.59534 51.59176
# Shear Modulus (GPa) = 17.31790 22.17859 19.74824
#
# Velocity S-wave (km/s) = 2.68389 3.03727 2.86603
# Velocity P-wave (km/s) = 5.57334 5.81040 5.69310
#
# Compressibility (1/GPa) = 0.01938429
#
# Stress axis : x y z
#
# Youngs Moduli (GPa) = 32.18250 32.18144 105.15129
#
# Poissons Ratio (x) = 0.73843 0.16770
# Poissons Ratio (y) = 0.73846 0.16776
# Poissons Ratio (z) = 0.05133 0.05134
#
# Static dielectric constant tensor:
#      x y z
#    x 1.968080 0.000000 0.000000 
#    y 0.000000 1.968110 0.000000 
#    z 0.000000 0.000000 2.020540 
# 
# From -- ./inp_files/4958.got.cif
#   From: 2010.05.17/outbox.cif.g08.bks.cpg/sg126_3_cif.got.tgz:4958.got - 2010.05.20 11:58:20.
