data_PCOD9563875
_publ_section_title
;
Structure prediction by ZEFSAII (Michael W. Deem and Ramdas Pophale) SiO2 
 PCOD9563875
Probable space group: P 4/M B M
;
_chemical_formula_sum "Si O2"
_cell_formula_units_Z 116
_cell_length_a 17.347118
_cell_length_b 17.347118
_cell_length_c 20.064801
_cell_angle_alpha 90.000000
_cell_angle_beta 90.000000
_cell_angle_gamma 90.000000
_cell_volume 6037.950137
_symmetry_space_group_name_H-M "P 4/M B M"
_symmetry_group_IT_number 127
_symmetry_cell_setting 'tetragonal'
loop_
_space_group_symop_operation_xyz
x,y,z
-y,x,z
-x,-y,z
y,-x,z
1/2+x,1/2-y,-z
1/2-x,1/2+y,-z
1/2+y,1/2+x,-z
1/2-y,1/2-x,-z
-x,-y,-z
y,-x,-z
x,y,-z
-y,x,-z
1/2-x,1/2+y,z
1/2+x,1/2-y,z
1/2-y,1/2-x,z
1/2+y,1/2+x,z
loop_
_atom_site_type_symbol
_atom_site_label
_atom_site_fract_x
_atom_site_fract_y
_atom_site_fract_z
Si Si1 0.063279 0.110613 0.579578
Si Si2 0.670306 0.297763 0.672041
Si Si3 0.201190 0.573333 0.304251
Si Si4 0.812830 0.496595 0.838789
Si Si5 0.000000 0.500000 0.837627
Si Si6 0.503069 0.130012 0.425860
Si Si7 0.867343 0.235934 0.075304
Si Si8 0.148115 0.223311 0.821240
O O1 0.068710 0.120029 0.500000
O O2 0.108722 0.177799 0.616976
O O3 0.972667 0.101840 0.596447
O O4 0.717953 0.217953 0.660898
O O5 0.734275 0.365452 0.675357
O O6 0.631674 0.299064 0.745038
O O7 0.122933 0.622933 0.295089
O O8 0.215429 0.534662 0.233281
O O9 0.185198 0.514391 0.364336
O O10 0.904728 0.500047 0.837403
O O11 0.782658 0.438948 0.895140
O O12 0.775140 0.579672 0.848775
O O13 0.503368 0.165938 0.500000
O O14 0.580975 0.080975 0.416707
O O15 0.433978 0.066023 0.426347
O O16 0.795999 0.295999 0.073073
O O17 0.844385 0.169816 0.127959
O O18 0.880625 0.208320 0.000000
O O19 0.224526 0.275475 0.814802
#
# Coordination Sequence:
#
# PCOD9563875 Si02
#       8
#    16  16  16  16   4  16  16  16
#     4   9  20  39  61  84 112 150 197 253 317 371
#     4  10  21  36  57  89 117 152 202 254 295 354
#     4  10  19  31  53  79 117 157 197 242 299 354
#     4  12  22  38  61  93 128 161 202 253 303 362
#     4  12  24  36  61 100 133 164 196 246 304 362
#     4   8  15  26  42  69 106 150 199 241 280 342
#     4  10  21  41  64  85 119 163 200 240 299 365
#     4  10  22  38  59  88 123 163 204 246 296 369
#
# _framework density 19.211818999999998
#
# number of rings (size 3 to 8) (size 9 to 14) (size 15 to 20)
#    0.000    2.069    3.448    0.828    2.897    1.379 
#    0.000    2.069    0.000    0.414    0.000    0.966 
#    0.000    0.000    0.000    0.000    0.000    0.000 
#
# Total GULP energy -646351.767089 kJ/mol
# GULP energy per Si atom -5571.997992 kJ/mol
# Density = 1.916809 g / cm^3
# Si number density = 19.211819 Si / 1000 Ang^3
#
#
#
# Elastic Constant Matrix: (Units=GPa)
#
#
# Indices 1 2 3 4 5 6 
#
# 1 53.2210 29.4215 28.6914 0.0000 0.0000 0.0000
# 2 29.4215 53.2210 28.6914 0.0000 0.0000 0.0000
# 3 28.6914 28.6914 84.8075 0.0000 0.0000 0.0000
# 4 0.0000 0.0000 0.0000 3.5029 0.0000 0.0000
# 5 0.0000 0.0000 0.0000 0.0000 3.5029 0.0000
# 6 0.0000 0.0000 0.0000 0.0000 0.0000 32.7014
#
#
#
# Elastic Compliance Matrix: (Units=1/GPa)
#
#
# Indices 1 2 3 4 5 6 
#
# 1 0.028917 -0.013101 -0.005351 0.000000 0.000000 0.000000
# 2 -0.013101 0.028917 -0.005351 0.000000 0.000000 0.000000
# 3 -0.005351 -0.005351 0.015412 0.000000 0.000000 0.000000
# 4 0.000000 0.000000 0.000000 0.285480 0.000000 0.000000
# 5 0.000000 0.000000 0.000000 0.000000 0.285480 0.000000
# 6 0.000000 0.000000 0.000000 0.000000 0.000000 0.030580
#
#
# Mechanical properties :
#
#
# Convention : Reuss Voigt Hill
#
# Bulk Modulus (GPa) = 39.00093 40.53980 39.77037
# Shear Modulus (GPa) = 6.84055 14.90444 10.87249
#
# Velocity S-wave (km/s) = 1.88900 2.78833 2.38150
# Velocity P-wave (km/s) = 5.01022 5.61371 5.32053
#
# Compressibility (1/GPa) = 0.02564041
#
# Stress axis : x y z
#
# Youngs Moduli (GPa) = 34.58229 34.58229 64.88556
#
# Poissons Ratio (x) = 0.45306 0.34718
# Poissons Ratio (y) = 0.45306 0.34718
# Poissons Ratio (z) = 0.18504 0.18504
#
# Static dielectric constant tensor:
#      x y z
#    x 1.672780 0.000000 0.000000 
#    y 0.000000 1.672780 0.000000 
#    z 0.000000 0.000000 1.680290 
# 
# From -- ./inp_files/5268.got.cif
#   From: 2010.05.17/outbox.cif.g08.bks.cpg/sg127_3_cif.got.tgz:5268.got - 2010.05.20 12:03:00.
