data_PCOD9563569
_publ_section_title
;
Structure prediction by ZEFSAII (Michael W. Deem and Ramdas Pophale) SiO2 
 PCOD9563569
Probable space group: P 4/N N C
;
_chemical_formula_sum "Si O2"
_cell_formula_units_Z 84
_cell_length_a 11.943072
_cell_length_b 11.943072
_cell_length_c 31.745942
_cell_angle_alpha 90.000000
_cell_angle_beta 90.000000
_cell_angle_gamma 90.000000
_cell_volume 4528.144938
_symmetry_space_group_name_H-M "P 4/N N C"
_symmetry_group_IT_number 126
_space_group.IT_coordinate_system_code '2'
_symmetry_cell_setting 'tetragonal'
loop_
_space_group_symop_operation_xyz
x,y,z
1/2-y,x,z
1/2-x,1/2-y,z
y,1/2-x,z
x,1/2-y,1/2-z
1/2-x,y,1/2-z
y,x,1/2-z
1/2-y,1/2-x,1/2-z
-x,-y,-z
1/2+y,-x,-z
1/2+x,1/2+y,-z
-y,1/2+x,-z
-x,1/2+y,1/2+z
1/2+x,-y,1/2+z
-y,-x,1/2+z
1/2+y,1/2+x,1/2+z
loop_
_atom_site_type_symbol
_atom_site_label
_atom_site_fract_x
_atom_site_fract_y
_atom_site_fract_z
Si Si1 0.851808 0.506016 0.778724
Si Si2 0.988611 0.366476 0.091865
Si Si3 0.753540 0.381946 0.437077
Si Si4 0.210023 0.069636 0.002026
Si Si5 0.438543 0.863113 0.632080
Si Si6 0.750000 0.750000 0.697483
O O1 0.750000 0.461099 0.750000
O O2 0.955740 0.544261 0.750000
O O3 0.883838 0.430750 0.818369
O O4 0.804723 0.623633 0.798032
O O5 0.872018 0.416535 0.075130
O O6 0.961562 0.268539 0.124766
O O7 0.042354 0.305991 0.051185
O O8 0.068460 0.458054 0.112184
O O9 0.750000 0.250000 0.448640
O O10 0.802676 0.458889 0.474025
O O11 0.831280 0.391539 0.396069
O O12 0.332407 0.120999 0.993149
#
# Coordination Sequence:
#
# PCOD9563569 Si02
#       6
#    16  16  16  16  16   4
#     4   9  16  29  51  81 110 144 174 227 291 347
#     4  11  22  36  57  82 113 151 188 238 280 336
#     4  10  25  38  54  78 113 161 193 226 277 340
#     4  11  23  40  58  83 111 145 200 242 282 316
#     4  11  22  36  56  84 115 146 190 232 286 343
#     4   8  13  24  44  80 112 136 164 212 288 344
#
# _framework density 18.550643000000001
#
# number of rings (size 3 to 8) (size 9 to 14) (size 15 to 20)
#    0.000    1.714    1.905    5.143    5.333    1.905 
#    0.000    0.000    0.000   13.143    0.000    0.000 
#    0.000    0.000    0.000   13.143    0.000    0.000 
#
# Total GULP energy -468020.166197 kJ/mol
# GULP energy per Si atom -5571.668645 kJ/mol
# Density = 1.850842 g / cm^3
# Si number density = 18.550643 Si / 1000 Ang^3
#
#
#
# Elastic Constant Matrix: (Units=GPa)
#
#
# Indices 1 2 3 4 5 6 
#
# 1 50.8185 13.0504 31.2455 0.0000 0.0000 0.0000
# 2 13.0504 50.8187 31.2455 0.0000 0.0000 0.0000
# 3 31.2455 31.2455 126.0544 0.0000 0.0000 0.0000
# 4 0.0000 0.0000 0.0000 18.1090 0.0000 0.0000
# 5 0.0000 0.0000 0.0000 0.0000 18.1085 0.0000
# 6 0.0000 0.0000 0.0000 0.0000 0.0000 12.9419
#
#
#
# Elastic Compliance Matrix: (Units=1/GPa)
#
#
# Indices 1 2 3 4 5 6 
#
# 1 0.023574 -0.002904 -0.005124 0.000000 0.000000 0.000000
# 2 -0.002904 0.023574 -0.005124 0.000000 0.000000 0.000000
# 3 -0.005124 -0.005124 0.010473 0.000000 0.000000 0.000000
# 4 0.000000 0.000000 0.000000 0.055221 0.000000 0.000000
# 5 0.000000 0.000000 0.000000 0.000000 0.055223 0.000000
# 6 0.000000 0.000000 0.000000 0.000000 0.000000 0.077268
#
#
# Mechanical properties :
#
#
# Convention : Reuss Voigt Hill
#
# Bulk Modulus (GPa) = 31.92950 42.08602 37.00776
# Shear Modulus (GPa) = 17.72586 19.97523 18.85055
#
# Velocity S-wave (km/s) = 3.09453 3.28501 3.19120
# Velocity P-wave (km/s) = 5.47883 6.09301 5.79407
#
# Compressibility (1/GPa) = 0.03131900
#
# Stress axis : x y z
#
# Youngs Moduli (GPa) = 42.42009 42.42028 95.48307
#
# Poissons Ratio (x) = 0.12317 0.48921
# Poissons Ratio (y) = 0.12317 0.48921
# Poissons Ratio (z) = 0.21734 0.21734
#
# Static dielectric constant tensor:
#      x y z
#    x 1.641460 0.000000 0.000000 
#    y 0.000000 1.641450 0.000000 
#    z 0.000000 0.000000 1.679710 
# 
# From -- ./inp_files/6552.got.cif
#   From: 2010.05.17/outbox.cif.g08.bks.cpg/sg126_4_cif.got.tgz:6552.got - 2010.05.20 11:58:20.
