data_PCOD9563824
_publ_section_title
;
Structure prediction by ZEFSAII (Michael W. Deem and Ramdas Pophale) SiO2 
 PCOD9563824
Probable space group: P 4/M B M
;
_chemical_formula_sum "Si O2"
_cell_formula_units_Z 128
_cell_length_a 21.812398
_cell_length_b 21.812398
_cell_length_c 17.302543
_cell_angle_alpha 90.000000
_cell_angle_beta 90.000000
_cell_angle_gamma 90.000000
_cell_volume 8232.216133
_symmetry_space_group_name_H-M "P 4/M B M"
_symmetry_group_IT_number 127
_symmetry_cell_setting 'tetragonal'
loop_
_space_group_symop_operation_xyz
x,y,z
-y,x,z
-x,-y,z
y,-x,z
1/2+x,1/2-y,-z
1/2-x,1/2+y,-z
1/2+y,1/2+x,-z
1/2-y,1/2-x,-z
-x,-y,-z
y,-x,-z
x,y,-z
-y,x,-z
1/2-x,1/2+y,z
1/2+x,1/2-y,z
1/2-y,1/2-x,z
1/2+y,1/2+x,z
loop_
_atom_site_type_symbol
_atom_site_label
_atom_site_fract_x
_atom_site_fract_y
_atom_site_fract_z
Si Si1 0.732455 0.871057 0.590332
Si Si2 0.209065 0.516559 0.295018
Si Si3 0.499745 0.899892 0.821666
Si Si4 0.904036 0.038654 0.089717
Si Si5 0.915433 0.685907 0.086177
Si Si6 0.676556 0.277198 0.669949
Si Si7 0.811692 0.587975 0.415395
Si Si8 0.071024 0.205104 0.794100
O O1 0.743640 0.887953 0.500000
O O2 0.672576 0.827424 0.591114
O O3 0.722641 0.926716 0.649443
O O4 0.787157 0.830423 0.626166
O O5 0.152089 0.524684 0.236570
O O6 0.187504 0.462043 0.350218
O O7 0.269076 0.489119 0.251387
O O8 0.553933 0.946068 0.843649
O O9 0.469163 0.861491 0.890785
O O10 0.443901 0.943901 0.790630
O O11 0.854336 0.057631 0.153783
O O12 0.967170 0.076993 0.098449
O O13 0.883036 0.047079 0.000000
O O14 0.853358 0.646643 0.089363
O O15 0.913583 0.739431 0.147950
O O16 0.924749 0.709629 0.000000
O O17 0.727319 0.227319 0.699763
O O18 0.636163 0.240782 0.607198
O O19 0.628593 0.299839 0.735148
O O20 0.800643 0.561455 0.500000
O O21 0.874377 0.625624 0.415660
#
# Coordination Sequence:
#
# PCOD9563824 Si02
#       8
#    16  16  16  16  16  16  16  16
#     4  10  20  33  48  66  94 128 159 192 230 278
#     4  10  19  29  44  69  94 121 156 198 236 277
#     4   9  17  29  44  63  92 129 164 198 234 271
#     4   9  19  35  53  73  96 121 151 191 233 281
#     4   9  17  29  46  71 100 126 157 195 231 272
#     4   9  18  31  47  69  94 121 155 191 233 278
#     4   9  16  28  46  65  87 116 153 197 240 278
#     4  10  19  30  51  73  97 122 153 191 239 280
#
# _framework density 15.548669
#
# number of rings (size 3 to 8) (size 9 to 14) (size 15 to 20)
#    0.000    2.625    0.000    2.625    1.750    4.750 
#    0.000    1.250    0.000    0.000    0.000    5.250 
#    0.000    1.000    0.000    0.000    0.000    0.000 
#
# Total GULP energy -712561.301842 kJ/mol
# GULP energy per Si atom -5566.885171 kJ/mol
# Density = 1.551328 g / cm^3
# Si number density = 15.548669 Si / 1000 Ang^3
#
#
#
# Elastic Constant Matrix: (Units=GPa)
#
#
# Indices 1 2 3 4 5 6 
#
# 1 43.2768 13.0766 20.7342 0.0000 0.0000 0.0000
# 2 13.0766 43.2768 20.7342 0.0000 0.0000 0.0000
# 3 20.7342 20.7342 82.2215 0.0000 0.0000 0.0000
# 4 0.0000 0.0000 0.0000 13.6023 0.0000 0.0000
# 5 0.0000 0.0000 0.0000 0.0000 13.6023 0.0000
# 6 0.0000 0.0000 0.0000 0.0000 0.0000 11.9937
#
#
#
# Elastic Compliance Matrix: (Units=1/GPa)
#
#
# Indices 1 2 3 4 5 6 
#
# 1 0.027450 -0.005662 -0.005494 0.000000 0.000000 0.000000
# 2 -0.005662 0.027450 -0.005494 0.000000 0.000000 0.000000
# 3 -0.005494 -0.005494 0.014933 0.000000 0.000000 0.000000
# 4 0.000000 0.000000 0.000000 0.073517 0.000000 0.000000
# 5 0.000000 0.000000 0.000000 0.000000 0.073517 0.000000
# 6 0.000000 0.000000 0.000000 0.000000 0.000000 0.083377
#
#
# Mechanical properties :
#
#
# Convention : Reuss Voigt Hill
#
# Bulk Modulus (GPa) = 27.37309 30.87389 29.12349
# Shear Modulus (GPa) = 14.46237 15.45499 14.95868
#
# Velocity S-wave (km/s) = 3.05312 3.15616 3.10507
# Velocity P-wave (km/s) = 5.48377 5.76031 5.62374
#
# Compressibility (1/GPa) = 0.03653223
#
# Stress axis : x y z
#
# Youngs Moduli (GPa) = 36.42937 36.42937 66.96386
#
# Poissons Ratio (x) = 0.20626 0.36793
# Poissons Ratio (y) = 0.20626 0.36793
# Poissons Ratio (z) = 0.20016 0.20016
#
# Static dielectric constant tensor:
#      x y z
#    x 1.513920 0.000000 0.000000 
#    y 0.000000 1.513920 0.000000 
#    z 0.000000 0.000000 1.515800 
# 
# From -- ./inp_files/5392.got.cif
#   From: 2010.05.17/outbox.cif.g08.bks.cpg/sg127_3_cif.got.tgz:5392.got - 2010.05.20 12:03:00.
