data_PCOD9563395
_publ_section_title
;
Structure prediction by ZEFSAII (Michael W. Deem and Ramdas Pophale) SiO2 
 PCOD9563395
Probable space group: P 4/N N C
;
_chemical_formula_sum "Si O2"
_cell_formula_units_Z 40
_cell_length_a 12.492939
_cell_length_b 12.492939
_cell_length_c 11.971613
_cell_angle_alpha 90.000000
_cell_angle_beta 90.000000
_cell_angle_gamma 90.000000
_cell_volume 1868.451839
_symmetry_space_group_name_H-M "P 4/N N C"
_symmetry_group_IT_number 126
_space_group.IT_coordinate_system_code '2'
_symmetry_cell_setting 'tetragonal'
loop_
_space_group_symop_operation_xyz
x,y,z
1/2-y,x,z
1/2-x,1/2-y,z
y,1/2-x,z
x,1/2-y,1/2-z
1/2-x,y,1/2-z
y,x,1/2-z
1/2-y,1/2-x,1/2-z
-x,-y,-z
1/2+y,-x,-z
1/2+x,1/2+y,-z
-y,1/2+x,-z
-x,1/2+y,1/2+z
1/2+x,-y,1/2+z
-y,-x,1/2+z
1/2+y,1/2+x,1/2+z
loop_
_atom_site_type_symbol
_atom_site_label
_atom_site_fract_x
_atom_site_fract_y
_atom_site_fract_z
Si Si1 0.671115 0.377236 0.440333
Si Si2 0.946885 0.250000 0.250000
Si Si3 0.179158 0.414758 0.053132
O O1 0.799161 0.369923 0.459226
O O2 0.624799 0.325422 0.329123
O O3 0.641893 0.499275 0.462000
O O4 0.023013 0.178115 0.170950
O O5 0.115409 0.304979 0.044265
#
# Coordination Sequence:
#
# PCOD9563395 Si02
#       3
#    16   8  16
#     4   9  20  36  56  85 125 159 197 250 302 356
#     4  10  20  36  58  86 122 163 206 249 300 358
#     4  10  21  38  61  92 126 158 199 251 303 358
#
# _framework density 21.408097999999999
#
# number of rings (size 3 to 8) (size 9 to 14) (size 15 to 20)
#    0.000    2.400    0.000    1.200    0.000   20.800 
#    0.000    8.000    0.000    0.000    0.000   33.600 
#    0.000  320.000    0.000    0.000    0.000    0.000 
#
# Total GULP energy -223274.424110 kJ/mol
# GULP energy per Si atom -5581.860603 kJ/mol
# Density = 2.135937 g / cm^3
# Si number density = 21.408098 Si / 1000 Ang^3
#
#
#
# Elastic Constant Matrix: (Units=GPa)
#
#
# Indices 1 2 3 4 5 6 
#
# 1 125.2269 32.0022 58.6220 0.0000 0.0000 0.0000
# 2 32.0022 125.2269 58.6220 0.0000 0.0000 0.0000
# 3 58.6220 58.6220 109.7244 0.0000 0.0000 0.0000
# 4 0.0000 0.0000 0.0000 26.3474 0.0000 0.0000
# 5 0.0000 0.0000 0.0000 0.0000 26.3474 0.0000
# 6 0.0000 0.0000 0.0000 0.0000 0.0000 -1.2907
#
#
#
# Elastic Compliance Matrix: (Units=1/GPa)
#
#
# Indices 1 2 3 4 5 6 
#
# 1 0.010649 -0.000077 -0.005648 0.000000 0.000000 0.000000
# 2 -0.000077 0.010649 -0.005648 0.000000 0.000000 0.000000
# 3 -0.005648 -0.005648 0.015149 0.000000 0.000000 0.000000
# 4 0.000000 0.000000 0.000000 0.037954 0.000000 0.000000
# 5 0.000000 0.000000 0.000000 0.000000 0.037954 0.000000
# 6 0.000000 0.000000 0.000000 0.000000 0.000000 -0.774746
#
#
# Mechanical properties :
#
#
# Convention : Reuss Voigt Hill
#
# Bulk Modulus (GPa) = 72.99243 73.18559 73.08901
# Shear Modulus (GPa) = -7.87308 24.34294 8.23493
#
# Velocity S-wave (km/s) = -1.91979 3.37574 1.96341
# Velocity P-wave (km/s) = 5.40884 7.03237 6.27335
#
# Compressibility (1/GPa) = 0.01370005
#
# Stress axis : x y z
#
# Youngs Moduli (GPa) = 93.90220 93.90220 66.01066
#
# Poissons Ratio (x) = 0.00727 0.37284
# Poissons Ratio (y) = 0.00727 0.37284
# Poissons Ratio (z) = 0.53038 0.53038
#
# Static dielectric constant tensor:
#      x y z
#    x 1.827280 0.000000 0.000000 
#    y 0.000000 1.827280 0.000000 
#    z 0.000000 0.000000 1.797150 
# 
# From -- ./inp_files/2153.got.cif
#   From: 2010.05.17/outbox.cif.g08.bks.cpg/sg126_2_cif.got.tgz:2153.got - 2010.05.20 11:58:20.
