data_PCOD9563480
_publ_section_title
;
Structure prediction by ZEFSAII (Michael W. Deem and Ramdas Pophale) SiO2 
 PCOD9563480
Probable space group: P 4/N N C
;
_chemical_formula_sum "Si O2"
_cell_formula_units_Z 88
_cell_length_a 17.596441
_cell_length_b 17.596441
_cell_length_c 13.647087
_cell_angle_alpha 90.000000
_cell_angle_beta 90.000000
_cell_angle_gamma 90.000000
_cell_volume 4225.612179
_symmetry_space_group_name_H-M "P 4/N N C"
_symmetry_group_IT_number 126
_space_group.IT_coordinate_system_code '2'
_symmetry_cell_setting 'tetragonal'
loop_
_space_group_symop_operation_xyz
x,y,z
1/2-y,x,z
1/2-x,1/2-y,z
y,1/2-x,z
x,1/2-y,1/2-z
1/2-x,y,1/2-z
y,x,1/2-z
1/2-y,1/2-x,1/2-z
-x,-y,-z
1/2+y,-x,-z
1/2+x,1/2+y,-z
-y,1/2+x,-z
-x,1/2+y,1/2+z
1/2+x,-y,1/2+z
-y,-x,1/2+z
1/2+y,1/2+x,1/2+z
loop_
_atom_site_type_symbol
_atom_site_label
_atom_site_fract_x
_atom_site_fract_y
_atom_site_fract_z
Si Si1 0.732715 0.424503 0.441255
Si Si2 0.989573 0.989573 0.750000
Si Si3 0.555514 0.665291 0.772586
Si Si4 0.119950 0.031774 0.494939
Si Si5 0.982786 0.398064 0.926951
Si Si6 0.836303 0.222310 0.360469
O O1 0.691299 0.505966 0.441879
O O2 0.819298 0.440188 0.408987
O O3 0.680553 0.367257 0.377615
O O4 0.743546 0.388920 0.552215
O O5 0.054162 0.996188 0.828854
O O6 0.991181 0.900752 0.715045
O O7 0.535484 0.750000 0.750000
O O8 0.642321 0.642321 0.750000
O O9 0.542233 0.649149 0.885628
O O10 0.066188 0.101468 0.524357
O O11 0.068940 0.954735 0.491842
O O12 0.750000 0.250000 0.377180
O O13 0.857784 0.250000 0.250000
#
# Coordination Sequence:
#
# PCOD9563480 Si02
#       6
#    16   8  16  16  16  16
#     4  12  21  43  65  92 135 180 220 276 349 409
#     4   8  20  42  59  92 124 163 224 274 326 394
#     4   9  20  36  57  90 124 164 215 264 331 394
#     4  10  22  37  60  92 122 175 216 270 325 406
#     4  10  21  42  64  87 131 172 224 280 329 408
#     4  11  22  40  58  97 134 166 215 273 339 418
#
# _framework density 20.825385000000001
#
# number of rings (size 3 to 8) (size 9 to 14) (size 15 to 20)
#    0.545    1.273    3.636    0.000    2.545    0.909 
#   13.091    3.636    0.000    0.545    0.000    0.000 
#    0.000    1.455    0.000    0.000    0.000    0.000 
#
# Total GULP energy -490237.020631 kJ/mol
# GULP energy per Si atom -5570.875234 kJ/mol
# Density = 2.077799 g / cm^3
# Si number density = 20.825385 Si / 1000 Ang^3
#
#
#
# Elastic Constant Matrix: (Units=GPa)
#
#
# Indices 1 2 3 4 5 6 
#
# 1 89.1521 18.2517 40.3218 0.0000 0.0000 0.0000
# 2 18.2517 89.1521 40.3218 0.0000 0.0000 0.0000
# 3 40.3218 40.3218 92.6508 0.0000 0.0000 0.0000
# 4 0.0000 0.0000 0.0000 21.0780 0.0000 0.0000
# 5 0.0000 0.0000 0.0000 0.0000 21.0780 0.0000
# 6 0.0000 0.0000 0.0000 0.0000 0.0000 24.3324
#
#
#
# Elastic Compliance Matrix: (Units=1/GPa)
#
#
# Indices 1 2 3 4 5 6 
#
# 1 0.013967 -0.000137 -0.006019 0.000000 0.000000 0.000000
# 2 -0.000137 0.013967 -0.006019 0.000000 0.000000 0.000000
# 3 -0.006019 -0.006019 0.016032 0.000000 0.000000 0.000000
# 4 0.000000 0.000000 0.000000 0.047443 0.000000 0.000000
# 5 0.000000 0.000000 0.000000 0.000000 0.047443 0.000000
# 6 0.000000 0.000000 0.000000 0.000000 0.000000 0.041097
#
#
# Mechanical properties :
#
#
# Convention : Reuss Voigt Hill
#
# Bulk Modulus (GPa) = 50.97736 52.08286 51.53011
# Shear Modulus (GPa) = 23.71491 24.76831 24.24161
#
# Velocity S-wave (km/s) = 3.37820 3.45241 3.41551
# Velocity P-wave (km/s) = 6.30459 6.39967 6.35231
#
# Compressibility (1/GPa) = 0.01961655
#
# Stress axis : x y z
#
# Youngs Moduli (GPa) = 71.59700 71.59700 62.37535
#
# Poissons Ratio (x) = 0.00983 0.37542
# Poissons Ratio (y) = 0.00983 0.37542
# Poissons Ratio (z) = 0.43093 0.43093
#
# Static dielectric constant tensor:
#      x y z
#    x 1.816490 0.000000 0.000000 
#    y 0.000000 1.816490 0.000000 
#    z 0.000000 0.000000 1.810160 
# 
# From -- ./inp_files/3733.got.cif
#   From: 2010.05.17/outbox.cif.g08.bks.cpg/sg126_2_cif.got.tgz:3733.got - 2010.05.20 11:58:20.
