data_PCOD9563105
_publ_section_title
;
Structure prediction by ZEFSAII (Michael W. Deem and Ramdas Pophale) SiO2 
 PCOD9563105
Probable space group: P 4/N B M
;
_chemical_formula_sum "Si O2"
_cell_formula_units_Z 96
_cell_length_a 14.185421
_cell_length_b 14.185421
_cell_length_c 20.975705
_cell_angle_alpha 90.000000
_cell_angle_beta 90.000000
_cell_angle_gamma 90.000000
_cell_volume 4220.860758
_symmetry_space_group_name_H-M "P 4/N B M"
_symmetry_group_IT_number 125
_space_group.IT_coordinate_system_code '2'
_symmetry_cell_setting 'tetragonal'
loop_
_space_group_symop_operation_xyz
x,y,z
1/2-y,x,z
1/2-x,1/2-y,z
y,1/2-x,z
x,1/2-y,-z
1/2-x,y,-z
y,x,-z
1/2-y,1/2-x,-z
-x,-y,-z
1/2+y,-x,-z
1/2+x,1/2+y,-z
-y,1/2+x,-z
-x,1/2+y,z
1/2+x,-y,z
-y,-x,z
1/2+y,1/2+x,z
loop_
_atom_site_type_symbol
_atom_site_label
_atom_site_fract_x
_atom_site_fract_y
_atom_site_fract_z
Si Si1 0.757571 0.969099 0.706234
Si Si2 0.050546 0.550546 0.720791
Si Si3 0.939451 0.910241 0.073972
Si Si4 0.945746 0.445746 0.555438
Si Si5 0.323619 0.676382 0.184849
Si Si6 0.397042 0.199793 0.575386
Si Si7 0.413058 0.586943 0.697777
Si Si8 0.731488 0.512359 0.148045
O O1 0.710460 0.904180 0.652791
O O2 0.745492 0.944141 0.780501
O O3 0.864290 0.993913 0.688179
O O4 0.695382 0.064272 0.701661
O O5 0.109169 0.609169 0.772947
O O6 0.974965 0.474965 0.746534
O O7 0.939423 0.806498 0.101905
O O8 0.869087 0.969798 0.117840
O O9 0.912674 0.912674 0.000000
O O10 0.042177 0.957824 0.079275
O O11 0.000000 0.500000 0.500000
O O12 0.842452 0.501227 0.552116
O O13 0.955181 0.455181 0.631765
O O14 0.250000 0.750000 0.214999
O O15 0.402040 0.740367 0.150156
O O16 0.367632 0.307802 0.558261
#
# Coordination Sequence:
#
# PCOD9563105 Si02
#       8
#    16   8  16   8   8  16   8  16
#     4  10  22  34  63  94 133 170 215 271 350 411
#     4  10  22  36  61  93 140 172 216 272 345 430
#     4  11  25  45  65  88 127 171 221 276 338 406
#     4  10  22  42  67  96 134 184 229 278 338 387
#     4  10  22  40  61 101 130 160 218 278 338 420
#     4  10  22  41  66 101 139 174 226 285 340 411
#     4  10  22  39  60  95 136 175 214 275 342 410
#     4  11  24  38  68  93 125 171 221 270 342 422
#
# _framework density 22.744176
#
# number of rings (size 3 to 8) (size 9 to 14) (size 15 to 20)
#    0.000    1.667    0.833    3.000   12.833    1.000 
#    0.000    1.667    0.000    0.500    0.000    1.167 
#    0.000    0.000    0.000    0.000    0.000    0.000 
#
# Total GULP energy -534810.881911 kJ/mol
# GULP energy per Si atom -5570.946687 kJ/mol
# Density = 2.269241 g / cm^3
# Si number density = 22.744176 Si / 1000 Ang^3
#
#
#
# Elastic Constant Matrix: (Units=GPa)
#
#
# Indices 1 2 3 4 5 6 
#
# 1 84.9485 11.5191 24.4394 0.0000 0.0000 0.0000
# 2 11.5191 84.9485 24.4394 0.0000 0.0000 0.0000
# 3 24.4394 24.4394 113.8006 0.0000 0.0000 0.0000
# 4 0.0000 0.0000 0.0000 31.0362 0.0000 0.0000
# 5 0.0000 0.0000 0.0000 0.0000 31.0362 0.0000
# 6 0.0000 0.0000 0.0000 0.0000 0.0000 44.8462
#
#
#
# Elastic Compliance Matrix: (Units=1/GPa)
#
#
# Indices 1 2 3 4 5 6 
#
# 1 0.012625 -0.000993 -0.002498 0.000000 0.000000 0.000000
# 2 -0.000993 0.012625 -0.002498 0.000000 0.000000 0.000000
# 3 -0.002498 -0.002498 0.009860 0.000000 0.000000 0.000000
# 4 0.000000 0.000000 0.000000 0.032220 0.000000 0.000000
# 5 0.000000 0.000000 0.000000 0.000000 0.032220 0.000000
# 6 0.000000 0.000000 0.000000 0.000000 0.000000 0.022298
#
#
# Mechanical properties :
#
#
# Convention : Reuss Voigt Hill
#
# Bulk Modulus (GPa) = 43.23031 44.94372 44.08701
# Shear Modulus (GPa) = 35.32590 36.27039 35.79815
#
# Velocity S-wave (km/s) = 3.94532 3.99772 3.97161
# Velocity P-wave (km/s) = 6.30893 6.41190 6.36062
#
# Compressibility (1/GPa) = 0.02313192
#
# Stress axis : x y z
#
# Youngs Moduli (GPa) = 79.20667 79.20667 101.41747
#
# Poissons Ratio (x) = 0.07868 0.25334
# Poissons Ratio (y) = 0.07868 0.25334
# Poissons Ratio (z) = 0.19786 0.19786
#
# Static dielectric constant tensor:
#      x y z
#    x 1.880020 0.000000 0.000000 
#    y 0.000000 1.880020 0.000000 
#    z 0.000000 0.000000 1.924410 
# 
# From -- ./inp_files/5999.got.cif
#   From: 2010.05.17/outbox.cif.g08.bks.cpg/sg125_3_cif.got.tgz:5999.got - 2010.05.20 11:54:10.
