data_PCOD9563354
_publ_section_title
;
Structure prediction by ZEFSAII (Michael W. Deem and Ramdas Pophale) SiO2 
 PCOD9563354
Probable space group: P 4/N N C
;
_chemical_formula_sum "Si O2"
_cell_formula_units_Z 80
_cell_length_a 16.228332
_cell_length_b 16.228332
_cell_length_c 15.265153
_cell_angle_alpha 90.000000
_cell_angle_beta 90.000000
_cell_angle_gamma 90.000000
_cell_volume 4020.211758
_symmetry_space_group_name_H-M "P 4/N N C"
_symmetry_group_IT_number 126
_space_group.IT_coordinate_system_code '2'
_symmetry_cell_setting 'tetragonal'
loop_
_space_group_symop_operation_xyz
x,y,z
1/2-y,x,z
1/2-x,1/2-y,z
y,1/2-x,z
x,1/2-y,1/2-z
1/2-x,y,1/2-z
y,x,1/2-z
1/2-y,1/2-x,1/2-z
-x,-y,-z
1/2+y,-x,-z
1/2+x,1/2+y,-z
-y,1/2+x,-z
-x,1/2+y,1/2+z
1/2+x,-y,1/2+z
-y,-x,1/2+z
1/2+y,1/2+x,1/2+z
loop_
_atom_site_type_symbol
_atom_site_label
_atom_site_fract_x
_atom_site_fract_y
_atom_site_fract_z
Si Si1 0.406579 0.524570 0.583173
Si Si2 0.926839 0.073117 0.098043
Si Si3 0.058467 0.331117 0.309074
Si Si4 0.868345 0.814105 0.999663
Si Si5 0.157413 0.482396 0.742360
O O1 0.403898 0.588371 0.502840
O O2 0.501623 0.497738 0.595512
O O3 0.357921 0.443828 0.547939
O O4 0.367455 0.542393 0.677006
O O5 0.969017 0.145677 0.152898
O O6 0.854636 0.031003 0.151986
O O7 0.058172 0.250000 0.250000
O O8 0.095963 0.404038 0.250000
O O9 0.114662 0.320041 0.395586
O O10 0.782173 0.858175 0.021814
O O11 0.250000 0.452400 0.750000
O O12 0.092278 0.407723 0.750000
#
# Coordination Sequence:
#
# PCOD9563354 Si02
#       5
#    16  16  16  16  16
#     4   9  19  35  54  74 110 158 193 241 275 334
#     4   9  20  38  53  78 111 151 204 236 283 340
#     4  11  19  31  53  78 111 148 189 242 294 353
#     4  10  20  30  45  78 119 155 182 225 290 357
#     4  10  21  37  59  87 118 154 192 237 289 347
#
# _framework density 19.899450000000002
#
# number of rings (size 3 to 8) (size 9 to 14) (size 15 to 20)
#    0.000    2.200    2.000    1.800    5.600    0.400 
#    0.000    0.000    0.000    0.600    0.000    0.000 
#    0.000    0.000    0.000    0.000    0.000    0.000 
#
# Total GULP energy -446461.519728 kJ/mol
# GULP energy per Si atom -5580.768997 kJ/mol
# Density = 1.985416 g / cm^3
# Si number density = 19.899450 Si / 1000 Ang^3
#
#
#
# Elastic Constant Matrix: (Units=GPa)
#
#
# Indices 1 2 3 4 5 6 
#
# 1 32.0025 26.5451 18.3804 0.0000 0.0000 0.0000
# 2 26.5451 32.0044 18.3810 0.0000 0.0000 0.0000
# 3 18.3804 18.3810 109.7360 0.0000 0.0000 0.0000
# 4 0.0000 0.0000 0.0000 25.3416 0.0000 0.0000
# 5 0.0000 0.0000 0.0000 0.0000 25.3413 0.0000
# 6 0.0000 0.0000 0.0000 0.0000 0.0000 12.2673
#
#
#
# Elastic Compliance Matrix: (Units=1/GPa)
#
#
# Indices 1 2 3 4 5 6 
#
# 1 0.101149 -0.082058 -0.003197 0.000000 0.000000 0.000000
# 2 -0.082058 0.101143 -0.003197 0.000000 0.000000 0.000000
# 3 -0.003197 -0.003197 0.010184 0.000000 0.000000 0.000000
# 4 0.000000 0.000000 0.000000 0.039461 0.000000 0.000000
# 5 0.000000 0.000000 0.000000 0.000000 0.039461 0.000000
# 6 0.000000 0.000000 0.000000 0.000000 0.000000 0.081518
#
#
# Mechanical properties :
#
#
# Convention : Reuss Voigt Hill
#
# Bulk Modulus (GPa) = 28.11366 33.37287 30.74326
# Shear Modulus (GPa) = 8.90192 19.95246 14.42719
#
# Velocity S-wave (km/s) = 2.11735 3.16992 2.69551
# Velocity P-wave (km/s) = 4.48732 5.49591 5.01703
#
# Compressibility (1/GPa) = 0.03556990
#
# Stress axis : x y z
#
# Youngs Moduli (GPa) = 9.88644 9.88702 98.19519
#
# Poissons Ratio (x) = 0.81131 0.31394
# Poissons Ratio (y) = 0.81127 0.31393
# Poissons Ratio (z) = 0.03161 0.03161
#
# Static dielectric constant tensor:
#      x y z
#    x 1.681590 0.000000 0.000000 
#    y 0.000000 1.681590 0.000000 
#    z 0.000000 0.000000 1.781080 
# 
# From -- ./inp_files/3611.got.cif
#   From: 2010.05.17/outbox.cif.g08.bks.cpg/sg126_2_cif.got.tgz:3611.got - 2010.05.20 11:58:20.
