data_PCOD9563829
_publ_section_title
;
Structure prediction by ZEFSAII (Michael W. Deem and Ramdas Pophale) SiO2 
 PCOD9563829
Probable space group: P 4/M B M
;
_chemical_formula_sum "Si O2"
_cell_formula_units_Z 96
_cell_length_a 23.550637
_cell_length_b 23.550637
_cell_length_c 8.165493
_cell_angle_alpha 90.000000
_cell_angle_beta 90.000000
_cell_angle_gamma 90.000000
_cell_volume 4528.847822
_symmetry_space_group_name_H-M "P 4/M B M"
_symmetry_group_IT_number 127
_symmetry_cell_setting 'tetragonal'
loop_
_space_group_symop_operation_xyz
x,y,z
-y,x,z
-x,-y,z
y,-x,z
1/2+x,1/2-y,-z
1/2-x,1/2+y,-z
1/2+y,1/2+x,-z
1/2-y,1/2-x,-z
-x,-y,-z
y,-x,-z
x,y,-z
-y,x,-z
1/2-x,1/2+y,z
1/2+x,1/2-y,z
1/2-y,1/2-x,z
1/2+y,1/2+x,z
loop_
_atom_site_type_symbol
_atom_site_label
_atom_site_fract_x
_atom_site_fract_y
_atom_site_fract_z
Si Si1 0.394543 0.370655 0.306354
Si Si2 0.785657 0.803261 0.804224
Si Si3 0.286316 0.877891 0.685033
Si Si4 0.161055 0.988157 0.804596
Si Si5 0.503772 0.215985 0.184970
Si Si6 0.498163 0.908307 0.199832
O O1 0.397703 0.366503 0.500000
O O2 0.363885 0.312951 0.241906
O O3 0.359049 0.427486 0.262152
O O4 0.457798 0.377670 0.234724
O O5 0.723257 0.776743 0.758784
O O6 0.830697 0.760534 0.722511
O O7 0.789262 0.799067 0.000000
O O8 0.277956 0.899882 0.500000
O O9 0.345799 0.845799 0.693223
O O10 0.284245 0.927754 0.814404
O O11 0.222990 0.007168 0.736645
O O12 0.166277 0.981679 0.000000
O O13 0.490550 0.155056 0.263052
O O14 0.480053 0.216319 0.000000
O O15 0.440830 0.940830 0.254391
O O16 0.549666 0.950335 0.238633
O O17 0.494610 0.904389 0.000000
#
# Coordination Sequence:
#
# PCOD9563829 Si02
#       6
#    16  16  16  16  16  16
#     4  12  25  43  66  93 125 160 202 252 311 373
#     4  10  20  36  60  89 122 159 198 244 299 358
#     4  10  19  29  47  79 116 150 185 232 289 346
#     4  11  24  42  64  89 120 157 200 253 310 372
#     4  10  19  32  54  82 112 151 197 243 294 351
#     4   8  14  26  47  79 118 156 196 244 293 343
#
# _framework density 21.197444000000001
#
# number of rings (size 3 to 8) (size 9 to 14) (size 15 to 20)
#    0.000    1.833    1.667    4.000    0.000    3.667 
#    0.000    2.500    0.000    3.500    0.000    2.333 
#    0.000    0.000    0.000    0.000    0.000    0.000 
#
# Total GULP energy -535061.621218 kJ/mol
# GULP energy per Si atom -5573.558554 kJ/mol
# Density = 2.114920 g / cm^3
# Si number density = 21.197444 Si / 1000 Ang^3
#
#
#
# Elastic Constant Matrix: (Units=GPa)
#
#
# Indices 1 2 3 4 5 6 
#
# 1 72.9645 38.5812 3.0498 0.0000 0.0000 0.0000
# 2 38.5812 72.9645 3.0498 0.0000 0.0000 0.0000
# 3 3.0498 3.0498 55.5675 0.0000 0.0000 0.0000
# 4 0.0000 0.0000 0.0000 10.5227 0.0000 0.0000
# 5 0.0000 0.0000 0.0000 0.0000 10.5227 0.0000
# 6 0.0000 0.0000 0.0000 0.0000 0.0000 22.4520
#
#
#
# Elastic Compliance Matrix: (Units=1/GPa)
#
#
# Indices 1 2 3 4 5 6 
#
# 1 0.019038 -0.010046 -0.000494 0.000000 0.000000 0.000000
# 2 -0.010046 0.019038 -0.000494 0.000000 0.000000 0.000000
# 3 -0.000494 -0.000494 0.018050 0.000000 0.000000 0.000000
# 4 0.000000 0.000000 0.000000 0.095033 0.000000 0.000000
# 5 0.000000 0.000000 0.000000 0.000000 0.095033 0.000000
# 6 0.000000 0.000000 0.000000 0.000000 0.000000 0.044539
#
#
# Mechanical properties :
#
#
# Convention : Reuss Voigt Hill
#
# Bulk Modulus (GPa) = 29.35988 32.31755 30.83872
# Shear Modulus (GPa) = 15.42494 19.15386 17.28940
#
# Velocity S-wave (km/s) = 2.70048 3.00924 2.85903
# Velocity P-wave (km/s) = 4.85841 5.23002 5.04764
#
# Compressibility (1/GPa) = 0.03406008
#
# Stress axis : x y z
#
# Youngs Moduli (GPa) = 52.52678 52.52678 55.40075
#
# Poissons Ratio (x) = 0.52768 0.02734
# Poissons Ratio (y) = 0.52768 0.02734
# Poissons Ratio (z) = 0.02592 0.02592
#
# Static dielectric constant tensor:
#      x y z
#    x 1.809660 0.000000 0.000000 
#    y 0.000000 1.809660 0.000000 
#    z 0.000000 0.000000 1.752270 
# 
# From -- ./inp_files/2015.got.cif
#   From: 2010.05.17/outbox.cif.g08.bks.cpg/sg127_2_cif.got.tgz:2015.got - 2010.05.20 12:03:00.
