data_PCOD9563187
_publ_section_title
;
Structure prediction by ZEFSAII (Michael W. Deem and Ramdas Pophale) SiO2 
 PCOD9563187
Probable space group: P 4/N B M
;
_chemical_formula_sum "Si O2"
_cell_formula_units_Z 112
_cell_length_a 14.943768
_cell_length_b 14.943768
_cell_length_c 23.571846
_cell_angle_alpha 90.000000
_cell_angle_beta 90.000000
_cell_angle_gamma 90.000000
_cell_volume 5263.975124
_symmetry_space_group_name_H-M "P 4/N B M"
_symmetry_group_IT_number 125
_space_group.IT_coordinate_system_code '2'
_symmetry_cell_setting 'tetragonal'
loop_
_space_group_symop_operation_xyz
x,y,z
1/2-y,x,z
1/2-x,1/2-y,z
y,1/2-x,z
x,1/2-y,-z
1/2-x,y,-z
y,x,-z
1/2-y,1/2-x,-z
-x,-y,-z
1/2+y,-x,-z
1/2+x,1/2+y,-z
-y,1/2+x,-z
-x,1/2+y,z
1/2+x,-y,z
-y,-x,z
1/2+y,1/2+x,z
loop_
_atom_site_type_symbol
_atom_site_label
_atom_site_fract_x
_atom_site_fract_y
_atom_site_fract_z
Si Si1 0.855863 0.857279 0.712282
Si Si2 0.759067 0.011839 0.560085
Si Si3 0.642196 0.856073 0.063163
Si Si4 0.886909 0.963109 0.827885
Si Si5 0.600878 0.244528 0.803358
Si Si6 0.564231 0.583049 0.594311
Si Si7 0.244091 0.606133 0.678898
O O1 0.748937 0.870656 0.706461
O O2 0.880906 0.898622 0.773263
O O3 0.907302 0.903876 0.660125
O O4 0.750000 0.061362 0.500000
O O5 0.857760 0.973351 0.565351
O O6 0.679059 0.940215 0.563755
O O7 0.742698 0.062181 0.618851
O O8 0.629251 0.749391 0.067196
O O9 0.597933 0.906714 0.115331
O O10 0.614037 0.885964 0.000000
O O11 0.794848 0.021233 0.835754
O O12 0.965496 0.034505 0.818419
O O13 0.681832 0.318169 0.800951
O O14 0.651683 0.151683 0.819819
O O15 0.562165 0.236169 0.739345
O O16 0.471487 0.528514 0.590170
O O17 0.312079 0.687922 0.680328
O O18 0.143043 0.643043 0.680645
#
# Coordination Sequence:
#
# PCOD9563187 Si02
#       7
#    16  16  16  16  16  16  16
#     4  11  23  43  67  92 125 164 209 263 324 385
#     4  12  26  43  63  89 121 161 210 260 318 391
#     4   9  19  39  64  86 117 167 220 267 320 376
#     4  11  21  34  59  98 133 166 211 263 318 381
#     4   8  16  32  53  81 122 167 202 239 300 373
#     4  12  26  46  68  93 125 162 207 264 329 391
#     4   9  18  35  59  85 117 160 208 258 313 375
#
# _framework density 21.276696000000001
#
# number of rings (size 3 to 8) (size 9 to 14) (size 15 to 20)
#    0.000    1.714    1.429    4.714    0.000    5.714 
#    0.000    4.286    0.000    0.857    0.000    0.000 
#    0.000    0.000    0.000    0.000    0.000    0.000 
#
# Total GULP energy -625263.914402 kJ/mol
# GULP energy per Si atom -5582.713521 kJ/mol
# Density = 2.122827 g / cm^3
# Si number density = 21.276696 Si / 1000 Ang^3
#
#
#
# Elastic Constant Matrix: (Units=GPa)
#
#
# Indices 1 2 3 4 5 6 
#
# 1 56.3895 -2.5828 8.5152 0.0000 0.0000 0.0000
# 2 -2.5828 56.3893 8.5151 0.0000 0.0000 0.0000
# 3 8.5152 8.5151 100.1856 0.0000 0.0000 0.0000
# 4 0.0000 0.0000 0.0000 7.1248 0.0000 0.0000
# 5 0.0000 0.0000 0.0000 0.0000 7.1249 0.0000
# 6 0.0000 0.0000 0.0000 0.0000 0.0000 9.0605
#
#
#
# Elastic Compliance Matrix: (Units=1/GPa)
#
#
# Indices 1 2 3 4 5 6 
#
# 1 0.018028 0.001071 -0.001623 0.000000 0.000000 0.000000
# 2 0.001071 0.018028 -0.001623 0.000000 0.000000 0.000000
# 3 -0.001623 -0.001623 0.010257 0.000000 0.000000 0.000000
# 4 0.000000 0.000000 0.000000 0.140355 0.000000 0.000000
# 5 0.000000 0.000000 0.000000 0.000000 0.140353 0.000000
# 6 0.000000 0.000000 0.000000 0.000000 0.000000 0.110370
#
#
# Mechanical properties :
#
#
# Convention : Reuss Voigt Hill
#
# Bulk Modulus (GPa) = 23.83110 26.87330 25.35220
# Shear Modulus (GPa) = 10.97142 17.89649 14.43396
#
# Velocity S-wave (km/s) = 2.27327 2.90337 2.60742
# Velocity P-wave (km/s) = 4.25620 4.88848 4.58325
#
# Compressibility (1/GPa) = 0.04196197
#
# Stress axis : x y z
#
# Youngs Moduli (GPa) = 55.46936 55.46920 97.49048
#
# Poissons Ratio (x) = -0.05940 0.15826
# Poissons Ratio (y) = -0.05940 0.15825
# Poissons Ratio (z) = 0.09004 0.09004
#
# Static dielectric constant tensor:
#      x y z
#    x 1.811450 0.000000 0.000000 
#    y 0.000000 1.811450 0.000000 
#    z 0.000000 0.000000 1.782910 
# 
# From -- ./inp_files/6240.got.cif
#   From: 2010.05.17/outbox.cif.g08.bks.cpg/sg125_4_cif.got.tgz:6240.got - 2010.05.20 11:54:10.
