data_PCOD9563631
_publ_section_title
;
Structure prediction by ZEFSAII (Michael W. Deem and Ramdas Pophale) SiO2 
 PCOD9563631
Probable space group: P 4/N N C
;
_chemical_formula_sum "Si O2"
_cell_formula_units_Z 64
_cell_length_a 18.772844
_cell_length_b 18.772844
_cell_length_c 8.849279
_cell_angle_alpha 90.000000
_cell_angle_beta 90.000000
_cell_angle_gamma 90.000000
_cell_volume 3118.660001
_symmetry_space_group_name_H-M "P 4/N N C"
_symmetry_group_IT_number 126
_space_group.IT_coordinate_system_code '2'
_symmetry_cell_setting 'tetragonal'
loop_
_space_group_symop_operation_xyz
x,y,z
1/2-y,x,z
1/2-x,1/2-y,z
y,1/2-x,z
x,1/2-y,1/2-z
1/2-x,y,1/2-z
y,x,1/2-z
1/2-y,1/2-x,1/2-z
-x,-y,-z
1/2+y,-x,-z
1/2+x,1/2+y,-z
-y,1/2+x,-z
-x,1/2+y,1/2+z
1/2+x,-y,1/2+z
-y,-x,1/2+z
1/2+y,1/2+x,1/2+z
loop_
_atom_site_type_symbol
_atom_site_label
_atom_site_fract_x
_atom_site_fract_y
_atom_site_fract_z
Si Si1 0.159085 0.693801 0.541024
Si Si2 0.519542 0.575396 0.589319
Si Si3 0.916260 0.366628 0.696371
Si Si4 0.169310 0.434478 0.682286
O O1 0.173250 0.775930 0.572598
O O2 0.157583 0.635944 0.670830
O O3 0.088331 0.687235 0.443316
O O4 0.556670 0.556670 0.750000
O O5 0.500000 0.500000 0.500000
O O6 0.442750 0.606921 0.633651
O O7 0.559747 0.635916 0.489019
O O8 0.996469 0.370354 0.749842
O O9 0.250000 0.440870 0.750000
O O10 0.137204 0.362797 0.750000
#
# Coordination Sequence:
#
# PCOD9563631 Si02
#       4
#    16  16  16  16
#     4  11  23  37  53  87 140 185 220 270 339 422
#     4  12  21  43  71 102 138 176 227 298 367 433
#     4  12  21  38  64  95 129 175 233 281 342 418
#     4  12  26  46  71 100 139 183 243 303 367 438
#
# _framework density 20.521635
#
# number of rings (size 3 to 8) (size 9 to 14) (size 15 to 20)
#    0.000    0.250    7.500    3.000    0.000    2.250 
#    0.000    1.250    0.000    0.000    0.000    1.750 
#    0.000    0.000    0.000    0.000    0.000    0.000 
#
# Total GULP energy -356277.921776 kJ/mol
# GULP energy per Si atom -5566.842528 kJ/mol
# Density = 2.047493 g / cm^3
# Si number density = 20.521635 Si / 1000 Ang^3
#
#
#
# Elastic Constant Matrix: (Units=GPa)
#
#
# Indices 1 2 3 4 5 6 
#
# 1 76.3431 19.6937 34.4663 0.0000 0.0000 0.0000
# 2 19.6937 76.3513 34.4718 0.0000 0.0000 0.0000
# 3 34.4663 34.4718 88.1621 0.0000 0.0000 0.0000
# 4 0.0000 0.0000 0.0000 32.2568 0.0000 0.0000
# 5 0.0000 0.0000 0.0000 0.0000 32.2552 0.0000
# 6 0.0000 0.0000 0.0000 0.0000 0.0000 31.0415
#
#
#
# Elastic Compliance Matrix: (Units=1/GPa)
#
#
# Indices 1 2 3 4 5 6 
#
# 1 0.016063 -0.001588 -0.005659 0.000000 0.000000 0.000000
# 2 -0.001588 0.016062 -0.005659 0.000000 0.000000 0.000000
# 3 -0.005659 -0.005659 0.015768 0.000000 0.000000 0.000000
# 4 0.000000 0.000000 0.000000 0.031001 0.000000 0.000000
# 5 0.000000 0.000000 0.000000 0.000000 0.031003 0.000000
# 6 0.000000 0.000000 0.000000 0.000000 0.000000 0.032215
#
#
# Mechanical properties :
#
#
# Convention : Reuss Voigt Hill
#
# Bulk Modulus (GPa) = 45.28949 46.45777 45.87363
# Shear Modulus (GPa) = 28.52492 29.25903 28.89198
#
# Velocity S-wave (km/s) = 3.73231 3.78003 3.75624
# Velocity P-wave (km/s) = 6.37891 6.46058 6.41987
#
# Compressibility (1/GPa) = 0.02208018
#
# Stress axis : x y z
#
# Youngs Moduli (GPa) = 62.25400 62.25784 63.42030
#
# Poissons Ratio (x) = 0.09889 0.35888
# Poissons Ratio (y) = 0.09889 0.35892
# Poissons Ratio (z) = 0.35228 0.35234
#
# Static dielectric constant tensor:
#      x y z
#    x 1.731570 0.000000 0.000000 
#    y 0.000000 1.731560 0.000000 
#    z 0.000000 0.000000 1.834910 
# 
# From -- ./inp_files/1502.got.cif
#   From: 2010.05.17/outbox.cif.g08.bks.cpg/sg126_1_cif.got.tgz:1502.got - 2010.05.20 11:58:20.
