data_PCOD9563721
_publ_section_title
;
Structure prediction by ZEFSAII (Michael W. Deem and Ramdas Pophale) SiO2 
 PCOD9563721
Probable space group: P 4/N N C
;
_chemical_formula_sum "Si O2"
_cell_formula_units_Z 64
_cell_length_a 11.009578
_cell_length_b 11.009578
_cell_length_c 29.174848
_cell_angle_alpha 90.000000
_cell_angle_beta 90.000000
_cell_angle_gamma 90.000000
_cell_volume 3536.306892
_symmetry_space_group_name_H-M "P 4/N N C"
_symmetry_group_IT_number 126
_space_group.IT_coordinate_system_code '2'
_symmetry_cell_setting 'tetragonal'
loop_
_space_group_symop_operation_xyz
x,y,z
1/2-y,x,z
1/2-x,1/2-y,z
y,1/2-x,z
x,1/2-y,1/2-z
1/2-x,y,1/2-z
y,x,1/2-z
1/2-y,1/2-x,1/2-z
-x,-y,-z
1/2+y,-x,-z
1/2+x,1/2+y,-z
-y,1/2+x,-z
-x,1/2+y,1/2+z
1/2+x,-y,1/2+z
-y,-x,1/2+z
1/2+y,1/2+x,1/2+z
loop_
_atom_site_type_symbol
_atom_site_label
_atom_site_fract_x
_atom_site_fract_y
_atom_site_fract_z
Si Si1 0.943936 0.687148 0.071313
Si Si2 0.550814 0.785710 0.963658
Si Si3 0.701377 0.118431 0.888418
Si Si4 0.954406 0.740364 0.699772
O O1 0.897533 0.825466 0.080157
O O2 0.060381 0.635916 0.097568
O O3 0.977028 0.692921 0.017053
O O4 0.615233 0.655326 0.954507
O O5 0.437158 0.780576 0.930340
O O6 0.750000 0.250000 0.877988
O O7 0.723910 0.037431 0.844016
O O8 0.871483 0.860358 0.697730
O O9 0.015656 0.750000 0.750000
#
# Coordination Sequence:
#
# PCOD9563721 Si02
#       4
#    16  16  16  16
#     4   9  22  40  54  76 121 168 196 230 283 344
#     4   9  20  38  57  77 112 158 200 246 291 330
#     4  12  25  31  58  91 118 148 198 240 286 348
#     4   9  20  42  68  89 113 144 184 244 310 351
#
# _framework density 18.097975999999999
#
# number of rings (size 3 to 8) (size 9 to 14) (size 15 to 20)
#    0.000    2.250    0.000    3.750   10.500    4.500 
#    0.000    0.000    0.000    0.000    0.000    0.000 
#    0.000    0.000    0.000    0.000    0.000    0.000 
#
# Total GULP energy -357016.402471 kJ/mol
# GULP energy per Si atom -5578.381289 kJ/mol
# Density = 1.805678 g / cm^3
# Si number density = 18.097976 Si / 1000 Ang^3
#
#
#
# Elastic Constant Matrix: (Units=GPa)
#
#
# Indices 1 2 3 4 5 6 
#
# 1 113.3617 -35.3664 50.1220 0.0000 0.0000 0.0000
# 2 -35.3664 113.3617 50.1220 0.0000 0.0000 0.0000
# 3 50.1220 50.1220 84.8153 0.0000 0.0000 0.0000
# 4 0.0000 0.0000 0.0000 68.4777 0.0000 0.0000
# 5 0.0000 0.0000 0.0000 0.0000 68.4777 0.0000
# 6 0.0000 0.0000 0.0000 0.0000 0.0000 7.0873
#
#
#
# Elastic Compliance Matrix: (Units=1/GPa)
#
#
# Indices 1 2 3 4 5 6 
#
# 1 0.030021 0.023297 -0.031508 0.000000 0.000000 0.000000
# 2 0.023297 0.030021 -0.031508 0.000000 0.000000 0.000000
# 3 -0.031508 -0.031508 0.049030 0.000000 0.000000 0.000000
# 4 0.000000 0.000000 0.000000 0.014603 0.000000 0.000000
# 5 0.000000 0.000000 0.000000 0.000000 0.014603 0.000000
# 6 0.000000 0.000000 0.000000 0.000000 0.000000 0.141098
#
#
# Mechanical properties :
#
#
# Convention : Reuss Voigt Hill
#
# Bulk Modulus (GPa) = 33.74702 49.03266 41.38984
# Shear Modulus (GPa) = 13.56145 45.25261 29.40703
#
# Velocity S-wave (km/s) = 2.74037 5.00585 4.03535
# Velocity P-wave (km/s) = 5.35725 7.78223 6.68069
#
# Compressibility (1/GPa) = 0.02963224
#
# Stress axis : x y z
#
# Youngs Moduli (GPa) = 33.31055 33.31055 20.39564
#
# Poissons Ratio (x) = -0.77603 0.64263
# Poissons Ratio (y) = -0.77603 0.64263
# Poissons Ratio (z) = 1.04955 1.04955
#
# Static dielectric constant tensor:
#      x y z
#    x 1.629690 0.000000 0.000000 
#    y 0.000000 1.629690 0.000000 
#    z 0.000000 0.000000 1.614070 
# 
# From -- ./inp_files/5639.got.cif
#   From: 2010.05.17/outbox.cif.g08.bks.cpg/sg126_3_cif.got.tgz:5639.got - 2010.05.20 11:58:20.
