data_PCOD9563149
_publ_section_title
;
Structure prediction by ZEFSAII (Michael W. Deem and Ramdas Pophale) SiO2 
 PCOD9563149
Probable space group: P 4/N B M
;
_chemical_formula_sum "Si O2"
_cell_formula_units_Z 88
_cell_length_a 18.026548
_cell_length_b 18.026548
_cell_length_c 15.321484
_cell_angle_alpha 90.000000
_cell_angle_beta 90.000000
_cell_angle_gamma 90.000000
_cell_volume 4978.814786
_symmetry_space_group_name_H-M "P 4/N B M"
_symmetry_group_IT_number 125
_space_group.IT_coordinate_system_code '2'
_symmetry_cell_setting 'tetragonal'
loop_
_space_group_symop_operation_xyz
x,y,z
1/2-y,x,z
1/2-x,1/2-y,z
y,1/2-x,z
x,1/2-y,-z
1/2-x,y,-z
y,x,-z
1/2-y,1/2-x,-z
-x,-y,-z
1/2+y,-x,-z
1/2+x,1/2+y,-z
-y,1/2+x,-z
-x,1/2+y,z
1/2+x,-y,z
-y,-x,z
1/2+y,1/2+x,z
loop_
_atom_site_type_symbol
_atom_site_label
_atom_site_fract_x
_atom_site_fract_y
_atom_site_fract_z
Si Si1 0.087296 0.138235 0.775816
Si Si2 0.381750 0.881750 0.141228
Si Si3 0.529776 0.252870 0.847149
Si Si4 0.886480 0.386480 0.056859
Si Si5 0.162213 0.339397 0.596706
Si Si6 0.005715 0.994286 0.142116
Si Si7 0.894249 0.816635 0.936758
O O1 0.119825 0.129387 0.680058
O O2 0.154852 0.143729 0.847140
O O3 0.031503 0.207852 0.785924
O O4 0.037897 0.068721 0.804166
O O5 0.310456 0.916313 0.188615
O O6 0.444012 0.944012 0.127746
O O7 0.363011 0.863011 0.040302
O O8 0.578182 0.316071 0.893349
O O9 0.476690 0.208250 0.914131
O O10 0.949988 0.449988 0.066976
O O11 0.149632 0.251133 0.602217
O O12 0.136697 0.363304 0.500000
O O13 0.864573 0.750000 0.000000
O O14 0.887400 0.887400 0.000000
#
# Coordination Sequence:
#
# PCOD9563149 Si02
#       7
#    16   8  16   8  16   8  16
#     4  11  22  39  55  80 118 146 193 234 290 345
#     4  12  21  33  56  74 106 144 207 242 279 335
#     4  11  24  38  51  79 104 155 192 247 286 329
#     4  10  23  37  54  66 112 151 206 235 286 329
#     4   9  19  36  59  83 108 144 183 224 284 352
#     4  10  23  32  55  80 106 159 178 236 283 353
#     4  12  23  34  50  76 115 144 187 226 282 338
#
# _framework density 17.674889
#
# number of rings (size 3 to 8) (size 9 to 14) (size 15 to 20)
#    0.000    1.273    3.636    3.545    2.545    0.545 
#    0.000    1.364    0.000    0.000    0.000    0.000 
#    0.000    0.000    0.000    0.000    0.727    0.000 
#
# Total GULP energy -490611.709460 kJ/mol
# GULP energy per Si atom -5575.133062 kJ/mol
# Density = 1.763466 g / cm^3
# Si number density = 17.674889 Si / 1000 Ang^3
#
#
#
# Elastic Constant Matrix: (Units=GPa)
#
#
# Indices 1 2 3 4 5 6 
#
# 1 72.4090 49.1334 25.7126 0.0000 0.0000 0.0000
# 2 49.1334 72.4089 25.7125 0.0000 0.0000 0.0000
# 3 25.7126 25.7125 106.6849 0.0000 0.0000 0.0000
# 4 0.0000 0.0000 0.0000 14.3765 0.0000 0.0000
# 5 0.0000 0.0000 0.0000 0.0000 14.3767 0.0000
# 6 0.0000 0.0000 0.0000 0.0000 0.0000 41.0672
#
#
#
# Elastic Compliance Matrix: (Units=1/GPa)
#
#
# Indices 1 2 3 4 5 6 
#
# 1 0.026063 -0.016901 -0.002208 0.000000 0.000000 0.000000
# 2 -0.016901 0.026063 -0.002208 0.000000 0.000000 0.000000
# 3 -0.002208 -0.002208 0.010438 0.000000 0.000000 0.000000
# 4 0.000000 0.000000 0.000000 0.069558 0.000000 0.000000
# 5 0.000000 0.000000 0.000000 0.000000 0.069557 0.000000
# 6 0.000000 0.000000 0.000000 0.000000 0.000000 0.024350
#
#
# Mechanical properties :
#
#
# Convention : Reuss Voigt Hill
#
# Bulk Modulus (GPa) = 50.17823 50.29107 50.23465
# Shear Modulus (GPa) = 18.16164 24.02704 21.09434
#
# Velocity S-wave (km/s) = 3.20900 3.69099 3.45840
# Velocity P-wave (km/s) = 6.49473 6.83225 6.66563
#
# Compressibility (1/GPa) = 0.01992896
#
# Stress axis : x y z
#
# Youngs Moduli (GPa) = 38.36905 38.36899 95.80581
#
# Poissons Ratio (x) = 0.64847 0.21155
# Poissons Ratio (y) = 0.64847 0.21155
# Poissons Ratio (z) = 0.08472 0.08472
#
# Static dielectric constant tensor:
#      x y z
#    x 1.659420 0.000000 0.000000 
#    y 0.000000 1.659420 0.000000 
#    z 0.000000 0.000000 1.609520 
# 
# From -- ./inp_files/4920.got.cif
#   From: 2010.05.17/outbox.cif.g08.bks.cpg/sg125_3_cif.got.tgz:4920.got - 2010.05.20 11:54:10.
