data_PCOD9563394
_publ_section_title
;
Structure prediction by ZEFSAII (Michael W. Deem and Ramdas Pophale) SiO2 
 PCOD9563394
Probable space group: P 4/N N C
;
_chemical_formula_sum "Si O2"
_cell_formula_units_Z 64
_cell_length_a 22.362682
_cell_length_b 22.362682
_cell_length_c 5.671324
_cell_angle_alpha 90.000000
_cell_angle_beta 90.000000
_cell_angle_gamma 90.000000
_cell_volume 2836.169846
_symmetry_space_group_name_H-M "P 4/N N C"
_symmetry_group_IT_number 126
_space_group.IT_coordinate_system_code '2'
_symmetry_cell_setting 'tetragonal'
loop_
_space_group_symop_operation_xyz
x,y,z
1/2-y,x,z
1/2-x,1/2-y,z
y,1/2-x,z
x,1/2-y,1/2-z
1/2-x,y,1/2-z
y,x,1/2-z
1/2-y,1/2-x,1/2-z
-x,-y,-z
1/2+y,-x,-z
1/2+x,1/2+y,-z
-y,1/2+x,-z
-x,1/2+y,1/2+z
1/2+x,-y,1/2+z
-y,-x,1/2+z
1/2+y,1/2+x,1/2+z
loop_
_atom_site_type_symbol
_atom_site_label
_atom_site_fract_x
_atom_site_fract_y
_atom_site_fract_z
Si Si1 0.149337 0.613609 0.483208
Si Si2 0.605871 0.894130 0.250000
Si Si3 0.446150 0.193316 0.415049
Si Si4 0.497419 0.415288 0.387193
Si Si5 0.957561 0.250000 0.750000
O O1 0.155852 0.636209 0.212282
O O2 0.094634 0.565817 0.459507
O O3 0.207760 0.580008 0.578001
O O4 0.605108 0.838086 0.427712
O O5 0.600866 0.955570 0.393002
O O6 0.429579 0.250000 0.250000
O O7 0.476741 0.138961 0.278589
O O8 0.498251 0.213323 0.587610
O O9 0.475314 0.475314 0.250000
#
# Coordination Sequence:
#
# PCOD9563394 Si02
#       5
#    16   8  16  16   8
#     4  12  27  43  67 101 133 187 241 286 358 430
#     4  10  20  36  58 100 136 181 232 272 344 419
#     4  11  19  36  66  93 132 193 229 286 342 422
#     4  10  22  37  60  94 143 181 226 273 352 425
#     4  12  24  44  68  93 138 181 234 296 350 418
#
# _framework density 22.565646000000001
#
# number of rings (size 3 to 8) (size 9 to 14) (size 15 to 20)
#    0.000    1.000    5.000    1.500    3.500    1.000 
#    0.000    0.000    0.000    2.250    0.000    0.000 
#    0.000  584.000    0.000    0.000    0.000    0.000 
#
# Total GULP energy -357461.080632 kJ/mol
# GULP energy per Si atom -5585.329385 kJ/mol
# Density = 2.251429 g / cm^3
# Si number density = 22.565646 Si / 1000 Ang^3
#
#
#
# Elastic Constant Matrix: (Units=GPa)
#
#
# Indices 1 2 3 4 5 6 
#
# 1 66.2284 0.9418 31.5756 0.0000 0.0000 0.0000
# 2 0.9418 66.2303 31.5763 0.0000 0.0000 0.0000
# 3 31.5756 31.5763 145.5506 0.0000 0.0000 0.0000
# 4 0.0000 0.0000 0.0000 66.0975 0.0000 0.0000
# 5 0.0000 0.0000 0.0000 0.0000 66.0995 0.0000
# 6 0.0000 0.0000 0.0000 0.0000 0.0000 48.5784
#
#
#
# Elastic Compliance Matrix: (Units=1/GPa)
#
#
# Indices 1 2 3 4 5 6 
#
# 1 0.017010 0.001692 -0.004057 0.000000 0.000000 0.000000
# 2 0.001692 0.017009 -0.004057 0.000000 0.000000 0.000000
# 3 -0.004057 -0.004057 0.008631 0.000000 0.000000 0.000000
# 4 0.000000 0.000000 0.000000 0.015129 0.000000 0.000000
# 5 0.000000 0.000000 0.000000 0.000000 0.015129 0.000000
# 6 0.000000 0.000000 0.000000 0.000000 0.000000 0.020585
#
#
# Mechanical properties :
#
#
# Convention : Reuss Voigt Hill
#
# Bulk Modulus (GPa) = 33.55076 45.13298 39.34187
# Shear Modulus (GPa) = 43.00276 50.41614 46.70945
#
# Velocity S-wave (km/s) = 4.37014 4.73186 4.55459
# Velocity P-wave (km/s) = 6.35331 7.06386 6.71799
#
# Compressibility (1/GPa) = 0.02980558
#
# Stress axis : x y z
#
# Youngs Moduli (GPa) = 58.79053 58.79215 115.86403
#
# Poissons Ratio (x) = -0.09950 0.47008
# Poissons Ratio (y) = -0.09950 0.47008
# Poissons Ratio (z) = 0.23853 0.23853
#
# Static dielectric constant tensor:
#      x y z
#    x 1.833180 0.000000 0.000000 
#    y 0.000000 1.833180 0.000000 
#    z 0.000000 0.000000 1.938900 
# 
# From -- ./inp_files/490.got.cif
#   From: 2010.05.17/outbox.cif.g08.bks.cpg/sg126_1_cif.got.tgz:490.got - 2010.05.20 11:58:20.
