data_PCOD9563996
_publ_section_title
;
Structure prediction by ZEFSAII (Michael W. Deem and Ramdas Pophale) SiO2 
 PCOD9563996
Probable space group: P 4/M B M
;
_chemical_formula_sum "Si O2"
_cell_formula_units_Z 96
_cell_length_a 25.742133
_cell_length_b 25.742133
_cell_length_c 8.948110
_cell_angle_alpha 90.000000
_cell_angle_beta 90.000000
_cell_angle_gamma 90.000000
_cell_volume 5929.531409
_symmetry_space_group_name_H-M "P 4/M B M"
_symmetry_group_IT_number 127
_symmetry_cell_setting 'tetragonal'
loop_
_space_group_symop_operation_xyz
x,y,z
-y,x,z
-x,-y,z
y,-x,z
1/2+x,1/2-y,-z
1/2-x,1/2+y,-z
1/2+y,1/2+x,-z
1/2-y,1/2-x,-z
-x,-y,-z
y,-x,-z
x,y,-z
-y,x,-z
1/2-x,1/2+y,z
1/2+x,1/2-y,z
1/2-y,1/2-x,z
1/2+y,1/2+x,z
loop_
_atom_site_type_symbol
_atom_site_label
_atom_site_fract_x
_atom_site_fract_y
_atom_site_fract_z
Si Si1 0.744232 0.550001 0.679953
Si Si2 0.239734 0.174629 0.179823
Si Si3 0.756190 0.655544 0.176175
Si Si4 0.244772 0.063901 0.670053
Si Si5 0.446502 0.379694 0.669901
Si Si6 0.449711 0.630709 0.823495
O O1 0.739334 0.549643 0.500000
O O2 0.770216 0.603286 0.735146
O O3 0.766046 0.492592 0.723045
O O4 0.688099 0.554580 0.757328
O O5 0.286532 0.213469 0.222491
O O6 0.186197 0.203798 0.229213
O O7 0.250771 0.117023 0.239186
O O8 0.237193 0.173246 0.000000
O O9 0.801929 0.698072 0.187024
O O10 0.749192 0.642859 0.000000
O O11 0.262916 0.072474 0.500000
O O12 0.182616 0.054947 0.666062
O O13 0.439897 0.398577 0.500000
O O14 0.401649 0.399801 0.776803
O O15 0.501319 0.395348 0.740775
O O16 0.457549 0.632176 0.000000
#
# Coordination Sequence:
#
# PCOD9563996 Si02
#       6
#    16  16  16  16  16  16
#     4  10  20  33  47  66  93 123 155 190 229 274
#     4   9  18  31  47  69  96 123 152 190 234 278
#     4   9  18  32  49  71  98 125 156 197 241 283
#     4   9  19  32  46  65  89 118 152 188 224 268
#     4  10  20  34  47  61  83 111 145 188 234 274
#     4  11  21  32  46  64  83 109 148 189 231 277
#
# _framework density 16.190149999999999
#
# number of rings (size 3 to 8) (size 9 to 14) (size 15 to 20)
#    0.000    2.333    0.000    5.500    0.000    8.333 
#    0.000    3.333    0.000    0.000    0.000    0.000 
#    0.000    0.667    0.000    7.333    0.000    5.333 
#
# Total GULP energy -534741.424452 kJ/mol
# GULP energy per Si atom -5570.223171 kJ/mol
# Density = 1.615330 g / cm^3
# Si number density = 16.190150 Si / 1000 Ang^3
#
#
#
# Elastic Constant Matrix: (Units=GPa)
#
#
# Indices 1 2 3 4 5 6 
#
# 1 68.4151 11.6575 19.2689 0.0000 0.0000 0.0000
# 2 11.6575 68.4151 19.2689 0.0000 0.0000 0.0000
# 3 19.2689 19.2689 47.8172 0.0000 0.0000 0.0000
# 4 0.0000 0.0000 0.0000 22.7683 0.0000 0.0000
# 5 0.0000 0.0000 0.0000 0.0000 22.7683 0.0000
# 6 0.0000 0.0000 0.0000 0.0000 0.0000 15.3247
#
#
#
# Elastic Compliance Matrix: (Units=1/GPa)
#
#
# Indices 1 2 3 4 5 6 
#
# 1 0.016556 -0.001063 -0.006243 0.000000 0.000000 0.000000
# 2 -0.001063 0.016556 -0.006243 0.000000 0.000000 0.000000
# 3 -0.006243 -0.006243 0.025945 0.000000 0.000000 0.000000
# 4 0.000000 0.000000 0.000000 0.043921 0.000000 0.000000
# 5 0.000000 0.000000 0.000000 0.000000 0.043921 0.000000
# 6 0.000000 0.000000 0.000000 0.000000 0.000000 0.065254
#
#
# Mechanical properties :
#
#
# Convention : Reuss Voigt Hill
#
# Bulk Modulus (GPa) = 31.29092 31.67089 31.48091
# Shear Modulus (GPa) = 20.00763 21.13572 20.57167
#
# Velocity S-wave (km/s) = 3.51919 3.61705 3.56846
# Velocity P-wave (km/s) = 5.99016 6.08673 6.03864
#
# Compressibility (1/GPa) = 0.03195815
#
# Stress axis : x y z
#
# Youngs Moduli (GPa) = 60.40043 60.40043 38.54328
#
# Poissons Ratio (x) = 0.06418 0.24064
# Poissons Ratio (y) = 0.06418 0.24064
# Poissons Ratio (z) = 0.37711 0.37711
#
# Static dielectric constant tensor:
#      x y z
#    x 1.575530 0.000000 0.000000 
#    y 0.000000 1.575530 0.000000 
#    z 0.000000 0.000000 1.546110 
# 
# From -- ./inp_files/1926.got.cif
#   From: 2010.05.17/outbox.cif.g08.bks.cpg/sg127_1_cif.got.tgz:1926.got - 2010.05.20 12:03:00.
