data_PCOD9563143
_publ_section_title
;
Structure prediction by ZEFSAII (Michael W. Deem and Ramdas Pophale) SiO2 
 PCOD9563143
Probable space group: P 4/N B M
;
_chemical_formula_sum "Si O2"
_cell_formula_units_Z 34
_cell_length_a 11.813702
_cell_length_b 11.813702
_cell_length_c 13.794634
_cell_angle_alpha 90.000000
_cell_angle_beta 90.000000
_cell_angle_gamma 90.000000
_cell_volume 1925.228160
_symmetry_space_group_name_H-M "P 4/N B M"
_symmetry_group_IT_number 125
_space_group.IT_coordinate_system_code '2'
_symmetry_cell_setting 'tetragonal'
loop_
_space_group_symop_operation_xyz
x,y,z
1/2-y,x,z
1/2-x,1/2-y,z
y,1/2-x,z
x,1/2-y,-z
1/2-x,y,-z
y,x,-z
1/2-y,1/2-x,-z
-x,-y,-z
1/2+y,-x,-z
1/2+x,1/2+y,-z
-y,1/2+x,-z
-x,1/2+y,z
1/2+x,-y,z
-y,-x,z
1/2+y,1/2+x,z
loop_
_atom_site_type_symbol
_atom_site_label
_atom_site_fract_x
_atom_site_fract_y
_atom_site_fract_z
Si Si1 0.784895 0.935543 0.301765
Si Si2 0.936074 0.250000 0.500000
Si Si3 0.840612 0.159389 0.188926
Si Si4 0.250000 0.750000 0.000000
O O1 0.662633 0.877602 0.290173
O O2 0.787805 0.988667 0.409334
O O3 0.807693 0.036488 0.227250
O O4 0.853749 0.146252 0.528756
O O5 0.750000 0.250000 0.231643
O O6 0.824641 0.175360 0.073724
#
# Coordination Sequence:
#
# PCOD9563143 Si02
#       4
#    16   8   8   2
#     4  11  24  39  61  94 130 168 207 251 299 360
#     4  11  22  35  58  94 130 171 211 246 292 358
#     4  10  22  43  66  89 118 157 207 251 317 374
#     4   8  24  44  68  98 108 156 204 256 328 378
#
# _framework density 17.660243999999999
#
# number of rings (size 3 to 8) (size 9 to 14) (size 15 to 20)
#    0.706    0.706    2.353    2.824    6.588    3.765 
#    0.000    4.706    0.000    2.824    0.000    0.000 
#    0.000    0.000    0.000    0.000    0.000    0.000 
#
# Total GULP energy -189815.320005 kJ/mol
# GULP energy per Si atom -5582.803530 kJ/mol
# Density = 1.762005 g / cm^3
# Si number density = 17.660244 Si / 1000 Ang^3
#
#
#
# Elastic Constant Matrix: (Units=GPa)
#
#
# Indices 1 2 3 4 5 6 
#
# 1 133.1308 68.6493 55.2573 0.0000 0.0000 0.0000
# 2 68.6493 133.1308 55.2573 0.0000 0.0000 0.0000
# 3 55.2573 55.2573 136.5312 0.0000 0.0000 0.0000
# 4 0.0000 0.0000 0.0000 1.0284 0.0000 0.0000
# 5 0.0000 0.0000 0.0000 0.0000 1.0284 0.0000
# 6 0.0000 0.0000 0.0000 0.0000 0.0000 10.1182
#
#
#
# Elastic Compliance Matrix: (Units=1/GPa)
#
#
# Indices 1 2 3 4 5 6 
#
# 1 0.010938 -0.004571 -0.002577 0.000000 0.000000 0.000000
# 2 -0.004571 0.010938 -0.002577 0.000000 0.000000 0.000000
# 3 -0.002577 -0.002577 0.009410 0.000000 0.000000 0.000000
# 4 0.000000 0.000000 0.000000 0.972353 0.000000 0.000000
# 5 0.000000 0.000000 0.000000 0.000000 0.972353 0.000000
# 6 0.000000 0.000000 0.000000 0.000000 0.000000 0.098831
#
#
# Mechanical properties :
#
#
# Convention : Reuss Voigt Hill
#
# Bulk Modulus (GPa) = 84.48154 84.56895 84.52524
# Shear Modulus (GPa) = 2.38298 17.34362 9.86330
#
# Velocity S-wave (km/s) = 1.16287 3.13720 2.36583
# Velocity P-wave (km/s) = 7.05294 7.81750 7.44504
#
# Compressibility (1/GPa) = 0.01183691
#
# Stress axis : x y z
#
# Youngs Moduli (GPa) = 91.42597 91.42597 106.26690
#
# Poissons Ratio (x) = 0.41786 0.27385
# Poissons Ratio (y) = 0.41786 0.27385
# Poissons Ratio (z) = 0.23560 0.23560
#
# Static dielectric constant tensor:
#      x y z
#    x 1.597290 0.000000 0.000000 
#    y 0.000000 1.597290 0.000000 
#    z 0.000000 0.000000 1.574150 
# 
# From -- ./inp_files/3243.got.cif
#   From: 2010.05.17/outbox.cif.g08.bks.cpg/sg125_2_cif.got.tgz:3243.got - 2010.05.20 11:54:10.
