data_PCOD9563308
_publ_section_title
;
Structure prediction by ZEFSAII (Michael W. Deem and Ramdas Pophale) SiO2 
 PCOD9563308
Probable space group: P 4/N N C
;
_chemical_formula_sum "Si O2"
_cell_formula_units_Z 96
_cell_length_a 20.529792
_cell_length_b 20.529792
_cell_length_c 13.082588
_cell_angle_alpha 90.000000
_cell_angle_beta 90.000000
_cell_angle_gamma 90.000000
_cell_volume 5513.949234
_symmetry_space_group_name_H-M "P 4/N N C"
_symmetry_group_IT_number 126
_space_group.IT_coordinate_system_code '2'
_symmetry_cell_setting 'tetragonal'
loop_
_space_group_symop_operation_xyz
x,y,z
1/2-y,x,z
1/2-x,1/2-y,z
y,1/2-x,z
x,1/2-y,1/2-z
1/2-x,y,1/2-z
y,x,1/2-z
1/2-y,1/2-x,1/2-z
-x,-y,-z
1/2+y,-x,-z
1/2+x,1/2+y,-z
-y,1/2+x,-z
-x,1/2+y,1/2+z
1/2+x,-y,1/2+z
-y,-x,1/2+z
1/2+y,1/2+x,1/2+z
loop_
_atom_site_type_symbol
_atom_site_label
_atom_site_fract_x
_atom_site_fract_y
_atom_site_fract_z
Si Si1 0.022906 0.409263 0.068505
Si Si2 0.478953 0.773359 0.865272
Si Si3 0.147572 0.488683 0.023995
Si Si4 0.082395 0.504593 0.815750
Si Si5 0.782185 0.147496 0.999787
Si Si6 0.925546 0.386734 0.885730
O O1 0.096254 0.433978 0.059630
O O2 0.013550 0.343016 0.129707
O O3 0.979359 0.464989 0.123081
O O4 0.989155 0.394558 0.958739
O O5 0.476925 0.750000 0.750000
O O6 0.516042 0.720900 0.936748
O O7 0.405713 0.779947 0.909809
O O8 0.121377 0.555734 0.074785
O O9 0.136459 0.492596 0.902051
O O10 0.104991 0.556136 0.731336
O O11 0.056706 0.443295 0.750000
O O12 0.710693 0.174106 0.025798
O O13 0.818850 0.109444 0.090199
#
# Coordination Sequence:
#
# PCOD9563308 Si02
#       6
#    16  16  16  16  16  16
#     4  10  21  33  56  83 114 143 191 244 297 350
#     4  11  24  38  56  82 117 157 198 239 294 359
#     4  11  20  37  57  84 113 145 192 247 294 356
#     4  11  18  32  62  87 109 146 189 252 306 341
#     4  10  21  39  54  74 117 162 202 236 274 345
#     4  10  18  34  56  82 108 146 193 244 297 330
#
# _framework density 17.410388000000001
#
# number of rings (size 3 to 8) (size 9 to 14) (size 15 to 20)
#    0.000    1.500    5.000    2.000    0.000    0.000 
#    0.000    6.667    0.000    0.500    0.000    1.167 
#    0.000    0.000    2.000    0.000    0.000    0.000 
#
# Total GULP energy -535873.414905 kJ/mol
# GULP energy per Si atom -5582.014739 kJ/mol
# Density = 1.737076 g / cm^3
# Si number density = 17.410388 Si / 1000 Ang^3
#
#
#
# Elastic Constant Matrix: (Units=GPa)
#
#
# Indices 1 2 3 4 5 6 
#
# 1 67.1542 31.8142 21.7642 0.0000 0.0000 0.0000
# 2 31.8142 67.1563 21.7647 0.0000 0.0000 0.0000
# 3 21.7642 21.7647 101.7172 0.0000 0.0000 0.0000
# 4 0.0000 0.0000 0.0000 18.2669 0.0000 0.0000
# 5 0.0000 0.0000 0.0000 0.0000 18.2664 0.0000
# 6 0.0000 0.0000 0.0000 0.0000 0.0000 29.1401
#
#
#
# Elastic Compliance Matrix: (Units=1/GPa)
#
#
# Indices 1 2 3 4 5 6 
#
# 1 0.019725 -0.008571 -0.002387 0.000000 0.000000 0.000000
# 2 -0.008571 0.019724 -0.002387 0.000000 0.000000 0.000000
# 3 -0.002387 -0.002387 0.010852 0.000000 0.000000 0.000000
# 4 0.000000 0.000000 0.000000 0.054744 0.000000 0.000000
# 5 0.000000 0.000000 0.000000 0.000000 0.054745 0.000000
# 6 0.000000 0.000000 0.000000 0.000000 0.000000 0.034317
#
#
# Mechanical properties :
#
#
# Convention : Reuss Voigt Hill
#
# Bulk Modulus (GPa) = 42.34816 42.96819 42.65818
# Shear Modulus (GPa) = 21.86578 23.84697 22.85638
#
# Velocity S-wave (km/s) = 3.54772 3.70496 3.62719
# Velocity P-wave (km/s) = 6.41545 6.56014 6.48820
#
# Compressibility (1/GPa) = 0.02361378
#
# Stress axis : x y z
#
# Youngs Moduli (GPa) = 50.69692 50.69852 92.14473
#
# Poissons Ratio (x) = 0.43453 0.21991
# Poissons Ratio (y) = 0.43452 0.21991
# Poissons Ratio (z) = 0.12099 0.12100
#
# Static dielectric constant tensor:
#      x y z
#    x 1.600790 0.000000 0.000000 
#    y 0.000000 1.600790 0.000000 
#    z 0.000000 0.000000 1.605880 
# 
# From -- ./inp_files/2900.got.cif
#   From: 2010.05.17/outbox.cif.g08.bks.cpg/sg126_2_cif.got.tgz:2900.got - 2010.05.20 11:58:20.
