data_PCOD9563085
_publ_section_title
;
Structure prediction by ZEFSAII (Michael W. Deem and Ramdas Pophale) SiO2 
 PCOD9563085
Probable space group: P 4/N B M
;
_chemical_formula_sum "Si O2"
_cell_formula_units_Z 48
_cell_length_a 12.629571
_cell_length_b 12.629571
_cell_length_c 13.837101
_cell_angle_alpha 90.000000
_cell_angle_beta 90.000000
_cell_angle_gamma 90.000000
_cell_volume 2207.101513
_symmetry_space_group_name_H-M "P 4/N B M"
_symmetry_group_IT_number 125
_space_group.IT_coordinate_system_code '2'
_symmetry_cell_setting 'tetragonal'
loop_
_space_group_symop_operation_xyz
x,y,z
1/2-y,x,z
1/2-x,1/2-y,z
y,1/2-x,z
x,1/2-y,-z
1/2-x,y,-z
y,x,-z
1/2-y,1/2-x,-z
-x,-y,-z
1/2+y,-x,-z
1/2+x,1/2+y,-z
-y,1/2+x,-z
-x,1/2+y,z
1/2+x,-y,z
-y,-x,z
1/2+y,1/2+x,z
loop_
_atom_site_type_symbol
_atom_site_label
_atom_site_fract_x
_atom_site_fract_y
_atom_site_fract_z
Si Si1 0.978762 0.842273 0.064828
Si Si2 0.171744 0.494360 0.409647
Si Si3 0.148848 0.471978 0.717109
O O1 0.941838 0.819640 0.174033
O O2 0.028230 0.750000 0.000000
O O3 0.882426 0.882426 0.000000
O O4 0.063947 0.936054 0.072007
O O5 0.250000 0.475103 0.500000
O O6 0.079302 0.579302 0.434018
O O7 0.252670 0.534442 0.328258
O O8 0.119189 0.391911 0.357007
O O9 0.048332 0.548332 0.722363
#
# Coordination Sequence:
#
# PCOD9563085 Si02
#       3
#    16  16  16
#     4  10  21  38  60  87 120 158 200 247 299 356
#     4  11  23  40  62  88 120 159 203 249 301 363
#     4  10  22  39  60  88 122 157 197 249 302 355
#
# _framework density 21.747979999999998
#
# number of rings (size 3 to 8) (size 9 to 14) (size 15 to 20)
#    0.000    1.667    0.000    4.000    0.000   10.333 
#    0.000    8.333    0.000    0.000    0.000    0.000 
#    0.000    0.000    0.000    0.000    0.000    0.000 
#
# Total GULP energy -267443.925114 kJ/mol
# GULP energy per Si atom -5571.748440 kJ/mol
# Density = 2.169848 g / cm^3
# Si number density = 21.747980 Si / 1000 Ang^3
#
#
#
# Elastic Constant Matrix: (Units=GPa)
#
#
# Indices 1 2 3 4 5 6 
#
# 1 60.9478 7.0723 57.1037 0.0000 0.0000 0.0000
# 2 7.0723 60.9478 57.1037 0.0000 0.0000 0.0000
# 3 57.1037 57.1037 191.8657 0.0000 0.0000 0.0000
# 4 0.0000 0.0000 0.0000 38.8032 0.0000 0.0000
# 5 0.0000 0.0000 0.0000 0.0000 38.8032 0.0000
# 6 0.0000 0.0000 0.0000 0.0000 0.0000 -71.1193
#
#
#
# Elastic Compliance Matrix: (Units=1/GPa)
#
#
# Indices 1 2 3 4 5 6 
#
# 1 0.023974 0.005413 -0.008746 0.000000 0.000000 0.000000
# 2 0.005413 0.023974 -0.008746 0.000000 0.000000 0.000000
# 3 -0.008746 -0.008746 0.010418 0.000000 0.000000 0.000000
# 4 0.000000 0.000000 0.000000 0.025771 0.000000 0.000000
# 5 0.000000 0.000000 0.000000 0.000000 0.025771 0.000000
# 6 0.000000 0.000000 0.000000 0.000000 0.000000 -0.014061
#
#
# Mechanical properties :
#
#
# Convention : Reuss Voigt Hill
#
# Bulk Modulus (GPa) = 29.23416 61.81340 45.52378
# Shear Modulus (GPa) = 38.04928 14.12951 26.08940
#
# Velocity S-wave (km/s) = 4.18731 2.55167 3.46732
# Velocity P-wave (km/s) = 6.07038 6.09637 6.08338
#
# Compressibility (1/GPa) = 0.03420656
#
# Stress axis : x y z
#
# Youngs Moduli (GPa) = 41.71208 41.71208 95.98723
#
# Poissons Ratio (x) = -0.22577 0.83951
# Poissons Ratio (y) = -0.22577 0.83951
# Poissons Ratio (z) = 0.36482 0.36482
#
# Static dielectric constant tensor:
#      x y z
#    x 1.861950 0.000000 0.000000 
#    y 0.000000 1.861950 0.000000 
#    z 0.000000 0.000000 1.914480 
# 
# From -- ./inp_files/3415.got.cif
#   From: 2010.05.17/outbox.cif.g08.bks.cpg/sg125_2_cif.got.tgz:3415.got - 2010.05.20 11:54:10.
