data_PCOD9563544
_publ_section_title
;
Structure prediction by ZEFSAII (Michael W. Deem and Ramdas Pophale) SiO2 
 PCOD9563544
Probable space group: P 4/N N C
;
_chemical_formula_sum "Si O2"
_cell_formula_units_Z 108
_cell_length_a 14.721552
_cell_length_b 14.721552
_cell_length_c 23.632465
_cell_angle_alpha 90.000000
_cell_angle_beta 90.000000
_cell_angle_gamma 90.000000
_cell_volume 5121.724549
_symmetry_space_group_name_H-M "P 4/N N C"
_symmetry_group_IT_number 126
_space_group.IT_coordinate_system_code '2'
_symmetry_cell_setting 'tetragonal'
loop_
_space_group_symop_operation_xyz
x,y,z
1/2-y,x,z
1/2-x,1/2-y,z
y,1/2-x,z
x,1/2-y,1/2-z
1/2-x,y,1/2-z
y,x,1/2-z
1/2-y,1/2-x,1/2-z
-x,-y,-z
1/2+y,-x,-z
1/2+x,1/2+y,-z
-y,1/2+x,-z
-x,1/2+y,1/2+z
1/2+x,-y,1/2+z
-y,-x,1/2+z
1/2+y,1/2+x,1/2+z
loop_
_atom_site_type_symbol
_atom_site_label
_atom_site_fract_x
_atom_site_fract_y
_atom_site_fract_z
Si Si1 0.440265 0.335314 0.517476
Si Si2 0.855362 0.004067 0.236102
Si Si3 0.769118 0.893128 0.831775
Si Si4 0.250000 0.250000 0.949430
Si Si5 0.815473 0.542730 0.939081
Si Si6 0.098350 0.683606 0.800314
Si Si7 0.750000 0.250000 0.885838
Si Si8 0.123908 0.914265 0.891193
O O1 0.357102 0.281480 0.546070
O O2 0.393230 0.407134 0.475034
O O3 0.496048 0.258991 0.482441
O O4 0.503722 0.377736 0.564614
O O5 0.750000 0.986747 0.250000
O O6 0.890982 0.082244 0.278124
O O7 0.862673 0.045595 0.172161
O O8 0.916248 0.916248 0.250000
O O9 0.674510 0.848557 0.812478
O O10 0.748015 0.894392 0.899250
O O11 0.793366 0.994417 0.814427
O O12 0.862118 0.471311 0.897564
O O13 0.127589 0.750000 0.750000
O O14 0.167768 0.705821 0.849991
O O15 0.660224 0.199812 0.910025
#
# Coordination Sequence:
#
# PCOD9563544 Si02
#       8
#    16  16  16   4  16  16   8  16
#     4  10  23  41  71  98 140 184 249 290 369 442
#     4  12  28  49  76 106 146 194 252 311 374 439
#     4  11  24  40  69 108 146 183 232 292 374 451
#     4   8  20  44  68  96 121 196 225 308 364 416
#     4  11  21  42  68  99 140 191 229 299 367 441
#     4  12  23  44  73 100 139 190 239 293 367 451
#     4  12  23  44  73  94 138 188 243 290 365 432
#     4  12  26  45  67 108 139 194 247 304 363 437
#
# _framework density 21.086648
#
# number of rings (size 3 to 8) (size 9 to 14) (size 15 to 20)
#    0.000    0.741    5.926    0.667    4.148    3.704 
#    0.000    0.741    0.000    0.000    0.000    0.000 
#    0.000    0.000    0.000    0.000    0.000    0.000 
#
# Total GULP energy -601655.807189 kJ/mol
# GULP energy per Si atom -5570.887104 kJ/mol
# Density = 2.103865 g / cm^3
# Si number density = 21.086648 Si / 1000 Ang^3
#
#
#
# Elastic Constant Matrix: (Units=GPa)
#
#
# Indices 1 2 3 4 5 6 
#
# 1 139.3077 49.4389 31.4166 0.0000 0.0000 0.0000
# 2 49.4389 139.3077 31.4166 0.0000 0.0000 0.0000
# 3 31.4166 31.4166 60.2009 0.0000 0.0000 0.0000
# 4 0.0000 0.0000 0.0000 8.9410 0.0000 0.0000
# 5 0.0000 0.0000 0.0000 0.0000 8.9410 0.0000
# 6 0.0000 0.0000 0.0000 0.0000 0.0000 30.5323
#
#
#
# Elastic Compliance Matrix: (Units=1/GPa)
#
#
# Indices 1 2 3 4 5 6 
#
# 1 0.008770 -0.002358 -0.003346 0.000000 0.000000 0.000000
# 2 -0.002358 0.008770 -0.003346 0.000000 0.000000 0.000000
# 3 -0.003346 -0.003346 0.020104 0.000000 0.000000 0.000000
# 4 0.000000 0.000000 0.000000 0.111844 0.000000 0.000000
# 5 0.000000 0.000000 0.000000 0.000000 0.111844 0.000000
# 6 0.000000 0.000000 0.000000 0.000000 0.000000 0.032752
#
#
# Mechanical properties :
#
#
# Convention : Reuss Voigt Hill
#
# Bulk Modulus (GPa) = 51.16963 62.59558 56.88261
# Shear Modulus (GPa) = 15.68887 24.78583 20.23735
#
# Velocity S-wave (km/s) = 2.73063 3.43217 3.10130
# Velocity P-wave (km/s) = 5.85328 6.74209 6.31334
#
# Compressibility (1/GPa) = 0.01954284
#
# Stress axis : x y z
#
# Youngs Moduli (GPa) = 114.02910 114.02910 49.74245
#
# Poissons Ratio (x) = 0.26884 0.16645
# Poissons Ratio (y) = 0.26884 0.16645
# Poissons Ratio (z) = 0.38156 0.38156
#
# Static dielectric constant tensor:
#      x y z
#    x 1.764920 0.000000 0.000000 
#    y 0.000000 1.764920 0.000000 
#    z 0.000000 0.000000 1.818720 
# 
# From -- ./inp_files/5867.got.cif
#   From: 2010.05.17/outbox.cif.g08.bks.cpg/sg126_3_cif.got.tgz:5867.got - 2010.05.20 11:58:20.
