data_PCOD9563998
_publ_section_title
;
Structure prediction by ZEFSAII (Michael W. Deem and Ramdas Pophale) SiO2 
 PCOD9563998
Probable space group: P 4/M B M
;
_chemical_formula_sum "Si O2"
_cell_formula_units_Z 96
_cell_length_a 24.812192
_cell_length_b 24.812192
_cell_length_c 8.486360
_cell_angle_alpha 90.000000
_cell_angle_beta 90.000000
_cell_angle_gamma 90.000000
_cell_volume 5224.584015
_symmetry_space_group_name_H-M "P 4/M B M"
_symmetry_group_IT_number 127
_symmetry_cell_setting 'tetragonal'
loop_
_space_group_symop_operation_xyz
x,y,z
-y,x,z
-x,-y,z
y,-x,z
1/2+x,1/2-y,-z
1/2-x,1/2+y,-z
1/2+y,1/2+x,-z
1/2-y,1/2-x,-z
-x,-y,-z
y,-x,-z
x,y,-z
-y,x,-z
1/2-x,1/2+y,z
1/2+x,1/2-y,z
1/2-y,1/2-x,z
1/2+y,1/2+x,z
loop_
_atom_site_type_symbol
_atom_site_label
_atom_site_fract_x
_atom_site_fract_y
_atom_site_fract_z
Si Si1 0.295137 0.490785 0.686801
Si Si2 0.675361 0.824640 0.806691
Si Si3 0.236500 0.263500 0.811411
Si Si4 0.494004 0.412695 0.189872
Si Si5 0.306808 0.053373 0.811249
Si Si6 0.883437 0.738203 0.311466
Si Si7 0.865291 0.551381 0.190710
O O1 0.287330 0.495290 0.500000
O O2 0.354618 0.507472 0.734233
O O3 0.250642 0.527744 0.769511
O O4 0.282793 0.428473 0.730686
O O5 0.719547 0.780454 0.755589
O O6 0.688179 0.885568 0.753465
O O7 0.676089 0.823912 0.000000
O O8 0.248879 0.324245 0.754885
O O9 0.236830 0.263170 0.000000
O O10 0.548443 0.444617 0.234344
O O11 0.493612 0.407749 0.000000
O O12 0.350421 0.008882 0.753661
O O13 0.312299 0.055789 0.000000
O O14 0.879618 0.734196 0.500000
O O15 0.909024 0.682608 0.246967
O O16 0.921415 0.578586 0.241035
O O17 0.864282 0.550789 0.000000
#
# Coordination Sequence:
#
# PCOD9563998 Si02
#       7
#    16   8   8  16  16  16  16
#     4  10  21  35  53  80 110 139 175 217 267 323
#     4   9  20  37  54  73 102 144 185 219 257 308
#     4  11  21  33  51  74 101 135 179 224 264 309
#     4   9  19  36  56  77 102 135 176 219 263 313
#     4   9  18  35  55  74 102 140 179 216 259 313
#     4  10  20  33  49  74 106 136 167 210 264 316
#     4   9  16  28  51  80 104 128 163 210 258 306
#
# _framework density 18.374669999999998
#
# number of rings (size 3 to 8) (size 9 to 14) (size 15 to 20)
#    0.000    2.500    0.833    1.750    0.000    4.000 
#    0.000    8.333    0.000    2.500    0.000    0.000 
#    0.000    5.333    0.000    0.000    0.000    0.000 
#
# Total GULP energy -535308.776063 kJ/mol
# GULP energy per Si atom -5576.133084 kJ/mol
# Density = 1.833285 g / cm^3
# Si number density = 18.374670 Si / 1000 Ang^3
#
#
#
# Elastic Constant Matrix: (Units=GPa)
#
#
# Indices 1 2 3 4 5 6 
#
# 1 111.2859 56.2128 8.9349 0.0000 0.0000 0.0000
# 2 56.2128 111.2866 8.9352 0.0000 0.0000 0.0000
# 3 8.9349 8.9352 6.6208 0.0000 0.0000 0.0000
# 4 0.0000 0.0000 0.0000 9.4754 0.0000 0.0000
# 5 0.0000 0.0000 0.0000 0.0000 9.4754 0.0000
# 6 0.0000 0.0000 0.0000 0.0000 0.0000 16.9791
#
#
#
# Elastic Compliance Matrix: (Units=1/GPa)
#
#
# Indices 1 2 3 4 5 6 
#
# 1 0.012566 -0.005592 -0.009412 0.000000 0.000000 0.000000
# 2 -0.005592 0.012566 -0.009413 0.000000 0.000000 0.000000
# 3 -0.009412 -0.009413 0.176445 0.000000 0.000000 0.000000
# 4 0.000000 0.000000 0.000000 0.105537 0.000000 0.000000
# 5 0.000000 0.000000 0.000000 0.000000 0.105536 0.000000
# 6 0.000000 0.000000 0.000000 0.000000 0.000000 0.058896
#
#
# Mechanical properties :
#
#
# Convention : Reuss Voigt Hill
#
# Bulk Modulus (GPa) = 6.54688 41.92881 24.23785
# Shear Modulus (GPa) = 8.75207 17.52667 13.13937
#
# Velocity S-wave (km/s) = 2.18482 3.09180 2.67700
# Velocity P-wave (km/s) = 3.15204 5.96774 4.77228
#
# Compressibility (1/GPa) = 0.15274461
#
# Stress axis : x y z
#
# Youngs Moduli (GPa) = 79.58008 79.57998 5.66749
#
# Poissons Ratio (x) = 0.44498 0.05334
# Poissons Ratio (y) = 0.44498 0.05335
# Poissons Ratio (z) = 0.74900 0.74906
#
# Static dielectric constant tensor:
#      x y z
#    x 1.626930 0.000000 0.000000 
#    y 0.000000 1.626930 0.000000 
#    z 0.000000 0.000000 1.625600 
# 
# From -- ./inp_files/2084.got.cif
#   From: 2010.05.17/outbox.cif.g08.bks.cpg/sg127_2_cif.got.tgz:2084.got - 2010.05.20 12:03:00.
