data_PCOD9563583
_publ_section_title
;
Structure prediction by ZEFSAII (Michael W. Deem and Ramdas Pophale) SiO2 
 PCOD9563583
Probable space group: P 4/N N C
;
_chemical_formula_sum "Si O2"
_cell_formula_units_Z 64
_cell_length_a 14.599656
_cell_length_b 14.599656
_cell_length_c 13.766163
_cell_angle_alpha 90.000000
_cell_angle_beta 90.000000
_cell_angle_gamma 90.000000
_cell_volume 2934.257028
_symmetry_space_group_name_H-M "P 4/N N C"
_symmetry_group_IT_number 126
_space_group.IT_coordinate_system_code '2'
_symmetry_cell_setting 'tetragonal'
loop_
_space_group_symop_operation_xyz
x,y,z
1/2-y,x,z
1/2-x,1/2-y,z
y,1/2-x,z
x,1/2-y,1/2-z
1/2-x,y,1/2-z
y,x,1/2-z
1/2-y,1/2-x,1/2-z
-x,-y,-z
1/2+y,-x,-z
1/2+x,1/2+y,-z
-y,1/2+x,-z
-x,1/2+y,1/2+z
1/2+x,-y,1/2+z
-y,-x,1/2+z
1/2+y,1/2+x,1/2+z
loop_
_atom_site_type_symbol
_atom_site_label
_atom_site_fract_x
_atom_site_fract_y
_atom_site_fract_z
Si Si1 0.373548 0.045091 0.053907
Si Si2 0.854394 0.150827 0.482395
Si Si3 0.014568 0.191615 0.348581
Si Si4 0.860525 0.858904 0.143711
O O1 0.426902 0.099813 0.137142
O O2 0.265835 0.056899 0.076265
O O3 0.397690 0.088006 0.949540
O O4 0.387446 0.936413 0.043666
O O5 0.746974 0.136781 0.461242
O O6 0.914072 0.164950 0.386307
O O7 0.012792 0.250000 0.250000
O O8 0.751321 0.874194 0.139883
O O9 0.892371 0.892371 0.250000
#
# Coordination Sequence:
#
# PCOD9563583 Si02
#       4
#    16  16  16  16
#     4  11  20  38  65  96 134 175 213 274 341 401
#     4   9  21  43  66  86 120 179 234 281 325 382
#     4  11  23  39  64  99 137 175 220 275 341 415
#     4   9  17  32  56  90 129 165 208 259 324 392
#
# _framework density 21.811313999999999
#
# number of rings (size 3 to 8) (size 9 to 14) (size 15 to 20)
#    0.000    2.000    2.500    2.250    0.000    0.500 
#    0.000   18.750    5.500    0.000    0.000    0.000 
#    0.000    0.000    0.000    0.000    0.000    0.000 
#
# Total GULP energy -357076.872059 kJ/mol
# GULP energy per Si atom -5579.326126 kJ/mol
# Density = 2.176167 g / cm^3
# Si number density = 21.811314 Si / 1000 Ang^3
#
#
#
# Elastic Constant Matrix: (Units=GPa)
#
#
# Indices 1 2 3 4 5 6 
#
# 1 115.3068 71.1150 50.1350 0.0000 0.0000 0.0000
# 2 71.1150 115.3068 50.1350 0.0000 0.0000 0.0000
# 3 50.1350 50.1350 123.4172 0.0000 0.0000 0.0000
# 4 0.0000 0.0000 0.0000 21.6447 0.0000 0.0000
# 5 0.0000 0.0000 0.0000 0.0000 21.6447 0.0000
# 6 0.0000 0.0000 0.0000 0.0000 0.0000 17.8511
#
#
#
# Elastic Compliance Matrix: (Units=1/GPa)
#
#
# Indices 1 2 3 4 5 6 
#
# 1 0.014746 -0.007882 -0.002788 0.000000 0.000000 0.000000
# 2 -0.007882 0.014746 -0.002788 0.000000 0.000000 0.000000
# 3 -0.002788 -0.002788 0.010368 0.000000 0.000000 0.000000
# 4 0.000000 0.000000 0.000000 0.046201 0.000000 0.000000
# 5 0.000000 0.000000 0.000000 0.000000 0.046201 0.000000
# 6 0.000000 0.000000 0.000000 0.000000 0.000000 0.056019
#
#
# Mechanical properties :
#
#
# Convention : Reuss Voigt Hill
#
# Bulk Modulus (GPa) = 77.26416 77.42231 77.34324
# Shear Modulus (GPa) = 22.77769 24.40447 23.59108
#
# Velocity S-wave (km/s) = 3.23508 3.34861 3.29233
# Velocity P-wave (km/s) = 7.03243 7.10805 7.07034
#
# Compressibility (1/GPa) = 0.01294261
#
# Stress axis : x y z
#
# Youngs Moduli (GPa) = 67.81382 67.81382 96.45120
#
# Poissons Ratio (x) = 0.53453 0.26893
# Poissons Ratio (y) = 0.53453 0.26893
# Poissons Ratio (z) = 0.18908 0.18908
#
# Static dielectric constant tensor:
#      x y z
#    x 1.812060 0.000000 0.000000 
#    y 0.000000 1.812060 0.000000 
#    z 0.000000 0.000000 1.821920 
# 
# From -- ./inp_files/3437.got.cif
#   From: 2010.05.17/outbox.cif.g08.bks.cpg/sg126_2_cif.got.tgz:3437.got - 2010.05.20 11:58:20.
