data_PCOD9563175
_publ_section_title
;
Structure prediction by ZEFSAII (Michael W. Deem and Ramdas Pophale) SiO2 
 PCOD9563175
Probable space group: P 4/N B M
;
_chemical_formula_sum "Si O2"
_cell_formula_units_Z 80
_cell_length_a 16.397443
_cell_length_b 16.397443
_cell_length_c 13.862909
_cell_angle_alpha 90.000000
_cell_angle_beta 90.000000
_cell_angle_gamma 90.000000
_cell_volume 3727.405419
_symmetry_space_group_name_H-M "P 4/N B M"
_symmetry_group_IT_number 125
_space_group.IT_coordinate_system_code '2'
_symmetry_cell_setting 'tetragonal'
loop_
_space_group_symop_operation_xyz
x,y,z
1/2-y,x,z
1/2-x,1/2-y,z
y,1/2-x,z
x,1/2-y,-z
1/2-x,y,-z
y,x,-z
1/2-y,1/2-x,-z
-x,-y,-z
1/2+y,-x,-z
1/2+x,1/2+y,-z
-y,1/2+x,-z
-x,1/2+y,z
1/2+x,-y,z
-y,-x,z
1/2+y,1/2+x,z
loop_
_atom_site_type_symbol
_atom_site_label
_atom_site_fract_x
_atom_site_fract_y
_atom_site_fract_z
Si Si1 0.596826 0.222767 0.607579
Si Si2 0.910782 0.544813 0.601786
Si Si3 0.201280 0.928016 0.204181
Si Si4 0.564194 0.925369 0.814883
Si Si5 0.668645 0.035103 0.934109
O O1 0.614230 0.250000 0.500000
O O2 0.676644 0.176644 0.646326
O O3 0.524283 0.157925 0.600325
O O4 0.570917 0.293528 0.680159
O O5 0.907475 0.592526 0.500000
O O6 0.901210 0.586464 0.706610
O O7 0.998537 0.498537 0.603126
O O8 0.152162 0.847839 0.174688
O O9 0.292185 0.930245 0.164666
O O10 0.151229 0.006068 0.166422
O O11 0.503759 0.003759 0.811009
O O12 0.627342 0.950713 0.898529
O O13 0.598283 0.098283 0.968631
O O14 0.750000 0.031215 0.000000
#
# Coordination Sequence:
#
# PCOD9563175 Si02
#       5
#    16  16  16  16  16
#     4  11  21  32  49  82 125 164 200 248 318 388
#     4   9  16  30  52  76 110 156 202 244 290 357
#     4  11  22  36  58  86 118 157 200 253 312 368
#     4   9  19  37  57  82 116 154 203 251 293 360
#     4  11  23  40  61  87 122 161 201 249 312 378
#
# _framework density 21.462651999999999
#
# number of rings (size 3 to 8) (size 9 to 14) (size 15 to 20)
#    0.000    1.800    2.000    3.000    0.000    7.600 
#    0.000    3.000    0.000    0.600    0.000    1.400 
#    0.000    0.000    0.000    0.000    0.000    0.000 
#
# Total GULP energy -446325.388191 kJ/mol
# GULP energy per Si atom -5579.067352 kJ/mol
# Density = 2.141380 g / cm^3
# Si number density = 21.462652 Si / 1000 Ang^3
#
#
#
# Elastic Constant Matrix: (Units=GPa)
#
#
# Indices 1 2 3 4 5 6 
#
# 1 83.8794 12.3901 26.5927 0.0000 0.0000 0.0000
# 2 12.3901 83.8797 26.5928 0.0000 0.0000 0.0000
# 3 26.5927 26.5928 111.3694 0.0000 0.0000 0.0000
# 4 0.0000 0.0000 0.0000 35.6558 0.0000 0.0000
# 5 0.0000 0.0000 0.0000 0.0000 35.6556 0.0000
# 6 0.0000 0.0000 0.0000 0.0000 0.0000 21.6646
#
#
#
# Elastic Compliance Matrix: (Units=1/GPa)
#
#
# Indices 1 2 3 4 5 6 
#
# 1 0.012977 -0.001011 -0.002857 0.000000 0.000000 0.000000
# 2 -0.001011 0.012977 -0.002857 0.000000 0.000000 0.000000
# 3 -0.002857 -0.002857 0.010344 0.000000 0.000000 0.000000
# 4 0.000000 0.000000 0.000000 0.028046 0.000000 0.000000
# 5 0.000000 0.000000 0.000000 0.000000 0.028046 0.000000
# 6 0.000000 0.000000 0.000000 0.000000 0.000000 0.046158
#
#
# Mechanical properties :
#
#
# Convention : Reuss Voigt Hill
#
# Bulk Modulus (GPa) = 43.77004 45.58665 44.67834
# Shear Modulus (GPa) = 31.32546 32.83207 32.07877
#
# Velocity S-wave (km/s) = 3.82453 3.91542 3.87024
# Velocity P-wave (km/s) = 6.31985 6.45963 6.39012
#
# Compressibility (1/GPa) = 0.02284668
#
# Stress axis : x y z
#
# Youngs Moduli (GPa) = 77.05904 77.05925 96.67783
#
# Poissons Ratio (x) = 0.07791 0.27623
# Poissons Ratio (y) = 0.07791 0.27623
# Poissons Ratio (z) = 0.22018 0.22018
#
# Static dielectric constant tensor:
#      x y z
#    x 1.769040 0.000000 0.000000 
#    y 0.000000 1.769040 0.000000 
#    z 0.000000 0.000000 1.895960 
# 
# From -- ./inp_files/4770.got.cif
#   From: 2010.05.17/outbox.cif.g08.bks.cpg/sg125_3_cif.got.tgz:4770.got - 2010.05.20 11:54:10.
