data_PCOD9563701
_publ_section_title
;
Structure prediction by ZEFSAII (Michael W. Deem and Ramdas Pophale) SiO2 
 PCOD9563701
Probable space group: P 4/N N C
;
_chemical_formula_sum "Si O2"
_cell_formula_units_Z 44
_cell_length_a 12.632445
_cell_length_b 12.632445
_cell_length_c 12.062898
_cell_angle_alpha 90.000000
_cell_angle_beta 90.000000
_cell_angle_gamma 90.000000
_cell_volume 1924.981179
_symmetry_space_group_name_H-M "P 4/N N C"
_symmetry_group_IT_number 126
_space_group.IT_coordinate_system_code '2'
_symmetry_cell_setting 'tetragonal'
loop_
_space_group_symop_operation_xyz
x,y,z
1/2-y,x,z
1/2-x,1/2-y,z
y,1/2-x,z
x,1/2-y,1/2-z
1/2-x,y,1/2-z
y,x,1/2-z
1/2-y,1/2-x,1/2-z
-x,-y,-z
1/2+y,-x,-z
1/2+x,1/2+y,-z
-y,1/2+x,-z
-x,1/2+y,1/2+z
1/2+x,-y,1/2+z
-y,-x,1/2+z
1/2+y,1/2+x,1/2+z
loop_
_atom_site_type_symbol
_atom_site_label
_atom_site_fract_x
_atom_site_fract_y
_atom_site_fract_z
Si Si1 0.688407 0.077131 0.854968
Si Si2 0.250000 0.750000 0.000000
Si Si3 0.818330 0.912985 0.462031
Si Si4 0.968590 0.250000 0.750000
O O1 0.750000 0.030351 0.750000
O O2 0.771175 0.148905 0.924489
O O3 0.603650 0.163693 0.813705
O O4 0.646647 0.992198 0.941306
O O5 0.694478 0.883188 0.474650
O O6 0.816308 0.963563 0.339558
#
# Coordination Sequence:
#
# PCOD9563701 Si02
#       4
#    16   4  16   8
#     4  12  22  41  72 104 139 181 233 296 354 405
#     4  12  18  44  64 102 148 182 224 304 354 396
#     4  11  27  50  70  99 148 193 230 282 353 426
#     4  12  23  43  76 102 138 182 246 298 344 406
#
# _framework density 22.857364
#
# number of rings (size 3 to 8) (size 9 to 14) (size 15 to 20)
#    0.000    0.364    7.273    1.091    0.000    4.364 
#    6.545    1.818    0.000    0.000    0.000    0.000 
#    0.000    0.000    0.000    0.000    0.000    0.000 
#
# Total GULP energy -246154.213894 kJ/mol
# GULP energy per Si atom -5594.413952 kJ/mol
# Density = 2.280534 g / cm^3
# Si number density = 22.857364 Si / 1000 Ang^3
#
#
#
# Elastic Constant Matrix: (Units=GPa)
#
#
# Indices 1 2 3 4 5 6 
#
# 1 79.7079 10.6608 31.7867 0.0000 0.0000 0.0000
# 2 10.6608 79.7079 31.7867 0.0000 0.0000 0.0000
# 3 31.7867 31.7867 132.1342 0.0000 0.0000 0.0000
# 4 0.0000 0.0000 0.0000 27.1607 0.0000 0.0000
# 5 0.0000 0.0000 0.0000 0.0000 27.1607 0.0000
# 6 0.0000 0.0000 0.0000 0.0000 0.0000 -0.7339
#
#
#
# Elastic Compliance Matrix: (Units=1/GPa)
#
#
# Indices 1 2 3 4 5 6 
#
# 1 0.013901 -0.000581 -0.003204 0.000000 0.000000 0.000000
# 2 -0.000581 0.013901 -0.003204 0.000000 0.000000 0.000000
# 3 -0.003204 -0.003204 0.009110 0.000000 0.000000 0.000000
# 4 0.000000 0.000000 0.000000 0.036818 0.000000 0.000000
# 5 0.000000 0.000000 0.000000 0.000000 0.036818 0.000000
# 6 0.000000 0.000000 0.000000 0.000000 0.000000 -1.362552
#
#
# Mechanical properties :
#
#
# Convention : Reuss Voigt Hill
#
# Bulk Modulus (GPa) = 43.60631 48.89096 46.24864
# Shear Modulus (GPa) = -4.06379 25.20520 10.57071
#
# Velocity S-wave (km/s) = -1.33482 3.32432 2.15283
# Velocity P-wave (km/s) = 4.09186 6.01422 5.14364
#
# Compressibility (1/GPa) = 0.02293246
#
# Stress axis : x y z
#
# Youngs Moduli (GPa) = 71.93514 71.93514 109.77261
#
# Poissons Ratio (x) = 0.04183 0.35174
# Poissons Ratio (y) = 0.04183 0.35174
# Poissons Ratio (z) = 0.23050 0.23050
#
# Static dielectric constant tensor:
#      x y z
#    x 1.849790 0.000000 0.000000 
#    y 0.000000 1.849790 0.000000 
#    z 0.000000 0.000000 1.881850 
# 
# From -- ./inp_files/2263.got.cif
#   From: 2010.05.17/outbox.cif.g08.bks.cpg/sg126_2_cif.got.tgz:2263.got - 2010.05.20 11:58:20.
