data_PCOD9563100
_publ_section_title
;
Structure prediction by ZEFSAII (Michael W. Deem and Ramdas Pophale) SiO2 
 PCOD9563100
Probable space group: P 4/N B M
;
_chemical_formula_sum "Si O2"
_cell_formula_units_Z 56
_cell_length_a 13.559175
_cell_length_b 13.559175
_cell_length_c 15.193779
_cell_angle_alpha 90.000000
_cell_angle_beta 90.000000
_cell_angle_gamma 90.000000
_cell_volume 2793.394907
_symmetry_space_group_name_H-M "P 4/N B M"
_symmetry_group_IT_number 125
_space_group.IT_coordinate_system_code '2'
_symmetry_cell_setting 'tetragonal'
loop_
_space_group_symop_operation_xyz
x,y,z
1/2-y,x,z
1/2-x,1/2-y,z
y,1/2-x,z
x,1/2-y,-z
1/2-x,y,-z
y,x,-z
1/2-y,1/2-x,-z
-x,-y,-z
1/2+y,-x,-z
1/2+x,1/2+y,-z
-y,1/2+x,-z
-x,1/2+y,z
1/2+x,-y,z
-y,-x,z
1/2+y,1/2+x,z
loop_
_atom_site_type_symbol
_atom_site_label
_atom_site_fract_x
_atom_site_fract_y
_atom_site_fract_z
Si Si1 0.899704 0.693025 0.185616
Si Si2 0.055794 0.555794 0.578058
Si Si3 0.528896 0.028896 0.757410
Si Si4 0.250000 0.597879 0.500000
Si Si5 0.533927 0.750000 0.000000
Si Si6 0.437453 0.562548 0.070150
O O1 0.873150 0.804728 0.211051
O O2 0.907372 0.695363 0.078576
O O3 0.996181 0.641987 0.226289
O O4 0.174475 0.541586 0.563604
O O5 0.000000 0.500000 0.500000
O O6 0.012093 0.512093 0.666357
O O7 0.471671 0.971671 0.834952
O O8 0.171750 0.671750 0.452139
O O9 0.465149 0.674051 0.051640
O O10 0.500000 0.500000 0.000000
#
# Coordination Sequence:
#
# PCOD9563100 Si02
#       6
#    16   8   8   8   8   8
#     4  11  22  37  61  90 120 170 219 251 304 379
#     4  10  21  39  70  94 122 160 202 266 320 375
#     4  12  24  39  59  98 128 155 212 276 315 366
#     4   7  16  42  68  91 114 163 214 238 302 413
#     4  12  20  40  64  82 128 176 210 268 316 374
#     4  12  22  39  59  88 127 165 215 267 318 381
#
# _framework density 20.047291999999999
#
# number of rings (size 3 to 8) (size 9 to 14) (size 15 to 20)
#    0.857    0.429    5.714    0.857    0.000    3.714 
#    0.000    0.000    6.286    0.429    0.000    0.000 
#    0.000    0.000    0.000    0.000    0.000    0.000 
#
# Total GULP energy -311912.503253 kJ/mol
# GULP energy per Si atom -5569.866130 kJ/mol
# Density = 2.000166 g / cm^3
# Si number density = 20.047292 Si / 1000 Ang^3
#
#
#
# Elastic Constant Matrix: (Units=GPa)
#
#
# Indices 1 2 3 4 5 6 
#
# 1 72.0897 36.6166 15.6689 0.0000 0.0000 0.0000
# 2 36.6166 72.0897 15.6689 0.0000 0.0000 0.0000
# 3 15.6689 15.6689 107.7198 0.0000 0.0000 0.0000
# 4 0.0000 0.0000 0.0000 21.2022 0.0000 0.0000
# 5 0.0000 0.0000 0.0000 0.0000 21.2022 0.0000
# 6 0.0000 0.0000 0.0000 0.0000 0.0000 35.7367
#
#
#
# Elastic Compliance Matrix: (Units=1/GPa)
#
#
# Indices 1 2 3 4 5 6 
#
# 1 0.018896 -0.009294 -0.001397 0.000000 0.000000 0.000000
# 2 -0.009294 0.018896 -0.001397 0.000000 0.000000 0.000000
# 3 -0.001397 -0.001397 0.009690 0.000000 0.000000 0.000000
# 4 0.000000 0.000000 0.000000 0.047165 0.000000 0.000000
# 5 0.000000 0.000000 0.000000 0.000000 0.047165 0.000000
# 6 0.000000 0.000000 0.000000 0.000000 0.000000 0.027982
#
#
# Mechanical properties :
#
#
# Convention : Reuss Voigt Hill
#
# Bulk Modulus (GPa) = 42.90656 43.08977 42.99816
# Shear Modulus (GPa) = 24.78458 27.89119 26.33788
#
# Velocity S-wave (km/s) = 3.51993 3.73402 3.62855
# Velocity P-wave (km/s) = 6.16190 6.33492 6.24901
#
# Compressibility (1/GPa) = 0.02330646
#
# Stress axis : x y z
#
# Youngs Moduli (GPa) = 52.92103 52.92103 103.20280
#
# Poissons Ratio (x) = 0.49187 0.14414
# Poissons Ratio (y) = 0.49187 0.14414
# Poissons Ratio (z) = 0.07391 0.07391
#
# Static dielectric constant tensor:
#      x y z
#    x 1.767720 0.000000 0.000000 
#    y 0.000000 1.767720 0.000000 
#    z 0.000000 0.000000 1.662600 
# 
# From -- ./inp_files/4591.got.cif
#   From: 2010.05.17/outbox.cif.g08.bks.cpg/sg125_3_cif.got.tgz:4591.got - 2010.05.20 11:54:10.
