data_PCOD9563063
_publ_section_title
;
Structure prediction by ZEFSAII (Michael W. Deem and Ramdas Pophale) SiO2 
 PCOD9563063
Probable space group: P 4/N B M
;
_chemical_formula_sum "Si O2"
_cell_formula_units_Z 96
_cell_length_a 16.260413
_cell_length_b 16.260413
_cell_length_c 19.621869
_cell_angle_alpha 90.000000
_cell_angle_beta 90.000000
_cell_angle_gamma 90.000000
_cell_volume 5188.042392
_symmetry_space_group_name_H-M "P 4/N B M"
_symmetry_group_IT_number 125
_space_group.IT_coordinate_system_code '2'
_symmetry_cell_setting 'tetragonal'
loop_
_space_group_symop_operation_xyz
x,y,z
1/2-y,x,z
1/2-x,1/2-y,z
y,1/2-x,z
x,1/2-y,-z
1/2-x,y,-z
y,x,-z
1/2-y,1/2-x,-z
-x,-y,-z
1/2+y,-x,-z
1/2+x,1/2+y,-z
-y,1/2+x,-z
-x,1/2+y,z
1/2+x,-y,z
-y,-x,z
1/2+y,1/2+x,z
loop_
_atom_site_type_symbol
_atom_site_label
_atom_site_fract_x
_atom_site_fract_y
_atom_site_fract_z
Si Si1 0.455367 0.820342 0.179444
Si Si2 0.862040 0.494182 0.189340
Si Si3 0.527092 0.161895 0.980443
Si Si4 0.046887 0.085936 0.298943
Si Si5 0.841213 0.854417 0.423835
Si Si6 0.873731 0.685061 0.918436
O O1 0.372264 0.872264 0.187833
O O2 0.444892 0.722896 0.186077
O O3 0.484500 0.839296 0.101576
O O4 0.517323 0.852464 0.238208
O O5 0.888976 0.523676 0.263541
O O6 0.841310 0.577872 0.148986
O O7 0.938511 0.438511 0.162901
O O8 0.586021 0.086021 0.997596
O O9 0.445136 0.162396 0.026671
O O10 0.567023 0.250000 0.000000
O O11 0.089818 0.124027 0.364026
O O12 0.966616 0.033384 0.317807
O O13 0.742501 0.860818 0.417882
O O14 0.873647 0.873647 0.500000
O O15 0.853572 0.782615 0.921873
#
# Coordination Sequence:
#
# PCOD9563063 Si02
#       6
#    16  16  16  16  16  16
#     4  10  22  39  58  82 112 148 191 242 300 357
#     4  11  22  38  61  84 109 147 194 241 294 354
#     4  11  24  43  65  85 111 151 198 251 309 369
#     4  10  21  36  57  85 117 150 189 237 285 344
#     4   9  18  34  58  87 119 155 189 224 273 335
#     4  11  25  43  60  82 114 148 190 245 303 363
#
# _framework density 18.504089
#
# number of rings (size 3 to 8) (size 9 to 14) (size 15 to 20)
#    0.000    1.667    1.667    3.000    0.000    2.833 
#    0.000    6.667    0.000    0.000    0.000    0.000 
#    0.000    0.000    0.000   31.000    0.000    0.167 
#
# Total GULP energy -535395.215593 kJ/mol
# GULP energy per Si atom -5577.033496 kJ/mol
# Density = 1.846197 g / cm^3
# Si number density = 18.504089 Si / 1000 Ang^3
#
#
#
# Elastic Constant Matrix: (Units=GPa)
#
#
# Indices 1 2 3 4 5 6 
#
# 1 112.6166 68.6648 57.4887 0.0000 0.0000 0.0000
# 2 68.6648 112.6166 57.4887 0.0000 0.0000 0.0000
# 3 57.4887 57.4887 144.8751 0.0000 0.0000 0.0000
# 4 0.0000 0.0000 0.0000 32.1766 0.0000 0.0000
# 5 0.0000 0.0000 0.0000 0.0000 32.1766 0.0000
# 6 0.0000 0.0000 0.0000 0.0000 0.0000 38.2719
#
#
#
# Elastic Compliance Matrix: (Units=1/GPa)
#
#
# Indices 1 2 3 4 5 6 
#
# 1 0.015062 -0.007690 -0.002925 0.000000 0.000000 0.000000
# 2 -0.007690 0.015062 -0.002925 0.000000 0.000000 0.000000
# 3 -0.002925 -0.002925 0.009224 0.000000 0.000000 0.000000
# 4 0.000000 0.000000 0.000000 0.031078 0.000000 0.000000
# 5 0.000000 0.000000 0.000000 0.000000 0.031078 0.000000
# 6 0.000000 0.000000 0.000000 0.000000 0.000000 0.026129
#
#
# Mechanical properties :
#
#
# Convention : Reuss Voigt Hill
#
# Bulk Modulus (GPa) = 81.52280 81.93251 81.72766
# Shear Modulus (GPa) = 31.48544 32.95611 32.22078
#
# Velocity S-wave (km/s) = 4.12945 4.22479 4.17739
# Velocity P-wave (km/s) = 8.17855 8.25667 8.21771
#
# Compressibility (1/GPa) = 0.01226651
#
# Stress axis : x y z
#
# Youngs Moduli (GPa) = 66.39276 66.39276 108.41295
#
# Poissons Ratio (x) = 0.51058 0.31712
# Poissons Ratio (y) = 0.51058 0.31712
# Poissons Ratio (z) = 0.19421 0.19421
#
# Static dielectric constant tensor:
#      x y z
#    x 1.684780 0.000000 0.000000 
#    y 0.000000 1.684780 0.000000 
#    z 0.000000 0.000000 1.659340 
# 
# From -- ./inp_files/5926.got.cif
#   From: 2010.05.17/outbox.cif.g08.bks.cpg/sg125_3_cif.got.tgz:5926.got - 2010.05.20 11:54:10.
