data_PCOD9563478
_publ_section_title
;
Structure prediction by ZEFSAII (Michael W. Deem and Ramdas Pophale) SiO2 
 PCOD9563478
Probable space group: P 4/N N C
;
_chemical_formula_sum "Si O2"
_cell_formula_units_Z 116
_cell_length_a 18.584653
_cell_length_b 18.584653
_cell_length_c 17.541881
_cell_angle_alpha 90.000000
_cell_angle_beta 90.000000
_cell_angle_gamma 90.000000
_cell_volume 6058.778475
_symmetry_space_group_name_H-M "P 4/N N C"
_symmetry_group_IT_number 126
_space_group.IT_coordinate_system_code '2'
_symmetry_cell_setting 'tetragonal'
loop_
_space_group_symop_operation_xyz
x,y,z
1/2-y,x,z
1/2-x,1/2-y,z
y,1/2-x,z
x,1/2-y,1/2-z
1/2-x,y,1/2-z
y,x,1/2-z
1/2-y,1/2-x,1/2-z
-x,-y,-z
1/2+y,-x,-z
1/2+x,1/2+y,-z
-y,1/2+x,-z
-x,1/2+y,1/2+z
1/2+x,-y,1/2+z
-y,-x,1/2+z
1/2+y,1/2+x,1/2+z
loop_
_atom_site_type_symbol
_atom_site_label
_atom_site_fract_x
_atom_site_fract_y
_atom_site_fract_z
Si Si1 0.311261 0.965758 0.356036
Si Si2 0.005339 0.647125 0.689558
Si Si3 0.604050 0.560739 0.463638
Si Si4 0.157203 0.324988 0.659444
Si Si5 0.250000 0.250000 0.369116
Si Si6 0.875304 0.858668 0.613982
Si Si7 0.572876 0.065778 0.444644
Si Si8 0.354076 0.807972 0.988989
O O1 0.226093 0.973861 0.341257
O O2 0.352569 0.965325 0.275258
O O3 0.320091 0.897416 0.410411
O O4 0.338522 0.040635 0.391188
O O5 0.037996 0.585870 0.635878
O O6 0.919719 0.639302 0.677438
O O7 0.637026 0.593310 0.386731
O O8 0.641268 0.605123 0.532322
O O9 0.518535 0.573928 0.459494
O O10 0.605408 0.477468 0.491329
O O11 0.152729 0.239658 0.639955
O O12 0.157396 0.342605 0.750000
O O13 0.170111 0.212186 0.370098
O O14 0.651909 0.097779 0.448882
O O15 0.343276 0.724513 0.007625
#
# Coordination Sequence:
#
# PCOD9563478 Si02
#       8
#    16  16  16  16   4  16  16  16
#     4  11  21  40  62  88 121 166 199 244 315 372
#     4  10  22  39  62  85 126 163 199 247 308 380
#     4  10  22  36  63  86 118 163 205 253 307 371
#     4   9  20  38  59  88 128 169 206 249 305 364
#     4  12  24  32  53 100 133 156 212 246 284 372
#     4  11  22  37  57  93 128 165 203 244 296 370
#     4  10  21  42  59  90 118 150 207 263 310 370
#     4  11  23  41  66  88 112 155 207 265 320 365
#
# _framework density 19.145772999999998
#
# number of rings (size 3 to 8) (size 9 to 14) (size 15 to 20)
#    0.000    1.655    4.138    0.828    1.931    1.103 
#    2.483    2.069    0.000    0.000    0.000    0.000 
#    0.000    0.000    0.000    0.000    0.000    0.000 
#
# Total GULP energy -645822.251718 kJ/mol
# GULP energy per Si atom -5567.433204 kJ/mol
# Density = 1.910220 g / cm^3
# Si number density = 19.145773 Si / 1000 Ang^3
#
#
#
# Elastic Constant Matrix: (Units=GPa)
#
#
# Indices 1 2 3 4 5 6 
#
# 1 62.9797 44.2083 37.2586 0.0000 0.0000 0.0000
# 2 44.2083 62.9797 37.2588 0.0000 0.0000 0.0000
# 3 37.2586 37.2588 76.0341 0.0000 0.0000 0.0000
# 4 0.0000 0.0000 0.0000 11.3110 0.0000 0.0000
# 5 0.0000 0.0000 0.0000 0.0000 11.3110 0.0000
# 6 0.0000 0.0000 0.0000 0.0000 0.0000 39.3767
#
#
#
# Elastic Compliance Matrix: (Units=1/GPa)
#
#
# Indices 1 2 3 4 5 6 
#
# 1 0.033711 -0.019561 -0.006934 0.000000 0.000000 0.000000
# 2 -0.019561 0.033711 -0.006934 0.000000 0.000000 0.000000
# 3 -0.006934 -0.006934 0.019947 0.000000 0.000000 0.000000
# 4 0.000000 0.000000 0.000000 0.088410 0.000000 0.000000
# 5 0.000000 0.000000 0.000000 0.000000 0.088409 0.000000
# 6 0.000000 0.000000 0.000000 0.000000 0.000000 0.025396
#
#
# Mechanical properties :
#
#
# Convention : Reuss Voigt Hill
#
# Bulk Modulus (GPa) = 48.75209 48.82722 48.78965
# Shear Modulus (GPa) = 13.76350 17.95093 15.85721
#
# Velocity S-wave (km/s) = 2.68410 3.06533 2.88103
# Velocity P-wave (km/s) = 5.92662 6.17143 6.05026
#
# Compressibility (1/GPa) = 0.02051194
#
# Stress axis : x y z
#
# Youngs Moduli (GPa) = 29.66380 29.66372 50.13171
#
# Poissons Ratio (x) = 0.58026 0.34760
# Poissons Ratio (y) = 0.58027 0.34760
# Poissons Ratio (z) = 0.20568 0.20568
#
# Static dielectric constant tensor:
#      x y z
#    x 1.677180 0.000000 0.000000 
#    y 0.000000 1.677180 0.000000 
#    z 0.000000 0.000000 1.708620 
# 
# From -- ./inp_files/4634.got.cif
#   From: 2010.05.17/outbox.cif.g08.bks.cpg/sg126_3_cif.got.tgz:4634.got - 2010.05.20 11:58:20.
