data_PCOD9563170
_publ_section_title
;
Structure prediction by ZEFSAII (Michael W. Deem and Ramdas Pophale) SiO2 
 PCOD9563170
Probable space group: P 4/N B M
;
_chemical_formula_sum "Si O2"
_cell_formula_units_Z 112
_cell_length_a 15.740441
_cell_length_b 15.740441
_cell_length_c 22.784781
_cell_angle_alpha 90.000000
_cell_angle_beta 90.000000
_cell_angle_gamma 90.000000
_cell_volume 5645.191128
_symmetry_space_group_name_H-M "P 4/N B M"
_symmetry_group_IT_number 125
_space_group.IT_coordinate_system_code '2'
_symmetry_cell_setting 'tetragonal'
loop_
_space_group_symop_operation_xyz
x,y,z
1/2-y,x,z
1/2-x,1/2-y,z
y,1/2-x,z
x,1/2-y,-z
1/2-x,y,-z
y,x,-z
1/2-y,1/2-x,-z
-x,-y,-z
1/2+y,-x,-z
1/2+x,1/2+y,-z
-y,1/2+x,-z
-x,1/2+y,z
1/2+x,-y,z
-y,-x,z
1/2+y,1/2+x,z
loop_
_atom_site_type_symbol
_atom_site_label
_atom_site_fract_x
_atom_site_fract_y
_atom_site_fract_z
Si Si1 0.876415 0.519163 0.831723
Si Si2 0.464298 0.821588 0.450526
Si Si3 0.135345 0.169300 0.410454
Si Si4 0.666334 0.862990 0.728833
Si Si5 0.255308 0.608881 0.202656
Si Si6 0.390051 0.755301 0.662889
Si Si7 0.145496 0.347696 0.933502
O O1 0.877930 0.569279 0.770240
O O2 0.786656 0.467165 0.833963
O O3 0.886022 0.586310 0.883799
O O4 0.950090 0.450090 0.833607
O O5 0.460345 0.750000 0.500000
O O6 0.388501 0.888501 0.458029
O O7 0.555407 0.866244 0.444960
O O8 0.452616 0.774331 0.387526
O O9 0.229562 0.137008 0.424046
O O10 0.123964 0.155568 0.340634
O O11 0.636235 0.767197 0.741885
O O12 0.343092 0.656909 0.185783
O O13 0.183708 0.683708 0.202631
O O14 0.263504 0.578259 0.270430
O O15 0.317225 0.682776 0.664873
O O16 0.342391 0.842391 0.646717
O O17 0.135376 0.245734 0.927124
O O18 0.124622 0.375379 0.000000
#
# Coordination Sequence:
#
# PCOD9563170 Si02
#       7
#    16  16  16  16  16  16  16
#     4  11  20  29  50  85 119 146 175 219 272 323
#     4  11  22  35  54  80 109 141 182 234 287 341
#     4   9  20  40  62  80 101 137 183 229 282 341
#     4   9  18  35  58  80 105 140 182 225 274 336
#     4   8  15  28  45  68 103 146 182 209 253 324
#     4   8  14  27  47  69  98 140 183 218 259 318
#     4   9  19  38  61  78  97 136 189 236 277 322
#
# _framework density 19.839894000000001
#
# number of rings (size 3 to 8) (size 9 to 14) (size 15 to 20)
#    0.000    2.714    0.000    4.286    0.000    4.429 
#    0.000    5.714    0.000    3.429    0.000    0.000 
#    0.000    0.000    0.000    0.000    0.000    0.000 
#
# Total GULP energy -625006.555886 kJ/mol
# GULP energy per Si atom -5580.415678 kJ/mol
# Density = 1.979474 g / cm^3
# Si number density = 19.839894 Si / 1000 Ang^3
#
#
#
# Elastic Constant Matrix: (Units=GPa)
#
#
# Indices 1 2 3 4 5 6 
#
# 1 61.3397 16.3096 40.8634 0.0000 0.0000 0.0000
# 2 16.3096 61.3396 40.8634 0.0000 0.0000 0.0000
# 3 40.8634 40.8634 60.2047 0.0000 0.0000 0.0000
# 4 0.0000 0.0000 0.0000 16.5955 0.0000 0.0000
# 5 0.0000 0.0000 0.0000 0.0000 16.5956 0.0000
# 6 0.0000 0.0000 0.0000 0.0000 0.0000 8.6814
#
#
#
# Elastic Compliance Matrix: (Units=1/GPa)
#
#
# Indices 1 2 3 4 5 6 
#
# 1 0.033649 0.011441 -0.030604 0.000000 0.000000 0.000000
# 2 0.011441 0.033649 -0.030604 0.000000 0.000000 0.000000
# 3 -0.030604 -0.030604 0.058155 0.000000 0.000000 0.000000
# 4 0.000000 0.000000 0.000000 0.060257 0.000000 0.000000
# 5 0.000000 0.000000 0.000000 0.000000 0.060257 0.000000
# 6 0.000000 0.000000 0.000000 0.000000 0.000000 0.115189
#
#
# Mechanical properties :
#
#
# Convention : Reuss Voigt Hill
#
# Bulk Modulus (GPa) = 38.58441 42.10633 40.34537
# Shear Modulus (GPa) = 10.65350 14.03100 12.34225
#
# Velocity S-wave (km/s) = 2.31978 2.66223 2.49688
# Velocity P-wave (km/s) = 5.16385 5.54248 5.35651
#
# Compressibility (1/GPa) = 0.02591721
#
# Stress axis : x y z
#
# Youngs Moduli (GPa) = 29.71888 29.71883 17.19545
#
# Poissons Ratio (x) = -0.34002 0.52626
# Poissons Ratio (y) = -0.34002 0.52626
# Poissons Ratio (z) = 0.90953 0.90953
#
# Static dielectric constant tensor:
#      x y z
#    x 1.717910 0.000000 0.000000 
#    y 0.000000 1.717910 0.000000 
#    z 0.000000 0.000000 1.692800 
# 
# From -- ./inp_files/6226.got.cif
#   From: 2010.05.17/outbox.cif.g08.bks.cpg/sg125_4_cif.got.tgz:6226.got - 2010.05.20 11:54:10.
