data_PCOD9563991
_publ_section_title
;
Structure prediction by ZEFSAII (Michael W. Deem and Ramdas Pophale) SiO2 
 PCOD9563991
Probable space group: P 4/M B M
;
_chemical_formula_sum "Si O2"
_cell_formula_units_Z 96
_cell_length_a 24.648013
_cell_length_b 24.648013
_cell_length_c 7.486252
_cell_angle_alpha 90.000000
_cell_angle_beta 90.000000
_cell_angle_gamma 90.000000
_cell_volume 4548.081839
_symmetry_space_group_name_H-M "P 4/M B M"
_symmetry_group_IT_number 127
_symmetry_cell_setting 'tetragonal'
loop_
_space_group_symop_operation_xyz
x,y,z
-y,x,z
-x,-y,z
y,-x,z
1/2+x,1/2-y,-z
1/2-x,1/2+y,-z
1/2+y,1/2+x,-z
1/2-y,1/2-x,-z
-x,-y,-z
y,-x,-z
x,y,-z
-y,x,-z
1/2-x,1/2+y,z
1/2+x,1/2-y,z
1/2-y,1/2-x,z
1/2+y,1/2+x,z
loop_
_atom_site_type_symbol
_atom_site_label
_atom_site_fract_x
_atom_site_fract_y
_atom_site_fract_z
Si Si1 0.777998 0.808055 0.218152
Si Si2 0.417050 0.527628 0.218186
Si Si3 0.927187 0.196381 0.792924
Si Si4 0.412529 0.999450 0.717944
Si Si5 0.780215 0.633258 0.784366
Si Si6 0.290546 0.991799 0.707031
O O1 0.724209 0.775792 0.277037
O O2 0.784629 0.869377 0.282692
O O3 0.829487 0.770804 0.268965
O O4 0.776227 0.808164 0.000000
O O5 0.433329 0.466663 0.272293
O O6 0.359101 0.548287 0.283992
O O7 0.416229 0.526601 0.000000
O O8 0.971218 0.243938 0.788362
O O9 0.915730 0.183617 0.000000
O O10 0.411445 0.998307 0.500000
O O11 0.448774 0.051227 0.769891
O O12 0.445979 0.945979 0.774205
O O13 0.351006 0.000547 0.782444
O O14 0.834354 0.665647 0.725996
O O15 0.777875 0.571949 0.720562
O O16 0.780772 0.631882 0.000000
O O17 0.292232 0.007353 0.500000
#
# Coordination Sequence:
#
# PCOD9563991 Si02
#       6
#    16  16  16  16  16  16
#     4   8  16  32  53  77 103 133 171 215 262 309
#     4   8  15  28  48  75  98 118 160 220 265 298
#     4  10  20  32  52  76 100 136 173 210 254 306
#     4   8  15  30  51  71  93 128 172 210 244 288
#     4   9  18  34  57  81 104 133 172 217 261 308
#     4  11  22  33  48  76 110 138 168 210 257 308
#
# _framework density 21.107799
#
# number of rings (size 3 to 8) (size 9 to 14) (size 15 to 20)
#    0.000    3.000    0.000    3.000    2.333    1.667 
#    0.000    0.833    0.000    2.500    0.000    7.000 
#    0.000    0.000    0.000    0.000    0.000    0.000 
#
# Total GULP energy -535814.741322 kJ/mol
# GULP energy per Si atom -5581.403555 kJ/mol
# Density = 2.105976 g / cm^3
# Si number density = 21.107799 Si / 1000 Ang^3
#
#
#
# Elastic Constant Matrix: (Units=GPa)
#
#
# Indices 1 2 3 4 5 6 
#
# 1 151.4949 144.5178 -3.6086 0.0000 0.0000 0.0000
# 2 144.5178 151.4949 -3.6086 0.0000 0.0000 0.0000
# 3 -3.6086 -3.6086 55.1209 0.0000 0.0000 0.0000
# 4 0.0000 0.0000 0.0000 -6.7042 0.0000 0.0000
# 5 0.0000 0.0000 0.0000 0.0000 -6.7042 0.0000
# 6 0.0000 0.0000 0.0000 0.0000 0.0000 15.6701
#
#
#
# Elastic Compliance Matrix: (Units=1/GPa)
#
#
# Indices 1 2 3 4 5 6 
#
# 1 0.073355 -0.069971 0.000222 0.000000 0.000000 0.000000
# 2 -0.069971 0.073355 0.000222 0.000000 0.000000 0.000000
# 3 0.000222 0.000222 0.018171 0.000000 0.000000 0.000000
# 4 0.000000 0.000000 0.000000 -0.149160 0.000000 0.000000
# 5 0.000000 0.000000 0.000000 0.000000 -0.149160 0.000000
# 6 0.000000 0.000000 0.000000 0.000000 0.000000 0.063816
#
#
# Mechanical properties :
#
#
# Convention : Reuss Voigt Hill
#
# Bulk Modulus (GPa) = 38.72322 70.30130 54.51226
# Shear Modulus (GPa) = 64.06837 15.17300 39.62068
#
# Velocity S-wave (km/s) = 5.51533 2.68402 4.33721
# Velocity P-wave (km/s) = 7.67748 6.55617 7.13888
#
# Compressibility (1/GPa) = 0.02582430
#
# Stress axis : x y z
#
# Youngs Moduli (GPa) = 13.63234 13.63234 55.03287
#
# Poissons Ratio (x) = 0.95387 -0.01219
# Poissons Ratio (y) = 0.95387 -0.01219
# Poissons Ratio (z) = -0.00302 -0.00302
#
# Static dielectric constant tensor:
#      x y z
#    x 1.730710 0.000000 0.000000 
#    y 0.000000 1.730710 0.000000 
#    z 0.000000 0.000000 1.833530 
# 
# From -- ./inp_files/1993.got.cif
#   From: 2010.05.17/outbox.cif.g08.bks.cpg/sg127_1_cif.got.tgz:1993.got - 2010.05.20 12:03:00.
