data_PCOD9563766
_publ_section_title
;
Structure prediction by ZEFSAII (Michael W. Deem and Ramdas Pophale) SiO2 
 PCOD9563766
Probable space group: P 4/M B M
;
_chemical_formula_sum "Si O2"
_cell_formula_units_Z 96
_cell_length_a 23.728644
_cell_length_b 23.728644
_cell_length_c 7.343750
_cell_angle_alpha 90.000000
_cell_angle_beta 90.000000
_cell_angle_gamma 90.000000
_cell_volume 4134.887760
_symmetry_space_group_name_H-M "P 4/M B M"
_symmetry_group_IT_number 127
_symmetry_cell_setting 'tetragonal'
loop_
_space_group_symop_operation_xyz
x,y,z
-y,x,z
-x,-y,z
y,-x,z
1/2+x,1/2-y,-z
1/2-x,1/2+y,-z
1/2+y,1/2+x,-z
1/2-y,1/2-x,-z
-x,-y,-z
y,-x,-z
x,y,-z
-y,x,-z
1/2-x,1/2+y,z
1/2+x,1/2-y,z
1/2-y,1/2-x,z
1/2+y,1/2+x,z
loop_
_atom_site_type_symbol
_atom_site_label
_atom_site_fract_x
_atom_site_fract_y
_atom_site_fract_z
Si Si1 0.500987 0.091137 0.721828
Si Si2 0.008277 0.281976 0.280083
Si Si3 0.279035 0.864827 0.282877
Si Si4 0.113166 0.875097 0.776029
Si Si5 0.725386 0.313100 0.205009
Si Si6 0.995146 0.842950 0.788805
O O1 0.502922 0.092531 0.500000
O O2 0.449723 0.050278 0.774047
O O3 0.491053 0.155514 0.781579
O O4 0.558488 0.058488 0.778057
O O5 0.006261 0.282735 0.500000
O O6 0.072584 0.275210 0.217457
O O7 0.984011 0.221949 0.223184
O O8 0.268405 0.863260 0.500000
O O9 0.341227 0.841227 0.253767
O O10 0.236106 0.821579 0.196153
O O11 0.139197 0.815078 0.710846
O O12 0.146067 0.931893 0.715065
O O13 0.048018 0.878584 0.718189
O O14 0.116238 0.872175 0.000000
O O15 0.780846 0.280846 0.284952
O O16 0.741385 0.330597 0.000000
O O17 0.989972 0.857709 0.000000
#
# Coordination Sequence:
#
# PCOD9563766 Si02
#       6
#    16  16  16  16  16  16
#     4   8  14  26  46  72 102 136 171 204 237 280
#     4  10  18  29  47  74 101 127 160 200 245 288
#     4   9  16  25  41  68  98 123 148 185 233 280
#     4   9  18  33  52  73  94 122 163 207 245 291
#     4   9  16  28  47  70  96 123 151 186 232 288
#     4  10  20  35  53  71  95 125 163 208 255 303
#
# _framework density 23.217075999999999
#
# number of rings (size 3 to 8) (size 9 to 14) (size 15 to 20)
#    0.000    2.833    1.667    1.000    0.000    2.333 
#    0.000    4.167    0.000    3.000    0.000    2.333 
#    0.000    0.000    0.000    0.000    0.000    0.000 
#
# Total GULP energy -534611.563245 kJ/mol
# GULP energy per Si atom -5568.870450 kJ/mol
# Density = 2.316423 g / cm^3
# Si number density = 23.217076 Si / 1000 Ang^3
#
#
#
# Elastic Constant Matrix: (Units=GPa)
#
#
# Indices 1 2 3 4 5 6 
#
# 1 90.5855 60.7189 -1.9406 0.0000 0.0000 0.0000
# 2 60.7189 90.5855 -1.9406 0.0000 0.0000 0.0000
# 3 -1.9406 -1.9406 81.0124 0.0000 0.0000 0.0000
# 4 0.0000 0.0000 0.0000 4.3400 0.0000 0.0000
# 5 0.0000 0.0000 0.0000 0.0000 4.3400 0.0000
# 6 0.0000 0.0000 0.0000 0.0000 0.0000 32.4430
#
#
#
# Elastic Compliance Matrix: (Units=1/GPa)
#
#
# Indices 1 2 3 4 5 6 
#
# 1 0.020048 -0.013434 0.000158 0.000000 0.000000 0.000000
# 2 -0.013434 0.020048 0.000158 0.000000 0.000000 0.000000
# 3 0.000158 0.000158 0.012351 0.000000 0.000000 0.000000
# 4 0.000000 0.000000 0.000000 0.230413 0.000000 0.000000
# 5 0.000000 0.000000 0.000000 0.000000 0.230413 0.000000
# 6 0.000000 0.000000 0.000000 0.000000 0.000000 0.030823
#
#
# Mechanical properties :
#
#
# Convention : Reuss Voigt Hill
#
# Bulk Modulus (GPa) = 38.15108 41.76206 39.95657
# Shear Modulus (GPa) = 8.63455 21.91434 15.27445
#
# Velocity S-wave (km/s) = 1.93058 3.07561 2.56773
# Velocity P-wave (km/s) = 4.63007 5.53527 5.10278
#
# Compressibility (1/GPa) = 0.02621158
#
# Stress axis : x y z
#
# Youngs Moduli (GPa) = 49.88108 49.88108 80.96258
#
# Poissons Ratio (x) = 0.67012 -0.01283
# Poissons Ratio (y) = 0.67012 -0.01283
# Poissons Ratio (z) = -0.00790 -0.00790
#
# Static dielectric constant tensor:
#      x y z
#    x 1.900910 0.000000 0.000000 
#    y 0.000000 1.900910 0.000000 
#    z 0.000000 0.000000 1.885040 
# 
# From -- ./inp_files/1969.got.cif
#   From: 2010.05.17/outbox.cif.g08.bks.cpg/sg127_1_cif.got.tgz:1969.got - 2010.05.20 12:03:00.
