data_PCOD9563329
_publ_section_title
;
Structure prediction by ZEFSAII (Michael W. Deem and Ramdas Pophale) SiO2 
 PCOD9563329
Probable space group: P 4/N N C
;
_chemical_formula_sum "Si O2"
_cell_formula_units_Z 68
_cell_length_a 17.141234
_cell_length_b 17.141234
_cell_length_c 12.869862
_cell_angle_alpha 90.000000
_cell_angle_beta 90.000000
_cell_angle_gamma 90.000000
_cell_volume 3781.447345
_symmetry_space_group_name_H-M "P 4/N N C"
_symmetry_group_IT_number 126
_space_group.IT_coordinate_system_code '2'
_symmetry_cell_setting 'tetragonal'
loop_
_space_group_symop_operation_xyz
x,y,z
1/2-y,x,z
1/2-x,1/2-y,z
y,1/2-x,z
x,1/2-y,1/2-z
1/2-x,y,1/2-z
y,x,1/2-z
1/2-y,1/2-x,1/2-z
-x,-y,-z
1/2+y,-x,-z
1/2+x,1/2+y,-z
-y,1/2+x,-z
-x,1/2+y,1/2+z
1/2+x,-y,1/2+z
-y,-x,1/2+z
1/2+y,1/2+x,1/2+z
loop_
_atom_site_type_symbol
_atom_site_label
_atom_site_fract_x
_atom_site_fract_y
_atom_site_fract_z
Si Si1 0.659703 0.962618 0.719195
Si Si2 0.405107 0.686029 0.082659
Si Si3 0.335746 0.973207 0.502911
Si Si4 0.907525 0.036286 0.224739
Si Si5 0.250000 0.750000 0.000000
O O1 0.750000 0.966148 0.750000
O O2 0.616455 0.883546 0.750000
O O3 0.650827 0.971367 0.594605
O O4 0.611955 0.034815 0.772056
O O5 0.460064 0.743215 0.017303
O O6 0.442328 0.659830 0.191690
O O7 0.381315 0.605516 0.029169
O O8 0.322922 0.732943 0.076167
O O9 0.369058 0.987812 0.616479
O O10 0.964923 0.964923 0.250000
#
# Coordination Sequence:
#
# PCOD9563329 Si02
#       5
#    16  16  16  16   4
#     4  10  22  37  55  76 100 133 175 219 261 305
#     4   9  18  32  51  76 107 140 175 210 259 313
#     4  10  19  34  54  76 107 139 169 213 258 306
#     4  10  21  34  52  79 108 141 176 209 254 315
#     4   8  16  32  50  76 108 142 174 220 264 306
#
# _framework density 17.982531999999999
#
# number of rings (size 3 to 8) (size 9 to 14) (size 15 to 20)
#    0.000    2.353    0.000    2.118    0.000   12.471 
#    0.000    7.059    0.000    0.000    0.000    0.000 
#    0.000    1.882    0.000    0.000    0.000    0.000 
#
# Total GULP energy -378614.754451 kJ/mol
# GULP energy per Si atom -5567.864036 kJ/mol
# Density = 1.794160 g / cm^3
# Si number density = 17.982532 Si / 1000 Ang^3
#
#
#
# Elastic Constant Matrix: (Units=GPa)
#
#
# Indices 1 2 3 4 5 6 
#
# 1 63.1355 46.4299 56.8085 0.0000 0.0000 0.0000
# 2 46.4299 63.1385 56.8099 0.0000 0.0000 0.0000
# 3 56.8085 56.8099 138.6295 0.0000 0.0000 0.0000
# 4 0.0000 0.0000 0.0000 11.2560 0.0000 0.0000
# 5 0.0000 0.0000 0.0000 0.0000 11.2561 0.0000
# 6 0.0000 0.0000 0.0000 0.0000 0.0000 8.9838
#
#
#
# Elastic Compliance Matrix: (Units=1/GPa)
#
#
# Indices 1 2 3 4 5 6 
#
# 1 0.037864 -0.021992 -0.006504 0.000000 0.000000 0.000000
# 2 -0.021992 0.037862 -0.006504 0.000000 0.000000 0.000000
# 3 -0.006504 -0.006504 0.012544 0.000000 0.000000 0.000000
# 4 0.000000 0.000000 0.000000 0.088841 0.000000 0.000000
# 5 0.000000 0.000000 0.000000 0.000000 0.088840 0.000000
# 6 0.000000 0.000000 0.000000 0.000000 0.000000 0.111311
#
#
# Mechanical properties :
#
#
# Convention : Reuss Voigt Hill
#
# Bulk Modulus (GPa) = 54.73202 65.00001 59.86601
# Shear Modulus (GPa) = 11.02895 13.28955 12.15925
#
# Velocity S-wave (km/s) = 2.47921 2.72145 2.60315
# Velocity P-wave (km/s) = 6.22074 6.78968 6.51142
#
# Compressibility (1/GPa) = 0.01827084
#
# Stress axis : x y z
#
# Youngs Moduli (GPa) = 26.41039 26.41160 79.71965
#
# Poissons Ratio (x) = 0.58084 0.51849
# Poissons Ratio (y) = 0.58081 0.51848
# Poissons Ratio (z) = 0.17177 0.17178
#
# Static dielectric constant tensor:
#      x y z
#    x 1.622070 0.000000 0.000000 
#    y 0.000000 1.622070 0.000000 
#    z 0.000000 0.000000 1.640640 
# 
# From -- ./inp_files/2648.got.cif
#   From: 2010.05.17/outbox.cif.g08.bks.cpg/sg126_2_cif.got.tgz:2648.got - 2010.05.20 11:58:20.
