data_PCOD9563792
_publ_section_title
;
Structure prediction by ZEFSAII (Michael W. Deem and Ramdas Pophale) SiO2 
 PCOD9563792
Probable space group: P 4/M B M
;
_chemical_formula_sum "Si O2"
_cell_formula_units_Z 96
_cell_length_a 17.874953
_cell_length_b 17.874953
_cell_length_c 18.589994
_cell_angle_alpha 90.000000
_cell_angle_beta 90.000000
_cell_angle_gamma 90.000000
_cell_volume 5939.762316
_symmetry_space_group_name_H-M "P 4/M B M"
_symmetry_group_IT_number 127
_symmetry_cell_setting 'tetragonal'
loop_
_space_group_symop_operation_xyz
x,y,z
-y,x,z
-x,-y,z
y,-x,z
1/2+x,1/2-y,-z
1/2-x,1/2+y,-z
1/2+y,1/2+x,-z
1/2-y,1/2-x,-z
-x,-y,-z
y,-x,-z
x,y,-z
-y,x,-z
1/2-x,1/2+y,z
1/2+x,1/2-y,z
1/2-y,1/2-x,z
1/2+y,1/2+x,z
loop_
_atom_site_type_symbol
_atom_site_label
_atom_site_fract_x
_atom_site_fract_y
_atom_site_fract_z
Si Si1 0.712994 0.662552 0.664408
Si Si2 0.321269 0.943370 0.585141
Si Si3 0.432104 0.276524 0.168629
Si Si4 0.593618 0.779481 0.669130
Si Si5 0.194795 0.897590 0.823833
Si Si6 0.831905 0.331905 0.081649
Si Si7 0.203387 0.296614 0.916642
O O1 0.771585 0.728415 0.683678
O O2 0.752346 0.611253 0.605304
O O3 0.638328 0.706187 0.639814
O O4 0.703412 0.615861 0.737949
O O5 0.325036 0.956341 0.500000
O O6 0.396335 0.896335 0.606415
O O7 0.306025 0.020453 0.626639
O O8 0.425559 0.245502 0.249903
O O9 0.376790 0.346752 0.157413
O O10 0.515535 0.305791 0.158111
O O11 0.401786 0.207840 0.120466
O O12 0.652512 0.847489 0.670190
O O13 0.262368 0.863503 0.870267
O O14 0.767618 0.267618 0.082668
O O15 0.850441 0.350441 0.000000
O O16 0.185941 0.314060 0.000000
#
# Coordination Sequence:
#
# PCOD9563792 Si02
#       7
#    16  16  16  16  16   8   8
#     4   9  17  32  53  75  99 132 175 219 253 301
#     4  10  21  35  52  76 105 136 171 216 270 319
#     4  10  19  32  53  80 105 137 173 211 260 310
#     4  10  19  33  54  77 101 133 176 215 258 311
#     4  10  18  31  53  78 106 135 172 215 258 307
#     4   9  18  34  54  77 106 135 171 215 253 300
#     4   9  18  32  52  77 102 136 176 211 251 303
#
# _framework density 16.162262999999999
#
# number of rings (size 3 to 8) (size 9 to 14) (size 15 to 20)
#    0.000    2.333    3.333    0.000    0.000    2.333 
#    0.000    2.500    0.000    1.000    0.000    7.000 
#    0.000    0.000    0.000    0.000    0.000    0.000 
#
# Total GULP energy -534442.433339 kJ/mol
# GULP energy per Si atom -5567.108681 kJ/mol
# Density = 1.612548 g / cm^3
# Si number density = 16.162263 Si / 1000 Ang^3
#
#
#
# Elastic Constant Matrix: (Units=GPa)
#
#
# Indices 1 2 3 4 5 6 
#
# 1 105.6589 62.5417 42.0067 0.0000 0.0000 0.0000
# 2 62.5417 105.6587 42.0067 0.0000 0.0000 0.0000
# 3 42.0067 42.0067 59.0463 0.0000 0.0000 0.0000
# 4 0.0000 0.0000 0.0000 14.8758 0.0000 0.0000
# 5 0.0000 0.0000 0.0000 0.0000 14.8758 0.0000
# 6 0.0000 0.0000 0.0000 0.0000 0.0000 15.9430
#
#
#
# Elastic Compliance Matrix: (Units=1/GPa)
#
#
# Indices 1 2 3 4 5 6 
#
# 1 0.016208 -0.006985 -0.006561 0.000000 0.000000 0.000000
# 2 -0.006985 0.016208 -0.006561 0.000000 0.000000 0.000000
# 3 -0.006561 -0.006561 0.026271 0.000000 0.000000 0.000000
# 4 0.000000 0.000000 0.000000 0.067223 0.000000 0.000000
# 5 0.000000 0.000000 0.000000 0.000000 0.067223 0.000000
# 6 0.000000 0.000000 0.000000 0.000000 0.000000 0.062723
#
#
# Mechanical properties :
#
#
# Convention : Reuss Voigt Hill
#
# Bulk Modulus (GPa) = 54.13623 62.60824 58.37224
# Shear Modulus (GPa) = 16.54383 17.39284 16.96833
#
# Velocity S-wave (km/s) = 3.20286 3.28401 3.24369
# Velocity P-wave (km/s) = 6.87357 7.29391 7.08685
#
# Compressibility (1/GPa) = 0.01847192
#
# Stress axis : x y z
#
# Youngs Moduli (GPa) = 61.69976 61.69963 38.06463
#
# Poissons Ratio (x) = 0.43098 0.24974
# Poissons Ratio (y) = 0.43098 0.24974
# Poissons Ratio (z) = 0.40481 0.40481
#
# Static dielectric constant tensor:
#      x y z
#    x 1.540910 0.000000 0.000000 
#    y 0.000000 1.540910 0.000000 
#    z 0.000000 0.000000 1.539190 
# 
# From -- ./inp_files/5143.got.cif
#   From: 2010.05.17/outbox.cif.g08.bks.cpg/sg127_3_cif.got.tgz:5143.got - 2010.05.20 12:03:00.
