data_PCOD9563588
_publ_section_title
;
Structure prediction by ZEFSAII (Michael W. Deem and Ramdas Pophale) SiO2 
 PCOD9563588
Probable space group: P 4/N N C
;
_chemical_formula_sum "Si O2"
_cell_formula_units_Z 100
_cell_length_a 14.402968
_cell_length_b 14.402968
_cell_length_c 22.132921
_cell_angle_alpha 90.000000
_cell_angle_beta 90.000000
_cell_angle_gamma 90.000000
_cell_volume 4591.374580
_symmetry_space_group_name_H-M "P 4/N N C"
_symmetry_group_IT_number 126
_space_group.IT_coordinate_system_code '2'
_symmetry_cell_setting 'tetragonal'
loop_
_space_group_symop_operation_xyz
x,y,z
1/2-y,x,z
1/2-x,1/2-y,z
y,1/2-x,z
x,1/2-y,1/2-z
1/2-x,y,1/2-z
y,x,1/2-z
1/2-y,1/2-x,1/2-z
-x,-y,-z
1/2+y,-x,-z
1/2+x,1/2+y,-z
-y,1/2+x,-z
-x,1/2+y,1/2+z
1/2+x,-y,1/2+z
-y,-x,1/2+z
1/2+y,1/2+x,1/2+z
loop_
_atom_site_type_symbol
_atom_site_label
_atom_site_fract_x
_atom_site_fract_y
_atom_site_fract_z
Si Si1 0.605421 0.306268 0.092886
Si Si2 0.047215 0.391945 0.685728
Si Si3 0.864097 0.645483 0.950003
Si Si4 0.750000 0.250000 0.000000
Si Si5 0.524140 0.118906 0.128760
Si Si6 0.992447 0.363709 0.526497
Si Si7 0.507490 0.296035 0.621915
O O1 0.666751 0.245825 0.046277
O O2 0.556648 0.226269 0.132322
O O3 0.664339 0.386620 0.126110
O O4 0.545607 0.359089 0.041955
O O5 0.094478 0.405523 0.750000
O O6 0.118822 0.438995 0.637948
O O7 0.021538 0.286660 0.668151
O O8 0.949163 0.446807 0.682310
O O9 0.875240 0.755464 0.951486
O O10 0.916908 0.616046 0.889378
O O11 0.900884 0.594837 0.010254
O O12 0.574344 0.068732 0.071096
O O13 0.994959 0.263012 0.559228
#
# Coordination Sequence:
#
# PCOD9563588 Si02
#       7
#    16  16  16   4  16  16  16
#     4  12  20  37  65 101 138 176 218 273 344 434
#     4  11  26  48  71  97 133 181 247 303 353 398
#     4  11  24  37  56  92 143 184 217 270 341 430
#     4  12  16  32  56  88 138 168 208 244 324 408
#     4  11  23  40  67  95 133 188 231 286 356 407
#     4  11  21  36  61  97 141 182 223 267 345 434
#     4  11  25  42  70 100 137 187 232 292 353 425
#
# _framework density 21.779971
#
# number of rings (size 3 to 8) (size 9 to 14) (size 15 to 20)
#    0.000    0.800    4.800    2.880    4.480    0.320 
#    0.000    1.600    0.000    3.840    0.000    1.120 
#    0.000    0.000    0.000    0.000    0.000    0.000 
#
# Total GULP energy -557464.828336 kJ/mol
# GULP energy per Si atom -5574.648283 kJ/mol
# Density = 2.173040 g / cm^3
# Si number density = 21.779971 Si / 1000 Ang^3
#
#
#
# Elastic Constant Matrix: (Units=GPa)
#
#
# Indices 1 2 3 4 5 6 
#
# 1 107.6857 20.0805 26.7297 0.0000 0.0000 0.0000
# 2 20.0805 107.6862 26.7299 0.0000 0.0000 0.0000
# 3 26.7297 26.7299 51.0768 0.0000 0.0000 0.0000
# 4 0.0000 0.0000 0.0000 26.1903 0.0000 0.0000
# 5 0.0000 0.0000 0.0000 0.0000 26.1898 0.0000
# 6 0.0000 0.0000 0.0000 0.0000 0.0000 43.6005
#
#
#
# Elastic Compliance Matrix: (Units=1/GPa)
#
#
# Indices 1 2 3 4 5 6 
#
# 1 0.010718 -0.000697 -0.005244 0.000000 0.000000 0.000000
# 2 -0.000697 0.010718 -0.005244 0.000000 0.000000 0.000000
# 3 -0.005244 -0.005244 0.025067 0.000000 0.000000 0.000000
# 4 0.000000 0.000000 0.000000 0.038182 0.000000 0.000000
# 5 0.000000 0.000000 0.000000 0.000000 0.038183 0.000000
# 6 0.000000 0.000000 0.000000 0.000000 0.000000 0.022935
#
#
# Mechanical properties :
#
#
# Convention : Reuss Voigt Hill
#
# Bulk Modulus (GPa) = 41.43821 45.94765 43.69293
# Shear Modulus (GPa) = 28.37384 32.05670 30.21527
#
# Velocity S-wave (km/s) = 3.61328 3.84062 3.72868
# Velocity P-wave (km/s) = 6.03944 6.38821 6.21627
#
# Compressibility (1/GPa) = 0.02413232
#
# Stress axis : x y z
#
# Youngs Moduli (GPa) = 93.30136 93.30162 39.89256
#
# Poissons Ratio (x) = 0.06502 0.20921
# Poissons Ratio (y) = 0.06502 0.20921
# Poissons Ratio (z) = 0.48930 0.48930
#
# Static dielectric constant tensor:
#      x y z
#    x 1.940400 0.000000 0.000000 
#    y 0.000000 1.940400 0.000000 
#    z 0.000000 0.000000 1.805520 
# 
# From -- ./inp_files/5793.got.cif
#   From: 2010.05.17/outbox.cif.g08.bks.cpg/sg126_3_cif.got.tgz:5793.got - 2010.05.20 11:58:20.
