data_PCOD9563331
_publ_section_title
;
Structure prediction by ZEFSAII (Michael W. Deem and Ramdas Pophale) SiO2 
 PCOD9563331
Probable space group: P 4/N N C
;
_chemical_formula_sum "Si O2"
_cell_formula_units_Z 128
_cell_length_a 19.594774
_cell_length_b 19.594774
_cell_length_c 19.667258
_cell_angle_alpha 90.000000
_cell_angle_beta 90.000000
_cell_angle_gamma 90.000000
_cell_volume 7551.345352
_symmetry_space_group_name_H-M "P 4/N N C"
_symmetry_group_IT_number 126
_space_group.IT_coordinate_system_code '2'
_symmetry_cell_setting 'tetragonal'
loop_
_space_group_symop_operation_xyz
x,y,z
1/2-y,x,z
1/2-x,1/2-y,z
y,1/2-x,z
x,1/2-y,1/2-z
1/2-x,y,1/2-z
y,x,1/2-z
1/2-y,1/2-x,1/2-z
-x,-y,-z
1/2+y,-x,-z
1/2+x,1/2+y,-z
-y,1/2+x,-z
-x,1/2+y,1/2+z
1/2+x,-y,1/2+z
-y,-x,1/2+z
1/2+y,1/2+x,1/2+z
loop_
_atom_site_type_symbol
_atom_site_label
_atom_site_fract_x
_atom_site_fract_y
_atom_site_fract_z
Si Si1 0.827705 0.942630 0.467253
Si Si2 0.126473 0.486329 0.387286
Si Si3 0.860368 0.401185 0.072768
Si Si4 0.176482 0.061647 0.250000
Si Si5 0.942630 0.672295 0.032747
Si Si6 0.139632 0.598815 0.572768
Si Si7 0.626473 0.986329 0.887286
Si Si8 0.250000 0.667867 0.830921
O O1 0.886203 0.886203 0.449375
O O2 0.750000 0.921544 0.450079
O O3 0.833617 0.954989 0.548525
O O4 0.841118 0.018895 0.437301
O O5 0.103668 0.561851 0.404327
O O6 0.167761 0.482288 0.317775
O O7 0.166383 0.454989 0.451475
O O8 0.059719 0.440281 0.378759
O O9 0.813571 0.364734 0.128438
O O10 0.861286 0.361286 0.000000
O O11 0.250000 0.095361 0.250000
O O12 0.118828 0.118828 0.250000
O O13 0.167761 0.017712 0.317775
O O14 0.018895 0.658882 0.062699
O O15 0.186429 0.635266 0.628438
O O16 0.061851 0.603668 0.595673
O O17 0.250000 0.750000 0.837438
O O18 0.250000 0.651789 0.750000
#
# Coordination Sequence:
#
# PCOD9563331 Si02
#       8
#    16  16  16  16  16  16  16  16
#     4  10  19  34  56  83 111 144 187 235 285 337
#     4   9  19  34  53  77 105 141 187 232 277 330
#     4  10  21  37  60  80 110 148 190 231 277 338
#     4  10  20  33  50  75 109 147 184 226 276 332
#     4  10  19  34  56  83 111 144 187 235 285 337
#     4  10  21  37  60  80 110 148 190 231 277 338
#     4   9  19  34  53  77 105 141 187 232 277 330
#     4  11  26  40  54  84 119 149 183 229 285 340
#
# _framework density 16.950621999999999
#
# number of rings (size 3 to 8) (size 9 to 14) (size 15 to 20)
#    0.000    2.125    1.250    1.500    3.500    5.375 
#    0.000    0.000    0.000    4.500    0.000    0.000 
#    0.000    1.000    0.000    0.000    0.000    0.000 
#
# Total GULP energy -713252.424979 kJ/mol
# GULP energy per Si atom -5572.284570 kJ/mol
# Density = 1.691204 g / cm^3
# Si number density = 16.950622 Si / 1000 Ang^3
#
#
#
# Elastic Constant Matrix: (Units=GPa)
#
#
# Indices 1 2 3 4 5 6 
#
# 1 97.4303 42.1089 46.6541 0.0000 0.0000 0.0000
# 2 42.1089 97.4303 46.6541 0.0000 0.0000 0.0000
# 3 46.6541 46.6541 104.4819 0.0000 0.0000 0.0000
# 4 0.0000 0.0000 0.0000 19.5359 0.0000 0.0000
# 5 0.0000 0.0000 0.0000 0.0000 19.5359 0.0000
# 6 0.0000 0.0000 0.0000 0.0000 0.0000 -13.0943
#
#
#
# Elastic Compliance Matrix: (Units=1/GPa)
#
#
# Indices 1 2 3 4 5 6 
#
# 1 0.014147 -0.003930 -0.004562 0.000000 0.000000 0.000000
# 2 -0.003930 0.014147 -0.004562 0.000000 0.000000 0.000000
# 3 -0.004562 -0.004562 0.013645 0.000000 0.000000 0.000000
# 4 0.000000 0.000000 0.000000 0.051188 0.000000 0.000000
# 5 0.000000 0.000000 0.000000 0.000000 0.051188 0.000000
# 6 0.000000 0.000000 0.000000 0.000000 0.000000 -0.076369
#
#
# Mechanical properties :
#
#
# Convention : Reuss Voigt Hill
#
# Bulk Modulus (GPa) = 63.16832 63.35293 63.26063
# Shear Modulus (GPa) = 50.33707 16.12385 33.23046
#
# Velocity S-wave (km/s) = 5.45534 3.08754 4.43247
# Velocity P-wave (km/s) = 8.77656 7.08284 7.97479
#
# Compressibility (1/GPa) = 0.01583072
#
# Stress axis : x y z
#
# Youngs Moduli (GPa) = 70.68801 70.68801 73.28486
#
# Poissons Ratio (x) = 0.27777 0.33434
# Poissons Ratio (y) = 0.27777 0.33434
# Poissons Ratio (z) = 0.32250 0.32250
#
# Static dielectric constant tensor:
#      x y z
#    x 1.575010 0.000000 0.000000 
#    y 0.000000 1.575010 0.000000 
#    z 0.000000 0.000000 1.586640 
# 
# From -- ./inp_files/4719.got.cif
#   From: 2010.05.17/outbox.cif.g08.bks.cpg/sg126_3_cif.got.tgz:4719.got - 2010.05.20 11:58:20.
