data_PCOD9563301
_publ_section_title
;
Structure prediction by ZEFSAII (Michael W. Deem and Ramdas Pophale) SiO2 
 PCOD9563301
Probable space group: P 4/N N C
;
_chemical_formula_sum "Si O2"
_cell_formula_units_Z 56
_cell_length_a 17.735970
_cell_length_b 17.735970
_cell_length_c 9.032883
_cell_angle_alpha 90.000000
_cell_angle_beta 90.000000
_cell_angle_gamma 90.000000
_cell_volume 2841.425515
_symmetry_space_group_name_H-M "P 4/N N C"
_symmetry_group_IT_number 126
_space_group.IT_coordinate_system_code '2'
_symmetry_cell_setting 'tetragonal'
loop_
_space_group_symop_operation_xyz
x,y,z
1/2-y,x,z
1/2-x,1/2-y,z
y,1/2-x,z
x,1/2-y,1/2-z
1/2-x,y,1/2-z
y,x,1/2-z
1/2-y,1/2-x,1/2-z
-x,-y,-z
1/2+y,-x,-z
1/2+x,1/2+y,-z
-y,1/2+x,-z
-x,1/2+y,1/2+z
1/2+x,-y,1/2+z
-y,-x,1/2+z
1/2+y,1/2+x,1/2+z
loop_
_atom_site_type_symbol
_atom_site_label
_atom_site_fract_x
_atom_site_fract_y
_atom_site_fract_z
Si Si1 0.770569 0.626941 0.940199
Si Si2 0.750000 0.549041 0.250000
Si Si3 0.008675 0.121179 0.163982
Si Si4 0.476452 0.595387 0.181475
O O1 0.833364 0.690932 0.909372
O O2 0.800091 0.550770 0.863605
O O3 0.762882 0.602968 0.110463
O O4 0.823850 0.496793 0.250691
O O5 0.069941 0.069941 0.250000
O O6 0.935631 0.104682 0.264823
O O7 0.987643 0.095635 0.996021
O O8 0.538801 0.538801 0.250000
#
# Coordination Sequence:
#
# PCOD9563301 Si02
#       4
#    16   8  16  16
#     4  10  20  33  51  79 117 153 182 218 271 340
#     4  10  18  31  54  82 110 147 188 226 274 333
#     4  10  20  34  52  73 105 146 187 229 270 321
#     4  10  19  33  54  77 107 143 184 232 275 329
#
# _framework density 19.708417000000001
#
# number of rings (size 3 to 8) (size 9 to 14) (size 15 to 20)
#    0.000    2.000    0.000    7.714    0.000    2.286 
#    0.000    4.286    0.000    0.000    0.000    0.000 
#    0.000  164.571    0.000    0.000    0.000    0.000 
#
# Total GULP energy -311947.370167 kJ/mol
# GULP energy per Si atom -5570.488753 kJ/mol
# Density = 1.966356 g / cm^3
# Si number density = 19.708417 Si / 1000 Ang^3
#
#
#
# Elastic Constant Matrix: (Units=GPa)
#
#
# Indices 1 2 3 4 5 6 
#
# 1 95.2497 52.3838 56.2784 0.0000 0.0000 0.0000
# 2 52.3838 95.2497 56.2784 0.0000 0.0000 0.0000
# 3 56.2784 56.2784 161.7380 0.0000 0.0000 0.0000
# 4 0.0000 0.0000 0.0000 32.7322 0.0000 0.0000
# 5 0.0000 0.0000 0.0000 0.0000 32.7322 0.0000
# 6 0.0000 0.0000 0.0000 0.0000 0.0000 42.3063
#
#
#
# Elastic Compliance Matrix: (Units=1/GPa)
#
#
# Indices 1 2 3 4 5 6 
#
# 1 0.016274 -0.007055 -0.003208 0.000000 0.000000 0.000000
# 2 -0.007055 0.016274 -0.003208 0.000000 0.000000 0.000000
# 3 -0.003208 -0.003208 0.008415 0.000000 0.000000 0.000000
# 4 0.000000 0.000000 0.000000 0.030551 0.000000 0.000000
# 5 0.000000 0.000000 0.000000 0.000000 0.030551 0.000000
# 6 0.000000 0.000000 0.000000 0.000000 0.000000 0.023637
#
#
# Mechanical properties :
#
#
# Convention : Reuss Voigt Hill
#
# Bulk Modulus (GPa) = 71.31594 75.79094 73.55344
# Shear Modulus (GPa) = 31.78289 34.04058 32.91173
#
# Velocity S-wave (km/s) = 4.02015 4.16048 4.09091
# Velocity P-wave (km/s) = 7.60348 7.84978 7.72761
#
# Compressibility (1/GPa) = 0.01402211
#
# Stress axis : x y z
#
# Youngs Moduli (GPa) = 61.44806 61.44806 118.83101
#
# Poissons Ratio (x) = 0.43349 0.38120
# Poissons Ratio (y) = 0.43349 0.38120
# Poissons Ratio (z) = 0.19712 0.19712
#
# Static dielectric constant tensor:
#      x y z
#    x 1.743050 0.000000 0.000000 
#    y 0.000000 1.743050 0.000000 
#    z 0.000000 0.000000 1.765860 
# 
# From -- ./inp_files/1241.got.cif
#   From: 2010.05.17/outbox.cif.g08.bks.cpg/sg126_1_cif.got.tgz:1241.got - 2010.05.20 11:58:20.
