data_PCOD9563328
_publ_section_title
;
Structure prediction by ZEFSAII (Michael W. Deem and Ramdas Pophale) SiO2 
 PCOD9563328
Probable space group: P 4/N N C
;
_chemical_formula_sum "Si O2"
_cell_formula_units_Z 128
_cell_length_a 16.998609
_cell_length_b 16.998609
_cell_length_c 24.277272
_cell_angle_alpha 90.000000
_cell_angle_beta 90.000000
_cell_angle_gamma 90.000000
_cell_volume 7014.983486
_symmetry_space_group_name_H-M "P 4/N N C"
_symmetry_group_IT_number 126
_space_group.IT_coordinate_system_code '2'
_symmetry_cell_setting 'tetragonal'
loop_
_space_group_symop_operation_xyz
x,y,z
1/2-y,x,z
1/2-x,1/2-y,z
y,1/2-x,z
x,1/2-y,1/2-z
1/2-x,y,1/2-z
y,x,1/2-z
1/2-y,1/2-x,1/2-z
-x,-y,-z
1/2+y,-x,-z
1/2+x,1/2+y,-z
-y,1/2+x,-z
-x,1/2+y,1/2+z
1/2+x,-y,1/2+z
-y,-x,1/2+z
1/2+y,1/2+x,1/2+z
loop_
_atom_site_type_symbol
_atom_site_label
_atom_site_fract_x
_atom_site_fract_y
_atom_site_fract_z
Si Si1 0.981111 0.548831 0.557668
Si Si2 0.585013 0.227438 0.690573
Si Si3 0.682157 0.905199 0.212267
Si Si4 0.321369 0.354569 0.473415
Si Si5 0.152809 0.544999 0.596059
Si Si6 0.637744 0.609613 0.405686
Si Si7 0.360653 0.695445 0.503294
Si Si8 0.394785 0.923659 0.898625
O O1 0.924952 0.621868 0.545176
O O2 0.938814 0.488406 0.599750
O O3 0.000000 0.500000 0.500000
O O4 0.064140 0.573860 0.583823
O O5 0.621994 0.250000 0.750000
O O6 0.496217 0.201077 0.704325
O O7 0.577882 0.302217 0.649380
O O8 0.612160 0.153014 0.653231
O O9 0.750000 0.870947 0.250000
O O10 0.605208 0.894793 0.250000
O O11 0.675866 0.869428 0.152246
O O12 0.230214 0.356512 0.456058
O O13 0.322292 0.359555 0.539764
O O14 0.142817 0.451072 0.597539
O O15 0.200722 0.571639 0.542071
O O16 0.635885 0.513600 0.408078
O O17 0.281364 0.661919 0.474914
O O18 0.380581 0.634478 0.550674
#
# Coordination Sequence:
#
# PCOD9563328 Si02
#       8
#    16  16  16  16  16  16  16  16
#     4  11  20  36  55  85 114 157 213 264 322 372
#     4  10  21  36  57  80 117 163 198 241 303 358
#     4  10  21  33  46  70 103 149 202 245 270 320
#     4  11  24  36  53  82 118 160 198 251 335 405
#     4  11  20  35  56  80 111 154 207 249 308 362
#     4  10  20  31  52  70 104 149 198 243 290 357
#     4  11  21  32  52  81 107 133 187 251 306 363
#     4  10  19  34  53  82 110 151 199 251 303 357
#
# _framework density 18.246656999999999
#
# number of rings (size 3 to 8) (size 9 to 14) (size 15 to 20)
#    0.000    1.500    5.000    1.500    5.250    3.125 
#    0.000    0.000    0.000    1.500    0.000    0.000 
#    0.000    3.000    0.000    5.500    0.000    0.000 
#
# Total GULP energy -713605.488162 kJ/mol
# GULP energy per Si atom -5575.042876 kJ/mol
# Density = 1.820513 g / cm^3
# Si number density = 18.246657 Si / 1000 Ang^3
#
#
#
# Elastic Constant Matrix: (Units=GPa)
#
#
# Indices 1 2 3 4 5 6 
#
# 1 -2.2005 64.7027 20.6526 0.0000 0.0000 0.0000
# 2 64.7027 -2.1950 20.6557 0.0000 0.0000 0.0000
# 3 20.6526 20.6557 95.5051 0.0000 0.0000 0.0000
# 4 0.0000 0.0000 0.0000 26.3963 0.0000 0.0000
# 5 0.0000 0.0000 0.0000 0.0000 26.3966 0.0000
# 6 0.0000 0.0000 0.0000 0.0000 0.0000 25.3577
#
#
#
# Elastic Compliance Matrix: (Units=1/GPa)
#
#
# Indices 1 2 3 4 5 6 
#
# 1 0.001859 0.016807 -0.004037 0.000000 0.000000 0.000000
# 2 0.016807 0.001860 -0.004037 0.000000 0.000000 0.000000
# 3 -0.004037 -0.004037 0.012217 0.000000 0.000000 0.000000
# 4 0.000000 0.000000 0.000000 0.037884 0.000000 0.000000
# 5 0.000000 0.000000 0.000000 0.000000 0.037884 0.000000
# 6 0.000000 0.000000 0.000000 0.000000 0.000000 0.039436
#
#
# Mechanical properties :
#
#
# Convention : Reuss Voigt Hill
#
# Bulk Modulus (GPa) = 29.93795 33.68129 31.80962
# Shear Modulus (GPa) = 40.06189 14.63667 27.34928
#
# Velocity S-wave (km/s) = 4.69078 2.83531 3.87572
# Velocity P-wave (km/s) = 6.76616 5.40533 6.12366
#
# Compressibility (1/GPa) = 0.03340242
#
# Stress axis : x y z
#
# Youngs Moduli (GPa) = 537.93448 537.60059 81.85510
#
# Poissons Ratio (x) = -9.03552 0.33045
# Poissons Ratio (y) = -9.04113 0.33043
# Poissons Ratio (z) = 2.17165 2.17018
#
# Static dielectric constant tensor:
#      x y z
#    x 1.687800 0.000000 0.000000 
#    y 0.000000 1.687800 0.000000 
#    z 0.000000 0.000000 1.651020 
# 
# From -- ./inp_files/5973.got.cif
#   From: 2010.05.17/outbox.cif.g08.bks.cpg/sg126_3_cif.got.tgz:5973.got - 2010.05.20 11:58:20.
