data_PCOD9563967
_publ_section_title
;
Structure prediction by ZEFSAII (Michael W. Deem and Ramdas Pophale) SiO2 
 PCOD9563967
Probable space group: P 4/M B M
;
_chemical_formula_sum "Si O2"
_cell_formula_units_Z 96
_cell_length_a 24.778526
_cell_length_b 24.778526
_cell_length_c 7.352294
_cell_angle_alpha 90.000000
_cell_angle_beta 90.000000
_cell_angle_gamma 90.000000
_cell_volume 4514.127287
_symmetry_space_group_name_H-M "P 4/M B M"
_symmetry_group_IT_number 127
_symmetry_cell_setting 'tetragonal'
loop_
_space_group_symop_operation_xyz
x,y,z
-y,x,z
-x,-y,z
y,-x,z
1/2+x,1/2-y,-z
1/2-x,1/2+y,-z
1/2+y,1/2+x,-z
1/2-y,1/2-x,-z
-x,-y,-z
y,-x,-z
x,y,-z
-y,x,-z
1/2-x,1/2+y,z
1/2+x,1/2-y,z
1/2-y,1/2-x,z
1/2+y,1/2+x,z
loop_
_atom_site_type_symbol
_atom_site_label
_atom_site_fract_x
_atom_site_fract_y
_atom_site_fract_z
Si Si1 0.512523 0.790261 0.222723
Si Si2 0.721859 0.692441 0.778075
Si Si3 0.134464 0.719773 0.221185
Si Si4 0.571955 0.298473 0.215230
Si Si5 0.919085 0.030819 0.281571
Si Si6 0.000372 0.587005 0.778635
O O1 0.573286 0.777339 0.281738
O O2 0.471311 0.744540 0.286035
O O3 0.498482 0.851173 0.279943
O O4 0.512391 0.790058 0.000000
O O5 0.776739 0.723262 0.723570
O O6 0.672162 0.730632 0.722260
O O7 0.712931 0.631880 0.712797
O O8 0.721722 0.692003 0.000000
O O9 0.165053 0.665053 0.276102
O O10 0.133941 0.719983 0.000000
O O11 0.552766 0.360152 0.235697
O O12 0.575237 0.288705 0.000000
O O13 0.921552 0.029928 0.500000
O O14 0.969538 0.067892 0.219019
O O15 0.949442 0.550559 0.722487
O O16 0.054231 0.554231 0.723662
O O17 0.000627 0.587380 0.000000
#
# Coordination Sequence:
#
# PCOD9563967 Si02
#       6
#    16  16  16  16  16  16
#     4   9  16  23  33  57  89 116 145 187 236 274
#     4   8  15  27  40  58  90 128 155 176 219 282
#     4   8  13  22  36  51  75 115 151 177 211 264
#     4  10  20  29  46  76 102 124 153 199 246 280
#     4   9  20  39  57  70  90 125 163 195 238 300
#     4   8  13  21  33  50  79 124 168 196 223 269
#
# _framework density 21.266567999999999
#
# number of rings (size 3 to 8) (size 9 to 14) (size 15 to 20)
#    0.000    3.333    0.000    2.500    2.333    3.333 
#    0.000    4.167    0.000    0.500    0.000    0.000 
#    0.000    2.667    0.000    1.833    0.000    1.667 
#
# Total GULP energy -535774.580465 kJ/mol
# GULP energy per Si atom -5580.985213 kJ/mol
# Density = 2.121816 g / cm^3
# Si number density = 21.266568 Si / 1000 Ang^3
#
#
#
# Elastic Constant Matrix: (Units=GPa)
#
#
# Indices 1 2 3 4 5 6 
#
# 1 189.2528 162.8293 2.0385 0.0000 0.0000 0.0000
# 2 162.8293 189.2528 2.0385 0.0000 0.0000 0.0000
# 3 2.0385 2.0385 77.5005 0.0000 0.0000 0.0000
# 4 0.0000 0.0000 0.0000 30.0538 0.0000 0.0000
# 5 0.0000 0.0000 0.0000 0.0000 30.0538 0.0000
# 6 0.0000 0.0000 0.0000 0.0000 0.0000 18.8580
#
#
#
# Elastic Compliance Matrix: (Units=1/GPa)
#
#
# Indices 1 2 3 4 5 6 
#
# 1 0.020343 -0.017502 -0.000075 0.000000 0.000000 0.000000
# 2 -0.017502 0.020343 -0.000075 0.000000 0.000000 0.000000
# 3 -0.000075 -0.000075 0.012907 0.000000 0.000000 0.000000
# 4 0.000000 0.000000 0.000000 0.033274 0.000000 0.000000
# 5 0.000000 0.000000 0.000000 0.000000 0.033274 0.000000
# 6 0.000000 0.000000 0.000000 0.000000 0.000000 0.053028
#
#
# Mechanical properties :
#
#
# Convention : Reuss Voigt Hill
#
# Bulk Modulus (GPa) = 54.67357 87.75764 71.21560
# Shear Modulus (GPa) = 23.30258 35.06642 29.18450
#
# Velocity S-wave (km/s) = 3.31378 4.06507 3.70850
# Velocity P-wave (km/s) = 6.35658 7.96167 7.20397
#
# Compressibility (1/GPa) = 0.01829037
#
# Stress axis : x y z
#
# Youngs Moduli (GPa) = 49.15661 49.15661 77.47690
#
# Poissons Ratio (x) = 0.86034 0.00579
# Poissons Ratio (y) = 0.86034 0.00579
# Poissons Ratio (z) = 0.00367 0.00367
#
# Static dielectric constant tensor:
#      x y z
#    x 1.732240 0.000000 0.000000 
#    y 0.000000 1.732240 0.000000 
#    z 0.000000 0.000000 1.826420 
# 
# From -- ./inp_files/1953.got.cif
#   From: 2010.05.17/outbox.cif.g08.bks.cpg/sg127_1_cif.got.tgz:1953.got - 2010.05.20 12:03:00.
