data_PCOD9563271
_publ_section_title
;
Structure prediction by ZEFSAII (Michael W. Deem and Ramdas Pophale) SiO2 
 PCOD9563271
Probable space group: P 4/N B M
;
_chemical_formula_sum "Si O2"
_cell_formula_units_Z 96
_cell_length_a 24.813327
_cell_length_b 24.813327
_cell_length_c 7.183310
_cell_angle_alpha 90.000000
_cell_angle_beta 90.000000
_cell_angle_gamma 90.000000
_cell_volume 4422.772564
_symmetry_space_group_name_H-M "P 4/N B M"
_symmetry_group_IT_number 125
_space_group.IT_coordinate_system_code '2'
_symmetry_cell_setting 'tetragonal'
loop_
_space_group_symop_operation_xyz
x,y,z
1/2-y,x,z
1/2-x,1/2-y,z
y,1/2-x,z
x,1/2-y,-z
1/2-x,y,-z
y,x,-z
1/2-y,1/2-x,-z
-x,-y,-z
1/2+y,-x,-z
1/2+x,1/2+y,-z
-y,1/2+x,-z
-x,1/2+y,z
1/2+x,-y,z
-y,-x,z
1/2+y,1/2+x,z
loop_
_atom_site_type_symbol
_atom_site_label
_atom_site_fract_x
_atom_site_fract_y
_atom_site_fract_z
Si Si1 0.510867 0.402093 0.776663
Si Si2 0.028570 0.886708 0.657659
Si Si3 0.116217 0.799350 0.734913
Si Si4 0.408466 0.389569 0.276315
Si Si5 0.192105 0.315207 0.274232
Si Si6 0.682402 0.403318 0.826617
O O1 0.547428 0.452572 0.843754
O O2 0.515378 0.403235 0.552627
O O3 0.448013 0.402638 0.817135
O O4 0.538799 0.345893 0.831865
O O5 0.063903 0.936098 0.740971
O O6 0.068374 0.835979 0.655305
O O7 0.971206 0.873979 0.748268
O O8 0.173103 0.826898 0.679978
O O9 0.105876 0.736251 0.709395
O O10 0.111747 0.806533 0.959300
O O11 0.397765 0.397765 0.500000
O O12 0.363996 0.346355 0.214479
O O13 0.176080 0.254384 0.217437
O O14 0.188115 0.311885 0.500000
O O15 0.636454 0.363547 0.751851
#
# Coordination Sequence:
#
# PCOD9563271 Si02
#       6
#    16  16  16  16  16  16
#     4   9  17  29  45  66  92 118 145 182 225 265
#     4   9  17  29  45  66  92 118 145 182 225 265
#     4   9  18  32  48  66  90 120 153 189 228 269
#     4   9  16  26  43  65  87 116 151 179 211 265
#     4   8  14  24  36  53  81 112 140 175 215 250
#     4   9  18  32  48  66  90 120 153 189 228 269
#
# _framework density 21.705840999999999
#
# number of rings (size 3 to 8) (size 9 to 14) (size 15 to 20)
#    0.000    3.167    0.000    1.000    0.000    4.333 
#    0.000    5.833    0.000    4.000    0.000    4.667 
#    0.000    0.000    0.000    7.333    0.000    6.000 
#
# Total GULP energy -535673.730640 kJ/mol
# GULP energy per Si atom -5579.934694 kJ/mol
# Density = 2.165644 g / cm^3
# Si number density = 21.705841 Si / 1000 Ang^3
#
#
#
# Elastic Constant Matrix: (Units=GPa)
#
#
# Indices 1 2 3 4 5 6 
#
# 1 155.0582 89.8157 -3.8454 0.0000 0.0000 0.0000
# 2 89.8157 155.0581 -3.8454 0.0000 0.0000 0.0000
# 3 -3.8454 -3.8454 62.7376 0.0000 0.0000 0.0000
# 4 0.0000 0.0000 0.0000 -0.0978 0.0000 0.0000
# 5 0.0000 0.0000 0.0000 0.0000 -0.0979 0.0000
# 6 0.0000 0.0000 0.0000 0.0000 0.0000 24.6917
#
#
#
# Elastic Compliance Matrix: (Units=1/GPa)
#
#
# Indices 1 2 3 4 5 6 
#
# 1 0.009710 -0.005618 0.000251 0.000000 0.000000 0.000000
# 2 -0.005618 0.009710 0.000251 0.000000 0.000000 0.000000
# 3 0.000251 0.000251 0.015970 0.000000 0.000000 0.000000
# 4 0.000000 0.000000 0.000000-10.220477 0.000000 0.000000
# 5 0.000000 0.000000 0.000000 0.000000-10.214551 0.000000
# 6 0.000000 0.000000 0.000000 0.000000 0.000000 0.040499
#
#
# Mechanical properties :
#
#
# Convention : Reuss Voigt Hill
#
# Bulk Modulus (GPa) = 39.75111 59.67818 49.71465
# Shear Modulus (GPa) = -0.24581 24.28113 12.01766
#
# Velocity S-wave (km/s) = -0.33689 3.34824 2.35555
# Velocity P-wave (km/s) = 4.26638 6.51931 5.50924
#
# Compressibility (1/GPa) = 0.02515653
#
# Stress axis : x y z
#
# Youngs Moduli (GPa) = 102.99165 102.99160 62.61685
#
# Poissons Ratio (x) = 0.57860 -0.01570
# Poissons Ratio (y) = 0.57860 -0.01570
# Poissons Ratio (z) = -0.02583 -0.02583
#
# Static dielectric constant tensor:
#      x y z
#    x 1.777330 0.000000 0.000000 
#    y 0.000000 1.777330 0.000000 
#    z 0.000000 0.000000 1.877700 
# 
# From -- ./inp_files/2845.got.cif
#   From: 2010.05.17/outbox.cif.g08.bks.cpg/sg125_2_cif.got.tgz:2845.got - 2010.05.20 11:54:10.
