data_PCOD9563167
_publ_section_title
;
Structure prediction by ZEFSAII (Michael W. Deem and Ramdas Pophale) SiO2 
 PCOD9563167
Probable space group: P 4/N B M
;
_chemical_formula_sum "Si O2"
_cell_formula_units_Z 128
_cell_length_a 19.684746
_cell_length_b 19.684746
_cell_length_c 20.355808
_cell_angle_alpha 90.000000
_cell_angle_beta 90.000000
_cell_angle_gamma 90.000000
_cell_volume 7887.656268
_symmetry_space_group_name_H-M "P 4/N B M"
_symmetry_group_IT_number 125
_space_group.IT_coordinate_system_code '2'
_symmetry_cell_setting 'tetragonal'
loop_
_space_group_symop_operation_xyz
x,y,z
1/2-y,x,z
1/2-x,1/2-y,z
y,1/2-x,z
x,1/2-y,-z
1/2-x,y,-z
y,x,-z
1/2-y,1/2-x,-z
-x,-y,-z
1/2+y,-x,-z
1/2+x,1/2+y,-z
-y,1/2+x,-z
-x,1/2+y,z
1/2+x,-y,z
-y,-x,z
1/2+y,1/2+x,z
loop_
_atom_site_type_symbol
_atom_site_label
_atom_site_fract_x
_atom_site_fract_y
_atom_site_fract_z
Si Si1 0.898268 0.508011 0.731471
Si Si2 0.088247 0.803660 0.641555
Si Si3 0.009893 0.100405 0.648932
Si Si4 0.032029 0.229941 0.572957
Si Si5 0.229605 0.035138 0.809327
Si Si6 0.916421 0.308221 0.254969
Si Si7 0.863891 0.751000 0.689091
Si Si8 0.251530 0.137281 0.078003
O O1 0.852411 0.462383 0.682835
O O2 0.850023 0.525294 0.792398
O O3 0.963139 0.463139 0.751469
O O4 0.926528 0.570817 0.689217
O O5 0.149593 0.850408 0.616202
O O6 0.112830 0.747901 0.694535
O O7 0.040422 0.765344 0.589497
O O8 0.963251 0.036750 0.628856
O O9 0.966407 0.145824 0.699979
O O10 0.026272 0.149646 0.588461
O O11 0.052141 0.250000 0.500000
O O12 0.087082 0.254004 0.626331
O O13 0.251843 0.088137 0.752600
O O14 0.244209 0.070573 0.878104
O O15 0.269450 0.964777 0.796531
O O16 0.857476 0.357476 0.228952
O O17 0.814298 0.815389 0.689207
O O18 0.316354 0.185565 0.093090
O O19 0.250000 0.124103 0.000000
#
# Coordination Sequence:
#
# PCOD9563167 Si02
#       8
#    16  16  16  16  16  16  16  16
#     4   9  17  30  51  75  97 122 163 217 262 306
#     4   9  18  34  51  69  92 123 164 213 258 304
#     4   9  17  32  49  67  96 125 159 209 262 306
#     4  11  22  34  48  68  97 132 167 210 260 316
#     4  11  18  30  56  77  98 132 172 215 253 297
#     4   9  18  30  47  75 102 126 159 204 256 306
#     4  11  22  35  50  72  97 126 170 215 255 305
#     4   9  19  33  49  76 112 145 175 208 250 301
#
# _framework density 16.227886999999999
#
# number of rings (size 3 to 8) (size 9 to 14) (size 15 to 20)
#    0.000    2.250    3.750    1.875    1.750    2.250 
#    0.000    0.625    0.000    3.000    0.000    3.500 
#    0.000    0.000    0.000    3.500    0.000    0.000 
#
# Total GULP energy -713526.686871 kJ/mol
# GULP energy per Si atom -5574.427241 kJ/mol
# Density = 1.619095 g / cm^3
# Si number density = 16.227887 Si / 1000 Ang^3
#
#
#
# Elastic Constant Matrix: (Units=GPa)
#
#
# Indices 1 2 3 4 5 6 
#
# 1 75.6312 38.9061 14.4037 0.0000 0.0000 0.0000
# 2 38.9061 75.6312 14.4037 0.0000 0.0000 0.0000
# 3 14.4037 14.4037 34.7802 0.0000 0.0000 0.0000
# 4 0.0000 0.0000 0.0000 13.2774 0.0000 0.0000
# 5 0.0000 0.0000 0.0000 0.0000 13.2774 0.0000
# 6 0.0000 0.0000 0.0000 0.0000 0.0000 33.5032
#
#
#
# Elastic Compliance Matrix: (Units=1/GPa)
#
#
# Indices 1 2 3 4 5 6 
#
# 1 0.018488 -0.008742 -0.004036 0.000000 0.000000 0.000000
# 2 -0.008742 0.018488 -0.004036 0.000000 0.000000 0.000000
# 3 -0.004036 -0.004036 0.032095 0.000000 0.000000 0.000000
# 4 0.000000 0.000000 0.000000 0.075316 0.000000 0.000000
# 5 0.000000 0.000000 0.000000 0.000000 0.075316 0.000000
# 6 0.000000 0.000000 0.000000 0.000000 0.000000 0.029848
#
#
# Mechanical properties :
#
#
# Convention : Reuss Voigt Hill
#
# Bulk Modulus (GPa) = 28.21486 35.71886 31.96686
# Shear Modulus (GPa) = 16.94962 19.90022 18.42492
#
# Velocity S-wave (km/s) = 3.23534 3.50565 3.37320
# Velocity P-wave (km/s) = 5.60187 6.20038 5.90871
#
# Compressibility (1/GPa) = 0.03544232
#
# Stress axis : x y z
#
# Youngs Moduli (GPa) = 54.09033 54.09033 31.15747
#
# Poissons Ratio (x) = 0.47284 0.12576
# Poissons Ratio (y) = 0.47284 0.12576
# Poissons Ratio (z) = 0.21832 0.21832
#
# Static dielectric constant tensor:
#      x y z
#    x 1.577700 0.000000 0.000000 
#    y 0.000000 1.577700 0.000000 
#    z 0.000000 0.000000 1.512600 
# 
# From -- ./inp_files/5619.got.cif
#   From: 2010.05.17/outbox.cif.g08.bks.cpg/sg125_3_cif.got.tgz:5619.got - 2010.05.20 11:54:10.
