data_PCOD9563733
_publ_section_title
;
Structure prediction by ZEFSAII (Michael W. Deem and Ramdas Pophale) SiO2 
 PCOD9563733
Probable space group: P 4/N N C
;
_chemical_formula_sum "Si O2"
_cell_formula_units_Z 96
_cell_length_a 15.000000
_cell_length_b 15.000000
_cell_length_c 21.000000
_cell_angle_alpha 90.000000
_cell_angle_beta 90.000000
_cell_angle_gamma 90.000000
_cell_volume 4725.000000
_symmetry_space_group_name_H-M "P 4/N N C"
_symmetry_group_IT_number 126
_space_group.IT_coordinate_system_code '2'
_symmetry_cell_setting 'tetragonal'
loop_
_space_group_symop_operation_xyz
x,y,z
1/2-y,x,z
1/2-x,1/2-y,z
y,1/2-x,z
x,1/2-y,1/2-z
1/2-x,y,1/2-z
y,x,1/2-z
1/2-y,1/2-x,1/2-z
-x,-y,-z
1/2+y,-x,-z
1/2+x,1/2+y,-z
-y,1/2+x,-z
-x,1/2+y,1/2+z
1/2+x,-y,1/2+z
-y,-x,1/2+z
1/2+y,1/2+x,1/2+z
loop_
_atom_site_type_symbol
_atom_site_label
_atom_site_fract_x
_atom_site_fract_y
_atom_site_fract_z
Si Si1 0.041545 0.588690 0.107698
Si Si2 0.636062 0.156188 0.504767
Si Si3 0.385070 0.307051 0.536739
Si Si4 0.007032 0.854462 0.254286
Si Si5 0.110084 0.203916 0.383694
Si Si6 0.055727 0.904696 0.635267
O O1 0.120505 0.582709 0.056368
O O2 0.055608 0.628601 0.177959
O O3 0.966209 0.649550 0.073881
O O4 0.003201 0.491100 0.119193
O O5 0.630407 0.261795 0.508680
O O6 0.611047 0.113765 0.572120
O O7 0.295731 0.363245 0.552487
O O8 0.399865 0.306750 0.460532
O O9 0.983244 0.750000 0.250000
O O10 0.070407 0.884642 0.196104
O O11 0.919801 0.919801 0.250000
O O12 0.195400 0.141006 0.367867
O O13 0.016819 0.173260 0.353934
#
# Coordination Sequence:
#
# PCOD9563733 Si02
#       6
#    16  16  16  16  16  16
#     4  11  23  37  64  86 122 164 212 251 316 379
#     4  11  25  40  61  93 124 161 213 265 311 377
#     4   9  19  32  55  97 133 161 199 256 324 384
#     4  10  24  43  61  91 128 168 211 261 315 389
#     4   9  19  36  63 102 135 157 199 264 331 389
#     4  11  23  39  65  91 125 172 209 261 323 372
#
# _framework density 20.317460000000001
#
# number of rings (size 3 to 8) (size 9 to 14) (size 15 to 20)
#    0.000    1.833    1.667    2.500    9.333    0.167 
#    0.000    0.833    3.667    3.000    0.000   10.500 
#    0.000    0.000    0.000    0.000    0.000    0.000 
#
# Total GULP energy -536710.333566 kJ/mol
# GULP energy per Si atom -5590.732641 kJ/mol
# Density = 2.027122 g / cm^3
# Si number density = 20.317460 Si / 1000 Ang^3
#
#
#
# Elastic Constant Matrix: (Units=GPa)
#
#
# Indices 1 2 3 4 5 6 
#
# 1 31.7580 26.7365 42.5354 0.0000 0.0000 0.0000
# 2 26.7365 31.7580 42.5354 0.0000 0.0000 0.0000
# 3 42.5354 42.5354 40.6769 0.0000 0.0000 0.0000
# 4 0.0000 0.0000 0.0000 20.0309 0.0000 0.0000
# 5 0.0000 0.0000 0.0000 0.0000 20.0309 0.0000
# 6 0.0000 0.0000 0.0000 0.0000 0.0000 18.3285
#
#
#
# Elastic Compliance Matrix: (Units=1/GPa)
#
#
# Indices 1 2 3 4 5 6 
#
# 1 0.083160 -0.115987 0.034327 0.000000 0.000000 0.000000
# 2 -0.115987 0.083160 0.034327 0.000000 0.000000 0.000000
# 3 0.034327 0.034327 -0.047206 0.000000 0.000000 0.000000
# 4 0.000000 0.000000 0.000000 0.049923 0.000000 0.000000
# 5 0.000000 0.000000 0.000000 0.000000 0.049923 0.000000
# 6 0.000000 0.000000 0.000000 0.000000 0.000000 0.054560
#
#
# Mechanical properties :
#
#
# Convention : Reuss Voigt Hill
#
# Bulk Modulus (GPa) = 40.90495 36.42304 38.66400
# Shear Modulus (GPa) = 13.28602 11.17043 12.22823
#
# Velocity S-wave (km/s) = 2.55996 2.34731 2.45594
# Velocity P-wave (km/s) = 5.37722 5.03114 5.20706
#
# Compressibility (1/GPa) = 0.02444692
#
# Stress axis : x y z
#
# Youngs Moduli (GPa) = 12.02504 12.02504 -21.18386
#
# Poissons Ratio (x) = 1.39474 0.72717
# Poissons Ratio (y) = 1.39474 0.72717
# Poissons Ratio (z) = -0.41278 -0.41278
#
# Static dielectric constant tensor:
#      x y z
#    x 1.737150 0.000000 0.000000 
#    y 0.000000 1.737150 0.000000 
#    z 0.000000 0.000000 1.694290 
# 
# From -- ./inp_files/5229.got.cif
#   From: 2010.05.17/outbox.ucp.g08.bks.cvg/sg126_3_cif.got.tgz:5229.got - 2010.06.11 11:36:48.
