data_PCOD9563882
_publ_section_title
;
Structure prediction by ZEFSAII (Michael W. Deem and Ramdas Pophale) SiO2 
 PCOD9563882
Probable space group: P 4/M B M
;
_chemical_formula_sum "Si O2"
_cell_formula_units_Z 56
_cell_length_a 22.285951
_cell_length_b 22.285951
_cell_length_c 7.392805
_cell_angle_alpha 90.000000
_cell_angle_beta 90.000000
_cell_angle_gamma 90.000000
_cell_volume 3671.737234
_symmetry_space_group_name_H-M "P 4/M B M"
_symmetry_group_IT_number 127
_symmetry_cell_setting 'tetragonal'
loop_
_space_group_symop_operation_xyz
x,y,z
-y,x,z
-x,-y,z
y,-x,z
1/2+x,1/2-y,-z
1/2-x,1/2+y,-z
1/2+y,1/2+x,-z
1/2-y,1/2-x,-z
-x,-y,-z
y,-x,-z
x,y,-z
-y,x,-z
1/2-x,1/2+y,z
1/2+x,1/2-y,z
1/2-y,1/2-x,z
1/2+y,1/2+x,z
loop_
_atom_site_type_symbol
_atom_site_label
_atom_site_fract_x
_atom_site_fract_y
_atom_site_fract_z
Si Si1 0.796971 0.805249 0.500000
Si Si2 0.681036 0.007261 0.782524
Si Si3 0.734532 0.134415 0.785469
Si Si4 0.951793 0.548208 0.219594
Si Si5 0.403715 0.199531 0.500000
O O1 0.743777 0.756224 0.500000
O O2 0.837213 0.788727 0.673152
O O3 0.762125 0.867590 0.500000
O O4 0.695813 0.947521 0.672968
O O5 0.722271 0.065032 0.740913
O O6 0.614371 0.028427 0.727413
O O7 0.682096 0.997733 0.000000
O O8 0.674893 0.174893 0.745255
O O9 0.744214 0.139073 0.000000
O O10 0.000000 0.500000 0.281924
O O11 0.951548 0.548453 0.000000
O O12 0.355517 0.144484 0.500000
#
# Coordination Sequence:
#
# PCOD9563882 Si02
#       5
#     8  16  16   8   8
#     4   9  19  32  45  64  91 122 159 199 234 281
#     4  10  19  32  49  68  93 124 163 204 235 270
#     4   9  16  30  52  71  85 112 159 210 247 269
#     4   9  16  27  43  65  94 127 159 192 225 259
#     4  11  23  33  42  65 100 138 165 181 228 292
#
# _framework density 15.251637000000001
#
# number of rings (size 3 to 8) (size 9 to 14) (size 15 to 20)
#    0.000    2.429    1.429    1.714    0.000    3.429 
#    0.000    4.286    0.000    0.000    0.000    0.000 
#    0.000    9.143    0.000   25.143    0.000    0.000 
#
# Total GULP energy -312234.104208 kJ/mol
# GULP energy per Si atom -5575.609004 kJ/mol
# Density = 1.521692 g / cm^3
# Si number density = 15.251637 Si / 1000 Ang^3
#
#
#
# Elastic Constant Matrix: (Units=GPa)
#
#
# Indices 1 2 3 4 5 6 
#
# 1 89.4224 81.8392 48.8243 0.0000 0.0000 0.0000
# 2 81.8392 89.4234 48.8249 0.0000 0.0000 0.0000
# 3 48.8243 48.8249 76.7727 0.0000 0.0000 0.0000
# 4 0.0000 0.0000 0.0000 16.6959 0.0000 0.0000
# 5 0.0000 0.0000 0.0000 0.0000 16.6961 0.0000
# 6 0.0000 0.0000 0.0000 0.0000 0.0000 34.3473
#
#
#
# Elastic Compliance Matrix: (Units=1/GPa)
#
#
# Indices 1 2 3 4 5 6 
#
# 1 0.070512 -0.061351 -0.005826 0.000000 0.000000 0.000000
# 2 -0.061351 0.070511 -0.005826 0.000000 0.000000 0.000000
# 3 -0.005826 -0.005826 0.020436 0.000000 0.000000 0.000000
# 4 0.000000 0.000000 0.000000 0.059895 0.000000 0.000000
# 5 0.000000 0.000000 0.000000 0.000000 0.059894 0.000000
# 6 0.000000 0.000000 0.000000 0.000000 0.000000 0.029114
#
#
# Mechanical properties :
#
#
# Convention : Reuss Voigt Hill
#
# Bulk Modulus (GPa) = 64.71030 68.28839 66.49935
# Shear Modulus (GPa) = 10.83380 18.62321 14.72851
#
# Velocity S-wave (km/s) = 2.66811 3.49816 3.11094
# Velocity P-wave (km/s) = 7.21195 7.82227 7.52330
#
# Compressibility (1/GPa) = 0.01545349
#
# Stress axis : x y z
#
# Youngs Moduli (GPa) = 14.18204 14.18210 48.93416
#
# Poissons Ratio (x) = 0.87008 0.28507
# Poissons Ratio (y) = 0.87008 0.28511
# Poissons Ratio (z) = 0.08262 0.08263
#
# Static dielectric constant tensor:
#      x y z
#    x 1.490350 0.000000 0.000000 
#    y 0.000000 1.490350 0.000000 
#    z 0.000000 0.000000 1.548730 
# 
# From -- ./inp_files/1131.got.cif
#   From: 2010.05.17/outbox.cif.g08.bks.cpg/sg127_1_cif.got.tgz:1131.got - 2010.05.20 12:03:00.
