data_PCOD9563041
_publ_section_title
;
Structure prediction by ZEFSAII (Michael W. Deem and Ramdas Pophale) SiO2 
 PCOD9563041
Probable space group: P 4/N B M
;
_chemical_formula_sum "Si O2"
_cell_formula_units_Z 112
_cell_length_a 13.928823
_cell_length_b 13.928823
_cell_length_c 29.347520
_cell_angle_alpha 90.000000
_cell_angle_beta 90.000000
_cell_angle_gamma 90.000000
_cell_volume 5693.774283
_symmetry_space_group_name_H-M "P 4/N B M"
_symmetry_group_IT_number 125
_space_group.IT_coordinate_system_code '2'
_symmetry_cell_setting 'tetragonal'
loop_
_space_group_symop_operation_xyz
x,y,z
1/2-y,x,z
1/2-x,1/2-y,z
y,1/2-x,z
x,1/2-y,-z
1/2-x,y,-z
y,x,-z
1/2-y,1/2-x,-z
-x,-y,-z
1/2+y,-x,-z
1/2+x,1/2+y,-z
-y,1/2+x,-z
-x,1/2+y,z
1/2+x,-y,z
-y,-x,z
1/2+y,1/2+x,z
loop_
_atom_site_type_symbol
_atom_site_label
_atom_site_fract_x
_atom_site_fract_y
_atom_site_fract_z
Si Si1 0.087278 0.249298 0.548848
Si Si2 0.841943 0.879287 0.856921
Si Si3 0.944430 0.209775 0.818819
Si Si4 0.595007 0.253845 0.921702
Si Si5 0.747730 0.586629 0.650151
Si Si6 0.248168 0.588612 0.280075
Si Si7 0.947531 0.611667 0.048417
O O1 0.158641 0.157840 0.548483
O O2 0.033753 0.250000 0.500000
O O3 0.041953 0.248236 0.598883
O O4 0.727568 0.876461 0.847823
O O5 0.876421 0.897472 0.908522
O O6 0.867228 0.969514 0.825821
O O7 0.844610 0.155391 0.814320
O O8 0.931686 0.258258 0.868372
O O9 0.951983 0.264825 0.771580
O O10 0.639898 0.360103 0.929614
O O11 0.680507 0.180507 0.932363
O O12 0.505070 0.211869 0.948365
O O13 0.841122 0.656355 0.654623
O O14 0.746135 0.501572 0.686395
O O15 0.344599 0.655402 0.282711
O O16 0.159652 0.659652 0.290269
O O17 0.027180 0.527180 0.052461
O O18 0.897827 0.602174 0.000000
#
# Coordination Sequence:
#
# PCOD9563041 Si02
#       7
#    16  16  16  16  16  16  16
#     4   7  10  20  43  75 109 148 196 248 299 349
#     4  11  23  39  57  81 112 145 178 215 267 333
#     4  10  20  38  61  81 103 136 185 238 282 329
#     4   9  17  34  62  88 109 139 183 233 277 321
#     4   9  18  33  54  84 122 158 196 248 306 364
#     4  10  22  39  59  85 116 154 202 253 305 361
#     4  10  21  39  63  90 119 148 181 226 278 334
#
# _framework density 19.670607
#
# number of rings (size 3 to 8) (size 9 to 14) (size 15 to 20)
#    0.000    2.571    1.429    2.143    0.000    4.000 
#    0.000    3.571    0.000    3.429    0.000   13.000 
#    0.000    0.000    0.000    0.000    0.000    0.000 
#
# Total GULP energy -623582.083681 kJ/mol
# GULP energy per Si atom -5567.697176 kJ/mol
# Density = 1.962584 g / cm^3
# Si number density = 19.670607 Si / 1000 Ang^3
#
#
#
# Elastic Constant Matrix: (Units=GPa)
#
#
# Indices 1 2 3 4 5 6 
#
# 1 76.3822 18.2249 39.5117 0.0000 0.0000 0.0000
# 2 18.2249 76.3824 39.5118 0.0000 0.0000 0.0000
# 3 39.5117 39.5118 133.3330 0.0000 0.0000 0.0000
# 4 0.0000 0.0000 0.0000 17.8931 0.0000 0.0000
# 5 0.0000 0.0000 0.0000 0.0000 17.8930 0.0000
# 6 0.0000 0.0000 0.0000 0.0000 0.0000 17.1013
#
#
#
# Elastic Compliance Matrix: (Units=1/GPa)
#
#
# Indices 1 2 3 4 5 6 
#
# 1 0.015621 -0.001574 -0.004163 0.000000 0.000000 0.000000
# 2 -0.001574 0.015621 -0.004163 0.000000 0.000000 0.000000
# 3 -0.004163 -0.004163 0.009967 0.000000 0.000000 0.000000
# 4 0.000000 0.000000 0.000000 0.055888 0.000000 0.000000
# 5 0.000000 0.000000 0.000000 0.000000 0.055888 0.000000
# 6 0.000000 0.000000 0.000000 0.000000 0.000000 0.058475
#
#
# Mechanical properties :
#
#
# Convention : Reuss Voigt Hill
#
# Bulk Modulus (GPa) = 46.70612 53.39939 50.05276
# Shear Modulus (GPa) = 20.97364 23.16743 22.07053
#
# Velocity S-wave (km/s) = 3.26888 3.43559 3.35327
# Velocity P-wave (km/s) = 6.16791 6.55312 6.36343
#
# Compressibility (1/GPa) = 0.02141047
#
# Stress axis : x y z
#
# Youngs Moduli (GPa) = 64.01688 64.01700 100.32966
#
# Poissons Ratio (x) = 0.10075 0.41764
# Poissons Ratio (y) = 0.10075 0.41764
# Poissons Ratio (z) = 0.26648 0.26648
#
# Static dielectric constant tensor:
#      x y z
#    x 1.748500 0.000000 0.000000 
#    y 0.000000 1.748500 0.000000 
#    z 0.000000 0.000000 1.738680 
# 
# From -- ./inp_files/6461.got.cif
#   From: 2010.05.17/outbox.cif.g08.bks.cpg/sg125_4_cif.got.tgz:6461.got - 2010.05.20 11:54:10.
