data_PCOD9563003
_publ_section_title
;
Structure prediction by ZEFSAII (Michael W. Deem and Ramdas Pophale) SiO2 
 PCOD9563003
Probable space group: P 4/N B M
;
_chemical_formula_sum "Si O2"
_cell_formula_units_Z 88
_cell_length_a 14.892581
_cell_length_b 14.892581
_cell_length_c 21.611212
_cell_angle_alpha 90.000000
_cell_angle_beta 90.000000
_cell_angle_gamma 90.000000
_cell_volume 4793.128425
_symmetry_space_group_name_H-M "P 4/N B M"
_symmetry_group_IT_number 125
_space_group.IT_coordinate_system_code '2'
_symmetry_cell_setting 'tetragonal'
loop_
_space_group_symop_operation_xyz
x,y,z
1/2-y,x,z
1/2-x,1/2-y,z
y,1/2-x,z
x,1/2-y,-z
1/2-x,y,-z
y,x,-z
1/2-y,1/2-x,-z
-x,-y,-z
1/2+y,-x,-z
1/2+x,1/2+y,-z
-y,1/2+x,-z
-x,1/2+y,z
1/2+x,-y,z
-y,-x,z
1/2+y,1/2+x,z
loop_
_atom_site_type_symbol
_atom_site_label
_atom_site_fract_x
_atom_site_fract_y
_atom_site_fract_z
Si Si1 0.622535 0.529459 0.878306
Si Si2 0.142577 0.357424 0.000000
Si Si3 0.753676 0.098641 0.431950
Si Si4 0.398543 0.744713 0.822428
Si Si5 0.687086 0.464210 0.692526
Si Si6 0.131591 0.158311 0.754095
O O1 0.542537 0.457464 0.872643
O O2 0.612298 0.587558 0.939835
O O3 0.715836 0.472236 0.870295
O O4 0.625087 0.595892 0.820058
O O5 0.128677 0.250000 0.000000
O O6 0.750000 0.055013 0.500000
O O7 0.845203 0.154797 0.424882
O O8 0.674406 0.174406 0.432902
O O9 0.738792 0.037508 0.372167
O O10 0.351300 0.648701 0.834000
O O11 0.318313 0.818313 0.824121
O O12 0.440271 0.752840 0.753340
O O13 0.615997 0.384004 0.690436
O O14 0.633132 0.555934 0.704797
O O15 0.233643 0.130869 0.748201
#
# Coordination Sequence:
#
# PCOD9563003 Si02
#       6
#    16   8  16  16  16  16
#     4  10  20  36  57  80 104 128 162 209 257 304
#     4  11  23  40  58  74  99 139 180 208 238 287
#     4   8  13  22  40  69 104 140 174 209 258 318
#     4   8  14  26  46  73 104 133 158 193 251 315
#     4   9  16  28  47  72 102 132 168 216 263 307
#     4  10  20  35  53  72  97 131 169 205 248 306
#
# _framework density 18.359615999999999
#
# number of rings (size 3 to 8) (size 9 to 14) (size 15 to 20)
#    0.000    2.818    0.000    4.091    0.000    3.636 
#    0.000   14.545    0.000    1.091    0.000    5.091 
#    0.000    0.000    0.000    0.000    0.000    0.000 
#
# Total GULP energy -489928.688203 kJ/mol
# GULP energy per Si atom -5567.371457 kJ/mol
# Density = 1.831783 g / cm^3
# Si number density = 18.359616 Si / 1000 Ang^3
#
#
#
# Elastic Constant Matrix: (Units=GPa)
#
#
# Indices 1 2 3 4 5 6 
#
# 1 41.4688 -16.9042 13.1619 0.0000 0.0000 0.0000
# 2 -16.9042 41.4680 13.1617 0.0000 0.0000 0.0000
# 3 13.1619 13.1617 119.0941 0.0000 0.0000 0.0000
# 4 0.0000 0.0000 0.0000 18.4117 0.0000 0.0000
# 5 0.0000 0.0000 0.0000 0.0000 18.4113 0.0000
# 6 0.0000 0.0000 0.0000 0.0000 0.0000 11.2211
#
#
#
# Elastic Compliance Matrix: (Units=1/GPa)
#
#
# Indices 1 2 3 4 5 6 
#
# 1 0.031655 0.014524 -0.005103 0.000000 0.000000 0.000000
# 2 0.014524 0.031655 -0.005104 0.000000 0.000000 0.000000
# 3 -0.005103 -0.005104 0.009525 0.000000 0.000000 0.000000
# 4 0.000000 0.000000 0.000000 0.054313 0.000000 0.000000
# 5 0.000000 0.000000 0.000000 0.000000 0.054315 0.000000
# 6 0.000000 0.000000 0.000000 0.000000 0.000000 0.089118
#
#
# Mechanical properties :
#
#
# Convention : Reuss Voigt Hill
#
# Bulk Modulus (GPa) = 12.27473 24.54109 18.40791
# Shear Modulus (GPa) = 17.29487 22.44957 19.87222
#
# Velocity S-wave (km/s) = 3.07254 3.50061 3.29354
# Velocity P-wave (km/s) = 4.39176 5.45297 4.95088
#
# Compressibility (1/GPa) = 0.08146822
#
# Stress axis : x y z
#
# Youngs Moduli (GPa) = 31.59086 31.59024 104.98950
#
# Poissons Ratio (x) = -0.45881 0.53581
# Poissons Ratio (y) = -0.45882 0.53582
# Poissons Ratio (z) = 0.16122 0.16122
#
# Static dielectric constant tensor:
#      x y z
#    x 1.684960 0.000000 0.000000 
#    y 0.000000 1.684960 0.000000 
#    z 0.000000 0.000000 1.631380 
# 
# From -- ./inp_files/5854.got.cif
#   From: 2010.05.17/outbox.cif.g08.bks.cpg/sg125_3_cif.got.tgz:5854.got - 2010.05.20 11:54:10.
