data_PCOD9563740
_publ_section_title
;
Structure prediction by ZEFSAII (Michael W. Deem and Ramdas Pophale) SiO2 
 PCOD9563740
Probable space group: P 4/M B M
;
_chemical_formula_sum "Si O2"
_cell_formula_units_Z 72
_cell_length_a 23.804995
_cell_length_b 23.804995
_cell_length_c 8.723491
_cell_angle_alpha 90.000000
_cell_angle_beta 90.000000
_cell_angle_gamma 90.000000
_cell_volume 4943.408574
_symmetry_space_group_name_H-M "P 4/M B M"
_symmetry_group_IT_number 127
_symmetry_cell_setting 'tetragonal'
loop_
_space_group_symop_operation_xyz
x,y,z
-y,x,z
-x,-y,z
y,-x,z
1/2+x,1/2-y,-z
1/2-x,1/2+y,-z
1/2+y,1/2+x,-z
1/2-y,1/2-x,-z
-x,-y,-z
y,-x,-z
x,y,-z
-y,x,-z
1/2-x,1/2+y,z
1/2+x,1/2-y,z
1/2-y,1/2-x,z
1/2+y,1/2+x,z
loop_
_atom_site_type_symbol
_atom_site_label
_atom_site_fract_x
_atom_site_fract_y
_atom_site_fract_z
Si Si1 0.672367 0.984728 0.185378
Si Si2 0.454354 0.045647 0.813216
Si Si3 0.723634 0.868715 0.187063
Si Si4 0.216260 0.812671 0.177084
Si Si5 0.301970 0.894060 0.682577
O O1 0.608388 0.971168 0.234452
O O2 0.710836 0.932111 0.234567
O O3 0.691404 0.044598 0.247147
O O4 0.672783 0.986410 0.000000
O O5 0.500000 0.000000 0.761966
O O6 0.454311 0.045690 0.000000
O O7 0.671688 0.828313 0.233106
O O8 0.781807 0.839711 0.237236
O O9 0.724521 0.867385 0.000000
O O10 0.262547 0.762547 0.177795
O O11 0.244573 0.863152 0.268204
O O12 0.208103 0.829601 0.000000
O O13 0.304611 0.897384 0.500000
O O14 0.353269 0.853269 0.735486
#
# Coordination Sequence:
#
# PCOD9563740 Si02
#       5
#    16   8  16  16  16
#     4  10  17  27  44  63  84 109 142 178 212 249
#     4   9  16  24  37  59  83 111 147 179 201 232
#     4   8  13  24  43  66  85 101 129 176 222 254
#     4   8  14  26  45  63  78 100 134 173 216 259
#     4  10  20  31  40  55  83 116 147 178 210 242
#
# _framework density 14.56485
#
# number of rings (size 3 to 8) (size 9 to 14) (size 15 to 20)
#    0.000    3.000    1.111    2.667    0.000    2.222 
#    0.000    1.667    0.000    3.333    0.000    0.000 
#    0.000    0.889    0.000   10.222    0.000    4.000 
#
# Total GULP energy -400871.751351 kJ/mol
# GULP energy per Si atom -5567.663213 kJ/mol
# Density = 1.453170 g / cm^3
# Si number density = 14.564850 Si / 1000 Ang^3
#
#
#
# Elastic Constant Matrix: (Units=GPa)
#
#
# Indices 1 2 3 4 5 6 
#
# 1 98.3688 86.7588 21.7011 0.0000 0.0000 0.0000
# 2 86.7588 98.3688 21.7010 0.0000 0.0000 0.0000
# 3 21.7011 21.7010 11.4135 0.0000 0.0000 0.0000
# 4 0.0000 0.0000 0.0000 5.3539 0.0000 0.0000
# 5 0.0000 0.0000 0.0000 0.0000 5.3539 0.0000
# 6 0.0000 0.0000 0.0000 0.0000 0.0000 25.4186
#
#
#
# Elastic Compliance Matrix: (Units=1/GPa)
#
#
# Indices 1 2 3 4 5 6 
#
# 1 0.047939 -0.038193 -0.018531 0.000000 0.000000 0.000000
# 2 -0.038193 0.047939 -0.018530 0.000000 0.000000 0.000000
# 3 -0.018531 -0.018530 0.158082 0.000000 0.000000 0.000000
# 4 0.000000 0.000000 0.000000 0.186779 0.000000 0.000000
# 5 0.000000 0.000000 0.000000 0.000000 0.186779 0.000000
# 6 0.000000 0.000000 0.000000 0.000000 0.000000 0.039341
#
#
# Mechanical properties :
#
#
# Convention : Reuss Voigt Hill
#
# Bulk Modulus (GPa) = 9.66637 52.05254 30.85946
# Shear Modulus (GPa) = 5.86956 12.42465 9.14710
#
# Velocity S-wave (km/s) = 2.00965 2.92388 2.50876
# Velocity P-wave (km/s) = 3.46931 6.87131 5.44293
#
# Compressibility (1/GPa) = 0.10345140
#
# Stress axis : x y z
#
# Youngs Moduli (GPa) = 20.85968 20.85979 6.32583
#
# Poissons Ratio (x) = 0.79670 0.11723
# Poissons Ratio (y) = 0.79670 0.11722
# Poissons Ratio (z) = 0.38656 0.38653
#
# Static dielectric constant tensor:
#      x y z
#    x 1.479290 0.000000 0.000000 
#    y 0.000000 1.479290 0.000000 
#    z 0.000000 0.000000 1.487920 
# 
# From -- ./inp_files/1755.got.cif
#   From: 2010.05.17/outbox.cif.g08.bks.cpg/sg127_1_cif.got.tgz:1755.got - 2010.05.20 12:03:00.
