data_PCOD9563749
_publ_section_title
;
Structure prediction by ZEFSAII (Michael W. Deem and Ramdas Pophale) SiO2 
 PCOD9563749
Probable space group: P 4/M B M
;
_chemical_formula_sum "Si O2"
_cell_formula_units_Z 96
_cell_length_a 23.970942
_cell_length_b 23.970942
_cell_length_c 7.597065
_cell_angle_alpha 90.000000
_cell_angle_beta 90.000000
_cell_angle_gamma 90.000000
_cell_volume 4365.319590
_symmetry_space_group_name_H-M "P 4/M B M"
_symmetry_group_IT_number 127
_symmetry_cell_setting 'tetragonal'
loop_
_space_group_symop_operation_xyz
x,y,z
-y,x,z
-x,-y,z
y,-x,z
1/2+x,1/2-y,-z
1/2-x,1/2+y,-z
1/2+y,1/2+x,-z
1/2-y,1/2-x,-z
-x,-y,-z
y,-x,-z
x,y,-z
-y,x,-z
1/2-x,1/2+y,z
1/2+x,1/2-y,z
1/2-y,1/2-x,z
1/2+y,1/2+x,z
loop_
_atom_site_type_symbol
_atom_site_label
_atom_site_fract_x
_atom_site_fract_y
_atom_site_fract_z
Si Si1 0.630302 0.955746 0.784666
Si Si2 0.019271 0.756042 0.788956
Si Si3 0.852386 0.647615 0.285174
Si Si4 0.434828 0.440434 0.214629
Si Si5 0.122611 0.832989 0.788873
Si Si6 0.443277 0.943277 0.204012
Si Si7 0.610133 0.269196 0.708345
O O1 0.604813 0.895188 0.737835
O O2 0.692339 0.972234 0.724463
O O3 0.585824 0.001752 0.721388
O O4 0.631645 0.958115 0.000000
O O5 0.073552 0.791521 0.724083
O O6 0.955811 0.778448 0.758744
O O7 0.024180 0.755165 0.000000
O O8 0.853261 0.646740 0.500000
O O9 0.896427 0.603574 0.215824
O O10 0.871809 0.708433 0.224322
O O11 0.496977 0.424069 0.269583
O O12 0.394221 0.394057 0.280219
O O13 0.433398 0.440866 0.000000
O O14 0.188358 0.839078 0.755282
O O15 0.117265 0.831202 0.000000
O O16 0.455763 0.955763 0.000000
O O17 0.608748 0.267274 0.500000
#
# Coordination Sequence:
#
# PCOD9563749 Si02
#       7
#    16  16   8  16  16   8  16
#     4   9  17  30  52  85 120 147 178 225 285 345
#     4  10  20  36  59  86 115 149 188 235 288 340
#     4  10  22  39  57  79 110 150 194 237 283 328
#     4   8  13  23  42  68  98 130 163 205 258 314
#     4  10  20  34  53  81 112 145 185 230 281 334
#     4  10  17  30  58  88 112 144 184 230 281 341
#     4  11  23  39  59  80 110 151 194 239 282 333
#
# _framework density 21.991517000000002
#
# number of rings (size 3 to 8) (size 9 to 14) (size 15 to 20)
#    0.000    2.333    1.667    2.250    0.000    5.000 
#    1.500    0.000    0.000    2.500    0.000    3.500 
#    0.000    0.000    0.000    0.000    0.000    0.000 
#
# Total GULP energy -534709.467403 kJ/mol
# GULP energy per Si atom -5569.890285 kJ/mol
# Density = 2.194146 g / cm^3
# Si number density = 21.991517 Si / 1000 Ang^3
#
#
#
# Elastic Constant Matrix: (Units=GPa)
#
#
# Indices 1 2 3 4 5 6 
#
# 1 185.5016 -26.1552 3.1629 0.0000 0.0000 0.0000
# 2 -26.1552 185.5018 3.1628 0.0000 0.0000 0.0000
# 3 3.1629 3.1628 48.9538 0.0000 0.0000 0.0000
# 4 0.0000 0.0000 0.0000 -36.2762 0.0000 0.0000
# 5 0.0000 0.0000 0.0000 0.0000 -36.2761 0.0000
# 6 0.0000 0.0000 0.0000 0.0000 0.0000 41.2138
#
#
#
# Elastic Compliance Matrix: (Units=1/GPa)
#
#
# Indices 1 2 3 4 5 6 
#
# 1 0.005508 0.000784 -0.000407 0.000000 0.000000 0.000000
# 2 0.000784 0.005508 -0.000406 0.000000 0.000000 0.000000
# 3 -0.000407 -0.000406 0.020480 0.000000 0.000000 0.000000
# 4 0.000000 0.000000 0.000000 -0.027566 0.000000 0.000000
# 5 0.000000 0.000000 0.000000 0.000000 -0.027566 0.000000
# 6 0.000000 0.000000 0.000000 0.000000 0.000000 0.024264
#
#
# Mechanical properties :
#
#
# Convention : Reuss Voigt Hill
#
# Bulk Modulus (GPa) = 31.80916 42.25535 37.03225
# Shear Modulus (GPa) = 447.81097 23.05143 235.43120
#
# Velocity S-wave (km/s) = 14.28534 3.24110 10.35799
# Velocity P-wave (km/s) = 16.92898 5.76736 12.64620
#
# Compressibility (1/GPa) = 0.03143749
#
# Stress axis : x y z
#
# Youngs Moduli (GPa) = 181.54748 181.54769 48.82822
#
# Poissons Ratio (x) = -0.14226 0.01985
# Poissons Ratio (y) = -0.14226 0.01985
# Poissons Ratio (z) = 0.07380 0.07380
#
# Static dielectric constant tensor:
#      x y z
#    x 1.841510 0.000000 0.000000 
#    y 0.000000 1.841510 0.000000 
#    z 0.000000 0.000000 1.842110 
# 
# From -- ./inp_files/2077.got.cif
#   From: 2010.05.17/outbox.cif.g08.bks.cpg/sg127_2_cif.got.tgz:2077.got - 2010.05.20 12:03:00.
