data_PCOD9563182
_publ_section_title
;
Structure prediction by ZEFSAII (Michael W. Deem and Ramdas Pophale) SiO2 
 PCOD9563182
Probable space group: P 4/N B M
;
_chemical_formula_sum "Si O2"
_cell_formula_units_Z 96
_cell_length_a 23.320222
_cell_length_b 23.320222
_cell_length_c 9.168439
_cell_angle_alpha 90.000000
_cell_angle_beta 90.000000
_cell_angle_gamma 90.000000
_cell_volume 4986.097432
_symmetry_space_group_name_H-M "P 4/N B M"
_symmetry_group_IT_number 125
_space_group.IT_coordinate_system_code '2'
_symmetry_cell_setting 'tetragonal'
loop_
_space_group_symop_operation_xyz
x,y,z
1/2-y,x,z
1/2-x,1/2-y,z
y,1/2-x,z
x,1/2-y,-z
1/2-x,y,-z
y,x,-z
1/2-y,1/2-x,-z
-x,-y,-z
1/2+y,-x,-z
1/2+x,1/2+y,-z
-y,1/2+x,-z
-x,1/2+y,z
1/2+x,-y,z
-y,-x,z
1/2+y,1/2+x,z
loop_
_atom_site_type_symbol
_atom_site_label
_atom_site_fract_x
_atom_site_fract_y
_atom_site_fract_z
Si Si1 0.862042 0.229625 0.838010
Si Si2 0.188914 0.318867 0.822778
Si Si3 0.918692 0.896441 0.173407
Si Si4 0.361697 0.958087 0.904500
Si Si5 0.520374 0.117499 0.762672
Si Si6 0.900188 0.191851 0.409915
O O1 0.810125 0.189876 0.783886
O O2 0.919134 0.190231 0.847551
O O3 0.873203 0.284007 0.739121
O O4 0.848699 0.250000 0.000000
O O5 0.171464 0.254712 0.776622
O O6 0.148422 0.370588 0.777362
O O7 0.184818 0.315183 0.000000
O O8 0.982977 0.872121 0.181461
O O9 0.907375 0.956871 0.250717
O O10 0.908973 0.908973 0.000000
O O11 0.418405 0.918405 0.895319
O O12 0.353592 0.973243 0.076378
O O13 0.565584 0.065584 0.762129
O O14 0.541522 0.160252 0.636852
O O15 0.907803 0.250000 0.500000
O O16 0.855393 0.144607 0.472259
#
# Coordination Sequence:
#
# PCOD9563182 Si02
#       6
#    16  16  16  16  16  16
#     4  11  21  34  52  75 105 138 175 226 282 328
#     4   8  14  24  35  55  93 132 162 196 240 295
#     4   9  16  26  46  74  98 136 173 207 261 328
#     4   9  17  30  47  73 105 132 167 217 272 326
#     4   9  17  31  49  71 102 134 170 219 270 319
#     4  11  23  38  54  75 104 142 188 233 275 328
#
# _framework density 19.253533000000001
#
# number of rings (size 3 to 8) (size 9 to 14) (size 15 to 20)
#    0.000    2.500    1.667    2.000    0.000    5.333 
#    3.000    0.000    0.000    1.000    0.000    4.667 
#    0.000    0.000    0.000    0.000    0.000    0.000 
#
# Total GULP energy -535398.706751 kJ/mol
# GULP energy per Si atom -5577.069862 kJ/mol
# Density = 1.920971 g / cm^3
# Si number density = 19.253533 Si / 1000 Ang^3
#
#
#
# Elastic Constant Matrix: (Units=GPa)
#
#
# Indices 1 2 3 4 5 6 
#
# 1 34.8934 111.0046 10.5308 0.0000 0.0000 0.0000
# 2 111.0046 34.8934 10.5309 0.0000 0.0000 0.0000
# 3 10.5308 10.5309 25.5735 0.0000 0.0000 0.0000
# 4 0.0000 0.0000 0.0000 19.1431 0.0000 0.0000
# 5 0.0000 0.0000 0.0000 0.0000 19.1431 0.0000
# 6 0.0000 0.0000 0.0000 0.0000 0.0000 15.2596
#
#
#
# Elastic Compliance Matrix: (Units=1/GPa)
#
#
# Indices 1 2 3 4 5 6 
#
# 1 -0.002926 0.010213 -0.003001 0.000000 0.000000 0.000000
# 2 0.010213 -0.002926 -0.003001 0.000000 0.000000 0.000000
# 3 -0.003001 -0.003001 0.041574 0.000000 0.000000 0.000000
# 4 0.000000 0.000000 0.000000 0.052238 0.000000 0.000000
# 5 0.000000 0.000000 0.000000 0.000000 0.052238 0.000000
# 6 0.000000 0.000000 0.000000 0.000000 0.000000 0.065532
#
#
# Mechanical properties :
#
#
# Convention : Reuss Voigt Hill
#
# Bulk Modulus (GPa) = 22.65224 39.94363 31.29793
# Shear Modulus (GPa) = 23.58218 8.26209 15.92214
#
# Velocity S-wave (km/s) = 3.50354 2.07377 2.87883
# Velocity P-wave (km/s) = 5.30634 5.15026 5.22888
#
# Compressibility (1/GPa) = 0.04414575
#
# Stress axis : x y z
#
# Youngs Moduli (GPa) = -341.80020 -341.79865 24.05326
#
# Poissons Ratio (x) = 3.49079 0.07218
# Poissons Ratio (y) = 3.49080 0.07218
# Poissons Ratio (z) = -1.02569 -1.02566
#
# Static dielectric constant tensor:
#      x y z
#    x 1.660140 0.000000 0.000000 
#    y 0.000000 1.660140 0.000000 
#    z 0.000000 0.000000 1.697660 
# 
# From -- ./inp_files/2889.got.cif
#   From: 2010.05.17/outbox.cif.g08.bks.cpg/sg125_2_cif.got.tgz:2889.got - 2010.05.20 11:54:10.
