data_PCOD9563592
_publ_section_title
;
Structure prediction by ZEFSAII (Michael W. Deem and Ramdas Pophale) SiO2 
 PCOD9563592
Probable space group: P 4/N N C
;
_chemical_formula_sum "Si O2"
_cell_formula_units_Z 84
_cell_length_a 21.869788
_cell_length_b 21.869788
_cell_length_c 10.048998
_cell_angle_alpha 90.000000
_cell_angle_beta 90.000000
_cell_angle_gamma 90.000000
_cell_volume 4806.311409
_symmetry_space_group_name_H-M "P 4/N N C"
_symmetry_group_IT_number 126
_space_group.IT_coordinate_system_code '2'
_symmetry_cell_setting 'tetragonal'
loop_
_space_group_symop_operation_xyz
x,y,z
1/2-y,x,z
1/2-x,1/2-y,z
y,1/2-x,z
x,1/2-y,1/2-z
1/2-x,y,1/2-z
y,x,1/2-z
1/2-y,1/2-x,1/2-z
-x,-y,-z
1/2+y,-x,-z
1/2+x,1/2+y,-z
-y,1/2+x,-z
-x,1/2+y,1/2+z
1/2+x,-y,1/2+z
-y,-x,1/2+z
1/2+y,1/2+x,1/2+z
loop_
_atom_site_type_symbol
_atom_site_label
_atom_site_fract_x
_atom_site_fract_y
_atom_site_fract_z
Si Si1 0.842120 0.839166 0.600368
Si Si2 0.250000 0.250000 0.516836
Si Si3 0.320803 0.483354 0.039900
Si Si4 0.378312 0.481552 0.752546
Si Si5 0.018655 0.585072 0.748026
Si Si6 0.180610 0.480330 0.033564
O O1 0.821749 0.821749 0.750000
O O2 0.809541 0.795299 0.496291
O O3 0.914296 0.829692 0.592312
O O4 0.825107 0.909172 0.574733
O O5 0.338361 0.482999 0.885385
O O6 0.370893 0.520717 0.123730
O O7 0.250123 0.501027 0.059373
O O8 0.420409 0.420409 0.750000
O O9 0.425385 0.538253 0.755617
O O10 0.337879 0.484581 0.620330
O O11 0.957503 0.542498 0.750000
O O12 0.014809 0.630040 0.621928
#
# Coordination Sequence:
#
# PCOD9563592 Si02
#       6
#    16   4  16  16  16  16
#     4  12  21  33  50  80 109 150 204 239 265 297
#     4  12  25  32  52  77 118 165 204 257 246 285
#     4  12  22  36  56  81 115 145 192 235 277 327
#     4  11  23  38  56  80 114 152 185 231 296 341
#     4  11  21  38  60  82 106 146 197 241 284 327
#     4  12  22  36  56  81 115 145 192 235 277 327
#
# _framework density 17.47702
#
# number of rings (size 3 to 8) (size 9 to 14) (size 15 to 20)
#    0.000    0.381    7.619    3.143    0.000    3.048 
#    0.000    0.000    0.000    1.143    0.000    0.000 
#    0.000   53.333    0.000    0.000    0.000    0.000 
#
# Total GULP energy -468492.678455 kJ/mol
# GULP energy per Si atom -5577.293791 kJ/mol
# Density = 1.743724 g / cm^3
# Si number density = 17.477020 Si / 1000 Ang^3
#
#
#
# Elastic Constant Matrix: (Units=GPa)
#
#
# Indices 1 2 3 4 5 6 
#
# 1 60.5857 19.0054 8.3085 0.0000 0.0000 0.0000
# 2 19.0054 60.5851 8.3087 0.0000 0.0000 0.0000
# 3 8.3085 8.3087 96.2377 0.0000 0.0000 0.0000
# 4 0.0000 0.0000 0.0000 9.1564 0.0000 0.0000
# 5 0.0000 0.0000 0.0000 0.0000 9.1532 0.0000
# 6 0.0000 0.0000 0.0000 0.0000 0.0000 13.7131
#
#
#
# Elastic Compliance Matrix: (Units=1/GPa)
#
#
# Indices 1 2 3 4 5 6 
#
# 1 0.018422 -0.005628 -0.001105 0.000000 0.000000 0.000000
# 2 -0.005628 0.018423 -0.001105 0.000000 0.000000 0.000000
# 3 -0.001105 -0.001105 0.010582 0.000000 0.000000 0.000000
# 4 0.000000 0.000000 0.000000 0.109213 0.000000 0.000000
# 5 0.000000 0.000000 0.000000 0.000000 0.109252 0.000000
# 6 0.000000 0.000000 0.000000 0.000000 0.000000 0.072923
#
#
# Mechanical properties :
#
#
# Convention : Reuss Voigt Hill
#
# Bulk Modulus (GPa) = 31.49315 32.07262 31.78288
# Shear Modulus (GPa) = 13.69592 18.52361 16.10977
#
# Velocity S-wave (km/s) = 2.80242 3.25912 3.03936
# Velocity P-wave (km/s) = 5.34137 5.70558 5.52648
#
# Compressibility (1/GPa) = 0.03175294
#
# Stress axis : x y z
#
# Youngs Moduli (GPa) = 54.28190 54.28128 94.50305
#
# Poissons Ratio (x) = 0.30547 0.10439
# Poissons Ratio (y) = 0.30547 0.10439
# Poissons Ratio (z) = 0.05996 0.05996
#
# Static dielectric constant tensor:
#      x y z
#    x 1.583630 0.000000 0.000000 
#    y 0.000000 1.583630 0.000000 
#    z 0.000000 0.000000 1.640790 
# 
# From -- ./inp_files/2836.got.cif
#   From: 2010.05.17/outbox.cif.g08.bks.cpg/sg126_2_cif.got.tgz:2836.got - 2010.05.20 11:58:20.
