data_PCOD9563533
_publ_section_title
;
Structure prediction by ZEFSAII (Michael W. Deem and Ramdas Pophale) SiO2 
 PCOD9563533
Probable space group: P 4/N N C
;
_chemical_formula_sum "Si O2"
_cell_formula_units_Z 88
_cell_length_a 11.659654
_cell_length_b 11.659654
_cell_length_c 29.294317
_cell_angle_alpha 90.000000
_cell_angle_beta 90.000000
_cell_angle_gamma 90.000000
_cell_volume 3982.490080
_symmetry_space_group_name_H-M "P 4/N N C"
_symmetry_group_IT_number 126
_space_group.IT_coordinate_system_code '2'
_symmetry_cell_setting 'tetragonal'
loop_
_space_group_symop_operation_xyz
x,y,z
1/2-y,x,z
1/2-x,1/2-y,z
y,1/2-x,z
x,1/2-y,1/2-z
1/2-x,y,1/2-z
y,x,1/2-z
1/2-y,1/2-x,1/2-z
-x,-y,-z
1/2+y,-x,-z
1/2+x,1/2+y,-z
-y,1/2+x,-z
-x,1/2+y,1/2+z
1/2+x,-y,1/2+z
-y,-x,1/2+z
1/2+y,1/2+x,1/2+z
loop_
_atom_site_type_symbol
_atom_site_label
_atom_site_fract_x
_atom_site_fract_y
_atom_site_fract_z
Si Si1 0.034396 0.866737 0.777077
Si Si2 0.169386 0.079855 0.654311
Si Si3 0.520964 0.988616 0.075516
Si Si4 0.750000 0.002790 0.250000
Si Si5 0.654171 0.915887 0.506946
Si Si6 0.927256 0.823901 0.875087
O O1 0.045592 0.750000 0.750000
O O2 0.159808 0.922138 0.778634
O O3 0.974187 0.840080 0.824504
O O4 0.951653 0.951653 0.750000
O O5 0.302010 0.102794 0.644346
O O6 0.105296 0.994827 0.619231
O O7 0.175842 0.058320 0.709375
O O8 0.391614 0.981221 0.094573
O O9 0.555467 0.879622 0.045080
O O10 0.510166 0.093037 0.039033
O O11 0.599645 0.789158 0.514873
O O12 0.807947 0.893805 0.882046
#
# Coordination Sequence:
#
# PCOD9563533 Si02
#       6
#    16  16  16   8  16  16
#     4  12  24  42  66  97 139 186 242 302 374 438
#     4  11  23  41  67  96 131 184 244 299 359 447
#     4  11  22  38  67 104 135 171 234 308 364 440
#     4  12  25  43  66 100 142 189 240 315 376 434
#     4  10  22  43  71  99 135 183 233 297 376 457
#     4  11  23  40  66  95 130 181 240 298 360 445
#
# _framework density 22.096726
#
# number of rings (size 3 to 8) (size 9 to 14) (size 15 to 20)
#    0.000    0.909    1.818    6.273    0.000    3.818 
#    0.000    0.000    0.000   37.091    0.000    0.000 
#    0.000    0.000    0.000    0.000    0.000    0.000 
#
# Total GULP energy -491273.600784 kJ/mol
# GULP energy per Si atom -5582.654554 kJ/mol
# Density = 2.204643 g / cm^3
# Si number density = 22.096726 Si / 1000 Ang^3
#
#
#
# Elastic Constant Matrix: (Units=GPa)
#
#
# Indices 1 2 3 4 5 6 
#
# 1 82.0730 49.1495 36.0158 0.0000 0.0000 0.0000
# 2 49.1495 82.0730 36.0158 0.0000 0.0000 0.0000
# 3 36.0158 36.0158 145.4453 0.0000 0.0000 0.0000
# 4 0.0000 0.0000 0.0000 46.3642 0.0000 0.0000
# 5 0.0000 0.0000 0.0000 0.0000 46.3642 0.0000
# 6 0.0000 0.0000 0.0000 0.0000 0.0000 35.4648
#
#
#
# Elastic Compliance Matrix: (Units=1/GPa)
#
#
# Indices 1 2 3 4 5 6 
#
# 1 0.019596 -0.010777 -0.002184 0.000000 0.000000 0.000000
# 2 -0.010777 0.019596 -0.002184 0.000000 0.000000 0.000000
# 3 -0.002184 -0.002184 0.007957 0.000000 0.000000 0.000000
# 4 0.000000 0.000000 0.000000 0.021568 0.000000 0.000000
# 5 0.000000 0.000000 0.000000 0.000000 0.021568 0.000000
# 6 0.000000 0.000000 0.000000 0.000000 0.000000 0.028197
#
#
# Mechanical properties :
#
#
# Convention : Reuss Voigt Hill
#
# Bulk Modulus (GPa) = 59.31104 61.32820 60.31962
# Shear Modulus (GPa) = 32.38480 38.19929 35.29204
#
# Velocity S-wave (km/s) = 3.83246 4.16231 4.00079
# Velocity P-wave (km/s) = 6.81788 7.13544 6.97846
#
# Compressibility (1/GPa) = 0.01686027
#
# Stress axis : x y z
#
# Youngs Moduli (GPa) = 51.02965 51.02965 125.67522
#
# Poissons Ratio (x) = 0.54995 0.27446
# Poissons Ratio (y) = 0.54995 0.27446
# Poissons Ratio (z) = 0.11144 0.11144
#
# Static dielectric constant tensor:
#      x y z
#    x 1.808570 0.000000 0.000000 
#    y 0.000000 1.808570 0.000000 
#    z 0.000000 0.000000 1.882290 
# 
# From -- ./inp_files/6522.got.cif
#   From: 2010.05.17/outbox.cif.g08.bks.cpg/sg126_4_cif.got.tgz:6522.got - 2010.05.20 11:58:20.
