data_PCOD9564707
_publ_section_title
;
Structure prediction by ZEFSAII (Michael W. Deem and Ramdas Pophale) SiO2 
 PCOD9564707
Probable space group: P 4/M N C
;
_chemical_formula_sum "Si O2"
_cell_formula_units_Z 104
_cell_length_a 27.184051
_cell_length_b 27.184051
_cell_length_c 8.831568
_cell_angle_alpha 90.000000
_cell_angle_beta 90.000000
_cell_angle_gamma 90.000000
_cell_volume 6526.287021
_symmetry_space_group_name_H-M "P 4/M N C"
_symmetry_group_IT_number 128
_symmetry_cell_setting 'tetragonal'
loop_
_space_group_symop_operation_xyz
x,y,z
-y,x,z
-x,-y,z
y,-x,z
1/2+x,1/2-y,1/2-z
1/2-x,1/2+y,1/2-z
1/2+y,1/2+x,1/2-z
1/2-y,1/2-x,1/2-z
-x,-y,-z
y,-x,-z
x,y,-z
-y,x,-z
1/2-x,1/2+y,1/2+z
1/2+x,1/2-y,1/2+z
1/2-y,1/2-x,1/2+z
1/2+y,1/2+x,1/2+z
loop_
_atom_site_type_symbol
_atom_site_label
_atom_site_fract_x
_atom_site_fract_y
_atom_site_fract_z
Si Si1 0.849799 0.092550 0.827150
Si Si2 0.499380 0.924616 0.180516
Si Si3 0.044569 0.068070 0.000000
Si Si4 0.000704 0.789119 0.182930
Si Si5 0.364637 0.210291 0.680738
Si Si6 0.176925 0.525957 0.680117
Si Si7 0.313392 0.604699 0.179925
O O1 0.812314 0.051251 0.767919
O O2 0.862916 0.140074 0.731190
O O3 0.834154 0.107203 0.000000
O O4 0.900934 0.063798 0.857718
O O5 0.545896 0.954105 0.250000
O O6 0.503073 0.868077 0.229284
O O7 0.451988 0.951988 0.250000
O O8 0.499644 0.929959 0.000000
O O9 0.986229 0.065600 0.000000
O O10 0.004414 0.730947 0.216232
O O11 0.049106 0.814630 0.252639
O O12 0.003692 0.795218 0.000000
O O13 0.319839 0.180162 0.750000
O O14 0.360029 0.214959 0.500000
O O15 0.415708 0.181363 0.711491
O O16 0.371436 0.263859 0.752828
O O17 0.168579 0.519660 0.500000
O O18 0.310445 0.601821 0.000000
#
# Coordination Sequence:
#
# PCOD9564707 Si02
#       7
#    16  16   8  16  16  16  16
#     4   9  18  31  52  70  98 130 171 209 249 302
#     4  11  21  33  50  72 101 135 170 205 248 300
#     4   9  16  26  48  76  98 126 168 211 248 298
#     4   9  18  34  54  75  97 131 171 214 253 302
#     4  10  20  34  53  76 103 133 168 210 257 309
#     4   9  18  32  51  75 103 129 162 204 252 300
#     4  11  21  32  49  74 105 136 167 208 258 309
#
# _framework density 15.935555000000001
#
# number of rings (size 3 to 8) (size 9 to 14) (size 15 to 20)
#    0.462    1.769    0.000    6.000    0.000    4.923 
#    0.000    0.000    0.000    0.923    0.000    7.538 
#    0.000    0.000    0.000    0.000    0.000    0.000 
#
# Total GULP energy -579737.055812 kJ/mol
# GULP energy per Si atom -5574.394767 kJ/mol
# Density = 1.589928 g / cm^3
# Si number density = 15.935555 Si / 1000 Ang^3
#
#
#
# Elastic Constant Matrix: (Units=GPa)
#
#
# Indices 1 2 3 4 5 6 
#
# 1 110.7146 52.2526 50.2205 0.0000 0.0000 0.0000
# 2 52.2526 110.7080 50.2151 0.0000 0.0000 0.0000
# 3 50.2205 50.2151 75.0016 0.0000 0.0000 0.0000
# 4 0.0000 0.0000 0.0000 16.7758 0.0000 0.0000
# 5 0.0000 0.0000 0.0000 0.0000 16.7767 0.0000
# 6 0.0000 0.0000 0.0000 0.0000 0.0000 42.1452
#
#
#
# Elastic Compliance Matrix: (Units=1/GPa)
#
#
# Indices 1 2 3 4 5 6 
#
# 1 0.013777 -0.003329 -0.006996 0.000000 0.000000 0.000000
# 2 -0.003329 0.013777 -0.006995 0.000000 0.000000 0.000000
# 3 -0.006996 -0.006995 0.022700 0.000000 0.000000 0.000000
# 4 0.000000 0.000000 0.000000 0.059610 0.000000 0.000000
# 5 0.000000 0.000000 0.000000 0.000000 0.059607 0.000000
# 6 0.000000 0.000000 0.000000 0.000000 0.000000 0.023727
#
#
# Mechanical properties :
#
#
# Convention : Reuss Voigt Hill
#
# Bulk Modulus (GPa) = 64.04248 66.86674 65.45461
# Shear Modulus (GPa) = 21.45538 24.72194 23.08866
#
# Velocity S-wave (km/s) = 3.67329 3.94302 3.81054
# Velocity P-wave (km/s) = 7.63324 7.92349 7.77972
#
# Compressibility (1/GPa) = 0.01561464
#
# Stress axis : x y z
#
# Youngs Moduli (GPa) = 72.58549 72.58605 44.05208
#
# Poissons Ratio (x) = 0.24166 0.30818
# Poissons Ratio (y) = 0.24166 0.30812
# Poissons Ratio (z) = 0.50780 0.50771
#
# Static dielectric constant tensor:
#      x y z
#    x 1.525610 0.000000 0.000000 
#    y 0.000000 1.525600 0.000000 
#    z 0.000000 0.000000 1.529350 
# 
# From -- ./inp_files/1714.got.cif
#   From: 2010.05.17/outbox.cif.g08.bks.cpg/sg128_1_cif.got.tgz:1714.got - 2010.05.20 12:07:25.
