data_PCOD9564808
_publ_section_title
;
Structure prediction by ZEFSAII (Michael W. Deem and Ramdas Pophale) SiO2 
 PCOD9564808
Probable space group: P 4/M N C
;
_chemical_formula_sum "Si O2"
_cell_formula_units_Z 88
_cell_length_a 11.627855
_cell_length_b 11.627855
_cell_length_c 25.632910
_cell_angle_alpha 90.000000
_cell_angle_beta 90.000000
_cell_angle_gamma 90.000000
_cell_volume 3465.749167
_symmetry_space_group_name_H-M "P 4/M N C"
_symmetry_group_IT_number 128
_symmetry_cell_setting 'tetragonal'
loop_
_space_group_symop_operation_xyz
x,y,z
-y,x,z
-x,-y,z
y,-x,z
1/2+x,1/2-y,1/2-z
1/2-x,1/2+y,1/2-z
1/2+y,1/2+x,1/2-z
1/2-y,1/2-x,1/2-z
-x,-y,-z
y,-x,-z
x,y,-z
-y,x,-z
1/2-x,1/2+y,1/2+z
1/2+x,1/2-y,1/2+z
1/2-y,1/2-x,1/2+z
1/2+y,1/2+x,1/2+z
loop_
_atom_site_type_symbol
_atom_site_label
_atom_site_fract_x
_atom_site_fract_y
_atom_site_fract_z
Si Si1 0.816194 0.022774 0.423350
Si Si2 0.102504 0.161690 0.796832
Si Si3 0.643083 0.387239 0.562291
Si Si4 0.110576 0.274201 0.683867
Si Si5 0.500000 0.000000 0.847015
Si Si6 0.894216 0.386502 0.941423
O O1 0.688004 0.997919 0.442589
O O2 0.879917 0.905081 0.439139
O O3 0.797696 0.052297 0.362342
O O4 0.113223 0.200088 0.736223
O O5 0.175440 0.260977 0.825835
O O6 0.965160 0.153717 0.806070
O O7 0.655361 0.519813 0.581135
O O8 0.627876 0.386339 0.500000
O O9 0.766060 0.329288 0.569163
O O10 0.033584 0.390094 0.686920
O O11 0.402170 0.030285 0.889691
O O12 0.946631 0.375894 0.000000
#
# Coordination Sequence:
#
# PCOD9564808 Si02
#       6
#    16  16  16  16   8  16
#     4  10  22  40  61  86 119 160 207 261 322 386
#     4  10  22  40  65  97 128 160 201 252 310 378
#     4   8  15  30  53  80 109 144 191 248 310 373
#     4  10  22  39  64  91 124 167 207 253 311 382
#     4  10  23  39  56  86 122 162 214 263 315 378
#     4  10  21  37  58  83 116 160 210 268 325 375
#
# _framework density 25.391335000000002
#
# number of rings (size 3 to 8) (size 9 to 14) (size 15 to 20)
#    0.000    2.364    0.000    1.909    0.000   12.364 
#    0.000    2.727    0.000    2.182    0.000    0.000 
#    0.000    0.000    0.000    4.182    0.000    0.000 
#
# Total GULP energy -490967.707014 kJ/mol
# GULP energy per Si atom -5579.178489 kJ/mol
# Density = 2.533354 g / cm^3
# Si number density = 25.391335 Si / 1000 Ang^3
#
#
#
# Elastic Constant Matrix: (Units=GPa)
#
#
# Indices 1 2 3 4 5 6 
#
# 1 104.0703 44.8987 22.2991 0.0000 0.0000 0.0000
# 2 44.8987 104.0703 22.2991 0.0000 0.0000 0.0000
# 3 22.2991 22.2991 137.7683 0.0000 0.0000 0.0000
# 4 0.0000 0.0000 0.0000 3.5452 0.0000 0.0000
# 5 0.0000 0.0000 0.0000 0.0000 3.5452 0.0000
# 6 0.0000 0.0000 0.0000 0.0000 0.0000 43.1432
#
#
#
# Elastic Compliance Matrix: (Units=1/GPa)
#
#
# Indices 1 2 3 4 5 6 
#
# 1 0.011977 -0.004923 -0.001142 0.000000 0.000000 0.000000
# 2 -0.004923 0.011977 -0.001142 0.000000 0.000000 0.000000
# 3 -0.001142 -0.001142 0.007628 0.000000 0.000000 0.000000
# 4 0.000000 0.000000 0.000000 0.282069 0.000000 0.000000
# 5 0.000000 0.000000 0.000000 0.000000 0.282069 0.000000
# 6 0.000000 0.000000 0.000000 0.000000 0.000000 0.023179
#
#
# Mechanical properties :
#
#
# Convention : Reuss Voigt Hill
#
# Bulk Modulus (GPa) = 58.24091 58.32254 58.28172
# Shear Modulus (GPa) = 7.82429 27.14087 17.48258
#
# Velocity S-wave (km/s) = 1.75732 3.27295 2.62682
# Velocity P-wave (km/s) = 5.20621 6.10756 5.67481
#
# Compressibility (1/GPa) = 0.01717006
#
# Stress axis : x y z
#
# Youngs Moduli (GPa) = 83.49114 83.49114 131.09243
#
# Poissons Ratio (x) = 0.41100 0.14969
# Poissons Ratio (y) = 0.41100 0.14969
# Poissons Ratio (z) = 0.09534 0.09534
#
# Static dielectric constant tensor:
#      x y z
#    x 2.002320 0.000000 0.000000 
#    y 0.000000 2.002320 0.000000 
#    z 0.000000 0.000000 2.013050 
# 
# From -- ./inp_files/7242.got.cif
#   From: 2010.05.17/outbox.cif.g08.bks.cpg/sg128_4_cif.got.tgz:7242.got - 2010.05.20 12:07:25.
