data_PCOD9564013
_publ_section_title
;
Structure prediction by ZEFSAII (Michael W. Deem and Ramdas Pophale) SiO2 
 PCOD9564013
Probable space group: P 4/M B M
;
_chemical_formula_sum "Si O2"
_cell_formula_units_Z 96
_cell_length_a 23.881871
_cell_length_b 23.881871
_cell_length_c 7.494793
_cell_angle_alpha 90.000000
_cell_angle_beta 90.000000
_cell_angle_gamma 90.000000
_cell_volume 4274.608438
_symmetry_space_group_name_H-M "P 4/M B M"
_symmetry_group_IT_number 127
_symmetry_cell_setting 'tetragonal'
loop_
_space_group_symop_operation_xyz
x,y,z
-y,x,z
-x,-y,z
y,-x,z
1/2+x,1/2-y,-z
1/2-x,1/2+y,-z
1/2+y,1/2+x,-z
1/2-y,1/2-x,-z
-x,-y,-z
y,-x,-z
x,y,-z
-y,x,-z
1/2-x,1/2+y,z
1/2+x,1/2-y,z
1/2-y,1/2-x,z
1/2+y,1/2+x,z
loop_
_atom_site_type_symbol
_atom_site_label
_atom_site_fract_x
_atom_site_fract_y
_atom_site_fract_z
Si Si1 0.631370 0.954165 0.792560
Si Si2 0.018083 0.756297 0.706913
Si Si3 0.847498 0.652503 0.716769
Si Si4 0.446969 0.426387 0.214498
Si Si5 0.122123 0.822426 0.698860
Si Si6 0.438338 0.938338 0.285472
Si Si7 0.608291 0.273739 0.719085
O O1 0.602381 0.897620 0.718749
O O2 0.689014 0.976873 0.711122
O O3 0.584860 0.002517 0.777420
O O4 0.643672 0.944559 0.000000
O O5 0.018663 0.774300 0.500000
O O6 0.076353 0.780690 0.785454
O O7 0.957276 0.776392 0.778597
O O8 0.847393 0.652608 0.500000
O O9 0.892807 0.607194 0.773856
O O10 0.786342 0.632615 0.772239
O O11 0.512251 0.424838 0.259072
O O12 0.413544 0.379042 0.310743
O O13 0.441970 0.419399 0.000000
O O14 0.136273 0.800420 0.500000
O O15 0.179063 0.847561 0.781094
O O16 0.440363 0.940363 0.500000
O O17 0.606928 0.276766 0.500000
#
# Coordination Sequence:
#
# PCOD9564013 Si02
#       7
#    16  16   8  16  16   8  16
#     4  11  24  40  58  84 119 154 186 230 287 341
#     4  10  20  36  57  83 113 150 195 237 283 345
#     4   9  16  30  56  81 108 146 182 221 279 336
#     4   9  18  32  49  71 103 143 185 227 275 338
#     4  10  20  33  53  83 112 140 182 240 290 332
#     4  11  20  36  65  94 116 146 184 230 283 345
#     4   9  17  32  53  79 112 144 182 233 288 339
#
# _framework density 22.458196999999998
#
# number of rings (size 3 to 8) (size 9 to 14) (size 15 to 20)
#    0.000    2.167    1.667    2.500    0.000    5.000 
#    1.500    1.667    0.000    0.000    0.000    0.000 
#    0.000    0.000    0.000    0.000    0.000    0.000 
#
# Total GULP energy -535685.743607 kJ/mol
# GULP energy per Si atom -5580.059829 kJ/mol
# Density = 2.240708 g / cm^3
# Si number density = 22.458197 Si / 1000 Ang^3
#
#
#
# Elastic Constant Matrix: (Units=GPa)
#
#
# Indices 1 2 3 4 5 6 
#
# 1 481.4619 -316.5770 -3.1056 0.0000 0.0000 0.0000
# 2 -316.5770 481.4614 -3.1046 0.0000 0.0000 0.0000
# 3 -3.1056 -3.1046 57.6764 0.0000 0.0000 0.0000
# 4 0.0000 0.0000 0.0000 23.8101 0.0000 0.0000
# 5 0.0000 0.0000 0.0000 0.0000 23.8100 0.0000
# 6 0.0000 0.0000 0.0000 0.0000 0.0000 48.7605
#
#
#
# Elastic Compliance Matrix: (Units=1/GPa)
#
#
# Indices 1 2 3 4 5 6 
#
# 1 0.003665 0.002412 0.000327 0.000000 0.000000 0.000000
# 2 0.002412 0.003665 0.000327 0.000000 0.000000 0.000000
# 3 0.000327 0.000327 0.017373 0.000000 0.000000 0.000000
# 4 0.000000 0.000000 0.000000 0.041999 0.000000 0.000000
# 5 0.000000 0.000000 0.000000 0.000000 0.041999 0.000000
# 6 0.000000 0.000000 0.000000 0.000000 0.000000 0.020508
#
#
# Mechanical properties :
#
#
# Convention : Reuss Voigt Hill
#
# Bulk Modulus (GPa) = 32.42921 41.66947 37.04934
# Shear Modulus (GPa) = 37.49361 108.83525 73.16443
#
# Velocity S-wave (km/s) = 4.09037 6.96896 5.71391
# Velocity P-wave (km/s) = 6.06459 9.12961 7.75013
#
# Compressibility (1/GPa) = 0.03083639
#
# Stress axis : x y z
#
# Youngs Moduli (GPa) = 272.84252 272.84231 57.55941
#
# Poissons Ratio (x) = -0.65811 -0.01883
# Poissons Ratio (y) = -0.65811 -0.01883
# Poissons Ratio (z) = -0.08927 -0.08926
#
# Static dielectric constant tensor:
#      x y z
#    x 1.829920 0.000000 0.000000 
#    y 0.000000 1.829920 0.000000 
#    z 0.000000 0.000000 1.849560 
# 
# From -- ./inp_files/2078.got.cif
#   From: 2010.05.17/outbox.cif.g08.bks.cpg/sg127_2_cif.got.tgz:2078.got - 2010.05.20 12:03:00.
