data_PCOD9564092
_publ_section_title
;
Structure prediction by ZEFSAII (Michael W. Deem and Ramdas Pophale) SiO2 
 PCOD9564092
Probable space group: P 4/M B M
;
_chemical_formula_sum "Si O2"
_cell_formula_units_Z 72
_cell_length_a 21.746429
_cell_length_b 21.746429
_cell_length_c 8.168605
_cell_angle_alpha 90.000000
_cell_angle_beta 90.000000
_cell_angle_gamma 90.000000
_cell_volume 3862.991908
_symmetry_space_group_name_H-M "P 4/M B M"
_symmetry_group_IT_number 127
_symmetry_cell_setting 'tetragonal'
loop_
_space_group_symop_operation_xyz
x,y,z
-y,x,z
-x,-y,z
y,-x,z
1/2+x,1/2-y,-z
1/2-x,1/2+y,-z
1/2+y,1/2+x,-z
1/2-y,1/2-x,-z
-x,-y,-z
y,-x,-z
x,y,-z
-y,x,-z
1/2-x,1/2+y,z
1/2+x,1/2-y,z
1/2-y,1/2-x,z
1/2+y,1/2+x,z
loop_
_atom_site_type_symbol
_atom_site_label
_atom_site_fract_x
_atom_site_fract_y
_atom_site_fract_z
Si Si1 0.489537 0.812320 0.802230
Si Si2 0.641279 0.396005 0.808002
Si Si3 0.027391 0.178555 0.689032
Si Si4 0.551187 0.051187 0.200324
Si Si5 0.626625 0.776203 0.800185
O O1 0.458337 0.748782 0.743513
O O2 0.465358 0.879049 0.747629
O O3 0.560724 0.803746 0.751796
O O4 0.486842 0.812082 0.000000
O O5 0.584503 0.366388 0.715620
O O6 0.651969 0.468893 0.786800
O O7 0.705884 0.368002 0.748448
O O8 0.632987 0.382525 0.000000
O O9 0.009392 0.180158 0.500000
O O10 0.500000 0.000000 0.250829
O O11 0.550460 0.050460 0.000000
O O12 0.681052 0.818949 0.741659
O O13 0.626690 0.775989 0.000000
#
# Coordination Sequence:
#
# PCOD9564092 Si02
#       5
#    16  16  16   8  16
#     4   9  17  31  52  78 109 143 180 225 273 315
#     4  10  20  36  58  81 106 136 177 223 271 320
#     4  11  22  37  55  77 109 143 178 217 270 328
#     4   9  16  28  53  87 113 141 191 243 275 308
#     4   8  14  27  50  78 103 130 169 219 268 309
#
# _framework density 18.638403
#
# number of rings (size 3 to 8) (size 9 to 14) (size 15 to 20)
#    0.000    2.556    0.000    4.667    0.000    3.111 
#    2.000    2.778    0.000   22.667    0.000    0.000 
#    0.000    0.000    0.000    0.000    0.000    0.000 
#
# Total GULP energy -401407.742542 kJ/mol
# GULP energy per Si atom -5575.107535 kJ/mol
# Density = 1.859598 g / cm^3
# Si number density = 18.638403 Si / 1000 Ang^3
#
#
#
# Elastic Constant Matrix: (Units=GPa)
#
#
# Indices 1 2 3 4 5 6 
#
# 1 81.4344 62.4821 -5.0076 0.0000 0.0000 0.0000
# 2 62.4821 81.4344 -5.0076 0.0000 0.0000 0.0000
# 3 -5.0076 -5.0076 21.3683 0.0000 0.0000 0.0000
# 4 0.0000 0.0000 0.0000 -11.3814 0.0000 0.0000
# 5 0.0000 0.0000 0.0000 0.0000 -11.3814 0.0000
# 6 0.0000 0.0000 0.0000 0.0000 0.0000 33.7836
#
#
#
# Elastic Compliance Matrix: (Units=1/GPa)
#
#
# Indices 1 2 3 4 5 6 
#
# 1 0.029914 -0.022850 0.001655 0.000000 0.000000 0.000000
# 2 -0.022850 0.029914 0.001655 0.000000 0.000000 0.000000
# 3 0.001655 0.001655 0.047574 0.000000 0.000000 0.000000
# 4 0.000000 0.000000 0.000000 -0.087863 0.000000 0.000000
# 5 0.000000 0.000000 0.000000 0.000000 -0.087863 0.000000
# 6 0.000000 0.000000 0.000000 0.000000 0.000000 0.029600
#
#
# Mechanical properties :
#
#
# Convention : Reuss Voigt Hill
#
# Bulk Modulus (GPa) = 14.63638 32.13012 23.38325
# Shear Modulus (GPa) = 216.16792 10.98884 113.57838
#
# Velocity S-wave (km/s) = 10.78108 2.43076 7.81474
# Velocity P-wave (km/s) = 12.76109 5.01540 9.69535
#
# Compressibility (1/GPa) = 0.06832291
#
# Stress axis : x y z
#
# Youngs Moduli (GPa) = 33.42934 33.42934 21.01979
#
# Poissons Ratio (x) = 0.76387 -0.03479
# Poissons Ratio (y) = 0.76387 -0.03479
# Poissons Ratio (z) = -0.05534 -0.05534
#
# Static dielectric constant tensor:
#      x y z
#    x 1.630160 0.000000 0.000000 
#    y 0.000000 1.630160 0.000000 
#    z 0.000000 0.000000 1.647290 
# 
# From -- ./inp_files/1546.got.cif
#   From: 2010.05.17/outbox.cif.g08.bks.cpg/sg127_1_cif.got.tgz:1546.got - 2010.05.20 12:03:00.
