data_PCOD9564749
_publ_section_title
;
Structure prediction by ZEFSAII (Michael W. Deem and Ramdas Pophale) SiO2 
 PCOD9564749
Probable space group: P 4/M N C
;
_chemical_formula_sum "Si O2"
_cell_formula_units_Z 112
_cell_length_a 14.864978
_cell_length_b 14.864978
_cell_length_c 28.143045
_cell_angle_alpha 90.000000
_cell_angle_beta 90.000000
_cell_angle_gamma 90.000000
_cell_volume 6218.700293
_symmetry_space_group_name_H-M "P 4/M N C"
_symmetry_group_IT_number 128
_symmetry_cell_setting 'tetragonal'
loop_
_space_group_symop_operation_xyz
x,y,z
-y,x,z
-x,-y,z
y,-x,z
1/2+x,1/2-y,1/2-z
1/2-x,1/2+y,1/2-z
1/2+y,1/2+x,1/2-z
1/2-y,1/2-x,1/2-z
-x,-y,-z
y,-x,-z
x,y,-z
-y,x,-z
1/2-x,1/2+y,1/2+z
1/2+x,1/2-y,1/2+z
1/2-y,1/2-x,1/2+z
1/2+y,1/2+x,1/2+z
loop_
_atom_site_type_symbol
_atom_site_label
_atom_site_fract_x
_atom_site_fract_y
_atom_site_fract_z
Si Si1 0.233929 0.605393 0.500000
Si Si2 0.208909 0.180651 0.636699
Si Si3 0.654344 0.118839 0.586890
Si Si4 0.105679 0.251493 0.000000
Si Si5 0.415263 0.151614 0.920910
Si Si6 0.614451 0.403902 0.771920
Si Si7 0.502920 0.901111 0.661373
Si Si8 0.865003 0.268845 0.205649
O O1 0.321300 0.670337 0.500000
O O2 0.266686 0.501704 0.500000
O O3 0.165328 0.625723 0.543610
O O4 0.148094 0.249532 0.607561
O O5 0.252063 0.107787 0.601609
O O6 0.157345 0.135866 0.680379
O O7 0.295682 0.227664 0.661749
O O8 0.624362 0.189491 0.547083
O O9 0.588202 0.118983 0.632773
O O10 0.652231 0.019295 0.563477
O O11 0.413735 0.077633 0.879507
O O12 0.622264 0.511056 0.771707
O O13 0.668988 0.372481 0.725823
O O14 0.541956 0.818965 0.692136
O O15 0.500000 0.000000 0.685909
O O16 0.824680 0.324680 0.250000
#
# Coordination Sequence:
#
# PCOD9564749 Si02
#       8
#     8  16  16   8  16  16  16  16
#     4  12  23  42  61  88 124 156 197 245 293 360
#     4  10  20  37  56  83 115 152 195 246 300 356
#     4  11  21  35  62  91 115 158 203 243 317 365
#     4  12  25  40  65  92 120 162 197 243 307 362
#     4  10  20  36  59  85 120 149 193 249 290 366
#     4  10  21  37  56  78 111 156 202 245 292 355
#     4   9  19  34  55  86 115 148 191 245 304 361
#     4   9  20  36  55  80 117 151 192 248 300 358
#
# _framework density 18.010193999999998
#
# number of rings (size 3 to 8) (size 9 to 14) (size 15 to 20)
#    0.000    1.857    2.857    1.286    2.000    2.143 
#    0.000    0.000    0.000    0.000    0.000    1.000 
#    0.000    0.000    0.000    0.000    0.000    0.000 
#
# Total GULP energy -624227.094796 kJ/mol
# GULP energy per Si atom -5573.456204 kJ/mol
# Density = 1.796920 g / cm^3
# Si number density = 18.010194 Si / 1000 Ang^3
#
#
#
# Elastic Constant Matrix: (Units=GPa)
#
#
# Indices 1 2 3 4 5 6 
#
# 1 105.4209 17.1867 14.2052 0.0000 0.0000 0.0000
# 2 17.1867 105.4209 14.2052 0.0000 0.0000 0.0000
# 3 14.2052 14.2052 38.8401 0.0000 0.0000 0.0000
# 4 0.0000 0.0000 0.0000 14.9709 0.0000 0.0000
# 5 0.0000 0.0000 0.0000 0.0000 14.9709 0.0000
# 6 0.0000 0.0000 0.0000 0.0000 0.0000 25.8947
#
#
#
# Elastic Compliance Matrix: (Units=1/GPa)
#
#
# Indices 1 2 3 4 5 6 
#
# 1 0.010122 -0.001211 -0.003259 0.000000 0.000000 0.000000
# 2 -0.001211 0.010122 -0.003259 0.000000 0.000000 0.000000
# 3 -0.003259 -0.003259 0.028131 0.000000 0.000000 0.000000
# 4 0.000000 0.000000 0.000000 0.066796 0.000000 0.000000
# 5 0.000000 0.000000 0.000000 0.000000 0.066796 0.000000
# 6 0.000000 0.000000 0.000000 0.000000 0.000000 0.038618
#
#
# Mechanical properties :
#
#
# Convention : Reuss Voigt Hill
#
# Bulk Modulus (GPa) = 30.37994 37.87513 34.12753
# Shear Modulus (GPa) = 20.24151 24.77294 22.50723
#
# Velocity S-wave (km/s) = 3.35609 3.71279 3.53894
# Velocity P-wave (km/s) = 5.65001 6.28134 5.97402
#
# Compressibility (1/GPa) = 0.03291646
#
# Stress axis : x y z
#
# Youngs Moduli (GPa) = 98.79088 98.79088 35.54851
#
# Poissons Ratio (x) = 0.11964 0.11586
# Poissons Ratio (y) = 0.11964 0.11586
# Poissons Ratio (z) = 0.32198 0.32198
#
# Static dielectric constant tensor:
#      x y z
#    x 1.623590 0.000000 0.000000 
#    y 0.000000 1.623590 0.000000 
#    z 0.000000 0.000000 1.611030 
# 
# From -- ./inp_files/6928.got.cif
#   From: 2010.05.17/outbox.cif.g08.bks.cpg/sg128_4_cif.got.tgz:6928.got - 2010.05.20 12:07:25.
