data_PCOD9564581
_publ_section_title
;
Structure prediction by ZEFSAII (Michael W. Deem and Ramdas Pophale) SiO2 
 PCOD9564581
Probable space group: P 4/M N C
;
_chemical_formula_sum "Si O2"
_cell_formula_units_Z 96
_cell_length_a 25.060054
_cell_length_b 25.060054
_cell_length_c 9.346234
_cell_angle_alpha 90.000000
_cell_angle_beta 90.000000
_cell_angle_gamma 90.000000
_cell_volume 5869.493894
_symmetry_space_group_name_H-M "P 4/M N C"
_symmetry_group_IT_number 128
_symmetry_cell_setting 'tetragonal'
loop_
_space_group_symop_operation_xyz
x,y,z
-y,x,z
-x,-y,z
y,-x,z
1/2+x,1/2-y,1/2-z
1/2-x,1/2+y,1/2-z
1/2+y,1/2+x,1/2-z
1/2-y,1/2-x,1/2-z
-x,-y,-z
y,-x,-z
x,y,-z
-y,x,-z
1/2-x,1/2+y,1/2+z
1/2+x,1/2-y,1/2+z
1/2-y,1/2-x,1/2+z
1/2+y,1/2+x,1/2+z
loop_
_atom_site_type_symbol
_atom_site_label
_atom_site_fract_x
_atom_site_fract_y
_atom_site_fract_z
Si Si1 0.669649 0.246691 0.332175
Si Si2 0.446188 0.247903 0.163669
Si Si3 0.751232 0.050196 0.835839
Si Si4 0.759511 0.337635 0.668071
Si Si5 0.548932 0.880378 0.837833
Si Si6 0.053481 0.377069 0.162635
O O1 0.698145 0.198145 0.250000
O O2 0.664131 0.231981 0.500000
O O3 0.610262 0.262557 0.281779
O O4 0.710058 0.296445 0.322244
O O5 0.500217 0.268629 0.239353
O O6 0.393072 0.256232 0.257194
O O7 0.451648 0.183550 0.157463
O O8 0.440608 0.267017 0.000000
O O9 0.686686 0.048739 0.840786
O O10 0.770580 0.044339 0.000000
O O11 0.808249 0.308249 0.750000
O O12 0.772756 0.345467 0.500000
O O13 0.599319 0.900682 0.750000
O O14 0.497083 0.898543 0.750260
O O15 0.549486 0.900536 0.000000
O O16 0.104944 0.395057 0.250000
O O17 0.055064 0.396573 0.000000
#
# Coordination Sequence:
#
# PCOD9564581 Si02
#       6
#    16  16  16  16  16  16
#     4   9  18  31  48  71  97 126 158 192 233 279
#     4  10  20  32  47  67  90 118 152 188 227 272
#     4   9  18  32  48  66  90 119 150 185 225 270
#     4  10  19  31  48  70  97 127 158 193 233 278
#     4  10  20  32  44  58  77 103 139 181 222 263
#     4  10  19  30  44  60  79 105 138 177 220 262
#
# _framework density 16.355754000000001
#
# number of rings (size 3 to 8) (size 9 to 14) (size 15 to 20)
#    0.000    2.333    0.000    3.000    0.000    5.667 
#    0.000    1.667    0.000    0.000    0.000    0.000 
#    0.000    0.667    0.000    7.667    0.000    3.000 
#
# Total GULP energy -535183.745797 kJ/mol
# GULP energy per Si atom -5574.830685 kJ/mol
# Density = 1.631853 g / cm^3
# Si number density = 16.355754 Si / 1000 Ang^3
#
#
#
# Elastic Constant Matrix: (Units=GPa)
#
#
# Indices 1 2 3 4 5 6 
#
# 1 66.2470 7.3800 38.0991 0.0000 0.0000 0.0000
# 2 7.3800 66.2491 38.0987 0.0000 0.0000 0.0000
# 3 38.0991 38.0987 121.0484 0.0000 0.0000 0.0000
# 4 0.0000 0.0000 0.0000 17.7975 0.0000 0.0000
# 5 0.0000 0.0000 0.0000 0.0000 17.7968 0.0000
# 6 0.0000 0.0000 0.0000 0.0000 0.0000 14.3766
#
#
#
# Elastic Compliance Matrix: (Units=1/GPa)
#
#
# Indices 1 2 3 4 5 6 
#
# 1 0.018565 0.001578 -0.006340 0.000000 0.000000 0.000000
# 2 0.001578 0.018565 -0.006340 0.000000 0.000000 0.000000
# 3 -0.006340 -0.006340 0.012252 0.000000 0.000000 0.000000
# 4 0.000000 0.000000 0.000000 0.056188 0.000000 0.000000
# 5 0.000000 0.000000 0.000000 0.000000 0.056190 0.000000
# 6 0.000000 0.000000 0.000000 0.000000 0.000000 0.069558
#
#
# Mechanical properties :
#
#
# Convention : Reuss Voigt Hill
#
# Bulk Modulus (GPa) = 36.79382 46.74445 41.76914
# Shear Modulus (GPa) = 19.04184 21.32530 20.18357
#
# Velocity S-wave (km/s) = 3.41578 3.61479 3.51669
# Velocity P-wave (km/s) = 6.17264 6.78706 6.48713
#
# Compressibility (1/GPa) = 0.02717848
#
# Stress axis : x y z
#
# Youngs Moduli (GPa) = 53.86372 53.86601 81.61982
#
# Poissons Ratio (x) = -0.08499 0.51746
# Poissons Ratio (y) = -0.08499 0.51744
# Poissons Ratio (z) = 0.34149 0.34149
#
# Static dielectric constant tensor:
#      x y z
#    x 1.559470 0.000000 0.000000 
#    y 0.000000 1.559460 0.000000 
#    z 0.000000 0.000000 1.575070 
# 
# From -- ./inp_files/1596.got.cif
#   From: 2010.05.17/outbox.cif.g08.bks.cpg/sg128_1_cif.got.tgz:1596.got - 2010.05.20 12:07:25.
