data_PCOD9564369
_publ_section_title
;
Structure prediction by ZEFSAII (Michael W. Deem and Ramdas Pophale) SiO2 
 PCOD9564369
Probable space group: P 4/M B M
;
_chemical_formula_sum "Si O2"
_cell_formula_units_Z 88
_cell_length_a 13.486622
_cell_length_b 13.486622
_cell_length_c 27.676529
_cell_angle_alpha 90.000000
_cell_angle_beta 90.000000
_cell_angle_gamma 90.000000
_cell_volume 5034.055435
_symmetry_space_group_name_H-M "P 4/M B M"
_symmetry_group_IT_number 127
_symmetry_cell_setting 'tetragonal'
loop_
_space_group_symop_operation_xyz
x,y,z
-y,x,z
-x,-y,z
y,-x,z
1/2+x,1/2-y,-z
1/2-x,1/2+y,-z
1/2+y,1/2+x,-z
1/2-y,1/2-x,-z
-x,-y,-z
y,-x,-z
x,y,-z
-y,x,-z
1/2-x,1/2+y,z
1/2+x,1/2-y,z
1/2-y,1/2-x,z
1/2+y,1/2+x,z
loop_
_atom_site_type_symbol
_atom_site_label
_atom_site_fract_x
_atom_site_fract_y
_atom_site_fract_z
Si Si1 0.665094 0.478483 0.737698
Si Si2 0.832534 0.497510 0.551924
Si Si3 0.766162 0.900451 0.840023
Si Si4 0.406980 0.743594 0.895946
Si Si5 0.332972 0.997221 0.658253
Si Si6 0.650600 0.572369 0.000000
O O1 0.607285 0.582461 0.732333
O O2 0.709572 0.457929 0.790703
O O3 0.752481 0.479512 0.698640
O O4 0.778435 0.504368 0.500000
O O5 0.895871 0.395871 0.551423
O O6 0.784071 0.505245 0.604558
O O7 0.915077 0.584924 0.552092
O O8 0.680450 0.819551 0.832061
O O9 0.860859 0.842661 0.861942
O O10 0.736341 0.981668 0.879516
O O11 0.338868 0.838868 0.889020
O O12 0.401994 0.707984 0.951104
O O13 0.416352 0.083649 0.657789
O O14 0.395131 0.895131 0.666358
O O15 0.544827 0.627174 0.000000
#
# Coordination Sequence:
#
# PCOD9564369 Si02
#       6
#    16  16  16  16  16   8
#     4  11  23  38  58  79 106 147 190 230 273 327
#     4   7  10  20  42  72 104 138 176 219 270 325
#     4  11  23  40  63  86 111 147 190 231 280 337
#     4  11  23  40  62  88 120 151 184 233 281 325
#     4   9  18  32  52  81 114 143 177 228 282 331
#     4  11  21  36  64  91 116 154 194 233 272 324
#
# _framework density 17.480934000000001
#
# number of rings (size 3 to 8) (size 9 to 14) (size 15 to 20)
#    0.000    2.091    3.636    2.455    0.000    2.909 
#    0.000    0.455    0.000    2.182    0.000    6.364 
#    0.000    0.000    0.000    0.000    0.000    0.000 
#
# Total GULP energy -490312.503396 kJ/mol
# GULP energy per Si atom -5571.732993 kJ/mol
# Density = 1.744115 g / cm^3
# Si number density = 17.480934 Si / 1000 Ang^3
#
#
#
# Elastic Constant Matrix: (Units=GPa)
#
#
# Indices 1 2 3 4 5 6 
#
# 1 58.9487 11.2545 35.0179 0.0000 0.0000 0.0000
# 2 11.2545 58.9487 35.0179 0.0000 0.0000 0.0000
# 3 35.0179 35.0179 147.9360 0.0000 0.0000 0.0000
# 4 0.0000 0.0000 0.0000 13.4427 0.0000 0.0000
# 5 0.0000 0.0000 0.0000 0.0000 13.4427 0.0000
# 6 0.0000 0.0000 0.0000 0.0000 0.0000 6.7446
#
#
#
# Elastic Compliance Matrix: (Units=1/GPa)
#
#
# Indices 1 2 3 4 5 6 
#
# 1 0.019807 -0.001159 -0.004414 0.000000 0.000000 0.000000
# 2 -0.001159 0.019807 -0.004414 0.000000 0.000000 0.000000
# 3 -0.004414 -0.004414 0.008849 0.000000 0.000000 0.000000
# 4 0.000000 0.000000 0.000000 0.074390 0.000000 0.000000
# 5 0.000000 0.000000 0.000000 0.000000 0.074390 0.000000
# 6 0.000000 0.000000 0.000000 0.000000 0.000000 0.148267
#
#
# Mechanical properties :
#
#
# Convention : Reuss Voigt Hill
#
# Bulk Modulus (GPa) = 35.10156 47.60157 41.35157
# Shear Modulus (GPa) = 13.33393 19.02885 16.18139
#
# Velocity S-wave (km/s) = 2.76483 3.30290 3.04577
# Velocity P-wave (km/s) = 5.50598 6.46801 6.00629
#
# Compressibility (1/GPa) = 0.02848876
#
# Stress axis : x y z
#
# Youngs Moduli (GPa) = 50.48603 50.48603 113.00163
#
# Poissons Ratio (x) = 0.05854 0.49881
# Poissons Ratio (y) = 0.05854 0.49881
# Poissons Ratio (z) = 0.22285 0.22285
#
# Static dielectric constant tensor:
#      x y z
#    x 1.580840 0.000000 0.000000 
#    y 0.000000 1.580840 0.000000 
#    z 0.000000 0.000000 1.623100 
# 
# From -- ./inp_files/6505.got.cif
#   From: 2010.05.17/outbox.cif.g08.bks.cpg/sg127_4_cif.got.tgz:6505.got - 2010.05.20 12:03:00.
