data_PCOD9564303
_publ_section_title
;
Structure prediction by ZEFSAII (Michael W. Deem and Ramdas Pophale) SiO2 
 PCOD9564303
Probable space group: P 4/M B M
;
_chemical_formula_sum "Si O2"
_cell_formula_units_Z 84
_cell_length_a 12.117822
_cell_length_b 12.117822
_cell_length_c 29.135920
_cell_angle_alpha 90.000000
_cell_angle_beta 90.000000
_cell_angle_gamma 90.000000
_cell_volume 4278.365402
_symmetry_space_group_name_H-M "P 4/M B M"
_symmetry_group_IT_number 127
_symmetry_cell_setting 'tetragonal'
loop_
_space_group_symop_operation_xyz
x,y,z
-y,x,z
-x,-y,z
y,-x,z
1/2+x,1/2-y,-z
1/2-x,1/2+y,-z
1/2+y,1/2+x,-z
1/2-y,1/2-x,-z
-x,-y,-z
y,-x,-z
x,y,-z
-y,x,-z
1/2-x,1/2+y,z
1/2+x,1/2-y,z
1/2-y,1/2-x,z
1/2+y,1/2+x,z
loop_
_atom_site_type_symbol
_atom_site_label
_atom_site_fract_x
_atom_site_fract_y
_atom_site_fract_z
Si Si1 0.179028 0.043762 0.218403
Si Si2 0.333085 0.166916 0.147718
Si Si3 0.004004 0.316438 0.691906
Si Si4 0.982179 0.817297 0.500000
Si Si5 0.403732 0.655576 0.000000
Si Si6 0.687512 0.187512 0.922883
Si Si7 0.000000 0.500000 0.097739
Si Si8 0.505058 0.818037 0.407853
O O1 0.263969 0.084037 0.180128
O O2 0.077797 0.128311 0.213814
O O3 0.238446 0.038041 0.267745
O O4 0.249863 0.250137 0.119860
O O5 0.412349 0.087652 0.118596
O O6 0.120955 0.379046 0.701818
O O7 0.914724 0.414724 0.687602
O O8 0.005483 0.259923 0.641720
O O9 0.978805 0.748575 0.546701
O O10 0.883843 0.904036 0.500000
O O11 0.353331 0.534542 0.000000
O O12 0.365225 0.717728 0.045530
O O13 0.592576 0.092576 0.918963
O O14 0.624719 0.875282 0.412587
O O15 0.416248 0.916248 0.404657
#
# Coordination Sequence:
#
# PCOD9564303 Si02
#       8
#    16   8  16   8   8   8   4  16
#     4  11  25  40  59  91 126 164 214 272 331 394
#     4  12  25  44  67  93 134 181 229 278 342 396
#     4   9  19  37  63  89 115 154 202 260 318 397
#     4  11  24  37  50  76 116 157 194 243 304 378
#     4  10  22  41  70 102 140 185 224 280 340 390
#     4  11  24  44  68 104 140 178 237 285 336 396
#     4  12  26  41  70 100 132 188 230 285 336 402
#     4   9  19  37  60  86 111 143 194 249 309 371
#
# _framework density 19.633666000000002
#
# number of rings (size 3 to 8) (size 9 to 14) (size 15 to 20)
#    0.000    1.714    0.952    4.000    2.667    5.333 
#    0.000    7.619    0.000    0.000    0.000    0.000 
#    0.000    0.000    0.000    0.000    0.000    0.000 
#
# Total GULP energy -468087.824724 kJ/mol
# GULP energy per Si atom -5572.474104 kJ/mol
# Density = 1.958898 g / cm^3
# Si number density = 19.633666 Si / 1000 Ang^3
#
#
#
# Elastic Constant Matrix: (Units=GPa)
#
#
# Indices 1 2 3 4 5 6 
#
# 1 62.3337 56.5608 49.7085 0.0000 0.0000 0.0000
# 2 56.5608 62.3337 49.7085 0.0000 0.0000 0.0000
# 3 49.7085 49.7085 116.3182 0.0000 0.0000 0.0000
# 4 0.0000 0.0000 0.0000 -18.9320 0.0000 0.0000
# 5 0.0000 0.0000 0.0000 0.0000 -18.9320 0.0000
# 6 0.0000 0.0000 0.0000 0.0000 0.0000 45.7981
#
#
#
# Elastic Compliance Matrix: (Units=1/GPa)
#
#
# Indices 1 2 3 4 5 6 
#
# 1 0.093154 -0.080067 -0.005593 0.000000 0.000000 0.000000
# 2 -0.080067 0.093154 -0.005593 0.000000 0.000000 0.000000
# 3 -0.005593 -0.005593 0.013377 0.000000 0.000000 0.000000
# 4 0.000000 0.000000 0.000000 -0.052821 0.000000 0.000000
# 5 0.000000 0.000000 0.000000 0.000000 -0.052821 0.000000
# 6 0.000000 0.000000 0.000000 0.000000 0.000000 0.021835
#
#
# Mechanical properties :
#
#
# Convention : Reuss Voigt Hill
#
# Bulk Modulus (GPa) = 58.20501 61.43792 59.82146
# Shear Modulus (GPa) = 16.44132 7.25403 11.84768
#
# Velocity S-wave (km/s) = 2.89693 1.92424 2.45916
# Velocity P-wave (km/s) = 6.39527 6.02470 6.21275
#
# Compressibility (1/GPa) = 0.01718065
#
# Stress axis : x y z
#
# Youngs Moduli (GPa) = 10.73488 10.73488 74.75302
#
# Poissons Ratio (x) = 0.85951 0.41809
# Poissons Ratio (y) = 0.85951 0.41809
# Poissons Ratio (z) = 0.06004 0.06004
#
# Static dielectric constant tensor:
#      x y z
#    x 1.715770 0.000000 0.000000 
#    y 0.000000 1.715770 0.000000 
#    z 0.000000 0.000000 1.713070 
# 
# From -- ./inp_files/6606.got.cif
#   From: 2010.05.17/outbox.cif.g08.bks.cpg/sg127_4_cif.got.tgz:6606.got - 2010.05.20 12:03:00.
