data_PCOD9564217
_publ_section_title
;
Structure prediction by ZEFSAII (Michael W. Deem and Ramdas Pophale) SiO2 
 PCOD9564217
Probable space group: P 4/M B M
;
_chemical_formula_sum "Si O2"
_cell_formula_units_Z 96
_cell_length_a 13.970866
_cell_length_b 13.970866
_cell_length_c 23.343314
_cell_angle_alpha 90.000000
_cell_angle_beta 90.000000
_cell_angle_gamma 90.000000
_cell_volume 4556.267002
_symmetry_space_group_name_H-M "P 4/M B M"
_symmetry_group_IT_number 127
_symmetry_cell_setting 'tetragonal'
loop_
_space_group_symop_operation_xyz
x,y,z
-y,x,z
-x,-y,z
y,-x,z
1/2+x,1/2-y,-z
1/2-x,1/2+y,-z
1/2+y,1/2+x,-z
1/2-y,1/2-x,-z
-x,-y,-z
y,-x,-z
x,y,-z
-y,x,-z
1/2-x,1/2+y,z
1/2+x,1/2-y,z
1/2-y,1/2-x,z
1/2+y,1/2+x,z
loop_
_atom_site_type_symbol
_atom_site_label
_atom_site_fract_x
_atom_site_fract_y
_atom_site_fract_z
Si Si1 0.283050 0.067036 0.753629
Si Si2 0.163123 0.997216 0.650372
Si Si3 0.133321 0.203999 0.936462
Si Si4 0.000157 0.657834 0.568861
Si Si5 0.654453 0.992700 0.880134
Si Si6 0.600013 0.622699 0.821164
O O1 0.371758 0.128243 0.730399
O O2 0.232623 0.003434 0.705744
O O3 0.199934 0.138702 0.777058
O O4 0.318240 0.018289 0.813081
O O5 0.093474 0.090955 0.650565
O O6 0.238657 0.997727 0.598329
O O7 0.219668 0.280333 0.935735
O O8 0.038104 0.263449 0.919220
O O9 0.148275 0.130258 0.885176
O O10 0.125166 0.162739 0.000000
O O11 0.998934 0.667533 0.500000
O O12 0.908638 0.591363 0.584996
O O13 0.094623 0.594623 0.583623
O O14 0.571064 0.071064 0.882941
O O15 0.608112 0.891889 0.899010
O O16 0.486423 0.626129 0.812191
#
# Coordination Sequence:
#
# PCOD9564217 Si02
#       6
#    16  16  16  16  16  16
#     4  11  22  39  62  87 116 156 207 260 317 381
#     4  11  25  42  61  94 138 178 222 272 326 393
#     4  10  21  38  59  83 109 140 188 248 310 383
#     4   9  20  42  71 102 138 180 227 278 326 373
#     4   9  19  37  60  85 111 142 186 246 315 381
#     4  11  22  38  57  77 110 152 192 241 307 378
#
# _framework density 21.069880999999999
#
# number of rings (size 3 to 8) (size 9 to 14) (size 15 to 20)
#    0.000    1.833    1.667    2.500    0.000    5.000 
#    0.000    6.667    0.000    0.000    0.000    0.000 
#    0.000    0.000    0.000    0.000    0.000    0.000 
#
# Total GULP energy -535590.112242 kJ/mol
# GULP energy per Si atom -5579.063669 kJ/mol
# Density = 2.102193 g / cm^3
# Si number density = 21.069881 Si / 1000 Ang^3
#
#
#
# Elastic Constant Matrix: (Units=GPa)
#
#
# Indices 1 2 3 4 5 6 
#
# 1 49.9080 -13.7230 -1.3905 0.0000 0.0000 0.0000
# 2 -13.7230 49.9080 -1.3905 0.0000 0.0000 0.0000
# 3 -1.3905 -1.3905 69.9398 0.0000 0.0000 0.0000
# 4 0.0000 0.0000 0.0000 33.4758 0.0000 0.0000
# 5 0.0000 0.0000 0.0000 0.0000 33.4758 0.0000
# 6 0.0000 0.0000 0.0000 0.0000 0.0000 23.8457
#
#
#
# Elastic Compliance Matrix: (Units=1/GPa)
#
#
# Indices 1 2 3 4 5 6 
#
# 1 0.021697 0.005981 0.000550 0.000000 0.000000 0.000000
# 2 0.005981 0.021697 0.000550 0.000000 0.000000 0.000000
# 3 0.000550 0.000550 0.014320 0.000000 0.000000 0.000000
# 4 0.000000 0.000000 0.000000 0.029872 0.000000 0.000000
# 5 0.000000 0.000000 0.000000 0.000000 0.029872 0.000000
# 6 0.000000 0.000000 0.000000 0.000000 0.000000 0.041936
#
#
# Mechanical properties :
#
#
# Convention : Reuss Voigt Hill
#
# Bulk Modulus (GPa) = 13.91262 15.19419 14.55341
# Shear Modulus (GPa) = 29.55257 30.57677 30.06467
#
# Velocity S-wave (km/s) = 3.74919 3.81360 3.78153
# Velocity P-wave (km/s) = 5.03580 5.15931 5.09793
#
# Compressibility (1/GPa) = 0.07187719
#
# Stress axis : x y z
#
# Youngs Moduli (GPa) = 46.08962 46.08962 69.83294
#
# Poissons Ratio (x) = -0.27567 -0.03843
# Poissons Ratio (y) = -0.27567 -0.03843
# Poissons Ratio (z) = -0.02536 -0.02536
#
# Static dielectric constant tensor:
#      x y z
#    x 1.805010 0.000000 0.000000 
#    y 0.000000 1.805010 0.000000 
#    z 0.000000 0.000000 1.756290 
# 
# From -- ./inp_files/5779.got.cif
#   From: 2010.05.17/outbox.cif.g08.bks.cpg/sg127_3_cif.got.tgz:5779.got - 2010.05.20 12:03:00.
