data_PCOD9564964
_publ_section_title
;
Structure prediction by ZEFSAII (Michael W. Deem and Ramdas Pophale) SiO2 
 PCOD9564964
Probable space group: P 4/M N C
;
_chemical_formula_sum "Si O2"
_cell_formula_units_Z 96
_cell_length_a 16.861724
_cell_length_b 16.861724
_cell_length_c 18.095912
_cell_angle_alpha 90.000000
_cell_angle_beta 90.000000
_cell_angle_gamma 90.000000
_cell_volume 5144.988735
_symmetry_space_group_name_H-M "P 4/M N C"
_symmetry_group_IT_number 128
_symmetry_cell_setting 'tetragonal'
loop_
_space_group_symop_operation_xyz
x,y,z
-y,x,z
-x,-y,z
y,-x,z
1/2+x,1/2-y,1/2-z
1/2-x,1/2+y,1/2-z
1/2+y,1/2+x,1/2-z
1/2-y,1/2-x,1/2-z
-x,-y,-z
y,-x,-z
x,y,-z
-y,x,-z
1/2-x,1/2+y,1/2+z
1/2+x,1/2-y,1/2+z
1/2-y,1/2-x,1/2+z
1/2+y,1/2+x,1/2+z
loop_
_atom_site_type_symbol
_atom_site_label
_atom_site_fract_x
_atom_site_fract_y
_atom_site_fract_z
Si Si1 0.417092 0.979220 0.670477
Si Si2 0.687413 0.871127 0.650544
Si Si3 0.800303 0.646339 0.139180
Si Si4 0.232836 0.068327 0.500000
Si Si5 0.780019 0.902667 0.204561
Si Si6 0.718896 0.592733 0.291237
Si Si7 0.119830 0.201655 0.500000
O O1 0.437332 0.937332 0.750000
O O2 0.363936 0.921868 0.622479
O O3 0.500000 0.000000 0.634425
O O4 0.371764 0.060974 0.679945
O O5 0.720093 0.900358 0.572097
O O6 0.755830 0.874604 0.712476
O O7 0.641815 0.786906 0.654596
O O8 0.750972 0.611840 0.208647
O O9 0.853445 0.721425 0.160319
O O10 0.742440 0.657970 0.071621
O O11 0.147077 0.111006 0.500000
O O12 0.219280 0.973947 0.500000
O O13 0.867578 0.866457 0.194099
O O14 0.776423 0.998031 0.197143
#
# Coordination Sequence:
#
# PCOD9564964 Si02
#       7
#    16  16  16   8  16  16   8
#     4  11  18  31  59  87 118 147 183 239 298 353
#     4  11  21  38  58  87 118 152 197 233 296 352
#     4  11  20  38  56  86 114 152 192 235 292 355
#     4  12  24  41  58  88 121 159 197 239 283 350
#     4  11  21  37  59  85 112 155 195 243 290 349
#     4  11  21  37  59  83 114 150 198 237 291 348
#     4  12  24  39  60  84 121 157 195 237 287 342
#
# _framework density 18.658933000000001
#
# number of rings (size 3 to 8) (size 9 to 14) (size 15 to 20)
#    0.000    0.833    5.000    7.000    0.000    0.500 
#    0.000    4.167    0.000    4.000    0.000    0.000 
#    0.000    4.000    0.000    0.000    0.000    0.333 
#
# Total GULP energy -535651.344913 kJ/mol
# GULP energy per Si atom -5579.701510 kJ/mol
# Density = 1.861646 g / cm^3
# Si number density = 18.658933 Si / 1000 Ang^3
#
#
#
# Elastic Constant Matrix: (Units=GPa)
#
#
# Indices 1 2 3 4 5 6 
#
# 1 94.0183 67.6829 24.0712 0.0000 0.0000 0.0000
# 2 67.6829 94.0183 24.0712 0.0000 0.0000 0.0000
# 3 24.0712 24.0712 75.9592 0.0000 0.0000 0.0000
# 4 0.0000 0.0000 0.0000 29.6790 0.0000 0.0000
# 5 0.0000 0.0000 0.0000 0.0000 29.6790 0.0000
# 6 0.0000 0.0000 0.0000 0.0000 0.0000 49.7695
#
#
#
# Elastic Compliance Matrix: (Units=1/GPa)
#
#
# Indices 1 2 3 4 5 6 
#
# 1 0.022400 -0.015572 -0.002164 0.000000 0.000000 0.000000
# 2 -0.015572 0.022400 -0.002164 0.000000 0.000000 0.000000
# 3 -0.002164 -0.002164 0.014536 0.000000 0.000000 0.000000
# 4 0.000000 0.000000 0.000000 0.033694 0.000000 0.000000
# 5 0.000000 0.000000 0.000000 0.000000 0.033694 0.000000
# 6 0.000000 0.000000 0.000000 0.000000 0.000000 0.020093
#
#
# Mechanical properties :
#
#
# Convention : Reuss Voigt Hill
#
# Bulk Modulus (GPa) = 51.18301 55.07183 53.12742
# Shear Modulus (GPa) = 25.88949 31.70352 28.79651
#
# Velocity S-wave (km/s) = 3.72897 4.12649 3.93276
# Velocity P-wave (km/s) = 6.78459 7.23070 7.01120
#
# Compressibility (1/GPa) = 0.01953773
#
# Stress axis : x y z
#
# Youngs Moduli (GPa) = 44.64267 44.64267 68.79255
#
# Poissons Ratio (x) = 0.69516 0.14886
# Poissons Ratio (y) = 0.69516 0.14886
# Poissons Ratio (z) = 0.09660 0.09660
#
# Static dielectric constant tensor:
#      x y z
#    x 1.703680 0.000000 0.000000 
#    y 0.000000 1.703680 0.000000 
#    z 0.000000 0.000000 1.647820 
# 
# From -- ./inp_files/4831.got.cif
#   From: 2010.05.17/outbox.cif.g08.bks.cpg/sg128_3_cif.got.tgz:4831.got - 2010.05.20 12:07:25.
