data_PCOD9564045
_publ_section_title
;
Structure prediction by ZEFSAII (Michael W. Deem and Ramdas Pophale) SiO2 
 PCOD9564045
Probable space group: P 4/M B M
;
_chemical_formula_sum "Si O2"
_cell_formula_units_Z 96
_cell_length_a 16.288469
_cell_length_b 16.288469
_cell_length_c 19.630794
_cell_angle_alpha 90.000000
_cell_angle_beta 90.000000
_cell_angle_gamma 90.000000
_cell_volume 5208.328844
_symmetry_space_group_name_H-M "P 4/M B M"
_symmetry_group_IT_number 127
_symmetry_cell_setting 'tetragonal'
loop_
_space_group_symop_operation_xyz
x,y,z
-y,x,z
-x,-y,z
y,-x,z
1/2+x,1/2-y,-z
1/2-x,1/2+y,-z
1/2+y,1/2+x,-z
1/2-y,1/2-x,-z
-x,-y,-z
y,-x,-z
x,y,-z
-y,x,-z
1/2-x,1/2+y,z
1/2+x,1/2-y,z
1/2-y,1/2-x,z
1/2+y,1/2+x,z
loop_
_atom_site_type_symbol
_atom_site_label
_atom_site_fract_x
_atom_site_fract_y
_atom_site_fract_z
Si Si1 0.385697 0.421531 0.319444
Si Si2 0.689598 0.677187 0.803419
Si Si3 0.684727 0.948503 0.818326
Si Si4 0.244606 0.392819 0.580900
Si Si5 0.496469 0.135631 0.328541
Si Si6 0.727280 0.088467 0.922349
O O1 0.479495 0.390007 0.320018
O O2 0.339272 0.387284 0.252913
O O3 0.332520 0.388672 0.382812
O O4 0.772844 0.727157 0.783941
O O5 0.618692 0.744334 0.811105
O O6 0.705904 0.634197 0.875627
O O7 0.599670 0.900331 0.828944
O O8 0.676790 0.993618 0.745706
O O9 0.702954 0.008321 0.880247
O O10 0.250928 0.401923 0.500000
O O11 0.186784 0.313217 0.594898
O O12 0.198118 0.470665 0.614964
O O13 0.563369 0.063369 0.326104
O O14 0.408678 0.091322 0.341467
O O15 0.649213 0.149213 0.924015
O O16 0.752898 0.072758 0.000000
#
# Coordination Sequence:
#
# PCOD9564045 Si02
#       6
#    16  16  16  16  16  16
#     4  11  23  38  58  82 108 141 182 226 271 322
#     4  10  20  36  58  80 105 138 179 226 270 316
#     4  10  20  34  56  83 106 134 175 221 269 321
#     4  10  21  37  57  81 111 146 181 220 270 325
#     4   9  17  31  54  83 112 141 177 223 274 328
#     4  10  21  35  51  75 109 146 180 217 265 318
#
# _framework density 18.432015
#
# number of rings (size 3 to 8) (size 9 to 14) (size 15 to 20)
#    0.000    2.000    0.000    4.000    0.000    5.667 
#    0.000    5.833    0.000    0.000    0.000    3.500 
#    0.000    0.000    0.000    0.000    0.000    0.000 
#
# Total GULP energy -535989.705700 kJ/mol
# GULP energy per Si atom -5583.226101 kJ/mol
# Density = 1.839006 g / cm^3
# Si number density = 18.432015 Si / 1000 Ang^3
#
#
#
# Elastic Constant Matrix: (Units=GPa)
#
#
# Indices 1 2 3 4 5 6 
#
# 1 76.0716 17.0108 56.2142 0.0000 0.0000 0.0000
# 2 17.0108 76.0716 56.2142 0.0000 0.0000 0.0000
# 3 56.2142 56.2142 146.2311 0.0000 0.0000 0.0000
# 4 0.0000 0.0000 0.0000 8.2593 0.0000 0.0000
# 5 0.0000 0.0000 0.0000 0.0000 8.2593 0.0000
# 6 0.0000 0.0000 0.0000 0.0000 0.0000 9.7176
#
#
#
# Elastic Compliance Matrix: (Units=1/GPa)
#
#
# Indices 1 2 3 4 5 6 
#
# 1 0.018493 0.001562 -0.007710 0.000000 0.000000 0.000000
# 2 0.001562 0.018493 -0.007710 0.000000 0.000000 0.000000
# 3 -0.007710 -0.007710 0.012766 0.000000 0.000000 0.000000
# 4 0.000000 0.000000 0.000000 0.121075 0.000000 0.000000
# 5 0.000000 0.000000 0.000000 0.000000 0.121075 0.000000
# 6 0.000000 0.000000 0.000000 0.000000 0.000000 0.102906
#
#
# Mechanical properties :
#
#
# Convention : Reuss Voigt Hill
#
# Bulk Modulus (GPa) = 45.37657 61.91696 53.64676
# Shear Modulus (GPa) = 11.63141 16.50958 14.07050
#
# Velocity S-wave (km/s) = 2.51478 2.99607 2.76592
# Velocity P-wave (km/s) = 5.75361 6.75527 6.27446
#
# Compressibility (1/GPa) = 0.02203781
#
# Stress axis : x y z
#
# Youngs Moduli (GPa) = 54.07328 54.07328 78.33339
#
# Poissons Ratio (x) = -0.08445 0.60392
# Poissons Ratio (y) = -0.08445 0.60392
# Poissons Ratio (z) = 0.41688 0.41688
#
# Static dielectric constant tensor:
#      x y z
#    x 1.645760 0.000000 0.000000 
#    y 0.000000 1.645760 0.000000 
#    z 0.000000 0.000000 1.600250 
# 
# From -- ./inp_files/5112.got.cif
#   From: 2010.05.17/outbox.cif.g08.bks.cpg/sg127_3_cif.got.tgz:5112.got - 2010.05.20 12:03:00.
