data_PCOD9564144
_publ_section_title
;
Structure prediction by ZEFSAII (Michael W. Deem and Ramdas Pophale) SiO2 
 PCOD9564144
Probable space group: P 4/M B M
;
_chemical_formula_sum "Si O2"
_cell_formula_units_Z 96
_cell_length_a 24.696394
_cell_length_b 24.696394
_cell_length_c 7.794466
_cell_angle_alpha 90.000000
_cell_angle_beta 90.000000
_cell_angle_gamma 90.000000
_cell_volume 4753.937385
_symmetry_space_group_name_H-M "P 4/M B M"
_symmetry_group_IT_number 127
_symmetry_cell_setting 'tetragonal'
loop_
_space_group_symop_operation_xyz
x,y,z
-y,x,z
-x,-y,z
y,-x,z
1/2+x,1/2-y,-z
1/2-x,1/2+y,-z
1/2+y,1/2+x,-z
1/2-y,1/2-x,-z
-x,-y,-z
y,-x,-z
x,y,-z
-y,x,-z
1/2-x,1/2+y,z
1/2+x,1/2-y,z
1/2-y,1/2-x,z
1/2+y,1/2+x,z
loop_
_atom_site_type_symbol
_atom_site_label
_atom_site_fract_x
_atom_site_fract_y
_atom_site_fract_z
Si Si1 0.865444 0.720773 0.792869
Si Si2 0.919055 0.966436 0.209593
Si Si3 0.789279 0.512927 0.205651
Si Si4 0.698804 0.430802 0.795880
Si Si5 0.413215 0.999160 0.293108
Si Si6 0.808544 0.222420 0.296039
O O1 0.831136 0.668865 0.731245
O O2 0.830697 0.773223 0.745142
O O3 0.926439 0.720749 0.727176
O O4 0.867117 0.718190 0.000000
O O5 0.861354 0.944380 0.271576
O O6 0.971450 0.931155 0.261489
O O7 0.918828 0.965543 0.000000
O O8 0.745336 0.470492 0.274024
O O9 0.851401 0.497588 0.238572
O O10 0.782718 0.514896 0.000000
O O11 0.715673 0.368875 0.770441
O O12 0.695675 0.440058 0.000000
O O13 0.414214 0.998840 0.500000
O O14 0.450336 0.049665 0.235916
O O15 0.444583 0.944583 0.234537
O O16 0.811664 0.228022 0.500000
O O17 0.773530 0.273530 0.227970
#
# Coordination Sequence:
#
# PCOD9564144 Si02
#       6
#    16  16  16  16  16  16
#     4   9  18  34  57  82 108 138 173 220 273 319
#     4   8  15  29  52  81 107 134 172 216 261 311
#     4  10  21  34  52  84 115 140 175 220 273 328
#     4  10  21  34  54  82 111 143 177 220 268 319
#     4   9  19  36  56  77 104 143 187 226 269 322
#     4  10  22  39  56  75 103 142 185 223 264 317
#
# _framework density 20.193788000000001
#
# number of rings (size 3 to 8) (size 9 to 14) (size 15 to 20)
#    0.000    2.667    0.000    2.000    2.333    4.333 
#    0.000    5.833    0.000    0.000    0.000    1.167 
#    0.000    0.000    0.000    0.000    0.000    0.000 
#
# Total GULP energy -535752.040859 kJ/mol
# GULP energy per Si atom -5580.750426 kJ/mol
# Density = 2.014783 g / cm^3
# Si number density = 20.193788 Si / 1000 Ang^3
#
#
#
# Elastic Constant Matrix: (Units=GPa)
#
#
# Indices 1 2 3 4 5 6 
#
# 1 192.0227 92.0389 0.7384 0.0000 0.0000 0.0000
# 2 92.0389 192.0227 0.7384 0.0000 0.0000 0.0000
# 3 0.7384 0.7384 22.9222 0.0000 0.0000 0.0000
# 4 0.0000 0.0000 0.0000 20.4480 0.0000 0.0000
# 5 0.0000 0.0000 0.0000 0.0000 20.4480 0.0000
# 6 0.0000 0.0000 0.0000 0.0000 0.0000 12.3943
#
#
#
# Elastic Compliance Matrix: (Units=1/GPa)
#
#
# Indices 1 2 3 4 5 6 
#
# 1 0.006761 -0.003240 -0.000113 0.000000 0.000000 0.000000
# 2 -0.003240 0.006761 -0.000113 0.000000 0.000000 0.000000
# 3 -0.000113 -0.000113 0.043633 0.000000 0.000000 0.000000
# 4 0.000000 0.000000 0.000000 0.048904 0.000000 0.000000
# 5 0.000000 0.000000 0.000000 0.000000 0.048904 0.000000
# 6 0.000000 0.000000 0.000000 0.000000 0.000000 0.080682
#
#
# Mechanical properties :
#
#
# Convention : Reuss Voigt Hill
#
# Bulk Modulus (GPa) = 19.91186 65.99990 42.95588
# Shear Modulus (GPa) = 19.28109 31.55487 25.41798
#
# Velocity S-wave (km/s) = 3.09334 3.95727 3.55167
# Velocity P-wave (km/s) = 4.75817 7.32353 6.17553
#
# Compressibility (1/GPa) = 0.05022133
#
# Stress axis : x y z
#
# Youngs Moduli (GPa) = 147.90088 147.90088 22.91836
#
# Poissons Ratio (x) = 0.47925 0.00260
# Poissons Ratio (y) = 0.47925 0.00260
# Poissons Ratio (z) = 0.01678 0.01678
#
# Static dielectric constant tensor:
#      x y z
#    x 1.936140 0.000000 0.000000 
#    y 0.000000 1.936140 0.000000 
#    z 0.000000 0.000000 1.743680 
# 
# From -- ./inp_files/1992.got.cif
#   From: 2010.05.17/outbox.cif.g08.bks.cpg/sg127_1_cif.got.tgz:1992.got - 2010.05.20 12:03:00.
