data_PCOD9564548
_publ_section_title
;
Structure prediction by ZEFSAII (Michael W. Deem and Ramdas Pophale) SiO2 
 PCOD9564548
Probable space group: P 4/M N C
;
_chemical_formula_sum "Si O2"
_cell_formula_units_Z 116
_cell_length_a 26.280836
_cell_length_b 26.280836
_cell_length_c 8.784449
_cell_angle_alpha 90.000000
_cell_angle_beta 90.000000
_cell_angle_gamma 90.000000
_cell_volume 6067.263798
_symmetry_space_group_name_H-M "P 4/M N C"
_symmetry_group_IT_number 128
_symmetry_cell_setting 'tetragonal'
loop_
_space_group_symop_operation_xyz
x,y,z
-y,x,z
-x,-y,z
y,-x,z
1/2+x,1/2-y,1/2-z
1/2-x,1/2+y,1/2-z
1/2+y,1/2+x,1/2-z
1/2-y,1/2-x,1/2-z
-x,-y,-z
y,-x,-z
x,y,-z
-y,x,-z
1/2-x,1/2+y,1/2+z
1/2+x,1/2-y,1/2+z
1/2-y,1/2-x,1/2+z
1/2+y,1/2+x,1/2+z
loop_
_atom_site_type_symbol
_atom_site_label
_atom_site_fract_x
_atom_site_fract_y
_atom_site_fract_z
Si Si1 0.619648 0.736337 0.821662
Si Si2 0.173331 0.853820 0.182382
Si Si3 0.053720 0.102584 0.182391
Si Si4 0.155290 0.579181 0.818542
Si Si5 0.976524 0.691299 0.823119
Si Si6 0.000000 0.000000 0.273326
Si Si7 0.978581 0.196961 0.826192
Si Si8 0.211190 0.366495 0.684626
O O1 0.660589 0.703036 0.733737
O O2 0.609747 0.793813 0.766109
O O3 0.566661 0.707060 0.789793
O O4 0.631069 0.737374 0.000000
O O5 0.129835 0.893917 0.233040
O O6 0.229986 0.867516 0.235121
O O7 0.173163 0.857461 0.000000
O O8 0.011316 0.146681 0.199465
O O9 0.037340 0.050842 0.263294
O O10 0.056899 0.090364 0.000000
O O11 0.106328 0.606328 0.750000
O O12 0.163883 0.521308 0.766979
O O13 0.153861 0.581583 0.000000
O O14 0.987107 0.752252 0.819389
O O15 0.919177 0.684386 0.767254
O O16 0.980200 0.676084 0.000000
O O17 0.957622 0.194127 0.000000
O O18 0.181200 0.318800 0.750000
O O19 0.210855 0.365247 0.500000
#
# Coordination Sequence:
#
# PCOD9564548 Si02
#       8
#    16  16  16  16  16   4  16  16
#     4  10  21  34  49  76 110 140 179 226 276 329
#     4  10  20  36  55  75 106 149 192 234 285 342
#     4  10  18  30  48  74 105 137 185 240 285 326
#     4  10  21  36  56  83 113 145 182 221 265 323
#     4   9  17  34  58  82 109 141 179 222 270 328
#     4  12  21  24  40  80 113 138 185 252 297 318
#     4   9  16  31  55  75  98 138 183 227 275 328
#     4  10  21  37  58  85 113 143 184 230 280 339
#
# _framework density 19.118998999999999
#
# number of rings (size 3 to 8) (size 9 to 14) (size 15 to 20)
#    0.000    2.207    1.379    2.276    0.000    5.517 
#    0.000    3.448    0.000    0.414    0.000    4.828 
#    0.000    0.000    0.000    0.000    0.000    0.000 
#
# Total GULP energy -646250.808307 kJ/mol
# GULP energy per Si atom -5571.127658 kJ/mol
# Density = 1.907548 g / cm^3
# Si number density = 19.118999 Si / 1000 Ang^3
#
#
#
# Elastic Constant Matrix: (Units=GPa)
#
#
# Indices 1 2 3 4 5 6 
#
# 1 51.6834 45.0853 11.6796 0.0000 0.0000 0.0000
# 2 45.0853 51.6928 11.6812 0.0000 0.0000 0.0000
# 3 11.6796 11.6812 7.1471 0.0000 0.0000 0.0000
# 4 0.0000 0.0000 0.0000 16.7603 0.0000 0.0000
# 5 0.0000 0.0000 0.0000 0.0000 16.7590 0.0000
# 6 0.0000 0.0000 0.0000 0.0000 0.0000 32.2327
#
#
#
# Elastic Compliance Matrix: (Units=1/GPa)
#
#
# Indices 1 2 3 4 5 6 
#
# 1 0.084263 -0.067192 -0.027882 0.000000 0.000000 0.000000
# 2 -0.067192 0.084253 -0.027900 0.000000 0.000000 0.000000
# 3 -0.027882 -0.027900 0.231083 0.000000 0.000000 0.000000
# 4 0.000000 0.000000 0.000000 0.059665 0.000000 0.000000
# 5 0.000000 0.000000 0.000000 0.000000 0.059669 0.000000
# 6 0.000000 0.000000 0.000000 0.000000 0.000000 0.031024
#
#
# Mechanical properties :
#
#
# Convention : Reuss Voigt Hill
#
# Bulk Modulus (GPa) = 6.50829 27.49061 16.99945
# Shear Modulus (GPa) = 5.90232 15.95554 10.92893
#
# Velocity S-wave (km/s) = 1.75893 2.89197 2.39347
# Velocity P-wave (km/s) = 2.74529 5.05581 4.06804
#
# Compressibility (1/GPa) = 0.15365026
#
# Stress axis : x y z
#
# Youngs Moduli (GPa) = 11.86756 11.86902 4.32744
#
# Poissons Ratio (x) = 0.79750 0.12066
# Poissons Ratio (y) = 0.79740 0.12074
# Poissons Ratio (z) = 0.33090 0.33115
#
# Static dielectric constant tensor:
#      x y z
#    x 1.672250 0.000000 0.000000 
#    y 0.000000 1.672250 0.000000 
#    z 0.000000 0.000000 1.659000 
# 
# From -- ./inp_files/1814.got.cif
#   From: 2010.05.17/outbox.cif.g08.bks.cpg/sg128_1_cif.got.tgz:1814.got - 2010.05.20 12:07:25.
