data_PCOD9564185
_publ_section_title
;
Structure prediction by ZEFSAII (Michael W. Deem and Ramdas Pophale) SiO2 
 PCOD9564185
Probable space group: P 4/M B M
;
_chemical_formula_sum "Si O2"
_cell_formula_units_Z 120
_cell_length_a 26.366121
_cell_length_b 26.366121
_cell_length_c 9.405620
_cell_angle_alpha 90.000000
_cell_angle_beta 90.000000
_cell_angle_gamma 90.000000
_cell_volume 6538.526832
_symmetry_space_group_name_H-M "P 4/M B M"
_symmetry_group_IT_number 127
_symmetry_cell_setting 'tetragonal'
loop_
_space_group_symop_operation_xyz
x,y,z
-y,x,z
-x,-y,z
y,-x,z
1/2+x,1/2-y,-z
1/2-x,1/2+y,-z
1/2+y,1/2+x,-z
1/2-y,1/2-x,-z
-x,-y,-z
y,-x,-z
x,y,-z
-y,x,-z
1/2-x,1/2+y,z
1/2+x,1/2-y,z
1/2-y,1/2-x,z
1/2+y,1/2+x,z
loop_
_atom_site_type_symbol
_atom_site_label
_atom_site_fract_x
_atom_site_fract_y
_atom_site_fract_z
Si Si1 0.109051 0.935038 0.337235
Si Si2 0.265511 0.681360 0.829422
Si Si3 0.933217 0.234912 0.836680
Si Si4 0.043694 0.543694 0.836684
Si Si5 0.466173 0.768841 0.330662
Si Si6 0.528432 0.112082 0.667293
Si Si7 0.205769 0.866815 0.336125
Si Si8 0.469777 0.376992 0.162297
O O1 0.097078 0.948246 0.500000
O O2 0.148886 0.889265 0.338374
O O3 0.060354 0.919844 0.246525
O O4 0.134837 0.980891 0.254211
O O5 0.218670 0.718670 0.801693
O O6 0.253414 0.623469 0.782359
O O7 0.315944 0.703644 0.755719
O O8 0.274005 0.678890 0.000000
O O9 0.936712 0.173855 0.840922
O O10 0.981799 0.253106 0.747357
O O11 0.938289 0.253416 0.000000
O O12 0.091222 0.518801 0.757157
O O13 0.000000 0.500000 0.832227
O O14 0.055107 0.555107 0.000000
O O15 0.471410 0.757862 0.500000
O O16 0.460381 0.829057 0.309926
O O17 0.414214 0.740465 0.284406
O O18 0.517305 0.104637 0.500000
O O19 0.577011 0.077011 0.701916
O O20 0.220699 0.855643 0.500000
O O21 0.481926 0.391058 0.000000
#
# Coordination Sequence:
#
# PCOD9564185 Si02
#       8
#    16  16  16   8  16  16  16  16
#     4  11  22  37  58  85 115 148 186 234 287 338
#     4  10  22  41  62  85 117 157 201 243 289 349
#     4  10  21  37  58  83 114 154 194 237 287 341
#     4   9  17  31  53  79 107 141 181 223 269 327
#     4  10  21  37  58  87 117 148 190 239 289 345
#     4   9  18  34  56  80 111 150 186 225 278 340
#     4  10  21  36  58  86 115 148 189 237 289 341
#     4  11  22  37  59  85 113 151 193 234 282 346
#
# _framework density 18.352758999999999
#
# number of rings (size 3 to 8) (size 9 to 14) (size 15 to 20)
#    0.000    1.933    2.667    1.000    0.000    4.533 
#    1.200    2.667    0.000    1.600    0.000    0.000 
#    0.000    0.000    0.000    0.000    0.000    0.000 
#
# Total GULP energy -669154.368084 kJ/mol
# GULP energy per Si atom -5576.286401 kJ/mol
# Density = 1.831099 g / cm^3
# Si number density = 18.352759 Si / 1000 Ang^3
#
#
#
# Elastic Constant Matrix: (Units=GPa)
#
#
# Indices 1 2 3 4 5 6 
#
# 1 84.4719 31.8565 46.2660 0.0000 0.0000 0.0000
# 2 31.8565 84.4719 46.2660 0.0000 0.0000 0.0000
# 3 46.2660 46.2660 64.7385 0.0000 0.0000 0.0000
# 4 0.0000 0.0000 0.0000 25.6257 0.0000 0.0000
# 5 0.0000 0.0000 0.0000 0.0000 25.6257 0.0000
# 6 0.0000 0.0000 0.0000 0.0000 0.0000 31.3005
#
#
#
# Elastic Compliance Matrix: (Units=1/GPa)
#
#
# Indices 1 2 3 4 5 6 
#
# 1 0.019463 0.000457 -0.014236 0.000000 0.000000 0.000000
# 2 0.000457 0.019463 -0.014236 0.000000 0.000000 0.000000
# 3 -0.014236 -0.014236 0.035795 0.000000 0.000000 0.000000
# 4 0.000000 0.000000 0.000000 0.039023 0.000000 0.000000
# 5 0.000000 0.000000 0.000000 0.000000 0.039023 0.000000
# 6 0.000000 0.000000 0.000000 0.000000 0.000000 0.031948
#
#
# Mechanical properties :
#
#
# Convention : Reuss Voigt Hill
#
# Bulk Modulus (GPa) = 53.50290 53.60660 53.55475
# Shear Modulus (GPa) = 20.24474 23.79661 22.02068
#
# Velocity S-wave (km/s) = 3.32488 3.60477 3.46765
# Velocity P-wave (km/s) = 6.62990 6.82629 6.72881
#
# Compressibility (1/GPa) = 0.01869057
#
# Stress axis : x y z
#
# Youngs Moduli (GPa) = 51.37909 51.37909 27.93676
#
# Poissons Ratio (x) = -0.02350 0.39772
# Poissons Ratio (y) = -0.02350 0.39772
# Poissons Ratio (z) = 0.73145 0.73145
#
# Static dielectric constant tensor:
#      x y z
#    x 1.638560 0.000000 0.000000 
#    y 0.000000 1.638560 0.000000 
#    z 0.000000 0.000000 1.634350 
# 
# From -- ./inp_files/2359.got.cif
#   From: 2010.05.17/outbox.cif.g08.bks.cpg/sg127_2_cif.got.tgz:2359.got - 2010.05.20 12:03:00.
