data_PCOD9564591
_publ_section_title
;
Structure prediction by ZEFSAII (Michael W. Deem and Ramdas Pophale) SiO2 
 PCOD9564591
Probable space group: P 4/M N C
;
_chemical_formula_sum "Si O2"
_cell_formula_units_Z 88
_cell_length_a 14.180323
_cell_length_b 14.180323
_cell_length_c 21.188789
_cell_angle_alpha 90.000000
_cell_angle_beta 90.000000
_cell_angle_gamma 90.000000
_cell_volume 4260.674755
_symmetry_space_group_name_H-M "P 4/M N C"
_symmetry_group_IT_number 128
_symmetry_cell_setting 'tetragonal'
loop_
_space_group_symop_operation_xyz
x,y,z
-y,x,z
-x,-y,z
y,-x,z
1/2+x,1/2-y,1/2-z
1/2-x,1/2+y,1/2-z
1/2+y,1/2+x,1/2-z
1/2-y,1/2-x,1/2-z
-x,-y,-z
y,-x,-z
x,y,-z
-y,x,-z
1/2-x,1/2+y,1/2+z
1/2+x,1/2-y,1/2+z
1/2-y,1/2-x,1/2+z
1/2+y,1/2+x,1/2+z
loop_
_atom_site_type_symbol
_atom_site_label
_atom_site_fract_x
_atom_site_fract_y
_atom_site_fract_z
Si Si1 0.342211 0.966400 0.795939
Si Si2 0.916062 0.875592 0.364554
Si Si3 0.033882 0.347386 0.500000
Si Si4 0.753685 0.712302 0.500000
Si Si5 0.585881 0.662236 0.000000
Si Si6 0.713955 0.237954 0.357854
Si Si7 0.500000 0.000000 0.395796
Si Si8 0.333349 0.166652 0.250000
O O1 0.409163 0.909163 0.750000
O O2 0.273242 0.887648 0.824697
O O3 0.407358 0.003296 0.852914
O O4 0.311453 0.055741 0.755011
O O5 0.901144 0.901765 0.438378
O O6 0.861029 0.775288 0.359622
O O7 0.023996 0.872362 0.339596
O O8 0.146554 0.341763 0.500000
O O9 0.002850 0.407566 0.560477
O O10 0.994492 0.241992 0.500000
O O11 0.770493 0.823182 0.500000
O O12 0.718663 0.697162 0.427852
O O13 0.782141 0.295440 0.312168
#
# Coordination Sequence:
#
# PCOD9564591 Si02
#       8
#    16  16   8   8   8  16   8   8
#     4  12  24  43  66  97 132 177 234 293 349 426
#     4  10  21  34  55  86 127 178 224 269 342 425
#     4  11  22  36  60  98 134 181 226 286 365 425
#     4  10  21  37  58  92 136 173 222 280 358 416
#     4  10  19  30  54  82 130 173 220 273 335 427
#     4  11  25  42  66  97 139 179 228 299 350 434
#     4  11  23  38  64  92 135 179 228 296 348 432
#     4  12  27  42  72  99 132 186 232 294 364 417
#
# _framework density 20.654005999999999
#
# number of rings (size 3 to 8) (size 9 to 14) (size 15 to 20)
#    0.000    1.091    4.545    2.727    7.636    0.727 
#    0.000    0.909    0.000    0.545    0.000    0.000 
#    0.000    1.455    0.000    0.000    0.000    0.000 
#
# Total GULP energy -490177.559320 kJ/mol
# GULP energy per Si atom -5570.199538 kJ/mol
# Density = 2.060700 g / cm^3
# Si number density = 20.654006 Si / 1000 Ang^3
#
#
#
# Elastic Constant Matrix: (Units=GPa)
#
#
# Indices 1 2 3 4 5 6 
#
# 1 65.8243 24.7863 37.8017 0.0000 0.0000 0.0000
# 2 24.7863 65.8227 37.8005 0.0000 0.0000 0.0000
# 3 37.8017 37.8005 123.0825 0.0000 0.0000 0.0000
# 4 0.0000 0.0000 0.0000 17.5353 0.0000 0.0000
# 5 0.0000 0.0000 0.0000 0.0000 17.5350 0.0000
# 6 0.0000 0.0000 0.0000 0.0000 0.0000 9.9096
#
#
#
# Elastic Compliance Matrix: (Units=1/GPa)
#
#
# Indices 1 2 3 4 5 6 
#
# 1 0.019603 -0.004765 -0.004557 0.000000 0.000000 0.000000
# 2 -0.004765 0.019604 -0.004557 0.000000 0.000000 0.000000
# 3 -0.004557 -0.004557 0.010924 0.000000 0.000000 0.000000
# 4 0.000000 0.000000 0.000000 0.057028 0.000000 0.000000
# 5 0.000000 0.000000 0.000000 0.000000 0.057029 0.000000
# 6 0.000000 0.000000 0.000000 0.000000 0.000000 0.100912
#
#
# Mechanical properties :
#
#
# Convention : Reuss Voigt Hill
#
# Bulk Modulus (GPa) = 44.69807 50.61187 47.65497
# Shear Modulus (GPa) = 16.64913 19.28537 17.96725
#
# Velocity S-wave (km/s) = 2.84226 3.05902 2.95263
# Velocity P-wave (km/s) = 5.69734 6.08561 5.89467
#
# Compressibility (1/GPa) = 0.02237233
#
# Stress axis : x y z
#
# Youngs Moduli (GPa) = 51.01175 51.01091 91.54233
#
# Poissons Ratio (x) = 0.24305 0.41719
# Poissons Ratio (y) = 0.24305 0.41718
# Poissons Ratio (z) = 0.23248 0.23247
#
# Static dielectric constant tensor:
#      x y z
#    x 1.831170 0.000000 0.000000 
#    y 0.000000 1.831170 0.000000 
#    z 0.000000 0.000000 2.207710 
# 
# From -- ./inp_files/5715.got.cif
#   From: 2010.05.17/outbox.cif.g08.bks.cpg/sg128_3_cif.got.tgz:5715.got - 2010.05.20 12:07:25.
