data_PCOD9564852
_publ_section_title
;
Structure prediction by ZEFSAII (Michael W. Deem and Ramdas Pophale) SiO2 
 PCOD9564852
Probable space group: P 4/M N C
;
_chemical_formula_sum "Si O2"
_cell_formula_units_Z 64
_cell_length_a 11.807251
_cell_length_b 11.807251
_cell_length_c 23.018863
_cell_angle_alpha 90.000000
_cell_angle_beta 90.000000
_cell_angle_gamma 90.000000
_cell_volume 3209.086765
_symmetry_space_group_name_H-M "P 4/M N C"
_symmetry_group_IT_number 128
_symmetry_cell_setting 'tetragonal'
loop_
_space_group_symop_operation_xyz
x,y,z
-y,x,z
-x,-y,z
y,-x,z
1/2+x,1/2-y,1/2-z
1/2-x,1/2+y,1/2-z
1/2+y,1/2+x,1/2-z
1/2-y,1/2-x,1/2-z
-x,-y,-z
y,-x,-z
x,y,-z
-y,x,-z
1/2-x,1/2+y,1/2+z
1/2+x,1/2-y,1/2+z
1/2-y,1/2-x,1/2+z
1/2+y,1/2+x,1/2+z
loop_
_atom_site_type_symbol
_atom_site_label
_atom_site_fract_x
_atom_site_fract_y
_atom_site_fract_z
Si Si1 0.209279 0.305872 0.933501
Si Si2 0.089014 0.167731 0.832247
Si Si3 0.363796 0.863796 0.750000
Si Si4 0.500000 0.000000 0.156510
Si Si5 0.571156 0.838011 0.933863
O O1 0.134517 0.239321 0.886891
O O2 0.202198 0.441333 0.927121
O O3 0.337319 0.260275 0.925835
O O4 0.174827 0.279244 0.000000
O O5 0.118940 0.238213 0.774233
O O6 0.954801 0.147423 0.833572
O O7 0.443726 0.905759 0.802593
O O8 0.413958 0.063895 0.113540
O O9 0.584318 0.881581 0.000000
#
# Coordination Sequence:
#
# PCOD9564852 Si02
#       5
#    16  16   8   8  16
#     4  10  22  40  65  98 131 171 212 264 323 383
#     4  11  25  46  66  92 129 166 211 267 322 383
#     4  11  24  42  66  91 120 172 218 257 314 376
#     4  11  21  40  64  94 125 169 214 266 308 379
#     4  10  21  39  65  97 133 170 216 264 323 382
#
# _framework density 19.943369000000001
#
# number of rings (size 3 to 8) (size 9 to 14) (size 15 to 20)
#    0.000    1.500    2.500    1.875    0.000    5.500 
#    0.000    3.750    0.000    0.000    0.000    0.000 
#    0.000    0.000    0.000    0.000    0.000    0.000 
#
# Total GULP energy -357504.282390 kJ/mol
# GULP energy per Si atom -5586.004412 kJ/mol
# Density = 1.989798 g / cm^3
# Si number density = 19.943369 Si / 1000 Ang^3
#
#
#
# Elastic Constant Matrix: (Units=GPa)
#
#
# Indices 1 2 3 4 5 6 
#
# 1 134.5341 68.7887 75.3620 0.0000 0.0000 0.0000
# 2 68.7887 134.5341 75.3620 0.0000 0.0000 0.0000
# 3 75.3620 75.3620 143.9897 0.0000 0.0000 0.0000
# 4 0.0000 0.0000 0.0000 28.2231 0.0000 0.0000
# 5 0.0000 0.0000 0.0000 0.0000 28.2231 0.0000
# 6 0.0000 0.0000 0.0000 0.0000 0.0000 31.6289
#
#
#
# Elastic Compliance Matrix: (Units=1/GPa)
#
#
# Indices 1 2 3 4 5 6 
#
# 1 0.011623 -0.003587 -0.004206 0.000000 0.000000 0.000000
# 2 -0.003587 0.011623 -0.004206 0.000000 0.000000 0.000000
# 3 -0.004206 -0.004206 0.011348 0.000000 0.000000 0.000000
# 4 0.000000 0.000000 0.000000 0.035432 0.000000 0.000000
# 5 0.000000 0.000000 0.000000 0.000000 0.035432 0.000000
# 6 0.000000 0.000000 0.000000 0.000000 0.000000 0.031617
#
#
# Mechanical properties :
#
#
# Convention : Reuss Voigt Hill
#
# Bulk Modulus (GPa) = 94.37518 94.67591 94.52555
# Shear Modulus (GPa) = 30.37577 30.51803 30.44690
#
# Velocity S-wave (km/s) = 3.90693 3.91607 3.91150
# Velocity P-wave (km/s) = 8.23264 8.24760 8.24012
#
# Compressibility (1/GPa) = 0.01059601
#
# Stress axis : x y z
#
# Youngs Moduli (GPa) = 86.03466 86.03466 88.12356
#
# Poissons Ratio (x) = 0.30860 0.37065
# Poissons Ratio (y) = 0.30860 0.37065
# Poissons Ratio (z) = 0.36187 0.36187
#
# Static dielectric constant tensor:
#      x y z
#    x 1.706320 0.000000 0.000000 
#    y 0.000000 1.706320 0.000000 
#    z 0.000000 0.000000 1.718390 
# 
# From -- ./inp_files/6260.got.cif
#   From: 2010.05.17/outbox.cif.g08.bks.cpg/sg128_4_cif.got.tgz:6260.got - 2010.05.20 12:07:25.
