data_PCOD9564635
_publ_section_title
;
Structure prediction by ZEFSAII (Michael W. Deem and Ramdas Pophale) SiO2 
 PCOD9564635
Probable space group: P 4/M N C
;
_chemical_formula_sum "Si O2"
_cell_formula_units_Z 108
_cell_length_a 14.435238
_cell_length_b 14.435238
_cell_length_c 25.102816
_cell_angle_alpha 90.000000
_cell_angle_beta 90.000000
_cell_angle_gamma 90.000000
_cell_volume 5230.826800
_symmetry_space_group_name_H-M "P 4/M N C"
_symmetry_group_IT_number 128
_symmetry_cell_setting 'tetragonal'
loop_
_space_group_symop_operation_xyz
x,y,z
-y,x,z
-x,-y,z
y,-x,z
1/2+x,1/2-y,1/2-z
1/2-x,1/2+y,1/2-z
1/2+y,1/2+x,1/2-z
1/2-y,1/2-x,1/2-z
-x,-y,-z
y,-x,-z
x,y,-z
-y,x,-z
1/2-x,1/2+y,1/2+z
1/2+x,1/2-y,1/2+z
1/2-y,1/2-x,1/2+z
1/2+y,1/2+x,1/2+z
loop_
_atom_site_type_symbol
_atom_site_label
_atom_site_fract_x
_atom_site_fract_y
_atom_site_fract_z
Si Si1 0.644248 0.439939 0.000000
Si Si2 0.159821 0.447855 0.830061
Si Si3 0.754456 0.736807 0.307962
Si Si4 0.283090 0.098303 0.940293
Si Si5 0.619537 0.399937 0.633987
Si Si6 0.567672 0.089062 0.442845
Si Si7 0.000000 0.500000 0.750000
Si Si8 0.751608 0.898062 0.388198
O O1 0.617559 0.548426 0.000000
O O2 0.696742 0.417971 0.056036
O O3 0.182384 0.350412 0.803758
O O4 0.120691 0.421506 0.888347
O O5 0.087554 0.497978 0.790414
O O6 0.242452 0.516057 0.847835
O O7 0.726520 0.773481 0.250000
O O8 0.667785 0.675419 0.326952
O O9 0.783228 0.812574 0.352107
O O10 0.179146 0.114685 0.920134
O O11 0.359727 0.150121 0.904909
O O12 0.316937 0.992356 0.940108
O O13 0.292286 0.133973 0.000000
O O14 0.624887 0.511505 0.639512
O O15 0.619956 0.088682 0.500000
O O16 0.500000 0.000000 0.445294
#
# Coordination Sequence:
#
# PCOD9564635 Si02
#       8
#     8  16  16  16  16  16   4  16
#     4  11  24  44  68  97 136 177 234 291 356 441
#     4  12  23  41  66  97 139 178 233 293 360 427
#     4  11  26  45  66 100 135 176 241 295 352 433
#     4  10  19  36  61  95 134 169 220 269 330 413
#     4  10  23  43  67  93 133 183 228 277 338 416
#     4  10  19  33  59  98 135 174 212 272 343 417
#     4  12  24  40  66 104 132 184 228 298 372 428
#     4  11  23  41  66  96 131 182 222 287 365 420
#
# _framework density 20.646830999999999
#
# number of rings (size 3 to 8) (size 9 to 14) (size 15 to 20)
#    0.000    1.259    3.704    1.778    2.074    2.963 
#    1.333    2.222    0.000    1.778    0.000    0.000 
#    0.000    0.000    0.000    0.000    0.000    0.000 
#
# Total GULP energy -601626.869495 kJ/mol
# GULP energy per Si atom -5570.619162 kJ/mol
# Density = 2.059984 g / cm^3
# Si number density = 20.646831 Si / 1000 Ang^3
#
#
#
# Elastic Constant Matrix: (Units=GPa)
#
#
# Indices 1 2 3 4 5 6 
#
# 1 78.9681 20.6498 32.7237 0.0000 0.0000 0.0000
# 2 20.6498 78.9681 32.7236 0.0000 0.0000 0.0000
# 3 32.7237 32.7236 121.6896 0.0000 0.0000 0.0000
# 4 0.0000 0.0000 0.0000 -40.1491 0.0000 0.0000
# 5 0.0000 0.0000 0.0000 0.0000 -40.1279 0.0000
# 6 0.0000 0.0000 0.0000 0.0000 0.0000 18.9950
#
#
#
# Elastic Compliance Matrix: (Units=1/GPa)
#
#
# Indices 1 2 3 4 5 6 
#
# 1 0.014670 -0.002477 -0.003279 0.000000 0.000000 0.000000
# 2 -0.002477 0.014670 -0.003279 0.000000 0.000000 0.000000
# 3 -0.003279 -0.003279 0.009981 0.000000 0.000000 0.000000
# 4 0.000000 0.000000 0.000000 -0.024907 0.000000 0.000000
# 5 0.000000 0.000000 0.000000 0.000000 -0.024920 0.000000
# 6 0.000000 0.000000 0.000000 0.000000 0.000000 0.052645
#
#
# Mechanical properties :
#
#
# Convention : Reuss Voigt Hill
#
# Bulk Modulus (GPa) = 47.05642 50.20221 48.62931
# Shear Modulus (GPa) = 74.30344 0.64553 37.47449
#
# Velocity S-wave (km/s) = 6.00549 0.55976 4.26493
# Velocity P-wave (km/s) = 8.42191 4.97848 6.91787
#
# Compressibility (1/GPa) = 0.02125109
#
# Stress axis : x y z
#
# Youngs Moduli (GPa) = 68.16712 68.16718 100.19076
#
# Poissons Ratio (x) = 0.16888 0.32849
# Poissons Ratio (y) = 0.16888 0.32849
# Poissons Ratio (z) = 0.22350 0.22350
#
# Static dielectric constant tensor:
#      x y z
#    x 1.790790 0.000000 0.000000 
#    y 0.000000 1.790790 0.000000 
#    z 0.000000 0.000000 1.818170 
# 
# From -- ./inp_files/6498.got.cif
#   From: 2010.05.17/outbox.cif.g08.bks.cpg/sg128_4_cif.got.tgz:6498.got - 2010.05.20 12:07:25.
