data_PCOD9564794
_publ_section_title
;
Structure prediction by ZEFSAII (Michael W. Deem and Ramdas Pophale) SiO2 
 PCOD9564794
Probable space group: P 4/M N C
;
_chemical_formula_sum "Si O2"
_cell_formula_units_Z 80
_cell_length_a 16.980112
_cell_length_b 16.980112
_cell_length_c 13.937986
_cell_angle_alpha 90.000000
_cell_angle_beta 90.000000
_cell_angle_gamma 90.000000
_cell_volume 4018.658712
_symmetry_space_group_name_H-M "P 4/M N C"
_symmetry_group_IT_number 128
_symmetry_cell_setting 'tetragonal'
loop_
_space_group_symop_operation_xyz
x,y,z
-y,x,z
-x,-y,z
y,-x,z
1/2+x,1/2-y,1/2-z
1/2-x,1/2+y,1/2-z
1/2+y,1/2+x,1/2-z
1/2-y,1/2-x,1/2-z
-x,-y,-z
y,-x,-z
x,y,-z
-y,x,-z
1/2-x,1/2+y,1/2+z
1/2+x,1/2-y,1/2+z
1/2-y,1/2-x,1/2+z
1/2+y,1/2+x,1/2+z
loop_
_atom_site_type_symbol
_atom_site_label
_atom_site_fract_x
_atom_site_fract_y
_atom_site_fract_z
Si Si1 0.488829 0.742978 0.388751
Si Si2 0.172379 0.315700 0.112105
Si Si3 0.167326 0.720555 0.884817
Si Si4 0.924920 0.798950 0.301556
Si Si5 0.905492 0.208881 0.613704
O O1 0.489824 0.715060 0.500000
O O2 0.422176 0.811526 0.385398
O O3 0.576796 0.766677 0.357214
O O4 0.455138 0.686547 0.306427
O O5 0.208578 0.228775 0.135615
O O6 0.217737 0.376976 0.179034
O O7 0.194565 0.331226 0.000000
O O8 0.213407 0.642300 0.851743
O O9 0.162613 0.715643 0.000000
O O10 0.866076 0.865720 0.336762
O O11 0.003140 0.790604 0.364146
O O12 0.892490 0.202620 0.500000
#
# Coordination Sequence:
#
# PCOD9564794 Si02
#       5
#    16  16  16  16  16
#     4  10  21  36  57  88 121 157 201 248 295 359
#     4   9  18  36  61  84 116 156 201 250 299 356
#     4   8  17  35  59  85 115 155 196 242 300 354
#     4  11  22  36  59  91 119 160 204 246 306 359
#     4  10  21  39  62  87 119 156 202 255 303 359
#
# _framework density 19.907139000000001
#
# number of rings (size 3 to 8) (size 9 to 14) (size 15 to 20)
#    0.000    2.400    0.000    3.600    2.800    1.200 
#    0.000    2.000    0.000    7.800    0.000    5.600 
#    0.000    0.000    0.000    0.000    0.000    0.000 
#
# Total GULP energy -446128.077561 kJ/mol
# GULP energy per Si atom -5576.600970 kJ/mol
# Density = 1.986183 g / cm^3
# Si number density = 19.907139 Si / 1000 Ang^3
#
#
#
# Elastic Constant Matrix: (Units=GPa)
#
#
# Indices 1 2 3 4 5 6 
#
# 1 227.4159 -34.2593 35.7300 0.0000 0.0000 0.0000
# 2 -34.2593 227.4159 35.7300 0.0000 0.0000 0.0000
# 3 35.7300 35.7300 122.2525 0.0000 0.0000 0.0000
# 4 0.0000 0.0000 0.0000 33.3908 0.0000 0.0000
# 5 0.0000 0.0000 0.0000 0.0000 33.3908 0.0000
# 6 0.0000 0.0000 0.0000 0.0000 0.0000 4.6576
#
#
#
# Elastic Compliance Matrix: (Units=1/GPa)
#
#
# Indices 1 2 3 4 5 6 
#
# 1 0.004813 0.000992 -0.001697 0.000000 0.000000 0.000000
# 2 0.000992 0.004813 -0.001697 0.000000 0.000000 0.000000
# 3 -0.001697 -0.001697 0.009171 0.000000 0.000000 0.000000
# 4 0.000000 0.000000 0.000000 0.029948 0.000000 0.000000
# 5 0.000000 0.000000 0.000000 0.000000 0.029948 0.000000
# 6 0.000000 0.000000 0.000000 0.000000 0.000000 0.214704
#
#
# Mechanical properties :
#
#
# Convention : Reuss Voigt Hill
#
# Bulk Modulus (GPa) = 71.45450 72.38731 71.92090
# Shear Modulus (GPa) = 16.50891 50.28008 33.39450
#
# Velocity S-wave (km/s) = 2.88287 5.03112 4.10019
# Velocity P-wave (km/s) = 6.85953 8.37800 7.65650
#
# Compressibility (1/GPa) = 0.01399492
#
# Stress axis : x y z
#
# Youngs Moduli (GPa) = 207.76360 207.76360 109.03388
#
# Poissons Ratio (x) = -0.20602 0.18498
# Poissons Ratio (y) = -0.20602 0.18498
# Poissons Ratio (z) = 0.35248 0.35248
#
# Static dielectric constant tensor:
#      x y z
#    x 1.687590 0.000000 0.000000 
#    y 0.000000 1.687590 0.000000 
#    z 0.000000 0.000000 1.812630 
# 
# From -- ./inp_files/3677.got.cif
#   From: 2010.05.17/outbox.cif.g08.bks.cpg/sg128_2_cif.got.tgz:3677.got - 2010.05.20 12:07:25.
