data_PCOD9564189
_publ_section_title
;
Structure prediction by ZEFSAII (Michael W. Deem and Ramdas Pophale) SiO2 
 PCOD9564189
Probable space group: P 4/M B M
;
_chemical_formula_sum "Si O2"
_cell_formula_units_Z 56
_cell_length_a 20.786561
_cell_length_b 20.786561
_cell_length_c 7.517504
_cell_angle_alpha 90.000000
_cell_angle_beta 90.000000
_cell_angle_gamma 90.000000
_cell_volume 3248.171534
_symmetry_space_group_name_H-M "P 4/M B M"
_symmetry_group_IT_number 127
_symmetry_cell_setting 'tetragonal'
loop_
_space_group_symop_operation_xyz
x,y,z
-y,x,z
-x,-y,z
y,-x,z
1/2+x,1/2-y,-z
1/2-x,1/2+y,-z
1/2+y,1/2+x,-z
1/2-y,1/2-x,-z
-x,-y,-z
y,-x,-z
x,y,-z
-y,x,-z
1/2-x,1/2+y,z
1/2+x,1/2-y,z
1/2-y,1/2-x,z
1/2+y,1/2+x,z
loop_
_atom_site_type_symbol
_atom_site_label
_atom_site_fract_x
_atom_site_fract_y
_atom_site_fract_z
Si Si1 0.987237 0.303260 0.710560
Si Si2 0.552677 0.947323 0.716543
Si Si3 0.610631 0.340768 0.000000
Si Si4 0.301911 0.536717 0.000000
Si Si5 0.633049 0.237972 0.291639
O O1 0.972880 0.295208 0.500000
O O2 0.965000 0.374378 0.767652
O O3 0.064331 0.297131 0.732961
O O4 0.958893 0.246041 0.830396
O O5 0.551029 0.948971 0.500000
O O6 0.500000 0.000000 0.777249
O O7 0.533268 0.335682 0.000000
O O8 0.643754 0.409463 0.000000
O O9 0.633246 0.300649 0.828497
O O10 0.639009 0.253374 0.500000
O O11 0.689429 0.189429 0.240832
#
# Coordination Sequence:
#
# PCOD9564189 Si02
#       5
#    16   8   8   8  16
#     4   9  18  33  52  76 108 139 169 209 252 297
#     4   9  16  29  51  79 110 147 179 200 237 299
#     4  10  21  37  55  76  99 130 169 220 267 316
#     4  10  22  38  55  73  98 131 172 220 274 311
#     4   9  17  32  54  78 103 136 174 208 246 297
#
# _framework density 17.240468
#
# number of rings (size 3 to 8) (size 9 to 14) (size 15 to 20)
#    0.000    2.714    0.000    1.286    0.000    5.429 
#    5.143    2.857    0.000    0.000    0.000    8.000 
#    0.000    0.000    0.000    0.000    0.000    0.000 
#
# Total GULP energy -312336.742540 kJ/mol
# GULP energy per Si atom -5577.441831 kJ/mol
# Density = 1.720123 g / cm^3
# Si number density = 17.240468 Si / 1000 Ang^3
#
#
#
# Elastic Constant Matrix: (Units=GPa)
#
#
# Indices 1 2 3 4 5 6 
#
# 1 108.7428 96.4702 54.1552 0.0000 0.0000 0.0000
# 2 96.4702 108.7427 54.1552 0.0000 0.0000 0.0000
# 3 54.1552 54.1552 66.0761 0.0000 0.0000 0.0000
# 4 0.0000 0.0000 0.0000 15.8288 0.0000 0.0000
# 5 0.0000 0.0000 0.0000 0.0000 15.8294 0.0000
# 6 0.0000 0.0000 0.0000 0.0000 0.0000 35.4978
#
#
#
# Elastic Compliance Matrix: (Units=1/GPa)
#
#
# Indices 1 2 3 4 5 6 
#
# 1 0.045035 -0.036447 -0.007038 0.000000 0.000000 0.000000
# 2 -0.036447 0.045035 -0.007039 0.000000 0.000000 0.000000
# 3 -0.007038 -0.007039 0.026671 0.000000 0.000000 0.000000
# 4 0.000000 0.000000 0.000000 0.063176 0.000000 0.000000
# 5 0.000000 0.000000 0.000000 0.000000 0.063174 0.000000
# 6 0.000000 0.000000 0.000000 0.000000 0.000000 0.028171
#
#
# Mechanical properties :
#
#
# Convention : Reuss Voigt Hill
#
# Bulk Modulus (GPa) = 63.72221 77.01363 70.36792
# Shear Modulus (GPa) = 13.24354 18.68327 15.96341
#
# Velocity S-wave (km/s) = 2.77459 3.29551 3.04621
# Velocity P-wave (km/s) = 6.87790 7.69726 7.29909
#
# Compressibility (1/GPa) = 0.01569311
#
# Stress axis : x y z
#
# Youngs Moduli (GPa) = 22.20482 22.20474 37.49323
#
# Poissons Ratio (x) = 0.80931 0.26389
# Poissons Ratio (y) = 0.80931 0.26390
# Poissons Ratio (z) = 0.15629 0.15629
#
# Static dielectric constant tensor:
#      x y z
#    x 1.552990 0.000000 0.000000 
#    y 0.000000 1.552990 0.000000 
#    z 0.000000 0.000000 1.616650 
# 
# From -- ./inp_files/1140.got.cif
#   From: 2010.05.17/outbox.cif.g08.bks.cpg/sg127_1_cif.got.tgz:1140.got - 2010.05.20 12:03:00.
