data_PCOD9564812
_publ_section_title
;
Structure prediction by ZEFSAII (Michael W. Deem and Ramdas Pophale) SiO2 
 PCOD9564812
Probable space group: P 4/M N C
;
_chemical_formula_sum "Si O2"
_cell_formula_units_Z 96
_cell_length_a 14.774472
_cell_length_b 14.774472
_cell_length_c 19.049164
_cell_angle_alpha 90.000000
_cell_angle_beta 90.000000
_cell_angle_gamma 90.000000
_cell_volume 4158.147200
_symmetry_space_group_name_H-M "P 4/M N C"
_symmetry_group_IT_number 128
_symmetry_cell_setting 'tetragonal'
loop_
_space_group_symop_operation_xyz
x,y,z
-y,x,z
-x,-y,z
y,-x,z
1/2+x,1/2-y,1/2-z
1/2-x,1/2+y,1/2-z
1/2+y,1/2+x,1/2-z
1/2-y,1/2-x,1/2-z
-x,-y,-z
y,-x,-z
x,y,-z
-y,x,-z
1/2-x,1/2+y,1/2+z
1/2+x,1/2-y,1/2+z
1/2-y,1/2-x,1/2+z
1/2+y,1/2+x,1/2+z
loop_
_atom_site_type_symbol
_atom_site_label
_atom_site_fract_x
_atom_site_fract_y
_atom_site_fract_z
Si Si1 0.591421 0.952435 0.383792
Si Si2 0.877561 0.683080 0.347769
Si Si3 0.927804 0.255355 0.500000
Si Si4 0.389838 0.689505 0.352431
Si Si5 0.745870 0.626231 0.000000
Si Si6 0.075992 0.122808 0.297875
Si Si7 0.241422 0.566150 0.582650
O O1 0.676675 0.934448 0.434371
O O2 0.563405 0.849058 0.369264
O O3 0.500000 0.000000 0.413191
O O4 0.630954 0.028714 0.331169
O O5 0.787833 0.635148 0.321389
O O6 0.866454 0.689010 0.432549
O O7 0.879892 0.787763 0.327671
O O8 0.837047 0.196549 0.500000
O O9 0.024326 0.204236 0.500000
O O10 0.415579 0.628246 0.286198
O O11 0.474945 0.703018 0.402788
O O12 0.304455 0.648404 0.392976
O O13 0.971184 0.120534 0.320197
O O14 0.218311 0.571787 0.500000
#
# Coordination Sequence:
#
# PCOD9564812 Si02
#       7
#    16  16   8  16   8  16  16
#     4  11  22  42  65 101 138 183 222 273 353 417
#     4  11  26  43  72 101 141 182 235 287 348 416
#     4  10  21  37  60  92 143 176 217 275 333 424
#     4  12  25  48  72 104 139 187 236 291 345 420
#     4  10  24  39  64 106 139 176 226 293 344 409
#     4  11  26  50  72  95 135 191 238 287 349 412
#     4  12  26  42  75 108 145 181 227 288 356 418
#
# _framework density 23.087205999999998
#
# number of rings (size 3 to 8) (size 9 to 14) (size 15 to 20)
#    0.000    0.833    4.167    2.250    9.333    0.500 
#    0.000    1.667    0.000    0.000    0.000    0.000 
#    0.000    0.000    0.000    0.000    0.000    0.000 
#
# Total GULP energy -536465.748205 kJ/mol
# GULP energy per Si atom -5588.184877 kJ/mol
# Density = 2.303466 g / cm^3
# Si number density = 23.087206 Si / 1000 Ang^3
#
#
#
# Elastic Constant Matrix: (Units=GPa)
#
#
# Indices 1 2 3 4 5 6 
#
# 1 96.4564 26.5751 -8.8173 0.0000 0.0000 0.0000
# 2 26.5751 96.4564 -8.8173 0.0000 0.0000 0.0000
# 3 -8.8173 -8.8173 32.5525 0.0000 0.0000 0.0000
# 4 0.0000 0.0000 0.0000 25.0133 0.0000 0.0000
# 5 0.0000 0.0000 0.0000 0.0000 25.0133 0.0000
# 6 0.0000 0.0000 0.0000 0.0000 0.0000 50.4214
#
#
#
# Elastic Compliance Matrix: (Units=1/GPa)
#
#
# Indices 1 2 3 4 5 6 
#
# 1 0.011383 -0.002927 0.002291 0.000000 0.000000 0.000000
# 2 -0.002927 0.011383 0.002291 0.000000 0.000000 0.000000
# 3 0.002291 0.002291 0.031960 0.000000 0.000000 0.000000
# 4 0.000000 0.000000 0.000000 0.039979 0.000000 0.000000
# 5 0.000000 0.000000 0.000000 0.000000 0.039979 0.000000
# 6 0.000000 0.000000 0.000000 0.000000 0.000000 0.019833
#
#
# Mechanical properties :
#
#
# Convention : Reuss Voigt Hill
#
# Bulk Modulus (GPa) = 17.23096 27.03849 22.13472
# Shear Modulus (GPa) = 29.31627 34.52459 31.92043
#
# Velocity S-wave (km/s) = 3.56730 3.87123 3.72237
# Velocity P-wave (km/s) = 4.94440 5.63195 5.29934
#
# Compressibility (1/GPa) = 0.05803509
#
# Stress axis : x y z
#
# Youngs Moduli (GPa) = 87.84923 87.84923 31.28867
#
# Poissons Ratio (x) = 0.25712 -0.07167
# Poissons Ratio (y) = 0.25712 -0.07167
# Poissons Ratio (z) = -0.20122 -0.20122
#
# Static dielectric constant tensor:
#      x y z
#    x 1.857900 0.000000 0.000000 
#    y 0.000000 1.857900 0.000000 
#    z 0.000000 0.000000 1.885890 
# 
# From -- ./inp_files/5813.got.cif
#   From: 2010.05.17/outbox.cif.g08.bks.cpg/sg128_3_cif.got.tgz:5813.got - 2010.05.20 12:07:25.
