data_PCOD9564008
_publ_section_title
;
Structure prediction by ZEFSAII (Michael W. Deem and Ramdas Pophale) SiO2 
 PCOD9564008
Probable space group: P 4/M B M
;
_chemical_formula_sum "Si O2"
_cell_formula_units_Z 120
_cell_length_a 27.149653
_cell_length_b 27.149653
_cell_length_c 9.217645
_cell_angle_alpha 90.000000
_cell_angle_beta 90.000000
_cell_angle_gamma 90.000000
_cell_volume 6794.359848
_symmetry_space_group_name_H-M "P 4/M B M"
_symmetry_group_IT_number 127
_symmetry_cell_setting 'tetragonal'
loop_
_space_group_symop_operation_xyz
x,y,z
-y,x,z
-x,-y,z
y,-x,z
1/2+x,1/2-y,-z
1/2-x,1/2+y,-z
1/2+y,1/2+x,-z
1/2-y,1/2-x,-z
-x,-y,-z
y,-x,-z
x,y,-z
-y,x,-z
1/2-x,1/2+y,z
1/2+x,1/2-y,z
1/2-y,1/2-x,z
1/2+y,1/2+x,z
loop_
_atom_site_type_symbol
_atom_site_label
_atom_site_fract_x
_atom_site_fract_y
_atom_site_fract_z
Si Si1 0.459720 0.040281 0.176512
Si Si2 0.587377 0.759220 0.827589
Si Si3 0.268700 0.684962 0.334618
Si Si4 0.508905 0.692043 0.671935
Si Si5 0.496996 0.579478 0.323670
Si Si6 0.014443 0.651730 0.174051
Si Si7 0.246454 0.337378 0.165830
Si Si8 0.434838 0.782042 0.329358
O O1 0.404084 0.026112 0.219820
O O2 0.500000 0.000000 0.224481
O O3 0.459841 0.040160 0.000000
O O4 0.639248 0.754380 0.749191
O O5 0.552574 0.716560 0.763169
O O6 0.560219 0.811317 0.798505
O O7 0.592650 0.754196 0.000000
O O8 0.281357 0.671706 0.500000
O O9 0.228292 0.728292 0.338450
O O10 0.315656 0.706678 0.250535
O O11 0.521943 0.691016 0.500000
O O12 0.497011 0.636459 0.720119
O O13 0.463662 0.730034 0.686974
O O14 0.450340 0.546154 0.277985
O O15 0.496374 0.579311 0.500000
O O16 0.968490 0.676036 0.256275
O O17 0.005373 0.652223 0.000000
O O18 0.205852 0.294149 0.163027
O O19 0.223710 0.383376 0.249119
O O20 0.258802 0.350169 0.000000
O O21 0.428663 0.791682 0.500000
#
# Coordination Sequence:
#
# PCOD9564008 Si02
#       8
#     8  16  16  16  16  16  16  16
#     4   9  18  34  57  83 107 133 177 233 279 327
#     4  10  20  33  52  76 106 141 178 219 265 320
#     4  10  21  36  54  78 107 137 172 216 267 321
#     4   9  18  32  50  74 105 138 176 217 261 314
#     4   8  14  26  46  72  99 129 170 218 264 311
#     4   9  19  35  55  79 107 142 183 225 273 332
#     4  10  21  37  56  78 105 139 179 220 263 317
#     4  10  20  34  53  78 109 143 179 222 270 322
#
# _framework density 17.661707
#
# number of rings (size 3 to 8) (size 9 to 14) (size 15 to 20)
#    0.000    2.600    0.000    2.000    0.933    4.267 
#    0.000    4.333    0.000    1.200    0.000    0.933 
#    0.000    0.000    0.000    0.000    0.000    0.000 
#
# Total GULP energy -669172.157359 kJ/mol
# GULP energy per Si atom -5576.434645 kJ/mol
# Density = 1.762151 g / cm^3
# Si number density = 17.661707 Si / 1000 Ang^3
#
#
#
# Elastic Constant Matrix: (Units=GPa)
#
#
# Indices 1 2 3 4 5 6 
#
# 1 103.8096 28.6174 45.3901 0.0000 0.0000 0.0000
# 2 28.6174 103.8094 45.3900 0.0000 0.0000 0.0000
# 3 45.3901 45.3900 80.3463 0.0000 0.0000 0.0000
# 4 0.0000 0.0000 0.0000 24.0036 0.0000 0.0000
# 5 0.0000 0.0000 0.0000 0.0000 24.0036 0.0000
# 6 0.0000 0.0000 0.0000 0.0000 0.0000 9.2828
#
#
#
# Elastic Compliance Matrix: (Units=1/GPa)
#
#
# Indices 1 2 3 4 5 6 
#
# 1 0.012812 -0.000488 -0.006962 0.000000 0.000000 0.000000
# 2 -0.000488 0.012812 -0.006962 0.000000 0.000000 0.000000
# 3 -0.006962 -0.006962 0.020312 0.000000 0.000000 0.000000
# 4 0.000000 0.000000 0.000000 0.041660 0.000000 0.000000
# 5 0.000000 0.000000 0.000000 0.000000 0.041660 0.000000
# 6 0.000000 0.000000 0.000000 0.000000 0.000000 0.107726
#
#
# Mechanical properties :
#
#
# Convention : Reuss Voigt Hill
#
# Bulk Modulus (GPa) = 58.43975 58.52891 58.48433
# Shear Modulus (GPa) = 18.41546 22.69585 20.55565
#
# Velocity S-wave (km/s) = 3.23255 3.58862 3.41523
# Velocity P-wave (km/s) = 6.86242 7.09801 6.98121
#
# Compressibility (1/GPa) = 0.01711164
#
# Stress axis : x y z
#
# Youngs Moduli (GPa) = 78.05410 78.05404 49.23095
#
# Poissons Ratio (x) = 0.03806 0.34276
# Poissons Ratio (y) = 0.03806 0.34276
# Poissons Ratio (z) = 0.54343 0.54343
#
# Static dielectric constant tensor:
#      x y z
#    x 1.588730 0.000000 0.000000 
#    y 0.000000 1.588730 0.000000 
#    z 0.000000 0.000000 1.592580 
# 
# From -- ./inp_files/2393.got.cif
#   From: 2010.05.17/outbox.cif.g08.bks.cpg/sg127_2_cif.got.tgz:2393.got - 2010.05.20 12:03:00.
