data_PCOD9564875
_publ_section_title
;
Structure prediction by ZEFSAII (Michael W. Deem and Ramdas Pophale) SiO2 
 PCOD9564875
Probable space group: P 4/M N C
;
_chemical_formula_sum "Si O2"
_cell_formula_units_Z 88
_cell_length_a 13.960898
_cell_length_b 13.960898
_cell_length_c 23.077680
_cell_angle_alpha 90.000000
_cell_angle_beta 90.000000
_cell_angle_gamma 90.000000
_cell_volume 4497.993829
_symmetry_space_group_name_H-M "P 4/M N C"
_symmetry_group_IT_number 128
_symmetry_cell_setting 'tetragonal'
loop_
_space_group_symop_operation_xyz
x,y,z
-y,x,z
-x,-y,z
y,-x,z
1/2+x,1/2-y,1/2-z
1/2-x,1/2+y,1/2-z
1/2+y,1/2+x,1/2-z
1/2-y,1/2-x,1/2-z
-x,-y,-z
y,-x,-z
x,y,-z
-y,x,-z
1/2-x,1/2+y,1/2+z
1/2+x,1/2-y,1/2+z
1/2-y,1/2-x,1/2+z
1/2+y,1/2+x,1/2+z
loop_
_atom_site_type_symbol
_atom_site_label
_atom_site_fract_x
_atom_site_fract_y
_atom_site_fract_z
Si Si1 0.032512 0.388560 0.567088
Si Si2 0.925492 0.336768 0.676097
Si Si3 0.136611 0.072801 0.723756
Si Si4 0.615654 0.115654 0.750000
Si Si5 0.724934 0.414203 0.653519
Si Si6 0.232519 0.379984 0.368882
O O1 0.023985 0.363008 0.500000
O O2 0.139720 0.372950 0.590711
O O3 0.000000 0.500000 0.573663
O O4 0.964284 0.332419 0.610917
O O5 0.889889 0.232949 0.695608
O O6 0.833704 0.404826 0.676717
O O7 0.014734 0.371836 0.715779
O O8 0.153230 0.078837 0.792310
O O9 0.039092 0.125459 0.707749
O O10 0.625623 0.194532 0.698474
O O11 0.723070 0.514618 0.621079
O O12 0.696564 0.316477 0.621679
#
# Coordination Sequence:
#
# PCOD9564875 Si02
#       6
#    16  16  16   8  16  16
#     4  10  22  44  65  85 114 150 203 264 316 354
#     4  11  23  35  60  90 119 159 202 257 304 369
#     4  11  23  37  54  85 132 173 195 230 297 378
#     4  10  22  35  52  88 124 151 194 242 310 361
#     4  12  22  35  56  89 125 159 202 238 302 363
#     4  11  24  36  57  90 120 162 198 246 300 373
#
# _framework density 19.564278000000002
#
# number of rings (size 3 to 8) (size 9 to 14) (size 15 to 20)
#    0.000    1.091    5.455    0.545    7.636    1.091 
#    0.000    1.818    0.000    0.000    0.000    2.545 
#    0.000    0.000    0.000    0.000    0.000    0.000 
#
# Total GULP energy -491726.550034 kJ/mol
# GULP energy per Si atom -5587.801705 kJ/mol
# Density = 1.951975 g / cm^3
# Si number density = 19.564278 Si / 1000 Ang^3
#
#
#
# Elastic Constant Matrix: (Units=GPa)
#
#
# Indices 1 2 3 4 5 6 
#
# 1 62.0796 6.4493 5.5424 0.0000 0.0000 0.0000
# 2 6.4493 62.0796 5.5424 0.0000 0.0000 0.0000
# 3 5.5424 5.5424 75.6290 0.0000 0.0000 0.0000
# 4 0.0000 0.0000 0.0000 12.8068 0.0000 0.0000
# 5 0.0000 0.0000 0.0000 0.0000 12.8068 0.0000
# 6 0.0000 0.0000 0.0000 0.0000 0.0000 31.7769
#
#
#
# Elastic Compliance Matrix: (Units=1/GPa)
#
#
# Indices 1 2 3 4 5 6 
#
# 1 0.016372 -0.001604 -0.001082 0.000000 0.000000 0.000000
# 2 -0.001604 0.016372 -0.001082 0.000000 0.000000 0.000000
# 3 -0.001082 -0.001082 0.013381 0.000000 0.000000 0.000000
# 4 0.000000 0.000000 0.000000 0.078083 0.000000 0.000000
# 5 0.000000 0.000000 0.000000 0.000000 0.078083 0.000000
# 6 0.000000 0.000000 0.000000 0.000000 0.000000 0.031469
#
#
# Mechanical properties :
#
#
# Convention : Reuss Voigt Hill
#
# Bulk Modulus (GPa) = 25.91545 26.09518 26.00531
# Shear Modulus (GPa) = 19.67264 23.62838 21.65051
#
# Velocity S-wave (km/s) = 3.17446 3.47901 3.33022
# Velocity P-wave (km/s) = 5.16830 5.43187 5.30172
#
# Compressibility (1/GPa) = 0.03858703
#
# Stress axis : x y z
#
# Youngs Moduli (GPa) = 61.08131 61.08131 74.73244
#
# Poissons Ratio (x) = 0.09799 0.08088
# Poissons Ratio (y) = 0.09799 0.08088
# Poissons Ratio (z) = 0.06610 0.06610
#
# Static dielectric constant tensor:
#      x y z
#    x 1.703890 0.000000 0.000000 
#    y 0.000000 1.703890 0.000000 
#    z 0.000000 0.000000 1.675480 
# 
# From -- ./inp_files/5653.got.cif
#   From: 2010.05.17/outbox.cif.g08.bks.cpg/sg128_3_cif.got.tgz:5653.got - 2010.05.20 12:07:25.
