data_PCOD9564814
_publ_section_title
;
Structure prediction by ZEFSAII (Michael W. Deem and Ramdas Pophale) SiO2 
 PCOD9564814
Probable space group: P 4/M N C
;
_chemical_formula_sum "Si O2"
_cell_formula_units_Z 112
_cell_length_a 13.973365
_cell_length_b 13.973365
_cell_length_c 27.925357
_cell_angle_alpha 90.000000
_cell_angle_beta 90.000000
_cell_angle_gamma 90.000000
_cell_volume 5452.563610
_symmetry_space_group_name_H-M "P 4/M N C"
_symmetry_group_IT_number 128
_symmetry_cell_setting 'tetragonal'
loop_
_space_group_symop_operation_xyz
x,y,z
-y,x,z
-x,-y,z
y,-x,z
1/2+x,1/2-y,1/2-z
1/2-x,1/2+y,1/2-z
1/2+y,1/2+x,1/2-z
1/2-y,1/2-x,1/2-z
-x,-y,-z
y,-x,-z
x,y,-z
-y,x,-z
1/2-x,1/2+y,1/2+z
1/2+x,1/2-y,1/2+z
1/2-y,1/2-x,1/2+z
1/2+y,1/2+x,1/2+z
loop_
_atom_site_type_symbol
_atom_site_label
_atom_site_fract_x
_atom_site_fract_y
_atom_site_fract_z
Si Si1 0.355717 0.182061 0.555100
Si Si2 0.262975 0.617763 0.755117
Si Si3 0.199351 0.023551 0.551925
Si Si4 0.364599 0.572181 0.844159
Si Si5 0.306095 0.829466 0.554664
Si Si6 0.614339 0.023041 0.876542
Si Si7 0.090118 0.275294 0.780678
O O1 0.390121 0.202482 0.500000
O O2 0.273107 0.259853 0.567886
O O3 0.435004 0.166024 0.595627
O O4 0.298307 0.082421 0.551829
O O5 0.156567 0.656567 0.750000
O O6 0.286213 0.622340 0.811846
O O7 0.332870 0.687617 0.724359
O O8 0.266678 0.508593 0.739670
O O9 0.153349 0.041800 0.500000
O O10 0.226396 0.912422 0.555133
O O11 0.148289 0.060531 0.599385
O O12 0.375597 0.461760 0.830116
O O13 0.340139 0.820485 0.500000
O O14 0.388297 0.870374 0.587780
O O15 0.672960 0.057615 0.829807
O O16 0.500000 0.000000 0.868905
O O17 0.141132 0.358869 0.750000
#
# Coordination Sequence:
#
# PCOD9564814 Si02
#       7
#    16  16  16  16  16  16  16
#     4  10  22  40  65  99 138 184 230 277 341 412
#     4  11  26  47  72  94 137 180 227 297 348 418
#     4  10  21  37  61  97 138 175 217 272 338 413
#     4  11  23  40  64  91 126 176 225 265 329 414
#     4  10  22  40  66  99 143 184 228 281 338 412
#     4  12  26  42  70 101 139 182 234 296 344 411
#     4  11  29  47  69 106 133 178 235 289 358 414
#
# _framework density 20.540797000000001
#
# number of rings (size 3 to 8) (size 9 to 14) (size 15 to 20)
#    0.000    1.286    2.857    1.286    8.000    3.714 
#    0.000    0.714    0.000    0.429    0.000    2.000 
#    0.000    0.000    0.000    0.000    0.000    0.000 
#
# Total GULP energy -624492.112320 kJ/mol
# GULP energy per Si atom -5575.822431 kJ/mol
# Density = 2.049405 g / cm^3
# Si number density = 20.540797 Si / 1000 Ang^3
#
#
#
# Elastic Constant Matrix: (Units=GPa)
#
#
# Indices 1 2 3 4 5 6 
#
# 1 84.4496 41.8924 56.4940 0.0000 0.0000 0.0000
# 2 41.8924 84.4440 56.4952 0.0000 0.0000 0.0000
# 3 56.4940 56.4952 131.4822 0.0000 0.0000 0.0000
# 4 0.0000 0.0000 0.0000 23.0316 0.0000 0.0000
# 5 0.0000 0.0000 0.0000 0.0000 23.0356 0.0000
# 6 0.0000 0.0000 0.0000 0.0000 0.0000 33.0779
#
#
#
# Elastic Compliance Matrix: (Units=1/GPa)
#
#
# Indices 1 2 3 4 5 6 
#
# 1 0.018176 -0.005322 -0.005523 0.000000 0.000000 0.000000
# 2 -0.005322 0.018178 -0.005524 0.000000 0.000000 0.000000
# 3 -0.005523 -0.005524 0.012352 0.000000 0.000000 0.000000
# 4 0.000000 0.000000 0.000000 0.043419 0.000000 0.000000
# 5 0.000000 0.000000 0.000000 0.000000 0.043411 0.000000
# 6 0.000000 0.000000 0.000000 0.000000 0.000000 0.030232
#
#
# Mechanical properties :
#
#
# Convention : Reuss Voigt Hill
#
# Bulk Modulus (GPa) = 62.62399 67.79323 65.20861
# Shear Modulus (GPa) = 24.53037 25.52862 25.02949
#
# Velocity S-wave (km/s) = 3.45951 3.52920 3.49453
# Velocity P-wave (km/s) = 6.81993 7.04860 6.93521
#
# Compressibility (1/GPa) = 0.01596832
#
# Stress axis : x y z
#
# Youngs Moduli (GPa) = 55.01706 55.01093 80.95724
#
# Poissons Ratio (x) = 0.29278 0.44712
# Poissons Ratio (y) = 0.29281 0.44721
# Poissons Ratio (z) = 0.30386 0.30388
#
# Static dielectric constant tensor:
#      x y z
#    x 1.743760 0.000000 0.000000 
#    y 0.000000 1.743760 0.000000 
#    z 0.000000 0.000000 1.783280 
# 
# From -- ./inp_files/6883.got.cif
#   From: 2010.05.17/outbox.cif.g08.bks.cpg/sg128_4_cif.got.tgz:6883.got - 2010.05.20 12:07:25.
