data_PCOD9564128
_publ_section_title
;
Structure prediction by ZEFSAII (Michael W. Deem and Ramdas Pophale) SiO2 
 PCOD9564128
Probable space group: P 4/M B M
;
_chemical_formula_sum "Si O2"
_cell_formula_units_Z 88
_cell_length_a 18.214986
_cell_length_b 18.214986
_cell_length_c 14.202075
_cell_angle_alpha 90.000000
_cell_angle_beta 90.000000
_cell_angle_gamma 90.000000
_cell_volume 4712.045608
_symmetry_space_group_name_H-M "P 4/M B M"
_symmetry_group_IT_number 127
_symmetry_cell_setting 'tetragonal'
loop_
_space_group_symop_operation_xyz
x,y,z
-y,x,z
-x,-y,z
y,-x,z
1/2+x,1/2-y,-z
1/2-x,1/2+y,-z
1/2+y,1/2+x,-z
1/2-y,1/2-x,-z
-x,-y,-z
y,-x,-z
x,y,-z
-y,x,-z
1/2-x,1/2+y,z
1/2+x,1/2-y,z
1/2-y,1/2-x,z
1/2+y,1/2+x,z
loop_
_atom_site_type_symbol
_atom_site_label
_atom_site_fract_x
_atom_site_fract_y
_atom_site_fract_z
Si Si1 0.437204 0.062797 0.603748
Si Si2 0.976190 0.877496 0.500000
Si Si3 0.523494 0.147127 0.247110
Si Si4 0.896141 0.396141 0.892173
Si Si5 0.728943 0.771057 0.111976
Si Si6 0.379894 0.344544 0.807890
Si Si7 0.808677 0.023781 0.705208
Si Si8 0.388955 0.552789 0.000000
O O1 0.415210 0.084791 0.500000
O O2 0.473452 0.127264 0.662755
O O3 0.500000 0.000000 0.599050
O O4 0.968047 0.830896 0.596041
O O5 0.056047 0.917065 0.500000
O O6 0.588912 0.088912 0.240243
O O7 0.468592 0.133974 0.160062
O O8 0.550919 0.228419 0.264957
O O9 0.833870 0.333870 0.887707
O O10 0.912761 0.412761 0.000000
O O11 0.797167 0.807490 0.167786
O O12 0.745081 0.754920 0.000000
O O13 0.362683 0.425619 0.767844
O O14 0.438184 0.311143 0.734538
O O15 0.422586 0.347663 0.906745
O O16 0.405613 0.466938 0.000000
#
# Coordination Sequence:
#
# PCOD9564128 Si02
#       8
#     8   8  16   8   8  16  16   8
#     4   8  16  34  59  84 109 146 198 249 297 355
#     4  11  24  44  69  93 122 167 226 276 332 395
#     4  10  22  39  60  91 125 163 209 258 314 373
#     4  10  20  39  67  92 128 175 217 262 310 382
#     4  11  23  40  63  94 135 174 213 261 328 393
#     4  12  24  41  65  92 129 172 210 261 321 389
#     4  12  25  42  65  93 128 167 217 269 325 387
#     4  11  22  37  64  98 124 158 213 264 313 378
#
# _framework density 18.675540999999999
#
# number of rings (size 3 to 8) (size 9 to 14) (size 15 to 20)
#    0.000    1.182    6.364    0.818    2.545    1.091 
#    1.636    0.000    0.000    1.091    0.000    0.000 
#    0.000    0.000    0.000    0.000    0.000    0.000 
#
# Total GULP energy -491024.620497 kJ/mol
# GULP energy per Si atom -5579.825233 kJ/mol
# Density = 1.863303 g / cm^3
# Si number density = 18.675541 Si / 1000 Ang^3
#
#
#
# Elastic Constant Matrix: (Units=GPa)
#
#
# Indices 1 2 3 4 5 6 
#
# 1 22.5153 37.6475 22.8088 0.0000 0.0000 0.0000
# 2 37.6475 22.5165 22.8091 0.0000 0.0000 0.0000
# 3 22.8088 22.8091 139.1498 0.0000 0.0000 0.0000
# 4 0.0000 0.0000 0.0000 12.1635 0.0000 0.0000
# 5 0.0000 0.0000 0.0000 0.0000 12.1635 0.0000
# 6 0.0000 0.0000 0.0000 0.0000 0.0000 32.7681
#
#
#
# Elastic Compliance Matrix: (Units=1/GPa)
#
#
# Indices 1 2 3 4 5 6 
#
# 1 -0.023554 0.042534 -0.003111 0.000000 0.000000 0.000000
# 2 0.042534 -0.023553 -0.003111 0.000000 0.000000 0.000000
# 3 -0.003111 -0.003111 0.008206 0.000000 0.000000 0.000000
# 4 0.000000 0.000000 0.000000 0.082213 0.000000 0.000000
# 5 0.000000 0.000000 0.000000 0.000000 0.082213 0.000000
# 6 0.000000 0.000000 0.000000 0.000000 0.000000 0.030518
#
#
# Mechanical properties :
#
#
# Convention : Reuss Voigt Hill
#
# Bulk Modulus (GPa) = 29.65381 38.96804 34.31093
# Shear Modulus (GPa) = 52.81933 18.14675 35.48304
#
# Velocity S-wave (km/s) = 5.32391 3.12057 4.36360
# Velocity P-wave (km/s) = 7.32836 5.82195 6.61816
#
# Compressibility (1/GPa) = 0.03372248
#
# Stress axis : x y z
#
# Youngs Moduli (GPa) = -42.45581 -42.45828 121.85525
#
# Poissons Ratio (x) = 1.80591 0.37911
# Poissons Ratio (y) = 1.80580 0.37912
# Poissons Ratio (z) = -0.13209 -0.13210
#
# Static dielectric constant tensor:
#      x y z
#    x 1.677710 0.000000 0.000000 
#    y 0.000000 1.677710 0.000000 
#    z 0.000000 0.000000 1.629480 
# 
# From -- ./inp_files/4489.got.cif
#   From: 2010.05.17/outbox.cif.g08.bks.cpg/sg127_3_cif.got.tgz:4489.got - 2010.05.20 12:03:00.
