data_PCOD9564093
_publ_section_title
;
Structure prediction by ZEFSAII (Michael W. Deem and Ramdas Pophale) SiO2 
 PCOD9564093
Probable space group: P 4/M B M
;
_chemical_formula_sum "Si O2"
_cell_formula_units_Z 96
_cell_length_a 14.762333
_cell_length_b 14.762333
_cell_length_c 21.591209
_cell_angle_alpha 90.000000
_cell_angle_beta 90.000000
_cell_angle_gamma 90.000000
_cell_volume 4705.296081
_symmetry_space_group_name_H-M "P 4/M B M"
_symmetry_group_IT_number 127
_symmetry_cell_setting 'tetragonal'
loop_
_space_group_symop_operation_xyz
x,y,z
-y,x,z
-x,-y,z
y,-x,z
1/2+x,1/2-y,-z
1/2-x,1/2+y,-z
1/2+y,1/2+x,-z
1/2-y,1/2-x,-z
-x,-y,-z
y,-x,-z
x,y,-z
-y,x,-z
1/2-x,1/2+y,z
1/2+x,1/2-y,z
1/2-y,1/2-x,z
1/2+y,1/2+x,z
loop_
_atom_site_type_symbol
_atom_site_label
_atom_site_fract_x
_atom_site_fract_y
_atom_site_fract_z
Si Si1 0.351748 0.007600 0.742383
Si Si2 0.881254 0.096429 0.431593
Si Si3 0.351758 0.007545 0.888527
Si Si4 0.101618 0.887531 0.187161
Si Si5 0.712842 0.633069 0.932319
Si Si6 0.783566 0.131802 0.305797
O O1 0.399320 0.100681 0.720481
O O2 0.430719 0.930719 0.739752
O O3 0.330196 0.018004 0.815436
O O4 0.267811 0.964258 0.706272
O O5 0.847134 0.123900 0.500000
O O6 0.829515 0.133372 0.372454
O O7 0.987120 0.121876 0.428212
O O8 0.431104 0.931104 0.892267
O O9 0.267234 0.961678 0.922350
O O10 0.399254 0.100747 0.910774
O O11 0.147170 0.850142 0.125144
O O12 0.146567 0.852054 0.249921
O O13 0.994750 0.878407 0.186873
O O14 0.789133 0.710868 0.931053
O O15 0.668714 0.632838 0.000000
O O16 0.707794 0.207794 0.301363
#
# Coordination Sequence:
#
# PCOD9564093 Si02
#       6
#    16  16  16  16  16  16
#     4   8  14  26  47  75 107 143 179 214 262 331
#     4   9  19  38  62  85 114 156 199 231 264 317
#     4   8  13  25  47  74 105 140 176 213 261 329
#     4  11  24  41  59  78 105 147 196 234 270 332
#     4  10  20  36  58  82 110 141 178 235 299 345
#     4  11  20  34  60  89 118 146 181 236 292 333
#
# _framework density 20.402542
#
# number of rings (size 3 to 8) (size 9 to 14) (size 15 to 20)
#    0.000    2.500    1.667    3.000    0.000    2.667 
#    0.000    8.333    0.000    1.500    0.000    2.333 
#    0.000    0.000    0.000    0.000    0.000    0.000 
#
# Total GULP energy -536172.632991 kJ/mol
# GULP energy per Si atom -5585.131594 kJ/mol
# Density = 2.035610 g / cm^3
# Si number density = 20.402542 Si / 1000 Ang^3
#
#
#
# Elastic Constant Matrix: (Units=GPa)
#
#
# Indices 1 2 3 4 5 6 
#
# 1 53.9364 -1.5868 30.2274 0.0000 0.0000 0.0000
# 2 -1.5868 53.9364 30.2274 0.0000 0.0000 0.0000
# 3 30.2274 30.2274 148.4687 0.0000 0.0000 0.0000
# 4 0.0000 0.0000 0.0000 17.5997 0.0000 0.0000
# 5 0.0000 0.0000 0.0000 0.0000 17.5997 0.0000
# 6 0.0000 0.0000 0.0000 0.0000 0.0000 19.3339
#
#
#
# Elastic Compliance Matrix: (Units=1/GPa)
#
#
# Indices 1 2 3 4 5 6 
#
# 1 0.021492 0.003482 -0.005085 0.000000 0.000000 0.000000
# 2 0.003482 0.021492 -0.005085 0.000000 0.000000 0.000000
# 3 -0.005085 -0.005085 0.008806 0.000000 0.000000 0.000000
# 4 0.000000 0.000000 0.000000 0.056819 0.000000 0.000000
# 5 0.000000 0.000000 0.000000 0.000000 0.056819 0.000000
# 6 0.000000 0.000000 0.000000 0.000000 0.000000 0.051723
#
#
# Mechanical properties :
#
#
# Convention : Reuss Voigt Hill
#
# Bulk Modulus (GPa) = 26.03098 41.56417 33.79757
# Shear Modulus (GPa) = 20.54812 24.07156 22.30984
#
# Velocity S-wave (km/s) = 3.17698 3.43859 3.31037
# Velocity P-wave (km/s) = 5.12289 6.01511 5.58684
#
# Compressibility (1/GPa) = 0.03841577
#
# Stress axis : x y z
#
# Youngs Moduli (GPa) = 46.52819 46.52819 113.56124
#
# Poissons Ratio (x) = -0.16200 0.57741
# Poissons Ratio (y) = -0.16200 0.57741
# Poissons Ratio (z) = 0.23658 0.23658
#
# Static dielectric constant tensor:
#      x y z
#    x 1.756370 0.000000 0.000000 
#    y 0.000000 1.756370 0.000000 
#    z 0.000000 0.000000 1.702120 
# 
# From -- ./inp_files/5759.got.cif
#   From: 2010.05.17/outbox.cif.g08.bks.cpg/sg127_3_cif.got.tgz:5759.got - 2010.05.20 12:03:00.
