data_PCOD9564765
_publ_section_title
;
Structure prediction by ZEFSAII (Michael W. Deem and Ramdas Pophale) SiO2 
 PCOD9564765
Probable space group: P 4/M N C
;
_chemical_formula_sum "Si O2"
_cell_formula_units_Z 96
_cell_length_a 24.569701
_cell_length_b 24.569701
_cell_length_c 9.512695
_cell_angle_alpha 90.000000
_cell_angle_beta 90.000000
_cell_angle_gamma 90.000000
_cell_volume 5742.530562
_symmetry_space_group_name_H-M "P 4/M N C"
_symmetry_group_IT_number 128
_symmetry_cell_setting 'tetragonal'
loop_
_space_group_symop_operation_xyz
x,y,z
-y,x,z
-x,-y,z
y,-x,z
1/2+x,1/2-y,1/2-z
1/2-x,1/2+y,1/2-z
1/2+y,1/2+x,1/2-z
1/2-y,1/2-x,1/2-z
-x,-y,-z
y,-x,-z
x,y,-z
-y,x,-z
1/2-x,1/2+y,1/2+z
1/2+x,1/2-y,1/2+z
1/2-y,1/2-x,1/2+z
1/2+y,1/2+x,1/2+z
loop_
_atom_site_type_symbol
_atom_site_label
_atom_site_fract_x
_atom_site_fract_y
_atom_site_fract_z
Si Si1 0.606599 0.391106 0.750878
Si Si2 0.164910 0.745439 0.669481
Si Si3 0.783793 0.050641 0.337439
Si Si4 0.743492 0.164274 0.332092
Si Si5 0.562767 0.718087 0.335804
Si Si6 0.040085 0.919085 0.500000
Si Si7 0.039167 0.080919 0.000000
O O1 0.587796 0.338783 0.837775
O O2 0.660706 0.403875 0.664220
O O3 0.609428 0.440432 0.860805
O O4 0.557739 0.391367 0.640285
O O5 0.199453 0.699453 0.750000
O O6 0.162416 0.737979 0.500000
O O7 0.200150 0.801384 0.693994
O O8 0.105103 0.748011 0.738861
O O9 0.773983 0.034041 0.500000
O O10 0.744093 0.100356 0.291224
O O11 0.783960 0.996963 0.238957
O O12 0.697572 0.197572 0.250000
O O13 0.735084 0.166805 0.500000
O O14 0.557414 0.734836 0.500000
O O15 0.977152 0.930573 0.500000
O O16 0.976400 0.069519 0.000000
#
# Coordination Sequence:
#
# PCOD9564765 Si02
#       7
#    16  16  16  16  16   8   8
#     4  12  23  35  47  67  96 133 175 224 275 320
#     4  10  20  38  60  83 109 140 181 228 278 331
#     4  11  23  38  56  76 103 140 183 227 275 327
#     4   9  19  36  56  81 105 136 179 224 277 330
#     4  12  25  37  54  79 107 142 183 227 279 327
#     4  11  22  34  48  62  79 122 182 228 275 324
#     4  11  22  36  46  58  87 124 172 230 279 320
#
# _framework density 16.717368
#
# number of rings (size 3 to 8) (size 9 to 14) (size 15 to 20)
#    0.000    1.167    3.333    4.000    3.500    2.667 
#    0.000    0.000    0.000    0.000    0.000    0.000 
#    0.000    0.667    0.000    7.000    0.000    3.833 
#
# Total GULP energy -534461.875556 kJ/mol
# GULP energy per Si atom -5567.311204 kJ/mol
# Density = 1.667932 g / cm^3
# Si number density = 16.717368 Si / 1000 Ang^3
#
#
#
# Elastic Constant Matrix: (Units=GPa)
#
#
# Indices 1 2 3 4 5 6 
#
# 1 81.5681 38.8245 42.1442 0.0000 0.0000 0.0000
# 2 38.8245 81.5681 42.1442 0.0000 0.0000 0.0000
# 3 42.1442 42.1442 109.7817 0.0000 0.0000 0.0000
# 4 0.0000 0.0000 0.0000 7.6984 0.0000 0.0000
# 5 0.0000 0.0000 0.0000 0.0000 7.6984 0.0000
# 6 0.0000 0.0000 0.0000 0.0000 0.0000 16.7488
#
#
#
# Elastic Compliance Matrix: (Units=1/GPa)
#
#
# Indices 1 2 3 4 5 6 
#
# 1 0.017377 -0.006018 -0.004361 0.000000 0.000000 0.000000
# 2 -0.006018 0.017377 -0.004361 0.000000 0.000000 0.000000
# 3 -0.004361 -0.004361 0.012457 0.000000 0.000000 0.000000
# 4 0.000000 0.000000 0.000000 0.129897 0.000000 0.000000
# 5 0.000000 0.000000 0.000000 0.000000 0.129897 0.000000
# 6 0.000000 0.000000 0.000000 0.000000 0.000000 0.059706
#
#
# Mechanical properties :
#
#
# Convention : Reuss Voigt Hill
#
# Bulk Modulus (GPa) = 56.39327 57.68261 57.03794
# Shear Modulus (GPa) = 12.43468 16.41614 14.42541
#
# Velocity S-wave (km/s) = 2.73026 3.13706 2.94070
# Velocity P-wave (km/s) = 6.61405 6.90659 6.76190
#
# Compressibility (1/GPa) = 0.01773261
#
# Stress axis : x y z
#
# Youngs Moduli (GPa) = 57.54669 57.54669 80.27610
#
# Poissons Ratio (x) = 0.34632 0.35006
# Poissons Ratio (y) = 0.34632 0.35006
# Poissons Ratio (z) = 0.25094 0.25094
#
# Static dielectric constant tensor:
#      x y z
#    x 1.596020 0.000000 0.000000 
#    y 0.000000 1.596020 0.000000 
#    z 0.000000 0.000000 1.573320 
# 
# From -- ./inp_files/1531.got.cif
#   From: 2010.05.17/outbox.cif.g08.bks.cpg/sg128_1_cif.got.tgz:1531.got - 2010.05.20 12:07:25.
