data_PCOD9564485
_publ_section_title
;
Structure prediction by ZEFSAII (Michael W. Deem and Ramdas Pophale) SiO2 
 PCOD9564485
Probable space group: P 4/M B M
;
_chemical_formula_sum "Si O2"
_cell_formula_units_Z 96
_cell_length_a 24.000000
_cell_length_b 24.000000
_cell_length_c 9.000000
_cell_angle_alpha 90.000000
_cell_angle_beta 90.000000
_cell_angle_gamma 90.000000
_cell_volume 5184.000000
_symmetry_space_group_name_H-M "P 4/M B M"
_symmetry_group_IT_number 127
_symmetry_cell_setting 'tetragonal'
loop_
_space_group_symop_operation_xyz
x,y,z
-y,x,z
-x,-y,z
y,-x,z
1/2+x,1/2-y,-z
1/2-x,1/2+y,-z
1/2+y,1/2+x,-z
1/2-y,1/2-x,-z
-x,-y,-z
y,-x,-z
x,y,-z
-y,x,-z
1/2-x,1/2+y,z
1/2+x,1/2-y,z
1/2-y,1/2-x,z
1/2+y,1/2+x,z
loop_
_atom_site_type_symbol
_atom_site_label
_atom_site_fract_x
_atom_site_fract_y
_atom_site_fract_z
Si Si1 0.247793 0.838625 0.818230
Si Si2 0.577015 0.454190 0.181086
Si Si3 0.879219 0.178815 0.820941
Si Si4 0.706268 0.880232 0.674178
Si Si5 0.974166 0.388843 0.326439
Si Si6 0.575090 0.168824 0.165791
O O1 0.286513 0.786513 0.771867
O O2 0.184296 0.832171 0.771780
O O3 0.275805 0.896773 0.767636
O O4 0.249311 0.840025 0.000000
O O5 0.574150 0.518745 0.226506
O O6 0.630518 0.420387 0.232558
O O7 0.577699 0.453810 0.000000
O O8 0.895538 0.239288 0.763571
O O9 0.879652 0.178594 0.000000
O O10 0.719570 0.873333 0.500000
O O11 0.676650 0.823351 0.728404
O O12 0.659609 0.927866 0.684506
O O13 0.985486 0.398633 0.500000
O O14 0.944844 0.444844 0.264904
O O15 0.028445 0.364709 0.251308
O O16 0.627625 0.127625 0.153808
O O17 0.553916 0.181413 0.000000
#
# Coordination Sequence:
#
# PCOD9564485 Si02
#       6
#    16  16  16  16  16  16
#     4   8  15  28  44  66  99 128 147 183 240 285
#     4   8  15  28  44  66  99 130 153 186 233 278
#     4  10  18  28  50  78  94 116 160 200 228 271
#     4   9  19  35  50  66  95 129 154 186 239 291
#     4   9  19  35  51  67  92 127 162 197 240 285
#     4   9  18  32  49  70  98 130 160 194 238 282
#
# _framework density 18.518519000000001
#
# number of rings (size 3 to 8) (size 9 to 14) (size 15 to 20)
#    0.000    3.167    0.000    3.000    0.000    4.000 
#    0.000    7.500    0.000    2.000    0.000    1.167 
#    0.000    0.000    0.000    0.000    0.000    0.000 
#
# Total GULP energy -534465.801691 kJ/mol
# GULP energy per Si atom -5567.352101 kJ/mol
# Density = 1.847637 g / cm^3
# Si number density = 18.518519 Si / 1000 Ang^3
#
#
#
# Elastic Constant Matrix: (Units=GPa)
#
#
# Indices 1 2 3 4 5 6 
#
# 1 56.1264 -7.1980 8.1180 0.0000 0.0000 0.0000
# 2 -7.1980 56.1264 8.1180 0.0000 0.0000 0.0000
# 3 8.1180 8.1180 0.4233 0.0000 0.0000 0.0000
# 4 0.0000 0.0000 0.0000 42.9626 0.0000 0.0000
# 5 0.0000 0.0000 0.0000 0.0000 42.9626 0.0000
# 6 0.0000 0.0000 0.0000 0.0000 0.0000 21.8503
#
#
#
# Elastic Compliance Matrix: (Units=1/GPa)
#
#
# Indices 1 2 3 4 5 6 
#
# 1 0.005991 -0.009801 0.073073 0.000000 0.000000 0.000000
# 2 -0.009801 0.005991 0.073073 0.000000 0.000000 0.000000
# 3 0.073073 0.073073 -0.440424 0.000000 0.000000 0.000000
# 4 0.000000 0.000000 0.000000 0.023276 0.000000 0.000000
# 5 0.000000 0.000000 0.000000 0.000000 0.023276 0.000000
# 6 0.000000 0.000000 0.000000 0.000000 0.000000 0.045766
#
#
# Mechanical properties :
#
#
# Convention : Reuss Voigt Hill
#
# Bulk Modulus (GPa) = -6.42051 14.52801 4.05375
# Shear Modulus (GPa) = -7.56736 28.46429 10.44846
#
# Velocity S-wave (km/s) = -2.02367 3.92480 2.37790
# Velocity P-wave (km/s) = 2.98914 5.32925 3.11978
#
# Compressibility (1/GPa) = -0.15575096
#
# Stress axis : x y z
#
# Youngs Moduli (GPa) = 166.92081 166.92081 -2.27054
#
# Poissons Ratio (x) = 1.63596 0.16592
# Poissons Ratio (y) = 1.63596 0.16592
# Poissons Ratio (z) = -12.19744 -12.19744
#
# Static dielectric constant tensor:
#      x y z
#    x 1.655930 0.000000 0.000000 
#    y 0.000000 1.655930 0.000000 
#    z 0.000000 0.000000 1.648760 
# 
# From -- ./inp_files/1937.got.cif
#   From: 2010.05.17/outbox.ucp.g08.bks.cvg/sg127_1_cif.got.tgz:1937.got - 2010.06.11 11:37:05.
