data_PCOD9564860
_publ_section_title
;
Structure prediction by ZEFSAII (Michael W. Deem and Ramdas Pophale) SiO2 
 PCOD9564860
Probable space group: P 4/M N C
;
_chemical_formula_sum "Si O2"
_cell_formula_units_Z 88
_cell_length_a 16.783290
_cell_length_b 16.783290
_cell_length_c 15.089354
_cell_angle_alpha 90.000000
_cell_angle_beta 90.000000
_cell_angle_gamma 90.000000
_cell_volume 4250.351478
_symmetry_space_group_name_H-M "P 4/M N C"
_symmetry_group_IT_number 128
_symmetry_cell_setting 'tetragonal'
loop_
_space_group_symop_operation_xyz
x,y,z
-y,x,z
-x,-y,z
y,-x,z
1/2+x,1/2-y,1/2-z
1/2-x,1/2+y,1/2-z
1/2+y,1/2+x,1/2-z
1/2-y,1/2-x,1/2-z
-x,-y,-z
y,-x,-z
x,y,-z
-y,x,-z
1/2-x,1/2+y,1/2+z
1/2+x,1/2-y,1/2+z
1/2-y,1/2-x,1/2+z
1/2+y,1/2+x,1/2+z
loop_
_atom_site_type_symbol
_atom_site_label
_atom_site_fract_x
_atom_site_fract_y
_atom_site_fract_z
Si Si1 0.134432 0.365569 0.750000
Si Si2 0.525524 0.910187 0.161846
Si Si3 0.535405 0.370391 0.500000
Si Si4 0.905027 0.795975 0.500000
Si Si5 0.132152 0.200775 0.849407
Si Si6 0.930544 0.303658 0.500000
Si Si7 0.737603 0.748548 0.500000
Si Si8 0.584872 0.395772 0.178851
O O1 0.133232 0.444959 0.808474
O O2 0.131822 0.289306 0.811771
O O3 0.578327 0.921674 0.250000
O O4 0.564357 0.860042 0.085410
O O5 0.500000 0.000000 0.134485
O O6 0.594323 0.447142 0.500000
O O7 0.557721 0.320219 0.586850
O O8 0.832980 0.731852 0.500000
O O9 0.895101 0.850150 0.412095
O O10 0.992749 0.755222 0.500000
O O11 0.208552 0.196830 0.914183
O O12 0.125758 0.145007 0.763585
O O13 0.843341 0.266287 0.500000
O O14 0.607766 0.488606 0.181966
#
# Coordination Sequence:
#
# PCOD9564860 Si02
#       8
#     8  16   8   8  16   8   8  16
#     4  10  21  40  64  92 124 174 213 268 320 394
#     4   9  21  43  65  95 125 169 232 271 325 394
#     4  10  22  43  64  92 133 170 220 267 310 401
#     4  12  25  43  66  95 132 173 222 261 332 390
#     4  11  22  41  62  93 131 170 212 262 331 387
#     4  12  22  43  67  94 133 178 209 283 336 377
#     4  11  26  42  59  98 131 166 216 269 324 394
#     4  11  23  41  67  97 129 169 216 265 318 390
#
# _framework density 20.704170999999999
#
# number of rings (size 3 to 8) (size 9 to 14) (size 15 to 20)
#    0.000    1.545    0.000    6.273    0.000    2.909 
#   27.818    0.909    0.000    0.000    0.000    0.000 
#    0.000    0.000    0.000    0.000    0.000    0.000 
#
# Total GULP energy -491873.468916 kJ/mol
# GULP energy per Si atom -5589.471238 kJ/mol
# Density = 2.065705 g / cm^3
# Si number density = 20.704171 Si / 1000 Ang^3
#
#
#
# Elastic Constant Matrix: (Units=GPa)
#
#
# Indices 1 2 3 4 5 6 
#
# 1 42.5101 83.3507 72.1418 0.0000 0.0000 0.0000
# 2 83.3507 42.5196 72.1418 0.0000 0.0000 0.0000
# 3 72.1418 72.1418 146.8181 0.0000 0.0000 0.0000
# 4 0.0000 0.0000 0.0000 50.9017 0.0000 0.0000
# 5 0.0000 0.0000 0.0000 0.0000 51.0533 0.0000
# 6 0.0000 0.0000 0.0000 0.0000 0.0000 27.2400
#
#
#
# Elastic Compliance Matrix: (Units=1/GPa)
#
#
# Indices 1 2 3 4 5 6 
#
# 1 -0.003150 0.021340 -0.008938 0.000000 0.000000 0.000000
# 2 0.021340 -0.003146 -0.008940 0.000000 0.000000 0.000000
# 3 -0.008938 -0.008940 0.015596 0.000000 0.000000 0.000000
# 4 0.000000 0.000000 0.000000 0.019646 0.000000 0.000000
# 5 0.000000 0.000000 0.000000 0.000000 0.019587 0.000000
# 6 0.000000 0.000000 0.000000 0.000000 0.000000 0.036711
#
#
# Mechanical properties :
#
#
# Convention : Reuss Voigt Hill
#
# Bulk Modulus (GPa) = 61.63735 76.34627 68.99181
# Shear Modulus (GPa) = 59.71791 26.11991 42.91891
#
# Velocity S-wave (km/s) = 5.37643 3.55572 4.55792
# Velocity P-wave (km/s) = 8.26901 7.33570 7.81630
#
# Compressibility (1/GPa) = 0.01622393
#
# Stress axis : x y z
#
# Youngs Moduli (GPa) = -317.43394 -317.86308 64.11964
#
# Poissons Ratio (x) = 6.78326 0.57310
# Poissons Ratio (y) = 6.77410 0.57323
# Poissons Ratio (z) = -2.83721 -2.84171
#
# Static dielectric constant tensor:
#      x y z
#    x 1.910030 0.000000 0.000000 
#    y 0.000000 1.910070 0.000000 
#    z 0.000000 0.000000 1.743450 
# 
# From -- ./inp_files/3906.got.cif
#   From: 2010.05.17/outbox.cif.g08.bks.cpg/sg128_2_cif.got.tgz:3906.got - 2010.05.20 12:07:25.
