data_PCOD9564154
_publ_section_title
;
Structure prediction by ZEFSAII (Michael W. Deem and Ramdas Pophale) SiO2 
 PCOD9564154
Probable space group: P 4/M B M
;
_chemical_formula_sum "Si O2"
_cell_formula_units_Z 96
_cell_length_a 20.013711
_cell_length_b 20.013711
_cell_length_c 14.556031
_cell_angle_alpha 90.000000
_cell_angle_beta 90.000000
_cell_angle_gamma 90.000000
_cell_volume 5830.398246
_symmetry_space_group_name_H-M "P 4/M B M"
_symmetry_group_IT_number 127
_symmetry_cell_setting 'tetragonal'
loop_
_space_group_symop_operation_xyz
x,y,z
-y,x,z
-x,-y,z
y,-x,z
1/2+x,1/2-y,-z
1/2-x,1/2+y,-z
1/2+y,1/2+x,-z
1/2-y,1/2-x,-z
-x,-y,-z
y,-x,-z
x,y,-z
-y,x,-z
1/2-x,1/2+y,z
1/2+x,1/2-y,z
1/2-y,1/2-x,z
1/2+y,1/2+x,z
loop_
_atom_site_type_symbol
_atom_site_label
_atom_site_fract_x
_atom_site_fract_y
_atom_site_fract_z
Si Si1 0.136902 0.251529 0.391031
Si Si2 0.242887 0.000640 0.705006
Si Si3 0.297995 0.479269 0.103062
Si Si4 0.234621 0.153317 0.290304
Si Si5 0.373161 0.339955 0.896460
Si Si6 0.888522 0.001594 0.602040
O O1 0.133105 0.241556 0.500000
O O2 0.187370 0.312631 0.371831
O O3 0.172564 0.186002 0.346727
O O4 0.063452 0.267893 0.351532
O O5 0.257231 0.078181 0.681563
O O6 0.163867 0.997448 0.682743
O O7 0.253140 0.987197 0.812855
O O8 0.342369 0.546410 0.107000
O O9 0.340336 0.412214 0.116773
O O10 0.268637 0.476677 0.000000
O O11 0.295756 0.204245 0.299865
O O12 0.208783 0.149052 0.185211
O O13 0.355189 0.316783 0.000000
O O14 0.856070 0.001579 0.500000
O O15 0.935345 0.937150 0.606922
#
# Coordination Sequence:
#
# PCOD9564154 Si02
#       6
#    16  16  16  16  16  16
#     4  10  21  36  53  75 103 132 166 210 255 299
#     4  11  19  31  52  70  94 135 166 203 248 299
#     4   9  18  29  43  68  99 134 170 203 238 283
#     4  10  21  35  51  77 104 129 167 210 254 298
#     4   9  17  31  48  69 101 135 169 205 242 290
#     4   9  18  29  42  66  96 123 160 204 237 281
#
# _framework density 16.465426999999998
#
# number of rings (size 3 to 8) (size 9 to 14) (size 15 to 20)
#    0.000    2.333    1.667    2.000    2.333    3.333 
#    0.000    1.667    0.000    1.000    0.000    1.167 
#    0.000    0.000    0.000    8.333    0.000    0.000 
#
# Total GULP energy -534560.833626 kJ/mol
# GULP energy per Si atom -5568.342017 kJ/mol
# Density = 1.642795 g / cm^3
# Si number density = 16.465427 Si / 1000 Ang^3
#
#
#
# Elastic Constant Matrix: (Units=GPa)
#
#
# Indices 1 2 3 4 5 6 
#
# 1 72.9754 31.3664 28.8438 0.0000 0.0000 0.0000
# 2 31.3664 72.9754 28.8438 0.0000 0.0000 0.0000
# 3 28.8438 28.8438 92.9440 0.0000 0.0000 0.0000
# 4 0.0000 0.0000 0.0000 19.3805 0.0000 0.0000
# 5 0.0000 0.0000 0.0000 0.0000 19.3805 0.0000
# 6 0.0000 0.0000 0.0000 0.0000 0.0000 17.8475
#
#
#
# Elastic Compliance Matrix: (Units=1/GPa)
#
#
# Indices 1 2 3 4 5 6 
#
# 1 0.017801 -0.006232 -0.003590 0.000000 0.000000 0.000000
# 2 -0.006232 0.017801 -0.003590 0.000000 0.000000 0.000000
# 3 -0.003590 -0.003590 0.012987 0.000000 0.000000 0.000000
# 4 0.000000 0.000000 0.000000 0.051598 0.000000 0.000000
# 5 0.000000 0.000000 0.000000 0.000000 0.051598 0.000000
# 6 0.000000 0.000000 0.000000 0.000000 0.000000 0.056030
#
#
# Mechanical properties :
#
#
# Convention : Reuss Voigt Hill
#
# Bulk Modulus (GPa) = 45.94683 46.33365 46.14024
# Shear Modulus (GPa) = 20.66999 21.31107 20.99053
#
# Velocity S-wave (km/s) = 3.54695 3.60153 3.57434
# Velocity P-wave (km/s) = 6.68880 6.74505 6.71699
#
# Compressibility (1/GPa) = 0.02176429
#
# Stress axis : x y z
#
# Youngs Moduli (GPa) = 56.17646 56.17646 76.99713
#
# Poissons Ratio (x) = 0.35011 0.27644
# Poissons Ratio (y) = 0.35011 0.27644
# Poissons Ratio (z) = 0.20169 0.20169
#
# Static dielectric constant tensor:
#      x y z
#    x 1.548150 0.000000 0.000000 
#    y 0.000000 1.548150 0.000000 
#    z 0.000000 0.000000 1.644320 
# 
# From -- ./inp_files/4543.got.cif
#   From: 2010.05.17/outbox.cif.g08.bks.cpg/sg127_3_cif.got.tgz:4543.got - 2010.05.20 12:03:00.
