data_PCOD9564194
_publ_section_title
;
Structure prediction by ZEFSAII (Michael W. Deem and Ramdas Pophale) SiO2 
 PCOD9564194
Probable space group: P 4/M B M
;
_chemical_formula_sum "Si O2"
_cell_formula_units_Z 96
_cell_length_a 24.800268
_cell_length_b 24.800268
_cell_length_c 8.155146
_cell_angle_alpha 90.000000
_cell_angle_beta 90.000000
_cell_angle_gamma 90.000000
_cell_volume 5015.849401
_symmetry_space_group_name_H-M "P 4/M B M"
_symmetry_group_IT_number 127
_symmetry_cell_setting 'tetragonal'
loop_
_space_group_symop_operation_xyz
x,y,z
-y,x,z
-x,-y,z
y,-x,z
1/2+x,1/2-y,-z
1/2-x,1/2+y,-z
1/2+y,1/2+x,-z
1/2-y,1/2-x,-z
-x,-y,-z
y,-x,-z
x,y,-z
-y,x,-z
1/2-x,1/2+y,z
1/2+x,1/2-y,z
1/2-y,1/2-x,z
1/2+y,1/2+x,z
loop_
_atom_site_type_symbol
_atom_site_label
_atom_site_fract_x
_atom_site_fract_y
_atom_site_fract_z
Si Si1 0.938322 0.228122 0.192268
Si Si2 0.440330 0.732467 0.197271
Si Si3 0.440619 0.438859 0.299952
Si Si4 0.055771 0.356968 0.801449
Si Si5 0.938139 0.350611 0.304486
Si Si6 0.854026 0.144233 0.304346
O O1 0.934560 0.292134 0.221309
O O2 0.883915 0.200387 0.261931
O O3 0.999423 0.212562 0.257803
O O4 0.938675 0.216277 0.000000
O O5 0.435296 0.794845 0.250448
O O6 0.386169 0.700164 0.245956
O O7 0.443409 0.731190 0.000000
O O8 0.501039 0.426716 0.248215
O O9 0.439836 0.437752 0.500000
O O10 0.398857 0.396764 0.236495
O O11 0.102848 0.397153 0.747386
O O12 0.997098 0.373593 0.737437
O O13 0.054365 0.357257 0.000000
O O14 0.934048 0.342976 0.500000
O O15 0.891285 0.391285 0.251099
O O16 0.851103 0.142727 0.500000
#
# Coordination Sequence:
#
# PCOD9564194 Si02
#       6
#    16  16  16  16  16  16
#     4  10  21  37  56  77 106 146 187 226 269 320
#     4   9  19  35  53  75 105 141 182 227 272 318
#     4   8  14  24  38  60  91 124 161 210 265 315
#     4   9  19  37  60  84 111 145 182 217 258 317
#     4  10  21  37  58  85 115 142 171 215 270 324
#     4  11  20  30  49  75 103 139 183 228 273 321
#
# _framework density 19.139329
#
# number of rings (size 3 to 8) (size 9 to 14) (size 15 to 20)
#    0.000    2.500    0.000    4.000    0.000    6.667 
#    0.000    2.500    0.000    3.000    0.000    7.000 
#    0.000    0.000    0.000    0.000    0.000    0.000 
#
# Total GULP energy -534511.754447 kJ/mol
# GULP energy per Si atom -5567.830775 kJ/mol
# Density = 1.909577 g / cm^3
# Si number density = 19.139329 Si / 1000 Ang^3
#
#
#
# Elastic Constant Matrix: (Units=GPa)
#
#
# Indices 1 2 3 4 5 6 
#
# 1 84.7214 49.9090 5.4303 0.0000 0.0000 0.0000
# 2 49.9090 84.7214 5.4303 0.0000 0.0000 0.0000
# 3 5.4303 5.4303 21.2375 0.0000 0.0000 0.0000
# 4 0.0000 0.0000 0.0000 20.9219 0.0000 0.0000
# 5 0.0000 0.0000 0.0000 0.0000 20.9219 0.0000
# 6 0.0000 0.0000 0.0000 0.0000 0.0000 40.0630
#
#
#
# Elastic Compliance Matrix: (Units=1/GPa)
#
#
# Indices 1 2 3 4 5 6 
#
# 1 0.018155 -0.010571 -0.001939 0.000000 0.000000 0.000000
# 2 -0.010571 0.018155 -0.001939 0.000000 0.000000 0.000000
# 3 -0.001939 -0.001939 0.048078 0.000000 0.000000 0.000000
# 4 0.000000 0.000000 0.000000 0.047797 0.000000 0.000000
# 5 0.000000 0.000000 0.000000 0.000000 0.047797 0.000000
# 6 0.000000 0.000000 0.000000 0.000000 0.000000 0.024961
#
#
# Mechanical properties :
#
#
# Convention : Reuss Voigt Hill
#
# Bulk Modulus (GPa) = 18.02139 34.69106 26.35623
# Shear Modulus (GPa) = 19.81480 25.04208 22.42844
#
# Velocity S-wave (km/s) = 3.22109 3.62112 3.42694
# Velocity P-wave (km/s) = 4.82392 5.97061 5.42763
#
# Compressibility (1/GPa) = 0.05548962
#
# Stress axis : x y z
#
# Youngs Moduli (GPa) = 55.08192 55.08192 20.79947
#
# Poissons Ratio (x) = 0.58225 0.04033
# Poissons Ratio (y) = 0.58225 0.04033
# Poissons Ratio (z) = 0.10682 0.10682
#
# Static dielectric constant tensor:
#      x y z
#    x 1.693150 0.000000 0.000000 
#    y 0.000000 1.693150 0.000000 
#    z 0.000000 0.000000 1.684050 
# 
# From -- ./inp_files/2045.got.cif
#   From: 2010.05.17/outbox.cif.g08.bks.cpg/sg127_2_cif.got.tgz:2045.got - 2010.05.20 12:03:00.
