data_PCOD9564394
_publ_section_title
;
Structure prediction by ZEFSAII (Michael W. Deem and Ramdas Pophale) SiO2 
 PCOD9564394
Probable space group: P 4/M B M
;
_chemical_formula_sum "Si O2"
_cell_formula_units_Z 96
_cell_length_a 14.448441
_cell_length_b 14.448441
_cell_length_c 25.634207
_cell_angle_alpha 90.000000
_cell_angle_beta 90.000000
_cell_angle_gamma 90.000000
_cell_volume 5351.331618
_symmetry_space_group_name_H-M "P 4/M B M"
_symmetry_group_IT_number 127
_symmetry_cell_setting 'tetragonal'
loop_
_space_group_symop_operation_xyz
x,y,z
-y,x,z
-x,-y,z
y,-x,z
1/2+x,1/2-y,-z
1/2-x,1/2+y,-z
1/2+y,1/2+x,-z
1/2-y,1/2-x,-z
-x,-y,-z
y,-x,-z
x,y,-z
-y,x,-z
1/2-x,1/2+y,z
1/2+x,1/2-y,z
1/2-y,1/2-x,z
1/2+y,1/2+x,z
loop_
_atom_site_type_symbol
_atom_site_label
_atom_site_fract_x
_atom_site_fract_y
_atom_site_fract_z
Si Si1 0.080007 0.419994 0.440431
Si Si2 0.784032 0.438953 0.900790
Si Si3 0.065425 0.858471 0.812601
Si Si4 0.472690 0.345783 0.000000
Si Si5 0.579333 0.079333 0.149802
Si Si6 0.920331 0.579670 0.269134
Si Si7 0.440028 0.357692 0.306852
Si Si8 0.025110 0.681084 0.644289
O O1 0.102552 0.397449 0.500000
O O2 0.163922 0.462438 0.406479
O O3 0.000000 0.500000 0.441324
O O4 0.861510 0.361510 0.912909
O O5 0.718703 0.405834 0.853481
O O6 0.718633 0.460162 0.949550
O O7 0.836838 0.530962 0.880573
O O8 0.077502 0.827262 0.752838
O O9 0.956237 0.882274 0.819931
O O10 0.572127 0.396646 0.000000
O O11 0.603993 0.103993 0.209741
O O12 0.500000 0.000000 0.152909
O O13 0.838110 0.537042 0.304003
O O14 0.000000 0.500000 0.267022
O O15 0.547809 0.384366 0.313077
O O16 0.423641 0.277394 0.347943
O O17 0.100157 0.600157 0.643561
#
# Coordination Sequence:
#
# PCOD9564394 Si02
#       8
#     8  16  16   8   8   8  16  16
#     4   8  15  29  51  76 101 135 175 218 275 326
#     4  11  22  38  58  84 109 131 166 210 263 313
#     4   9  18  35  55  75 106 146 181 210 249 306
#     4  11  25  47  66  75  94 133 174 215 261 308
#     4   9  19  33  51  76 113 145 149 181 257 324
#     4   8  14  27  48  74 106 139 166 192 247 316
#     4   9  18  32  49  71 106 150 183 209 254 315
#     4   9  16  28  49  76 104 136 178 226 264 303
#
# _framework density 17.939458999999999
#
# number of rings (size 3 to 8) (size 9 to 14) (size 15 to 20)
#    0.000    2.667    0.000    4.250    0.000    3.667 
#   10.500    1.250    0.000    1.000    0.000    1.167 
#    0.000    0.000    0.000    0.000    0.000    0.000 
#
# Total GULP energy -535197.434014 kJ/mol
# GULP energy per Si atom -5574.973271 kJ/mol
# Density = 1.789863 g / cm^3
# Si number density = 17.939459 Si / 1000 Ang^3
#
#
#
# Elastic Constant Matrix: (Units=GPa)
#
#
# Indices 1 2 3 4 5 6 
#
# 1 54.9217 -0.2453 46.6362 0.0000 0.0000 0.0000
# 2 -0.2453 54.9217 46.6362 0.0000 0.0000 0.0000
# 3 46.6362 46.6362 116.6333 0.0000 0.0000 0.0000
# 4 0.0000 0.0000 0.0000 12.2247 0.0000 0.0000
# 5 0.0000 0.0000 0.0000 0.0000 12.2248 0.0000
# 6 0.0000 0.0000 0.0000 0.0000 0.0000 7.3188
#
#
#
# Elastic Compliance Matrix: (Units=1/GPa)
#
#
# Indices 1 2 3 4 5 6 
#
# 1 0.037830 0.019703 -0.023005 0.000000 0.000000 0.000000
# 2 0.019703 0.037830 -0.023005 0.000000 0.000000 0.000000
# 3 -0.023005 -0.023005 0.026971 0.000000 0.000000 0.000000
# 4 0.000000 0.000000 0.000000 0.081801 0.000000 0.000000
# 5 0.000000 0.000000 0.000000 0.000000 0.081801 0.000000
# 6 0.000000 0.000000 0.000000 0.000000 0.000000 0.136635
#
#
# Mechanical properties :
#
#
# Convention : Reuss Voigt Hill
#
# Bulk Modulus (GPa) = 19.99265 45.83674 32.91470
# Shear Modulus (GPa) = 10.58974 15.25030 12.92002
#
# Velocity S-wave (km/s) = 2.43225 2.91881 2.68657
# Velocity P-wave (km/s) = 4.36538 6.07993 5.29254
#
# Compressibility (1/GPa) = 0.05001839
#
# Stress axis : x y z
#
# Youngs Moduli (GPa) = 26.43391 26.43389 37.07668
#
# Poissons Ratio (x) = -0.52084 0.85295
# Poissons Ratio (y) = -0.52084 0.85295
# Poissons Ratio (z) = 0.60811 0.60811
#
# Static dielectric constant tensor:
#      x y z
#    x 1.630000 0.000000 0.000000 
#    y 0.000000 1.630000 0.000000 
#    z 0.000000 0.000000 1.606320 
# 
# From -- ./inp_files/6366.got.cif
#   From: 2010.05.17/outbox.cif.g08.bks.cpg/sg127_4_cif.got.tgz:6366.got - 2010.05.20 12:03:00.
