data_PCOD9564750
_publ_section_title
;
Structure prediction by ZEFSAII (Michael W. Deem and Ramdas Pophale) SiO2 
 PCOD9564750
Probable space group: P 4/M N C
;
_chemical_formula_sum "Si O2"
_cell_formula_units_Z 96
_cell_length_a 24.584258
_cell_length_b 24.584258
_cell_length_c 8.462779
_cell_angle_alpha 90.000000
_cell_angle_beta 90.000000
_cell_angle_gamma 90.000000
_cell_volume 5114.782960
_symmetry_space_group_name_H-M "P 4/M N C"
_symmetry_group_IT_number 128
_symmetry_cell_setting 'tetragonal'
loop_
_space_group_symop_operation_xyz
x,y,z
-y,x,z
-x,-y,z
y,-x,z
1/2+x,1/2-y,1/2-z
1/2-x,1/2+y,1/2-z
1/2+y,1/2+x,1/2-z
1/2-y,1/2-x,1/2-z
-x,-y,-z
y,-x,-z
x,y,-z
-y,x,-z
1/2-x,1/2+y,1/2+z
1/2+x,1/2-y,1/2+z
1/2-y,1/2-x,1/2+z
1/2+y,1/2+x,1/2+z
loop_
_atom_site_type_symbol
_atom_site_label
_atom_site_fract_x
_atom_site_fract_y
_atom_site_fract_z
Si Si1 0.276838 0.306732 0.809464
Si Si2 0.133904 0.717941 0.310471
Si Si3 0.700573 0.570779 0.808843
Si Si4 0.709745 0.987079 0.189121
Si Si5 0.000243 0.585536 0.810419
Si Si6 0.530132 0.417423 0.807333
O O1 0.222158 0.277843 0.750000
O O2 0.326911 0.267746 0.760472
O O3 0.285821 0.368148 0.754106
O O4 0.275760 0.306823 0.000000
O O5 0.163390 0.663390 0.250000
O O6 0.131690 0.716877 0.500000
O O7 0.073875 0.723329 0.243152
O O8 0.746869 0.529199 0.756518
O O9 0.641032 0.551135 0.753142
O O10 0.698946 0.571697 0.000000
O O11 0.648012 0.999921 0.242597
O O12 0.710722 0.989748 0.000000
O O13 0.948655 0.551346 0.750000
O O14 0.053323 0.553323 0.750000
O O15 0.000684 0.583911 0.000000
O O16 0.567840 0.468421 0.759119
O O17 0.530433 0.416825 0.000000
#
# Coordination Sequence:
#
# PCOD9564750 Si02
#       6
#    16  16  16  16  16  16
#     4   9  20  37  57  82 110 146 189 231 280 334
#     4  10  20  36  60  86 113 146 186 234 281 331
#     4  10  21  35  56  83 111 146 188 232 279 332
#     4  11  24  38  53  81 116 149 186 228 278 331
#     4  10  21  37  58  81 108 142 181 225 272 326
#     4   8  15  29  53  83 110 137 175 229 285 334
#
# _framework density 18.769124000000001
#
# number of rings (size 3 to 8) (size 9 to 14) (size 15 to 20)
#    0.000    2.333    0.000    3.000    2.333    6.000 
#    0.000    3.333    0.000    0.000    0.000    1.167 
#    0.000    0.000    0.000    0.000    0.000    0.000 
#
# Total GULP energy -535987.722575 kJ/mol
# GULP energy per Si atom -5583.205443 kJ/mol
# Density = 1.872641 g / cm^3
# Si number density = 18.769124 Si / 1000 Ang^3
#
#
#
# Elastic Constant Matrix: (Units=GPa)
#
#
# Indices 1 2 3 4 5 6 
#
# 1 166.8068 126.4925 20.2130 0.0000 0.0000 0.0000
# 2 126.4925 166.8097 20.2214 0.0000 0.0000 0.0000
# 3 20.2130 20.2214 14.6073 0.0000 0.0000 0.0000
# 4 0.0000 0.0000 0.0000 26.5560 0.0000 0.0000
# 5 0.0000 0.0000 0.0000 0.0000 26.5563 0.0000
# 6 0.0000 0.0000 0.0000 0.0000 0.0000 17.7425
#
#
#
# Elastic Compliance Matrix: (Units=1/GPa)
#
#
# Indices 1 2 3 4 5 6 
#
# 1 0.014508 -0.010295 -0.005823 0.000000 0.000000 0.000000
# 2 -0.010295 0.014510 -0.005840 0.000000 0.000000 0.000000
# 3 -0.005823 -0.005840 0.084601 0.000000 0.000000 0.000000
# 4 0.000000 0.000000 0.000000 0.037656 0.000000 0.000000
# 5 0.000000 0.000000 0.000000 0.000000 0.037656 0.000000
# 6 0.000000 0.000000 0.000000 0.000000 0.000000 0.056362
#
#
# Mechanical properties :
#
#
# Convention : Reuss Voigt Hill
#
# Bulk Modulus (GPa) = 14.34686 75.78641 45.06664
# Shear Modulus (GPa) = 16.00290 26.25743 21.13016
#
# Velocity S-wave (km/s) = 2.92313 3.74434 3.35892
# Velocity P-wave (km/s) = 4.36502 7.69151 6.25351
#
# Compressibility (1/GPa) = 0.06970164
#
# Stress axis : x y z
#
# Youngs Moduli (GPa) = 68.92875 68.91870 11.82019
#
# Poissons Ratio (x) = 0.70954 0.06883
# Poissons Ratio (y) = 0.70965 0.06903
# Poissons Ratio (z) = 0.40137 0.40249
#
# Static dielectric constant tensor:
#      x y z
#    x 1.631810 0.000000 0.000000 
#    y 0.000000 1.631810 0.000000 
#    z 0.000000 0.000000 1.649390 
# 
# From -- ./inp_files/1468.got.cif
#   From: 2010.05.17/outbox.cif.g08.bks.cpg/sg128_1_cif.got.tgz:1468.got - 2010.05.20 12:07:25.
