data_PCOD9564315
_publ_section_title
;
Structure prediction by ZEFSAII (Michael W. Deem and Ramdas Pophale) SiO2 
 PCOD9564315
Probable space group: P 4/M B M
;
_chemical_formula_sum "Si O2"
_cell_formula_units_Z 96
_cell_length_a 23.605240
_cell_length_b 23.605240
_cell_length_c 7.670602
_cell_angle_alpha 90.000000
_cell_angle_beta 90.000000
_cell_angle_gamma 90.000000
_cell_volume 4274.115855
_symmetry_space_group_name_H-M "P 4/M B M"
_symmetry_group_IT_number 127
_symmetry_cell_setting 'tetragonal'
loop_
_space_group_symop_operation_xyz
x,y,z
-y,x,z
-x,-y,z
y,-x,z
1/2+x,1/2-y,-z
1/2-x,1/2+y,-z
1/2+y,1/2+x,-z
1/2-y,1/2-x,-z
-x,-y,-z
y,-x,-z
x,y,-z
-y,x,-z
1/2-x,1/2+y,z
1/2+x,1/2-y,z
1/2-y,1/2-x,z
1/2+y,1/2+x,z
loop_
_atom_site_type_symbol
_atom_site_label
_atom_site_fract_x
_atom_site_fract_y
_atom_site_fract_z
Si Si1 0.886976 0.289936 0.198056
Si Si2 0.415044 0.829783 0.293120
Si Si3 0.587257 0.522663 0.207912
Si Si4 0.971157 0.380557 0.211722
Si Si5 0.204514 0.202424 0.787060
Si Si6 0.292202 0.426663 0.299786
O O1 0.837610 0.337610 0.186320
O O2 0.938478 0.324273 0.279447
O O3 0.854611 0.236564 0.275371
O O4 0.903544 0.274339 0.000000
O O5 0.406045 0.821425 0.500000
O O6 0.357323 0.857323 0.220453
O O7 0.464934 0.874666 0.268234
O O8 0.435409 0.769895 0.215787
O O9 0.539584 0.567581 0.273161
O O10 0.651381 0.542206 0.237305
O O11 0.581608 0.520755 0.000000
O O12 0.935502 0.435502 0.267582
O O13 0.968720 0.379564 0.000000
O O14 0.243466 0.256535 0.736485
O O15 0.141182 0.202097 0.718590
O O16 0.203538 0.201505 0.000000
O O17 0.287970 0.443821 0.500000
#
# Coordination Sequence:
#
# PCOD9564315 Si02
#       6
#    16  16  16  16  16  16
#     4   7  12  26  48  74 103 132 164 210 269 325
#     4  10  23  41  55  71 105 151 190 224 267 322
#     4   9  20  41  66  89 114 145 182 224 271 329
#     4   9  18  34  57  83 108 135 174 228 283 328
#     4   9  17  31  53  79 108 147 195 240 282 334
#     4  11  23  37  55  81 114 150 187 229 279 334
#
# _framework density 22.460785000000001
#
# number of rings (size 3 to 8) (size 9 to 14) (size 15 to 20)
#    0.000    2.833    0.000    3.500    0.000    5.333 
#    0.000    8.333    0.000    3.000    0.000    0.000 
#    0.000    0.000    0.000    0.000    0.000    0.000 
#
# Total GULP energy -535106.342298 kJ/mol
# GULP energy per Si atom -5574.024399 kJ/mol
# Density = 2.240966 g / cm^3
# Si number density = 22.460785 Si / 1000 Ang^3
#
#
#
# Elastic Constant Matrix: (Units=GPa)
#
#
# Indices 1 2 3 4 5 6 
#
# 1 114.1027 70.0282 1.8915 0.0000 0.0000 0.0000
# 2 70.0282 114.1027 1.8915 0.0000 0.0000 0.0000
# 3 1.8915 1.8915 40.0913 0.0000 0.0000 0.0000
# 4 0.0000 0.0000 0.0000 14.8569 0.0000 0.0000
# 5 0.0000 0.0000 0.0000 0.0000 14.8569 0.0000
# 6 0.0000 0.0000 0.0000 0.0000 0.0000 31.5706
#
#
#
# Elastic Compliance Matrix: (Units=1/GPa)
#
#
# Indices 1 2 3 4 5 6 
#
# 1 0.014063 -0.008626 -0.000256 0.000000 0.000000 0.000000
# 2 -0.008626 0.014063 -0.000256 0.000000 0.000000 0.000000
# 3 -0.000256 -0.000256 0.024967 0.000000 0.000000 0.000000
# 4 0.000000 0.000000 0.000000 0.067309 0.000000 0.000000
# 5 0.000000 0.000000 0.000000 0.000000 0.067309 0.000000
# 6 0.000000 0.000000 0.000000 0.000000 0.000000 0.031675
#
#
# Mechanical properties :
#
#
# Convention : Reuss Voigt Hill
#
# Bulk Modulus (GPa) = 28.72431 46.21325 37.46878
# Shear Modulus (GPa) = 20.05876 25.22260 22.64068
#
# Velocity S-wave (km/s) = 2.99165 3.35470 3.17836
# Velocity P-wave (km/s) = 4.97491 5.96867 5.49430
#
# Compressibility (1/GPa) = 0.03481371
#
# Stress axis : x y z
#
# Youngs Moduli (GPa) = 71.11109 71.11109 40.05244
#
# Poissons Ratio (x) = 0.61343 0.01027
# Poissons Ratio (y) = 0.61343 0.01027
# Poissons Ratio (z) = 0.01824 0.01824
#
# Static dielectric constant tensor:
#      x y z
#    x 1.865360 0.000000 0.000000 
#    y 0.000000 1.865360 0.000000 
#    z 0.000000 0.000000 1.831830 
# 
# From -- ./inp_files/1957.got.cif
#   From: 2010.05.17/outbox.cif.g08.bks.cpg/sg127_1_cif.got.tgz:1957.got - 2010.05.20 12:03:00.
