data_PCOD9564327
_publ_section_title
;
Structure prediction by ZEFSAII (Michael W. Deem and Ramdas Pophale) SiO2 
 PCOD9564327
Probable space group: P 4/M B M
;
_chemical_formula_sum "Si O2"
_cell_formula_units_Z 96
_cell_length_a 14.952370
_cell_length_b 14.952370
_cell_length_c 23.347912
_cell_angle_alpha 90.000000
_cell_angle_beta 90.000000
_cell_angle_gamma 90.000000
_cell_volume 5219.971336
_symmetry_space_group_name_H-M "P 4/M B M"
_symmetry_group_IT_number 127
_symmetry_cell_setting 'tetragonal'
loop_
_space_group_symop_operation_xyz
x,y,z
-y,x,z
-x,-y,z
y,-x,z
1/2+x,1/2-y,-z
1/2-x,1/2+y,-z
1/2+y,1/2+x,-z
1/2-y,1/2-x,-z
-x,-y,-z
y,-x,-z
x,y,-z
-y,x,-z
1/2-x,1/2+y,z
1/2+x,1/2-y,z
1/2-y,1/2-x,z
1/2+y,1/2+x,z
loop_
_atom_site_type_symbol
_atom_site_label
_atom_site_fract_x
_atom_site_fract_y
_atom_site_fract_z
Si Si1 0.575059 0.075059 0.859370
Si Si2 0.771187 0.496777 0.351096
Si Si3 0.924086 0.424086 0.432971
Si Si4 0.332391 0.681225 0.683283
Si Si5 0.736035 0.499647 0.880215
Si Si6 0.352696 0.527526 0.000000
Si Si7 0.924580 0.575421 0.729279
Si Si8 0.675061 0.326239 0.181963
O O1 0.533723 0.163066 0.886481
O O2 0.599910 0.099910 0.793808
O O3 0.500000 0.000000 0.857718
O O4 0.835353 0.463173 0.402394
O O5 0.714540 0.411466 0.332330
O O6 0.705115 0.581681 0.355375
O O7 0.840797 0.533052 0.303345
O O8 0.908464 0.408464 0.500000
O O9 0.000000 0.500000 0.426195
O O10 0.260375 0.760375 0.675554
O O11 0.352723 0.676319 0.751280
O O12 0.701891 0.466454 0.941462
O O13 0.724064 0.418548 0.835320
O O14 0.683133 0.586103 0.856300
O O15 0.399664 0.430733 0.000000
O O16 0.000000 0.500000 0.730299
O O17 0.745165 0.245165 0.171771
#
# Coordination Sequence:
#
# PCOD9564327 Si02
#       8
#     8  16   8  16  16   8   8  16
#     4  11  24  39  61  94 128 155 193 251 325 394
#     4  12  21  39  60  96 131 172 217 259 316 376
#     4  11  22  41  68  94 125 172 235 279 296 347
#     4  11  22  36  63  93 136 171 203 261 327 391
#     4  12  23  42  64  88 120 163 210 261 311 382
#     4  11  24  45  64  83 107 158 212 261 313 370
#     4  11  18  35  64  89 124 172 210 248 312 379
#     4  11  23  39  60  96 130 160 205 258 321 386
#
# _framework density 18.390906000000001
#
# number of rings (size 3 to 8) (size 9 to 14) (size 15 to 20)
#    0.000    0.667    5.833    3.500    0.000    3.667 
#    0.000    5.417    0.000    0.000    0.000    1.167 
#    0.000    0.000    0.000    0.000    0.000    0.000 
#
# Total GULP energy -536321.785823 kJ/mol
# GULP energy per Si atom -5586.685269 kJ/mol
# Density = 1.834905 g / cm^3
# Si number density = 18.390906 Si / 1000 Ang^3
#
#
#
# Elastic Constant Matrix: (Units=GPa)
#
#
# Indices 1 2 3 4 5 6 
#
# 1 101.0626 24.9738 29.7464 0.0000 0.0000 0.0000
# 2 24.9738 101.0626 29.7464 0.0000 0.0000 0.0000
# 3 29.7464 29.7464 79.9469 0.0000 0.0000 0.0000
# 4 0.0000 0.0000 0.0000 18.1090 0.0000 0.0000
# 5 0.0000 0.0000 0.0000 0.0000 18.1090 0.0000
# 6 0.0000 0.0000 0.0000 0.0000 0.0000 82.5419
#
#
#
# Elastic Compliance Matrix: (Units=1/GPa)
#
#
# Indices 1 2 3 4 5 6 
#
# 1 0.011384 -0.001759 -0.003581 0.000000 0.000000 0.000000
# 2 -0.001759 0.011384 -0.003581 0.000000 0.000000 0.000000
# 3 -0.003581 -0.003581 0.015173 0.000000 0.000000 0.000000
# 4 0.000000 0.000000 0.000000 0.055221 0.000000 0.000000
# 5 0.000000 0.000000 0.000000 0.000000 0.055221 0.000000
# 6 0.000000 0.000000 0.000000 0.000000 0.000000 0.012115
#
#
# Mechanical properties :
#
#
# Convention : Reuss Voigt Hill
#
# Bulk Modulus (GPa) = 49.75617 50.11170 49.93394
# Shear Modulus (GPa) = 27.02125 36.92567 31.97346
#
# Velocity S-wave (km/s) = 3.83727 4.48573 4.17411
# Velocity P-wave (km/s) = 6.83713 7.35774 7.10221
#
# Compressibility (1/GPa) = 0.02009801
#
# Stress axis : x y z
#
# Youngs Moduli (GPa) = 87.84594 87.84594 65.90577
#
# Poissons Ratio (x) = 0.15452 0.23601
# Poissons Ratio (y) = 0.15452 0.23601
# Poissons Ratio (z) = 0.31458 0.31458
#
# Static dielectric constant tensor:
#      x y z
#    x 1.647330 0.000000 0.000000 
#    y 0.000000 1.647330 0.000000 
#    z 0.000000 0.000000 1.613080 
# 
# From -- ./inp_files/5853.got.cif
#   From: 2010.05.17/outbox.cif.g08.bks.cpg/sg127_3_cif.got.tgz:5853.got - 2010.05.20 12:03:00.
