data_PCOD9564418
_publ_section_title
;
Structure prediction by ZEFSAII (Michael W. Deem and Ramdas Pophale) SiO2 
 PCOD9564418
Probable space group: P 4/M B M
;
_chemical_formula_sum "Si O2"
_cell_formula_units_Z 96
_cell_length_a 15.403934
_cell_length_b 15.403934
_cell_length_c 22.661706
_cell_angle_alpha 90.000000
_cell_angle_beta 90.000000
_cell_angle_gamma 90.000000
_cell_volume 5377.196401
_symmetry_space_group_name_H-M "P 4/M B M"
_symmetry_group_IT_number 127
_symmetry_cell_setting 'tetragonal'
loop_
_space_group_symop_operation_xyz
x,y,z
-y,x,z
-x,-y,z
y,-x,z
1/2+x,1/2-y,-z
1/2-x,1/2+y,-z
1/2+y,1/2+x,-z
1/2-y,1/2-x,-z
-x,-y,-z
y,-x,-z
x,y,-z
-y,x,-z
1/2-x,1/2+y,z
1/2+x,1/2-y,z
1/2-y,1/2-x,z
1/2+y,1/2+x,z
loop_
_atom_site_type_symbol
_atom_site_label
_atom_site_fract_x
_atom_site_fract_y
_atom_site_fract_z
Si Si1 0.831597 0.185944 0.388440
Si Si2 0.015725 0.257972 0.569121
Si Si3 0.501305 0.353306 0.933870
Si Si4 0.573363 0.073363 0.359465
Si Si5 0.487200 0.740723 0.812026
Si Si6 0.573128 0.073128 0.776120
Si Si7 0.668071 0.686091 0.753234
O O1 0.754926 0.254926 0.402474
O O2 0.808255 0.093670 0.416740
O O3 0.835457 0.177493 0.317532
O O4 0.922781 0.221006 0.412047
O O5 0.015587 0.279212 0.500000
O O6 0.037430 0.342792 0.607364
O O7 0.584047 0.417515 0.929117
O O8 0.502784 0.288233 0.879632
O O9 0.501671 0.315072 0.000000
O O10 0.596053 0.096053 0.291941
O O11 0.500000 0.000000 0.359120
O O12 0.463567 0.841218 0.806194
O O13 0.576130 0.719902 0.777621
O O14 0.406393 0.689671 0.782607
O O15 0.500000 0.000000 0.774994
O O16 0.744198 0.755803 0.767323
#
# Coordination Sequence:
#
# PCOD9564418 Si02
#       7
#    16  16  16   8  16   8  16
#     4  11  24  43  63  87 123 160 200 253 316 370
#     4  12  25  41  63  88 119 161 203 251 312 378
#     4   9  18  35  58  90 128 160 196 246 297 347
#     4  11  23  42  65  91 118 154 215 267 302 348
#     4  12  21  37  64  93 126 158 209 252 303 363
#     4  11  24  41  61  87 127 171 200 246 316 376
#     4  11  23  38  61  92 124 159 202 257 309 368
#
# _framework density 17.853169999999999
#
# number of rings (size 3 to 8) (size 9 to 14) (size 15 to 20)
#    0.000    1.000    3.333    5.250    0.000    5.667 
#    0.000    2.917    0.000    3.500    0.000    0.000 
#    0.000    0.000    0.000    0.000    0.000    0.000 
#
# Total GULP energy -536781.011198 kJ/mol
# GULP energy per Si atom -5591.468867 kJ/mol
# Density = 1.781254 g / cm^3
# Si number density = 17.853170 Si / 1000 Ang^3
#
#
#
# Elastic Constant Matrix: (Units=GPa)
#
#
# Indices 1 2 3 4 5 6 
#
# 1 98.7204 -17.1497 20.4818 0.0000 0.0000 0.0000
# 2 -17.1497 98.7204 20.4818 0.0000 0.0000 0.0000
# 3 20.4818 20.4818 114.6812 0.0000 0.0000 0.0000
# 4 0.0000 0.0000 0.0000 61.8171 0.0000 0.0000
# 5 0.0000 0.0000 0.0000 0.0000 61.8171 0.0000
# 6 0.0000 0.0000 0.0000 0.0000 0.0000 27.0474
#
#
#
# Elastic Compliance Matrix: (Units=1/GPa)
#
#
# Indices 1 2 3 4 5 6 
#
# 1 0.011049 0.002418 -0.002405 0.000000 0.000000 0.000000
# 2 0.002418 0.011049 -0.002405 0.000000 0.000000 0.000000
# 3 -0.002405 -0.002405 0.009579 0.000000 0.000000 0.000000
# 4 0.000000 0.000000 0.000000 0.016177 0.000000 0.000000
# 5 0.000000 0.000000 0.000000 0.000000 0.016177 0.000000
# 6 0.000000 0.000000 0.000000 0.000000 0.000000 0.036972
#
#
# Mechanical properties :
#
#
# Convention : Reuss Voigt Hill
#
# Bulk Modulus (GPa) = 37.18511 39.97217 38.57864
# Shear Modulus (GPa) = 43.57290 49.35688 46.46489
#
# Velocity S-wave (km/s) = 4.94563 5.26365 5.10712
# Velocity P-wave (km/s) = 7.31340 7.70580 7.51216
#
# Compressibility (1/GPa) = 0.02689248
#
# Stress axis : x y z
#
# Youngs Moduli (GPa) = 90.50787 90.50787 104.39558
#
# Poissons Ratio (x) = -0.21888 0.25109
# Poissons Ratio (y) = -0.21888 0.25109
# Poissons Ratio (z) = 0.21769 0.21769
#
# Static dielectric constant tensor:
#      x y z
#    x 1.592860 0.000000 0.000000 
#    y 0.000000 1.592860 0.000000 
#    z 0.000000 0.000000 1.592960 
# 
# From -- ./inp_files/5827.got.cif
#   From: 2010.05.17/outbox.cif.g08.bks.cpg/sg127_3_cif.got.tgz:5827.got - 2010.05.20 12:03:00.
