data_PCOD9564087
_publ_section_title
;
Structure prediction by ZEFSAII (Michael W. Deem and Ramdas Pophale) SiO2 
 PCOD9564087
Probable space group: P 4/M B M
;
_chemical_formula_sum "Si O2"
_cell_formula_units_Z 56
_cell_length_a 20.433826
_cell_length_b 20.433826
_cell_length_c 7.837188
_cell_angle_alpha 90.000000
_cell_angle_beta 90.000000
_cell_angle_gamma 90.000000
_cell_volume 3272.349235
_symmetry_space_group_name_H-M "P 4/M B M"
_symmetry_group_IT_number 127
_symmetry_cell_setting 'tetragonal'
loop_
_space_group_symop_operation_xyz
x,y,z
-y,x,z
-x,-y,z
y,-x,z
1/2+x,1/2-y,-z
1/2-x,1/2+y,-z
1/2+y,1/2+x,-z
1/2-y,1/2-x,-z
-x,-y,-z
y,-x,-z
x,y,-z
-y,x,-z
1/2-x,1/2+y,z
1/2+x,1/2-y,z
1/2-y,1/2-x,z
1/2+y,1/2+x,z
loop_
_atom_site_type_symbol
_atom_site_label
_atom_site_fract_x
_atom_site_fract_y
_atom_site_fract_z
Si Si1 0.515166 0.798965 0.804480
Si Si2 0.298670 0.537237 0.500000
Si Si3 0.553933 0.946068 0.294287
Si Si4 0.743164 0.133968 0.805270
Si Si5 0.338343 0.386497 0.500000
O O1 0.543510 0.748632 0.665174
O O2 0.535360 0.873498 0.767746
O O3 0.436578 0.791760 0.786905
O O4 0.532592 0.782095 0.000000
O O5 0.330805 0.465036 0.500000
O O6 0.355561 0.590416 0.500000
O O7 0.554264 0.945737 0.500000
O O8 0.500000 0.000000 0.238327
O O9 0.690208 0.190208 0.776853
O O10 0.799814 0.137633 0.667145
O O11 0.767461 0.138496 0.000000
#
# Coordination Sequence:
#
# PCOD9564087 Si02
#       5
#    16   8   8  16   8
#     4  10  20  36  56  78 112 149 182 224 268 312
#     4  10  22  40  57  81 104 137 182 230 286 335
#     4  11  21  33  53  84 119 157 194 219 253 320
#     4   9  18  34  56  82 106 139 184 220 258 314
#     4  10  21  37  59  78 107 138 173 228 283 328
#
# _framework density 17.113088000000001
#
# number of rings (size 3 to 8) (size 9 to 14) (size 15 to 20)
#    0.000    2.143    1.429    1.714    0.000    3.714 
#    5.143    0.000    0.000    0.000    0.000    8.000 
#    0.000    0.000    0.000    0.000    0.000    0.000 
#
# Total GULP energy -312475.482376 kJ/mol
# GULP energy per Si atom -5579.919328 kJ/mol
# Density = 1.707414 g / cm^3
# Si number density = 17.113088 Si / 1000 Ang^3
#
#
#
# Elastic Constant Matrix: (Units=GPa)
#
#
# Indices 1 2 3 4 5 6 
#
# 1 75.2328 64.5707 63.1717 0.0000 0.0000 0.0000
# 2 64.5707 75.2327 63.1717 0.0000 0.0000 0.0000
# 3 63.1717 63.1717 123.2833 0.0000 0.0000 0.0000
# 4 0.0000 0.0000 0.0000 13.1347 0.0000 0.0000
# 5 0.0000 0.0000 0.0000 0.0000 13.1346 0.0000
# 6 0.0000 0.0000 0.0000 0.0000 0.0000 30.7355
#
#
#
# Elastic Compliance Matrix: (Units=1/GPa)
#
#
# Indices 1 2 3 4 5 6 
#
# 1 0.053557 -0.040235 -0.006826 0.000000 0.000000 0.000000
# 2 -0.040235 0.053557 -0.006826 0.000000 0.000000 0.000000
# 3 -0.006826 -0.006826 0.015107 0.000000 0.000000 0.000000
# 4 0.000000 0.000000 0.000000 0.076134 0.000000 0.000000
# 5 0.000000 0.000000 0.000000 0.000000 0.076135 0.000000
# 6 0.000000 0.000000 0.000000 0.000000 0.000000 0.032536
#
#
# Mechanical properties :
#
#
# Convention : Reuss Voigt Hill
#
# Bulk Modulus (GPa) = 69.22411 72.84189 71.03300
# Shear Modulus (GPa) = 11.91568 16.92327 14.41948
#
# Velocity S-wave (km/s) = 2.64159 3.14810 2.90591
# Velocity P-wave (km/s) = 7.05994 7.47472 7.27029
#
# Compressibility (1/GPa) = 0.01444583
#
# Stress axis : x y z
#
# Youngs Moduli (GPa) = 18.67185 18.67179 66.19366
#
# Poissons Ratio (x) = 0.75125 0.45186
# Poissons Ratio (y) = 0.75125 0.45186
# Poissons Ratio (z) = 0.12746 0.12746
#
# Static dielectric constant tensor:
#      x y z
#    x 1.544380 0.000000 0.000000 
#    y 0.000000 1.544380 0.000000 
#    z 0.000000 0.000000 1.601750 
# 
# From -- ./inp_files/1130.got.cif
#   From: 2010.05.17/outbox.cif.g08.bks.cpg/sg127_1_cif.got.tgz:1130.got - 2010.05.20 12:03:00.
