data_PCOD9564308
_publ_section_title
;
Structure prediction by ZEFSAII (Michael W. Deem and Ramdas Pophale) SiO2 
 PCOD9564308
Probable space group: P 4/M B M
;
_chemical_formula_sum "Si O2"
_cell_formula_units_Z 60
_cell_length_a 11.738091
_cell_length_b 11.738091
_cell_length_c 21.836889
_cell_angle_alpha 90.000000
_cell_angle_beta 90.000000
_cell_angle_gamma 90.000000
_cell_volume 3008.747280
_symmetry_space_group_name_H-M "P 4/M B M"
_symmetry_group_IT_number 127
_symmetry_cell_setting 'tetragonal'
loop_
_space_group_symop_operation_xyz
x,y,z
-y,x,z
-x,-y,z
y,-x,z
1/2+x,1/2-y,-z
1/2-x,1/2+y,-z
1/2+y,1/2+x,-z
1/2-y,1/2-x,-z
-x,-y,-z
y,-x,-z
x,y,-z
-y,x,-z
1/2-x,1/2+y,z
1/2+x,1/2-y,z
1/2-y,1/2-x,z
1/2+y,1/2+x,z
loop_
_atom_site_type_symbol
_atom_site_label
_atom_site_fract_x
_atom_site_fract_y
_atom_site_fract_z
Si Si1 0.936380 0.243693 0.131801
Si Si2 0.690111 0.005066 0.000000
Si Si3 0.097048 0.402953 0.348566
Si Si4 0.000000 0.000000 0.841039
Si Si5 0.595217 0.095217 0.210800
Si Si6 0.311803 0.469517 0.428575
O O1 0.821257 0.321257 0.133364
O O2 0.980894 0.240921 0.061589
O O3 0.922595 0.116883 0.155961
O O4 0.029885 0.311439 0.171248
O O5 0.628177 0.128177 0.000000
O O6 0.587249 0.912752 0.000000
O O7 0.130610 0.369391 0.279049
O O8 0.207113 0.449301 0.384199
O O9 0.000000 0.500000 0.350062
O O10 0.500000 0.000000 0.221952
O O11 0.409311 0.373950 0.419135
O O12 0.276396 0.463601 0.500000
#
# Coordination Sequence:
#
# PCOD9564308 Si02
#       6
#    16   8   8   4   8  16
#     4  10  22  42  65  93 127 163 213 270 318 388
#     4   9  16  33  68  96 118 167 219 258 330 390
#     4  11  23  38  62  95 123 163 211 257 311 370
#     4  12  28  41  64 100 124 168 213 256 342 392
#     4   9  20  44  66  86 126 166 207 267 316 359
#     4   9  20  40  62  90 127 163 201 252 308 363
#
# _framework density 19.941853999999999
#
# number of rings (size 3 to 8) (size 9 to 14) (size 15 to 20)
#    0.000    2.267    1.333    1.200    3.733    2.667 
#    4.800    1.333    0.000    0.000    0.000    0.000 
#    0.000    0.000    0.000    0.000    0.000    0.000 
#
# Total GULP energy -334019.943543 kJ/mol
# GULP energy per Si atom -5566.999059 kJ/mol
# Density = 1.989647 g / cm^3
# Si number density = 19.941854 Si / 1000 Ang^3
#
#
#
# Elastic Constant Matrix: (Units=GPa)
#
#
# Indices 1 2 3 4 5 6 
#
# 1 123.1918 -2.1593 42.2014 0.0000 0.0000 0.0000
# 2 -2.1593 123.1923 42.2012 0.0000 0.0000 0.0000
# 3 42.2014 42.2012 119.9671 0.0000 0.0000 0.0000
# 4 0.0000 0.0000 0.0000 21.8223 0.0000 0.0000
# 5 0.0000 0.0000 0.0000 0.0000 21.8253 0.0000
# 6 0.0000 0.0000 0.0000 0.0000 0.0000 11.9281
#
#
#
# Elastic Compliance Matrix: (Units=1/GPa)
#
#
# Indices 1 2 3 4 5 6 
#
# 1 0.009463 0.001485 -0.003851 0.000000 0.000000 0.000000
# 2 0.001485 0.009463 -0.003851 0.000000 0.000000 0.000000
# 3 -0.003851 -0.003851 0.011045 0.000000 0.000000 0.000000
# 4 0.000000 0.000000 0.000000 0.045825 0.000000 0.000000
# 5 0.000000 0.000000 0.000000 0.000000 0.045818 0.000000
# 6 0.000000 0.000000 0.000000 0.000000 0.000000 0.083835
#
#
# Mechanical properties :
#
#
# Convention : Reuss Voigt Hill
#
# Bulk Modulus (GPa) = 57.02512 58.98196 58.00354
# Shear Modulus (GPa) = 22.34850 30.05569 26.20210
#
# Velocity S-wave (km/s) = 3.35129 3.88644 3.62874
# Velocity P-wave (km/s) = 6.60550 7.05552 6.83422
#
# Compressibility (1/GPa) = 0.01753613
#
# Stress axis : x y z
#
# Youngs Moduli (GPa) = 105.67763 105.67830 90.53790
#
# Poissons Ratio (x) = -0.15695 0.34868
# Poissons Ratio (y) = -0.15695 0.34867
# Poissons Ratio (z) = 0.40698 0.40698
#
# Static dielectric constant tensor:
#      x y z
#    x 1.703630 0.000000 0.000000 
#    y 0.000000 1.703630 0.000000 
#    z 0.000000 0.000000 1.711990 
# 
# From -- ./inp_files/5571.got.cif
#   From: 2010.05.17/outbox.cif.g08.bks.cpg/sg127_3_cif.got.tgz:5571.got - 2010.05.20 12:03:00.
