data_PCOD9564355
_publ_section_title
;
Structure prediction by ZEFSAII (Michael W. Deem and Ramdas Pophale) SiO2 
 PCOD9564355
Probable space group: P 4/M B M
;
_chemical_formula_sum "Si O2"
_cell_formula_units_Z 112
_cell_length_a 15.755028
_cell_length_b 15.755028
_cell_length_c 23.290879
_cell_angle_alpha 90.000000
_cell_angle_beta 90.000000
_cell_angle_gamma 90.000000
_cell_volume 5781.283117
_symmetry_space_group_name_H-M "P 4/M B M"
_symmetry_group_IT_number 127
_symmetry_cell_setting 'tetragonal'
loop_
_space_group_symop_operation_xyz
x,y,z
-y,x,z
-x,-y,z
y,-x,z
1/2+x,1/2-y,-z
1/2-x,1/2+y,-z
1/2+y,1/2+x,-z
1/2-y,1/2-x,-z
-x,-y,-z
y,-x,-z
x,y,-z
-y,x,-z
1/2-x,1/2+y,z
1/2+x,1/2-y,z
1/2-y,1/2-x,z
1/2+y,1/2+x,z
loop_
_atom_site_type_symbol
_atom_site_label
_atom_site_fract_x
_atom_site_fract_y
_atom_site_fract_z
Si Si1 0.600254 0.601658 0.564793
Si Si2 0.507878 0.861988 0.663755
Si Si3 0.203362 0.969999 0.874155
Si Si4 0.232083 0.874362 0.657041
Si Si5 0.862913 0.493621 0.796706
Si Si6 0.622181 0.561954 0.755905
Si Si7 0.201087 0.157650 0.068385
O O1 0.499756 0.614093 0.570653
O O2 0.625131 0.626740 0.500000
O O3 0.655837 0.644112 0.613834
O O4 0.593795 0.906206 0.640916
O O5 0.459200 0.782834 0.636583
O O6 0.523249 0.838495 0.730578
O O7 0.436923 0.936923 0.663649
O O8 0.288408 0.977072 0.836928
O O9 0.135707 0.944743 0.824224
O O10 0.200658 0.889781 0.916575
O O11 0.197062 0.062615 0.904013
O O12 0.298413 0.798413 0.659295
O O13 0.196074 0.893888 0.720279
O O14 0.933090 0.566911 0.794726
O O15 0.909090 0.409090 0.819027
O O16 0.536004 0.609816 0.739068
O O17 0.278876 0.221125 0.087353
O O18 0.209124 0.147897 0.000000
#
# Coordination Sequence:
#
# PCOD9564355 Si02
#       7
#    16  16  16  16  16  16  16
#     4   9  19  39  65  86 111 159 213 254 297 350
#     4   8  15  28  46  72 111 152 185 219 272 350
#     4  12  21  39  63  87 116 159 204 255 309 374
#     4  11  21  34  57  89 124 159 195 248 308 359
#     4   9  17  31  54  83 114 151 193 239 295 361
#     4  11  23  40  57  82 119 156 200 246 298 364
#     4  11  26  44  63  90 122 159 206 263 322 383
#
# _framework density 19.372862000000001
#
# number of rings (size 3 to 8) (size 9 to 14) (size 15 to 20)
#    0.000    1.857    2.857    3.429    0.000    2.286 
#    0.000    3.571    0.000    1.286    0.000    8.000 
#    0.000    0.000    0.000    0.000    0.000    0.000 
#
# Total GULP energy -624129.772365 kJ/mol
# GULP energy per Si atom -5572.587253 kJ/mol
# Density = 1.932877 g / cm^3
# Si number density = 19.372862 Si / 1000 Ang^3
#
#
#
# Elastic Constant Matrix: (Units=GPa)
#
#
# Indices 1 2 3 4 5 6 
#
# 1 63.0838 21.4639 28.6769 0.0000 0.0000 0.0000
# 2 21.4639 63.0838 28.6769 0.0000 0.0000 0.0000
# 3 28.6769 28.6769 56.7089 0.0000 0.0000 0.0000
# 4 0.0000 0.0000 0.0000 19.5655 0.0000 0.0000
# 5 0.0000 0.0000 0.0000 0.0000 19.5655 0.0000
# 6 0.0000 0.0000 0.0000 0.0000 0.0000 13.9049
#
#
#
# Elastic Compliance Matrix: (Units=1/GPa)
#
#
# Indices 1 2 3 4 5 6 
#
# 1 0.021015 -0.003012 -0.009104 0.000000 0.000000 0.000000
# 2 -0.003012 0.021015 -0.009104 0.000000 0.000000 0.000000
# 3 -0.009104 -0.009104 0.026842 0.000000 0.000000 0.000000
# 4 0.000000 0.000000 0.000000 0.051110 0.000000 0.000000
# 5 0.000000 0.000000 0.000000 0.000000 0.051110 0.000000
# 6 0.000000 0.000000 0.000000 0.000000 0.000000 0.071917
#
#
# Mechanical properties :
#
#
# Convention : Reuss Voigt Hill
#
# Bulk Modulus (GPa) = 37.83276 37.83464 37.83370
# Shear Modulus (GPa) = 16.99173 17.54443 17.26808
#
# Velocity S-wave (km/s) = 2.96478 3.01261 2.98879
# Velocity P-wave (km/s) = 5.59384 5.62790 5.61090
#
# Compressibility (1/GPa) = 0.02643212
#
# Stress axis : x y z
#
# Youngs Moduli (GPa) = 47.58456 47.58456 37.25567
#
# Poissons Ratio (x) = 0.14331 0.33918
# Poissons Ratio (y) = 0.14331 0.33918
# Poissons Ratio (z) = 0.43322 0.43322
#
# Static dielectric constant tensor:
#      x y z
#    x 1.707030 0.000000 0.000000 
#    y 0.000000 1.707030 0.000000 
#    z 0.000000 0.000000 1.672290 
# 
# From -- ./inp_files/6197.got.cif
#   From: 2010.05.17/outbox.cif.g08.bks.cpg/sg127_4_cif.got.tgz:6197.got - 2010.05.20 12:03:00.
