data_PCOD9564151
_publ_section_title
;
Structure prediction by ZEFSAII (Michael W. Deem and Ramdas Pophale) SiO2 
 PCOD9564151
Probable space group: P 4/M B M
;
_chemical_formula_sum "Si O2"
_cell_formula_units_Z 72
_cell_length_a 21.012922
_cell_length_b 21.012922
_cell_length_c 7.309485
_cell_angle_alpha 90.000000
_cell_angle_beta 90.000000
_cell_angle_gamma 90.000000
_cell_volume 3227.451138
_symmetry_space_group_name_H-M "P 4/M B M"
_symmetry_group_IT_number 127
_symmetry_cell_setting 'tetragonal'
loop_
_space_group_symop_operation_xyz
x,y,z
-y,x,z
-x,-y,z
y,-x,z
1/2+x,1/2-y,-z
1/2-x,1/2+y,-z
1/2+y,1/2+x,-z
1/2-y,1/2-x,-z
-x,-y,-z
y,-x,-z
x,y,-z
-y,x,-z
1/2-x,1/2+y,z
1/2+x,1/2-y,z
1/2-y,1/2-x,z
1/2+y,1/2+x,z
loop_
_atom_site_type_symbol
_atom_site_label
_atom_site_fract_x
_atom_site_fract_y
_atom_site_fract_z
Si Si1 0.699082 0.950591 0.287704
Si Si2 0.948562 0.448562 0.219310
Si Si3 0.230472 0.924607 0.724017
Si Si4 0.308204 0.191797 0.724383
Si Si5 0.410043 0.450706 0.277634
Si Si6 0.795448 0.704553 0.722801
O O1 0.717863 0.946422 0.500000
O O2 0.623452 0.963882 0.278595
O O3 0.708151 0.879617 0.212459
O O4 0.738709 0.009276 0.211883
O O5 0.000000 0.500000 0.283982
O O6 0.948926 0.448926 0.000000
O O7 0.231279 0.924497 0.500000
O O8 0.156733 0.921078 0.780201
O O9 0.272294 0.864653 0.782734
O O10 0.310028 0.189973 0.500000
O O11 0.256671 0.243330 0.777937
O O12 0.475205 0.416129 0.221324
O O13 0.410384 0.449971 0.500000
O O14 0.796226 0.703775 0.500000
#
# Coordination Sequence:
#
# PCOD9564151 Si02
#       6
#    16   8  16   8  16   8
#     4   9  18  31  48  71  94 121 156 193 234 276
#     4  10  21  35  51  69  89 119 156 193 236 282
#     4   9  17  25  38  60  90 123 152 189 235 280
#     4   8  15  27  41  59  87 120 153 187 227 275
#     4   8  14  23  35  54  84 124 161 189 227 281
#     4   9  17  25  35  58  90 122 153 187 232 281
#
# _framework density 22.308624999999999
#
# number of rings (size 3 to 8) (size 9 to 14) (size 15 to 20)
#    0.000    3.222    0.000    1.667    4.667    0.889 
#    0.000    0.000    0.000    0.000    0.000    6.222 
#    0.000    0.000    0.000    2.444    0.000    2.222 
#
# Total GULP energy -402039.349765 kJ/mol
# GULP energy per Si atom -5583.879858 kJ/mol
# Density = 2.225785 g / cm^3
# Si number density = 22.308625 Si / 1000 Ang^3
#
#
#
# Elastic Constant Matrix: (Units=GPa)
#
#
# Indices 1 2 3 4 5 6 
#
# 1 85.3606 74.6256 4.8742 0.0000 0.0000 0.0000
# 2 74.6256 85.3606 4.8741 0.0000 0.0000 0.0000
# 3 4.8742 4.8741 91.3545 0.0000 0.0000 0.0000
# 4 0.0000 0.0000 0.0000 -654.7996 0.0000 0.0000
# 5 0.0000 0.0000 0.0000 0.0000 -657.0943 0.0000
# 6 0.0000 0.0000 0.0000 0.0000 0.0000 39.2545
#
#
#
# Elastic Compliance Matrix: (Units=1/GPa)
#
#
# Indices 1 2 3 4 5 6 
#
# 1 0.049712 -0.043441 -0.000335 0.000000 0.000000 0.000000
# 2 -0.043441 0.049712 -0.000335 0.000000 0.000000 0.000000
# 3 -0.000335 -0.000335 0.010982 0.000000 0.000000 0.000000
# 4 0.000000 0.000000 0.000000 -0.001527 0.000000 0.000000
# 5 0.000000 0.000000 0.000000 0.000000 -0.001522 0.000000
# 6 0.000000 0.000000 0.000000 0.000000 0.000000 0.025475
#
#
# Mechanical properties :
#
#
# Convention : Reuss Voigt Hill
#
# Bulk Modulus (GPa) = 45.07427 47.86927 46.47177
# Shear Modulus (GPa) = 21.88687 -242.68109 -110.39711
#
# Velocity S-wave (km/s) = 3.13564 -10.44125 -7.04228
# Velocity P-wave (km/s) = 5.77567 11.12903 6.72670
#
# Compressibility (1/GPa) = 0.02218560
#
# Stress axis : x y z
#
# Youngs Moduli (GPa) = 20.11586 20.11588 91.05751
#
# Poissons Ratio (x) = 0.87386 0.03047
# Poissons Ratio (y) = 0.87385 0.03046
# Poissons Ratio (z) = 0.00673 0.00673
#
# Static dielectric constant tensor:
#      x y z
#    x 1.767360 0.000000 0.000000 
#    y 0.000000 1.767360 0.000000 
#    z 0.000000 0.000000 1.839490 
# 
# From -- ./inp_files/1660.got.cif
#   From: 2010.05.17/outbox.cif.g08.bks.cpg/sg127_1_cif.got.tgz:1660.got - 2010.05.20 12:03:00.
