data_PCOD9564498
_publ_section_title
;
Structure prediction by ZEFSAII (Michael W. Deem and Ramdas Pophale) SiO2 
 PCOD9564498
Probable space group: P 4/M B M
;
_chemical_formula_sum "Si O2"
_cell_formula_units_Z 96
_cell_length_a 24.000000
_cell_length_b 24.000000
_cell_length_c 9.000000
_cell_angle_alpha 90.000000
_cell_angle_beta 90.000000
_cell_angle_gamma 90.000000
_cell_volume 5184.000000
_symmetry_space_group_name_H-M "P 4/M B M"
_symmetry_group_IT_number 127
_symmetry_cell_setting 'tetragonal'
loop_
_space_group_symop_operation_xyz
x,y,z
-y,x,z
-x,-y,z
y,-x,z
1/2+x,1/2-y,-z
1/2-x,1/2+y,-z
1/2+y,1/2+x,-z
1/2-y,1/2-x,-z
-x,-y,-z
y,-x,-z
x,y,-z
-y,x,-z
1/2-x,1/2+y,z
1/2+x,1/2-y,z
1/2-y,1/2-x,z
1/2+y,1/2+x,z
loop_
_atom_site_type_symbol
_atom_site_label
_atom_site_fract_x
_atom_site_fract_y
_atom_site_fract_z
Si Si1 0.899065 0.310498 0.675071
Si Si2 0.892785 0.122225 0.667252
Si Si3 0.994754 0.836214 0.666882
Si Si4 0.211835 0.169815 0.173660
Si Si5 0.490587 0.773305 0.174886
Si Si6 0.774588 0.637366 0.820624
O O1 0.903175 0.298799 0.500000
O O2 0.869961 0.369961 0.696878
O O3 0.856263 0.265123 0.744960
O O4 0.960150 0.307253 0.746873
O O5 0.879234 0.144560 0.500000
O O6 0.860944 0.065491 0.685966
O O7 0.874811 0.164016 0.794422
O O8 0.958775 0.116542 0.672377
O O9 0.998438 0.810747 0.500000
O O10 0.006405 0.790180 0.788836
O O11 0.180282 0.225975 0.230500
O O12 0.224778 0.177129 0.000000
O O13 0.426494 0.776153 0.232499
O O14 0.490706 0.785146 0.000000
O O15 0.832520 0.667481 0.789034
O O16 0.766739 0.634427 0.000000
#
# Coordination Sequence:
#
# PCOD9564498 Si02
#       6
#    16  16  16  16  16  16
#     4  11  24  40  57  81 114 147 181 224 277 334
#     4  10  20  33  51  75 107 150 193 233 274 319
#     4  10  20  34  52  74 107 150 193 232 274 320
#     4  11  20  33  56  84 114 145 182 226 274 327
#     4  11  21  35  58  83 108 142 183 224 271 330
#     4   9  19  35  55  83 116 145 175 219 274 325
#
# _framework density 18.518519000000001
#
# number of rings (size 3 to 8) (size 9 to 14) (size 15 to 20)
#    0.000    1.667    3.333    2.000    0.000    2.333 
#    0.000    1.667    0.000    5.500    0.000    5.833 
#    0.000    0.000    0.000    0.000    0.000    0.000 
#
# Total GULP energy -534541.221816 kJ/mol
# GULP energy per Si atom -5568.137727 kJ/mol
# Density = 1.847637 g / cm^3
# Si number density = 18.518519 Si / 1000 Ang^3
#
#
#
# Elastic Constant Matrix: (Units=GPa)
#
#
# Indices 1 2 3 4 5 6 
#
# 1 65.8467 50.3482 14.3466 0.0000 0.0000 0.0000
# 2 50.3482 65.8467 14.3466 0.0000 0.0000 0.0000
# 3 14.3466 14.3466 34.5160 0.0000 0.0000 0.0000
# 4 0.0000 0.0000 0.0000 16.6379 0.0000 0.0000
# 5 0.0000 0.0000 0.0000 0.0000 16.6379 0.0000
# 6 0.0000 0.0000 0.0000 0.0000 0.0000 14.0927
#
#
#
# Elastic Compliance Matrix: (Units=1/GPa)
#
#
# Indices 1 2 3 4 5 6 
#
# 1 0.037056 -0.027466 -0.003986 0.000000 0.000000 0.000000
# 2 -0.027466 0.037056 -0.003986 0.000000 0.000000 0.000000
# 3 -0.003986 -0.003986 0.032286 0.000000 0.000000 0.000000
# 4 0.000000 0.000000 0.000000 0.060104 0.000000 0.000000
# 5 0.000000 0.000000 0.000000 0.000000 0.060104 0.000000
# 6 0.000000 0.000000 0.000000 0.000000 0.000000 0.070959
#
#
# Mechanical properties :
#
#
# Convention : Reuss Voigt Hill
#
# Bulk Modulus (GPa) = 28.15177 36.03248 32.09213
# Shear Modulus (GPa) = 13.14811 15.28488 14.21650
#
# Velocity S-wave (km/s) = 2.66747 2.87607 2.77373
# Velocity P-wave (km/s) = 4.97214 5.52529 5.25599
#
# Compressibility (1/GPa) = 0.03552174
#
# Stress axis : x y z
#
# Youngs Moduli (GPa) = 26.98589 26.98589 30.97327
#
# Poissons Ratio (x) = 0.74119 0.12347
# Poissons Ratio (y) = 0.74119 0.12347
# Poissons Ratio (z) = 0.10758 0.10758
#
# Static dielectric constant tensor:
#      x y z
#    x 1.660830 0.000000 0.000000 
#    y 0.000000 1.660830 0.000000 
#    z 0.000000 0.000000 1.669550 
# 
# From -- ./inp_files/2001.got.cif
#   From: 2010.05.17/outbox.ucp.g08.bks.cvg/sg127_2_cif.got.tgz:2001.got - 2010.06.11 11:37:05.
