data_PCOD9564269
_publ_section_title
;
Structure prediction by ZEFSAII (Michael W. Deem and Ramdas Pophale) SiO2 
 PCOD9564269
Probable space group: P 4/M B M
;
_chemical_formula_sum "Si O2"
_cell_formula_units_Z 80
_cell_length_a 13.778666
_cell_length_b 13.778666
_cell_length_c 24.655880
_cell_angle_alpha 90.000000
_cell_angle_beta 90.000000
_cell_angle_gamma 90.000000
_cell_volume 4680.959173
_symmetry_space_group_name_H-M "P 4/M B M"
_symmetry_group_IT_number 127
_symmetry_cell_setting 'tetragonal'
loop_
_space_group_symop_operation_xyz
x,y,z
-y,x,z
-x,-y,z
y,-x,z
1/2+x,1/2-y,-z
1/2-x,1/2+y,-z
1/2+y,1/2+x,-z
1/2-y,1/2-x,-z
-x,-y,-z
y,-x,-z
x,y,-z
-y,x,-z
1/2-x,1/2+y,z
1/2+x,1/2-y,z
1/2-y,1/2-x,z
1/2+y,1/2+x,z
loop_
_atom_site_type_symbol
_atom_site_label
_atom_site_fract_x
_atom_site_fract_y
_atom_site_fract_z
Si Si1 0.416238 0.247105 0.377793
Si Si2 0.337154 0.516552 0.145150
Si Si3 0.526629 0.661480 0.731477
Si Si4 0.776156 0.111963 0.438090
Si Si5 0.838539 0.503438 0.936822
O O1 0.343514 0.156487 0.381917
O O2 0.452104 0.264100 0.316438
O O3 0.357865 0.341646 0.399383
O O4 0.509893 0.239717 0.415676
O O5 0.397902 0.416532 0.138955
O O6 0.299646 0.527013 0.207053
O O7 0.251123 0.516207 0.102262
O O8 0.423402 0.607204 0.726052
O O9 0.812135 0.103504 0.500000
O O10 0.688205 0.188205 0.437856
O O11 0.898220 0.601781 0.923345
O O12 0.916311 0.416311 0.932715
O O13 0.808418 0.509826 0.000000
#
# Coordination Sequence:
#
# PCOD9564269 Si02
#       5
#    16  16  16  16  16
#     4  11  21  35  57  81 106 141 182 223 269 324
#     4   9  19  34  54  82 111 139 177 222 269 323
#     4   9  17  34  56  77 104 138 175 218 268 316
#     4  10  22  38  55  80 110 138 177 224 269 325
#     4   9  19  36  55  76 107 147 187 225 266 313
#
# _framework density 17.090513999999999
#
# number of rings (size 3 to 8) (size 9 to 14) (size 15 to 20)
#    0.000    2.400    2.000    2.400    0.000    4.400 
#    0.000    9.000    0.000    0.000    0.000    0.000 
#    0.000    0.000    0.000    0.000    0.000    0.000 
#
# Total GULP energy -446004.116718 kJ/mol
# GULP energy per Si atom -5575.051459 kJ/mol
# Density = 1.705162 g / cm^3
# Si number density = 17.090514 Si / 1000 Ang^3
#
#
#
# Elastic Constant Matrix: (Units=GPa)
#
#
# Indices 1 2 3 4 5 6 
#
# 1 67.4579 2.1276 53.4162 0.0000 0.0000 0.0000
# 2 2.1276 67.4579 53.4162 0.0000 0.0000 0.0000
# 3 53.4162 53.4162 134.9881 0.0000 0.0000 0.0000
# 4 0.0000 0.0000 0.0000 30.9469 0.0000 0.0000
# 5 0.0000 0.0000 0.0000 0.0000 30.9469 0.0000
# 6 0.0000 0.0000 0.0000 0.0000 0.0000 5.6979
#
#
#
# Elastic Compliance Matrix: (Units=1/GPa)
#
#
# Indices 1 2 3 4 5 6 
#
# 1 0.025961 0.010654 -0.014489 0.000000 0.000000 0.000000
# 2 0.010654 0.025961 -0.014489 0.000000 0.000000 0.000000
# 3 -0.014489 -0.014489 0.018875 0.000000 0.000000 0.000000
# 4 0.000000 0.000000 0.000000 0.032313 0.000000 0.000000
# 5 0.000000 0.000000 0.000000 0.000000 0.032313 0.000000
# 6 0.000000 0.000000 0.000000 0.000000 0.000000 0.175502
#
#
# Mechanical properties :
#
#
# Convention : Reuss Voigt Hill
#
# Bulk Modulus (GPa) = 29.28292 54.20264 41.74278
# Shear Modulus (GPa) = 13.92922 24.24795 19.08859
#
# Velocity S-wave (km/s) = 2.85796 3.77078 3.34565
# Velocity P-wave (km/s) = 5.29734 7.12336 6.27710
#
# Compressibility (1/GPa) = 0.03414960
#
# Stress axis : x y z
#
# Youngs Moduli (GPa) = 38.51902 38.51902 52.97992
#
# Poissons Ratio (x) = -0.41040 0.76763
# Poissons Ratio (y) = -0.41040 0.76763
# Poissons Ratio (z) = 0.55811 0.55811
#
# Static dielectric constant tensor:
#      x y z
#    x 1.559740 0.000000 0.000000 
#    y 0.000000 1.559740 0.000000 
#    z 0.000000 0.000000 1.584170 
# 
# From -- ./inp_files/5632.got.cif
#   From: 2010.05.17/outbox.cif.g08.bks.cpg/sg127_3_cif.got.tgz:5632.got - 2010.05.20 12:03:00.
