data_PCOD9564638
_publ_section_title
;
Structure prediction by ZEFSAII (Michael W. Deem and Ramdas Pophale) SiO2 
 PCOD9564638
Probable space group: P 4/M N C
;
_chemical_formula_sum "Si O2"
_cell_formula_units_Z 104
_cell_length_a 21.063504
_cell_length_b 21.063504
_cell_length_c 15.340906
_cell_angle_alpha 90.000000
_cell_angle_beta 90.000000
_cell_angle_gamma 90.000000
_cell_volume 6806.318186
_symmetry_space_group_name_H-M "P 4/M N C"
_symmetry_group_IT_number 128
_symmetry_cell_setting 'tetragonal'
loop_
_space_group_symop_operation_xyz
x,y,z
-y,x,z
-x,-y,z
y,-x,z
1/2+x,1/2-y,1/2-z
1/2-x,1/2+y,1/2-z
1/2+y,1/2+x,1/2-z
1/2-y,1/2-x,1/2-z
-x,-y,-z
y,-x,-z
x,y,-z
-y,x,-z
1/2-x,1/2+y,1/2+z
1/2+x,1/2-y,1/2+z
1/2-y,1/2-x,1/2+z
1/2+y,1/2+x,1/2+z
loop_
_atom_site_type_symbol
_atom_site_label
_atom_site_fract_x
_atom_site_fract_y
_atom_site_fract_z
Si Si1 0.358712 0.265707 0.000000
Si Si2 0.796468 0.681599 0.646629
Si Si3 0.736246 0.633286 0.000000
Si Si4 0.949470 0.635256 0.852373
Si Si5 0.505570 0.119848 0.845219
Si Si6 0.999286 0.279819 0.500000
Si Si7 0.633850 0.913535 0.901847
Si Si8 0.220370 0.695664 0.648864
O O1 0.333011 0.336659 0.000000
O O2 0.432663 0.255023 0.000000
O O3 0.327001 0.234083 0.085360
O O4 0.809054 0.690947 0.750000
O O5 0.840703 0.724868 0.584231
O O6 0.818156 0.609436 0.629047
O O7 0.725372 0.709743 0.629018
O O8 0.733758 0.558627 0.000000
O O9 0.928995 0.561963 0.870913
O O10 0.971474 0.639676 0.751067
O O11 0.012789 0.649560 0.903749
O O12 0.432672 0.095233 0.849255
O O13 0.506046 0.176210 0.914755
O O14 0.694930 0.875357 0.866926
O O15 0.620108 0.890406 0.000000
O O16 0.209141 0.709141 0.750000
#
# Coordination Sequence:
#
# PCOD9564638 Si02
#       8
#     8  16   8  16  16   8  16  16
#     4  10  20  34  50  77  92 126 172 201 244 300
#     4  10  19  35  51  71  91 124 170 206 245 287
#     4  10  20  32  54  71  98 126 160 211 250 276
#     4  11  22  32  48  71  99 130 166 200 240 285
#     4  11  20  34  47  67 100 134 165 195 236 283
#     4  12  18  32  55  67 100 128 166 204 240 292
#     4  12  23  33  46  72 102 136 168 194 237 295
#     4  10  19  34  53  66  93 128 163 209 247 279
#
# _framework density 15.279920000000001
#
# number of rings (size 3 to 8) (size 9 to 14) (size 15 to 20)
#    0.000    1.231    6.154    1.846    2.154    1.846 
#    0.000    0.000    0.000    0.231    0.000    0.000 
#    0.000    0.615    0.000    1.385    0.000    0.000 
#
# Total GULP energy -579123.973351 kJ/mol
# GULP energy per Si atom -5568.499744 kJ/mol
# Density = 1.524514 g / cm^3
# Si number density = 15.279920 Si / 1000 Ang^3
#
#
#
# Elastic Constant Matrix: (Units=GPa)
#
#
# Indices 1 2 3 4 5 6 
#
# 1 98.1953 66.4913 23.0980 0.0000 0.0000 0.0000
# 2 66.4913 98.1954 23.0981 0.0000 0.0000 0.0000
# 3 23.0980 23.0981 71.2271 0.0000 0.0000 0.0000
# 4 0.0000 0.0000 0.0000 18.2354 0.0000 0.0000
# 5 0.0000 0.0000 0.0000 0.0000 18.2356 0.0000
# 6 0.0000 0.0000 0.0000 0.0000 0.0000 33.8046
#
#
#
# Elastic Compliance Matrix: (Units=1/GPa)
#
#
# Indices 1 2 3 4 5 6 
#
# 1 0.019111 -0.012431 -0.002166 0.000000 0.000000 0.000000
# 2 -0.012431 0.019111 -0.002166 0.000000 0.000000 0.000000
# 3 -0.002166 -0.002166 0.015445 0.000000 0.000000 0.000000
# 4 0.000000 0.000000 0.000000 0.054838 0.000000 0.000000
# 5 0.000000 0.000000 0.000000 0.000000 0.054838 0.000000
# 6 0.000000 0.000000 0.000000 0.000000 0.000000 0.029582
#
#
# Mechanical properties :
#
#
# Convention : Reuss Voigt Hill
#
# Bulk Modulus (GPa) = 49.65394 54.77697 52.21546
# Shear Modulus (GPa) = 21.44418 24.38382 22.91400
#
# Velocity S-wave (km/s) = 3.75029 3.99909 3.87669
# Velocity P-wave (km/s) = 7.16377 7.56640 7.36784
#
# Compressibility (1/GPa) = 0.02013939
#
# Stress axis : x y z
#
# Youngs Moduli (GPa) = 52.32658 52.32664 64.74792
#
# Poissons Ratio (x) = 0.65047 0.14025
# Poissons Ratio (y) = 0.65047 0.14026
# Poissons Ratio (z) = 0.11335 0.11335
#
# Static dielectric constant tensor:
#      x y z
#    x 1.523060 0.000000 0.000000 
#    y 0.000000 1.523060 0.000000 
#    z 0.000000 0.000000 1.554920 
# 
# From -- ./inp_files/4079.got.cif
#   From: 2010.05.17/outbox.cif.g08.bks.cpg/sg128_3_cif.got.tgz:4079.got - 2010.05.20 12:07:25.
