data_PCOD9564124
_publ_section_title
;
Structure prediction by ZEFSAII (Michael W. Deem and Ramdas Pophale) SiO2 
 PCOD9564124
Probable space group: P 4/M B M
;
_chemical_formula_sum "Si O2"
_cell_formula_units_Z 38
_cell_length_a 16.014359
_cell_length_b 16.014359
_cell_length_c 7.653887
_cell_angle_alpha 90.000000
_cell_angle_beta 90.000000
_cell_angle_gamma 90.000000
_cell_volume 1962.913519
_symmetry_space_group_name_H-M "P 4/M B M"
_symmetry_group_IT_number 127
_symmetry_cell_setting 'tetragonal'
loop_
_space_group_symop_operation_xyz
x,y,z
-y,x,z
-x,-y,z
y,-x,z
1/2+x,1/2-y,-z
1/2-x,1/2+y,-z
1/2+y,1/2+x,-z
1/2-y,1/2-x,-z
-x,-y,-z
y,-x,-z
x,y,-z
-y,x,-z
1/2-x,1/2+y,z
1/2+x,1/2-y,z
1/2-y,1/2-x,z
1/2+y,1/2+x,z
loop_
_atom_site_type_symbol
_atom_site_label
_atom_site_fract_x
_atom_site_fract_y
_atom_site_fract_z
Si Si1 0.500000 0.500000 0.500000
Si Si2 0.590517 0.325552 0.500000
Si Si3 0.712988 0.787013 0.500000
Si Si4 0.615912 0.884089 0.796275
Si Si5 0.560893 0.197603 0.205436
O O1 0.567835 0.422163 0.500000
O O2 0.689653 0.309010 0.500000
O O3 0.556057 0.277192 0.329683
O O4 0.671435 0.828566 0.669681
O O5 0.519503 0.861142 0.765698
O O6 0.633860 0.866141 0.000000
O O7 0.643213 0.143213 0.245748
O O8 0.562849 0.219876 0.000000
#
# Coordination Sequence:
#
# PCOD9564124 Si02
#       5
#     2   8   4   8  16
#     4  12  28  44  66  88 136 174 224 272 326 384
#     4  12  24  44  61  88 123 173 215 267 315 381
#     4  12  24  40  65  87 122 168 220 260 316 382
#     4  10  21  36  60  94 125 154 195 256 324 384
#     4  10  20  38  65  95 126 159 203 259 323 389
#
# _framework density 19.358978
#
# number of rings (size 3 to 8) (size 9 to 14) (size 15 to 20)
#    0.000    1.263    2.105    4.421    0.000    4.211 
#    0.000    6.316    0.000    0.000    0.000    0.000 
#    0.000    0.000    0.000    0.000    0.000    0.000 
#
# Total GULP energy -211913.311846 kJ/mol
# GULP energy per Si atom -5576.666101 kJ/mol
# Density = 1.931492 g / cm^3
# Si number density = 19.358978 Si / 1000 Ang^3
#
#
#
# Elastic Constant Matrix: (Units=GPa)
#
#
# Indices 1 2 3 4 5 6 
#
# 1 82.8525 34.7184 32.0824 0.0000 0.0000 0.0000
# 2 34.7184 82.8535 32.0806 0.0000 0.0000 0.0000
# 3 32.0824 32.0806 51.3094 0.0000 0.0000 0.0000
# 4 0.0000 0.0000 0.0000 -2.0206 0.0000 0.0000
# 5 0.0000 0.0000 0.0000 0.0000 -2.0177 0.0000
# 6 0.0000 0.0000 0.0000 0.0000 0.0000 34.4465
#
#
#
# Elastic Compliance Matrix: (Units=1/GPa)
#
#
# Indices 1 2 3 4 5 6 
#
# 1 0.016843 -0.003932 -0.008073 0.000000 0.000000 0.000000
# 2 -0.003932 0.016843 -0.008072 0.000000 0.000000 0.000000
# 3 -0.008073 -0.008072 0.029585 0.000000 0.000000 0.000000
# 4 0.000000 0.000000 0.000000 -0.494914 0.000000 0.000000
# 5 0.000000 0.000000 0.000000 0.000000 -0.495615 0.000000
# 6 0.000000 0.000000 0.000000 0.000000 0.000000 0.029030
#
#
# Mechanical properties :
#
#
# Convention : Reuss Voigt Hill
#
# Bulk Modulus (GPa) = 43.26027 46.08645 44.67336
# Shear Modulus (GPa) = -5.87981 13.95726 4.03873
#
# Velocity S-wave (km/s) = -1.74466 2.68800 1.44595
# Velocity P-wave (km/s) = 4.28210 5.78720 5.09059
#
# Compressibility (1/GPa) = 0.02311590
#
# Stress axis : x y z
#
# Youngs Moduli (GPa) = 59.37016 59.37318 33.80135
#
# Poissons Ratio (x) = 0.23346 0.27289
# Poissons Ratio (y) = 0.23344 0.27285
# Poissons Ratio (z) = 0.47931 0.47926
#
# Static dielectric constant tensor:
#      x y z
#    x 1.662120 0.000000 0.000000 
#    y 0.000000 1.662120 0.000000 
#    z 0.000000 0.000000 1.670280 
# 
# From -- ./inp_files/582.got.cif
#   From: 2010.05.17/outbox.cif.g08.bks.cpg/sg127_1_cif.got.tgz:582.got - 2010.05.20 12:03:00.
