data_PCOD9564065
_publ_section_title
;
Structure prediction by ZEFSAII (Michael W. Deem and Ramdas Pophale) SiO2 
 PCOD9564065
Probable space group: P 4/M B M
;
_chemical_formula_sum "Si O2"
_cell_formula_units_Z 120
_cell_length_a 14.287610
_cell_length_b 14.287610
_cell_length_c 32.802899
_cell_angle_alpha 90.000000
_cell_angle_beta 90.000000
_cell_angle_gamma 90.000000
_cell_volume 6696.246014
_symmetry_space_group_name_H-M "P 4/M B M"
_symmetry_group_IT_number 127
_symmetry_cell_setting 'tetragonal'
loop_
_space_group_symop_operation_xyz
x,y,z
-y,x,z
-x,-y,z
y,-x,z
1/2+x,1/2-y,-z
1/2-x,1/2+y,-z
1/2+y,1/2+x,-z
1/2-y,1/2-x,-z
-x,-y,-z
y,-x,-z
x,y,-z
-y,x,-z
1/2-x,1/2+y,z
1/2+x,1/2-y,z
1/2-y,1/2-x,z
1/2+y,1/2+x,z
loop_
_atom_site_type_symbol
_atom_site_label
_atom_site_fract_x
_atom_site_fract_y
_atom_site_fract_z
Si Si1 0.296711 0.639830 0.082572
Si Si2 0.651395 0.004294 0.106048
Si Si3 0.359162 0.432234 0.751875
Si Si4 0.553380 0.648801 0.546439
Si Si5 0.242759 0.896815 0.670053
Si Si6 0.245323 0.099089 0.628687
Si Si7 0.374658 0.720397 0.161390
Si Si8 0.602199 0.382187 0.000000
O O1 0.225741 0.725741 0.085161
O O2 0.232062 0.547216 0.080339
O O3 0.355101 0.646595 0.124638
O O4 0.356337 0.654577 0.042170
O O5 0.588690 0.088690 0.087211
O O6 0.705684 0.050114 0.143787
O O7 0.576985 0.923016 0.117271
O O8 0.457858 0.379691 0.746284
O O9 0.286441 0.401620 0.717385
O O10 0.324569 0.410298 0.797283
O O11 0.445798 0.614980 0.551082
O O12 0.565782 0.682800 0.500000
O O13 0.579910 0.720746 0.581524
O O14 0.336492 0.836492 0.664663
O O15 0.159805 0.840148 0.647341
O O16 0.251571 0.000358 0.651753
O O17 0.337781 0.162220 0.633172
O O18 0.279546 0.779546 0.168969
O O19 0.626552 0.491798 0.000000
#
# Coordination Sequence:
#
# PCOD9564065 Si02
#       8
#    16  16  16  16  16  16  16   8
#     4  10  20  36  57  79 106 139 178 223 271 329
#     4   9  18  34  55  78 105 140 179 218 269 330
#     4  11  22  36  57  84 112 147 193 241 288 345
#     4   9  17  31  56  89 121 156 203 258 307 354
#     4  11  23  40  60  86 118 153 200 251 299 363
#     4  11  22  37  62  88 116 164 205 244 307 361
#     4  10  20  35  56  82 112 145 179 225 281 336
#     4  11  23  36  52  75 105 139 176 219 270 329
#
# _framework density 17.920490000000001
#
# number of rings (size 3 to 8) (size 9 to 14) (size 15 to 20)
#    0.000    1.800    2.667    2.600    0.000    0.800 
#    0.000    3.667    0.000    3.600    0.000    0.933 
#    0.000    0.000    0.000    0.000    0.000    0.000 
#
# Total GULP energy -669420.934262 kJ/mol
# GULP energy per Si atom -5578.507786 kJ/mol
# Density = 1.787970 g / cm^3
# Si number density = 17.920490 Si / 1000 Ang^3
#
#
#
# Elastic Constant Matrix: (Units=GPa)
#
#
# Indices 1 2 3 4 5 6 
#
# 1 143.0132 -16.5068 39.0748 0.0000 0.0000 0.0000
# 2 -16.5068 143.0132 39.0748 0.0000 0.0000 0.0000
# 3 39.0748 39.0748 116.0441 0.0000 0.0000 0.0000
# 4 0.0000 0.0000 0.0000 25.1300 0.0000 0.0000
# 5 0.0000 0.0000 0.0000 0.0000 25.1300 0.0000
# 6 0.0000 0.0000 0.0000 0.0000 0.0000 -53.7568
#
#
#
# Elastic Compliance Matrix: (Units=1/GPa)
#
#
# Indices 1 2 3 4 5 6 
#
# 1 0.008125 0.001856 -0.003361 0.000000 0.000000 0.000000
# 2 0.001856 0.008125 -0.003361 0.000000 0.000000 0.000000
# 3 -0.003361 -0.003361 0.010881 0.000000 0.000000 0.000000
# 4 0.000000 0.000000 0.000000 0.039793 0.000000 0.000000
# 5 0.000000 0.000000 0.000000 0.000000 0.039793 0.000000
# 6 0.000000 0.000000 0.000000 0.000000 0.000000 -0.018602
#
#
# Mechanical properties :
#
#
# Convention : Reuss Voigt Hill
#
# Bulk Modulus (GPa) = 57.47358 58.37290 57.92324
# Shear Modulus (GPa) = 48.24157 21.99583 35.11870
#
# Velocity S-wave (km/s) = 5.19406 3.50725 4.43165
# Velocity P-wave (km/s) = 8.25300 7.00321 7.65366
#
# Compressibility (1/GPa) = 0.01739930
#
# Stress axis : x y z
#
# Youngs Moduli (GPa) = 123.07922 123.07922 91.90546
#
# Poissons Ratio (x) = -0.22844 0.30888
# Poissons Ratio (y) = -0.22844 0.30888
# Poissons Ratio (z) = 0.41365 0.41365
#
# Static dielectric constant tensor:
#      x y z
#    x 1.618340 0.000000 0.000000 
#    y 0.000000 1.618340 0.000000 
#    z 0.000000 0.000000 1.603360 
# 
# From -- ./inp_files/6694.got.cif
#   From: 2010.05.17/outbox.cif.g08.bks.cpg/sg127_4_cif.got.tgz:6694.got - 2010.05.20 12:03:00.
