data_PCOD9564073
_publ_section_title
;
Structure prediction by ZEFSAII (Michael W. Deem and Ramdas Pophale) SiO2 
 PCOD9564073
Probable space group: P 4/M B M
;
_chemical_formula_sum "Si O2"
_cell_formula_units_Z 72
_cell_length_a 14.443061
_cell_length_b 14.443061
_cell_length_c 17.433735
_cell_angle_alpha 90.000000
_cell_angle_beta 90.000000
_cell_angle_gamma 90.000000
_cell_volume 3636.712181
_symmetry_space_group_name_H-M "P 4/M B M"
_symmetry_group_IT_number 127
_symmetry_cell_setting 'tetragonal'
loop_
_space_group_symop_operation_xyz
x,y,z
-y,x,z
-x,-y,z
y,-x,z
1/2+x,1/2-y,-z
1/2-x,1/2+y,-z
1/2+y,1/2+x,-z
1/2-y,1/2-x,-z
-x,-y,-z
y,-x,-z
x,y,-z
-y,x,-z
1/2-x,1/2+y,z
1/2+x,1/2-y,z
1/2-y,1/2-x,z
1/2+y,1/2+x,z
loop_
_atom_site_type_symbol
_atom_site_label
_atom_site_fract_x
_atom_site_fract_y
_atom_site_fract_z
Si Si1 0.672788 0.325616 0.750497
Si Si2 0.921933 0.578068 0.586605
Si Si3 0.505149 0.851690 0.124965
Si Si4 0.797011 0.137851 0.082500
Si Si5 0.998913 0.277108 0.704826
O O1 0.729276 0.229276 0.750858
O O2 0.659356 0.353434 0.839987
O O3 0.572989 0.304015 0.717339
O O4 0.731185 0.398720 0.702870
O O5 0.895258 0.604743 0.500000
O O6 0.838340 0.533422 0.634733
O O7 0.000000 0.500000 0.582641
O O8 0.606182 0.893819 0.103700
O O9 0.459627 0.758388 0.091829
O O10 0.502262 0.837738 0.216916
O O11 0.431296 0.931296 0.104321
O O12 0.717019 0.217019 0.081251
O O13 0.845217 0.140192 0.000000
#
# Coordination Sequence:
#
# PCOD9564073 Si02
#       5
#    16   8  16  16  16
#     4  10  20  35  58  84 113 162 208 247 300 356
#     4  11  22  38  64  96 123 150 190 252 322 366
#     4   9  15  25  47  76 104 145 190 245 308 351
#     4   8  15  28  44  70 111 151 193 245 301 357
#     4  11  20  37  58  84 121 155 201 247 290 371
#
# _framework density 19.798103000000001
#
# number of rings (size 3 to 8) (size 9 to 14) (size 15 to 20)
#    0.000    2.333    2.222    3.333    0.000    0.889 
#    0.000    7.778    0.000    5.333    0.000    7.778 
#    0.000    0.000    0.000    0.000    0.000    0.000 
#
# Total GULP energy -401590.635801 kJ/mol
# GULP energy per Si atom -5577.647719 kJ/mol
# Density = 1.975304 g / cm^3
# Si number density = 19.798103 Si / 1000 Ang^3
#
#
#
# Elastic Constant Matrix: (Units=GPa)
#
#
# Indices 1 2 3 4 5 6 
#
# 1 50.5179 5.8664 14.8507 0.0000 0.0000 0.0000
# 2 5.8664 50.5179 14.8507 0.0000 0.0000 0.0000
# 3 14.8507 14.8507 110.7000 0.0000 0.0000 0.0000
# 4 0.0000 0.0000 0.0000 7.9683 0.0000 0.0000
# 5 0.0000 0.0000 0.0000 0.0000 7.9682 0.0000
# 6 0.0000 0.0000 0.0000 0.0000 0.0000 40.0349
#
#
#
# Elastic Compliance Matrix: (Units=1/GPa)
#
#
# Indices 1 2 3 4 5 6 
#
# 1 0.020740 -0.001656 -0.002560 0.000000 0.000000 0.000000
# 2 -0.001656 0.020740 -0.002560 0.000000 0.000000 0.000000
# 3 -0.002560 -0.002560 0.009720 0.000000 0.000000 0.000000
# 4 0.000000 0.000000 0.000000 0.125497 0.000000 0.000000
# 5 0.000000 0.000000 0.000000 0.000000 0.125498 0.000000
# 6 0.000000 0.000000 0.000000 0.000000 0.000000 0.024978
#
#
# Mechanical properties :
#
#
# Convention : Reuss Voigt Hill
#
# Bulk Modulus (GPa) = 26.56204 31.43016 28.99610
# Shear Modulus (GPa) = 14.15329 22.93882 18.54606
#
# Velocity S-wave (km/s) = 2.67663 3.40757 3.06397
# Velocity P-wave (km/s) = 4.79563 5.60284 5.21488
#
# Compressibility (1/GPa) = 0.03764772
#
# Stress axis : x y z
#
# Youngs Moduli (GPa) = 48.21638 48.21633 102.87714
#
# Poissons Ratio (x) = 0.07984 0.26338
# Poissons Ratio (y) = 0.07984 0.26338
# Poissons Ratio (z) = 0.12344 0.12344
#
# Static dielectric constant tensor:
#      x y z
#    x 1.715310 0.000000 0.000000 
#    y 0.000000 1.715310 0.000000 
#    z 0.000000 0.000000 1.704890 
# 
# From -- ./inp_files/4956.got.cif
#   From: 2010.05.17/outbox.cif.g08.bks.cpg/sg127_3_cif.got.tgz:4956.got - 2010.05.20 12:03:00.
