data_PCOD9564078
_publ_section_title
;
Structure prediction by ZEFSAII (Michael W. Deem and Ramdas Pophale) SiO2 
 PCOD9564078
Probable space group: P 4/M B M
;
_chemical_formula_sum "Si O2"
_cell_formula_units_Z 56
_cell_length_a 17.468780
_cell_length_b 17.468780
_cell_length_c 10.691504
_cell_angle_alpha 90.000000
_cell_angle_beta 90.000000
_cell_angle_gamma 90.000000
_cell_volume 3262.600914
_symmetry_space_group_name_H-M "P 4/M B M"
_symmetry_group_IT_number 127
_symmetry_cell_setting 'tetragonal'
loop_
_space_group_symop_operation_xyz
x,y,z
-y,x,z
-x,-y,z
y,-x,z
1/2+x,1/2-y,-z
1/2-x,1/2+y,-z
1/2+y,1/2+x,-z
1/2-y,1/2-x,-z
-x,-y,-z
y,-x,-z
x,y,-z
-y,x,-z
1/2-x,1/2+y,z
1/2+x,1/2-y,z
1/2-y,1/2-x,z
1/2+y,1/2+x,z
loop_
_atom_site_type_symbol
_atom_site_label
_atom_site_fract_x
_atom_site_fract_y
_atom_site_fract_z
Si Si1 0.003098 0.877775 0.149822
Si Si2 0.978448 0.276634 0.289558
Si Si3 0.771045 0.857740 0.500000
Si Si4 0.605206 0.233808 0.500000
Si Si5 0.934663 0.434663 0.150654
O O1 0.006681 0.791700 0.193804
O O2 0.927854 0.923966 0.193344
O O3 0.002984 0.879952 0.000000
O O4 0.909477 0.248149 0.379365
O O5 0.960414 0.355895 0.218885
O O6 0.051845 0.280530 0.380007
O O7 0.710499 0.789502 0.500000
O O8 0.854472 0.817596 0.500000
O O9 0.672021 0.172021 0.500000
O O10 0.000000 0.500000 0.167108
O O11 0.923964 0.423964 0.000000
#
# Coordination Sequence:
#
# PCOD9564078 Si02
#       5
#    16  16   8   8   8
#     4   9  18  33  55  83 112 143 181 227 284 348
#     4  11  20  36  57  79 109 150 184 234 281 341
#     4  10  20  36  52  81 108 139 180 228 278 339
#     4  10  22  35  55  80 109 141 180 228 283 334
#     4  11  24  39  57  81 111 152 203 245 279 326
#
# _framework density 17.16422
#
# number of rings (size 3 to 8) (size 9 to 14) (size 15 to 20)
#    0.000    1.857    1.429    4.286    0.000    0.000 
#    0.000    2.143    0.000    6.857    0.000    0.000 
#    0.000    0.000    0.000    0.000    0.000    0.000 
#
# Total GULP energy -312236.676355 kJ/mol
# GULP energy per Si atom -5575.654935 kJ/mol
# Density = 1.712515 g / cm^3
# Si number density = 17.164220 Si / 1000 Ang^3
#
#
#
# Elastic Constant Matrix: (Units=GPa)
#
#
# Indices 1 2 3 4 5 6 
#
# 1 137.1506 71.7856 60.0126 0.0000 0.0000 0.0000
# 2 71.7856 137.1508 60.0126 0.0000 0.0000 0.0000
# 3 60.0126 60.0126 91.9526 0.0000 0.0000 0.0000
# 4 0.0000 0.0000 0.0000 13.0525 0.0000 0.0000
# 5 0.0000 0.0000 0.0000 0.0000 13.0510 0.0000
# 6 0.0000 0.0000 0.0000 0.0000 0.0000 28.1484
#
#
#
# Elastic Compliance Matrix: (Units=1/GPa)
#
#
# Indices 1 2 3 4 5 6 
#
# 1 0.011478 -0.003821 -0.004997 0.000000 0.000000 0.000000
# 2 -0.003821 0.011478 -0.004997 0.000000 0.000000 0.000000
# 3 -0.004997 -0.004997 0.017398 0.000000 0.000000 0.000000
# 4 0.000000 0.000000 0.000000 0.076614 0.000000 0.000000
# 5 0.000000 0.000000 0.000000 0.000000 0.076622 0.000000
# 6 0.000000 0.000000 0.000000 0.000000 0.000000 0.035526
#
#
# Mechanical properties :
#
#
# Convention : Reuss Voigt Hill
#
# Bulk Modulus (GPa) = 78.59889 83.31949 80.95919
# Shear Modulus (GPa) = 19.15804 22.47994 20.81899
#
# Velocity S-wave (km/s) = 3.34452 3.62290 3.48649
# Velocity P-wave (km/s) = 7.79783 8.13317 7.96727
#
# Compressibility (1/GPa) = 0.01272283
#
# Stress axis : x y z
#
# Youngs Moduli (GPa) = 87.12494 87.12511 57.47789
#
# Poissons Ratio (x) = 0.33290 0.28723
# Poissons Ratio (y) = 0.33290 0.28723
# Poissons Ratio (z) = 0.43538 0.43538
#
# Static dielectric constant tensor:
#      x y z
#    x 1.572110 0.000000 0.000000 
#    y 0.000000 1.572110 0.000000 
#    z 0.000000 0.000000 1.569050 
# 
# From -- ./inp_files/1121.got.cif
#   From: 2010.05.17/outbox.cif.g08.bks.cpg/sg127_1_cif.got.tgz:1121.got - 2010.05.20 12:03:00.
