data_PCOD9564054
_publ_section_title
;
Structure prediction by ZEFSAII (Michael W. Deem and Ramdas Pophale) SiO2 
 PCOD9564054
Probable space group: P 4/M B M
;
_chemical_formula_sum "Si O2"
_cell_formula_units_Z 40
_cell_length_a 18.323917
_cell_length_b 18.323917
_cell_length_c 7.123202
_cell_angle_alpha 90.000000
_cell_angle_beta 90.000000
_cell_angle_gamma 90.000000
_cell_volume 2391.728574
_symmetry_space_group_name_H-M "P 4/M B M"
_symmetry_group_IT_number 127
_symmetry_cell_setting 'tetragonal'
loop_
_space_group_symop_operation_xyz
x,y,z
-y,x,z
-x,-y,z
y,-x,z
1/2+x,1/2-y,-z
1/2-x,1/2+y,-z
1/2+y,1/2+x,-z
1/2-y,1/2-x,-z
-x,-y,-z
y,-x,-z
x,y,-z
-y,x,-z
1/2-x,1/2+y,z
1/2+x,1/2-y,z
1/2-y,1/2-x,z
1/2+y,1/2+x,z
loop_
_atom_site_type_symbol
_atom_site_label
_atom_site_fract_x
_atom_site_fract_y
_atom_site_fract_z
Si Si1 0.359138 0.264612 0.000000
Si Si2 0.223503 0.518992 0.275662
Si Si3 0.941989 0.441989 0.274104
Si Si4 0.112700 0.264171 0.000000
O O1 0.413818 0.265591 0.178063
O O2 0.308503 0.191498 0.000000
O O3 0.302874 0.331185 0.000000
O O4 0.232078 0.517349 0.500000
O O5 0.139454 0.536102 0.223856
O O6 0.240194 0.441775 0.178064
O O7 0.943819 0.443819 0.500000
O O8 0.000000 0.500000 0.204192
O O9 0.161909 0.338092 0.000000
#
# Coordination Sequence:
#
# PCOD9564054 Si02
#       4
#     8  16   8   8
#     4  10  20  36  54  79 110 145 184 224 271 322
#     4  10  20  35  54  79 110 147 183 219 270 326
#     4   9  16  27  49  79 108 137 171 206 253 326
#     4  10  22  35  53  82 115 143 178 227 273 322
#
# _framework density 16.724305999999999
#
# number of rings (size 3 to 8) (size 9 to 14) (size 15 to 20)
#    0.000    2.200    2.000    1.200    0.000    4.000 
#    0.000    7.000    0.000    9.600    0.000   11.200 
#    0.000    0.000    0.000    0.000    0.000    0.000 
#
# Total GULP energy -223036.101746 kJ/mol
# GULP energy per Si atom -5575.902544 kJ/mol
# Density = 1.668624 g / cm^3
# Si number density = 16.724306 Si / 1000 Ang^3
#
#
#
# Elastic Constant Matrix: (Units=GPa)
#
#
# Indices 1 2 3 4 5 6 
#
# 1 107.5505 70.4720 54.1478 0.0000 0.0000 0.0000
# 2 70.4720 107.5498 54.1477 0.0000 0.0000 0.0000
# 3 54.1478 54.1477 155.5983 0.0000 0.0000 0.0000
# 4 0.0000 0.0000 0.0000 16.1595 0.0000 0.0000
# 5 0.0000 0.0000 0.0000 0.0000 16.1594 0.0000
# 6 0.0000 0.0000 0.0000 0.0000 0.0000 31.9140
#
#
#
# Elastic Compliance Matrix: (Units=1/GPa)
#
#
# Indices 1 2 3 4 5 6 
#
# 1 0.017048 -0.009922 -0.002480 0.000000 0.000000 0.000000
# 2 -0.009922 0.017048 -0.002480 0.000000 0.000000 0.000000
# 3 -0.002480 -0.002480 0.008153 0.000000 0.000000 0.000000
# 4 0.000000 0.000000 0.000000 0.061883 0.000000 0.000000
# 5 0.000000 0.000000 0.000000 0.000000 0.061883 0.000000
# 6 0.000000 0.000000 0.000000 0.000000 0.000000 0.031334
#
#
# Mechanical properties :
#
#
# Convention : Reuss Voigt Hill
#
# Bulk Modulus (GPa) = 80.09449 80.91482 80.50466
# Shear Modulus (GPa) = 21.61937 25.64200 23.63068
#
# Velocity S-wave (km/s) = 3.59930 3.91988 3.76301
# Velocity P-wave (km/s) = 8.07888 8.30505 8.19275
#
# Compressibility (1/GPa) = 0.01248525
#
# Stress axis : x y z
#
# Youngs Moduli (GPa) = 58.65841 58.65799 122.65880
#
# Poissons Ratio (x) = 0.58201 0.30416
# Poissons Ratio (y) = 0.58202 0.30416
# Poissons Ratio (z) = 0.14546 0.14546
#
# Static dielectric constant tensor:
#      x y z
#    x 1.549250 0.000000 0.000000 
#    y 0.000000 1.549250 0.000000 
#    z 0.000000 0.000000 1.586810 
# 
# From -- ./inp_files/754.got.cif
#   From: 2010.05.17/outbox.cif.g08.bks.cpg/sg127_1_cif.got.tgz:754.got - 2010.05.20 12:03:00.
