data_PCOD9564341
_publ_section_title
;
Structure prediction by ZEFSAII (Michael W. Deem and Ramdas Pophale) SiO2 
 PCOD9564341
Probable space group: P 4/M B M
;
_chemical_formula_sum "Si O2"
_cell_formula_units_Z 72
_cell_length_a 14.874038
_cell_length_b 14.874038
_cell_length_c 19.260426
_cell_angle_alpha 90.000000
_cell_angle_beta 90.000000
_cell_angle_gamma 90.000000
_cell_volume 4261.118991
_symmetry_space_group_name_H-M "P 4/M B M"
_symmetry_group_IT_number 127
_symmetry_cell_setting 'tetragonal'
loop_
_space_group_symop_operation_xyz
x,y,z
-y,x,z
-x,-y,z
y,-x,z
1/2+x,1/2-y,-z
1/2-x,1/2+y,-z
1/2+y,1/2+x,-z
1/2-y,1/2-x,-z
-x,-y,-z
y,-x,-z
x,y,-z
-y,x,-z
1/2-x,1/2+y,z
1/2+x,1/2-y,z
1/2-y,1/2-x,z
1/2+y,1/2+x,z
loop_
_atom_site_type_symbol
_atom_site_label
_atom_site_fract_x
_atom_site_fract_y
_atom_site_fract_z
Si Si1 0.992710 0.647444 0.581598
Si Si2 0.217796 0.131106 0.365963
Si Si3 0.596581 0.617607 0.773967
Si Si4 0.391544 0.395327 0.500000
Si Si5 0.381904 0.597039 0.074722
O O1 0.982730 0.670709 0.500000
O O2 0.068977 0.568977 0.584155
O O3 0.035719 0.730351 0.622534
O O4 0.900222 0.599779 0.605463
O O5 0.292614 0.207387 0.369766
O O6 0.168687 0.133026 0.292561
O O7 0.150504 0.144387 0.430300
O O8 0.487861 0.621073 0.770592
O O9 0.626248 0.653819 0.849967
O O10 0.498669 0.379174 0.500000
O O11 0.379145 0.488164 0.074713
O O12 0.344049 0.628152 0.000000
#
# Coordination Sequence:
#
# PCOD9564341 Si02
#       5
#    16  16  16   8  16
#     4   8  14  27  46  63  80 107 142 178 218 256
#     4  11  20  32  48  67  92 117 148 188 225 262
#     4   9  17  30  47  66  92 123 148 175 220 272
#     4  11  23  38  52  63  81 113 150 185 228 279
#     4   7  10  19  39  66  89 110 143 182 212 247
#
# _framework density 16.89697
#
# number of rings (size 3 to 8) (size 9 to 14) (size 15 to 20)
#    0.000    3.000    1.111    4.333    0.000    1.778 
#    0.000    5.556    0.000    0.667    0.000    0.000 
#    0.000    2.667    0.000    5.556    0.000    0.000 
#
# Total GULP energy -400939.351879 kJ/mol
# GULP energy per Si atom -5568.602109 kJ/mol
# Density = 1.685851 g / cm^3
# Si number density = 16.896970 Si / 1000 Ang^3
#
#
#
# Elastic Constant Matrix: (Units=GPa)
#
#
# Indices 1 2 3 4 5 6 
#
# 1 36.3624 5.4562 28.9339 0.0000 0.0000 0.0000
# 2 5.4562 36.3624 28.9339 0.0000 0.0000 0.0000
# 3 28.9339 28.9339 168.7594 0.0000 0.0000 0.0000
# 4 0.0000 0.0000 0.0000 0.6432 0.0000 0.0000
# 5 0.0000 0.0000 0.0000 0.0000 0.6432 0.0000
# 6 0.0000 0.0000 0.0000 0.0000 0.0000 11.5531
#
#
#
# Elastic Compliance Matrix: (Units=1/GPa)
#
#
# Indices 1 2 3 4 5 6 
#
# 1 0.031853 -0.000503 -0.005375 0.000000 0.000000 0.000000
# 2 -0.000503 0.031853 -0.005375 0.000000 0.000000 0.000000
# 3 -0.005375 -0.005375 0.007769 0.000000 0.000000 0.000000
# 4 0.000000 0.000000 0.000000 1.554727 0.000000 0.000000
# 5 0.000000 0.000000 0.000000 0.000000 1.554727 0.000000
# 6 0.000000 0.000000 0.000000 0.000000 0.000000 0.086557
#
#
# Mechanical properties :
#
#
# Convention : Reuss Voigt Hill
#
# Bulk Modulus (GPa) = 20.42070 40.90355 30.66212
# Shear Modulus (GPa) = 1.51226 14.44524 7.97875
#
# Velocity S-wave (km/s) = 0.94706 2.92704 2.17537
# Velocity P-wave (km/s) = 3.64795 5.97358 4.94930
#
# Compressibility (1/GPa) = 0.04896992
#
# Stress axis : x y z
#
# Youngs Moduli (GPa) = 31.39385 31.39385 128.72122
#
# Poissons Ratio (x) = 0.01578 0.69189
# Poissons Ratio (y) = 0.01578 0.69189
# Poissons Ratio (z) = 0.16875 0.16875
#
# Static dielectric constant tensor:
#      x y z
#    x 1.586350 0.000000 0.000000 
#    y 0.000000 1.586350 0.000000 
#    z 0.000000 0.000000 1.603780 
# 
# From -- ./inp_files/4941.got.cif
#   From: 2010.05.17/outbox.cif.g08.bks.cpg/sg127_3_cif.got.tgz:4941.got - 2010.05.20 12:03:00.
