data_PCOD9564142
_publ_section_title
;
Structure prediction by ZEFSAII (Michael W. Deem and Ramdas Pophale) SiO2 
 PCOD9564142
Probable space group: P 4/M B M
;
_chemical_formula_sum "Si O2"
_cell_formula_units_Z 96
_cell_length_a 24.675308
_cell_length_b 24.675308
_cell_length_c 8.130807
_cell_angle_alpha 90.000000
_cell_angle_beta 90.000000
_cell_angle_gamma 90.000000
_cell_volume 4950.611165
_symmetry_space_group_name_H-M "P 4/M B M"
_symmetry_group_IT_number 127
_symmetry_cell_setting 'tetragonal'
loop_
_space_group_symop_operation_xyz
x,y,z
-y,x,z
-x,-y,z
y,-x,z
1/2+x,1/2-y,-z
1/2-x,1/2+y,-z
1/2+y,1/2+x,-z
1/2-y,1/2-x,-z
-x,-y,-z
y,-x,-z
x,y,-z
-y,x,-z
1/2-x,1/2+y,z
1/2+x,1/2-y,z
1/2-y,1/2-x,z
1/2+y,1/2+x,z
loop_
_atom_site_type_symbol
_atom_site_label
_atom_site_fract_x
_atom_site_fract_y
_atom_site_fract_z
Si Si1 0.777113 0.809010 0.198625
Si Si2 0.419426 0.532661 0.198070
Si Si3 0.930363 0.199075 0.695576
Si Si4 0.412521 0.999771 0.700768
Si Si5 0.779073 0.634350 0.801302
Si Si6 0.290298 0.987881 0.697133
O O1 0.722913 0.777088 0.252882
O O2 0.784109 0.869561 0.259336
O O3 0.827942 0.771402 0.249317
O O4 0.776785 0.809671 0.000000
O O5 0.431326 0.470897 0.254549
O O6 0.361294 0.555100 0.246965
O O7 0.421246 0.532180 0.000000
O O8 0.935251 0.198873 0.500000
O O9 0.972362 0.243863 0.763223
O O10 0.411729 0.999388 0.500000
O O11 0.446400 0.946400 0.751535
O O12 0.350961 0.999941 0.760537
O O13 0.448290 0.051711 0.750425
O O14 0.833393 0.666608 0.749932
O O15 0.776742 0.574289 0.733701
O O16 0.779010 0.632067 0.000000
O O17 0.292313 0.994889 0.500000
#
# Coordination Sequence:
#
# PCOD9564142 Si02
#       6
#    16  16  16  16  16  16
#     4   9  20  40  61  79 104 144 193 235 273 326
#     4   9  20  40  63  83 104 140 190 235 280 337
#     4  11  24  36  52  84 120 150 182 226 282 340
#     4   8  14  27  49  74 100 136 180 219 255 303
#     4   9  19  36  58  82 106 137 181 233 279 317
#     4  10  21  34  50  79 114 145 177 217 270 331
#
# _framework density 19.391545000000001
#
# number of rings (size 3 to 8) (size 9 to 14) (size 15 to 20)
#    0.000    2.667    0.000    3.000    2.333    4.667 
#    0.000    4.167    0.000    0.500    0.000    2.333 
#    0.000    0.000    0.000    0.000    0.000    0.000 
#
# Total GULP energy -535671.900595 kJ/mol
# GULP energy per Si atom -5579.915631 kJ/mol
# Density = 1.934741 g / cm^3
# Si number density = 19.391545 Si / 1000 Ang^3
#
#
#
# Elastic Constant Matrix: (Units=GPa)
#
#
# Indices 1 2 3 4 5 6 
#
# 1 140.6379 138.0459 11.3653 0.0000 0.0000 0.0000
# 2 138.0459 140.6379 11.3653 0.0000 0.0000 0.0000
# 3 11.3653 11.3653 9.2783 0.0000 0.0000 0.0000
# 4 0.0000 0.0000 0.0000 26.5375 0.0000 0.0000
# 5 0.0000 0.0000 0.0000 0.0000 26.5375 0.0000
# 6 0.0000 0.0000 0.0000 0.0000 0.0000 17.0993
#
#
#
# Elastic Compliance Matrix: (Units=1/GPa)
#
#
# Indices 1 2 3 4 5 6 
#
# 1 0.194894 -0.190907 -0.004883 0.000000 0.000000 0.000000
# 2 -0.190907 0.194894 -0.004883 0.000000 0.000000 0.000000
# 3 -0.004883 -0.004883 0.119742 0.000000 0.000000 0.000000
# 4 0.000000 0.000000 0.000000 0.037683 0.000000 0.000000
# 5 0.000000 0.000000 0.000000 0.000000 0.037683 0.000000
# 6 0.000000 0.000000 0.000000 0.000000 0.000000 0.058482
#
#
# Mechanical properties :
#
#
# Convention : Reuss Voigt Hill
#
# Bulk Modulus (GPa) = 9.24369 68.01190 38.62780
# Shear Modulus (GPa) = 4.62627 22.68671 13.65649
#
# Velocity S-wave (km/s) = 1.54625 3.42413 2.65665
# Velocity P-wave (km/s) = 2.82225 7.12615 5.41974
#
# Compressibility (1/GPa) = 0.10818186
#
# Stress axis : x y z
#
# Youngs Moduli (GPa) = 5.13100 5.13100 8.35129
#
# Poissons Ratio (x) = 0.97954 0.04078
# Poissons Ratio (y) = 0.97954 0.04078
# Poissons Ratio (z) = 0.02506 0.02506
#
# Static dielectric constant tensor:
#      x y z
#    x 1.668110 0.000000 0.000000 
#    y 0.000000 1.668110 0.000000 
#    z 0.000000 0.000000 1.692790 
# 
# From -- ./inp_files/1973.got.cif
#   From: 2010.05.17/outbox.cif.g08.bks.cpg/sg127_1_cif.got.tgz:1973.got - 2010.05.20 12:03:00.
