data_PCOD9564840
_publ_section_title
;
Structure prediction by ZEFSAII (Michael W. Deem and Ramdas Pophale) SiO2 
 PCOD9564840
Probable space group: P 4/M N C
;
_chemical_formula_sum "Si O2"
_cell_formula_units_Z 72
_cell_length_a 21.325709
_cell_length_b 21.325709
_cell_length_c 7.938840
_cell_angle_alpha 90.000000
_cell_angle_beta 90.000000
_cell_angle_gamma 90.000000
_cell_volume 3610.472211
_symmetry_space_group_name_H-M "P 4/M N C"
_symmetry_group_IT_number 128
_symmetry_cell_setting 'tetragonal'
loop_
_space_group_symop_operation_xyz
x,y,z
-y,x,z
-x,-y,z
y,-x,z
1/2+x,1/2-y,1/2-z
1/2-x,1/2+y,1/2-z
1/2+y,1/2+x,1/2-z
1/2-y,1/2-x,1/2-z
-x,-y,-z
y,-x,-z
x,y,-z
-y,x,-z
1/2-x,1/2+y,1/2+z
1/2+x,1/2-y,1/2+z
1/2-y,1/2-x,1/2+z
1/2+y,1/2+x,1/2+z
loop_
_atom_site_type_symbol
_atom_site_label
_atom_site_fract_x
_atom_site_fract_y
_atom_site_fract_z
Si Si1 0.559817 0.840391 0.702255
Si Si2 0.580091 0.182157 0.701595
Si Si3 0.543205 0.404071 0.000000
Si Si4 0.173556 0.900322 0.805232
Si Si5 0.238037 0.160451 0.303222
O O1 0.596430 0.903571 0.750000
O O2 0.560773 0.834869 0.500000
O O3 0.488605 0.837912 0.765102
O O4 0.600864 0.782829 0.772639
O O5 0.634464 0.134464 0.750000
O O6 0.576758 0.181550 0.500000
O O7 0.594294 0.253686 0.748900
O O8 0.580407 0.469738 0.000000
O O9 0.562169 0.366746 0.831352
O O10 0.156118 0.826908 0.794985
O O11 0.166866 0.921952 0.000000
O O12 0.279244 0.220757 0.250000
O O13 0.223012 0.165339 0.500000
#
# Coordination Sequence:
#
# PCOD9564840 Si02
#       5
#    16  16   8  16  16
#     4  10  21  39  59  90 125 169 220 266 322 390
#     4  10  24  40  61  91 128 168 217 268 325 389
#     4  11  28  50  70 102 134 167 219 267 327 409
#     4  11  24  43  69  99 130 173 217 272 330 392
#     4  11  21  36  60  94 130 170 221 278 329 390
#
# _framework density 19.941989
#
# number of rings (size 3 to 8) (size 9 to 14) (size 15 to 20)
#    0.000    1.444    1.111    4.667    4.667    4.889 
#    0.000    3.333    0.000    0.000    0.000    0.000 
#    0.000    0.000    0.000    0.000    0.000    0.000 
#
# Total GULP energy -402542.975142 kJ/mol
# GULP energy per Si atom -5590.874655 kJ/mol
# Density = 1.989660 g / cm^3
# Si number density = 19.941989 Si / 1000 Ang^3
#
#
#
# Elastic Constant Matrix: (Units=GPa)
#
#
# Indices 1 2 3 4 5 6 
#
# 1 122.0482 81.6826 35.0389 0.0000 0.0000 0.0000
# 2 81.6826 122.0403 35.0373 0.0000 0.0000 0.0000
# 3 35.0389 35.0373 92.9317 0.0000 0.0000 0.0000
# 4 0.0000 0.0000 0.0000 13.8825 0.0000 0.0000
# 5 0.0000 0.0000 0.0000 0.0000 13.8834 0.0000
# 6 0.0000 0.0000 0.0000 0.0000 0.0000 14.0430
#
#
#
# Elastic Compliance Matrix: (Units=1/GPa)
#
#
# Indices 1 2 3 4 5 6 
#
# 1 0.015208 -0.009568 -0.002126 0.000000 0.000000 0.000000
# 2 -0.009568 0.015208 -0.002126 0.000000 0.000000 0.000000
# 3 -0.002126 -0.002126 0.012364 0.000000 0.000000 0.000000
# 4 0.000000 0.000000 0.000000 0.072033 0.000000 0.000000
# 5 0.000000 0.000000 0.000000 0.000000 0.072029 0.000000
# 6 0.000000 0.000000 0.000000 0.000000 0.000000 0.071210
#
#
# Mechanical properties :
#
#
# Convention : Reuss Voigt Hill
#
# Bulk Modulus (GPa) = 66.05793 71.17088 68.61440
# Shear Modulus (GPa) = 17.19753 20.71253 18.95503
#
# Velocity S-wave (km/s) = 2.93981 3.22629 3.08638
# Velocity P-wave (km/s) = 6.68732 7.04592 6.86896
#
# Compressibility (1/GPa) = 0.01513823
#
# Stress axis : x y z
#
# Youngs Moduli (GPa) = 65.75690 65.75286 80.87956
#
# Poissons Ratio (x) = 0.62913 0.17199
# Poissons Ratio (y) = 0.62916 0.17198
# Poissons Ratio (z) = 0.13983 0.13982
#
# Static dielectric constant tensor:
#      x y z
#    x 1.706640 0.000000 0.000000 
#    y 0.000000 1.706650 0.000000 
#    z 0.000000 0.000000 1.707590 
# 
# From -- ./inp_files/1203.got.cif
#   From: 2010.05.17/outbox.cif.g08.bks.cpg/sg128_1_cif.got.tgz:1203.got - 2010.05.20 12:07:25.
