data_PCOD9564889
_publ_section_title
;
Structure prediction by ZEFSAII (Michael W. Deem and Ramdas Pophale) SiO2 
 PCOD9564889
Probable space group: P 4/M N C
;
_chemical_formula_sum "Si O2"
_cell_formula_units_Z 88
_cell_length_a 14.564013
_cell_length_b 14.564013
_cell_length_c 18.927664
_cell_angle_alpha 90.000000
_cell_angle_beta 90.000000
_cell_angle_gamma 90.000000
_cell_volume 4014.755795
_symmetry_space_group_name_H-M "P 4/M N C"
_symmetry_group_IT_number 128
_symmetry_cell_setting 'tetragonal'
loop_
_space_group_symop_operation_xyz
x,y,z
-y,x,z
-x,-y,z
y,-x,z
1/2+x,1/2-y,1/2-z
1/2-x,1/2+y,1/2-z
1/2+y,1/2+x,1/2-z
1/2-y,1/2-x,1/2-z
-x,-y,-z
y,-x,-z
x,y,-z
-y,x,-z
1/2-x,1/2+y,1/2+z
1/2+x,1/2-y,1/2+z
1/2-y,1/2-x,1/2+z
1/2+y,1/2+x,1/2+z
loop_
_atom_site_type_symbol
_atom_site_label
_atom_site_fract_x
_atom_site_fract_y
_atom_site_fract_z
Si Si1 0.890420 0.504176 0.085508
Si Si2 0.398685 0.397841 0.773940
Si Si3 0.870151 0.083195 0.500000
Si Si4 0.364071 0.550057 0.391336
Si Si5 0.838141 0.301304 0.917732
Si Si6 0.347040 0.751683 0.868587
O O1 0.848362 0.405486 0.108919
O O2 0.839572 0.587440 0.125442
O O3 0.000000 0.500000 0.096968
O O4 0.876291 0.515130 0.000000
O O5 0.499596 0.377029 0.803577
O O6 0.427150 0.380363 0.692390
O O7 0.307872 0.346857 0.797098
O O8 0.816300 0.117195 0.569165
O O9 0.973037 0.122840 0.500000
O O10 0.387407 0.448082 0.417817
O O11 0.259897 0.571761 0.409197
O O12 0.759647 0.237085 0.885221
O O13 0.817602 0.311038 0.000000
#
# Coordination Sequence:
#
# PCOD9564889 Si02
#       6
#    16  16   8  16  16  16
#     4  10  22  39  57  86 133 173 204 254 318 382
#     4   9  18  35  60  89 118 152 194 248 312 370
#     4  11  20  30  51  84 124 151 185 252 310 358
#     4   9  21  41  62  87 117 149 204 267 310 358
#     4  11  23  37  61  89 119 165 214 251 308 382
#     4  12  21  35  58  87 123 158 205 250 304 379
#
# _framework density 21.919139999999999
#
# number of rings (size 3 to 8) (size 9 to 14) (size 15 to 20)
#    0.000    1.727    1.818    4.364    2.545    2.909 
#    0.000    0.909    0.000    0.000    0.000    0.000 
#    0.000    0.000    0.000    0.000    0.000    0.000 
#
# Total GULP energy -490222.071387 kJ/mol
# GULP energy per Si atom -5570.705357 kJ/mol
# Density = 2.186925 g / cm^3
# Si number density = 21.919140 Si / 1000 Ang^3
#
#
#
# Elastic Constant Matrix: (Units=GPa)
#
#
# Indices 1 2 3 4 5 6 
#
# 1 67.9805 -6.4865 -2.6772 0.0000 0.0000 0.0000
# 2 -6.4865 67.9805 -2.6772 0.0000 0.0000 0.0000
# 3 -2.6772 -2.6772 44.2980 0.0000 0.0000 0.0000
# 4 0.0000 0.0000 0.0000 12.8553 0.0000 0.0000
# 5 0.0000 0.0000 0.0000 0.0000 12.8553 0.0000
# 6 0.0000 0.0000 0.0000 0.0000 0.0000 -85.9160
#
#
#
# Elastic Compliance Matrix: (Units=1/GPa)
#
#
# Indices 1 2 3 4 5 6 
#
# 1 0.014888 0.001460 0.000988 0.000000 0.000000 0.000000
# 2 0.001460 0.014888 0.000988 0.000000 0.000000 0.000000
# 3 0.000988 0.000988 0.022694 0.000000 0.000000 0.000000
# 4 0.000000 0.000000 0.000000 0.077789 0.000000 0.000000
# 5 0.000000 0.000000 0.000000 0.000000 0.077789 0.000000
# 6 0.000000 0.000000 0.000000 0.000000 0.000000 -0.011639
#
#
# Mechanical properties :
#
#
# Convention : Reuss Voigt Hill
#
# Bulk Modulus (GPa) = 16.85166 17.39746 17.12456
# Shear Modulus (GPa) = 23.88710 0.76558 12.32634
#
# Velocity S-wave (km/s) = 3.30477 0.59163 2.37398
# Velocity P-wave (km/s) = 4.71877 2.90190 3.91713
#
# Compressibility (1/GPa) = 0.05934135
#
# Stress axis : x y z
#
# Youngs Moduli (GPa) = 67.16692 67.16692 44.06486
#
# Poissons Ratio (x) = -0.09803 -0.04354
# Poissons Ratio (y) = -0.09803 -0.04354
# Poissons Ratio (z) = -0.06636 -0.06636
#
# Static dielectric constant tensor:
#      x y z
#    x 1.832400 0.000000 0.000000 
#    y 0.000000 1.832400 0.000000 
#    z 0.000000 0.000000 1.895100 
# 
# From -- ./inp_files/5658.got.cif
#   From: 2010.05.17/outbox.cif.g08.bks.cpg/sg128_3_cif.got.tgz:5658.got - 2010.05.20 12:07:25.
