data_PCOD9564906
_publ_section_title
;
Structure prediction by ZEFSAII (Michael W. Deem and Ramdas Pophale) SiO2 
 PCOD9564906
Probable space group: P 4/M N C
;
_chemical_formula_sum "Si O2"
_cell_formula_units_Z 44
_cell_length_a 13.486944
_cell_length_b 13.486944
_cell_length_c 12.848137
_cell_angle_alpha 90.000000
_cell_angle_beta 90.000000
_cell_angle_gamma 90.000000
_cell_volume 2337.046036
_symmetry_space_group_name_H-M "P 4/M N C"
_symmetry_group_IT_number 128
_symmetry_cell_setting 'tetragonal'
loop_
_space_group_symop_operation_xyz
x,y,z
-y,x,z
-x,-y,z
y,-x,z
1/2+x,1/2-y,1/2-z
1/2-x,1/2+y,1/2-z
1/2+y,1/2+x,1/2-z
1/2-y,1/2-x,1/2-z
-x,-y,-z
y,-x,-z
x,y,-z
-y,x,-z
1/2-x,1/2+y,1/2+z
1/2+x,1/2-y,1/2+z
1/2-y,1/2-x,1/2+z
1/2+y,1/2+x,1/2+z
loop_
_atom_site_type_symbol
_atom_site_label
_atom_site_fract_x
_atom_site_fract_y
_atom_site_fract_z
Si Si1 0.053217 0.159281 0.000000
Si Si2 0.000000 0.500000 0.750000
Si Si3 0.667099 0.495583 0.884276
Si Si4 0.296645 0.937322 0.200005
O O1 0.071979 0.225817 0.101832
O O2 0.939385 0.120718 0.000000
O O3 0.992067 0.598609 0.819842
O O4 0.597051 0.592713 0.876336
O O5 0.742902 0.501622 0.790832
O O6 0.712506 0.494964 0.000000
O O7 0.332704 0.832704 0.250000
#
# Coordination Sequence:
#
# PCOD9564906 Si02
#       4
#     8   4  16  16
#     4  11  24  45  70  98 134 170 215 280 331 379
#     4   8  24  42  56  80 134 168 200 270 300 370
#     4   9  18  36  62  91 121 156 209 273 321 374
#     4  10  22  41  60  89 131 173 212 259 324 387
#
# _framework density 18.827185
#
# number of rings (size 3 to 8) (size 9 to 14) (size 15 to 20)
#    1.091    1.273    0.000    3.273    2.545    3.636 
#   16.364    0.000    0.000    0.000    0.000    0.000 
#    0.000    0.000    0.000    0.000    0.000    0.000 
#
# Total GULP energy -245064.732903 kJ/mol
# GULP energy per Si atom -5569.653021 kJ/mol
# Density = 1.878433 g / cm^3
# Si number density = 18.827185 Si / 1000 Ang^3
#
#
#
# Elastic Constant Matrix: (Units=GPa)
#
#
# Indices 1 2 3 4 5 6 
#
# 1 96.3258 21.7287 55.0891 0.0000 0.0000 0.0000
# 2 21.7287 96.3258 55.0891 0.0000 0.0000 0.0000
# 3 55.0891 55.0891 126.9339 0.0000 0.0000 0.0000
# 4 0.0000 0.0000 0.0000 19.5811 0.0000 0.0000
# 5 0.0000 0.0000 0.0000 0.0000 19.5811 0.0000
# 6 0.0000 0.0000 0.0000 0.0000 0.0000 14.5014
#
#
#
# Elastic Compliance Matrix: (Units=1/GPa)
#
#
# Indices 1 2 3 4 5 6 
#
# 1 0.013821 0.000416 -0.006179 0.000000 0.000000 0.000000
# 2 0.000416 0.013821 -0.006179 0.000000 0.000000 0.000000
# 3 -0.006179 -0.006179 0.013241 0.000000 0.000000 0.000000
# 4 0.000000 0.000000 0.000000 0.051070 0.000000 0.000000
# 5 0.000000 0.000000 0.000000 0.000000 0.051070 0.000000
# 6 0.000000 0.000000 0.000000 0.000000 0.000000 0.068959
#
#
# Mechanical properties :
#
#
# Convention : Reuss Voigt Hill
#
# Bulk Modulus (GPa) = 58.82261 64.82214 61.82237
# Shear Modulus (GPa) = 20.70107 23.24461 21.97284
#
# Velocity S-wave (km/s) = 3.31951 3.51754 3.41996
# Velocity P-wave (km/s) = 6.78259 7.14159 6.96440
#
# Compressibility (1/GPa) = 0.01700027
#
# Stress axis : x y z
#
# Youngs Moduli (GPa) = 72.35158 72.35158 75.52019
#
# Poissons Ratio (x) = -0.03010 0.46664
# Poissons Ratio (y) = -0.03010 0.46664
# Poissons Ratio (z) = 0.44706 0.44706
#
# Static dielectric constant tensor:
#      x y z
#    x 1.665480 0.000000 0.000000 
#    y 0.000000 1.665480 0.000000 
#    z 0.000000 0.000000 1.639340 
# 
# From -- ./inp_files/2184.got.cif
#   From: 2010.05.17/outbox.cif.g08.bks.cpg/sg128_2_cif.got.tgz:2184.got - 2010.05.20 12:07:25.
