data_PCOD9564678
_publ_section_title
;
Structure prediction by ZEFSAII (Michael W. Deem and Ramdas Pophale) SiO2 
 PCOD9564678
Probable space group: P 4/M N C
;
_chemical_formula_sum "Si O2"
_cell_formula_units_Z 96
_cell_length_a 25.363867
_cell_length_b 25.363867
_cell_length_c 9.480241
_cell_angle_alpha 90.000000
_cell_angle_beta 90.000000
_cell_angle_gamma 90.000000
_cell_volume 6098.883144
_symmetry_space_group_name_H-M "P 4/M N C"
_symmetry_group_IT_number 128
_symmetry_cell_setting 'tetragonal'
loop_
_space_group_symop_operation_xyz
x,y,z
-y,x,z
-x,-y,z
y,-x,z
1/2+x,1/2-y,1/2-z
1/2-x,1/2+y,1/2-z
1/2+y,1/2+x,1/2-z
1/2-y,1/2-x,1/2-z
-x,-y,-z
y,-x,-z
x,y,-z
-y,x,-z
1/2-x,1/2+y,1/2+z
1/2+x,1/2-y,1/2+z
1/2-y,1/2-x,1/2+z
1/2+y,1/2+x,1/2+z
loop_
_atom_site_type_symbol
_atom_site_label
_atom_site_fract_x
_atom_site_fract_y
_atom_site_fract_z
Si Si1 0.309960 0.884990 0.834072
Si Si2 0.184394 0.606961 0.830675
Si Si3 0.491109 0.686018 0.839057
Si Si4 0.889160 0.191408 0.330848
Si Si5 0.611235 0.316568 0.665883
Si Si6 0.186093 0.487439 0.838624
O O1 0.338649 0.838649 0.750000
O O2 0.246602 0.881828 0.817157
O O3 0.328254 0.940365 0.765664
O O4 0.321922 0.882700 0.000000
O O5 0.148066 0.648066 0.750000
O O6 0.246356 0.614693 0.796305
O O7 0.169215 0.546340 0.796364
O O8 0.179414 0.612658 0.000000
O O9 0.551043 0.672641 0.798575
O O10 0.444930 0.668669 0.735397
O O11 0.489835 0.749977 0.841589
O O12 0.480986 0.668187 0.000000
O O13 0.882010 0.186350 0.500000
O O14 0.847392 0.156931 0.247089
O O15 0.611901 0.328277 0.500000
O O16 0.168927 0.476650 0.000000
#
# Coordination Sequence:
#
# PCOD9564678 Si02
#       6
#    16  16  16  16  16  16
#     4  10  20  32  47  69  95 124 157 191 231 277
#     4   9  18  31  48  71  97 125 156 190 230 275
#     4   8  15  30  50  67  86 119 160 194 225 269
#     4   9  18  32  49  69  94 126 160 190 226 275
#     4  10  20  31  46  71  98 123 153 191 235 277
#     4   8  15  30  49  67  89 119 156 194 229 269
#
# _framework density 15.740587
#
# number of rings (size 3 to 8) (size 9 to 14) (size 15 to 20)
#    0.000    3.000    0.000    3.000    0.000    4.667 
#    0.000    6.667    0.000    1.000    0.000    7.000 
#    0.000    0.000    0.000    0.000    0.000    0.000 
#
# Total GULP energy -534690.873930 kJ/mol
# GULP energy per Si atom -5569.696603 kJ/mol
# Density = 1.570476 g / cm^3
# Si number density = 15.740587 Si / 1000 Ang^3
#
#
#
# Elastic Constant Matrix: (Units=GPa)
#
#
# Indices 1 2 3 4 5 6 
#
# 1 67.2894 44.8969 62.7218 0.0000 0.0000 0.0000
# 2 44.8969 67.2894 62.7218 0.0000 0.0000 0.0000
# 3 62.7218 62.7218 90.3699 0.0000 0.0000 0.0000
# 4 0.0000 0.0000 0.0000 28.0348 0.0000 0.0000
# 5 0.0000 0.0000 0.0000 0.0000 28.0348 0.0000
# 6 0.0000 0.0000 0.0000 0.0000 0.0000 -5.4608
#
#
#
# Elastic Compliance Matrix: (Units=1/GPa)
#
#
# Indices 1 2 3 4 5 6 
#
# 1 0.042232 -0.002426 -0.027628 0.000000 0.000000 0.000000
# 2 -0.002426 0.042232 -0.027628 0.000000 0.000000 0.000000
# 3 -0.027628 -0.027628 0.049416 0.000000 0.000000 0.000000
# 4 0.000000 0.000000 0.000000 0.035670 0.000000 0.000000
# 5 0.000000 0.000000 0.000000 0.000000 0.035670 0.000000
# 6 0.000000 0.000000 0.000000 0.000000 0.000000 -0.183124
#
#
# Mechanical properties :
#
#
# Convention : Reuss Voigt Hill
#
# Bulk Modulus (GPa) = 54.00273 62.84772 58.42522
# Shear Modulus (GPa) = 34.81109 13.76232 24.28670
#
# Velocity S-wave (km/s) = 4.70781 2.96010 3.93228
# Velocity P-wave (km/s) = 7.99586 7.19005 7.60364
#
# Compressibility (1/GPa) = 0.01851758
#
# Stress axis : x y z
#
# Youngs Moduli (GPa) = 23.67859 23.67859 20.23619
#
# Poissons Ratio (x) = 0.05743 0.55909
# Poissons Ratio (y) = 0.05743 0.55909
# Poissons Ratio (z) = 0.65419 0.65419
#
# Static dielectric constant tensor:
#      x y z
#    x 1.517700 0.000000 0.000000 
#    y 0.000000 1.517700 0.000000 
#    z 0.000000 0.000000 1.520430 
# 
# From -- ./inp_files/1411.got.cif
#   From: 2010.05.17/outbox.cif.g08.bks.cpg/sg128_1_cif.got.tgz:1411.got - 2010.05.20 12:07:25.
