data_PCOD9564276
_publ_section_title
;
Structure prediction by ZEFSAII (Michael W. Deem and Ramdas Pophale) SiO2 
 PCOD9564276
Probable space group: P 4/M B M
;
_chemical_formula_sum "Si O2"
_cell_formula_units_Z 96
_cell_length_a 15.225759
_cell_length_b 15.225759
_cell_length_c 22.015539
_cell_angle_alpha 90.000000
_cell_angle_beta 90.000000
_cell_angle_gamma 90.000000
_cell_volume 5103.724526
_symmetry_space_group_name_H-M "P 4/M B M"
_symmetry_group_IT_number 127
_symmetry_cell_setting 'tetragonal'
loop_
_space_group_symop_operation_xyz
x,y,z
-y,x,z
-x,-y,z
y,-x,z
1/2+x,1/2-y,-z
1/2-x,1/2+y,-z
1/2+y,1/2+x,-z
1/2-y,1/2-x,-z
-x,-y,-z
y,-x,-z
x,y,-z
-y,x,-z
1/2-x,1/2+y,z
1/2+x,1/2-y,z
1/2-y,1/2-x,z
1/2+y,1/2+x,z
loop_
_atom_site_type_symbol
_atom_site_label
_atom_site_fract_x
_atom_site_fract_y
_atom_site_fract_z
Si Si1 0.386880 0.413419 0.755827
Si Si2 0.715790 0.358156 0.427891
Si Si3 0.643077 0.464763 0.070098
Si Si4 0.748171 0.391054 0.821294
Si Si5 0.640065 0.001974 0.275285
Si Si6 0.050167 0.211505 0.633688
O O1 0.485591 0.384518 0.773707
O O2 0.339235 0.333303 0.788384
O O3 0.360785 0.423581 0.685420
O O4 0.723666 0.371103 0.500000
O O5 0.800875 0.300875 0.406824
O O6 0.629139 0.300263 0.413441
O O7 0.704193 0.453848 0.396710
O O8 0.602142 0.561416 0.078880
O O9 0.715131 0.441072 0.119272
O O10 0.671901 0.457818 0.000000
O O11 0.820128 0.320128 0.839034
O O12 0.795769 0.455691 0.772860
O O13 0.577634 0.077634 0.248520
O O14 0.698709 0.043660 0.328285
O O15 0.574478 0.925523 0.298307
#
# Coordination Sequence:
#
# PCOD9564276 Si02
#       6
#    16  16  16  16  16  16
#     4  11  21  36  53  82 118 148 184 234 289 352
#     4  11  25  42  61  88 119 152 196 247 298 358
#     4   9  19  38  61  83 115 160 203 244 291 344
#     4  11  22  36  57  88 122 155 196 246 296 347
#     4  10  22  39  58  83 117 157 198 242 293 352
#     4  12  21  40  62  84 117 155 194 238 296 359
#
# _framework density 18.809792000000002
#
# number of rings (size 3 to 8) (size 9 to 14) (size 15 to 20)
#    0.000    1.333    3.333    3.000    0.000    4.667 
#    0.000    0.833    0.000    1.500    0.000    9.333 
#    0.000    0.000    0.000    0.000    0.000    0.000 
#
# Total GULP energy -534867.368608 kJ/mol
# GULP energy per Si atom -5571.535090 kJ/mol
# Density = 1.876698 g / cm^3
# Si number density = 18.809792 Si / 1000 Ang^3
#
#
#
# Elastic Constant Matrix: (Units=GPa)
#
#
# Indices 1 2 3 4 5 6 
#
# 1 83.2078 30.9586 30.6635 0.0000 0.0000 0.0000
# 2 30.9586 83.2078 30.6635 0.0000 0.0000 0.0000
# 3 30.6635 30.6635 69.3716 0.0000 0.0000 0.0000
# 4 0.0000 0.0000 0.0000 23.5308 0.0000 0.0000
# 5 0.0000 0.0000 0.0000 0.0000 23.5308 0.0000
# 6 0.0000 0.0000 0.0000 0.0000 0.0000 12.1928
#
#
#
# Elastic Compliance Matrix: (Units=1/GPa)
#
#
# Indices 1 2 3 4 5 6 
#
# 1 0.015313 -0.003826 -0.005077 0.000000 0.000000 0.000000
# 2 -0.003826 0.015313 -0.005077 0.000000 0.000000 0.000000
# 3 -0.005077 -0.005077 0.018904 0.000000 0.000000 0.000000
# 4 0.000000 0.000000 0.000000 0.042497 0.000000 0.000000
# 5 0.000000 0.000000 0.000000 0.000000 0.042497 0.000000
# 6 0.000000 0.000000 0.000000 0.000000 0.000000 0.082016
#
#
# Mechanical properties :
#
#
# Convention : Reuss Voigt Hill
#
# Bulk Modulus (GPa) = 46.36579 46.70648 46.53613
# Shear Modulus (GPa) = 19.86566 21.41766 20.64166
#
# Velocity S-wave (km/s) = 3.25335 3.37804 3.31628
# Velocity P-wave (km/s) = 6.23022 6.33243 6.28154
#
# Compressibility (1/GPa) = 0.02156763
#
# Stress axis : x y z
#
# Youngs Moduli (GPa) = 65.30502 65.30502 52.90006
#
# Poissons Ratio (x) = 0.24987 0.26859
# Poissons Ratio (y) = 0.24987 0.26859
# Poissons Ratio (z) = 0.33157 0.33157
#
# Static dielectric constant tensor:
#      x y z
#    x 1.700940 0.000000 0.000000 
#    y 0.000000 1.700940 0.000000 
#    z 0.000000 0.000000 1.669250 
# 
# From -- ./inp_files/5786.got.cif
#   From: 2010.05.17/outbox.cif.g08.bks.cpg/sg127_3_cif.got.tgz:5786.got - 2010.05.20 12:03:00.
