data_PCOD9564842
_publ_section_title
;
Structure prediction by ZEFSAII (Michael W. Deem and Ramdas Pophale) SiO2 
 PCOD9564842
Probable space group: P 4/M N C
;
_chemical_formula_sum "Si O2"
_cell_formula_units_Z 52
_cell_length_a 15.129907
_cell_length_b 15.129907
_cell_length_c 9.554701
_cell_angle_alpha 90.000000
_cell_angle_beta 90.000000
_cell_angle_gamma 90.000000
_cell_volume 2187.205645
_symmetry_space_group_name_H-M "P 4/M N C"
_symmetry_group_IT_number 128
_symmetry_cell_setting 'tetragonal'
loop_
_space_group_symop_operation_xyz
x,y,z
-y,x,z
-x,-y,z
y,-x,z
1/2+x,1/2-y,1/2-z
1/2-x,1/2+y,1/2-z
1/2+y,1/2+x,1/2-z
1/2-y,1/2-x,1/2-z
-x,-y,-z
y,-x,-z
x,y,-z
-y,x,-z
1/2-x,1/2+y,1/2+z
1/2+x,1/2-y,1/2+z
1/2-y,1/2-x,1/2+z
1/2+y,1/2+x,1/2+z
loop_
_atom_site_type_symbol
_atom_site_label
_atom_site_fract_x
_atom_site_fract_y
_atom_site_fract_z
Si Si1 0.116244 0.713465 0.000000
Si Si2 0.595928 0.706352 0.000000
Si Si3 0.530517 0.140030 0.000000
Si Si4 0.500000 0.000000 0.750000
Si Si5 0.334683 0.685866 0.270418
Si Si6 0.572074 0.216261 0.500000
O O1 0.202456 0.654050 0.000000
O O2 0.122853 0.775900 0.132477
O O3 0.021926 0.668310 0.000000
O O4 0.628554 0.651718 0.133191
O O5 0.503246 0.758659 0.000000
O O6 0.503361 0.084894 0.857461
O O7 0.636849 0.141639 0.000000
O O8 0.270842 0.770842 0.250000
O O9 0.413896 0.723513 0.363760
#
# Coordination Sequence:
#
# PCOD9564842 Si02
#       6
#     8   8   8   4  16   8
#     4   9  19  37  62  82 123 172 204 251 315 390
#     4  10  21  39  60  88 129 180 202 249 331 393
#     4  11  25  36  64  92 136 175 209 248 319 396
#     4  10  24  42  52 102 144 166 196 258 306 400
#     4   9  21  39  57  84 126 166 213 260 310 373
#     4  11  23  39  62  96 124 165 221 268 299 382
#
# _framework density 23.774626999999999
#
# number of rings (size 3 to 8) (size 9 to 14) (size 15 to 20)
#    0.000    2.154    0.000    2.769   12.923    0.000 
#    0.000    1.538    0.000    7.385    0.000    0.000 
#    0.000   19.692    0.000    0.000    0.000    0.000 
#
# Total GULP energy -290346.651176 kJ/mol
# GULP energy per Si atom -5583.589446 kJ/mol
# Density = 2.372051 g / cm^3
# Si number density = 23.774627 Si / 1000 Ang^3
#
#
#
# Elastic Constant Matrix: (Units=GPa)
#
#
# Indices 1 2 3 4 5 6 
#
# 1 63.5064 29.9868 21.0521 0.0000 0.0000 0.0000
# 2 29.9868 63.5064 21.0521 0.0000 0.0000 0.0000
# 3 21.0521 21.0521 149.0064 0.0000 0.0000 0.0000
# 4 0.0000 0.0000 0.0000 112.1786 0.0000 0.0000
# 5 0.0000 0.0000 0.0000 0.0000 112.1786 0.0000
# 6 0.0000 0.0000 0.0000 0.0000 0.0000 36.7350
#
#
#
# Elastic Compliance Matrix: (Units=1/GPa)
#
#
# Indices 1 2 3 4 5 6 
#
# 1 0.020628 -0.009205 -0.001614 0.000000 0.000000 0.000000
# 2 -0.009205 0.020628 -0.001614 0.000000 0.000000 0.000000
# 3 -0.001614 -0.001614 0.007167 0.000000 0.000000 0.000000
# 4 0.000000 0.000000 0.000000 0.008914 0.000000 0.000000
# 5 0.000000 0.000000 0.000000 0.000000 0.008914 0.000000
# 6 0.000000 0.000000 0.000000 0.000000 0.000000 0.027222
#
#
# Mechanical properties :
#
#
# Convention : Reuss Voigt Hill
#
# Bulk Modulus (GPa) = 42.44974 46.68902 44.56938
# Shear Modulus (GPa) = 39.62207 65.81366 52.71787
#
# Velocity S-wave (km/s) = 4.08679 5.26711 4.71404
# Velocity P-wave (km/s) = 6.33743 7.52799 6.95822
#
# Compressibility (1/GPa) = 0.02355727
#
# Stress axis : x y z
#
# Youngs Moduli (GPa) = 48.47771 48.47771 139.52576
#
# Poissons Ratio (x) = 0.44625 0.22517
# Poissons Ratio (y) = 0.44625 0.22517
# Poissons Ratio (z) = 0.07824 0.07824
#
# Static dielectric constant tensor:
#      x y z
#    x 1.903710 0.000000 0.000000 
#    y 0.000000 1.903710 0.000000 
#    z 0.000000 0.000000 2.307070 
# 
# From -- ./inp_files/762.got.cif
#   From: 2010.05.17/outbox.cif.g08.bks.cpg/sg128_1_cif.got.tgz:762.got - 2010.05.20 12:07:25.
