data_PCOD9564788
_publ_section_title
;
Structure prediction by ZEFSAII (Michael W. Deem and Ramdas Pophale) SiO2 
 PCOD9564788
Probable space group: P 4/M N C
;
_chemical_formula_sum "Si O2"
_cell_formula_units_Z 120
_cell_length_a 16.442520
_cell_length_b 16.442520
_cell_length_c 25.308007
_cell_angle_alpha 90.000000
_cell_angle_beta 90.000000
_cell_angle_gamma 90.000000
_cell_volume 6842.183282
_symmetry_space_group_name_H-M "P 4/M N C"
_symmetry_group_IT_number 128
_symmetry_cell_setting 'tetragonal'
loop_
_space_group_symop_operation_xyz
x,y,z
-y,x,z
-x,-y,z
y,-x,z
1/2+x,1/2-y,1/2-z
1/2-x,1/2+y,1/2-z
1/2+y,1/2+x,1/2-z
1/2-y,1/2-x,1/2-z
-x,-y,-z
y,-x,-z
x,y,-z
-y,x,-z
1/2-x,1/2+y,1/2+z
1/2+x,1/2-y,1/2+z
1/2-y,1/2-x,1/2+z
1/2+y,1/2+x,1/2+z
loop_
_atom_site_type_symbol
_atom_site_label
_atom_site_fract_x
_atom_site_fract_y
_atom_site_fract_z
Si Si1 0.583958 0.387014 0.000000
Si Si2 0.302642 0.771478 0.311903
Si Si3 0.005314 0.132798 0.936906
Si Si4 0.118469 0.189571 0.387274
Si Si5 0.484377 0.366476 0.738346
Si Si6 0.833886 0.361686 0.310747
Si Si7 0.721700 0.448500 0.159508
Si Si8 0.514135 0.248746 0.350757
O O1 0.610240 0.483625 0.000000
O O2 0.618310 0.338844 0.948543
O O3 0.299664 0.799664 0.250000
O O4 0.255449 0.825026 0.356460
O O5 0.252470 0.686664 0.310904
O O6 0.395436 0.766952 0.330077
O O7 0.011672 0.220528 0.910480
O O8 0.924343 0.081976 0.921911
O O9 0.004950 0.138886 0.000000
O O10 0.145717 0.107396 0.357250
O O11 0.027879 0.219203 0.375619
O O12 0.568645 0.413404 0.746007
O O13 0.475095 0.294805 0.780379
O O14 0.484568 0.328481 0.681006
O O15 0.863293 0.363293 0.250000
O O16 0.895966 0.303421 0.342129
O O17 0.820514 0.449615 0.335987
#
# Coordination Sequence:
#
# PCOD9564788 Si02
#       8
#     8  16  16  16  16  16  16  16
#     4  11  22  38  66 104 133 161 207 258 319 397
#     4  10  23  39  58  89 124 163 207 258 312 372
#     4   9  18  33  55  82 111 140 180 243 309 359
#     4  11  22  38  61  88 128 165 199 249 311 374
#     4  11  20  27  49  87 116 145 190 242 310 386
#     4  10  21  35  56  83 119 155 195 250 311 367
#     4  11  20  34  56  85 121 161 193 243 308 374
#     4  12  21  36  57  78 112 162 201 251 294 361
#
# _framework density 17.538260999999999
#
# number of rings (size 3 to 8) (size 9 to 14) (size 15 to 20)
#    0.000    1.400    4.000    3.600    1.867    1.333 
#    1.200    0.667    7.333    0.000    0.000    0.933 
#    0.000    0.000    0.000    0.000    0.000    0.000 
#
# Total GULP energy -668847.100606 kJ/mol
# GULP energy per Si atom -5573.725838 kJ/mol
# Density = 1.749834 g / cm^3
# Si number density = 17.538261 Si / 1000 Ang^3
#
#
#
# Elastic Constant Matrix: (Units=GPa)
#
#
# Indices 1 2 3 4 5 6 
#
# 1 72.8903 18.7668 28.8568 0.0000 0.0000 0.0000
# 2 18.7668 72.8903 28.8568 0.0000 0.0000 0.0000
# 3 28.8568 28.8568 87.9832 0.0000 0.0000 0.0000
# 4 0.0000 0.0000 0.0000 21.2851 0.0000 0.0000
# 5 0.0000 0.0000 0.0000 0.0000 21.2851 0.0000
# 6 0.0000 0.0000 0.0000 0.0000 0.0000 -3.8462
#
#
#
# Elastic Compliance Matrix: (Units=1/GPa)
#
#
# Indices 1 2 3 4 5 6 
#
# 1 0.016113 -0.002363 -0.004510 0.000000 0.000000 0.000000
# 2 -0.002363 0.016113 -0.004510 0.000000 0.000000 0.000000
# 3 -0.004510 -0.004510 0.014324 0.000000 0.000000 0.000000
# 4 0.000000 0.000000 0.000000 0.046981 0.000000 0.000000
# 5 0.000000 0.000000 0.000000 0.000000 0.046981 0.000000
# 6 0.000000 0.000000 0.000000 0.000000 0.000000 -0.260000
#
#
# Mechanical properties :
#
#
# Convention : Reuss Voigt Hill
#
# Bulk Modulus (GPa) = 42.04343 42.96940 42.50641
# Shear Modulus (GPa) = -56.31029 18.23037 -19.03996
#
# Velocity S-wave (km/s) = -5.67246 3.22757 -3.29846
# Velocity P-wave (km/s) = 4.34488 6.20025 3.12771
#
# Compressibility (1/GPa) = 0.02378493
#
# Stress axis : x y z
#
# Youngs Moduli (GPa) = 62.06148 62.06148 69.81295
#
# Poissons Ratio (x) = 0.14666 0.31483
# Poissons Ratio (y) = 0.14666 0.31483
# Poissons Ratio (z) = 0.27988 0.27988
#
# Static dielectric constant tensor:
#      x y z
#    x 1.612960 0.000000 0.000000 
#    y 0.000000 1.612960 0.000000 
#    z 0.000000 0.000000 1.642340 
# 
# From -- ./inp_files/6025.got.cif
#   From: 2010.05.17/outbox.cif.g08.bks.cpg/sg128_4_cif.got.tgz:6025.got - 2010.05.20 12:07:25.
