data_PCOD9564158
_publ_section_title
;
Structure prediction by ZEFSAII (Michael W. Deem and Ramdas Pophale) SiO2 
 PCOD9564158
Probable space group: P 4/M B M
;
_chemical_formula_sum "Si O2"
_cell_formula_units_Z 112
_cell_length_a 15.337653
_cell_length_b 15.337653
_cell_length_c 24.773932
_cell_angle_alpha 90.000000
_cell_angle_beta 90.000000
_cell_angle_gamma 90.000000
_cell_volume 5827.908939
_symmetry_space_group_name_H-M "P 4/M B M"
_symmetry_group_IT_number 127
_symmetry_cell_setting 'tetragonal'
loop_
_space_group_symop_operation_xyz
x,y,z
-y,x,z
-x,-y,z
y,-x,z
1/2+x,1/2-y,-z
1/2-x,1/2+y,-z
1/2+y,1/2+x,-z
1/2-y,1/2-x,-z
-x,-y,-z
y,-x,-z
x,y,-z
-y,x,-z
1/2-x,1/2+y,z
1/2+x,1/2-y,z
1/2-y,1/2-x,z
1/2+y,1/2+x,z
loop_
_atom_site_type_symbol
_atom_site_label
_atom_site_fract_x
_atom_site_fract_y
_atom_site_fract_z
Si Si1 0.102362 0.895186 0.648600
Si Si2 0.995348 0.355841 0.751933
Si Si3 0.495405 0.854633 0.367866
Si Si4 0.107260 0.899295 0.230332
Si Si5 0.112481 0.760440 0.561080
Si Si6 0.756908 0.597829 0.156644
Si Si7 0.357348 0.469511 0.936838
O O1 0.130892 0.870520 0.709066
O O2 0.140732 0.837420 0.601131
O O3 0.998057 0.883265 0.644149
O O4 0.902068 0.402068 0.760284
O O5 0.000058 0.313572 0.692312
O O6 0.066082 0.433919 0.747909
O O7 0.028687 0.297754 0.800938
O O8 0.567968 0.932033 0.366097
O O9 0.528558 0.788310 0.412972
O O10 0.403343 0.903343 0.377082
O O11 0.173447 0.860449 0.187304
O O12 0.004398 0.883529 0.224003
O O13 0.095509 0.789994 0.500000
O O14 0.188230 0.688230 0.560142
O O15 0.829869 0.670132 0.145403
O O16 0.720443 0.551992 0.103354
O O17 0.435958 0.400626 0.927209
O O18 0.333438 0.464437 0.000000
#
# Coordination Sequence:
#
# PCOD9564158 Si02
#       7
#    16  16  16  16  16  16  16
#     4   9  20  38  58  75  95 135 183 220 262 322
#     4   8  16  31  49  73 110 153 186 210 252 325
#     4   8  15  30  51  73 102 143 182 216 263 326
#     4   9  19  36  55  75 104 139 179 225 269 318
#     4  10  21  35  53  79 107 134 171 227 286 333
#     4  11  21  31  53  89 120 145 176 222 276 321
#     4   9  19  39  64  82 103 147 197 230 263 311
#
# _framework density 19.217870999999999
#
# number of rings (size 3 to 8) (size 9 to 14) (size 15 to 20)
#    0.000    2.857    0.000    3.000    4.000    2.857 
#    0.000    5.714    0.000    1.286    0.000    2.000 
#    0.000    0.000    0.000    0.000    0.000    0.000 
#
# Total GULP energy -624767.052704 kJ/mol
# GULP energy per Si atom -5578.277256 kJ/mol
# Density = 1.917413 g / cm^3
# Si number density = 19.217871 Si / 1000 Ang^3
#
#
#
# Elastic Constant Matrix: (Units=GPa)
#
#
# Indices 1 2 3 4 5 6 
#
# 1 43.3165 -5.7941 13.1194 0.0000 0.0000 0.0000
# 2 -5.7941 43.3165 13.1194 0.0000 0.0000 0.0000
# 3 13.1194 13.1194 68.8872 0.0000 0.0000 0.0000
# 4 0.0000 0.0000 0.0000 30.4506 0.0000 0.0000
# 5 0.0000 0.0000 0.0000 0.0000 30.4506 0.0000
# 6 0.0000 0.0000 0.0000 0.0000 0.0000 3.9028
#
#
#
# Elastic Compliance Matrix: (Units=1/GPa)
#
#
# Indices 1 2 3 4 5 6 
#
# 1 0.025554 0.005192 -0.005855 0.000000 0.000000 0.000000
# 2 0.005192 0.025554 -0.005855 0.000000 0.000000 0.000000
# 3 -0.005855 -0.005855 0.016747 0.000000 0.000000 0.000000
# 4 0.000000 0.000000 0.000000 0.032840 0.000000 0.000000
# 5 0.000000 0.000000 0.000000 0.000000 0.032840 0.000000
# 6 0.000000 0.000000 0.000000 0.000000 0.000000 0.256227
#
#
# Mechanical properties :
#
#
# Convention : Reuss Voigt Hill
#
# Bulk Modulus (GPa) = 18.24289 21.82329 20.03309
# Shear Modulus (GPa) = 11.87447 21.96585 16.92016
#
# Velocity S-wave (km/s) = 2.48843 3.38448 2.97044
# Velocity P-wave (km/s) = 4.21541 5.16269 4.71291
#
# Compressibility (1/GPa) = 0.05481586
#
# Stress axis : x y z
#
# Youngs Moduli (GPa) = 39.13325 39.13325 59.71309
#
# Poissons Ratio (x) = -0.20316 0.34964
# Poissons Ratio (y) = -0.20316 0.34964
# Poissons Ratio (z) = 0.22914 0.22914
#
# Static dielectric constant tensor:
#      x y z
#    x 1.693390 0.000000 0.000000 
#    y 0.000000 1.693390 0.000000 
#    z 0.000000 0.000000 1.676420 
# 
# From -- ./inp_files/6185.got.cif
#   From: 2010.05.17/outbox.cif.g08.bks.cpg/sg127_4_cif.got.tgz:6185.got - 2010.05.20 12:03:00.
