data_PCOD9564566
_publ_section_title
;
Structure prediction by ZEFSAII (Michael W. Deem and Ramdas Pophale) SiO2 
 PCOD9564566
Probable space group: P 4/M N C
;
_chemical_formula_sum "Si O2"
_cell_formula_units_Z 96
_cell_length_a 16.423832
_cell_length_b 16.423832
_cell_length_c 19.924813
_cell_angle_alpha 90.000000
_cell_angle_beta 90.000000
_cell_angle_gamma 90.000000
_cell_volume 5374.564040
_symmetry_space_group_name_H-M "P 4/M N C"
_symmetry_group_IT_number 128
_symmetry_cell_setting 'tetragonal'
loop_
_space_group_symop_operation_xyz
x,y,z
-y,x,z
-x,-y,z
y,-x,z
1/2+x,1/2-y,1/2-z
1/2-x,1/2+y,1/2-z
1/2+y,1/2+x,1/2-z
1/2-y,1/2-x,1/2-z
-x,-y,-z
y,-x,-z
x,y,-z
-y,x,-z
1/2-x,1/2+y,1/2+z
1/2+x,1/2-y,1/2+z
1/2-y,1/2-x,1/2+z
1/2+y,1/2+x,1/2+z
loop_
_atom_site_type_symbol
_atom_site_label
_atom_site_fract_x
_atom_site_fract_y
_atom_site_fract_z
Si Si1 0.401953 0.401833 0.071105
Si Si2 0.903285 0.096835 0.284637
Si Si3 0.148051 0.402185 0.326370
Si Si4 0.402130 0.148025 0.326386
Si Si5 0.999976 0.598753 0.423351
Si Si6 0.796842 0.796861 0.809574
O O1 0.500067 0.390188 0.071363
O O2 0.371538 0.371383 0.142816
O O3 0.369907 0.369748 0.000000
O O4 0.858710 0.141441 0.225606
O O5 0.000067 0.110446 0.281856
O O6 0.120248 0.379753 0.250000
O O7 0.160341 0.500028 0.328530
O O8 0.078157 0.378564 0.379133
O O9 0.228458 0.351333 0.344541
O O10 0.379714 0.120287 0.250000
O O11 0.351246 0.228398 0.344598
O O12 0.378539 0.078087 0.379116
O O13 0.999978 0.629653 0.500000
O O14 0.000000 0.500000 0.426574
O O15 0.750009 0.749992 0.750000
#
# Coordination Sequence:
#
# PCOD9564566 Si02
#       6
#    16  16  16  16  16  16
#     4   7  10  18  36  63  92 129 175 214 252 298
#     4   9  16  28  47  71 102 138 180 230 272 317
#     4  10  18  32  55  79 108 143 183 228 279 333
#     4  10  18  32  55  79 108 143 183 228 279 333
#     4   9  18  32  56  86 108 133 181 233 269 317
#     4  10  21  31  45  75 104 142 177 225 272 330
#
# _framework density 17.861913000000001
#
# number of rings (size 3 to 8) (size 9 to 14) (size 15 to 20)
#    0.000    2.833    1.667    2.500    0.000    0.000 
#    0.000    0.833    0.000    8.000    0.000    0.000 
#    0.000    0.000    0.000   21.833    0.000    1.333 
#
# Total GULP energy -534729.053220 kJ/mol
# GULP energy per Si atom -5570.094304 kJ/mol
# Density = 1.782126 g / cm^3
# Si number density = 17.861913 Si / 1000 Ang^3
#
#
#
# Elastic Constant Matrix: (Units=GPa)
#
#
# Indices 1 2 3 4 5 6 
#
# 1 2582.5781-2438.6552 46.3386 0.0000 0.0000 0.0000
# 2 -2438.6552 2582.6523 46.3681 0.0000 0.0000 0.0000
# 3 46.3386 46.3681 115.4656 0.0000 0.0000 0.0000
# 4 0.0000 0.0000 0.0000 0.6361 0.0000 0.0000
# 5 0.0000 0.0000 0.0000 0.0000 0.6361 0.0000
# 6 0.0000 0.0000 0.0000 0.0000 0.0000 28.2542
#
#
#
# Elastic Compliance Matrix: (Units=1/GPa)
#
#
# Indices 1 2 3 4 5 6 
#
# 1 0.004784 0.004585 -0.003761 0.000000 0.000000 0.000000
# 2 0.004585 0.004784 -0.003761 0.000000 0.000000 0.000000
# 3 -0.003761 -0.003761 0.011680 0.000000 0.000000 0.000000
# 4 0.000000 0.000000 0.000000 1.572027 0.000000 0.000000
# 5 0.000000 0.000000 0.000000 0.000000 1.572025 0.000000
# 6 0.000000 0.000000 0.000000 0.000000 0.000000 0.035393
#
#
# Mechanical properties :
#
#
# Convention : Reuss Voigt Hill
#
# Bulk Modulus (GPa) = 65.04807 65.42213 65.23510
# Shear Modulus (GPa) = 1.55681 514.34825 257.95253
#
# Velocity S-wave (km/s) = 0.93460 16.98774 12.03031
# Velocity P-wave (km/s) = 6.13685 20.53007 15.15164
#
# Compressibility (1/GPa) = 0.01537325
#
# Stress axis : x y z
#
# Youngs Moduli (GPa) = 209.04043 209.04455 85.61520
#
# Poissons Ratio (x) = -0.95838 0.32199
# Poissons Ratio (y) = -0.95836 0.32199
# Poissons Ratio (z) = 0.78617 0.78619
#
# Static dielectric constant tensor:
#      x y z
#    x 1.619880 0.000000 0.000000 
#    y 0.000000 1.619880 0.000000 
#    z 0.000000 0.000000 1.623630 
# 
# From -- ./inp_files/4751.got.cif
#   From: 2010.05.17/outbox.cif.g08.bks.cpg/sg128_3_cif.got.tgz:4751.got - 2010.05.20 12:07:25.
