data_PCOD9564131
_publ_section_title
;
Structure prediction by ZEFSAII (Michael W. Deem and Ramdas Pophale) SiO2 
 PCOD9564131
Probable space group: P 4/M B M
;
_chemical_formula_sum "Si O2"
_cell_formula_units_Z 96
_cell_length_a 20.987132
_cell_length_b 20.987132
_cell_length_c 13.644394
_cell_angle_alpha 90.000000
_cell_angle_beta 90.000000
_cell_angle_gamma 90.000000
_cell_volume 6009.805819
_symmetry_space_group_name_H-M "P 4/M B M"
_symmetry_group_IT_number 127
_symmetry_cell_setting 'tetragonal'
loop_
_space_group_symop_operation_xyz
x,y,z
-y,x,z
-x,-y,z
y,-x,z
1/2+x,1/2-y,-z
1/2-x,1/2+y,-z
1/2+y,1/2+x,-z
1/2-y,1/2-x,-z
-x,-y,-z
y,-x,-z
x,y,-z
-y,x,-z
1/2-x,1/2+y,z
1/2+x,1/2-y,z
1/2-y,1/2-x,z
1/2+y,1/2+x,z
loop_
_atom_site_type_symbol
_atom_site_label
_atom_site_fract_x
_atom_site_fract_y
_atom_site_fract_z
Si Si1 0.597586 0.313011 0.222184
Si Si2 0.011028 0.102956 0.116432
Si Si3 0.564350 0.835697 0.881825
Si Si4 0.664390 0.729063 0.116975
Si Si5 0.445674 0.591574 0.616747
Si Si6 0.688224 0.081465 0.885091
O O1 0.533085 0.332253 0.163305
O O2 0.662799 0.337803 0.173234
O O3 0.585845 0.350046 0.324057
O O4 0.602395 0.238426 0.197897
O O5 0.946370 0.067562 0.143857
O O6 0.009488 0.109171 0.000000
O O7 0.601716 0.898285 0.845720
O O8 0.606045 0.774478 0.852004
O O9 0.490367 0.831867 0.860237
O O10 0.568696 0.836163 0.000000
O O11 0.728921 0.771080 0.132177
O O12 0.660064 0.716661 0.000000
O O13 0.415530 0.521617 0.639379
O O14 0.439924 0.600604 0.500000
O O15 0.628807 0.128807 0.884551
O O16 0.713555 0.083165 0.000000
#
# Coordination Sequence:
#
# PCOD9564131 Si02
#       6
#    16  16  16  16  16  16
#     4  12  20  27  48  71  94 124 162 195 239 297
#     4   9  18  28  36  57  93 124 150 182 219 265
#     4   8  16  31  48  65  90 131 179 212 230 265
#     4   9  18  31  45  66 101 138 164 189 233 293
#     4   9  20  38  54  70  95 125 161 205 249 295
#     4  10  21  33  45  69 105 138 168 203 246 293
#
# _framework density 15.973893
#
# number of rings (size 3 to 8) (size 9 to 14) (size 15 to 20)
#    0.000    2.500    0.000    5.000    4.667    3.000 
#    0.000    1.667    0.000    2.000    0.000    0.000 
#    0.000    0.667    0.000    1.500    0.000    0.167 
#
# Total GULP energy -534607.376086 kJ/mol
# GULP energy per Si atom -5568.826834 kJ/mol
# Density = 1.593754 g / cm^3
# Si number density = 15.973893 Si / 1000 Ang^3
#
#
#
# Elastic Constant Matrix: (Units=GPa)
#
#
# Indices 1 2 3 4 5 6 
#
# 1 86.1843 34.5546 28.7730 0.0000 0.0000 0.0000
# 2 34.5546 86.1843 28.7730 0.0000 0.0000 0.0000
# 3 28.7730 28.7730 66.6722 0.0000 0.0000 0.0000
# 4 0.0000 0.0000 0.0000 16.2658 0.0000 0.0000
# 5 0.0000 0.0000 0.0000 0.0000 16.2658 0.0000
# 6 0.0000 0.0000 0.0000 0.0000 0.0000 13.9655
#
#
#
# Elastic Compliance Matrix: (Units=1/GPa)
#
#
# Indices 1 2 3 4 5 6 
#
# 1 0.014898 -0.004471 -0.004500 0.000000 0.000000 0.000000
# 2 -0.004471 0.014898 -0.004500 0.000000 0.000000 0.000000
# 3 -0.004500 -0.004500 0.018883 0.000000 0.000000 0.000000
# 4 0.000000 0.000000 0.000000 0.061479 0.000000 0.000000
# 5 0.000000 0.000000 0.000000 0.000000 0.061479 0.000000
# 6 0.000000 0.000000 0.000000 0.000000 0.000000 0.071605
#
#
# Mechanical properties :
#
#
# Convention : Reuss Voigt Hill
#
# Bulk Modulus (GPa) = 46.00400 47.02688 46.51544
# Shear Modulus (GPa) = 18.02269 19.09542 18.55906
#
# Velocity S-wave (km/s) = 3.36260 3.46123 3.41227
# Velocity P-wave (km/s) = 6.62858 6.74368 6.68638
#
# Compressibility (1/GPa) = 0.02173724
#
# Stress axis : x y z
#
# Youngs Moduli (GPa) = 67.12368 67.12368 52.95855
#
# Poissons Ratio (x) = 0.30010 0.23831
# Poissons Ratio (y) = 0.30010 0.23831
# Poissons Ratio (z) = 0.30205 0.30205
#
# Static dielectric constant tensor:
#      x y z
#    x 1.569870 0.000000 0.000000 
#    y 0.000000 1.569870 0.000000 
#    z 0.000000 0.000000 1.538760 
# 
# From -- ./inp_files/4554.got.cif
#   From: 2010.05.17/outbox.cif.g08.bks.cpg/sg127_3_cif.got.tgz:4554.got - 2010.05.20 12:03:00.
