data_PCOD9564457
_publ_section_title
;
Structure prediction by ZEFSAII (Michael W. Deem and Ramdas Pophale) SiO2 
 PCOD9564457
Probable space group: P 4/M B M
;
_chemical_formula_sum "Si O2"
_cell_formula_units_Z 72
_cell_length_a 17.751117
_cell_length_b 17.751117
_cell_length_c 13.384095
_cell_angle_alpha 90.000000
_cell_angle_beta 90.000000
_cell_angle_gamma 90.000000
_cell_volume 4217.357174
_symmetry_space_group_name_H-M "P 4/M B M"
_symmetry_group_IT_number 127
_symmetry_cell_setting 'tetragonal'
loop_
_space_group_symop_operation_xyz
x,y,z
-y,x,z
-x,-y,z
y,-x,z
1/2+x,1/2-y,-z
1/2-x,1/2+y,-z
1/2+y,1/2+x,-z
1/2-y,1/2-x,-z
-x,-y,-z
y,-x,-z
x,y,-z
-y,x,-z
1/2-x,1/2+y,z
1/2+x,1/2-y,z
1/2-y,1/2-x,z
1/2+y,1/2+x,z
loop_
_atom_site_type_symbol
_atom_site_label
_atom_site_fract_x
_atom_site_fract_y
_atom_site_fract_z
Si Si1 0.732395 0.895190 0.112691
Si Si2 0.725526 0.646543 0.112445
Si Si3 0.023806 0.278381 0.728753
Si Si4 0.502562 0.377919 0.620170
Si Si5 0.935846 0.564155 0.620569
O O1 0.669740 0.830261 0.112387
O O2 0.812010 0.853826 0.132400
O O3 0.711213 0.954185 0.196514
O O4 0.734720 0.927232 0.000000
O O5 0.787584 0.712416 0.108650
O O6 0.751814 0.591124 0.198587
O O7 0.722203 0.613093 0.000000
O O8 0.006276 0.206613 0.659347
O O9 0.041379 0.355085 0.668797
O O10 0.574730 0.428482 0.651850
O O11 0.502480 0.376739 0.500000
O O12 0.929271 0.570730 0.500000
O O13 0.000000 0.500000 0.641059
#
# Coordination Sequence:
#
# PCOD9564457 Si02
#       5
#    16  16  16  16   8
#     4   9  19  34  52  77 110 140 170 215 266 321
#     4   9  18  33  51  77 109 137 169 213 267 319
#     4  12  19  34  57  81  99 145 188 223 266 336
#     4   9  19  35  55  81 110 137 172 225 284 336
#     4  11  26  42  53  73 109 149 192 247 295 316
#
# _framework density 17.072302000000001
#
# number of rings (size 3 to 8) (size 9 to 14) (size 15 to 20)
#    0.000    2.111    1.111    5.333    0.000    0.000 
#    0.000    0.000    0.000    2.667    0.000    9.333 
#    0.000    0.000    0.000    0.000    0.000    0.000 
#
# Total GULP energy -401236.348135 kJ/mol
# GULP energy per Si atom -5572.727057 kJ/mol
# Density = 1.703345 g / cm^3
# Si number density = 17.072302 Si / 1000 Ang^3
#
#
#
# Elastic Constant Matrix: (Units=GPa)
#
#
# Indices 1 2 3 4 5 6 
#
# 1 109.1063 48.9633 59.1037 0.0000 0.0000 0.0000
# 2 48.9633 109.1060 59.1036 0.0000 0.0000 0.0000
# 3 59.1037 59.1036 103.1720 0.0000 0.0000 0.0000
# 4 0.0000 0.0000 0.0000 -38.7671 0.0000 0.0000
# 5 0.0000 0.0000 0.0000 0.0000 -38.7735 0.0000
# 6 0.0000 0.0000 0.0000 0.0000 0.0000 21.5896
#
#
#
# Elastic Compliance Matrix: (Units=1/GPa)
#
#
# Indices 1 2 3 4 5 6 
#
# 1 0.013847 -0.002780 -0.006340 0.000000 0.000000 0.000000
# 2 -0.002780 0.013847 -0.006340 0.000000 0.000000 0.000000
# 3 -0.006340 -0.006340 0.016957 0.000000 0.000000 0.000000
# 4 0.000000 0.000000 0.000000 -0.025795 0.000000 0.000000
# 5 0.000000 0.000000 0.000000 0.000000 -0.025791 0.000000
# 6 0.000000 0.000000 0.000000 0.000000 0.000000 0.046319
#
#
# Mechanical properties :
#
#
# Convention : Reuss Voigt Hill
#
# Bulk Modulus (GPa) = 72.82766 72.85838 72.84302
# Shear Modulus (GPa) = 66.77171 -0.90927 32.93122
#
# Velocity S-wave (km/s) = 6.26067 -0.73059 4.39672
# Velocity P-wave (km/s) = 9.74743 6.48516 8.27858
#
# Compressibility (1/GPa) = 0.01373105
#
# Stress axis : x y z
#
# Youngs Moduli (GPa) = 72.21578 72.21559 58.97317
#
# Poissons Ratio (x) = 0.20073 0.37391
# Poissons Ratio (y) = 0.20074 0.37391
# Poissons Ratio (z) = 0.45787 0.45787
#
# Static dielectric constant tensor:
#      x y z
#    x 1.575830 0.000000 0.000000 
#    y 0.000000 1.575830 0.000000 
#    z 0.000000 0.000000 1.570550 
# 
# From -- ./inp_files/3175.got.cif
#   From: 2010.05.17/outbox.cif.g08.bks.cpg/sg127_2_cif.got.tgz:3175.got - 2010.05.20 12:03:00.
