data_PCOD9564451
_publ_section_title
;
Structure prediction by ZEFSAII (Michael W. Deem and Ramdas Pophale) SiO2 
 PCOD9564451
Probable space group: P 4/M B M
;
_chemical_formula_sum "Si O2"
_cell_formula_units_Z 40
_cell_length_a 11.880841
_cell_length_b 11.880841
_cell_length_c 14.684865
_cell_angle_alpha 90.000000
_cell_angle_beta 90.000000
_cell_angle_gamma 90.000000
_cell_volume 2072.833057
_symmetry_space_group_name_H-M "P 4/M B M"
_symmetry_group_IT_number 127
_symmetry_cell_setting 'tetragonal'
loop_
_space_group_symop_operation_xyz
x,y,z
-y,x,z
-x,-y,z
y,-x,z
1/2+x,1/2-y,-z
1/2-x,1/2+y,-z
1/2+y,1/2+x,-z
1/2-y,1/2-x,-z
-x,-y,-z
y,-x,-z
x,y,-z
-y,x,-z
1/2-x,1/2+y,z
1/2+x,1/2-y,z
1/2-y,1/2-x,z
1/2+y,1/2+x,z
loop_
_atom_site_type_symbol
_atom_site_label
_atom_site_fract_x
_atom_site_fract_y
_atom_site_fract_z
Si Si1 0.811667 0.504084 0.103763
Si Si2 0.816786 0.973196 0.714628
Si Si3 0.404979 0.095022 0.606364
O O1 0.905217 0.405217 0.106596
O O2 0.720503 0.477486 0.179758
O O3 0.880700 0.619301 0.124135
O O4 0.769047 0.510866 0.000000
O O5 0.706368 0.949417 0.656147
O O6 0.908121 0.876657 0.695771
O O7 0.383399 0.116602 0.500000
O O8 0.500000 0.000000 0.614634
#
# Coordination Sequence:
#
# PCOD9564451 Si02
#       3
#    16  16   8
#     4   9  18  34  60  93 129 170 214 258 307 371
#     4  11  25  42  64  97 134 168 210 266 320 381
#     4  11  26  46  71  96 122 163 215 268 329 394
#
# _framework density 19.297260000000001
#
# number of rings (size 3 to 8) (size 9 to 14) (size 15 to 20)
#    0.000    1.800    2.000    2.400    5.600    3.200 
#    0.000    8.000    0.000    0.000    0.000    0.000 
#    0.000    0.000    0.000    0.000    0.000    0.000 
#
# Total GULP energy -223515.375538 kJ/mol
# GULP energy per Si atom -5587.884388 kJ/mol
# Density = 1.925334 g / cm^3
# Si number density = 19.297260 Si / 1000 Ang^3
#
#
#
# Elastic Constant Matrix: (Units=GPa)
#
#
# Indices 1 2 3 4 5 6 
#
# 1 90.6726 40.3806 64.3459 0.0000 0.0000 0.0000
# 2 40.3806 90.6724 64.3458 0.0000 0.0000 0.0000
# 3 64.3459 64.3458 119.1995 0.0000 0.0000 0.0000
# 4 0.0000 0.0000 0.0000 -16.1959 0.0000 0.0000
# 5 0.0000 0.0000 0.0000 0.0000 -16.1963 0.0000
# 6 0.0000 0.0000 0.0000 0.0000 0.0000 11.1502
#
#
#
# Elastic Compliance Matrix: (Units=1/GPa)
#
#
# Indices 1 2 3 4 5 6 
#
# 1 0.018061 -0.001823 -0.008766 0.000000 0.000000 0.000000
# 2 -0.001823 0.018061 -0.008766 0.000000 0.000000 0.000000
# 3 -0.008766 -0.008766 0.017853 0.000000 0.000000 0.000000
# 4 0.000000 0.000000 0.000000 -0.061744 0.000000 0.000000
# 5 0.000000 0.000000 0.000000 0.000000 -0.061743 0.000000
# 6 0.000000 0.000000 0.000000 0.000000 0.000000 0.089684
#
#
# Mechanical properties :
#
#
# Convention : Reuss Voigt Hill
#
# Bulk Modulus (GPa) = 65.50170 70.96549 68.23359
# Shear Modulus (GPa) = 78.16158 4.51642 41.33900
#
# Velocity S-wave (km/s) = 6.37118 1.53151 4.63343
# Velocity P-wave (km/s) = 9.38828 6.32314 8.00381
#
# Compressibility (1/GPa) = 0.01526678
#
# Stress axis : x y z
#
# Youngs Moduli (GPa) = 55.36781 55.36771 56.01307
#
# Poissons Ratio (x) = 0.10093 0.49099
# Poissons Ratio (y) = 0.10093 0.49099
# Poissons Ratio (z) = 0.48533 0.48533
#
# Static dielectric constant tensor:
#      x y z
#    x 1.655530 0.000000 0.000000 
#    y 0.000000 1.655530 0.000000 
#    z 0.000000 0.000000 1.661380 
# 
# From -- ./inp_files/3938.got.cif
#   From: 2010.05.17/outbox.cif.g08.bks.cpg/sg127_2_cif.got.tgz:3938.got - 2010.05.20 12:03:00.
