data_PCOD9564801
_publ_section_title
;
Structure prediction by ZEFSAII (Michael W. Deem and Ramdas Pophale) SiO2 
 PCOD9564801
Probable space group: P 4/M N C
;
_chemical_formula_sum "Si O2"
_cell_formula_units_Z 96
_cell_length_a 24.370075
_cell_length_b 24.370075
_cell_length_c 8.778234
_cell_angle_alpha 90.000000
_cell_angle_beta 90.000000
_cell_angle_gamma 90.000000
_cell_volume 5213.398049
_symmetry_space_group_name_H-M "P 4/M N C"
_symmetry_group_IT_number 128
_symmetry_cell_setting 'tetragonal'
loop_
_space_group_symop_operation_xyz
x,y,z
-y,x,z
-x,-y,z
y,-x,z
1/2+x,1/2-y,1/2-z
1/2-x,1/2+y,1/2-z
1/2+y,1/2+x,1/2-z
1/2-y,1/2-x,1/2-z
-x,-y,-z
y,-x,-z
x,y,-z
-y,x,-z
1/2-x,1/2+y,1/2+z
1/2+x,1/2-y,1/2+z
1/2-y,1/2-x,1/2+z
1/2+y,1/2+x,1/2+z
loop_
_atom_site_type_symbol
_atom_site_label
_atom_site_fract_x
_atom_site_fract_y
_atom_site_fract_z
Si Si1 0.557537 0.143306 0.183322
Si Si2 0.065262 0.235302 0.183794
Si Si3 0.566727 0.848600 0.817652
Si Si4 0.053143 0.778045 0.317752
Si Si5 0.425098 0.446963 0.168626
Si Si6 0.860892 0.138552 0.175096
O O1 0.598922 0.098922 0.250000
O O2 0.569669 0.203619 0.249813
O O3 0.494185 0.130736 0.225454
O O4 0.561182 0.145255 0.000000
O O5 0.118503 0.199059 0.228990
O O6 0.007109 0.211420 0.245929
O O7 0.062927 0.236068 0.000000
O O8 0.614217 0.885784 0.750000
O O9 0.568803 0.784433 0.773604
O O10 0.570578 0.850517 0.000000
O O11 0.047140 0.781132 0.500000
O O12 0.101691 0.818230 0.264984
O O13 0.487767 0.426789 0.174935
O O14 0.393459 0.418514 0.303873
O O15 0.402846 0.431206 0.000000
O O16 0.857858 0.155821 0.000000
#
# Coordination Sequence:
#
# PCOD9564801 Si02
#       6
#    16  16  16  16  16  16
#     4  10  21  38  60  87 116 146 181 219 266 324
#     4  10  21  37  56  80 111 146 185 231 281 328
#     4   9  20  37  58  85 113 142 176 215 263 321
#     4  10  21  37  56  79 108 145 187 227 273 327
#     4   9  18  31  46  66  94 130 172 220 275 329
#     4  11  22  33  49  75 103 137 183 228 273 324
#
# _framework density 18.414093000000001
#
# number of rings (size 3 to 8) (size 9 to 14) (size 15 to 20)
#    0.000    2.167    0.000    4.500    0.000   10.333 
#    0.000    3.333    0.000    2.000    0.000    0.000 
#    0.000    0.000    0.000    0.000    0.000    0.000 
#
# Total GULP energy -535485.795356 kJ/mol
# GULP energy per Si atom -5577.977035 kJ/mol
# Density = 1.837218 g / cm^3
# Si number density = 18.414093 Si / 1000 Ang^3
#
#
#
# Elastic Constant Matrix: (Units=GPa)
#
#
# Indices 1 2 3 4 5 6 
#
# 1 84.7599 64.0899 31.9393 0.0000 0.0000 0.0000
# 2 64.0899 84.7666 31.9407 0.0000 0.0000 0.0000
# 3 31.9393 31.9407 47.4427 0.0000 0.0000 0.0000
# 4 0.0000 0.0000 0.0000 30.0032 0.0000 0.0000
# 5 0.0000 0.0000 0.0000 0.0000 30.0034 0.0000
# 6 0.0000 0.0000 0.0000 0.0000 0.0000 38.3017
#
#
#
# Elastic Compliance Matrix: (Units=1/GPa)
#
#
# Indices 1 2 3 4 5 6 
#
# 1 0.028911 -0.019462 -0.006360 0.000000 0.000000 0.000000
# 2 -0.019462 0.028908 -0.006360 0.000000 0.000000 0.000000
# 3 -0.006360 -0.006360 0.029642 0.000000 0.000000 0.000000
# 4 0.000000 0.000000 0.000000 0.033330 0.000000 0.000000
# 5 0.000000 0.000000 0.000000 0.000000 0.033330 0.000000
# 6 0.000000 0.000000 0.000000 0.000000 0.000000 0.026109
#
#
# Mechanical properties :
#
#
# Convention : Reuss Voigt Hill
#
# Bulk Modulus (GPa) = 43.29822 52.54543 47.92182
# Shear Modulus (GPa) = 19.81821 25.59493 22.70657
#
# Velocity S-wave (km/s) = 3.28419 3.73227 3.51537
# Velocity P-wave (km/s) = 6.16002 6.86808 6.52366
#
# Compressibility (1/GPa) = 0.02309564
#
# Stress axis : x y z
#
# Youngs Moduli (GPa) = 34.58939 34.59198 33.73568
#
# Poissons Ratio (x) = 0.67323 0.21457
# Poissons Ratio (y) = 0.67318 0.21457
# Poissons Ratio (z) = 0.22000 0.22002
#
# Static dielectric constant tensor:
#      x y z
#    x 1.639230 0.000000 0.000000 
#    y 0.000000 1.639230 0.000000 
#    z 0.000000 0.000000 1.642860 
# 
# From -- ./inp_files/1462.got.cif
#   From: 2010.05.17/outbox.cif.g08.bks.cpg/sg128_1_cif.got.tgz:1462.got - 2010.05.20 12:07:25.
