data_PCOD9564586
_publ_section_title
;
Structure prediction by ZEFSAII (Michael W. Deem and Ramdas Pophale) SiO2 
 PCOD9564586
Probable space group: P 4/M N C
;
_chemical_formula_sum "Si O2"
_cell_formula_units_Z 88
_cell_length_a 16.632461
_cell_length_b 16.632461
_cell_length_c 14.647487
_cell_angle_alpha 90.000000
_cell_angle_beta 90.000000
_cell_angle_gamma 90.000000
_cell_volume 4052.062625
_symmetry_space_group_name_H-M "P 4/M N C"
_symmetry_group_IT_number 128
_symmetry_cell_setting 'tetragonal'
loop_
_space_group_symop_operation_xyz
x,y,z
-y,x,z
-x,-y,z
y,-x,z
1/2+x,1/2-y,1/2-z
1/2-x,1/2+y,1/2-z
1/2+y,1/2+x,1/2-z
1/2-y,1/2-x,1/2-z
-x,-y,-z
y,-x,-z
x,y,-z
-y,x,-z
1/2-x,1/2+y,1/2+z
1/2+x,1/2-y,1/2+z
1/2-y,1/2-x,1/2+z
1/2+y,1/2+x,1/2+z
loop_
_atom_site_type_symbol
_atom_site_label
_atom_site_fract_x
_atom_site_fract_y
_atom_site_fract_z
Si Si1 0.002978 0.636923 0.500000
Si Si2 0.253740 0.787880 0.345548
Si Si3 0.476243 0.369577 0.697361
Si Si4 0.189391 0.678953 0.000000
Si Si5 0.628630 0.524114 0.000000
Si Si6 0.752077 0.028162 0.334712
Si Si7 0.387982 0.815776 0.500000
Si Si8 0.297939 0.541867 0.500000
O O1 0.100752 0.631660 0.500000
O O2 0.996190 0.678294 0.399023
O O3 0.913009 0.595472 0.500000
O O4 0.242912 0.742912 0.250000
O O5 0.187064 0.750381 0.413850
O O6 0.255208 0.879174 0.307610
O O7 0.332847 0.790460 0.412196
O O8 0.562670 0.410245 0.719596
O O9 0.473652 0.286607 0.753947
O O10 0.467687 0.350210 0.591027
O O11 0.128281 0.754209 0.000000
O O12 0.561648 0.589763 0.000000
O O13 0.679436 0.531807 0.089339
O O14 0.470046 0.766905 0.500000
#
# Coordination Sequence:
#
# PCOD9564586 Si02
#       8
#     8  16  16   8   8  16   8   8
#     4   9  22  42  60  94 128 151 212 266 319 381
#     4  10  22  39  63  91 122 160 209 259 312 385
#     4  11  25  40  60  93 130 170 211 256 315 385
#     4  11  26  38  62  97 120 167 218 270 318 360
#     4  10  19  30  48  83 123 151 185 225 288 383
#     4  10  21  35  64  88 120 167 189 255 324 372
#     4   9  21  44  64  88 122 169 212 258 327 376
#     4  12  26  41  64  85 124 178 221 265 307 357
#
# _framework density 21.717334000000001
#
# number of rings (size 3 to 8) (size 9 to 14) (size 15 to 20)
#    0.000    1.727    0.000    4.364   15.273    2.545 
#    0.000    0.000    0.000    0.000    0.000    5.091 
#    0.000    0.000    0.000    0.000    0.000    0.000 
#
# Total GULP energy -489891.683352 kJ/mol
# GULP energy per Si atom -5566.950947 kJ/mol
# Density = 2.166790 g / cm^3
# Si number density = 21.717334 Si / 1000 Ang^3
#
#
#
# Elastic Constant Matrix: (Units=GPa)
#
#
# Indices 1 2 3 4 5 6 
#
# 1 42.0646 -1.0179 -3.7505 0.0000 0.0000 0.0000
# 2 -1.0179 42.0646 -3.7505 0.0000 0.0000 0.0000
# 3 -3.7505 -3.7505 133.5350 0.0000 0.0000 0.0000
# 4 0.0000 0.0000 0.0000 16.1416 0.0000 0.0000
# 5 0.0000 0.0000 0.0000 0.0000 16.1416 0.0000
# 6 0.0000 0.0000 0.0000 0.0000 0.0000 15.5547
#
#
#
# Elastic Compliance Matrix: (Units=1/GPa)
#
#
# Indices 1 2 3 4 5 6 
#
# 1 0.023850 0.000638 0.000688 0.000000 0.000000 0.000000
# 2 0.000638 0.023850 0.000688 0.000000 0.000000 0.000000
# 3 0.000688 0.000688 0.007527 0.000000 0.000000 0.000000
# 4 0.000000 0.000000 0.000000 0.061952 0.000000 0.000000
# 5 0.000000 0.000000 0.000000 0.000000 0.061952 0.000000
# 6 0.000000 0.000000 0.000000 0.000000 0.000000 0.064289
#
#
# Mechanical properties :
#
#
# Convention : Reuss Voigt Hill
#
# Bulk Modulus (GPa) = 16.87627 22.29183 19.58405
# Shear Modulus (GPa) = 19.29436 24.64644 21.97040
#
# Velocity S-wave (km/s) = 2.98389 3.37244 3.18410
# Velocity P-wave (km/s) = 4.43387 5.04493 4.74924
#
# Compressibility (1/GPa) = 0.05925479
#
# Stress axis : x y z
#
# Youngs Moduli (GPa) = 41.92915 41.92915 132.84964
#
# Poissons Ratio (x) = -0.02677 -0.09137
# Poissons Ratio (y) = -0.02677 -0.09137
# Poissons Ratio (z) = -0.02884 -0.02884
#
# Static dielectric constant tensor:
#      x y z
#    x 1.838780 0.000000 0.000000 
#    y 0.000000 1.838780 0.000000 
#    z 0.000000 0.000000 1.778180 
# 
# From -- ./inp_files/3905.got.cif
#   From: 2010.05.17/outbox.cif.g08.bks.cpg/sg128_2_cif.got.tgz:3905.got - 2010.05.20 12:07:25.
