data_PCOD9564071
_publ_section_title
;
Structure prediction by ZEFSAII (Michael W. Deem and Ramdas Pophale) SiO2 
 PCOD9564071
Probable space group: P 4/M B M
;
_chemical_formula_sum "Si O2"
_cell_formula_units_Z 72
_cell_length_a 20.796935
_cell_length_b 20.796935
_cell_length_c 7.477814
_cell_angle_alpha 90.000000
_cell_angle_beta 90.000000
_cell_angle_gamma 90.000000
_cell_volume 3234.248068
_symmetry_space_group_name_H-M "P 4/M B M"
_symmetry_group_IT_number 127
_symmetry_cell_setting 'tetragonal'
loop_
_space_group_symop_operation_xyz
x,y,z
-y,x,z
-x,-y,z
y,-x,z
1/2+x,1/2-y,-z
1/2-x,1/2+y,-z
1/2+y,1/2+x,-z
1/2-y,1/2-x,-z
-x,-y,-z
y,-x,-z
x,y,-z
-y,x,-z
1/2-x,1/2+y,z
1/2+x,1/2-y,z
1/2-y,1/2-x,z
1/2+y,1/2+x,z
loop_
_atom_site_type_symbol
_atom_site_label
_atom_site_fract_x
_atom_site_fract_y
_atom_site_fract_z
Si Si1 0.333470 0.166531 0.715617
Si Si2 0.585683 0.556114 0.782153
Si Si3 0.980218 0.321401 0.711597
Si Si4 0.409793 0.723123 0.216080
Si Si5 0.774647 0.725354 0.213250
Si Si6 0.054413 0.445588 0.710099
O O1 0.334139 0.165862 0.500000
O O2 0.317601 0.093362 0.778881
O O3 0.279977 0.220024 0.761827
O O4 0.518302 0.585968 0.725582
O O5 0.649798 0.589904 0.720996
O O6 0.585181 0.556910 0.000000
O O7 0.973347 0.334289 0.500000
O O8 0.024440 0.259092 0.734991
O O9 0.022681 0.380857 0.786803
O O10 0.344833 0.755840 0.283510
O O11 0.407872 0.722801 0.000000
O O12 0.781297 0.718704 0.000000
O O13 0.068077 0.431924 0.500000
O O14 0.000000 0.500000 0.718951
#
# Coordination Sequence:
#
# PCOD9564071 Si02
#       6
#     8  16  16  16   8   8
#     4  10  22  38  57  84 116 149 190 235 278 336
#     4   8  15  29  50  74  97 129 178 224 259 310
#     4  10  20  35  57  84 109 142 187 230 275 330
#     4  10  21  35  55  80 110 144 181 225 279 337
#     4  10  23  39  54  81 119 153 187 232 284 343
#     4   9  15  30  55  76 101 138 181 222 258 309
#
# _framework density 22.261742000000002
#
# number of rings (size 3 to 8) (size 9 to 14) (size 15 to 20)
#    0.000    2.556    1.111    1.333    3.111    1.778 
#    0.000    0.000    0.000    0.667    0.000    1.556 
#    0.000    0.000    0.000    0.000    0.000    0.000 
#
# Total GULP energy -401919.788622 kJ/mol
# GULP energy per Si atom -5582.219286 kJ/mol
# Density = 2.221107 g / cm^3
# Si number density = 22.261742 Si / 1000 Ang^3
#
#
#
# Elastic Constant Matrix: (Units=GPa)
#
#
# Indices 1 2 3 4 5 6 
#
# 1 45.0646 99.7067 -1.0603 0.0000 0.0000 0.0000
# 2 99.7067 45.0636 -1.0662 0.0000 0.0000 0.0000
# 3 -1.0603 -1.0662 62.1741 0.0000 0.0000 0.0000
# 4 0.0000 0.0000 0.0000 13.3838 0.0000 0.0000
# 5 0.0000 0.0000 0.0000 0.0000 13.3837 0.0000
# 6 0.0000 0.0000 0.0000 0.0000 0.0000 34.8800
#
#
#
# Elastic Compliance Matrix: (Units=1/GPa)
#
#
# Indices 1 2 3 4 5 6 
#
# 1 -0.005696 0.012605 0.000119 0.000000 0.000000 0.000000
# 2 0.012605 -0.005696 0.000117 0.000000 0.000000 0.000000
# 3 0.000119 0.000117 0.016088 0.000000 0.000000 0.000000
# 4 0.000000 0.000000 0.000000 0.074717 0.000000 0.000000
# 5 0.000000 0.000000 0.000000 0.000000 0.074718 0.000000
# 6 0.000000 0.000000 0.000000 0.000000 0.000000 0.028670
#
#
# Mechanical properties :
#
#
# Convention : Reuss Voigt Hill
#
# Bulk Modulus (GPa) = 32.91756 38.60699 35.76228
# Shear Modulus (GPa) = 29.89625 15.97764 22.93695
#
# Velocity S-wave (km/s) = 3.66859 2.68193 3.21336
# Velocity P-wave (km/s) = 5.72394 5.19329 5.46506
#
# Compressibility (1/GPa) = 0.03037892
#
# Stress axis : x y z
#
# Youngs Moduli (GPa) = -175.57130 -175.56691 62.15851
#
# Poissons Ratio (x) = 2.21302 -0.00740
# Poissons Ratio (y) = 2.21307 -0.00729
# Poissons Ratio (z) = 0.02090 0.02059
#
# Static dielectric constant tensor:
#      x y z
#    x 1.802830 0.000000 0.000000 
#    y 0.000000 1.802830 0.000000 
#    z 0.000000 0.000000 1.842690 
# 
# From -- ./inp_files/1609.got.cif
#   From: 2010.05.17/outbox.cif.g08.bks.cpg/sg127_1_cif.got.tgz:1609.got - 2010.05.20 12:03:00.
