data_PCOD9564066
_publ_section_title
;
Structure prediction by ZEFSAII (Michael W. Deem and Ramdas Pophale) SiO2 
 PCOD9564066
Probable space group: P 4/M B M
;
_chemical_formula_sum "Si O2"
_cell_formula_units_Z 120
_cell_length_a 26.969593
_cell_length_b 26.969593
_cell_length_c 9.113339
_cell_angle_alpha 90.000000
_cell_angle_beta 90.000000
_cell_angle_gamma 90.000000
_cell_volume 6628.668655
_symmetry_space_group_name_H-M "P 4/M B M"
_symmetry_group_IT_number 127
_symmetry_cell_setting 'tetragonal'
loop_
_space_group_symop_operation_xyz
x,y,z
-y,x,z
-x,-y,z
y,-x,z
1/2+x,1/2-y,-z
1/2-x,1/2+y,-z
1/2+y,1/2+x,-z
1/2-y,1/2-x,-z
-x,-y,-z
y,-x,-z
x,y,-z
-y,x,-z
1/2-x,1/2+y,z
1/2+x,1/2-y,z
1/2-y,1/2-x,z
1/2+y,1/2+x,z
loop_
_atom_site_type_symbol
_atom_site_label
_atom_site_fract_x
_atom_site_fract_y
_atom_site_fract_z
Si Si1 0.146424 0.516160 0.324152
Si Si2 0.254515 0.838695 0.666458
Si Si3 0.063562 0.284728 0.827491
Si Si4 0.411623 0.237429 0.325720
Si Si5 0.958152 0.458152 0.175787
Si Si6 0.002403 0.080088 0.178408
Si Si7 0.193398 0.009615 0.826029
Si Si8 0.185663 0.769686 0.166119
O O1 0.140680 0.511849 0.500000
O O2 0.174000 0.468112 0.258254
O O3 0.185173 0.561080 0.294214
O O4 0.093988 0.525725 0.247549
O O5 0.244260 0.855008 0.500000
O O6 0.294315 0.794315 0.660365
O O7 0.277988 0.882552 0.760178
O O8 0.205836 0.816591 0.743825
O O9 0.035832 0.231743 0.810475
O O10 0.064876 0.296747 0.000000
O O11 0.405983 0.241412 0.500000
O O12 0.446441 0.281193 0.264438
O O13 0.359592 0.243317 0.246148
O O14 0.000000 0.500000 0.203185
O O15 0.952695 0.452695 0.000000
O O16 0.953153 0.049634 0.224393
O O17 0.002036 0.137439 0.223221
O O18 0.003036 0.080047 0.000000
O O19 0.192205 0.022490 0.000000
O O20 0.230553 0.730553 0.159371
O O21 0.172205 0.783841 0.000000
#
# Coordination Sequence:
#
# PCOD9564066 Si02
#       8
#    16  16  16  16   8  16  16  16
#     4  10  22  40  61  85 113 150 191 231 282 348
#     4  10  21  37  56  79 109 146 185 227 274 328
#     4  10  20  35  56  82 112 147 187 234 283 333
#     4  10  21  36  55  80 111 145 182 224 274 332
#     4  11  25  43  63  89 119 147 183 237 293 345
#     4   8  14  26  46  73 104 138 178 225 275 324
#     4   9  18  32  51  77 107 139 180 226 270 322
#     4  10  21  36  55  81 110 142 180 223 272 326
#
# _framework density 18.103182
#
# number of rings (size 3 to 8) (size 9 to 14) (size 15 to 20)
#    0.000    2.333    0.000    2.600    0.933    5.867 
#    0.000    2.667    0.000    0.800    0.000    0.933 
#    0.000    0.000    0.000    0.000    0.000    0.000 
#
# Total GULP energy -669498.786001 kJ/mol
# GULP energy per Si atom -5579.156550 kJ/mol
# Density = 1.806198 g / cm^3
# Si number density = 18.103182 Si / 1000 Ang^3
#
#
#
# Elastic Constant Matrix: (Units=GPa)
#
#
# Indices 1 2 3 4 5 6 
#
# 1 95.8901 31.9650 54.9514 0.0000 0.0000 0.0000
# 2 31.9650 95.8901 54.9514 0.0000 0.0000 0.0000
# 3 54.9514 54.9514 89.1677 0.0000 0.0000 0.0000
# 4 0.0000 0.0000 0.0000 22.7546 0.0000 0.0000
# 5 0.0000 0.0000 0.0000 0.0000 22.7546 0.0000
# 6 0.0000 0.0000 0.0000 0.0000 0.0000 8.3496
#
#
#
# Elastic Compliance Matrix: (Units=1/GPa)
#
#
# Indices 1 2 3 4 5 6 
#
# 1 0.016138 0.000494 -0.010250 0.000000 0.000000 0.000000
# 2 0.000494 0.016138 -0.010250 0.000000 0.000000 0.000000
# 3 -0.010250 -0.010250 0.023848 0.000000 0.000000 0.000000
# 4 0.000000 0.000000 0.000000 0.043947 0.000000 0.000000
# 5 0.000000 0.000000 0.000000 0.000000 0.043947 0.000000
# 6 0.000000 0.000000 0.000000 0.000000 0.000000 0.119766
#
#
# Mechanical properties :
#
#
# Convention : Reuss Voigt Hill
#
# Bulk Modulus (GPa) = 62.06215 62.74260 62.40238
# Shear Modulus (GPa) = 16.17258 20.04376 18.10817
#
# Velocity S-wave (km/s) = 2.99215 3.33106 3.16614
# Velocity P-wave (km/s) = 6.80398 7.03763 6.92179
#
# Compressibility (1/GPa) = 0.01611288
#
# Stress axis : x y z
#
# Youngs Moduli (GPa) = 61.96698 61.96698 41.93210
#
# Poissons Ratio (x) = -0.03063 0.42979
# Poissons Ratio (y) = -0.03063 0.42979
# Poissons Ratio (z) = 0.63515 0.63515
#
# Static dielectric constant tensor:
#      x y z
#    x 1.605970 0.000000 0.000000 
#    y 0.000000 1.605970 0.000000 
#    z 0.000000 0.000000 1.611420 
# 
# From -- ./inp_files/2406.got.cif
#   From: 2010.05.17/outbox.cif.g08.bks.cpg/sg127_2_cif.got.tgz:2406.got - 2010.05.20 12:03:00.
