data_PCOD9564212
_publ_section_title
;
Structure prediction by ZEFSAII (Michael W. Deem and Ramdas Pophale) SiO2 
 PCOD9564212
Probable space group: P 4/M B M
;
_chemical_formula_sum "Si O2"
_cell_formula_units_Z 80
_cell_length_a 17.333873
_cell_length_b 17.333873
_cell_length_c 15.078074
_cell_angle_alpha 90.000000
_cell_angle_beta 90.000000
_cell_angle_gamma 90.000000
_cell_volume 4530.405658
_symmetry_space_group_name_H-M "P 4/M B M"
_symmetry_group_IT_number 127
_symmetry_cell_setting 'tetragonal'
loop_
_space_group_symop_operation_xyz
x,y,z
-y,x,z
-x,-y,z
y,-x,z
1/2+x,1/2-y,-z
1/2-x,1/2+y,-z
1/2+y,1/2+x,-z
1/2-y,1/2-x,-z
-x,-y,-z
y,-x,-z
x,y,-z
-y,x,-z
1/2-x,1/2+y,z
1/2+x,1/2-y,z
1/2-y,1/2-x,z
1/2+y,1/2+x,z
loop_
_atom_site_type_symbol
_atom_site_label
_atom_site_fract_x
_atom_site_fract_y
_atom_site_fract_z
Si Si1 0.176474 0.448093 0.712760
Si Si2 0.224637 0.593660 0.600645
Si Si3 0.021681 0.650778 0.899789
Si Si4 0.693715 0.673796 0.718587
Si Si5 0.282478 0.652395 0.095517
O O1 0.105213 0.394788 0.682117
O O2 0.186705 0.527025 0.659879
O O3 0.162736 0.465658 0.817093
O O4 0.254981 0.400239 0.698557
O O5 0.240372 0.568093 0.500000
O O6 0.162638 0.662638 0.596817
O O7 0.299620 0.629102 0.649124
O O8 0.073359 0.573359 0.887980
O O9 0.082218 0.721808 0.897102
O O10 0.988493 0.648709 0.000000
O O11 0.755646 0.744355 0.721366
O O12 0.657520 0.667462 0.816537
O O13 0.228630 0.728630 0.093587
O O14 0.322845 0.647055 0.000000
#
# Coordination Sequence:
#
# PCOD9564212 Si02
#       5
#    16  16  16  16  16
#     4  11  22  33  52  83 112 135 171 222 263 311
#     4  10  21  38  57  74 100 139 176 214 269 329
#     4   9  17  30  49  75 111 151 181 207 250 308
#     4   9  18  33  52  75 102 135 174 215 261 308
#     4   8  13  25  48  72  96 133 176 209 240 291
#
# _framework density 17.658463999999999
#
# number of rings (size 3 to 8) (size 9 to 14) (size 15 to 20)
#    0.000    2.600    2.000    1.800    0.000    4.000 
#    0.000    6.000    0.000    0.600    0.000    1.400 
#    0.000    3.200    0.000    0.000    0.000    0.000 
#
# Total GULP energy -445687.639068 kJ/mol
# GULP energy per Si atom -5571.095488 kJ/mol
# Density = 1.761827 g / cm^3
# Si number density = 17.658464 Si / 1000 Ang^3
#
#
#
# Elastic Constant Matrix: (Units=GPa)
#
#
# Indices 1 2 3 4 5 6 
#
# 1 63.1953 -14.5702 25.8423 0.0000 0.0000 0.0000
# 2 -14.5702 63.1953 25.8423 0.0000 0.0000 0.0000
# 3 25.8423 25.8423 108.7688 0.0000 0.0000 0.0000
# 4 0.0000 0.0000 0.0000 5.1845 0.0000 0.0000
# 5 0.0000 0.0000 0.0000 0.0000 5.1845 0.0000
# 6 0.0000 0.0000 0.0000 0.0000 0.0000 11.6463
#
#
#
# Elastic Compliance Matrix: (Units=1/GPa)
#
#
# Indices 1 2 3 4 5 6 
#
# 1 0.020186 0.007327 -0.006537 0.000000 0.000000 0.000000
# 2 0.007327 0.020186 -0.006537 0.000000 0.000000 0.000000
# 3 -0.006537 -0.006537 0.012300 0.000000 0.000000 0.000000
# 4 0.000000 0.000000 0.000000 0.192884 0.000000 0.000000
# 5 0.000000 0.000000 0.000000 0.000000 0.192884 0.000000
# 6 0.000000 0.000000 0.000000 0.000000 0.000000 0.085864
#
#
# Mechanical properties :
#
#
# Convention : Reuss Voigt Hill
#
# Bulk Modulus (GPa) = 24.28381 34.37646 29.33014
# Shear Modulus (GPa) = 9.09876 17.60605 13.35240
#
# Velocity S-wave (km/s) = 2.27240 3.16101 2.75280
# Velocity P-wave (km/s) = 4.54608 5.72995 5.17200
#
# Compressibility (1/GPa) = 0.04117969
#
# Stress axis : x y z
#
# Youngs Moduli (GPa) = 49.53814 49.53814 81.30061
#
# Poissons Ratio (x) = -0.36298 0.53146
# Poissons Ratio (y) = -0.36298 0.53146
# Poissons Ratio (z) = 0.32383 0.32383
#
# Static dielectric constant tensor:
#      x y z
#    x 1.593340 0.000000 0.000000 
#    y 0.000000 1.593340 0.000000 
#    z 0.000000 0.000000 1.634710 
# 
# From -- ./inp_files/4230.got.cif
#   From: 2010.05.17/outbox.cif.g08.bks.cpg/sg127_3_cif.got.tgz:4230.got - 2010.05.20 12:03:00.
