data_PCOD9564935
_publ_section_title
;
Structure prediction by ZEFSAII (Michael W. Deem and Ramdas Pophale) SiO2 
 PCOD9564935
Probable space group: P 4/M N C
;
_chemical_formula_sum "Si O2"
_cell_formula_units_Z 80
_cell_length_a 12.437925
_cell_length_b 12.437925
_cell_length_c 26.846505
_cell_angle_alpha 90.000000
_cell_angle_beta 90.000000
_cell_angle_gamma 90.000000
_cell_volume 4153.207434
_symmetry_space_group_name_H-M "P 4/M N C"
_symmetry_group_IT_number 128
_symmetry_cell_setting 'tetragonal'
loop_
_space_group_symop_operation_xyz
x,y,z
-y,x,z
-x,-y,z
y,-x,z
1/2+x,1/2-y,1/2-z
1/2-x,1/2+y,1/2-z
1/2+y,1/2+x,1/2-z
1/2-y,1/2-x,1/2-z
-x,-y,-z
y,-x,-z
x,y,-z
-y,x,-z
1/2-x,1/2+y,1/2+z
1/2+x,1/2-y,1/2+z
1/2-y,1/2-x,1/2+z
1/2+y,1/2+x,1/2+z
loop_
_atom_site_type_symbol
_atom_site_label
_atom_site_fract_x
_atom_site_fract_y
_atom_site_fract_z
Si Si1 0.363541 0.796037 0.444574
Si Si2 0.175242 0.043189 0.186088
Si Si3 0.526140 0.679942 0.800814
Si Si4 0.097872 0.717289 0.085415
Si Si5 0.123205 0.499048 0.124977
O O1 0.341125 0.838432 0.500000
O O2 0.487135 0.757701 0.442067
O O3 0.287211 0.696285 0.433052
O O4 0.353808 0.886233 0.401986
O O5 0.213456 0.042616 0.243112
O O6 0.258426 0.073983 0.143736
O O7 0.075466 0.125069 0.179298
O O8 0.412160 0.617322 0.808406
O O9 0.526371 0.783359 0.835923
O O10 0.122817 0.591446 0.082910
O O11 0.000000 0.500000 0.145172
#
# Coordination Sequence:
#
# PCOD9564935 Si02
#       5
#    16  16  16  16  16
#     4  11  24  40  60  87 116 154 201 251 303 350
#     4   9  17  33  59  88 118 149 185 241 302 348
#     4   9  18  36  63  88 111 152 203 245 291 345
#     4  11  21  38  62  85 115 154 196 246 302 358
#     4  10  23  39  56  82 124 161 192 238 292 359
#
# _framework density 19.262222000000001
#
# number of rings (size 3 to 8) (size 9 to 14) (size 15 to 20)
#    0.000    2.000    2.000    3.000    0.000    5.600 
#    0.000    8.000    0.000    0.000    0.000    4.200 
#    0.000    0.000    0.000    0.000    0.000    0.000 
#
# Total GULP energy -446371.991084 kJ/mol
# GULP energy per Si atom -5579.649889 kJ/mol
# Density = 1.921838 g / cm^3
# Si number density = 19.262222 Si / 1000 Ang^3
#
#
#
# Elastic Constant Matrix: (Units=GPa)
#
#
# Indices 1 2 3 4 5 6 
#
# 1 66.6375 17.4689 16.9729 0.0000 0.0000 0.0000
# 2 17.4689 66.6375 16.9729 0.0000 0.0000 0.0000
# 3 16.9729 16.9729 65.1252 0.0000 0.0000 0.0000
# 4 0.0000 0.0000 0.0000 -7.4775 0.0000 0.0000
# 5 0.0000 0.0000 0.0000 0.0000 -7.4775 0.0000
# 6 0.0000 0.0000 0.0000 0.0000 0.0000 19.1186
#
#
#
# Elastic Compliance Matrix: (Units=1/GPa)
#
#
# Indices 1 2 3 4 5 6 
#
# 1 0.016813 -0.003525 -0.003463 0.000000 0.000000 0.000000
# 2 -0.003525 0.016813 -0.003463 0.000000 0.000000 0.000000
# 3 -0.003463 -0.003463 0.017160 0.000000 0.000000 0.000000
# 4 0.000000 0.000000 0.000000 -0.133735 0.000000 0.000000
# 5 0.000000 0.000000 0.000000 0.000000 -0.133735 0.000000
# 6 0.000000 0.000000 0.000000 0.000000 0.000000 0.052305
#
#
# Mechanical properties :
#
#
# Convention : Reuss Voigt Hill
#
# Bulk Modulus (GPa) = 33.46385 33.46997 33.46691
# Shear Modulus (GPa) = -37.44878 10.63177 -13.40851
#
# Velocity S-wave (km/s) = -4.41404 2.35191 -2.64124
# Velocity P-wave (km/s) = 2.92709 4.97885 2.84790
#
# Compressibility (1/GPa) = 0.02988299
#
# Stress axis : x y z
#
# Youngs Moduli (GPa) = 59.47859 59.47859 58.27486
#
# Poissons Ratio (x) = 0.20969 0.20180
# Poissons Ratio (y) = 0.20969 0.20180
# Poissons Ratio (z) = 0.20597 0.20597
#
# Static dielectric constant tensor:
#      x y z
#    x 1.671040 0.000000 0.000000 
#    y 0.000000 1.671040 0.000000 
#    z 0.000000 0.000000 1.669310 
# 
# From -- ./inp_files/7154.got.cif
#   From: 2010.05.17/outbox.cif.g08.bks.cpg/sg128_4_cif.got.tgz:7154.got - 2010.05.20 12:07:25.
