data_PCOD9564650
_publ_section_title
;
Structure prediction by ZEFSAII (Michael W. Deem and Ramdas Pophale) SiO2 
 PCOD9564650
Probable space group: P 4/M N C
;
_chemical_formula_sum "Si O2"
_cell_formula_units_Z 96
_cell_length_a 17.004425
_cell_length_b 17.004425
_cell_length_c 17.912148
_cell_angle_alpha 90.000000
_cell_angle_beta 90.000000
_cell_angle_gamma 90.000000
_cell_volume 5179.306005
_symmetry_space_group_name_H-M "P 4/M N C"
_symmetry_group_IT_number 128
_symmetry_cell_setting 'tetragonal'
loop_
_space_group_symop_operation_xyz
x,y,z
-y,x,z
-x,-y,z
y,-x,z
1/2+x,1/2-y,1/2-z
1/2-x,1/2+y,1/2-z
1/2+y,1/2+x,1/2-z
1/2-y,1/2-x,1/2-z
-x,-y,-z
y,-x,-z
x,y,-z
-y,x,-z
1/2-x,1/2+y,1/2+z
1/2+x,1/2-y,1/2+z
1/2-y,1/2-x,1/2+z
1/2+y,1/2+x,1/2+z
loop_
_atom_site_type_symbol
_atom_site_label
_atom_site_fract_x
_atom_site_fract_y
_atom_site_fract_z
Si Si1 0.656090 0.349983 0.585677
Si Si2 0.330263 0.733608 0.812988
Si Si3 0.607490 0.568984 0.725692
Si Si4 0.029849 0.587392 0.910622
Si Si5 0.322224 0.167857 0.160936
Si Si6 0.869742 0.662249 0.915146
O O1 0.659268 0.378606 0.500000
O O2 0.586504 0.381430 0.637630
O O3 0.738211 0.364528 0.629731
O O4 0.643734 0.255853 0.583534
O O5 0.283883 0.783883 0.750000
O O6 0.388182 0.675772 0.770867
O O7 0.261538 0.684396 0.855425
O O8 0.369885 0.798174 0.865921
O O9 0.522585 0.604998 0.743776
O O10 0.112235 0.612544 0.875117
O O11 0.000000 0.500000 0.892666
O O12 0.957025 0.643104 0.886559
O O13 0.038550 0.594060 0.000000
O O14 0.334304 0.165697 0.250000
O O15 0.865285 0.631970 0.000000
#
# Coordination Sequence:
#
# PCOD9564650 Si02
#       6
#    16  16  16  16  16  16
#     4  10  20  35  58  83 111 152 195 241 287 344
#     4  10  19  39  58  84 115 152 202 243 288 355
#     4  11  24  39  57  85 121 158 195 247 303 351
#     4  10  22  38  54  84 125 156 188 239 298 353
#     4  10  19  35  55  81 113 148 197 238 284 347
#     4   9  19  36  59  85 115 153 194 234 290 351
#
# _framework density 18.535302000000001
#
# number of rings (size 3 to 8) (size 9 to 14) (size 15 to 20)
#    0.000    2.000    5.000    0.500    2.333    3.000 
#    3.000    0.833    0.000    1.000    0.000    1.167 
#    0.000    0.000    0.000    0.000    0.000    0.000 
#
# Total GULP energy -535075.269821 kJ/mol
# GULP energy per Si atom -5573.700727 kJ/mol
# Density = 1.849311 g / cm^3
# Si number density = 18.535302 Si / 1000 Ang^3
#
#
#
# Elastic Constant Matrix: (Units=GPa)
#
#
# Indices 1 2 3 4 5 6 
#
# 1 37.0088 24.4893 28.8348 0.0000 0.0000 0.0000
# 2 24.4893 37.0089 28.8349 0.0000 0.0000 0.0000
# 3 28.8348 28.8349 63.2930 0.0000 0.0000 0.0000
# 4 0.0000 0.0000 0.0000 22.3368 0.0000 0.0000
# 5 0.0000 0.0000 0.0000 0.0000 22.3367 0.0000
# 6 0.0000 0.0000 0.0000 0.0000 0.0000 33.3215
#
#
#
# Elastic Compliance Matrix: (Units=1/GPa)
#
#
# Indices 1 2 3 4 5 6 
#
# 1 0.054132 -0.025743 -0.012933 0.000000 0.000000 0.000000
# 2 -0.025743 0.054132 -0.012933 0.000000 0.000000 0.000000
# 3 -0.012933 -0.012933 0.027584 0.000000 0.000000 0.000000
# 4 0.000000 0.000000 0.000000 0.044769 0.000000 0.000000
# 5 0.000000 0.000000 0.000000 0.000000 0.044769 0.000000
# 6 0.000000 0.000000 0.000000 0.000000 0.000000 0.030011
#
#
# Mechanical properties :
#
#
# Convention : Reuss Voigt Hill
#
# Bulk Modulus (GPa) = 30.64834 33.51431 32.08133
# Shear Modulus (GPa) = 13.53205 19.27575 16.40390
#
# Velocity S-wave (km/s) = 2.70491 3.22832 2.97814
# Velocity P-wave (km/s) = 5.13093 5.65833 5.40107
#
# Compressibility (1/GPa) = 0.03262819
#
# Stress axis : x y z
#
# Youngs Moduli (GPa) = 18.47328 18.47336 36.25326
#
# Poissons Ratio (x) = 0.47557 0.46887
# Poissons Ratio (y) = 0.47556 0.46887
# Poissons Ratio (z) = 0.23892 0.23892
#
# Static dielectric constant tensor:
#      x y z
#    x 1.656670 0.000000 0.000000 
#    y 0.000000 1.656670 0.000000 
#    z 0.000000 0.000000 1.670790 
# 
# From -- ./inp_files/4793.got.cif
#   From: 2010.05.17/outbox.cif.g08.bks.cpg/sg128_3_cif.got.tgz:4793.got - 2010.05.20 12:07:25.
