data_PCOD9564012
_publ_section_title
;
Structure prediction by ZEFSAII (Michael W. Deem and Ramdas Pophale) SiO2 
 PCOD9564012
Probable space group: P 4/M B M
;
_chemical_formula_sum "Si O2"
_cell_formula_units_Z 96
_cell_length_a 20.328896
_cell_length_b 20.328896
_cell_length_c 13.242515
_cell_angle_alpha 90.000000
_cell_angle_beta 90.000000
_cell_angle_gamma 90.000000
_cell_volume 5472.654886
_symmetry_space_group_name_H-M "P 4/M B M"
_symmetry_group_IT_number 127
_symmetry_cell_setting 'tetragonal'
loop_
_space_group_symop_operation_xyz
x,y,z
-y,x,z
-x,-y,z
y,-x,z
1/2+x,1/2-y,-z
1/2-x,1/2+y,-z
1/2+y,1/2+x,-z
1/2-y,1/2-x,-z
-x,-y,-z
y,-x,-z
x,y,-z
-y,x,-z
1/2-x,1/2+y,z
1/2+x,1/2-y,z
1/2-y,1/2-x,z
1/2+y,1/2+x,z
loop_
_atom_site_type_symbol
_atom_site_label
_atom_site_fract_x
_atom_site_fract_y
_atom_site_fract_z
Si Si1 0.564727 0.823634 0.116189
Si Si2 0.886147 0.795582 0.289063
Si Si3 0.475681 0.607085 0.381863
Si Si4 0.826720 0.215326 0.881677
Si Si5 0.340846 0.952095 0.500000
Si Si6 0.452736 0.843319 0.279441
Si Si7 0.269866 0.340012 0.500000
O O1 0.615990 0.884011 0.123147
O O2 0.607815 0.758415 0.137007
O O3 0.505889 0.834398 0.192984
O O4 0.541523 0.820147 0.000000
O O5 0.953803 0.834553 0.309310
O O6 0.845021 0.820246 0.194210
O O7 0.902899 0.718712 0.277268
O O8 0.845249 0.806731 0.393369
O O9 0.424078 0.547328 0.366406
O O10 0.471904 0.627303 0.500000
O O11 0.765108 0.265108 0.866023
O O12 0.826313 0.196222 0.000000
O O13 0.402923 0.902923 0.500000
O O14 0.342265 0.986061 0.608783
O O15 0.277570 0.904197 0.500000
O O16 0.409084 0.909084 0.268684
O O17 0.223307 0.276694 0.500000
#
# Coordination Sequence:
#
# PCOD9564012 Si02
#       7
#    16  16  16  16   8  16   8
#     4   9  20  39  58  76 104 142 181 223 270 319
#     4  11  19  31  56  82 105 140 175 221 268 316
#     4   9  19  35  52  77 113 146 177 213 259 318
#     4   9  19  36  54  73 103 141 176 217 273 325
#     4   7  14  30  46  67 107 142 159 199 263 318
#     4  10  20  33  53  82 110 138 177 223 266 317
#     4   9  16  28  45  77 112 135 164 205 266 315
#
# _framework density 17.54176
#
# number of rings (size 3 to 8) (size 9 to 14) (size 15 to 20)
#    0.000    2.667    0.833    4.000    2.333    1.333 
#    0.000    2.083    0.000    3.500    0.000    1.167 
#    0.000    0.000    0.000    0.000    0.000    0.000 
#
# Total GULP energy -534958.559130 kJ/mol
# GULP energy per Si atom -5572.484991 kJ/mol
# Density = 1.750183 g / cm^3
# Si number density = 17.541760 Si / 1000 Ang^3
#
#
#
# Elastic Constant Matrix: (Units=GPa)
#
#
# Indices 1 2 3 4 5 6 
#
# 1 25.3420 -8.5543 20.1045 0.0000 0.0000 0.0000
# 2 -8.5543 25.3462 20.1070 0.0000 0.0000 0.0000
# 3 20.1045 20.1070 97.1145 0.0000 0.0000 0.0000
# 4 0.0000 0.0000 0.0000 30.5144 0.0000 0.0000
# 5 0.0000 0.0000 0.0000 0.0000 30.5148 0.0000
# 6 0.0000 0.0000 0.0000 0.0000 0.0000 13.9137
#
#
#
# Elastic Compliance Matrix: (Units=1/GPa)
#
#
# Indices 1 2 3 4 5 6 
#
# 1 0.073824 0.044318 -0.024459 0.000000 0.000000 0.000000
# 2 0.044318 0.073813 -0.024457 0.000000 0.000000 0.000000
# 3 -0.024459 -0.024457 0.020424 0.000000 0.000000 0.000000
# 4 0.000000 0.000000 0.000000 0.032771 0.000000 0.000000
# 5 0.000000 0.000000 0.000000 0.000000 0.032771 0.000000
# 6 0.000000 0.000000 0.000000 0.000000 0.000000 0.071871
#
#
# Mechanical properties :
#
#
# Convention : Reuss Voigt Hill
#
# Bulk Modulus (GPa) = 6.29462 23.45746 14.87604
# Shear Modulus (GPa) = 13.60080 22.73162 18.16621
#
# Velocity S-wave (km/s) = 2.78751 3.60371 3.22156
# Velocity P-wave (km/s) = 3.73583 5.54229 4.72617
#
# Compressibility (1/GPa) = 0.15886583
#
# Stress axis : x y z
#
# Youngs Moduli (GPa) = 13.54577 13.54776 48.96134
#
# Poissons Ratio (x) = -0.60042 1.19753
# Poissons Ratio (y) = -0.60033 1.19746
# Poissons Ratio (z) = 0.33131 0.33134
#
# Static dielectric constant tensor:
#      x y z
#    x 1.597870 0.000000 0.000000 
#    y 0.000000 1.597880 0.000000 
#    z 0.000000 0.000000 1.611010 
# 
# From -- ./inp_files/3571.got.cif
#   From: 2010.05.17/outbox.cif.g08.bks.cpg/sg127_2_cif.got.tgz:3571.got - 2010.05.20 12:03:00.
