data_PCOD9564960
_publ_section_title
;
Structure prediction by ZEFSAII (Michael W. Deem and Ramdas Pophale) SiO2 
 PCOD9564960
Probable space group: P 4/M N C
;
_chemical_formula_sum "Si O2"
_cell_formula_units_Z 56
_cell_length_a 16.846798
_cell_length_b 16.846798
_cell_length_c 9.632461
_cell_angle_alpha 90.000000
_cell_angle_beta 90.000000
_cell_angle_gamma 90.000000
_cell_volume 2733.833093
_symmetry_space_group_name_H-M "P 4/M N C"
_symmetry_group_IT_number 128
_symmetry_cell_setting 'tetragonal'
loop_
_space_group_symop_operation_xyz
x,y,z
-y,x,z
-x,-y,z
y,-x,z
1/2+x,1/2-y,1/2-z
1/2-x,1/2+y,1/2-z
1/2+y,1/2+x,1/2-z
1/2-y,1/2-x,1/2-z
-x,-y,-z
y,-x,-z
x,y,-z
-y,x,-z
1/2-x,1/2+y,1/2+z
1/2+x,1/2-y,1/2+z
1/2-y,1/2-x,1/2+z
1/2+y,1/2+x,1/2+z
loop_
_atom_site_type_symbol
_atom_site_label
_atom_site_fract_x
_atom_site_fract_y
_atom_site_fract_z
Si Si1 0.225923 0.725923 0.750000
Si Si2 0.376748 0.452687 0.000000
Si Si3 0.812941 0.508452 0.500000
Si Si4 0.331657 0.125474 0.500000
Si Si5 0.258743 0.404445 0.757860
Si Si6 0.435786 0.859240 0.000000
O O1 0.159100 0.713823 0.633711
O O2 0.317223 0.720182 0.700154
O O3 0.455777 0.400708 0.000000
O O4 0.327286 0.433921 0.861397
O O5 0.830890 0.416230 0.500000
O O6 0.764759 0.536922 0.634751
O O7 0.898385 0.553551 0.500000
O O8 0.346707 0.030910 0.500000
O O9 0.184664 0.401498 0.864746
#
# Coordination Sequence:
#
# PCOD9564960 Si02
#       6
#     8   8   8   8  16   8
#     4  12  24  44  61 101 124 176 216 268 314 390
#     4  10  25  46  69  93 121 171 229 275 315 379
#     4  12  23  44  62 103 136 174 201 273 340 383
#     4  12  27  37  72  97 134 159 232 268 316 380
#     4  11  24  41  69  89 134 175 215 259 327 395
#     4  11  22  45  63  97 130 186 211 256 329 404
#
# _framework density 20.484061000000001
#
# number of rings (size 3 to 8) (size 9 to 14) (size 15 to 20)
#    0.000    0.714    2.857    4.714   12.000    0.000 
#    0.000    4.286    0.000    1.714    0.000    0.000 
#    0.000    0.000    0.000    0.000    0.000    0.000 
#
# Total GULP energy -313155.578620 kJ/mol
# GULP energy per Si atom -5592.063904 kJ/mol
# Density = 2.043744 g / cm^3
# Si number density = 20.484061 Si / 1000 Ang^3
#
#
#
# Elastic Constant Matrix: (Units=GPa)
#
#
# Indices 1 2 3 4 5 6 
#
# 1 158.7246 -15.5806 19.8282 0.0000 0.0000 0.0000
# 2 -15.5806 158.7246 19.8282 0.0000 0.0000 0.0000
# 3 19.8282 19.8282 90.5300 0.0000 0.0000 0.0000
# 4 0.0000 0.0000 0.0000 31.4105 0.0000 0.0000
# 5 0.0000 0.0000 0.0000 0.0000 31.4105 0.0000
# 6 0.0000 0.0000 0.0000 0.0000 0.0000 47.9020
#
#
#
# Elastic Compliance Matrix: (Units=1/GPa)
#
#
# Indices 1 2 3 4 5 6 
#
# 1 0.006587 0.000850 -0.001629 0.000000 0.000000 0.000000
# 2 0.000850 0.006587 -0.001629 0.000000 0.000000 0.000000
# 3 -0.001629 -0.001629 0.011760 0.000000 0.000000 0.000000
# 4 0.000000 0.000000 0.000000 0.031836 0.000000 0.000000
# 5 0.000000 0.000000 0.000000 0.000000 0.031836 0.000000
# 6 0.000000 0.000000 0.000000 0.000000 0.000000 0.020876
#
#
# Mechanical properties :
#
#
# Convention : Reuss Voigt Hill
#
# Bulk Modulus (GPa) = 49.70579 50.68120 50.19349
# Shear Modulus (GPa) = 41.32077 47.73817 44.52947
#
# Velocity S-wave (km/s) = 4.49621 4.83277 4.66752
# Velocity P-wave (km/s) = 7.16051 7.47906 7.32152
#
# Compressibility (1/GPa) = 0.02011838
#
# Stress axis : x y z
#
# Youngs Moduli (GPa) = 151.81064 151.81064 85.03682
#
# Poissons Ratio (x) = -0.12905 0.13852
# Poissons Ratio (y) = -0.12905 0.13852
# Poissons Ratio (z) = 0.24729 0.24729
#
# Static dielectric constant tensor:
#      x y z
#    x 1.724030 0.000000 0.000000 
#    y 0.000000 1.724030 0.000000 
#    z 0.000000 0.000000 1.692980 
# 
# From -- ./inp_files/858.got.cif
#   From: 2010.05.17/outbox.cif.g08.bks.cpg/sg128_1_cif.got.tgz:858.got - 2010.05.20 12:07:25.
