data_PCOD9564323
_publ_section_title
;
Structure prediction by ZEFSAII (Michael W. Deem and Ramdas Pophale) SiO2 
 PCOD9564323
Probable space group: P 4/M B M
;
_chemical_formula_sum "Si O2"
_cell_formula_units_Z 54
_cell_length_a 14.767656
_cell_length_b 14.767656
_cell_length_c 10.947245
_cell_angle_alpha 90.000000
_cell_angle_beta 90.000000
_cell_angle_gamma 90.000000
_cell_volume 2387.415297
_symmetry_space_group_name_H-M "P 4/M B M"
_symmetry_group_IT_number 127
_symmetry_cell_setting 'tetragonal'
loop_
_space_group_symop_operation_xyz
x,y,z
-y,x,z
-x,-y,z
y,-x,z
1/2+x,1/2-y,-z
1/2-x,1/2+y,-z
1/2+y,1/2+x,-z
1/2-y,1/2-x,-z
-x,-y,-z
y,-x,-z
x,y,-z
-y,x,-z
1/2-x,1/2+y,z
1/2+x,1/2-y,z
1/2-y,1/2-x,z
1/2+y,1/2+x,z
loop_
_atom_site_type_symbol
_atom_site_label
_atom_site_fract_x
_atom_site_fract_y
_atom_site_fract_z
Si Si1 0.500000 0.500000 0.500000
Si Si2 0.743558 0.756443 0.766675
Si Si3 0.768644 0.268644 0.500000
Si Si4 0.018942 0.148311 0.000000
Si Si5 0.694627 0.467053 0.500000
Si Si6 0.475253 0.242894 0.235418
Si Si7 0.388993 0.888993 0.144934
O O1 0.589697 0.436314 0.500000
O O2 0.768112 0.731889 0.626654
O O3 0.633820 0.745969 0.779655
O O4 0.809889 0.690112 0.841804
O O5 0.752935 0.375203 0.500000
O O6 0.096766 0.075660 0.000000
O O7 0.020308 0.202322 0.875159
O O8 0.719293 0.506333 0.367091
O O9 0.519611 0.145671 0.210559
O O10 0.403295 0.903295 0.000000
#
# Coordination Sequence:
#
# PCOD9564323 Si02
#       7
#     2   8   4   8   8  16   8
#     4  12  28  36  68 118 148 164 244 314 360 396
#     4  10  24  43  72  93 138 183 226 291 352 414
#     4   8  20  48  64  91 134 187 226 264 364 440
#     4  11  24  38  62  93 136 176 216 277 358 417
#     4  10  26  43  69 102 141 181 231 298 359 422
#     4  11  25  45  67  99 134 183 232 284 348 421
#     4  12  26  43  67 100 137 183 241 277 347 433
#
# _framework density 22.618601999999999
#
# number of rings (size 3 to 8) (size 9 to 14) (size 15 to 20)
#    0.000    1.333    1.481    1.778   14.519    1.185 
#    0.000    0.741    0.000    5.333    0.000    0.000 
#    0.000    0.000    0.000    0.000    0.000    0.000 
#
# Total GULP energy -300872.315129 kJ/mol
# GULP energy per Si atom -5571.709539 kJ/mol
# Density = 2.256712 g / cm^3
# Si number density = 22.618602 Si / 1000 Ang^3
#
#
#
# Elastic Constant Matrix: (Units=GPa)
#
#
# Indices 1 2 3 4 5 6 
#
# 1 78.5133 24.0221 19.5143 0.0000 0.0000 0.0000
# 2 24.0221 78.5133 19.5143 0.0000 0.0000 0.0000
# 3 19.5143 19.5143 182.1333 0.0000 0.0000 0.0000
# 4 0.0000 0.0000 0.0000 62.1431 0.0000 0.0000
# 5 0.0000 0.0000 0.0000 0.0000 62.1431 0.0000
# 6 0.0000 0.0000 0.0000 0.0000 0.0000 59.4064
#
#
#
# Elastic Compliance Matrix: (Units=1/GPa)
#
#
# Indices 1 2 3 4 5 6 
#
# 1 0.014259 -0.004092 -0.001089 0.000000 0.000000 0.000000
# 2 -0.004092 0.014259 -0.001089 0.000000 0.000000 0.000000
# 3 -0.001089 -0.001089 0.005724 0.000000 0.000000 0.000000
# 4 0.000000 0.000000 0.000000 0.016092 0.000000 0.000000
# 5 0.000000 0.000000 0.000000 0.000000 0.016092 0.000000
# 6 0.000000 0.000000 0.000000 0.000000 0.000000 0.016833
#
#
# Mechanical properties :
#
#
# Convention : Reuss Voigt Hill
#
# Bulk Modulus (GPa) = 46.08034 51.69569 48.88802
# Shear Modulus (GPa) = 48.52705 55.14577 51.83641
#
# Velocity S-wave (km/s) = 4.63692 4.94304 4.79243
# Velocity P-wave (km/s) = 7.00607 7.44870 7.23078
#
# Compressibility (1/GPa) = 0.02170123
#
# Stress axis : x y z
#
# Youngs Moduli (GPa) = 70.12875 70.12875 174.70547
#
# Poissons Ratio (x) = 0.28697 0.19032
# Poissons Ratio (y) = 0.28697 0.19032
# Poissons Ratio (z) = 0.07640 0.07640
#
# Static dielectric constant tensor:
#      x y z
#    x 1.884700 0.000000 0.000000 
#    y 0.000000 1.884700 0.000000 
#    z 0.000000 0.000000 1.895280 
# 
# From -- ./inp_files/2940.got.cif
#   From: 2010.05.17/outbox.cif.g08.bks.cpg/sg127_2_cif.got.tgz:2940.got - 2010.05.20 12:03:00.
