data_PCOD9564539
_publ_section_title
;
Structure prediction by ZEFSAII (Michael W. Deem and Ramdas Pophale) SiO2 
 PCOD9564539
Probable space group: P 4/M N C
;
_chemical_formula_sum "Si O2"
_cell_formula_units_Z 104
_cell_length_a 15.258183
_cell_length_b 15.258183
_cell_length_c 22.294390
_cell_angle_alpha 90.000000
_cell_angle_beta 90.000000
_cell_angle_gamma 90.000000
_cell_volume 5190.404835
_symmetry_space_group_name_H-M "P 4/M N C"
_symmetry_group_IT_number 128
_symmetry_cell_setting 'tetragonal'
loop_
_space_group_symop_operation_xyz
x,y,z
-y,x,z
-x,-y,z
y,-x,z
1/2+x,1/2-y,1/2-z
1/2-x,1/2+y,1/2-z
1/2+y,1/2+x,1/2-z
1/2-y,1/2-x,1/2-z
-x,-y,-z
y,-x,-z
x,y,-z
-y,x,-z
1/2-x,1/2+y,1/2+z
1/2+x,1/2-y,1/2+z
1/2-y,1/2-x,1/2+z
1/2+y,1/2+x,1/2+z
loop_
_atom_site_type_symbol
_atom_site_label
_atom_site_fract_x
_atom_site_fract_y
_atom_site_fract_z
Si Si1 0.140430 0.640430 0.750000
Si Si2 0.080118 0.881249 0.926987
Si Si3 0.101592 0.522975 0.633962
Si Si4 0.303566 0.669470 0.167799
Si Si5 0.699514 0.830665 0.930147
Si Si6 0.873890 0.690275 0.808015
Si Si7 0.125519 0.932811 0.755736
O O1 0.124278 0.572833 0.696412
O O2 0.235873 0.634324 0.781151
O O3 0.118399 0.976808 0.909346
O O4 0.135412 0.795885 0.907227
O O5 0.080652 0.878957 0.000000
O O6 0.136232 0.587097 0.582693
O O7 0.155575 0.433693 0.639030
O O8 0.000000 0.500000 0.629761
O O9 0.251765 0.659258 0.105768
O O10 0.307826 0.773455 0.174490
O O11 0.400015 0.636134 0.186092
O O12 0.707181 0.811325 0.000000
O O13 0.874963 0.625038 0.750000
O O14 0.901274 0.786474 0.787077
O O15 0.033902 0.887512 0.771179
#
# Coordination Sequence:
#
# PCOD9564539 Si02
#       7
#     8  16  16  16  16  16  16
#     4  10  17  36  54  80 113 148 190 240 304 366
#     4   8  15  31  54  76 103 147 197 245 298 357
#     4  11  23  36  60  85 114 159 203 250 312 379
#     4  10  20  36  57  81 119 161 195 246 307 368
#     4  10  23  38  56  82 120 163 212 262 309 363
#     4  10  20  35  56  88 121 153 196 243 301 379
#     4  10  20  35  60  92 124 152 187 249 314 371
#
# _framework density 20.036973
#
# number of rings (size 3 to 8) (size 9 to 14) (size 15 to 20)
#    0.000    2.154    2.308    2.538    4.308    4.000 
#    0.000    0.000    0.000    2.769    0.000    1.077 
#    0.000    0.000    0.000    0.000    0.000    0.000 
#
# Total GULP energy -580195.470426 kJ/mol
# GULP energy per Si atom -5578.802600 kJ/mol
# Density = 1.999137 g / cm^3
# Si number density = 20.036973 Si / 1000 Ang^3
#
#
#
# Elastic Constant Matrix: (Units=GPa)
#
#
# Indices 1 2 3 4 5 6 
#
# 1 117.4595 -29.3024 9.8696 0.0000 0.0000 0.0000
# 2 -29.3024 117.4628 9.8697 0.0000 0.0000 0.0000
# 3 9.8696 9.8697 52.3281 0.0000 0.0000 0.0000
# 4 0.0000 0.0000 0.0000 12.9609 0.0000 0.0000
# 5 0.0000 0.0000 0.0000 0.0000 12.9608 0.0000
# 6 0.0000 0.0000 0.0000 0.0000 0.0000 28.4870
#
#
#
# Elastic Compliance Matrix: (Units=1/GPa)
#
#
# Indices 1 2 3 4 5 6 
#
# 1 0.009329 0.002515 -0.002234 0.000000 0.000000 0.000000
# 2 0.002515 0.009328 -0.002234 0.000000 0.000000 0.000000
# 3 -0.002234 -0.002234 0.019953 0.000000 0.000000 0.000000
# 4 0.000000 0.000000 0.000000 0.077155 0.000000 0.000000
# 5 0.000000 0.000000 0.000000 0.000000 0.077156 0.000000
# 6 0.000000 0.000000 0.000000 0.000000 0.000000 0.035104
#
#
# Mechanical properties :
#
#
# Convention : Reuss Voigt Hill
#
# Bulk Modulus (GPa) = 28.81483 29.79158 29.30320
# Shear Modulus (GPa) = 20.53406 30.66931 25.60169
#
# Velocity S-wave (km/s) = 3.20474 3.91658 3.57840
# Velocity P-wave (km/s) = 5.30149 5.94587 5.63290
#
# Compressibility (1/GPa) = 0.03470435
#
# Stress axis : x y z
#
# Youngs Moduli (GPa) = 107.19683 107.19981 50.11827
#
# Poissons Ratio (x) = -0.26959 0.11195
# Poissons Ratio (y) = -0.26958 0.11195
# Poissons Ratio (z) = 0.23946 0.23946
#
# Static dielectric constant tensor:
#      x y z
#    x 1.728520 0.000000 0.000000 
#    y 0.000000 1.728520 0.000000 
#    z 0.000000 0.000000 1.776830 
# 
# From -- ./inp_files/6459.got.cif
#   From: 2010.05.17/outbox.cif.g08.bks.cpg/sg128_4_cif.got.tgz:6459.got - 2010.05.20 12:07:25.
