data_PCOD9564570
_publ_section_title
;
Structure prediction by ZEFSAII (Michael W. Deem and Ramdas Pophale) SiO2 
 PCOD9564570
Probable space group: P 4/M N C
;
_chemical_formula_sum "Si O2"
_cell_formula_units_Z 96
_cell_length_a 15.270629
_cell_length_b 15.270629
_cell_length_c 19.918212
_cell_angle_alpha 90.000000
_cell_angle_beta 90.000000
_cell_angle_gamma 90.000000
_cell_volume 4644.769885
_symmetry_space_group_name_H-M "P 4/M N C"
_symmetry_group_IT_number 128
_symmetry_cell_setting 'tetragonal'
loop_
_space_group_symop_operation_xyz
x,y,z
-y,x,z
-x,-y,z
y,-x,z
1/2+x,1/2-y,1/2-z
1/2-x,1/2+y,1/2-z
1/2+y,1/2+x,1/2-z
1/2-y,1/2-x,1/2-z
-x,-y,-z
y,-x,-z
x,y,-z
-y,x,-z
1/2-x,1/2+y,1/2+z
1/2+x,1/2-y,1/2+z
1/2-y,1/2-x,1/2+z
1/2+y,1/2+x,1/2+z
loop_
_atom_site_type_symbol
_atom_site_label
_atom_site_fract_x
_atom_site_fract_y
_atom_site_fract_z
Si Si1 0.427678 0.150957 0.812083
Si Si2 0.615905 0.157996 0.137752
Si Si3 0.747948 0.054414 0.500000
Si Si4 0.918857 0.123900 0.080778
Si Si5 0.717413 0.763927 0.637630
Si Si6 0.519133 0.896866 0.425575
Si Si7 0.216088 0.150398 0.500000
O O1 0.413009 0.086992 0.750000
O O2 0.529689 0.171377 0.817101
O O3 0.348722 0.219603 0.812647
O O4 0.397713 0.104784 0.881312
O O5 0.584602 0.195194 0.065422
O O6 0.702672 0.203826 0.161682
O O7 0.638613 0.057946 0.120588
O O8 0.836455 0.111067 0.500000
O O9 0.759477 0.951047 0.500000
O O10 0.866758 0.199685 0.122539
O O11 0.024520 0.118433 0.093616
O O12 0.907497 0.139474 0.000000
O O13 0.747070 0.800645 0.564928
O O14 0.525152 0.857785 0.500000
O O15 0.500000 0.000000 0.433067
#
# Coordination Sequence:
#
# PCOD9564570 Si02
#       7
#    16  16   8  16  16  16   8
#     4  11  25  43  60  88 125 167 213 254 312 382
#     4  10  21  38  62  89 128 158 204 261 321 373
#     4  10  18  35  56  91 128 161 204 263 318 373
#     4   9  19  35  56  88 127 160 202 261 316 373
#     4  11  22  37  60  91 122 167 203 261 316 368
#     4   9  19  34  60  90 118 155 197 251 314 370
#     4  10  20  33  59  89 123 164 205 262 318 367
#
# _framework density 20.668406999999998
#
# number of rings (size 3 to 8) (size 9 to 14) (size 15 to 20)
#    0.000    2.000    3.333    0.500    4.667    3.167 
#    3.000    0.000    0.000    0.500    0.000    0.000 
#    0.000    0.000    0.000    0.000    0.000    0.000 
#
# Total GULP energy -535028.440366 kJ/mol
# GULP energy per Si atom -5573.212920 kJ/mol
# Density = 2.062136 g / cm^3
# Si number density = 20.668407 Si / 1000 Ang^3
#
#
#
# Elastic Constant Matrix: (Units=GPa)
#
#
# Indices 1 2 3 4 5 6 
#
# 1 71.7326 9.9544 -8.2189 0.0000 0.0000 0.0000
# 2 9.9544 71.7333 -8.2185 0.0000 0.0000 0.0000
# 3 -8.2189 -8.2185 33.8886 0.0000 0.0000 0.0000
# 4 0.0000 0.0000 0.0000 -10.2020 0.0000 0.0000
# 5 0.0000 0.0000 0.0000 0.0000 -10.2043 0.0000
# 6 0.0000 0.0000 0.0000 0.0000 0.0000 36.4897
#
#
#
# Elastic Compliance Matrix: (Units=1/GPa)
#
#
# Indices 1 2 3 4 5 6 
#
# 1 0.014528 -0.001658 0.003121 0.000000 0.000000 0.000000
# 2 -0.001658 0.014528 0.003121 0.000000 0.000000 0.000000
# 3 0.003121 0.003121 0.031022 0.000000 0.000000 0.000000
# 4 0.000000 0.000000 0.000000 -0.098020 0.000000 0.000000
# 5 0.000000 0.000000 0.000000 0.000000 -0.097998 0.000000
# 6 0.000000 0.000000 0.000000 0.000000 0.000000 0.027405
#
#
# Mechanical properties :
#
#
# Convention : Reuss Voigt Hill
#
# Bulk Modulus (GPa) = 14.44107 18.26539 16.35323
# Shear Modulus (GPa) = -52.84351 15.47250 -18.68550
#
# Velocity S-wave (km/s) = -5.06190 2.73904 -3.01002
# Velocity P-wave (km/s) = 5.21167 4.34277 2.03739
#
# Compressibility (1/GPa) = 0.06924694
#
# Stress axis : x y z
#
# Youngs Moduli (GPa) = 68.83050 68.83138 32.23478
#
# Poissons Ratio (x) = 0.11416 -0.10062
# Poissons Ratio (y) = 0.11415 -0.10061
# Poissons Ratio (z) = -0.21484 -0.21483
#
# Static dielectric constant tensor:
#      x y z
#    x 1.976580 0.000000 0.000000 
#    y 0.000000 1.976590 0.000000 
#    z 0.000000 0.000000 1.774020 
# 
# From -- ./inp_files/5791.got.cif
#   From: 2010.05.17/outbox.cif.g08.bks.cpg/sg128_3_cif.got.tgz:5791.got - 2010.05.20 12:07:25.
