data_PCOD9564928
_publ_section_title
;
Structure prediction by ZEFSAII (Michael W. Deem and Ramdas Pophale) SiO2 
 PCOD9564928
Probable space group: P 4/M N C
;
_chemical_formula_sum "Si O2"
_cell_formula_units_Z 88
_cell_length_a 12.995818
_cell_length_b 12.995818
_cell_length_c 29.627822
_cell_angle_alpha 90.000000
_cell_angle_beta 90.000000
_cell_angle_gamma 90.000000
_cell_volume 5003.880944
_symmetry_space_group_name_H-M "P 4/M N C"
_symmetry_group_IT_number 128
_symmetry_cell_setting 'tetragonal'
loop_
_space_group_symop_operation_xyz
x,y,z
-y,x,z
-x,-y,z
y,-x,z
1/2+x,1/2-y,1/2-z
1/2-x,1/2+y,1/2-z
1/2+y,1/2+x,1/2-z
1/2-y,1/2-x,1/2-z
-x,-y,-z
y,-x,-z
x,y,-z
-y,x,-z
1/2-x,1/2+y,1/2+z
1/2+x,1/2-y,1/2+z
1/2-y,1/2-x,1/2+z
1/2+y,1/2+x,1/2+z
loop_
_atom_site_type_symbol
_atom_site_label
_atom_site_fract_x
_atom_site_fract_y
_atom_site_fract_z
Si Si1 0.810356 0.554157 0.947991
Si Si2 0.826029 0.354972 0.357846
Si Si3 0.500000 0.000000 0.615153
Si Si4 0.651563 0.420925 0.710343
Si Si5 0.653283 0.423681 0.183234
Si Si6 0.179447 0.742594 0.447922
O O1 0.736087 0.649904 0.938269
O O2 0.751697 0.444779 0.944762
O O3 0.909108 0.546838 0.915823
O O4 0.845226 0.564277 0.000000
O O5 0.736256 0.377402 0.322935
O O6 0.879528 0.247474 0.344633
O O7 0.789703 0.339585 0.409663
O O8 0.910295 0.445343 0.356753
O O9 0.633776 0.542160 0.702557
O O10 0.676616 0.409717 0.763435
O O11 0.633159 0.544667 0.174481
O O12 0.202880 0.713293 0.500000
#
# Coordination Sequence:
#
# PCOD9564928 Si02
#       6
#    16  16   8  16  16  16
#     4   9  18  36  54  74 109 147 185 229 280 329
#     4  11  22  34  60  82 116 141 193 226 280 326
#     4  10  23  34  47  84 110 144 182 226 274 330
#     4   9  20  39  59  80 109 148 189 231 282 331
#     4   9  20  38  58  83 113 146 182 225 287 347
#     4   9  20  34  53  81 113 148 187 228 277 335
#
# _framework density 17.586349999999999
#
# number of rings (size 3 to 8) (size 9 to 14) (size 15 to 20)
#    0.000    2.545    0.000    1.909    7.636    1.091 
#    0.000    5.455    0.000    0.000    0.000    1.273 
#    0.000    0.000    0.000    0.000    0.000    0.000 
#
# Total GULP energy -490800.227546 kJ/mol
# GULP energy per Si atom -5577.275313 kJ/mol
# Density = 1.754632 g / cm^3
# Si number density = 17.586350 Si / 1000 Ang^3
#
#
#
# Elastic Constant Matrix: (Units=GPa)
#
#
# Indices 1 2 3 4 5 6 
#
# 1 57.2489 42.2779 46.4698 0.0000 0.0000 0.0000
# 2 42.2779 57.2489 46.4698 0.0000 0.0000 0.0000
# 3 46.4698 46.4698 77.6350 0.0000 0.0000 0.0000
# 4 0.0000 0.0000 0.0000 31.1080 0.0000 0.0000
# 5 0.0000 0.0000 0.0000 0.0000 31.1080 0.0000
# 6 0.0000 0.0000 0.0000 0.0000 0.0000 18.3842
#
#
#
# Elastic Compliance Matrix: (Units=1/GPa)
#
#
# Indices 1 2 3 4 5 6 
#
# 1 0.044788 -0.022007 -0.013636 0.000000 0.000000 0.000000
# 2 -0.022007 0.044788 -0.013636 0.000000 0.000000 0.000000
# 3 -0.013636 -0.013636 0.029205 0.000000 0.000000 0.000000
# 4 0.000000 0.000000 0.000000 0.032146 0.000000 0.000000
# 5 0.000000 0.000000 0.000000 0.000000 0.032146 0.000000
# 6 0.000000 0.000000 0.000000 0.000000 0.000000 0.054395
#
#
# Mechanical properties :
#
#
# Convention : Reuss Voigt Hill
#
# Bulk Modulus (GPa) = 49.44858 51.39642 50.42250
# Shear Modulus (GPa) = 14.58711 19.91440 17.25076
#
# Velocity S-wave (km/s) = 2.88315 3.36873 3.13536
# Velocity P-wave (km/s) = 6.26594 6.66482 6.46846
#
# Compressibility (1/GPa) = 0.02022303
#
# Stress axis : x y z
#
# Youngs Moduli (GPa) = 22.32717 22.32717 34.24085
#
# Poissons Ratio (x) = 0.49136 0.46691
# Poissons Ratio (y) = 0.49136 0.46691
# Poissons Ratio (z) = 0.30445 0.30445
#
# Static dielectric constant tensor:
#      x y z
#    x 1.575530 0.000000 0.000000 
#    y 0.000000 1.575530 0.000000 
#    z 0.000000 0.000000 1.638020 
# 
# From -- ./inp_files/7266.got.cif
#   From: 2010.05.17/outbox.cif.g08.bks.cpg/sg128_4_cif.got.tgz:7266.got - 2010.05.20 12:07:25.
