data_PCOD9564644
_publ_section_title
;
Structure prediction by ZEFSAII (Michael W. Deem and Ramdas Pophale) SiO2 
 PCOD9564644
Probable space group: P 4/M N C
;
_chemical_formula_sum "Si O2"
_cell_formula_units_Z 84
_cell_length_a 14.755383
_cell_length_b 14.755383
_cell_length_c 19.177437
_cell_angle_alpha 90.000000
_cell_angle_beta 90.000000
_cell_angle_gamma 90.000000
_cell_volume 4175.337041
_symmetry_space_group_name_H-M "P 4/M N C"
_symmetry_group_IT_number 128
_symmetry_cell_setting 'tetragonal'
loop_
_space_group_symop_operation_xyz
x,y,z
-y,x,z
-x,-y,z
y,-x,z
1/2+x,1/2-y,1/2-z
1/2-x,1/2+y,1/2-z
1/2+y,1/2+x,1/2-z
1/2-y,1/2-x,1/2-z
-x,-y,-z
y,-x,-z
x,y,-z
-y,x,-z
1/2-x,1/2+y,1/2+z
1/2+x,1/2-y,1/2+z
1/2-y,1/2-x,1/2+z
1/2+y,1/2+x,1/2+z
loop_
_atom_site_type_symbol
_atom_site_label
_atom_site_fract_x
_atom_site_fract_y
_atom_site_fract_z
Si Si1 0.410432 0.665093 0.849503
Si Si2 0.367528 0.624588 0.000000
Si Si3 0.102090 0.103098 0.191913
Si Si4 0.529242 0.839723 0.857169
Si Si5 0.725572 0.787556 0.832639
Si Si6 0.297727 0.976886 0.500000
Si Si7 0.500000 0.000000 0.750000
O O1 0.410817 0.609118 0.922345
O O2 0.400884 0.611925 0.776741
O O3 0.490981 0.738347 0.841796
O O4 0.316806 0.721862 0.853920
O O5 0.275703 0.563188 0.000000
O O6 0.387326 0.734157 0.000000
O O7 0.177253 0.167503 0.159022
O O8 0.999512 0.124395 0.171453
O O9 0.637809 0.835610 0.865051
O O10 0.484900 0.857492 0.931665
O O11 0.502138 0.911052 0.798555
O O12 0.707494 0.792507 0.750000
#
# Coordination Sequence:
#
# PCOD9564644 Si02
#       7
#    16   8  16  16  16   8   4
#     4  10  20  35  56  85 118 156 191 241 301 366
#     4  10  20  33  56  82 118 160 188 234 294 382
#     4  10  22  35  53  82 119 152 194 250 307 358
#     4  11  23  39  59  89 121 162 207 254 306 378
#     4  10  19  34  57  78 117 154 197 247 298 355
#     4  10  22  40  58  84 128 158 206 244 317 377
#     4  12  28  38  64  88 120 162 220 260 312 362
#
# _framework density 20.118137000000001
#
# number of rings (size 3 to 8) (size 9 to 14) (size 15 to 20)
#    0.000    1.714    2.857    2.286    6.667    0.571 
#    0.000    0.000    0.000    0.000    0.000    1.333 
#    0.000    6.095    0.000    0.000    0.000    0.000 
#
# Total GULP energy -467871.516291 kJ/mol
# GULP energy per Si atom -5569.899003 kJ/mol
# Density = 2.007235 g / cm^3
# Si number density = 20.118137 Si / 1000 Ang^3
#
#
#
# Elastic Constant Matrix: (Units=GPa)
#
#
# Indices 1 2 3 4 5 6 
#
# 1 71.9996 59.7602 7.1341 0.0000 0.0000 0.0000
# 2 59.7602 72.0006 7.1343 0.0000 0.0000 0.0000
# 3 7.1341 7.1343 41.2301 0.0000 0.0000 0.0000
# 4 0.0000 0.0000 0.0000 18.9870 0.0000 0.0000
# 5 0.0000 0.0000 0.0000 0.0000 18.9870 0.0000
# 6 0.0000 0.0000 0.0000 0.0000 0.0000 27.0285
#
#
#
# Elastic Compliance Matrix: (Units=1/GPa)
#
#
# Indices 1 2 3 4 5 6 
#
# 1 0.044718 -0.036983 -0.001338 0.000000 0.000000 0.000000
# 2 -0.036983 0.044717 -0.001338 0.000000 0.000000 0.000000
# 3 -0.001338 -0.001338 0.024717 0.000000 0.000000 0.000000
# 4 0.000000 0.000000 0.000000 0.052668 0.000000 0.000000
# 5 0.000000 0.000000 0.000000 0.000000 0.052668 0.000000
# 6 0.000000 0.000000 0.000000 0.000000 0.000000 0.036998
#
#
# Mechanical properties :
#
#
# Convention : Reuss Voigt Hill
#
# Bulk Modulus (GPa) = 28.70849 37.03194 32.87021
# Shear Modulus (GPa) = 14.39199 20.41393 17.40296
#
# Velocity S-wave (km/s) = 2.67755 3.18890 2.94434
# Velocity P-wave (km/s) = 4.88467 5.65738 5.28516
#
# Compressibility (1/GPa) = 0.03483290
#
# Stress axis : x y z
#
# Youngs Moduli (GPa) = 22.36252 22.36283 40.45758
#
# Poissons Ratio (x) = 0.82704 0.05414
# Poissons Ratio (y) = 0.82703 0.05415
# Poissons Ratio (z) = 0.02993 0.02993
#
# Static dielectric constant tensor:
#      x y z
#    x 1.738510 0.000000 0.000000 
#    y 0.000000 1.738510 0.000000 
#    z 0.000000 0.000000 1.748120 
# 
# From -- ./inp_files/5701.got.cif
#   From: 2010.05.17/outbox.cif.g08.bks.cpg/sg128_3_cif.got.tgz:5701.got - 2010.05.20 12:07:25.
