data_PCOD9564768
_publ_section_title
;
Structure prediction by ZEFSAII (Michael W. Deem and Ramdas Pophale) SiO2 
 PCOD9564768
Probable space group: P 4/M N C
;
_chemical_formula_sum "Si O2"
_cell_formula_units_Z 80
_cell_length_a 12.740076
_cell_length_b 12.740076
_cell_length_c 26.800899
_cell_angle_alpha 90.000000
_cell_angle_beta 90.000000
_cell_angle_gamma 90.000000
_cell_volume 4350.041494
_symmetry_space_group_name_H-M "P 4/M N C"
_symmetry_group_IT_number 128
_symmetry_cell_setting 'tetragonal'
loop_
_space_group_symop_operation_xyz
x,y,z
-y,x,z
-x,-y,z
y,-x,z
1/2+x,1/2-y,1/2-z
1/2-x,1/2+y,1/2-z
1/2+y,1/2+x,1/2-z
1/2-y,1/2-x,1/2-z
-x,-y,-z
y,-x,-z
x,y,-z
-y,x,-z
1/2-x,1/2+y,1/2+z
1/2+x,1/2-y,1/2+z
1/2-y,1/2-x,1/2+z
1/2+y,1/2+x,1/2+z
loop_
_atom_site_type_symbol
_atom_site_label
_atom_site_fract_x
_atom_site_fract_y
_atom_site_fract_z
Si Si1 0.887050 0.387050 0.750000
Si Si2 0.008561 0.277705 0.608000
Si Si3 0.628083 0.390445 0.439271
Si Si4 0.833278 0.953524 0.289707
Si Si5 0.000000 0.500000 0.660843
Si Si6 0.201044 0.776982 0.441061
O O1 0.913450 0.267024 0.739659
O O2 0.916168 0.454893 0.700810
O O3 0.026843 0.397406 0.627431
O O4 0.115045 0.227715 0.586994
O O5 0.963875 0.207790 0.653574
O O6 0.915208 0.267656 0.568117
O O7 0.643661 0.511109 0.423612
O O8 0.629242 0.390702 0.500000
O O9 0.717174 0.311229 0.422481
O O10 0.929644 0.875834 0.279689
O O11 0.217044 0.793998 0.500000
#
# Coordination Sequence:
#
# PCOD9564768 Si02
#       6
#     8  16  16  16   8  16
#     4   9  20  40  64  93 120 152 182 237 306 364
#     4  11  22  39  57  86 121 160 200 246 296 341
#     4   8  16  33  55  77 104 144 199 256 304 354
#     4  10  20  38  63  91 119 151 194 231 289 364
#     4   9  22  40  61  92 120 148 191 240 304 363
#     4  11  23  37  56  84 117 163 211 254 296 340
#
# _framework density 18.390628
#
# number of rings (size 3 to 8) (size 9 to 14) (size 15 to 20)
#    0.000    2.200    2.000    1.200    2.800    3.600 
#    0.000    2.000    0.000    0.000    0.000    0.000 
#    0.000    0.000    0.000    0.000    0.000    0.000 
#
# Total GULP energy -445731.889675 kJ/mol
# GULP energy per Si atom -5571.648621 kJ/mol
# Density = 1.834877 g / cm^3
# Si number density = 18.390628 Si / 1000 Ang^3
#
#
#
# Elastic Constant Matrix: (Units=GPa)
#
#
# Indices 1 2 3 4 5 6 
#
# 1 103.6169 83.0345 19.5726 0.0000 0.0000 0.0000
# 2 83.0345 103.6169 19.5726 0.0000 0.0000 0.0000
# 3 19.5726 19.5726 35.6750 0.0000 0.0000 0.0000
# 4 0.0000 0.0000 0.0000 15.6195 0.0000 0.0000
# 5 0.0000 0.0000 0.0000 0.0000 15.6195 0.0000
# 6 0.0000 0.0000 0.0000 0.0000 0.0000 20.8493
#
#
#
# Elastic Compliance Matrix: (Units=1/GPa)
#
#
# Indices 1 2 3 4 5 6 
#
# 1 0.027320 -0.021266 -0.003322 0.000000 0.000000 0.000000
# 2 -0.021266 0.027320 -0.003322 0.000000 0.000000 0.000000
# 3 -0.003322 -0.003322 0.031676 0.000000 0.000000 0.000000
# 4 0.000000 0.000000 0.000000 0.064022 0.000000 0.000000
# 5 0.000000 0.000000 0.000000 0.000000 0.064022 0.000000
# 6 0.000000 0.000000 0.000000 0.000000 0.000000 0.047963
#
#
# Mechanical properties :
#
#
# Convention : Reuss Voigt Hill
#
# Bulk Modulus (GPa) = 32.78939 54.14093 43.46516
# Shear Modulus (GPa) = 15.22968 18.46626 16.84797
#
# Velocity S-wave (km/s) = 2.88083 3.17221 3.03003
# Velocity P-wave (km/s) = 5.37901 6.55138 5.99392
#
# Compressibility (1/GPa) = 0.03049767
#
# Stress axis : x y z
#
# Youngs Moduli (GPa) = 36.60361 36.60361 31.57012
#
# Poissons Ratio (x) = 0.77839 0.10486
# Poissons Ratio (y) = 0.77839 0.10486
# Poissons Ratio (z) = 0.12158 0.12158
#
# Static dielectric constant tensor:
#      x y z
#    x 1.629070 0.000000 0.000000 
#    y 0.000000 1.629070 0.000000 
#    z 0.000000 0.000000 1.655730 
# 
# From -- ./inp_files/7199.got.cif
#   From: 2010.05.17/outbox.cif.g08.bks.cpg/sg128_4_cif.got.tgz:7199.got - 2010.05.20 12:07:25.
