data_PCOD9564613
_publ_section_title
;
Structure prediction by ZEFSAII (Michael W. Deem and Ramdas Pophale) SiO2 
 PCOD9564613
Probable space group: P 4/M N C
;
_chemical_formula_sum "Si O2"
_cell_formula_units_Z 112
_cell_length_a 14.400372
_cell_length_b 14.400372
_cell_length_c 27.297816
_cell_angle_alpha 90.000000
_cell_angle_beta 90.000000
_cell_angle_gamma 90.000000
_cell_volume 5660.767587
_symmetry_space_group_name_H-M "P 4/M N C"
_symmetry_group_IT_number 128
_symmetry_cell_setting 'tetragonal'
loop_
_space_group_symop_operation_xyz
x,y,z
-y,x,z
-x,-y,z
y,-x,z
1/2+x,1/2-y,1/2-z
1/2-x,1/2+y,1/2-z
1/2+y,1/2+x,1/2-z
1/2-y,1/2-x,1/2-z
-x,-y,-z
y,-x,-z
x,y,-z
-y,x,-z
1/2-x,1/2+y,1/2+z
1/2+x,1/2-y,1/2+z
1/2-y,1/2-x,1/2+z
1/2+y,1/2+x,1/2+z
loop_
_atom_site_type_symbol
_atom_site_label
_atom_site_fract_x
_atom_site_fract_y
_atom_site_fract_z
Si Si1 0.911980 0.869467 0.500000
Si Si2 0.863695 0.688121 0.645289
Si Si3 0.184353 0.315648 0.250000
Si Si4 0.414877 0.630400 0.106639
Si Si5 0.725961 0.487100 0.555198
Si Si6 0.598306 0.384420 0.270493
Si Si7 0.572887 0.083369 0.945779
Si Si8 0.153234 0.857607 0.881544
O O1 0.885057 0.830851 0.447197
O O2 0.023731 0.877223 0.500000
O O3 0.866610 0.650599 0.700509
O O4 0.880206 0.798006 0.646177
O O5 0.929679 0.645326 0.603275
O O6 0.758858 0.670946 0.627877
O O7 0.294473 0.340037 0.255559
O O8 0.377564 0.526116 0.109992
O O9 0.703086 0.458015 0.500000
O O10 0.825613 0.536603 0.553776
O O11 0.654636 0.560813 0.578264
O O12 0.725177 0.403843 0.593945
O O13 0.627585 0.489505 0.255252
O O14 0.607685 0.385403 0.329816
O O15 0.500000 0.000000 0.942493
O O16 0.559350 0.129423 0.000000
#
# Coordination Sequence:
#
# PCOD9564613 Si02
#       8
#     8  16   8  16  16  16  16  16
#     4   7  12  26  46  74 111 144 172 221 289 346
#     4  10  22  37  58  81 117 151 194 246 292 348
#     4  10  24  42  59  91 128 156 202 268 314 358
#     4   9  18  33  55  83 116 148 186 237 294 352
#     4  10  19  32  52  83 122 152 187 240 295 353
#     4  10  20  39  68  89 114 160 211 255 313 377
#     4   9  20  39  60  83 115 159 202 241 291 360
#     4  10  19  34  54  83 114 151 192 238 298 352
#
# _framework density 19.785302000000001
#
# number of rings (size 3 to 8) (size 9 to 14) (size 15 to 20)
#    0.000    2.500    1.429    1.286    1.000    3.143 
#    0.000    3.929    0.000    0.000    0.000    0.000 
#    0.000    0.000    0.000    0.000    0.000    0.000 
#
# Total GULP energy -623765.506382 kJ/mol
# GULP energy per Si atom -5569.334878 kJ/mol
# Density = 1.974027 g / cm^3
# Si number density = 19.785302 Si / 1000 Ang^3
#
#
#
# Elastic Constant Matrix: (Units=GPa)
#
#
# Indices 1 2 3 4 5 6 
#
# 1 42.9767 22.6246 20.7394 0.0000 0.0000 0.0000
# 2 22.6246 42.9758 20.7394 0.0000 0.0000 0.0000
# 3 20.7394 20.7394 122.3221 0.0000 0.0000 0.0000
# 4 0.0000 0.0000 0.0000 20.1403 0.0000 0.0000
# 5 0.0000 0.0000 0.0000 0.0000 20.1404 0.0000
# 6 0.0000 0.0000 0.0000 0.0000 0.0000 20.3911
#
#
#
# Elastic Compliance Matrix: (Units=1/GPa)
#
#
# Indices 1 2 3 4 5 6 
#
# 1 0.033105 -0.016031 -0.002895 0.000000 0.000000 0.000000
# 2 -0.016031 0.033106 -0.002895 0.000000 0.000000 0.000000
# 3 -0.002895 -0.002895 0.009157 0.000000 0.000000 0.000000
# 4 0.000000 0.000000 0.000000 0.049652 0.000000 0.000000
# 5 0.000000 0.000000 0.000000 0.000000 0.049651 0.000000
# 6 0.000000 0.000000 0.000000 0.000000 0.000000 0.049041
#
#
# Mechanical properties :
#
#
# Convention : Reuss Voigt Hill
#
# Bulk Modulus (GPa) = 31.52041 37.38684 34.45363
# Shear Modulus (GPa) = 17.99029 21.74578 19.86803
#
# Velocity S-wave (km/s) = 3.01869 3.31885 3.17232
# Velocity P-wave (km/s) = 5.30243 5.79859 5.55605
#
# Compressibility (1/GPa) = 0.03172547
#
# Stress axis : x y z
#
# Youngs Moduli (GPa) = 30.20718 30.20646 109.20881
#
# Poissons Ratio (x) = 0.48424 0.31614
# Poissons Ratio (y) = 0.48425 0.31615
# Poissons Ratio (z) = 0.08744 0.08745
#
# Static dielectric constant tensor:
#      x y z
#    x 1.702850 0.000000 0.000000 
#    y 0.000000 1.702850 0.000000 
#    z 0.000000 0.000000 1.776560 
# 
# From -- ./inp_files/6931.got.cif
#   From: 2010.05.17/outbox.cif.g08.bks.cpg/sg128_4_cif.got.tgz:6931.got - 2010.05.20 12:07:25.
