data_PCOD9564913
_publ_section_title
;
Structure prediction by ZEFSAII (Michael W. Deem and Ramdas Pophale) SiO2 
 PCOD9564913
Probable space group: P 4/M N C
;
_chemical_formula_sum "Si O2"
_cell_formula_units_Z 116
_cell_length_a 18.021636
_cell_length_b 18.021636
_cell_length_c 18.267481
_cell_angle_alpha 90.000000
_cell_angle_beta 90.000000
_cell_angle_gamma 90.000000
_cell_volume 5932.900863
_symmetry_space_group_name_H-M "P 4/M N C"
_symmetry_group_IT_number 128
_symmetry_cell_setting 'tetragonal'
loop_
_space_group_symop_operation_xyz
x,y,z
-y,x,z
-x,-y,z
y,-x,z
1/2+x,1/2-y,1/2-z
1/2-x,1/2+y,1/2-z
1/2+y,1/2+x,1/2-z
1/2-y,1/2-x,1/2-z
-x,-y,-z
y,-x,-z
x,y,-z
-y,x,-z
1/2-x,1/2+y,1/2+z
1/2+x,1/2-y,1/2+z
1/2-y,1/2-x,1/2+z
1/2+y,1/2+x,1/2+z
loop_
_atom_site_type_symbol
_atom_site_label
_atom_site_fract_x
_atom_site_fract_y
_atom_site_fract_z
Si Si1 0.687796 0.581246 0.658061
Si Si2 0.849178 0.580868 0.412986
Si Si3 0.500000 0.500000 0.828148
Si Si4 0.572490 0.784611 0.188210
Si Si5 0.932286 0.736674 0.413848
Si Si6 0.682864 0.430609 0.584606
Si Si7 0.933262 0.341393 0.850661
Si Si8 0.620738 0.365354 0.817006
O O1 0.771641 0.586329 0.630085
O O2 0.658216 0.500914 0.632911
O O3 0.641047 0.642519 0.615127
O O4 0.675509 0.592230 0.743622
O O5 0.836255 0.571890 0.500000
O O6 0.891924 0.657671 0.402251
O O7 0.885095 0.505002 0.381228
O O8 0.570794 0.439295 0.827607
O O9 0.506194 0.767298 0.133654
O O10 0.616353 0.855790 0.156961
O O11 0.548772 0.809197 0.269828
O O12 0.616912 0.707605 0.194609
O O13 0.946642 0.745012 0.500000
O O14 0.887861 0.807605 0.383530
O O15 0.665787 0.443711 0.500000
O O16 0.770785 0.423248 0.596575
#
# Coordination Sequence:
#
# PCOD9564913 Si02
#       8
#    16  16   4  16  16  16  16  16
#     4  11  22  38  62  91 132 173 213 264 322 398
#     4  10  23  43  65  97 134 171 213 269 344 406
#     4  12  24  44  69  96 137 172 216 274 332 376
#     4  11  24  43  65  97 129 169 231 275 330 406
#     4  11  26  45  67  96 128 171 230 283 339 405
#     4  11  21  36  58  92 129 170 214 256 319 396
#     4  10  22  41  65  96 131 171 211 272 335 399
#     4  12  24  44  67  98 135 177 226 280 335 392
#
# _framework density 19.551985999999999
#
# number of rings (size 3 to 8) (size 9 to 14) (size 15 to 20)
#    0.000    1.103    2.759    4.966    1.931    4.690 
#    0.000    3.793    0.000    0.000    0.000    0.000 
#    0.000    0.000    0.000    0.000    0.000    0.000 
#
# Total GULP energy -646947.998092 kJ/mol
# GULP energy per Si atom -5577.137915 kJ/mol
# Density = 1.950748 g / cm^3
# Si number density = 19.551986 Si / 1000 Ang^3
#
#
#
# Elastic Constant Matrix: (Units=GPa)
#
#
# Indices 1 2 3 4 5 6 
#
# 1 68.6274 6.5388 45.7823 0.0000 0.0000 0.0000
# 2 6.5388 68.6274 45.7823 0.0000 0.0000 0.0000
# 3 45.7823 45.7823 88.8750 0.0000 0.0000 0.0000
# 4 0.0000 0.0000 0.0000 27.9933 0.0000 0.0000
# 5 0.0000 0.0000 0.0000 0.0000 27.9933 0.0000
# 6 0.0000 0.0000 0.0000 0.0000 0.0000 32.1787
#
#
#
# Elastic Compliance Matrix: (Units=1/GPa)
#
#
# Indices 1 2 3 4 5 6 
#
# 1 0.025911 0.009805 -0.018399 0.000000 0.000000 0.000000
# 2 0.009805 0.025911 -0.018399 0.000000 0.000000 0.000000
# 3 -0.018399 -0.018399 0.030207 0.000000 0.000000 0.000000
# 4 0.000000 0.000000 0.000000 0.035723 0.000000 0.000000
# 5 0.000000 0.000000 0.000000 0.000000 0.035723 0.000000
# 6 0.000000 0.000000 0.000000 0.000000 0.000000 0.031076
#
#
# Mechanical properties :
#
#
# Convention : Reuss Voigt Hill
#
# Bulk Modulus (GPa) = 35.65648 46.92627 41.29138
# Shear Modulus (GPa) = 20.17075 26.16816 23.16946
#
# Velocity S-wave (km/s) = 3.21541 3.66237 3.44614
# Velocity P-wave (km/s) = 5.66229 6.47586 6.08269
#
# Compressibility (1/GPa) = 0.02804539
#
# Stress axis : x y z
#
# Youngs Moduli (GPa) = 38.59349 38.59349 33.10488
#
# Poissons Ratio (x) = -0.37841 0.60908
# Poissons Ratio (y) = -0.37841 0.60908
# Poissons Ratio (z) = 0.71006 0.71006
#
# Static dielectric constant tensor:
#      x y z
#    x 1.739150 0.000000 0.000000 
#    y 0.000000 1.739150 0.000000 
#    z 0.000000 0.000000 1.674410 
# 
# From -- ./inp_files/4963.got.cif
#   From: 2010.05.17/outbox.cif.g08.bks.cpg/sg128_3_cif.got.tgz:4963.got - 2010.05.20 12:07:25.
