data_PCOD9564213
_publ_section_title
;
Structure prediction by ZEFSAII (Michael W. Deem and Ramdas Pophale) SiO2 
 PCOD9564213
Probable space group: P 4/M B M
;
_chemical_formula_sum "Si O2"
_cell_formula_units_Z 88
_cell_length_a 14.805632
_cell_length_b 14.805632
_cell_length_c 22.001430
_cell_angle_alpha 90.000000
_cell_angle_beta 90.000000
_cell_angle_gamma 90.000000
_cell_volume 4822.861722
_symmetry_space_group_name_H-M "P 4/M B M"
_symmetry_group_IT_number 127
_symmetry_cell_setting 'tetragonal'
loop_
_space_group_symop_operation_xyz
x,y,z
-y,x,z
-x,-y,z
y,-x,z
1/2+x,1/2-y,-z
1/2-x,1/2+y,-z
1/2+y,1/2+x,-z
1/2-y,1/2-x,-z
-x,-y,-z
y,-x,-z
x,y,-z
-y,x,-z
1/2-x,1/2+y,z
1/2+x,1/2-y,z
1/2-y,1/2-x,z
1/2+y,1/2+x,z
loop_
_atom_site_type_symbol
_atom_site_label
_atom_site_fract_x
_atom_site_fract_y
_atom_site_fract_z
Si Si1 0.589242 0.234208 0.260556
Si Si2 0.887831 0.100376 0.819428
Si Si3 0.012908 0.152107 0.500000
Si Si4 0.013276 0.153005 0.366053
Si Si5 0.353018 0.994893 0.140300
Si Si6 0.124472 0.777545 0.930011
O O1 0.660681 0.160681 0.283141
O O2 0.640793 0.319300 0.229424
O O3 0.527895 0.274299 0.313701
O O4 0.534875 0.189589 0.204376
O O5 0.862602 0.137872 0.885516
O O6 0.992965 0.120625 0.811162
O O7 0.016761 0.196372 0.433653
O O8 0.921375 0.093216 0.500000
O O9 0.921685 0.093892 0.360595
O O10 0.407738 0.907738 0.115559
O O11 0.427226 0.072774 0.150643
O O12 0.279696 0.039250 0.095735
O O13 0.210325 0.710325 0.925749
O O14 0.111255 0.802629 0.000000
#
# Coordination Sequence:
#
# PCOD9564213 Si02
#       6
#    16  16   8  16  16  16
#     4  11  21  34  52  78 106 135 173 216 260 302
#     4  11  22  37  54  72 100 136 171 207 254 312
#     4   7  12  26  49  74 102 137 173 207 242 293
#     4   9  17  31  52  78 106 137 173 209 252 303
#     4   9  19  37  58  77 100 131 170 218 263 306
#     4  10  21  38  58  78 100 128 166 214 267 317
#
# _framework density 18.246428000000002
#
# number of rings (size 3 to 8) (size 9 to 14) (size 15 to 20)
#    0.000    2.273    1.818    2.727    0.000    2.545 
#    0.000    3.182    0.000    0.000    0.000    1.909 
#    0.000    2.909    0.000    0.000    0.000    0.000 
#
# Total GULP energy -490467.724642 kJ/mol
# GULP energy per Si atom -5573.496871 kJ/mol
# Density = 1.820490 g / cm^3
# Si number density = 18.246428 Si / 1000 Ang^3
#
#
#
# Elastic Constant Matrix: (Units=GPa)
#
#
# Indices 1 2 3 4 5 6 
#
# 1 32.7598 -12.9175 -7.1417 0.0000 0.0000 0.0000
# 2 -12.9175 32.7598 -7.1417 0.0000 0.0000 0.0000
# 3 -7.1417 -7.1417 74.5318 0.0000 0.0000 0.0000
# 4 0.0000 0.0000 0.0000 18.6710 0.0000 0.0000
# 5 0.0000 0.0000 0.0000 0.0000 18.6710 0.0000
# 6 0.0000 0.0000 0.0000 0.0000 0.0000 10.4568
#
#
#
# Elastic Compliance Matrix: (Units=1/GPa)
#
#
# Indices 1 2 3 4 5 6 
#
# 1 0.038012 0.016119 0.005187 0.000000 0.000000 0.000000
# 2 0.016119 0.038012 0.005187 0.000000 0.000000 0.000000
# 3 0.005187 0.005187 0.014411 0.000000 0.000000 0.000000
# 4 0.000000 0.000000 0.000000 0.053559 0.000000 0.000000
# 5 0.000000 0.000000 0.000000 0.000000 0.053559 0.000000
# 6 0.000000 0.000000 0.000000 0.000000 0.000000 0.095632
#
#
# Mechanical properties :
#
#
# Convention : Reuss Voigt Hill
#
# Bulk Modulus (GPa) = 6.97251 9.51666 8.24458
# Shear Modulus (GPa) = 17.36075 20.70990 19.03533
#
# Velocity S-wave (km/s) = 3.08792 3.37265 3.23342
# Velocity P-wave (km/s) = 4.06734 4.51589 4.29747
#
# Compressibility (1/GPa) = 0.14342042
#
# Stress axis : x y z
#
# Youngs Moduli (GPa) = 26.30759 26.30759 69.39099
#
# Poissons Ratio (x) = -0.42406 -0.35992
# Poissons Ratio (y) = -0.42406 -0.35992
# Poissons Ratio (z) = -0.13645 -0.13645
#
# Static dielectric constant tensor:
#      x y z
#    x 1.650780 0.000000 0.000000 
#    y 0.000000 1.650780 0.000000 
#    z 0.000000 0.000000 1.642950 
# 
# From -- ./inp_files/5704.got.cif
#   From: 2010.05.17/outbox.cif.g08.bks.cpg/sg127_3_cif.got.tgz:5704.got - 2010.05.20 12:03:00.
