data_PCOD9564618
_publ_section_title
;
Structure prediction by ZEFSAII (Michael W. Deem and Ramdas Pophale) SiO2 
 PCOD9564618
Probable space group: P 4/M N C
;
_chemical_formula_sum "Si O2"
_cell_formula_units_Z 112
_cell_length_a 18.051141
_cell_length_b 18.051141
_cell_length_c 14.836686
_cell_angle_alpha 90.000000
_cell_angle_beta 90.000000
_cell_angle_gamma 90.000000
_cell_volume 4834.440534
_symmetry_space_group_name_H-M "P 4/M N C"
_symmetry_group_IT_number 128
_symmetry_cell_setting 'tetragonal'
loop_
_space_group_symop_operation_xyz
x,y,z
-y,x,z
-x,-y,z
y,-x,z
1/2+x,1/2-y,1/2-z
1/2-x,1/2+y,1/2-z
1/2+y,1/2+x,1/2-z
1/2-y,1/2-x,1/2-z
-x,-y,-z
y,-x,-z
x,y,-z
-y,x,-z
1/2-x,1/2+y,1/2+z
1/2+x,1/2-y,1/2+z
1/2-y,1/2-x,1/2+z
1/2+y,1/2+x,1/2+z
loop_
_atom_site_type_symbol
_atom_site_label
_atom_site_fract_x
_atom_site_fract_y
_atom_site_fract_z
Si Si1 0.304697 0.390582 0.896423
Si Si2 0.268601 0.947034 0.105227
Si Si3 0.181740 0.053409 0.673964
Si Si4 0.752548 0.214552 0.109438
Si Si5 0.917726 0.483779 0.609031
Si Si6 0.362687 0.180851 0.109033
Si Si7 0.380632 0.519732 0.365727
O O1 0.298016 0.470896 0.855165
O O2 0.390302 0.365467 0.887745
O O3 0.252065 0.324904 0.860088
O O4 0.284192 0.397506 0.000000
O O5 0.239223 0.868903 0.143882
O O6 0.204818 0.009373 0.106186
O O7 0.347617 0.969950 0.145780
O O8 0.283044 0.933661 0.000000
O O9 0.259852 0.096152 0.671617
O O10 0.131739 0.040364 0.761488
O O11 0.814488 0.275354 0.131147
O O12 0.752527 0.212276 0.000000
O O13 0.919738 0.495516 0.500000
O O14 0.896727 0.398802 0.622927
O O15 0.000000 0.500000 0.643113
O O16 0.370895 0.199596 0.000000
O O17 0.418940 0.441390 0.393018
#
# Coordination Sequence:
#
# PCOD9564618 Si02
#       7
#    16  16  16  16  16  16  16
#     4  10  19  32  57  90 121 154 200 240 291 368
#     4  10  22  40  67  91 116 159 213 265 316 375
#     4  11  20  36  56  83 121 165 192 237 305 369
#     4   8  17  33  55  88 117 146 194 253 296 344
#     4   9  19  35  60  95 125 153 193 252 322 373
#     4   9  18  33  58  89 123 156 196 247 301 368
#     4  11  25  44  61  84 123 167 206 265 324 364
#
# _framework density 23.167107000000001
#
# number of rings (size 3 to 8) (size 9 to 14) (size 15 to 20)
#    0.000    2.286    1.429    2.143    4.000    0.857 
#    0.000    2.857    0.000    0.857    0.000    0.000 
#    0.000    0.000    0.000    0.000    0.000    0.000 
#
# Total GULP energy -624608.932854 kJ/mol
# GULP energy per Si atom -5576.865472 kJ/mol
# Density = 2.311438 g / cm^3
# Si number density = 23.167107 Si / 1000 Ang^3
#
#
#
# Elastic Constant Matrix: (Units=GPa)
#
#
# Indices 1 2 3 4 5 6 
#
# 1 120.4730 68.9795 3.2895 0.0000 0.0000 0.0000
# 2 68.9795 120.4730 3.2895 0.0000 0.0000 0.0000
# 3 3.2895 3.2895 40.5301 0.0000 0.0000 0.0000
# 4 0.0000 0.0000 0.0000 16.7491 0.0000 0.0000
# 5 0.0000 0.0000 0.0000 0.0000 16.7491 0.0000
# 6 0.0000 0.0000 0.0000 0.0000 0.0000 27.1128
#
#
#
# Elastic Compliance Matrix: (Units=1/GPa)
#
#
# Indices 1 2 3 4 5 6 
#
# 1 0.012357 -0.007063 -0.000430 0.000000 0.000000 0.000000
# 2 -0.007063 0.012357 -0.000430 0.000000 0.000000 0.000000
# 3 -0.000430 -0.000430 0.024743 0.000000 0.000000 0.000000
# 4 0.000000 0.000000 0.000000 0.059705 0.000000 0.000000
# 5 0.000000 0.000000 0.000000 0.000000 0.059705 0.000000
# 6 0.000000 0.000000 0.000000 0.000000 0.000000 0.036883
#
#
# Mechanical properties :
#
#
# Convention : Reuss Voigt Hill
#
# Bulk Modulus (GPa) = 29.75229 48.06593 38.90911
# Shear Modulus (GPa) = 21.47793 25.85003 23.66398
#
# Velocity S-wave (km/s) = 3.04811 3.34399 3.19948
# Velocity P-wave (km/s) = 5.02577 5.97514 5.52090
#
# Compressibility (1/GPa) = 0.03361086
#
# Stress axis : x y z
#
# Youngs Moduli (GPa) = 80.92836 80.92836 40.41587
#
# Poissons Ratio (x) = 0.57162 0.01736
# Poissons Ratio (y) = 0.57162 0.01736
# Poissons Ratio (z) = 0.03477 0.03477
#
# Static dielectric constant tensor:
#      x y z
#    x 1.878170 0.000000 0.000000 
#    y 0.000000 1.878170 0.000000 
#    z 0.000000 0.000000 1.928380 
# 
# From -- ./inp_files/5963.got.cif
#   From: 2010.05.17/outbox.cif.g08.bks.cpg/sg128_3_cif.got.tgz:5963.got - 2010.05.20 12:07:25.
