data_PCOD9564250
_publ_section_title
;
Structure prediction by ZEFSAII (Michael W. Deem and Ramdas Pophale) SiO2 
 PCOD9564250
Probable space group: P 4/M B M
;
_chemical_formula_sum "Si O2"
_cell_formula_units_Z 104
_cell_length_a 15.693876
_cell_length_b 15.693876
_cell_length_c 21.283638
_cell_angle_alpha 90.000000
_cell_angle_beta 90.000000
_cell_angle_gamma 90.000000
_cell_volume 5242.112021
_symmetry_space_group_name_H-M "P 4/M B M"
_symmetry_group_IT_number 127
_symmetry_cell_setting 'tetragonal'
loop_
_space_group_symop_operation_xyz
x,y,z
-y,x,z
-x,-y,z
y,-x,z
1/2+x,1/2-y,-z
1/2-x,1/2+y,-z
1/2+y,1/2+x,-z
1/2-y,1/2-x,-z
-x,-y,-z
y,-x,-z
x,y,-z
-y,x,-z
1/2-x,1/2+y,z
1/2+x,1/2-y,z
1/2-y,1/2-x,z
1/2+y,1/2+x,z
loop_
_atom_site_type_symbol
_atom_site_label
_atom_site_fract_x
_atom_site_fract_y
_atom_site_fract_z
Si Si1 0.671169 0.686603 0.322301
Si Si2 0.562429 0.629921 0.568589
Si Si3 0.116053 0.084599 0.070927
Si Si4 0.451858 0.807627 0.634479
Si Si5 0.002923 0.361400 0.234055
Si Si6 0.620625 0.734159 0.814353
Si Si7 0.143771 0.503373 0.500000
O O1 0.729755 0.770246 0.330308
O O2 0.594865 0.682343 0.372049
O O3 0.730505 0.606316 0.340400
O O4 0.639443 0.684771 0.250788
O O5 0.462891 0.607873 0.571089
O O6 0.586164 0.665768 0.500000
O O7 0.173928 0.121327 0.125772
O O8 0.018136 0.114073 0.076705
O O9 0.145281 0.105746 0.000000
O O10 0.386081 0.886081 0.628816
O O11 0.509913 0.834767 0.693187
O O12 0.490285 0.803544 0.564451
O O13 0.936777 0.436777 0.220612
O O14 0.970714 0.281949 0.193401
O O15 0.097297 0.402704 0.226087
O O16 0.693209 0.806792 0.819274
O O17 0.092282 0.592282 0.500000
O O18 0.070379 0.429622 0.500000
#
# Coordination Sequence:
#
# PCOD9564250 Si02
#       7
#    16  16  16  16  16  16   8
#     4  10  22  35  51  81 114 144 181 232 293 350
#     4   9  20  38  57  74  95 135 190 242 288 341
#     4   9  20  40  65  92 120 152 191 233 279 336
#     4   9  18  30  47  72 104 144 187 238 291 342
#     4   9  18  34  55  78 111 155 195 236 287 341
#     4  10  22  37  57  88 122 154 192 237 285 349
#     4   9  16  28  48  72  98 137 195 247 287 340
#
# _framework density 19.839331999999999
#
# number of rings (size 3 to 8) (size 9 to 14) (size 15 to 20)
#    0.000    2.692    0.000    1.385    5.385    2.462 
#    0.000    1.538    0.000    1.385    0.000    2.154 
#    0.000    0.000    0.000    0.000    0.000    0.000 
#
# Total GULP energy -580423.777914 kJ/mol
# GULP energy per Si atom -5580.997865 kJ/mol
# Density = 1.979418 g / cm^3
# Si number density = 19.839332 Si / 1000 Ang^3
#
#
#
# Elastic Constant Matrix: (Units=GPa)
#
#
# Indices 1 2 3 4 5 6 
#
# 1 43.4084 18.7546 49.8298 0.0000 0.0000 0.0000
# 2 18.7546 43.4084 49.8298 0.0000 0.0000 0.0000
# 3 49.8298 49.8298 163.7098 0.0000 0.0000 0.0000
# 4 0.0000 0.0000 0.0000 35.5268 0.0000 0.0000
# 5 0.0000 0.0000 0.0000 0.0000 35.5268 0.0000
# 6 0.0000 0.0000 0.0000 0.0000 0.0000 17.7150
#
#
#
# Elastic Compliance Matrix: (Units=1/GPa)
#
#
# Indices 1 2 3 4 5 6 
#
# 1 0.035990 -0.004572 -0.009563 0.000000 0.000000 0.000000
# 2 -0.004572 0.035990 -0.009563 0.000000 0.000000 0.000000
# 3 -0.009563 -0.009563 0.011930 0.000000 0.000000 0.000000
# 4 0.000000 0.000000 0.000000 0.028148 0.000000 0.000000
# 5 0.000000 0.000000 0.000000 0.000000 0.028148 0.000000
# 6 0.000000 0.000000 0.000000 0.000000 0.000000 0.056449
#
#
# Mechanical properties :
#
#
# Convention : Reuss Voigt Hill
#
# Bulk Modulus (GPa) = 27.38664 54.15058 40.76861
# Shear Modulus (GPa) = 19.51434 26.56120 23.03777
#
# Velocity S-wave (km/s) = 3.13967 3.66295 3.41136
# Velocity P-wave (km/s) = 5.19399 6.72632 6.00920
#
# Compressibility (1/GPa) = 0.03651415
#
# Stress axis : x y z
#
# Youngs Moduli (GPa) = 27.78552 27.78553 83.82272
#
# Poissons Ratio (x) = 0.12703 0.80160
# Poissons Ratio (y) = 0.12703 0.80160
# Poissons Ratio (z) = 0.26571 0.26571
#
# Static dielectric constant tensor:
#      x y z
#    x 1.742700 0.000000 0.000000 
#    y 0.000000 1.742700 0.000000 
#    z 0.000000 0.000000 1.667760 
# 
# From -- ./inp_files/5208.got.cif
#   From: 2010.05.17/outbox.cif.g08.bks.cpg/sg127_3_cif.got.tgz:5208.got - 2010.05.20 12:03:00.
