data_PCOD9564210
_publ_section_title
;
Structure prediction by ZEFSAII (Michael W. Deem and Ramdas Pophale) SiO2 
 PCOD9564210
Probable space group: P 4/M B M
;
_chemical_formula_sum "Si O2"
_cell_formula_units_Z 72
_cell_length_a 21.386598
_cell_length_b 21.386598
_cell_length_c 7.552937
_cell_angle_alpha 90.000000
_cell_angle_beta 90.000000
_cell_angle_gamma 90.000000
_cell_volume 3454.611978
_symmetry_space_group_name_H-M "P 4/M B M"
_symmetry_group_IT_number 127
_symmetry_cell_setting 'tetragonal'
loop_
_space_group_symop_operation_xyz
x,y,z
-y,x,z
-x,-y,z
y,-x,z
1/2+x,1/2-y,-z
1/2-x,1/2+y,-z
1/2+y,1/2+x,-z
1/2-y,1/2-x,-z
-x,-y,-z
y,-x,-z
x,y,-z
-y,x,-z
1/2-x,1/2+y,z
1/2+x,1/2-y,z
1/2-y,1/2-x,z
1/2+y,1/2+x,z
loop_
_atom_site_type_symbol
_atom_site_label
_atom_site_fract_x
_atom_site_fract_y
_atom_site_fract_z
Si Si1 0.599717 0.532510 0.000000
Si Si2 0.741931 0.342001 0.712210
Si Si3 0.417537 0.815431 0.215493
Si Si4 0.443642 0.155569 0.788118
Si Si5 0.328222 0.398951 0.296155
O O1 0.538206 0.576063 0.000000
O O2 0.640179 0.549931 0.171573
O O3 0.738432 0.335341 0.500000
O O4 0.783180 0.283180 0.779922
O O5 0.781931 0.403734 0.752067
O O6 0.670769 0.343974 0.774311
O O7 0.363544 0.863544 0.267828
O O8 0.485734 0.838787 0.275774
O O9 0.405348 0.746377 0.286164
O O10 0.417900 0.811892 0.000000
O O11 0.402075 0.097926 0.717869
O O12 0.446924 0.148401 0.000000
O O13 0.348819 0.404894 0.500000
#
# Coordination Sequence:
#
# PCOD9564210 Si02
#       5
#     8  16  16  16  16
#     4  11  28  50  69  94 130 165 204 261 321 389
#     4   9  19  35  55  84 121 159 205 261 317 372
#     4  10  21  37  59  89 129 174 217 265 323 383
#     4   9  19  34  56  87 122 166 216 262 311 373
#     4  11  24  41  68  97 126 166 212 263 323 385
#
# _framework density 20.841702999999999
#
# number of rings (size 3 to 8) (size 9 to 14) (size 15 to 20)
#    0.000    2.111    1.111    0.667    4.667    3.556 
#    0.000    3.333    0.000    0.000    0.000    4.667 
#    0.000    0.000    0.000    0.000    0.000    0.000 
#
# Total GULP energy -402435.099349 kJ/mol
# GULP energy per Si atom -5589.376380 kJ/mol
# Density = 2.079427 g / cm^3
# Si number density = 20.841703 Si / 1000 Ang^3
#
#
#
# Elastic Constant Matrix: (Units=GPa)
#
#
# Indices 1 2 3 4 5 6 
#
# 1 99.8292 40.8824 11.7161 0.0000 0.0000 0.0000
# 2 40.8824 99.8292 11.7161 0.0000 0.0000 0.0000
# 3 11.7161 11.7161 72.9628 0.0000 0.0000 0.0000
# 4 0.0000 0.0000 0.0000 660.4638 0.0000 0.0000
# 5 0.0000 0.0000 0.0000 0.0000 660.4638 0.0000
# 6 0.0000 0.0000 0.0000 0.0000 0.0000 18.4891
#
#
#
# Elastic Compliance Matrix: (Units=1/GPa)
#
#
# Indices 1 2 3 4 5 6 
#
# 1 0.012133 -0.004831 -0.001173 0.000000 0.000000 0.000000
# 2 -0.004831 0.012133 -0.001173 0.000000 0.000000 0.000000
# 3 -0.001173 -0.001173 0.014082 0.000000 0.000000 0.000000
# 4 0.000000 0.000000 0.000000 0.001514 0.000000 0.000000
# 5 0.000000 0.000000 0.000000 0.000000 0.001514 0.000000
# 6 0.000000 0.000000 0.000000 0.000000 0.000000 0.054086
#
#
# Mechanical properties :
#
#
# Convention : Reuss Voigt Hill
#
# Bulk Modulus (GPa) = 41.67353 44.58339 43.12846
# Shear Modulus (GPa) = 42.43974 281.77042 162.10508
#
# Velocity S-wave (km/s) = 4.51742 11.63997 8.82882
# Velocity P-wave (km/s) = 6.87373 14.21583 11.16553
#
# Compressibility (1/GPa) = 0.02399604
#
# Stress axis : x y z
#
# Youngs Moduli (GPa) = 82.41830 82.41830 71.01171
#
# Poissons Ratio (x) = 0.39818 0.08326
# Poissons Ratio (y) = 0.39818 0.08326
# Poissons Ratio (z) = 0.09664 0.09664
#
# Static dielectric constant tensor:
#      x y z
#    x 1.724050 0.000000 0.000000 
#    y 0.000000 1.724050 0.000000 
#    z 0.000000 0.000000 1.753710 
# 
# From -- ./inp_files/1592.got.cif
#   From: 2010.05.17/outbox.cif.g08.bks.cpg/sg127_1_cif.got.tgz:1592.got - 2010.05.20 12:03:00.
