data_PCOD9564972
_publ_section_title
;
Structure prediction by ZEFSAII (Michael W. Deem and Ramdas Pophale) SiO2 
 PCOD9564972
Probable space group: P 4/M N C
;
_chemical_formula_sum "Si O2"
_cell_formula_units_Z 56
_cell_length_a 12.328843
_cell_length_b 12.328843
_cell_length_c 19.991953
_cell_angle_alpha 90.000000
_cell_angle_beta 90.000000
_cell_angle_gamma 90.000000
_cell_volume 3038.784247
_symmetry_space_group_name_H-M "P 4/M N C"
_symmetry_group_IT_number 128
_symmetry_cell_setting 'tetragonal'
loop_
_space_group_symop_operation_xyz
x,y,z
-y,x,z
-x,-y,z
y,-x,z
1/2+x,1/2-y,1/2-z
1/2-x,1/2+y,1/2-z
1/2+y,1/2+x,1/2-z
1/2-y,1/2-x,1/2-z
-x,-y,-z
y,-x,-z
x,y,-z
-y,x,-z
1/2-x,1/2+y,1/2+z
1/2+x,1/2-y,1/2+z
1/2-y,1/2-x,1/2+z
1/2+y,1/2+x,1/2+z
loop_
_atom_site_type_symbol
_atom_site_label
_atom_site_fract_x
_atom_site_fract_y
_atom_site_fract_z
Si Si1 0.504809 0.131614 0.422456
Si Si2 0.278613 0.125728 0.361871
Si Si3 0.085546 0.839921 0.500000
Si Si4 0.621440 0.191684 0.820520
O O1 0.502484 0.169556 0.500000
O O2 0.400993 0.164663 0.377685
O O3 0.613816 0.157416 0.381869
O O4 0.500000 0.000000 0.425236
O O5 0.224720 0.116843 0.434635
O O6 0.201755 0.205892 0.320930
O O7 0.279760 0.004503 0.332090
O O8 0.956787 0.858664 0.500000
O O9 0.631610 0.131610 0.750000
#
# Coordination Sequence:
#
# PCOD9564972 Si02
#       4
#    16  16   8  16
#     4   9  20  36  60  89 118 153 198 247 296 358
#     4  11  22  39  64  89 124 159 206 250 306 366
#     4  11  20  34  59 101 131 152 197 268 323 361
#     4  11  26  39  60  88 123 163 201 248 309 370
#
# _framework density 18.428422000000001
#
# number of rings (size 3 to 8) (size 9 to 14) (size 15 to 20)
#    0.000    1.571    4.286    0.000    8.000    4.571 
#    0.000    0.000    0.000    0.857    0.000    2.000 
#    0.000    0.000    0.000    0.000    0.000    0.000 
#
# Total GULP energy -312593.390072 kJ/mol
# GULP energy per Si atom -5582.024823 kJ/mol
# Density = 1.838648 g / cm^3
# Si number density = 18.428422 Si / 1000 Ang^3
#
#
#
# Elastic Constant Matrix: (Units=GPa)
#
#
# Indices 1 2 3 4 5 6 
#
# 1 71.2144 27.9865 12.0878 0.0000 0.0000 0.0000
# 2 27.9865 71.2144 12.0878 0.0000 0.0000 0.0000
# 3 12.0878 12.0878 76.4113 0.0000 0.0000 0.0000
# 4 0.0000 0.0000 0.0000 189.7550 0.0000 0.0000
# 5 0.0000 0.0000 0.0000 0.0000 189.7550 0.0000
# 6 0.0000 0.0000 0.0000 0.0000 0.0000 45.4984
#
#
#
# Elastic Compliance Matrix: (Units=1/GPa)
#
#
# Indices 1 2 3 4 5 6 
#
# 1 0.016809 -0.006324 -0.001659 0.000000 0.000000 0.000000
# 2 -0.006324 0.016809 -0.001659 0.000000 0.000000 0.000000
# 3 -0.001659 -0.001659 0.013612 0.000000 0.000000 0.000000
# 4 0.000000 0.000000 0.000000 0.005270 0.000000 0.000000
# 5 0.000000 0.000000 0.000000 0.000000 0.005270 0.000000
# 6 0.000000 0.000000 0.000000 0.000000 0.000000 0.021979
#
#
# Mechanical properties :
#
#
# Convention : Reuss Voigt Hill
#
# Bulk Modulus (GPa) = 35.78219 35.90715 35.84467
# Shear Modulus (GPa) = 46.14796 96.11353 71.13075
#
# Velocity S-wave (km/s) = 5.00960 7.22968 6.21950
# Velocity P-wave (km/s) = 7.27465 9.44553 8.43026
#
# Compressibility (1/GPa) = 0.02794687
#
# Stress axis : x y z
#
# Youngs Moduli (GPa) = 59.49195 59.49195 73.46543
#
# Poissons Ratio (x) = 0.37624 0.12185
# Poissons Ratio (y) = 0.37624 0.12185
# Poissons Ratio (z) = 0.09868 0.09868
#
# Static dielectric constant tensor:
#      x y z
#    x 1.642260 0.000000 0.000000 
#    y 0.000000 1.642260 0.000000 
#    z 0.000000 0.000000 1.619100 
# 
# From -- ./inp_files/5301.got.cif
#   From: 2010.05.17/outbox.cif.g08.bks.cpg/sg128_3_cif.got.tgz:5301.got - 2010.05.20 12:07:25.
