data_PCOD9564360
_publ_section_title
;
Structure prediction by ZEFSAII (Michael W. Deem and Ramdas Pophale) SiO2 
 PCOD9564360
Probable space group: P 4/M B M
;
_chemical_formula_sum "Si O2"
_cell_formula_units_Z 64
_cell_length_a 14.195164
_cell_length_b 14.195164
_cell_length_c 19.096458
_cell_angle_alpha 90.000000
_cell_angle_beta 90.000000
_cell_angle_gamma 90.000000
_cell_volume 3847.987484
_symmetry_space_group_name_H-M "P 4/M B M"
_symmetry_group_IT_number 127
_symmetry_cell_setting 'tetragonal'
loop_
_space_group_symop_operation_xyz
x,y,z
-y,x,z
-x,-y,z
y,-x,z
1/2+x,1/2-y,-z
1/2-x,1/2+y,-z
1/2+y,1/2+x,-z
1/2-y,1/2-x,-z
-x,-y,-z
y,-x,-z
x,y,-z
-y,x,-z
1/2-x,1/2+y,z
1/2+x,1/2-y,z
1/2-y,1/2-x,z
1/2+y,1/2+x,z
loop_
_atom_site_type_symbol
_atom_site_label
_atom_site_fract_x
_atom_site_fract_y
_atom_site_fract_z
Si Si1 0.562220 0.354335 0.000000
Si Si2 0.081039 0.581039 0.080864
Si Si3 0.346370 0.456669 0.271378
Si Si4 0.723966 0.064529 0.133860
Si Si5 0.956040 0.846106 0.575306
O O1 0.618766 0.451777 0.000000
O O2 0.582380 0.294390 0.069388
O O3 0.169811 0.533599 0.118196
O O4 0.000000 0.500000 0.079376
O O5 0.103618 0.603618 0.000000
O O6 0.437534 0.388608 0.267066
O O7 0.278552 0.439245 0.206734
O O8 0.300386 0.443249 0.348534
O O9 0.646026 0.146026 0.134786
O O10 0.941770 0.796553 0.500000
O O11 0.061819 0.888767 0.575206
#
# Coordination Sequence:
#
# PCOD9564360 Si02
#       5
#     8   8  16  16  16
#     4  11  23  39  54  71  98 125 152 195 253 292
#     4   9  18  36  56  66  87 123 159 205 240 264
#     4   9  17  31  48  71 105 131 152 196 250 284
#     4  11  21  36  52  72  97 126 166 200 232 283
#     4   7  10  19  40  68  94 124 159 189 226 283
#
# _framework density 16.632071
#
# number of rings (size 3 to 8) (size 9 to 14) (size 15 to 20)
#    0.000    2.750    1.250    4.125    0.000    2.000 
#   11.250    0.000    0.000    0.750    0.000    0.875 
#    0.000    3.000    0.000    0.000    0.000    0.000 
#
# Total GULP energy -356371.506291 kJ/mol
# GULP energy per Si atom -5568.304786 kJ/mol
# Density = 1.659422 g / cm^3
# Si number density = 16.632071 Si / 1000 Ang^3
#
#
#
# Elastic Constant Matrix: (Units=GPa)
#
#
# Indices 1 2 3 4 5 6 
#
# 1 48.0106 18.8946 49.8463 0.0000 0.0000 0.0000
# 2 18.8946 48.0106 49.8463 0.0000 0.0000 0.0000
# 3 49.8463 49.8463 210.6691 0.0000 0.0000 0.0000
# 4 0.0000 0.0000 0.0000 -1.3425 0.0000 0.0000
# 5 0.0000 0.0000 0.0000 0.0000 -1.3425 0.0000
# 6 0.0000 0.0000 0.0000 0.0000 0.0000 4.5198
#
#
#
# Elastic Compliance Matrix: (Units=1/GPa)
#
#
# Indices 1 2 3 4 5 6 
#
# 1 0.028716 -0.005630 -0.005462 0.000000 0.000000 0.000000
# 2 -0.005630 0.028716 -0.005462 0.000000 0.000000 0.000000
# 3 -0.005462 -0.005462 0.007332 0.000000 0.000000 0.000000
# 4 0.000000 0.000000 0.000000 -0.744868 0.000000 0.000000
# 5 0.000000 0.000000 0.000000 0.000000 -0.744868 0.000000
# 6 0.000000 0.000000 0.000000 0.000000 0.000000 0.221248
#
#
# Mechanical properties :
#
#
# Convention : Reuss Voigt Hill
#
# Bulk Modulus (GPa) = 31.59180 60.42943 46.01061
# Shear Modulus (GPa) = -4.31011 12.90716 4.29853
#
# Velocity S-wave (km/s) = -1.61154 2.78877 1.60938
# Velocity P-wave (km/s) = 3.94626 6.83971 5.58366
#
# Compressibility (1/GPa) = 0.03165379
#
# Stress axis : x y z
#
# Youngs Moduli (GPa) = 34.82437 34.82437 136.39519
#
# Poissons Ratio (x) = 0.19606 0.74503
# Poissons Ratio (y) = 0.19606 0.74503
# Poissons Ratio (z) = 0.19022 0.19022
#
# Static dielectric constant tensor:
#      x y z
#    x 1.550190 0.000000 0.000000 
#    y 0.000000 1.550190 0.000000 
#    z 0.000000 0.000000 1.594850 
# 
# From -- ./inp_files/4874.got.cif
#   From: 2010.05.17/outbox.cif.g08.bks.cpg/sg127_3_cif.got.tgz:4874.got - 2010.05.20 12:03:00.
