data_PCOD9564595
_publ_section_title
;
Structure prediction by ZEFSAII (Michael W. Deem and Ramdas Pophale) SiO2 
 PCOD9564595
Probable space group: P 4/M N C
;
_chemical_formula_sum "Si O2"
_cell_formula_units_Z 96
_cell_length_a 25.685672
_cell_length_b 25.685672
_cell_length_c 9.069353
_cell_angle_alpha 90.000000
_cell_angle_beta 90.000000
_cell_angle_gamma 90.000000
_cell_volume 5983.539616
_symmetry_space_group_name_H-M "P 4/M N C"
_symmetry_group_IT_number 128
_symmetry_cell_setting 'tetragonal'
loop_
_space_group_symop_operation_xyz
x,y,z
-y,x,z
-x,-y,z
y,-x,z
1/2+x,1/2-y,1/2-z
1/2-x,1/2+y,1/2-z
1/2+y,1/2+x,1/2-z
1/2-y,1/2-x,1/2-z
-x,-y,-z
y,-x,-z
x,y,-z
-y,x,-z
1/2-x,1/2+y,1/2+z
1/2+x,1/2-y,1/2+z
1/2-y,1/2-x,1/2+z
1/2+y,1/2+x,1/2+z
loop_
_atom_site_type_symbol
_atom_site_label
_atom_site_fract_x
_atom_site_fract_y
_atom_site_fract_z
Si Si1 0.309417 0.889237 0.178016
Si Si2 0.894244 0.803704 0.676157
Si Si3 0.500201 0.686754 0.330917
Si Si4 0.494043 0.186953 0.668439
Si Si5 0.809683 0.388435 0.824617
Si Si6 0.106363 0.811885 0.324014
O O1 0.346649 0.846649 0.250000
O O2 0.251343 0.884325 0.243933
O O3 0.329453 0.947851 0.213727
O O4 0.307457 0.884934 0.000000
O O5 0.897562 0.795617 0.500000
O O6 0.848437 0.844604 0.707710
O O7 0.948981 0.825748 0.736947
O O8 0.495068 0.669531 0.500000
O O9 0.502954 0.749970 0.331384
O O10 0.554383 0.669602 0.258834
O O11 0.484071 0.170247 0.500000
O O12 0.445557 0.172613 0.769815
O O13 0.844481 0.344481 0.750000
O O14 0.748482 0.382909 0.784078
O O15 0.813919 0.384922 0.000000
O O16 0.096597 0.813070 0.500000
#
# Coordination Sequence:
#
# PCOD9564595 Si02
#       6
#    16  16  16  16  16  16
#     4  10  20  33  50  73 100 129 162 199 242 289
#     4  10  19  32  50  72 100 130 162 200 241 288
#     4   9  17  30  49  71  94 124 162 201 240 284
#     4   8  16  31  48  67  91 121 159 197 232 277
#     4  10  19  31  48  70  96 125 158 194 235 282
#     4   9  19  33  49  71  97 129 164 197 238 286
#
# _framework density 16.044015000000002
#
# number of rings (size 3 to 8) (size 9 to 14) (size 15 to 20)
#    0.000    2.667    0.000    3.000    0.000    7.333 
#    0.000    1.667    0.000    1.000    0.000    7.000 
#    0.000    0.000    0.000    0.000    0.000    0.000 
#
# Total GULP energy -534925.650663 kJ/mol
# GULP energy per Si atom -5572.142194 kJ/mol
# Density = 1.600750 g / cm^3
# Si number density = 16.044015 Si / 1000 Ang^3
#
#
#
# Elastic Constant Matrix: (Units=GPa)
#
#
# Indices 1 2 3 4 5 6 
#
# 1 96.2070 65.2575 60.6996 0.0000 0.0000 0.0000
# 2 65.2575 96.2070 60.6996 0.0000 0.0000 0.0000
# 3 60.6996 60.6996 78.0022 0.0000 0.0000 0.0000
# 4 0.0000 0.0000 0.0000 25.1863 0.0000 0.0000
# 5 0.0000 0.0000 0.0000 0.0000 25.1863 0.0000
# 6 0.0000 0.0000 0.0000 0.0000 0.0000 -3.6200
#
#
#
# Elastic Compliance Matrix: (Units=1/GPa)
#
#
# Indices 1 2 3 4 5 6 
#
# 1 0.023619 -0.008692 -0.011616 0.000000 0.000000 0.000000
# 2 -0.008692 0.023619 -0.011616 0.000000 0.000000 0.000000
# 3 -0.011616 -0.011616 0.030898 0.000000 0.000000 0.000000
# 4 0.000000 0.000000 0.000000 0.039704 0.000000 0.000000
# 5 0.000000 0.000000 0.000000 0.000000 0.039704 0.000000
# 6 0.000000 0.000000 0.000000 0.000000 0.000000 -0.276246
#
#
# Mechanical properties :
#
#
# Convention : Reuss Voigt Hill
#
# Bulk Modulus (GPa) = 69.98352 71.52553 70.75452
# Shear Modulus (GPa) = -99.81442 14.93450 -42.43996
#
# Velocity S-wave (km/s) = -7.89607 3.05429 -5.14875
# Velocity P-wave (km/s) = 6.27823 7.55750 2.97486
#
# Compressibility (1/GPa) = 0.01428908
#
# Stress axis : x y z
#
# Youngs Moduli (GPa) = 42.33935 42.33935 32.36433
#
# Poissons Ratio (x) = 0.36801 0.37593
# Poissons Ratio (y) = 0.36801 0.37593
# Poissons Ratio (z) = 0.49180 0.49180
#
# Static dielectric constant tensor:
#      x y z
#    x 1.526040 0.000000 0.000000 
#    y 0.000000 1.526040 0.000000 
#    z 0.000000 0.000000 1.539210 
# 
# From -- ./inp_files/1520.got.cif
#   From: 2010.05.17/outbox.cif.g08.bks.cpg/sg128_1_cif.got.tgz:1520.got - 2010.05.20 12:07:25.
