data_PCOD9564101
_publ_section_title
;
Structure prediction by ZEFSAII (Michael W. Deem and Ramdas Pophale) SiO2 
 PCOD9564101
Probable space group: P 4/M B M
;
_chemical_formula_sum "Si O2"
_cell_formula_units_Z 96
_cell_length_a 23.979311
_cell_length_b 23.979311
_cell_length_c 9.034472
_cell_angle_alpha 90.000000
_cell_angle_beta 90.000000
_cell_angle_gamma 90.000000
_cell_volume 5194.887858
_symmetry_space_group_name_H-M "P 4/M B M"
_symmetry_group_IT_number 127
_symmetry_cell_setting 'tetragonal'
loop_
_space_group_symop_operation_xyz
x,y,z
-y,x,z
-x,-y,z
y,-x,z
1/2+x,1/2-y,-z
1/2-x,1/2+y,-z
1/2+y,1/2+x,-z
1/2-y,1/2-x,-z
-x,-y,-z
y,-x,-z
x,y,-z
-y,x,-z
1/2-x,1/2+y,z
1/2+x,1/2-y,z
1/2-y,1/2-x,z
1/2+y,1/2+x,z
loop_
_atom_site_type_symbol
_atom_site_label
_atom_site_fract_x
_atom_site_fract_y
_atom_site_fract_z
Si Si1 0.814576 0.596349 0.821716
Si Si2 0.330739 0.711384 0.830062
Si Si3 0.364012 0.227835 0.175500
Si Si4 0.357278 0.505877 0.668894
Si Si5 0.103942 0.904263 0.166001
Si Si6 0.226702 0.514500 0.326710
O O1 0.873461 0.626540 0.793793
O O2 0.766692 0.640176 0.766697
O O3 0.807109 0.535533 0.750704
O O4 0.807104 0.591248 0.000000
O O5 0.277159 0.677807 0.767577
O O6 0.379274 0.665638 0.833965
O O7 0.314831 0.725283 0.000000
O O8 0.329181 0.170820 0.188496
O O9 0.424091 0.223650 0.253063
O O10 0.373576 0.239814 0.000000
O O11 0.373760 0.495382 0.500000
O O12 0.391902 0.466911 0.778025
O O13 0.369461 0.568327 0.718206
O O14 0.291555 0.496393 0.683721
O O15 0.081448 0.898837 0.000000
O O16 0.212167 0.518747 0.500000
#
# Coordination Sequence:
#
# PCOD9564101 Si02
#       6
#    16  16  16  16  16  16
#     4  10  20  36  60  88 116 147 187 232 279 332
#     4   9  17  31  55  86 116 143 178 231 283 326
#     4  10  20  36  60  88 116 147 187 232 279 332
#     4  11  23  38  54  77 112 152 192 235 282 332
#     4  11  21  35  58  81 105 146 196 242 280 327
#     4  11  23  37  56  81 116 155 187 223 275 340
#
# _framework density 18.479707000000001
#
# number of rings (size 3 to 8) (size 9 to 14) (size 15 to 20)
#    0.000    1.667    3.333    2.000    0.000    4.333 
#    0.000    2.500    0.000    2.500    0.000    3.500 
#    0.000    0.000    0.000    0.000    0.000    0.000 
#
# Total GULP energy -535246.362145 kJ/mol
# GULP energy per Si atom -5575.482939 kJ/mol
# Density = 1.843765 g / cm^3
# Si number density = 18.479707 Si / 1000 Ang^3
#
#
#
# Elastic Constant Matrix: (Units=GPa)
#
#
# Indices 1 2 3 4 5 6 
#
# 1 48.8561 38.4305 29.9211 0.0000 0.0000 0.0000
# 2 38.4305 48.8561 29.9211 0.0000 0.0000 0.0000
# 3 29.9211 29.9211 45.5243 0.0000 0.0000 0.0000
# 4 0.0000 0.0000 0.0000 16.7554 0.0000 0.0000
# 5 0.0000 0.0000 0.0000 0.0000 16.7554 0.0000
# 6 0.0000 0.0000 0.0000 0.0000 0.0000 26.3210
#
#
#
# Elastic Compliance Matrix: (Units=1/GPa)
#
#
# Indices 1 2 3 4 5 6 
#
# 1 0.058385 -0.037532 -0.013706 0.000000 0.000000 0.000000
# 2 -0.037532 0.058385 -0.013706 0.000000 0.000000 0.000000
# 3 -0.013706 -0.013706 0.039982 0.000000 0.000000 0.000000
# 4 0.000000 0.000000 0.000000 0.059682 0.000000 0.000000
# 5 0.000000 0.000000 0.000000 0.000000 0.059682 0.000000
# 6 0.000000 0.000000 0.000000 0.000000 0.000000 0.037992
#
#
# Mechanical properties :
#
#
# Convention : Reuss Voigt Hill
#
# Bulk Modulus (GPa) = 37.22228 37.75354 37.48791
# Shear Modulus (GPa) = 11.03869 14.96394 13.00132
#
# Velocity S-wave (km/s) = 2.44671 2.84870 2.65532
# Velocity P-wave (km/s) = 5.30734 5.59412 5.45261
#
# Compressibility (1/GPa) = 0.02686563
#
# Stress axis : x y z
#
# Youngs Moduli (GPa) = 17.12765 17.12765 25.01098
#
# Poissons Ratio (x) = 0.64284 0.34279
# Poissons Ratio (y) = 0.64284 0.34279
# Poissons Ratio (z) = 0.23474 0.23474
#
# Static dielectric constant tensor:
#      x y z
#    x 1.644470 0.000000 0.000000 
#    y 0.000000 1.644470 0.000000 
#    z 0.000000 0.000000 1.633680 
# 
# From -- ./inp_files/1924.got.cif
#   From: 2010.05.17/outbox.cif.g08.bks.cpg/sg127_1_cif.got.tgz:1924.got - 2010.05.20 12:03:00.
