data_PCOD9564187
_publ_section_title
;
Structure prediction by ZEFSAII (Michael W. Deem and Ramdas Pophale) SiO2 
 PCOD9564187
Probable space group: P 4/M B M
;
_chemical_formula_sum "Si O2"
_cell_formula_units_Z 72
_cell_length_a 21.087079
_cell_length_b 21.087079
_cell_length_c 7.835881
_cell_angle_alpha 90.000000
_cell_angle_beta 90.000000
_cell_angle_gamma 90.000000
_cell_volume 3484.341247
_symmetry_space_group_name_H-M "P 4/M B M"
_symmetry_group_IT_number 127
_symmetry_cell_setting 'tetragonal'
loop_
_space_group_symop_operation_xyz
x,y,z
-y,x,z
-x,-y,z
y,-x,z
1/2+x,1/2-y,-z
1/2-x,1/2+y,-z
1/2+y,1/2+x,-z
1/2-y,1/2-x,-z
-x,-y,-z
y,-x,-z
x,y,-z
-y,x,-z
1/2-x,1/2+y,z
1/2+x,1/2-y,z
1/2-y,1/2-x,z
1/2+y,1/2+x,z
loop_
_atom_site_type_symbol
_atom_site_label
_atom_site_fract_x
_atom_site_fract_y
_atom_site_fract_z
Si Si1 0.498489 0.101938 0.291748
Si Si2 0.576124 0.427645 0.000000
Si Si3 0.406672 0.334674 0.304166
Si Si4 0.830588 0.771560 0.202980
Si Si5 0.476425 0.756096 0.294028
O O1 0.497945 0.103220 0.500000
O O2 0.557567 0.057567 0.241324
O O3 0.507101 0.173278 0.231235
O O4 0.434836 0.065165 0.237906
O O5 0.585960 0.502645 0.000000
O O6 0.607946 0.402987 0.828378
O O7 0.417459 0.354362 0.500000
O O8 0.336225 0.305644 0.289706
O O9 0.465410 0.290437 0.248408
O O10 0.789334 0.710667 0.258552
O O11 0.905402 0.761933 0.238876
O O12 0.822858 0.778705 0.000000
O O13 0.475425 0.756826 0.500000
#
# Coordination Sequence:
#
# PCOD9564187 Si02
#       5
#    16   8  16  16  16
#     4   8  14  27  50  82 119 156 198 252 314 381
#     4  11  24  42  65  90 122 161 199 256 322 378
#     4  11  24  41  64  94 126 165 214 264 320 387
#     4  11  24  41  63  92 128 172 219 266 323 390
#     4  10  21  36  60  91 122 162 213 267 321 385
#
# _framework density 20.663876999999999
#
# number of rings (size 3 to 8) (size 9 to 14) (size 15 to 20)
#    0.000    1.889    1.111    3.333    1.556    6.222 
#    0.000    3.333    0.000    0.667    0.000    3.111 
#    0.000    0.000    0.000    0.000    0.000    0.000 
#
# Total GULP energy -402016.984316 kJ/mol
# GULP energy per Si atom -5583.569227 kJ/mol
# Density = 2.061684 g / cm^3
# Si number density = 20.663877 Si / 1000 Ang^3
#
#
#
# Elastic Constant Matrix: (Units=GPa)
#
#
# Indices 1 2 3 4 5 6 
#
# 1 163.4386 22.8280 20.5741 0.0000 0.0000 0.0000
# 2 22.8280 163.4386 20.5741 0.0000 0.0000 0.0000
# 3 20.5741 20.5741 54.0734 0.0000 0.0000 0.0000
# 4 0.0000 0.0000 0.0000 59.4545 0.0000 0.0000
# 5 0.0000 0.0000 0.0000 0.0000 59.4545 0.0000
# 6 0.0000 0.0000 0.0000 0.0000 0.0000 11.5093
#
#
#
# Elastic Compliance Matrix: (Units=1/GPa)
#
#
# Indices 1 2 3 4 5 6 
#
# 1 0.006487 -0.000625 -0.002230 0.000000 0.000000 0.000000
# 2 -0.000625 0.006487 -0.002230 0.000000 0.000000 0.000000
# 3 -0.002230 -0.002230 0.020190 0.000000 0.000000 0.000000
# 4 0.000000 0.000000 0.000000 0.016820 0.000000 0.000000
# 5 0.000000 0.000000 0.000000 0.000000 0.016820 0.000000
# 6 0.000000 0.000000 0.000000 0.000000 0.000000 0.086886
#
#
# Mechanical properties :
#
#
# Convention : Reuss Voigt Hill
#
# Bulk Modulus (GPa) = 43.49242 56.54476 50.01859
# Shear Modulus (GPa) = 29.15046 47.21531 38.18288
#
# Velocity S-wave (km/s) = 3.76000 4.78527 4.30328
# Velocity P-wave (km/s) = 6.32008 7.61283 6.99638
#
# Compressibility (1/GPa) = 0.02299251
#
# Stress axis : x y z
#
# Youngs Moduli (GPa) = 154.16458 154.16458 49.52843
#
# Poissons Ratio (x) = 0.09639 0.11045
# Poissons Ratio (y) = 0.09639 0.11045
# Poissons Ratio (z) = 0.34381 0.34381
#
# Static dielectric constant tensor:
#      x y z
#    x 1.745680 0.000000 0.000000 
#    y 0.000000 1.745680 0.000000 
#    z 0.000000 0.000000 1.754480 
# 
# From -- ./inp_files/1521.got.cif
#   From: 2010.05.17/outbox.cif.g08.bks.cpg/sg127_1_cif.got.tgz:1521.got - 2010.05.20 12:03:00.
