data_PCOD9564578
_publ_section_title
;
Structure prediction by ZEFSAII (Michael W. Deem and Ramdas Pophale) SiO2 
 PCOD9564578
Probable space group: P 4/M N C
;
_chemical_formula_sum "Si O2"
_cell_formula_units_Z 80
_cell_length_a 13.730102
_cell_length_b 13.730102
_cell_length_c 26.611494
_cell_angle_alpha 90.000000
_cell_angle_beta 90.000000
_cell_angle_gamma 90.000000
_cell_volume 5016.684444
_symmetry_space_group_name_H-M "P 4/M N C"
_symmetry_group_IT_number 128
_symmetry_cell_setting 'tetragonal'
loop_
_space_group_symop_operation_xyz
x,y,z
-y,x,z
-x,-y,z
y,-x,z
1/2+x,1/2-y,1/2-z
1/2-x,1/2+y,1/2-z
1/2+y,1/2+x,1/2-z
1/2-y,1/2-x,1/2-z
-x,-y,-z
y,-x,-z
x,y,-z
-y,x,-z
1/2-x,1/2+y,1/2+z
1/2+x,1/2-y,1/2+z
1/2-y,1/2-x,1/2+z
1/2+y,1/2+x,1/2+z
loop_
_atom_site_type_symbol
_atom_site_label
_atom_site_fract_x
_atom_site_fract_y
_atom_site_fract_z
Si Si1 0.870238 0.094797 0.772207
Si Si2 0.765291 0.678401 0.641096
Si Si3 0.856831 0.255726 0.298900
Si Si4 0.582990 0.362738 0.560156
Si Si5 0.892210 0.544970 0.805657
O O1 0.800129 0.133163 0.814592
O O2 0.848790 0.142640 0.718368
O O3 0.980234 0.130645 0.778297
O O4 0.743379 0.792530 0.650734
O O5 0.722506 0.636614 0.589761
O O6 0.873621 0.642836 0.654914
O O7 0.808892 0.308892 0.250000
O O8 0.959094 0.311529 0.304063
O O9 0.629039 0.468293 0.573636
O O10 0.589124 0.352328 0.500000
O O11 0.906030 0.593971 0.750000
O O12 0.000000 0.500000 0.816854
#
# Coordination Sequence:
#
# PCOD9564578 Si02
#       5
#    16  16  16  16  16
#     4  10  19  29  46  70 100 130 167 212 245 286
#     4  11  21  30  52  73  96 133 177 208 248 302
#     4  10  19  32  45  67 101 138 174 199 238 293
#     4   9  19  35  54  75  99 125 158 209 267 312
#     4  11  21  33  48  71 111 147 170 204 252 301
#
# _framework density 15.946785999999999
#
# number of rings (size 3 to 8) (size 9 to 14) (size 15 to 20)
#    0.000    1.800    2.000    6.000    5.600    1.600 
#    0.000    0.000    0.000    1.800    0.000    0.000 
#    0.000    0.000    0.000    6.200    0.000    0.000 
#
# Total GULP energy -445483.258796 kJ/mol
# GULP energy per Si atom -5568.540735 kJ/mol
# Density = 1.591049 g / cm^3
# Si number density = 15.946786 Si / 1000 Ang^3
#
#
#
# Elastic Constant Matrix: (Units=GPa)
#
#
# Indices 1 2 3 4 5 6 
#
# 1 85.0780 5.4483 20.1294 0.0000 0.0000 0.0000
# 2 5.4483 85.0784 20.1296 0.0000 0.0000 0.0000
# 3 20.1294 20.1296 35.5198 0.0000 0.0000 0.0000
# 4 0.0000 0.0000 0.0000 13.8141 0.0000 0.0000
# 5 0.0000 0.0000 0.0000 0.0000 13.8119 0.0000
# 6 0.0000 0.0000 0.0000 0.0000 0.0000 24.5240
#
#
#
# Elastic Compliance Matrix: (Units=1/GPa)
#
#
# Indices 1 2 3 4 5 6 
#
# 1 0.013663 0.001105 -0.008370 0.000000 0.000000 0.000000
# 2 0.001105 0.013663 -0.008370 0.000000 0.000000 0.000000
# 3 -0.008370 -0.008370 0.037640 0.000000 0.000000 0.000000
# 4 0.000000 0.000000 0.000000 0.072390 0.000000 0.000000
# 5 0.000000 0.000000 0.000000 0.000000 0.072401 0.000000
# 6 0.000000 0.000000 0.000000 0.000000 0.000000 0.040776
#
#
# Mechanical properties :
#
#
# Convention : Reuss Voigt Hill
#
# Bulk Modulus (GPa) = 29.67485 33.01009 31.34247
# Shear Modulus (GPa) = 17.06285 21.09460 19.07872
#
# Velocity S-wave (km/s) = 3.27461 3.64099 3.46265
# Velocity P-wave (km/s) = 5.73991 6.19846 5.97358
#
# Compressibility (1/GPa) = 0.03369857
#
# Stress axis : x y z
#
# Youngs Moduli (GPa) = 73.18848 73.18865 26.56782
#
# Poissons Ratio (x) = -0.08089 0.22236
# Poissons Ratio (y) = -0.08089 0.22236
# Poissons Ratio (z) = 0.61255 0.61256
#
# Static dielectric constant tensor:
#      x y z
#    x 1.626080 0.000000 0.000000 
#    y 0.000000 1.626080 0.000000 
#    z 0.000000 0.000000 1.515430 
# 
# From -- ./inp_files/5545.got.cif
#   From: 2010.05.17/outbox.cif.g08.bks.cpg/sg128_3_cif.got.tgz:5545.got - 2010.05.20 12:07:25.
