data_PCOD9564028
_publ_section_title
;
Structure prediction by ZEFSAII (Michael W. Deem and Ramdas Pophale) SiO2 
 PCOD9564028
Probable space group: P 4/M B M
;
_chemical_formula_sum "Si O2"
_cell_formula_units_Z 116
_cell_length_a 26.472303
_cell_length_b 26.472303
_cell_length_c 7.653821
_cell_angle_alpha 90.000000
_cell_angle_beta 90.000000
_cell_angle_gamma 90.000000
_cell_volume 5363.666311
_symmetry_space_group_name_H-M "P 4/M B M"
_symmetry_group_IT_number 127
_symmetry_cell_setting 'tetragonal'
loop_
_space_group_symop_operation_xyz
x,y,z
-y,x,z
-x,-y,z
y,-x,z
1/2+x,1/2-y,-z
1/2-x,1/2+y,-z
1/2+y,1/2+x,-z
1/2-y,1/2-x,-z
-x,-y,-z
y,-x,-z
x,y,-z
-y,x,-z
1/2-x,1/2+y,z
1/2+x,1/2-y,z
1/2-y,1/2-x,z
1/2+y,1/2+x,z
loop_
_atom_site_type_symbol
_atom_site_label
_atom_site_fract_x
_atom_site_fract_y
_atom_site_fract_z
Si Si1 0.488184 0.795712 0.287804
Si Si2 0.794039 0.625505 0.792571
Si Si3 0.993811 0.817843 0.701775
Si Si4 0.725988 0.339103 0.702484
Si Si5 0.076927 0.020489 0.208521
Si Si6 0.620488 0.321472 0.789611
Si Si7 0.676733 0.904577 0.288753
Si Si8 0.262866 0.237135 0.000000
O O1 0.487613 0.795427 0.500000
O O2 0.432150 0.812048 0.232959
O O3 0.496590 0.738297 0.219652
O O4 0.537488 0.826604 0.229774
O O5 0.832965 0.667036 0.721426
O O6 0.736699 0.628717 0.725347
O O7 0.790039 0.634748 0.000000
O O8 0.004672 0.810564 0.500000
O O9 0.027855 0.864228 0.759971
O O10 0.935660 0.834241 0.729456
O O11 0.735798 0.324620 0.500000
O O12 0.667340 0.353440 0.719384
O O13 0.767945 0.381280 0.748345
O O14 0.734178 0.295564 0.845346
O O15 0.059085 0.965297 0.275299
O O16 0.071894 0.020913 0.000000
O O17 0.620110 0.323381 0.000000
O O18 0.672570 0.905149 0.500000
O O19 0.634448 0.865553 0.221745
#
# Coordination Sequence:
#
# PCOD9564028 Si02
#       8
#    16  16  16  16  16  16  16   4
#     4   9  19  36  54  77 107 138 177 220 268 331
#     4   9  19  34  54  78 108 139 173 221 272 326
#     4  10  20  34  52  77 109 139 172 221 278 333
#     4  11  22  36  55  81 114 150 188 232 277 325
#     4   9  19  36  56  75  97 132 181 234 282 328
#     4  10  20  34  54  77 109 147 185 223 270 328
#     4   9  18  35  57  78 106 143 181 228 279 320
#     4  12  22  36  52  78 116 152 187 232 269 338
#
# _framework density 21.626998
#
# number of rings (size 3 to 8) (size 9 to 14) (size 15 to 20)
#    0.000    2.345    1.379    1.448    0.966    3.034 
#    1.241    2.069    0.000    0.414    0.000    2.897 
#    0.000    0.000    0.000    0.000    0.000    0.000 
#
# Total GULP energy -646293.694492 kJ/mol
# GULP energy per Si atom -5571.497366 kJ/mol
# Density = 2.157777 g / cm^3
# Si number density = 21.626998 Si / 1000 Ang^3
#
#
#
# Elastic Constant Matrix: (Units=GPa)
#
#
# Indices 1 2 3 4 5 6 
#
# 1 17.3718 108.4842 -9.8482 0.0000 0.0000 0.0000
# 2 108.4842 17.3716 -9.8490 0.0000 0.0000 0.0000
# 3 -9.8482 -9.8490 46.4891 0.0000 0.0000 0.0000
# 4 0.0000 0.0000 0.0000 -34.6010 0.0000 0.0000
# 5 0.0000 0.0000 0.0000 0.0000 -34.6013 0.0000
# 6 0.0000 0.0000 0.0000 0.0000 0.0000 9.6931
#
#
#
# Elastic Compliance Matrix: (Units=1/GPa)
#
#
# Indices 1 2 3 4 5 6 
#
# 1 -0.001379 0.009597 0.001741 0.000000 0.000000 0.000000
# 2 0.009597 -0.001379 0.001741 0.000000 0.000000 0.000000
# 3 0.001741 0.001741 0.022248 0.000000 0.000000 0.000000
# 4 0.000000 0.000000 0.000000 -0.028901 0.000000 0.000000
# 5 0.000000 0.000000 0.000000 0.000000 -0.028901 0.000000
# 6 0.000000 0.000000 0.000000 0.000000 0.000000 0.103166
#
#
# Mechanical properties :
#
#
# Convention : Reuss Voigt Hill
#
# Bulk Modulus (GPa) = 21.90674 28.75630 25.33152
# Shear Modulus (GPa) = 92.74049 -12.40547 40.16751
#
# Velocity S-wave (km/s) = 6.55552 -2.39761 4.31430
# Velocity P-wave (km/s) = 8.21287 2.37920 6.04615
#
# Compressibility (1/GPa) = 0.04564805
#
# Stress axis : x y z
#
# Youngs Moduli (GPa) = -725.33832 -725.31265 44.94778
#
# Poissons Ratio (x) = 6.96065 -0.07826
# Poissons Ratio (y) = 6.96090 -0.07825
# Poissons Ratio (z) = 1.26287 1.26267
#
# Static dielectric constant tensor:
#      x y z
#    x 1.820600 0.000000 0.000000 
#    y 0.000000 1.820600 0.000000 
#    z 0.000000 0.000000 1.800210 
# 
# From -- ./inp_files/2394.got.cif
#   From: 2010.05.17/outbox.cif.g08.bks.cpg/sg127_2_cif.got.tgz:2394.got - 2010.05.20 12:03:00.
