data_PCOD9564624
_publ_section_title
;
Structure prediction by ZEFSAII (Michael W. Deem and Ramdas Pophale) SiO2 
 PCOD9564624
Probable space group: P 4/M N C
;
_chemical_formula_sum "Si O2"
_cell_formula_units_Z 120
_cell_length_a 25.724495
_cell_length_b 25.724495
_cell_length_c 10.115274
_cell_angle_alpha 90.000000
_cell_angle_beta 90.000000
_cell_angle_gamma 90.000000
_cell_volume 6693.778958
_symmetry_space_group_name_H-M "P 4/M N C"
_symmetry_group_IT_number 128
_symmetry_cell_setting 'tetragonal'
loop_
_space_group_symop_operation_xyz
x,y,z
-y,x,z
-x,-y,z
y,-x,z
1/2+x,1/2-y,1/2-z
1/2-x,1/2+y,1/2-z
1/2+y,1/2+x,1/2-z
1/2-y,1/2-x,1/2-z
-x,-y,-z
y,-x,-z
x,y,-z
-y,x,-z
1/2-x,1/2+y,1/2+z
1/2+x,1/2-y,1/2+z
1/2-y,1/2-x,1/2+z
1/2+y,1/2+x,1/2+z
loop_
_atom_site_type_symbol
_atom_site_label
_atom_site_fract_x
_atom_site_fract_y
_atom_site_fract_z
Si Si1 0.488855 0.680419 0.149036
Si Si2 0.478000 0.199770 0.851080
Si Si3 0.666237 0.262957 0.855343
Si Si4 0.392882 0.227609 0.349246
Si Si5 0.274380 0.225621 0.750000
Si Si6 0.324195 0.394473 0.650658
Si Si7 0.846362 0.935017 0.143708
Si Si8 0.160168 0.406079 0.846129
O O1 0.511712 0.738420 0.138870
O O2 0.441480 0.685491 0.250090
O O3 0.529813 0.645420 0.228482
O O4 0.476343 0.663107 0.000000
O O5 0.430901 0.195151 0.747587
O O6 0.534494 0.176274 0.813020
O O7 0.464677 0.181343 0.000000
O O8 0.728590 0.261603 0.854378
O O9 0.652518 0.296691 0.727192
O O10 0.633560 0.209636 0.838610
O O11 0.649551 0.284258 0.000000
O O12 0.395226 0.208262 0.500000
O O13 0.333396 0.229545 0.301613
O O14 0.414136 0.287018 0.350859
O O15 0.305199 0.401504 0.500000
O O16 0.385120 0.382791 0.645505
O O17 0.852322 0.962234 0.000000
O O18 0.116733 0.383268 0.750000
O O19 0.144075 0.405645 0.000000
#
# Coordination Sequence:
#
# PCOD9564624 Si02
#       8
#    16  16  16  16   8  16  16  16
#     4  10  19  33  53  76 102 136 180 226 272 321
#     4   9  19  36  53  74 105 141 184 228 268 317
#     4  11  22  34  50  76 113 151 184 220 265 329
#     4  10  21  36  53  76 106 144 189 227 261 319
#     4  12  22  36  54  82 117 154 186 223 278 328
#     4  11  21  34  53  75 105 142 180 222 270 322
#     4   9  19  35  51  74 103 135 180 226 268 319
#     4  10  20  35  53  79 111 144 181 222 272 328
#
# _framework density 17.927092999999999
#
# number of rings (size 3 to 8) (size 9 to 14) (size 15 to 20)
#    0.000    1.867    3.333    1.200    0.000    4.267 
#    0.000    0.000    0.000    0.400    0.000    3.267 
#    0.000    3.200    0.000    0.000    0.000    0.000 
#
# Total GULP energy -668180.608054 kJ/mol
# GULP energy per Si atom -5568.171734 kJ/mol
# Density = 1.788629 g / cm^3
# Si number density = 17.927093 Si / 1000 Ang^3
#
#
#
# Elastic Constant Matrix: (Units=GPa)
#
#
# Indices 1 2 3 4 5 6 
#
# 1 54.3658 -0.3049 36.4974 0.0000 0.0000 0.0000
# 2 -0.3049 54.3630 36.4963 0.0000 0.0000 0.0000
# 3 36.4974 36.4963 147.1594 0.0000 0.0000 0.0000
# 4 0.0000 0.0000 0.0000 12.2458 0.0000 0.0000
# 5 0.0000 0.0000 0.0000 0.0000 12.2446 0.0000
# 6 0.0000 0.0000 0.0000 0.0000 0.0000 0.8304
#
#
#
# Elastic Compliance Matrix: (Units=1/GPa)
#
#
# Indices 1 2 3 4 5 6 
#
# 1 0.023051 0.004760 -0.006897 0.000000 0.000000 0.000000
# 2 0.004760 0.023052 -0.006898 0.000000 0.000000 0.000000
# 3 -0.006897 -0.006898 0.010217 0.000000 0.000000 0.000000
# 4 0.000000 0.000000 0.000000 0.081661 0.000000 0.000000
# 5 0.000000 0.000000 0.000000 0.000000 0.081668 0.000000
# 6 0.000000 0.000000 0.000000 0.000000 0.000000 1.204171
#
#
# Mechanical properties :
#
#
# Convention : Reuss Voigt Hill
#
# Bulk Modulus (GPa) = 26.14410 44.58509 35.36460
# Shear Modulus (GPa) = 3.43728 17.27747 10.35737
#
# Velocity S-wave (km/s) = 1.38619 3.10782 2.40625
# Velocity P-wave (km/s) = 4.14455 6.14836 5.24307
#
# Compressibility (1/GPa) = 0.03824955
#
# Stress axis : x y z
#
# Youngs Moduli (GPa) = 43.38199 43.37984 97.87971
#
# Poissons Ratio (x) = -0.20648 0.67512
# Poissons Ratio (y) = -0.20649 0.67513
# Poissons Ratio (z) = 0.29922 0.29921
#
# Static dielectric constant tensor:
#      x y z
#    x 1.640300 0.000000 0.000000 
#    y 0.000000 1.640310 0.000000 
#    z 0.000000 0.000000 1.669210 
# 
# From -- ./inp_files/1784.got.cif
#   From: 2010.05.17/outbox.cif.g08.bks.cpg/sg128_1_cif.got.tgz:1784.got - 2010.05.20 12:07:25.
