data_PCOD9564625
_publ_section_title
;
Structure prediction by ZEFSAII (Michael W. Deem and Ramdas Pophale) SiO2 
 PCOD9564625
Probable space group: P 4/M N C
;
_chemical_formula_sum "Si O2"
_cell_formula_units_Z 56
_cell_length_a 19.969462
_cell_length_b 19.969462
_cell_length_c 8.717677
_cell_angle_alpha 90.000000
_cell_angle_beta 90.000000
_cell_angle_gamma 90.000000
_cell_volume 3476.430113
_symmetry_space_group_name_H-M "P 4/M N C"
_symmetry_group_IT_number 128
_symmetry_cell_setting 'tetragonal'
loop_
_space_group_symop_operation_xyz
x,y,z
-y,x,z
-x,-y,z
y,-x,z
1/2+x,1/2-y,1/2-z
1/2-x,1/2+y,1/2-z
1/2+y,1/2+x,1/2-z
1/2-y,1/2-x,1/2-z
-x,-y,-z
y,-x,-z
x,y,-z
-y,x,-z
1/2-x,1/2+y,1/2+z
1/2+x,1/2-y,1/2+z
1/2-y,1/2-x,1/2+z
1/2+y,1/2+x,1/2+z
loop_
_atom_site_type_symbol
_atom_site_label
_atom_site_fract_x
_atom_site_fract_y
_atom_site_fract_z
Si Si1 0.500790 0.259847 0.325236
Si Si2 0.259179 0.346430 0.314648
Si Si3 0.889270 0.993027 0.000000
Si Si4 0.244135 0.639636 0.818110
O O1 0.496133 0.231010 0.500000
O O2 0.576243 0.249892 0.267177
O O3 0.492533 0.339346 0.356076
O O4 0.437885 0.236934 0.227162
O O5 0.199488 0.300513 0.250000
O O6 0.260517 0.344697 0.500000
O O7 0.326876 0.311078 0.254088
O O8 0.931658 0.060571 0.000000
O O9 0.183313 0.683313 0.750000
O O10 0.246282 0.648242 0.000000
#
# Coordination Sequence:
#
# PCOD9564625 Si02
#       4
#    16  16   8  16
#     4   9  19  32  51  72 102 134 175 211 257 314
#     4  10  19  33  53  77 104 137 173 218 264 317
#     4   9  16  28  50  74 100 135 172 210 248 311
#     4  11  21  33  52  75 104 137 174 221 266 315
#
# _framework density 16.108478999999999
#
# number of rings (size 3 to 8) (size 9 to 14) (size 15 to 20)
#    0.857    1.286    0.000    6.857    0.000    2.286 
#    0.000    0.000    0.000    0.857    0.000   12.000 
#    0.000    0.000    0.000    0.000    0.000    0.000 
#
# Total GULP energy -311873.357519 kJ/mol
# GULP energy per Si atom -5569.167099 kJ/mol
# Density = 1.607182 g / cm^3
# Si number density = 16.108479 Si / 1000 Ang^3
#
#
#
# Elastic Constant Matrix: (Units=GPa)
#
#
# Indices 1 2 3 4 5 6 
#
# 1 95.1965 27.5480 32.5855 0.0000 0.0000 0.0000
# 2 27.5480 95.1990 32.5881 0.0000 0.0000 0.0000
# 3 32.5855 32.5881 74.4915 0.0000 0.0000 0.0000
# 4 0.0000 0.0000 0.0000 15.6732 0.0000 0.0000
# 5 0.0000 0.0000 0.0000 0.0000 15.6724 0.0000
# 6 0.0000 0.0000 0.0000 0.0000 0.0000 -8.1395
#
#
#
# Elastic Compliance Matrix: (Units=1/GPa)
#
#
# Indices 1 2 3 4 5 6 
#
# 1 0.012697 -0.002085 -0.004642 0.000000 0.000000 0.000000
# 2 -0.002085 0.012697 -0.004642 0.000000 0.000000 0.000000
# 3 -0.004642 -0.004642 0.017486 0.000000 0.000000 0.000000
# 4 0.000000 0.000000 0.000000 0.063803 0.000000 0.000000
# 5 0.000000 0.000000 0.000000 0.000000 0.063806 0.000000
# 6 0.000000 0.000000 0.000000 0.000000 0.000000 -0.122858
#
#
# Mechanical properties :
#
#
# Convention : Reuss Voigt Hill
#
# Bulk Modulus (GPa) = 49.65084 50.03666 49.84375
# Shear Modulus (GPa) = 64.86468 16.11892 40.49180
#
# Velocity S-wave (km/s) = 6.35255 3.16673 5.01912
# Velocity P-wave (km/s) = 9.20305 6.67088 8.03731
#
# Compressibility (1/GPa) = 0.02014065
#
# Stress axis : x y z
#
# Youngs Moduli (GPa) = 78.75936 78.75964 57.18909
#
# Poissons Ratio (x) = 0.16422 0.26547
# Poissons Ratio (y) = 0.16422 0.26550
# Poissons Ratio (z) = 0.36560 0.36564
#
# Static dielectric constant tensor:
#      x y z
#    x 1.538960 0.000000 0.000000 
#    y 0.000000 1.538960 0.000000 
#    z 0.000000 0.000000 1.538160 
# 
# From -- ./inp_files/926.got.cif
#   From: 2010.05.17/outbox.cif.g08.bks.cpg/sg128_1_cif.got.tgz:926.got - 2010.05.20 12:07:25.
