data_PCOD9564422
_publ_section_title
;
Structure prediction by ZEFSAII (Michael W. Deem and Ramdas Pophale) SiO2 
 PCOD9564422
Probable space group: P 4/M B M
;
_chemical_formula_sum "Si O2"
_cell_formula_units_Z 48
_cell_length_a 11.934819
_cell_length_b 11.934819
_cell_length_c 17.067024
_cell_angle_alpha 90.000000
_cell_angle_beta 90.000000
_cell_angle_gamma 90.000000
_cell_volume 2431.025270
_symmetry_space_group_name_H-M "P 4/M B M"
_symmetry_group_IT_number 127
_symmetry_cell_setting 'tetragonal'
loop_
_space_group_symop_operation_xyz
x,y,z
-y,x,z
-x,-y,z
y,-x,z
1/2+x,1/2-y,-z
1/2-x,1/2+y,-z
1/2+y,1/2+x,-z
1/2-y,1/2-x,-z
-x,-y,-z
y,-x,-z
x,y,-z
-y,x,-z
1/2-x,1/2+y,z
1/2+x,1/2-y,z
1/2-y,1/2-x,z
1/2+y,1/2+x,z
loop_
_atom_site_type_symbol
_atom_site_label
_atom_site_fract_x
_atom_site_fract_y
_atom_site_fract_z
Si Si1 0.972668 0.813619 0.000000
Si Si2 0.593568 0.906433 0.406810
Si Si3 0.684203 0.004392 0.160481
Si Si4 0.316991 0.531013 0.315054
O O1 0.966014 0.740413 0.078214
O O2 0.877470 0.908281 0.000000
O O3 0.605000 0.895001 0.500000
O O4 0.554783 0.790394 0.368128
O O5 0.500000 0.000000 0.389711
O O6 0.597794 0.902207 0.149642
O O7 0.610269 0.110269 0.188941
O O8 0.774669 0.970074 0.225267
O O9 0.375282 0.411325 0.329022
#
# Coordination Sequence:
#
# PCOD9564422 Si02
#       4
#     8   8  16  16
#     4  11  24  39  56  86 128 173 224 278 329 387
#     4  11  26  46  72 102 136 176 219 274 342 410
#     4  11  23  39  63  93 129 171 224 276 333 393
#     4  11  25  44  70 102 136 177 225 277 334 401
#
# _framework density 19.744757
#
# number of rings (size 3 to 8) (size 9 to 14) (size 15 to 20)
#    0.000    1.000    1.667    4.000    4.667   10.667 
#    0.000    1.667    0.000    0.000    0.000    0.000 
#    0.000    0.000    0.000    0.000    0.000    0.000 
#
# Total GULP energy -268634.514250 kJ/mol
# GULP energy per Si atom -5596.552380 kJ/mol
# Density = 1.969982 g / cm^3
# Si number density = 19.744757 Si / 1000 Ang^3
#
#
#
# Elastic Constant Matrix: (Units=GPa)
#
#
# Indices 1 2 3 4 5 6 
#
# 1 121.0659 57.8472 54.3115 0.0000 0.0000 0.0000
# 2 57.8472 121.0660 54.3115 0.0000 0.0000 0.0000
# 3 54.3115 54.3115 99.6454 0.0000 0.0000 0.0000
# 4 0.0000 0.0000 0.0000 -26.2631 0.0000 0.0000
# 5 0.0000 0.0000 0.0000 0.0000 -26.2636 0.0000
# 6 0.0000 0.0000 0.0000 0.0000 0.0000 10.2476
#
#
#
# Elastic Compliance Matrix: (Units=1/GPa)
#
#
# Indices 1 2 3 4 5 6 
#
# 1 0.012086 -0.003732 -0.004553 0.000000 0.000000 0.000000
# 2 -0.003732 0.012086 -0.004553 0.000000 0.000000 0.000000
# 3 -0.004553 -0.004553 0.014999 0.000000 0.000000 0.000000
# 4 0.000000 0.000000 0.000000 -0.038076 0.000000 0.000000
# 5 0.000000 0.000000 0.000000 0.000000 -0.038076 0.000000
# 6 0.000000 0.000000 0.000000 0.000000 0.000000 0.097584
#
#
# Mechanical properties :
#
#
# Convention : Reuss Voigt Hill
#
# Bulk Modulus (GPa) = 74.10875 74.96862 74.53869
# Shear Modulus (GPa) = 55.07991 3.23134 29.15562
#
# Velocity S-wave (km/s) = 5.28739 1.28067 3.84686
# Velocity P-wave (km/s) = 8.65391 6.34335 7.58711
#
# Compressibility (1/GPa) = 0.01349368
#
# Stress axis : x y z
#
# Youngs Moduli (GPa) = 82.74123 82.74134 66.67139
#
# Poissons Ratio (x) = 0.30881 0.30356
# Poissons Ratio (y) = 0.30881 0.30356
# Poissons Ratio (z) = 0.37673 0.37673
#
# Static dielectric constant tensor:
#      x y z
#    x 1.675200 0.000000 0.000000 
#    y 0.000000 1.675200 0.000000 
#    z 0.000000 0.000000 1.651420 
# 
# From -- ./inp_files/4796.got.cif
#   From: 2010.05.17/outbox.cif.g08.bks.cpg/sg127_3_cif.got.tgz:4796.got - 2010.05.20 12:03:00.
