data_PCOD9564374
_publ_section_title
;
Structure prediction by ZEFSAII (Michael W. Deem and Ramdas Pophale) SiO2 
 PCOD9564374
Probable space group: P 4/M B M
;
_chemical_formula_sum "Si O2"
_cell_formula_units_Z 80
_cell_length_a 19.239948
_cell_length_b 19.239948
_cell_length_c 13.619341
_cell_angle_alpha 90.000000
_cell_angle_beta 90.000000
_cell_angle_gamma 90.000000
_cell_volume 5041.547713
_symmetry_space_group_name_H-M "P 4/M B M"
_symmetry_group_IT_number 127
_symmetry_cell_setting 'tetragonal'
loop_
_space_group_symop_operation_xyz
x,y,z
-y,x,z
-x,-y,z
y,-x,z
1/2+x,1/2-y,-z
1/2-x,1/2+y,-z
1/2+y,1/2+x,-z
1/2-y,1/2-x,-z
-x,-y,-z
y,-x,-z
x,y,-z
-y,x,-z
1/2-x,1/2+y,z
1/2+x,1/2-y,z
1/2-y,1/2-x,z
1/2+y,1/2+x,z
loop_
_atom_site_type_symbol
_atom_site_label
_atom_site_fract_x
_atom_site_fract_y
_atom_site_fract_z
Si Si1 0.691418 0.482197 0.883486
Si Si2 0.107917 0.392084 0.881363
Si Si3 0.275816 0.775816 0.119220
Si Si4 0.868988 0.848067 0.197847
Si Si5 0.080882 0.084111 0.384829
Si Si6 0.044101 0.654748 0.119532
O O1 0.637245 0.422663 0.855967
O O2 0.682844 0.556778 0.834109
O O3 0.765422 0.450127 0.852664
O O4 0.691826 0.493764 0.000000
O O5 0.165577 0.334424 0.859323
O O6 0.128186 0.468752 0.847422
O O7 0.105194 0.394807 0.000000
O O8 0.204699 0.808022 0.163830
O O9 0.268342 0.768342 0.000000
O O10 0.874696 0.867910 0.312412
O O11 0.093424 0.097099 0.500000
O O12 0.998084 0.094706 0.366383
O O13 0.105452 0.605452 0.154897
O O14 0.044686 0.652122 0.000000
#
# Coordination Sequence:
#
# PCOD9564374 Si02
#       6
#    16   8   8  16  16  16
#     4  11  22  33  47  71 107 145 180 214 250 314
#     4   9  15  28  47  65  91 132 175 217 254 285
#     4  11  22  35  49  72 115 155 175 209 268 327
#     4  12  22  36  53  76 104 142 182 215 269 322
#     4   9  18  36  60  83 103 128 172 232 286 326
#     4   9  17  29  45  66  92 131 182 221 247 286
#
# _framework density 15.868143
#
# number of rings (size 3 to 8) (size 9 to 14) (size 15 to 20)
#    0.000    1.800    4.000    2.700    1.400    1.600 
#    0.000    1.500    0.000    0.000    0.000    0.000 
#    0.000    0.000    0.000    1.800    0.000    0.200 
#
# Total GULP energy -445839.459673 kJ/mol
# GULP energy per Si atom -5572.993246 kJ/mol
# Density = 1.583203 g / cm^3
# Si number density = 15.868143 Si / 1000 Ang^3
#
#
#
# Elastic Constant Matrix: (Units=GPa)
#
#
# Indices 1 2 3 4 5 6 
#
# 1 58.2657 25.5109 21.9507 0.0000 0.0000 0.0000
# 2 25.5109 58.2657 21.9506 0.0000 0.0000 0.0000
# 3 21.9507 21.9506 65.8665 0.0000 0.0000 0.0000
# 4 0.0000 0.0000 0.0000 18.1576 0.0000 0.0000
# 5 0.0000 0.0000 0.0000 0.0000 18.1576 0.0000
# 6 0.0000 0.0000 0.0000 0.0000 0.0000 29.5481
#
#
#
# Elastic Compliance Matrix: (Units=1/GPa)
#
#
# Indices 1 2 3 4 5 6 
#
# 1 0.022496 -0.008034 -0.004820 0.000000 0.000000 0.000000
# 2 -0.008034 0.022496 -0.004820 0.000000 0.000000 0.000000
# 3 -0.004820 -0.004820 0.018395 0.000000 0.000000 0.000000
# 4 0.000000 0.000000 0.000000 0.055073 0.000000 0.000000
# 5 0.000000 0.000000 0.000000 0.000000 0.055073 0.000000
# 6 0.000000 0.000000 0.000000 0.000000 0.000000 0.033843
#
#
# Mechanical properties :
#
#
# Convention : Reuss Voigt Hill
#
# Bulk Modulus (GPa) = 35.66296 35.69137 35.67717
# Shear Modulus (GPa) = 19.83578 20.70502 20.27040
#
# Velocity S-wave (km/s) = 3.53942 3.61614 3.57799
# Velocity P-wave (km/s) = 6.26312 6.32271 6.29299
#
# Compressibility (1/GPa) = 0.02804030
#
# Stress axis : x y z
#
# Youngs Moduli (GPa) = 44.45236 44.45238 54.36374
#
# Poissons Ratio (x) = 0.35712 0.26201
# Poissons Ratio (y) = 0.35712 0.26201
# Poissons Ratio (z) = 0.21425 0.21424
#
# Static dielectric constant tensor:
#      x y z
#    x 1.552770 0.000000 0.000000 
#    y 0.000000 1.552770 0.000000 
#    z 0.000000 0.000000 1.512750 
# 
# From -- ./inp_files/4305.got.cif
#   From: 2010.05.17/outbox.cif.g08.bks.cpg/sg127_3_cif.got.tgz:4305.got - 2010.05.20 12:03:00.
