data_PCOD9564049
_publ_section_title
;
Structure prediction by ZEFSAII (Michael W. Deem and Ramdas Pophale) SiO2 
 PCOD9564049
Probable space group: P 4/M B M
;
_chemical_formula_sum "Si O2"
_cell_formula_units_Z 72
_cell_length_a 21.203753
_cell_length_b 21.203753
_cell_length_c 7.401404
_cell_angle_alpha 90.000000
_cell_angle_beta 90.000000
_cell_angle_gamma 90.000000
_cell_volume 3327.664883
_symmetry_space_group_name_H-M "P 4/M B M"
_symmetry_group_IT_number 127
_symmetry_cell_setting 'tetragonal'
loop_
_space_group_symop_operation_xyz
x,y,z
-y,x,z
-x,-y,z
y,-x,z
1/2+x,1/2-y,-z
1/2-x,1/2+y,-z
1/2+y,1/2+x,-z
1/2-y,1/2-x,-z
-x,-y,-z
y,-x,-z
x,y,-z
-y,x,-z
1/2-x,1/2+y,z
1/2+x,1/2-y,z
1/2-y,1/2-x,z
1/2+y,1/2+x,z
loop_
_atom_site_type_symbol
_atom_site_label
_atom_site_fract_x
_atom_site_fract_y
_atom_site_fract_z
Si Si1 0.500868 0.101626 0.218389
Si Si2 0.425352 0.573026 0.000000
Si Si3 0.391543 0.327646 0.283385
Si Si4 0.746412 0.653695 0.280449
Si Si5 0.489012 0.753186 0.292324
O O1 0.441550 0.058451 0.273044
O O2 0.498689 0.172226 0.286892
O O3 0.563632 0.063632 0.275026
O O4 0.501112 0.103824 0.000000
O O5 0.414266 0.498580 0.000000
O O6 0.392865 0.598942 0.179389
O O7 0.394688 0.334296 0.500000
O O8 0.319104 0.310289 0.239258
O O9 0.448767 0.282454 0.220609
O O10 0.751153 0.650450 0.500000
O O11 0.806524 0.693477 0.216379
O O12 0.743860 0.581263 0.213236
O O13 0.484215 0.731735 0.500000
#
# Coordination Sequence:
#
# PCOD9564049 Si02
#       5
#    16   8  16  16  16
#     4   9  19  35  53  77 113 154 193 239 299 363
#     4  11  24  40  61  88 116 151 195 246 300 356
#     4  10  22  40  61  87 120 158 199 247 305 364
#     4   9  18  35  58  84 118 155 193 245 304 361
#     4  10  20  34  58  86 111 150 200 248 300 358
#
# _framework density 21.636793999999998
#
# number of rings (size 3 to 8) (size 9 to 14) (size 15 to 20)
#    0.000    2.333    0.000    2.667    1.556    5.333 
#    2.000    5.000    0.000    0.000    0.000    0.000 
#    0.000    0.000    0.000    0.000    0.000    0.000 
#
# Total GULP energy -401840.083057 kJ/mol
# GULP energy per Si atom -5581.112265 kJ/mol
# Density = 2.158755 g / cm^3
# Si number density = 21.636794 Si / 1000 Ang^3
#
#
#
# Elastic Constant Matrix: (Units=GPa)
#
#
# Indices 1 2 3 4 5 6 
#
# 1 162.5450 0.7768 3.8169 0.0000 0.0000 0.0000
# 2 0.7768 162.5450 3.8169 0.0000 0.0000 0.0000
# 3 3.8169 3.8169 63.6751 0.0000 0.0000 0.0000
# 4 0.0000 0.0000 0.0000 -29.6753 0.0000 0.0000
# 5 0.0000 0.0000 0.0000 0.0000 -29.6753 0.0000
# 6 0.0000 0.0000 0.0000 0.0000 0.0000 1.1252
#
#
#
# Elastic Compliance Matrix: (Units=1/GPa)
#
#
# Indices 1 2 3 4 5 6 
#
# 1 0.006161 -0.000021 -0.000368 0.000000 0.000000 0.000000
# 2 -0.000021 0.006161 -0.000368 0.000000 0.000000 0.000000
# 3 -0.000368 -0.000368 0.015749 0.000000 0.000000 0.000000
# 4 0.000000 0.000000 0.000000 -0.033698 0.000000 0.000000
# 5 0.000000 0.000000 0.000000 0.000000 -0.033698 0.000000
# 6 0.000000 0.000000 0.000000 0.000000 0.000000 0.888769
#
#
# Mechanical properties :
#
#
# Convention : Reuss Voigt Hill
#
# Bulk Modulus (GPa) = 37.65518 45.06516 41.36017
# Shear Modulus (GPa) = 5.81524 13.71187 9.76356
#
# Velocity S-wave (km/s) = 1.64119 2.52013 2.12656
# Velocity P-wave (km/s) = 4.58611 5.41676 5.01865
#
# Compressibility (1/GPa) = 0.02655677
#
# Stress axis : x y z
#
# Youngs Moduli (GPa) = 162.31435 162.31435 63.49674
#
# Poissons Ratio (x) = 0.00338 0.02337
# Poissons Ratio (y) = 0.00338 0.02337
# Poissons Ratio (z) = 0.05974 0.05974
#
# Static dielectric constant tensor:
#      x y z
#    x 1.775300 0.000000 0.000000 
#    y 0.000000 1.775300 0.000000 
#    z 0.000000 0.000000 1.833430 
# 
# From -- ./inp_files/1522.got.cif
#   From: 2010.05.17/outbox.cif.g08.bks.cpg/sg127_1_cif.got.tgz:1522.got - 2010.05.20 12:03:00.
