data_PCOD9564015
_publ_section_title
;
Structure prediction by ZEFSAII (Michael W. Deem and Ramdas Pophale) SiO2 
 PCOD9564015
Probable space group: P 4/M B M
;
_chemical_formula_sum "Si O2"
_cell_formula_units_Z 96
_cell_length_a 24.587690
_cell_length_b 24.587690
_cell_length_c 7.911441
_cell_angle_alpha 90.000000
_cell_angle_beta 90.000000
_cell_angle_gamma 90.000000
_cell_volume 4782.897254
_symmetry_space_group_name_H-M "P 4/M B M"
_symmetry_group_IT_number 127
_symmetry_cell_setting 'tetragonal'
loop_
_space_group_symop_operation_xyz
x,y,z
-y,x,z
-x,-y,z
y,-x,z
1/2+x,1/2-y,-z
1/2-x,1/2+y,-z
1/2+y,1/2+x,-z
1/2-y,1/2-x,-z
-x,-y,-z
y,-x,-z
x,y,-z
-y,x,-z
1/2-x,1/2+y,z
1/2+x,1/2-y,z
1/2-y,1/2-x,z
1/2+y,1/2+x,z
loop_
_atom_site_type_symbol
_atom_site_label
_atom_site_fract_x
_atom_site_fract_y
_atom_site_fract_z
Si Si1 0.809373 0.776867 0.206603
Si Si2 0.416164 0.473915 0.206649
Si Si3 0.428926 0.698027 0.197066
Si Si4 0.133688 0.720858 0.795739
Si Si5 0.000491 0.587795 0.204402
Si Si6 0.212161 0.509826 0.693564
O O1 0.777008 0.722993 0.263379
O O2 0.870591 0.784158 0.269312
O O3 0.771905 0.828563 0.252195
O O4 0.809867 0.774610 0.000000
O O5 0.465236 0.433766 0.257875
O O6 0.357626 0.454111 0.269069
O O7 0.415309 0.474898 0.000000
O O8 0.471732 0.746807 0.205257
O O9 0.418237 0.685842 0.000000
O O10 0.166707 0.666707 0.743389
O O11 0.073246 0.722987 0.727224
O O12 0.130403 0.719916 0.000000
O O13 0.948791 0.551210 0.256200
O O14 0.054255 0.554255 0.258599
O O15 0.999214 0.649065 0.266356
O O16 0.001211 0.589013 0.000000
O O17 0.222787 0.497085 0.500000
#
# Coordination Sequence:
#
# PCOD9564015 Si02
#       6
#    16  16  16  16  16  16
#     4   8  16  32  55  83 108 133 174 227 278 323
#     4   8  15  28  49  80 108 128 166 231 293 333
#     4  10  20  33  55  80 105 144 185 229 276 322
#     4   9  18  35  60  85 108 137 179 232 278 316
#     4   9  19  38  63  86 107 137 181 231 278 322
#     4  12  25  36  49  78 118 153 183 218 263 323
#
# _framework density 20.071515999999999
#
# number of rings (size 3 to 8) (size 9 to 14) (size 15 to 20)
#    0.000    2.667    0.000    4.000    2.333    3.667 
#    0.000    3.333    0.000    1.000    0.000    1.167 
#    0.000    0.000    0.000    0.000    0.000    0.000 
#
# Total GULP energy -535711.366558 kJ/mol
# GULP energy per Si atom -5580.326735 kJ/mol
# Density = 2.002583 g / cm^3
# Si number density = 20.071516 Si / 1000 Ang^3
#
#
#
# Elastic Constant Matrix: (Units=GPa)
#
#
# Indices 1 2 3 4 5 6 
#
# 1 87.4715 134.3299 -6.9538 0.0000 0.0000 0.0000
# 2 134.3299 87.4715 -6.9538 0.0000 0.0000 0.0000
# 3 -6.9538 -6.9538 16.0100 0.0000 0.0000 0.0000
# 4 0.0000 0.0000 0.0000 -76.8599 0.0000 0.0000
# 5 0.0000 0.0000 0.0000 0.0000 -76.8599 0.0000
# 6 0.0000 0.0000 0.0000 0.0000 0.0000 15.1668
#
#
#
# Elastic Compliance Matrix: (Units=1/GPa)
#
#
# Indices 1 2 3 4 5 6 
#
# 1 -0.008353 0.012988 0.002013 0.000000 0.000000 0.000000
# 2 0.012988 -0.008353 0.002013 0.000000 0.000000 0.000000
# 3 0.002013 0.002013 0.064210 0.000000 0.000000 0.000000
# 4 0.000000 0.000000 0.000000 -0.013011 0.000000 0.000000
# 5 0.000000 0.000000 0.000000 0.000000 -0.013011 0.000000
# 6 0.000000 0.000000 0.000000 0.000000 0.000000 0.065933
#
#
# Mechanical properties :
#
#
# Convention : Reuss Voigt Hill
#
# Bulk Modulus (GPa) = 12.26520 47.97752 30.12136
# Shear Modulus (GPa) = 62.06192 -23.00854 19.52669
#
# Velocity S-wave (km/s) = 5.56664 -3.38942 3.12245
# Velocity P-wave (km/s) = 6.88772 2.93898 5.29520
#
# Compressibility (1/GPa) = 0.08153147
#
# Stress axis : x y z
#
# Youngs Moduli (GPa) = -119.71653 -119.71653 15.57398
#
# Poissons Ratio (x) = 1.55486 -0.03135
# Poissons Ratio (y) = 1.55486 -0.03135
# Poissons Ratio (z) = 0.24100 0.24100
#
# Static dielectric constant tensor:
#      x y z
#    x 1.690160 0.000000 0.000000 
#    y 0.000000 1.690160 0.000000 
#    z 0.000000 0.000000 1.721390 
# 
# From -- ./inp_files/2005.got.cif
#   From: 2010.05.17/outbox.cif.g08.bks.cpg/sg127_2_cif.got.tgz:2005.got - 2010.05.20 12:03:00.
