data_PCOD9564677
_publ_section_title
;
Structure prediction by ZEFSAII (Michael W. Deem and Ramdas Pophale) SiO2 
 PCOD9564677
Probable space group: P 4/M N C
;
_chemical_formula_sum "Si O2"
_cell_formula_units_Z 104
_cell_length_a 26.312407
_cell_length_b 26.312407
_cell_length_c 8.000851
_cell_angle_alpha 90.000000
_cell_angle_beta 90.000000
_cell_angle_gamma 90.000000
_cell_volume 5539.331281
_symmetry_space_group_name_H-M "P 4/M N C"
_symmetry_group_IT_number 128
_symmetry_cell_setting 'tetragonal'
loop_
_space_group_symop_operation_xyz
x,y,z
-y,x,z
-x,-y,z
y,-x,z
1/2+x,1/2-y,1/2-z
1/2-x,1/2+y,1/2-z
1/2+y,1/2+x,1/2-z
1/2-y,1/2-x,1/2-z
-x,-y,-z
y,-x,-z
x,y,-z
-y,x,-z
1/2-x,1/2+y,1/2+z
1/2+x,1/2-y,1/2+z
1/2-y,1/2-x,1/2+z
1/2+y,1/2+x,1/2+z
loop_
_atom_site_type_symbol
_atom_site_label
_atom_site_fract_x
_atom_site_fract_y
_atom_site_fract_z
Si Si1 0.880426 0.701554 0.298442
Si Si2 0.977467 0.839841 0.703954
Si Si3 0.185144 0.862827 0.300170
Si Si4 0.085994 0.004026 0.000000
Si Si5 0.175095 0.752359 0.198237
Si Si6 0.277976 0.991932 0.300054
Si Si7 0.829109 0.405341 0.301889
O O1 0.843874 0.656127 0.250000
O O2 0.880976 0.703453 0.500000
O O3 0.861548 0.756663 0.236697
O O4 0.938581 0.699070 0.238239
O O5 0.983928 0.848331 0.500000
O O6 0.916707 0.839838 0.744665
O O7 0.995275 0.781979 0.744814
O O8 0.003225 0.879360 0.831478
O O9 0.187068 0.863714 0.500000
O O10 0.161775 0.809441 0.248958
O O11 0.051182 0.953065 0.000000
O O12 0.230253 0.730253 0.250000
O O13 0.133864 0.712937 0.270787
O O14 0.173717 0.750292 0.000000
O O15 0.277589 0.989620 0.500000
O O16 0.311935 0.038997 0.247964
O O17 0.883784 0.383784 0.250000
O O18 0.826714 0.402156 0.500000
#
# Coordination Sequence:
#
# PCOD9564677 Si02
#       7
#    16  16  16   8  16  16  16
#     4   9  18  32  50  77 109 140 177 219 272 333
#     4   9  21  41  62  86 116 150 192 243 297 351
#     4   9  18  33  52  77 110 144 179 223 279 344
#     4  11  26  44  62  86 116 150 198 257 302 348
#     4  10  20  31  45  71 107 143 178 219 271 338
#     4   9  19  37  58  80 111 147 185 234 282 335
#     4  10  21  35  52  77 108 144 186 227 275 335
#
# _framework density 18.774827999999999
#
# number of rings (size 3 to 8) (size 9 to 14) (size 15 to 20)
#    0.000    2.538    0.000    3.231    2.154    6.154 
#    2.769    3.846    0.000    0.462    0.000    3.231 
#    0.000    0.000    0.000    0.000    0.000    0.000 
#
# Total GULP energy -579665.270202 kJ/mol
# GULP energy per Si atom -5573.704521 kJ/mol
# Density = 1.873210 g / cm^3
# Si number density = 18.774828 Si / 1000 Ang^3
#
#
#
# Elastic Constant Matrix: (Units=GPa)
#
#
# Indices 1 2 3 4 5 6 
#
# 1 55.4524 14.8125 16.9720 0.0000 0.0000 0.0000
# 2 14.8125 55.4460 16.9703 0.0000 0.0000 0.0000
# 3 16.9720 16.9703 40.0390 0.0000 0.0000 0.0000
# 4 0.0000 0.0000 0.0000 55.8813 0.0000 0.0000
# 5 0.0000 0.0000 0.0000 0.0000 55.8707 0.0000
# 6 0.0000 0.0000 0.0000 0.0000 0.0000 19.4365
#
#
#
# Elastic Compliance Matrix: (Units=1/GPa)
#
#
# Indices 1 2 3 4 5 6 
#
# 1 0.021252 -0.003356 -0.007586 0.000000 0.000000 0.000000
# 2 -0.003356 0.021254 -0.007586 0.000000 0.000000 0.000000
# 3 -0.007586 -0.007586 0.031407 0.000000 0.000000 0.000000
# 4 0.000000 0.000000 0.000000 0.017895 0.000000 0.000000
# 5 0.000000 0.000000 0.000000 0.000000 0.017898 0.000000
# 6 0.000000 0.000000 0.000000 0.000000 0.000000 0.051449
#
#
# Mechanical properties :
#
#
# Convention : Reuss Voigt Hill
#
# Bulk Modulus (GPa) = 27.13194 27.60521 27.36857
# Shear Modulus (GPa) = 23.75343 33.04987 28.40165
#
# Velocity S-wave (km/s) = 3.56079 4.20018 3.89363
# Velocity P-wave (km/s) = 5.60252 6.18524 5.90108
#
# Compressibility (1/GPa) = 0.03685693
#
# Stress axis : x y z
#
# Youngs Moduli (GPa) = 47.05515 47.05031 31.84048
#
# Poissons Ratio (x) = 0.15788 0.24154
# Poissons Ratio (y) = 0.15790 0.24154
# Poissons Ratio (z) = 0.35696 0.35692
#
# Static dielectric constant tensor:
#      x y z
#    x 1.682650 0.000000 0.000000 
#    y 0.000000 1.682650 0.000000 
#    z 0.000000 0.000000 1.664710 
# 
# From -- ./inp_files/1678.got.cif
#   From: 2010.05.17/outbox.cif.g08.bks.cpg/sg128_1_cif.got.tgz:1678.got - 2010.05.20 12:07:25.
