data_PCOD9564825
_publ_section_title
;
Structure prediction by ZEFSAII (Michael W. Deem and Ramdas Pophale) SiO2 
 PCOD9564825
Probable space group: P 4/M N C
;
_chemical_formula_sum "Si O2"
_cell_formula_units_Z 64
_cell_length_a 13.806867
_cell_length_b 13.806867
_cell_length_c 13.388782
_cell_angle_alpha 90.000000
_cell_angle_beta 90.000000
_cell_angle_gamma 90.000000
_cell_volume 2552.297841
_symmetry_space_group_name_H-M "P 4/M N C"
_symmetry_group_IT_number 128
_symmetry_cell_setting 'tetragonal'
loop_
_space_group_symop_operation_xyz
x,y,z
-y,x,z
-x,-y,z
y,-x,z
1/2+x,1/2-y,1/2-z
1/2-x,1/2+y,1/2-z
1/2+y,1/2+x,1/2-z
1/2-y,1/2-x,1/2-z
-x,-y,-z
y,-x,-z
x,y,-z
-y,x,-z
1/2-x,1/2+y,1/2+z
1/2+x,1/2-y,1/2+z
1/2-y,1/2-x,1/2+z
1/2+y,1/2+x,1/2+z
loop_
_atom_site_type_symbol
_atom_site_label
_atom_site_fract_x
_atom_site_fract_y
_atom_site_fract_z
Si Si1 0.052276 0.845929 0.615239
Si Si2 0.323480 0.017724 0.253178
Si Si3 0.825575 0.640654 0.616170
Si Si4 0.896902 0.881186 0.879414
O O1 0.063494 0.814362 0.500000
O O2 0.117317 0.941620 0.628551
O O3 0.076437 0.760797 0.691165
O O4 0.418760 0.081241 0.250000
O O5 0.326160 0.919911 0.322621
O O6 0.320072 0.974042 0.141349
O O7 0.838888 0.662613 0.500000
O O8 0.714195 0.666069 0.646605
O O9 0.009784 0.871221 0.847303
O O10 0.896299 0.882173 0.000000
#
# Coordination Sequence:
#
# PCOD9564825 Si02
#       4
#    16  16  16  16
#     4   9  20  44  76 105 136 179 231 289 349 411
#     4  11  24  41  62  93 133 174 224 290 351 415
#     4  10  21  38  60  86 127 182 232 280 346 419
#     4   8  15  31  56  87 123 163 212 273 340 411
#
# _framework density 25.075443
#
# number of rings (size 3 to 8) (size 9 to 14) (size 15 to 20)
#    0.000    2.500    0.000    3.750    0.000    5.000 
#    9.000    2.500    5.500    0.000    0.000    0.000 
#    0.000    0.000    0.000    0.000    0.000    0.000 
#
# Total GULP energy -356937.307779 kJ/mol
# GULP energy per Si atom -5577.145434 kJ/mol
# Density = 2.501837 g / cm^3
# Si number density = 25.075443 Si / 1000 Ang^3
#
#
#
# Elastic Constant Matrix: (Units=GPa)
#
#
# Indices 1 2 3 4 5 6 
#
# 1 76.2176 31.6683 33.0684 0.0000 0.0000 0.0000
# 2 31.6683 76.2221 33.0707 0.0000 0.0000 0.0000
# 3 33.0684 33.0707 120.6911 0.0000 0.0000 0.0000
# 4 0.0000 0.0000 0.0000 32.3094 0.0000 0.0000
# 5 0.0000 0.0000 0.0000 0.0000 32.3101 0.0000
# 6 0.0000 0.0000 0.0000 0.0000 0.0000 7.9080
#
#
#
# Elastic Compliance Matrix: (Units=1/GPa)
#
#
# Indices 1 2 3 4 5 6 
#
# 1 0.016793 -0.005653 -0.003052 0.000000 0.000000 0.000000
# 2 -0.005653 0.016793 -0.003052 0.000000 0.000000 0.000000
# 3 -0.003052 -0.003052 0.009958 0.000000 0.000000 0.000000
# 4 0.000000 0.000000 0.000000 0.030951 0.000000 0.000000
# 5 0.000000 0.000000 0.000000 0.000000 0.030950 0.000000
# 6 0.000000 0.000000 0.000000 0.000000 0.000000 0.126454
#
#
# Mechanical properties :
#
#
# Convention : Reuss Voigt Hill
#
# Bulk Modulus (GPa) = 49.92784 52.08284 51.00534
# Shear Modulus (GPa) = 19.07739 26.19375 22.63557
#
# Velocity S-wave (km/s) = 2.76125 3.23553 3.00775
# Velocity P-wave (km/s) = 5.48820 5.89693 5.69623
#
# Compressibility (1/GPa) = 0.02002891
#
# Stress axis : x y z
#
# Youngs Moduli (GPa) = 59.54721 59.55014 100.41840
#
# Poissons Ratio (x) = 0.33663 0.30651
# Poissons Ratio (y) = 0.33661 0.30653
# Poissons Ratio (z) = 0.18176 0.18178
#
# Static dielectric constant tensor:
#      x y z
#    x 2.034010 0.000000 0.000000 
#    y 0.000000 2.034010 0.000000 
#    z 0.000000 0.000000 2.035490 
# 
# From -- ./inp_files/3552.got.cif
#   From: 2010.05.17/outbox.cif.g08.bks.cpg/sg128_2_cif.got.tgz:3552.got - 2010.05.20 12:07:25.
