data_PCOD9564823
_publ_section_title
;
Structure prediction by ZEFSAII (Michael W. Deem and Ramdas Pophale) SiO2 
 PCOD9564823
Probable space group: P 4/M N C
;
_chemical_formula_sum "Si O2"
_cell_formula_units_Z 96
_cell_length_a 24.394387
_cell_length_b 24.394387
_cell_length_c 8.743460
_cell_angle_alpha 90.000000
_cell_angle_beta 90.000000
_cell_angle_gamma 90.000000
_cell_volume 5203.111661
_symmetry_space_group_name_H-M "P 4/M N C"
_symmetry_group_IT_number 128
_symmetry_cell_setting 'tetragonal'
loop_
_space_group_symop_operation_xyz
x,y,z
-y,x,z
-x,-y,z
y,-x,z
1/2+x,1/2-y,1/2-z
1/2-x,1/2+y,1/2-z
1/2+y,1/2+x,1/2-z
1/2-y,1/2-x,1/2-z
-x,-y,-z
y,-x,-z
x,y,-z
-y,x,-z
1/2-x,1/2+y,1/2+z
1/2+x,1/2-y,1/2+z
1/2-y,1/2-x,1/2+z
1/2+y,1/2+x,1/2+z
loop_
_atom_site_type_symbol
_atom_site_label
_atom_site_fract_x
_atom_site_fract_y
_atom_site_fract_z
Si Si1 0.347431 0.353118 0.818034
Si Si2 0.646262 0.935767 0.682085
Si Si3 0.350951 0.232552 0.317123
Si Si4 0.434038 0.438668 0.315611
Si Si5 0.770127 0.646404 0.320871
Si Si6 0.446243 0.863102 0.320717
O O1 0.358139 0.293924 0.742510
O O2 0.390797 0.397985 0.760007
O O3 0.285809 0.367263 0.765139
O O4 0.350129 0.348576 0.000000
O O5 0.591199 0.908802 0.750000
O O6 0.647505 0.929042 0.500000
O O7 0.695297 0.900816 0.756694
O O8 0.649328 0.998531 0.730712
O O9 0.296366 0.203635 0.250000
O O10 0.348686 0.231160 0.500000
O O11 0.497284 0.424913 0.275083
O O12 0.429495 0.434499 0.500000
O O13 0.801147 0.698854 0.250000
O O14 0.758701 0.656559 0.500000
O O15 0.812592 0.596154 0.308337
O O16 0.415264 0.915264 0.250000
O O17 0.457980 0.871892 0.500000
#
# Coordination Sequence:
#
# PCOD9564823 Si02
#       6
#    16  16  16  16  16  16
#     4  12  24  37  58  88 118 150 190 230 274 335
#     4  11  22  38  59  84 115 150 191 237 287 340
#     4  11  22  39  60  83 115 151 189 234 285 337
#     4   9  20  41  65  86 112 147 186 231 284 337
#     4  10  21  38  59  83 115 151 188 233 284 336
#     4  10  21  38  59  84 114 151 193 238 288 338
#
# _framework density 18.450498
#
# number of rings (size 3 to 8) (size 9 to 14) (size 15 to 20)
#    0.000    1.500    0.000    7.500    0.000    4.333 
#    0.000    4.167    0.000    0.000    0.000    0.000 
#    0.000    0.000    0.000    0.000    0.000    0.000 
#
# Total GULP energy -536664.586093 kJ/mol
# GULP energy per Si atom -5590.256105 kJ/mol
# Density = 1.840850 g / cm^3
# Si number density = 18.450498 Si / 1000 Ang^3
#
#
#
# Elastic Constant Matrix: (Units=GPa)
#
#
# Indices 1 2 3 4 5 6 
#
# 1 102.9254 55.8297 66.9652 0.0000 0.0000 0.0000
# 2 55.8297 102.9269 66.9605 0.0000 0.0000 0.0000
# 3 66.9652 66.9605 169.4371 0.0000 0.0000 0.0000
# 4 0.0000 0.0000 0.0000 34.6918 0.0000 0.0000
# 5 0.0000 0.0000 0.0000 0.0000 34.6926 0.0000
# 6 0.0000 0.0000 0.0000 0.0000 0.0000 25.3626
#
#
#
# Elastic Compliance Matrix: (Units=1/GPa)
#
#
# Indices 1 2 3 4 5 6 
#
# 1 0.015342 -0.005892 -0.003735 0.000000 0.000000 0.000000
# 2 -0.005892 0.015341 -0.003734 0.000000 0.000000 0.000000
# 3 -0.003735 -0.003734 0.008854 0.000000 0.000000 0.000000
# 4 0.000000 0.000000 0.000000 0.028825 0.000000 0.000000
# 5 0.000000 0.000000 0.000000 0.000000 0.028825 0.000000
# 6 0.000000 0.000000 0.000000 0.000000 0.000000 0.039428
#
#
# Mechanical properties :
#
#
# Convention : Reuss Voigt Hill
#
# Bulk Modulus (GPa) = 78.03633 83.86669 80.95151
# Shear Modulus (GPa) = 29.83167 31.31832 30.57500
#
# Velocity S-wave (km/s) = 4.02537 4.12445 4.07521
# Velocity P-wave (km/s) = 7.99947 8.26045 8.13101
#
# Compressibility (1/GPa) = 0.01281454
#
# Stress axis : x y z
#
# Youngs Moduli (GPa) = 65.18175 65.18630 112.94751
#
# Poissons Ratio (x) = 0.38407 0.42186
# Poissons Ratio (y) = 0.38404 0.42174
# Poissons Ratio (z) = 0.24345 0.24340
#
# Static dielectric constant tensor:
#      x y z
#    x 1.617920 0.000000 0.000000 
#    y 0.000000 1.617930 0.000000 
#    z 0.000000 0.000000 1.617380 
# 
# From -- ./inp_files/1473.got.cif
#   From: 2010.05.17/outbox.cif.g08.bks.cpg/sg128_1_cif.got.tgz:1473.got - 2010.05.20 12:07:25.
