data_PCOD9564956
_publ_section_title
;
Structure prediction by ZEFSAII (Michael W. Deem and Ramdas Pophale) SiO2 
 PCOD9564956
Probable space group: P 4/M N C
;
_chemical_formula_sum "Si O2"
_cell_formula_units_Z 72
_cell_length_a 11.429052
_cell_length_b 11.429052
_cell_length_c 26.663533
_cell_angle_alpha 90.000000
_cell_angle_beta 90.000000
_cell_angle_gamma 90.000000
_cell_volume 3482.876794
_symmetry_space_group_name_H-M "P 4/M N C"
_symmetry_group_IT_number 128
_symmetry_cell_setting 'tetragonal'
loop_
_space_group_symop_operation_xyz
x,y,z
-y,x,z
-x,-y,z
y,-x,z
1/2+x,1/2-y,1/2-z
1/2-x,1/2+y,1/2-z
1/2+y,1/2+x,1/2-z
1/2-y,1/2-x,1/2-z
-x,-y,-z
y,-x,-z
x,y,-z
-y,x,-z
1/2-x,1/2+y,1/2+z
1/2+x,1/2-y,1/2+z
1/2-y,1/2-x,1/2+z
1/2+y,1/2+x,1/2+z
loop_
_atom_site_type_symbol
_atom_site_label
_atom_site_fract_x
_atom_site_fract_y
_atom_site_fract_z
Si Si1 0.650161 0.847665 0.333089
Si Si2 0.308088 0.544710 0.246267
Si Si3 0.000000 0.500000 0.909828
Si Si4 0.903369 0.636015 0.000000
Si Si5 0.862694 0.203897 0.000000
Si Si6 0.365527 0.629324 0.387104
O O1 0.575503 0.788655 0.288127
O O2 0.744315 0.930997 0.306663
O O3 0.704766 0.736456 0.362796
O O4 0.571225 0.913883 0.373755
O O5 0.363641 0.416077 0.251124
O O6 0.911660 0.563940 0.948555
O O7 0.790548 0.720727 0.000000
O O8 0.032581 0.701946 0.000000
O O9 0.874966 0.138589 0.052873
O O10 0.341671 0.495562 0.371042
#
# Coordination Sequence:
#
# PCOD9564956 Si02
#       6
#    16  16   8   8   8  16
#     4  11  23  39  65  86 120 167 197 248 324 372
#     4  10  24  44  63  90 121 155 206 263 307 374
#     4  11  24  43  54  96 126 165 198 271 290 376
#     4  11  24  37  60  86 142 156 213 244 310 357
#     4  12  18  35  56  88 118 178 192 254 299 365
#     4  11  20  32  56  93 128 160 209 259 303 368
#
# _framework density 20.672567000000001
#
# number of rings (size 3 to 8) (size 9 to 14) (size 15 to 20)
#    0.000    1.111    4.444    1.333    0.000   11.778 
#    0.000    0.000    0.000    0.000    0.000    0.000 
#    0.000    8.889    0.000    0.000    0.000    0.000 
#
# Total GULP energy -401382.470598 kJ/mol
# GULP energy per Si atom -5574.756536 kJ/mol
# Density = 2.062551 g / cm^3
# Si number density = 20.672567 Si / 1000 Ang^3
#
#
#
# Elastic Constant Matrix: (Units=GPa)
#
#
# Indices 1 2 3 4 5 6 
#
# 1 59.6948 17.2268 33.1425 0.0000 0.0000 0.0000
# 2 17.2268 59.6948 33.1425 0.0000 0.0000 0.0000
# 3 33.1425 33.1425 125.4392 0.0000 0.0000 0.0000
# 4 0.0000 0.0000 0.0000 21.3928 0.0000 0.0000
# 5 0.0000 0.0000 0.0000 0.0000 21.3928 0.0000
# 6 0.0000 0.0000 0.0000 0.0000 0.0000 23.8840
#
#
#
# Elastic Compliance Matrix: (Units=1/GPa)
#
#
# Indices 1 2 3 4 5 6 
#
# 1 0.020190 -0.003357 -0.004447 0.000000 0.000000 0.000000
# 2 -0.003357 0.020190 -0.004447 0.000000 0.000000 0.000000
# 3 -0.004447 -0.004447 0.010322 0.000000 0.000000 0.000000
# 4 0.000000 0.000000 0.000000 0.046745 0.000000 0.000000
# 5 0.000000 0.000000 0.000000 0.000000 0.046745 0.000000
# 6 0.000000 0.000000 0.000000 0.000000 0.000000 0.041869
#
#
# Mechanical properties :
#
#
# Convention : Reuss Voigt Hill
#
# Bulk Modulus (GPa) = 38.17108 45.76140 41.96624
# Shear Modulus (GPa) = 22.80015 24.08840 23.44428
#
# Velocity S-wave (km/s) = 3.32462 3.41726 3.37126
# Velocity P-wave (km/s) = 5.76560 6.14447 5.95805
#
# Compressibility (1/GPa) = 0.02619784
#
# Stress axis : x y z
#
# Youngs Moduli (GPa) = 49.52974 49.52974 96.87960
#
# Poissons Ratio (x) = 0.16628 0.43086
# Poissons Ratio (y) = 0.16628 0.43086
# Poissons Ratio (z) = 0.22028 0.22028
#
# Static dielectric constant tensor:
#      x y z
#    x 1.777170 0.000000 0.000000 
#    y 0.000000 1.777170 0.000000 
#    z 0.000000 0.000000 1.774460 
# 
# From -- ./inp_files/6797.got.cif
#   From: 2010.05.17/outbox.cif.g08.bks.cpg/sg128_4_cif.got.tgz:6797.got - 2010.05.20 12:07:25.
