data_PCOD9564817
_publ_section_title
;
Structure prediction by ZEFSAII (Michael W. Deem and Ramdas Pophale) SiO2 
 PCOD9564817
Probable space group: P 4/M N C
;
_chemical_formula_sum "Si O2"
_cell_formula_units_Z 112
_cell_length_a 14.410028
_cell_length_b 14.410028
_cell_length_c 27.536619
_cell_angle_alpha 90.000000
_cell_angle_beta 90.000000
_cell_angle_gamma 90.000000
_cell_volume 5717.948837
_symmetry_space_group_name_H-M "P 4/M N C"
_symmetry_group_IT_number 128
_symmetry_cell_setting 'tetragonal'
loop_
_space_group_symop_operation_xyz
x,y,z
-y,x,z
-x,-y,z
y,-x,z
1/2+x,1/2-y,1/2-z
1/2-x,1/2+y,1/2-z
1/2+y,1/2+x,1/2-z
1/2-y,1/2-x,1/2-z
-x,-y,-z
y,-x,-z
x,y,-z
-y,x,-z
1/2-x,1/2+y,1/2+z
1/2+x,1/2-y,1/2+z
1/2-y,1/2-x,1/2+z
1/2+y,1/2+x,1/2+z
loop_
_atom_site_type_symbol
_atom_site_label
_atom_site_fract_x
_atom_site_fract_y
_atom_site_fract_z
Si Si1 0.377600 0.853831 0.374822
Si Si2 0.516774 0.888843 0.055544
Si Si3 0.159034 0.461307 0.783570
Si Si4 0.143485 0.957955 0.233396
Si Si5 0.847815 0.170608 0.142624
Si Si6 0.050438 0.852627 0.949697
Si Si7 0.367256 0.097879 0.150132
O O1 0.356549 0.920061 0.420232
O O2 0.323792 0.891145 0.328052
O O3 0.345677 0.749763 0.383227
O O4 0.486145 0.862210 0.358212
O O5 0.594996 0.868379 0.096756
O O6 0.500000 0.000000 0.053666
O O7 0.534085 0.857670 0.000000
O O8 0.077977 0.422024 0.750000
O O9 0.252147 0.455774 0.751759
O O10 0.127179 0.555560 0.810232
O O11 0.141592 0.919930 0.177062
O O12 0.059890 0.890908 0.249477
O O13 0.924272 0.188735 0.101238
O O14 0.857574 0.270287 0.168439
O O15 0.945692 0.887854 0.950316
O O16 0.067239 0.798825 0.000000
#
# Coordination Sequence:
#
# PCOD9564817 Si02
#       7
#    16  16  16  16  16  16  16
#     4  10  21  38  55  89 120 154 210 257 320 369
#     4   8  16  35  60  83 116 160 203 254 313 369
#     4  11  23  42  63  86 116 158 209 271 308 368
#     4  11  25  42  60  86 122 165 207 251 315 381
#     4  12  22  37  56  88 126 160 204 262 307 382
#     4   9  18  32  52  78 114 161 202 236 287 361
#     4  10  23  38  61  91 124 161 212 260 318 374
#
# _framework density 19.587441999999999
#
# number of rings (size 3 to 8) (size 9 to 14) (size 15 to 20)
#    0.000    1.857    1.429    4.286    2.000    3.429 
#    0.000    2.857    0.000    0.000    0.000    0.000 
#    0.000    0.000    0.000   11.714    0.000    0.000 
#
# Total GULP energy -623492.103498 kJ/mol
# GULP energy per Si atom -5566.893781 kJ/mol
# Density = 1.954286 g / cm^3
# Si number density = 19.587442 Si / 1000 Ang^3
#
#
#
# Elastic Constant Matrix: (Units=GPa)
#
#
# Indices 1 2 3 4 5 6 
#
# 1 76.8527 25.6287 27.9507 0.0000 0.0000 0.0000
# 2 25.6287 76.8518 27.9517 0.0000 0.0000 0.0000
# 3 27.9507 27.9517 103.2367 0.0000 0.0000 0.0000
# 4 0.0000 0.0000 0.0000 11.2886 0.0000 0.0000
# 5 0.0000 0.0000 0.0000 0.0000 11.2887 0.0000
# 6 0.0000 0.0000 0.0000 0.0000 0.0000 13.2177
#
#
#
# Elastic Compliance Matrix: (Units=1/GPa)
#
#
# Indices 1 2 3 4 5 6 
#
# 1 0.015485 -0.004037 -0.003100 0.000000 0.000000 0.000000
# 2 -0.004037 0.015486 -0.003100 0.000000 0.000000 0.000000
# 3 -0.003100 -0.003100 0.011365 0.000000 0.000000 0.000000
# 4 0.000000 0.000000 0.000000 0.088585 0.000000 0.000000
# 5 0.000000 0.000000 0.000000 0.000000 0.088584 0.000000
# 6 0.000000 0.000000 0.000000 0.000000 0.000000 0.075656
#
#
# Mechanical properties :
#
#
# Convention : Reuss Voigt Hill
#
# Bulk Modulus (GPa) = 45.73815 46.66704 46.20260
# Shear Modulus (GPa) = 15.48365 18.85302 17.16834
#
# Velocity S-wave (km/s) = 2.81461 3.10579 2.96378
# Velocity P-wave (km/s) = 5.82788 6.06119 5.94568
#
# Compressibility (1/GPa) = 0.02186359
#
# Stress axis : x y z
#
# Youngs Moduli (GPa) = 64.57708 64.57574 87.98962
#
# Poissons Ratio (x) = 0.26068 0.27273
# Poissons Ratio (y) = 0.26068 0.27276
# Poissons Ratio (z) = 0.20016 0.20018
#
# Static dielectric constant tensor:
#      x y z
#    x 1.715070 0.000000 0.000000 
#    y 0.000000 1.715070 0.000000 
#    z 0.000000 0.000000 1.812070 
# 
# From -- ./inp_files/6920.got.cif
#   From: 2010.05.17/outbox.cif.g08.bks.cpg/sg128_4_cif.got.tgz:6920.got - 2010.05.20 12:07:25.
