data_PCOD9564348
_publ_section_title
;
Structure prediction by ZEFSAII (Michael W. Deem and Ramdas Pophale) SiO2 
 PCOD9564348
Probable space group: P 4/M B M
;
_chemical_formula_sum "Si O2"
_cell_formula_units_Z 64
_cell_length_a 13.741213
_cell_length_b 13.741213
_cell_length_c 17.665365
_cell_angle_alpha 90.000000
_cell_angle_beta 90.000000
_cell_angle_gamma 90.000000
_cell_volume 3335.590731
_symmetry_space_group_name_H-M "P 4/M B M"
_symmetry_group_IT_number 127
_symmetry_cell_setting 'tetragonal'
loop_
_space_group_symop_operation_xyz
x,y,z
-y,x,z
-x,-y,z
y,-x,z
1/2+x,1/2-y,-z
1/2-x,1/2+y,-z
1/2+y,1/2+x,-z
1/2-y,1/2-x,-z
-x,-y,-z
y,-x,-z
x,y,-z
-y,x,-z
1/2-x,1/2+y,z
1/2+x,1/2-y,z
1/2-y,1/2-x,z
1/2+y,1/2+x,z
loop_
_atom_site_type_symbol
_atom_site_label
_atom_site_fract_x
_atom_site_fract_y
_atom_site_fract_z
Si Si1 0.704656 0.045988 0.804359
Si Si2 0.082947 0.582947 0.914380
Si Si3 0.641905 0.582370 0.084489
Si Si4 0.664509 0.493861 0.500000
Si Si5 0.994139 0.165271 0.333513
O O1 0.614396 0.114396 0.782326
O O2 0.784406 0.109551 0.849895
O O3 0.666409 0.967033 0.864844
O O4 0.756778 0.998302 0.732803
O O5 0.000000 0.500000 0.921449
O O6 0.111765 0.611765 0.000000
O O7 0.534230 0.625725 0.091120
O O8 0.679681 0.603659 0.000000
O O9 0.596337 0.589418 0.500000
O O10 0.712802 0.492162 0.582481
O O11 0.090208 0.096289 0.327211
#
# Coordination Sequence:
#
# PCOD9564348 Si02
#       5
#    16   8  16   8  16
#     4  11  21  33  50  74 102 135 174 213 253 302
#     4   9  20  38  54  65  91 139 183 217 253 296
#     4   9  18  34  53  71  95 127 163 210 268 314
#     4   7  12  26  53  81 102 133 170 199 242 309
#     4   9  17  33  56  81 108 135 166 208 257 306
#
# _framework density 19.187006
#
# number of rings (size 3 to 8) (size 9 to 14) (size 15 to 20)
#    0.000    2.750    0.000    4.500    0.000    3.500 
#    9.000    0.625    0.000    0.750    0.000    2.625 
#    0.000    0.000    0.000    0.000    0.000    0.000 
#
# Total GULP energy -356766.212283 kJ/mol
# GULP energy per Si atom -5574.472067 kJ/mol
# Density = 1.914334 g / cm^3
# Si number density = 19.187006 Si / 1000 Ang^3
#
#
#
# Elastic Constant Matrix: (Units=GPa)
#
#
# Indices 1 2 3 4 5 6 
#
# 1 46.3322 4.9208 39.6848 0.0000 0.0000 0.0000
# 2 4.9208 46.3322 39.6848 0.0000 0.0000 0.0000
# 3 39.6848 39.6848 171.2785 0.0000 0.0000 0.0000
# 4 0.0000 0.0000 0.0000 19.9928 0.0000 0.0000
# 5 0.0000 0.0000 0.0000 0.0000 19.9928 0.0000
# 6 0.0000 0.0000 0.0000 0.0000 0.0000 9.2389
#
#
#
# Elastic Compliance Matrix: (Units=1/GPa)
#
#
# Indices 1 2 3 4 5 6 
#
# 1 0.027289 0.003141 -0.007050 0.000000 0.000000 0.000000
# 2 0.003141 0.027289 -0.007050 0.000000 0.000000 0.000000
# 3 -0.007050 -0.007050 0.009106 0.000000 0.000000 0.000000
# 4 0.000000 0.000000 0.000000 0.050018 0.000000 0.000000
# 5 0.000000 0.000000 0.000000 0.000000 0.050018 0.000000
# 6 0.000000 0.000000 0.000000 0.000000 0.000000 0.108238
#
#
# Mechanical properties :
#
#
# Convention : Reuss Voigt Hill
#
# Bulk Modulus (GPa) = 23.94497 48.05820 36.00159
# Shear Modulus (GPa) = 16.24445 21.82174 19.03310
#
# Velocity S-wave (km/s) = 2.91286 3.37607 3.15299
# Velocity P-wave (km/s) = 4.88056 6.34813 5.66210
#
# Compressibility (1/GPa) = 0.04176242
#
# Stress axis : x y z
#
# Youngs Moduli (GPa) = 36.64541 36.64541 109.82304
#
# Poissons Ratio (x) = -0.11509 0.77429
# Poissons Ratio (y) = -0.11509 0.77429
# Poissons Ratio (z) = 0.25836 0.25836
#
# Static dielectric constant tensor:
#      x y z
#    x 1.692080 0.000000 0.000000 
#    y 0.000000 1.692080 0.000000 
#    z 0.000000 0.000000 1.707350 
# 
# From -- ./inp_files/4875.got.cif
#   From: 2010.05.17/outbox.cif.g08.bks.cpg/sg127_3_cif.got.tgz:4875.got - 2010.05.20 12:03:00.
