data_PCOD9564559
_publ_section_title
;
Structure prediction by ZEFSAII (Michael W. Deem and Ramdas Pophale) SiO2 
 PCOD9564559
Probable space group: P 4/M N C
;
_chemical_formula_sum "Si O2"
_cell_formula_units_Z 104
_cell_length_a 18.919934
_cell_length_b 18.919934
_cell_length_c 16.285359
_cell_angle_alpha 90.000000
_cell_angle_beta 90.000000
_cell_angle_gamma 90.000000
_cell_volume 5829.570662
_symmetry_space_group_name_H-M "P 4/M N C"
_symmetry_group_IT_number 128
_symmetry_cell_setting 'tetragonal'
loop_
_space_group_symop_operation_xyz
x,y,z
-y,x,z
-x,-y,z
y,-x,z
1/2+x,1/2-y,1/2-z
1/2-x,1/2+y,1/2-z
1/2+y,1/2+x,1/2-z
1/2-y,1/2-x,1/2-z
-x,-y,-z
y,-x,-z
x,y,-z
-y,x,-z
1/2-x,1/2+y,1/2+z
1/2+x,1/2-y,1/2+z
1/2-y,1/2-x,1/2+z
1/2+y,1/2+x,1/2+z
loop_
_atom_site_type_symbol
_atom_site_label
_atom_site_fract_x
_atom_site_fract_y
_atom_site_fract_z
Si Si1 0.833825 0.408235 0.823567
Si Si2 0.603655 0.809288 0.000000
Si Si3 0.021037 0.117326 0.906802
Si Si4 0.562660 0.318179 0.752945
Si Si5 0.430075 0.840896 0.184356
Si Si6 0.298643 0.931480 0.500000
Si Si7 0.419624 0.336021 0.829421
Si Si8 0.648731 0.651393 0.000000
O O1 0.859962 0.359962 0.750000
O O2 0.861728 0.487527 0.810592
O O3 0.748666 0.413515 0.825812
O O4 0.851437 0.383532 0.915993
O O5 0.518259 0.789097 0.000000
O O6 0.650979 0.737845 0.000000
O O7 0.035309 0.176652 0.839757
O O8 0.945628 0.078488 0.896082
O O9 0.025542 0.143038 0.000000
O O10 0.575946 0.240198 0.785579
O O11 0.499833 0.352634 0.806784
O O12 0.630897 0.365960 0.764688
O O13 0.386107 0.886107 0.250000
O O14 0.412892 0.838087 0.086068
O O15 0.222998 0.890588 0.500000
O O16 0.394827 0.363741 0.917647
#
# Coordination Sequence:
#
# PCOD9564559 Si02
#       8
#    16   8  16  16  16   8  16   8
#     4   9  19  38  61  80 106 140 184 229 286 338
#     4   8  18  34  57  83 105 149 184 219 281 336
#     4   9  17  30  51  73 101 145 189 222 264 316
#     4  11  19  34  53  77 110 146 186 232 265 323
#     4  10  22  38  58  84 109 145 185 231 291 339
#     4  10  18  38  59  75 119 156 178 222 283 349
#     4  10  21  30  54  80 110 148 184 223 269 322
#     4  10  18  32  50  79 110 153 184 211 261 332
#
# _framework density 17.840077999999998
#
# number of rings (size 3 to 8) (size 9 to 14) (size 15 to 20)
#    0.000    2.308    3.077    1.385    0.000    1.231 
#    1.385    0.769    6.769    3.923    0.000    0.000 
#    0.000    0.000    0.000    0.000    0.000    0.000 
#
# Total GULP energy -579216.275298 kJ/mol
# GULP energy per Si atom -5569.387262 kJ/mol
# Density = 1.779947 g / cm^3
# Si number density = 17.840078 Si / 1000 Ang^3
#
#
#
# Elastic Constant Matrix: (Units=GPa)
#
#
# Indices 1 2 3 4 5 6 
#
# 1 17.8956 11.5633 31.6960 0.0000 0.0000 0.0000
# 2 11.5633 17.8956 31.6960 0.0000 0.0000 0.0000
# 3 31.6960 31.6960 157.1248 0.0000 0.0000 0.0000
# 4 0.0000 0.0000 0.0000 29.2045 0.0000 0.0000
# 5 0.0000 0.0000 0.0000 0.0000 29.2045 0.0000
# 6 0.0000 0.0000 0.0000 0.0000 0.0000 19.2449
#
#
#
# Elastic Compliance Matrix: (Units=1/GPa)
#
#
# Indices 1 2 3 4 5 6 
#
# 1 0.108953 -0.048969 -0.012100 0.000000 0.000000 0.000000
# 2 -0.048969 0.108953 -0.012100 0.000000 0.000000 0.000000
# 3 -0.012100 -0.012100 0.011246 0.000000 0.000000 0.000000
# 4 0.000000 0.000000 0.000000 0.034241 0.000000 0.000000
# 5 0.000000 0.000000 0.000000 0.000000 0.034241 0.000000
# 6 0.000000 0.000000 0.000000 0.000000 0.000000 0.051962
#
#
# Mechanical properties :
#
#
# Convention : Reuss Voigt Hill
#
# Bulk Modulus (GPa) = 12.07540 38.09182 25.08361
# Shear Modulus (GPa) = 9.55039 23.39483 16.47261
#
# Velocity S-wave (km/s) = 2.31624 3.62520 3.04196
# Velocity P-wave (km/s) = 3.73318 6.23867 5.14090
#
# Compressibility (1/GPa) = 0.08281298
#
# Stress axis : x y z
#
# Youngs Moduli (GPa) = 9.17830 9.17830 88.91900
#
# Poissons Ratio (x) = 0.44945 1.07594
# Poissons Ratio (y) = 0.44945 1.07594
# Poissons Ratio (z) = 0.11106 0.11106
#
# Static dielectric constant tensor:
#      x y z
#    x 1.601650 0.000000 0.000000 
#    y 0.000000 1.601650 0.000000 
#    z 0.000000 0.000000 1.660840 
# 
# From -- ./inp_files/4924.got.cif
#   From: 2010.05.17/outbox.cif.g08.bks.cpg/sg128_3_cif.got.tgz:4924.got - 2010.05.20 12:07:25.
