data_PCOD9564785
_publ_section_title
;
Structure prediction by ZEFSAII (Michael W. Deem and Ramdas Pophale) SiO2 
 PCOD9564785
Probable space group: P 4/M N C
;
_chemical_formula_sum "Si O2"
_cell_formula_units_Z 52
_cell_length_a 11.398366
_cell_length_b 11.398366
_cell_length_c 18.558768
_cell_angle_alpha 90.000000
_cell_angle_beta 90.000000
_cell_angle_gamma 90.000000
_cell_volume 2411.206128
_symmetry_space_group_name_H-M "P 4/M N C"
_symmetry_group_IT_number 128
_symmetry_cell_setting 'tetragonal'
loop_
_space_group_symop_operation_xyz
x,y,z
-y,x,z
-x,-y,z
y,-x,z
1/2+x,1/2-y,1/2-z
1/2-x,1/2+y,1/2-z
1/2+y,1/2+x,1/2-z
1/2-y,1/2-x,1/2-z
-x,-y,-z
y,-x,-z
x,y,-z
-y,x,-z
1/2-x,1/2+y,1/2+z
1/2+x,1/2-y,1/2+z
1/2-y,1/2-x,1/2+z
1/2+y,1/2+x,1/2+z
loop_
_atom_site_type_symbol
_atom_site_label
_atom_site_fract_x
_atom_site_fract_y
_atom_site_fract_z
Si Si1 0.842326 0.377752 0.335814
Si Si2 0.747723 0.612310 0.690560
Si Si3 0.500000 0.500000 0.266408
Si Si4 0.690383 0.475863 0.086229
O O1 0.864924 0.364924 0.250000
O O2 0.720791 0.308747 0.352497
O O3 0.818862 0.513331 0.352388
O O4 0.945772 0.311489 0.376379
O O5 0.831232 0.668769 0.750000
O O6 0.638224 0.544310 0.726970
O O7 0.625162 0.595987 0.106765
O O8 0.701778 0.475288 0.000000
#
# Coordination Sequence:
#
# PCOD9564785 Si02
#       4
#    16  16   4  16
#     4  10  21  34  56  86 123 157 200 256 313 375
#     4   9  19  35  52  86 123 164 203 252 312 382
#     4   8  16  36  56  72 129 176 213 244 312 378
#     4   9  20  41  64  85 115 164 221 267 315 379
#
# _framework density 21.565968999999999
#
# number of rings (size 3 to 8) (size 9 to 14) (size 15 to 20)
#    0.000    2.769    0.000    0.923    8.615    0.615 
#    0.000    1.538    0.000    3.692    0.000    6.462 
#    0.000    0.000    0.000    0.000    0.000    0.000 
#
# Total GULP energy -289673.740454 kJ/mol
# GULP energy per Si atom -5570.648855 kJ/mol
# Density = 2.151688 g / cm^3
# Si number density = 21.565969 Si / 1000 Ang^3
#
#
#
# Elastic Constant Matrix: (Units=GPa)
#
#
# Indices 1 2 3 4 5 6 
#
# 1 87.2107 70.2064 8.0972 0.0000 0.0000 0.0000
# 2 70.2064 87.2086 8.0967 0.0000 0.0000 0.0000
# 3 8.0972 8.0967 33.8841 0.0000 0.0000 0.0000
# 4 0.0000 0.0000 0.0000 10.5339 0.0000 0.0000
# 5 0.0000 0.0000 0.0000 0.0000 10.5340 0.0000
# 6 0.0000 0.0000 0.0000 0.0000 0.0000 72.5020
#
#
#
# Elastic Compliance Matrix: (Units=1/GPa)
#
#
# Indices 1 2 3 4 5 6 
#
# 1 0.032662 -0.026150 -0.001557 0.000000 0.000000 0.000000
# 2 -0.026150 0.032663 -0.001556 0.000000 0.000000 0.000000
# 3 -0.001557 -0.001556 0.030256 0.000000 0.000000 0.000000
# 4 0.000000 0.000000 0.000000 0.094931 0.000000 0.000000
# 5 0.000000 0.000000 0.000000 0.000000 0.094931 0.000000
# 6 0.000000 0.000000 0.000000 0.000000 0.000000 0.013793
#
#
# Mechanical properties :
#
#
# Convention : Reuss Voigt Hill
#
# Bulk Modulus (GPa) = 26.98587 42.34489 34.66538
# Shear Modulus (GPa) = 13.50939 26.84085 20.17512
#
# Velocity S-wave (km/s) = 2.50556 3.53171 3.06192
# Velocity P-wave (km/s) = 4.57283 6.02563 5.34879
#
# Compressibility (1/GPa) = 0.03705643
#
# Stress axis : x y z
#
# Youngs Moduli (GPa) = 30.61654 30.61588 33.05112
#
# Poissons Ratio (x) = 0.80060 0.05145
# Poissons Ratio (y) = 0.80061 0.05142
# Poissons Ratio (z) = 0.04766 0.04764
#
# Static dielectric constant tensor:
#      x y z
#    x 1.812070 0.000000 0.000000 
#    y 0.000000 1.812070 0.000000 
#    z 0.000000 0.000000 1.796020 
# 
# From -- ./inp_files/5330.got.cif
#   From: 2010.05.17/outbox.cif.g08.bks.cpg/sg128_3_cif.got.tgz:5330.got - 2010.05.20 12:07:25.
