data_PCOD9564524
_publ_section_title
;
Structure prediction by ZEFSAII (Michael W. Deem and Ramdas Pophale) SiO2 
 PCOD9564524
Probable space group: P 4/M N C
;
_chemical_formula_sum "Si O2"
_cell_formula_units_Z 112
_cell_length_a 21.412178
_cell_length_b 21.412178
_cell_length_c 17.103031
_cell_angle_alpha 90.000000
_cell_angle_beta 90.000000
_cell_angle_gamma 90.000000
_cell_volume 7841.421028
_symmetry_space_group_name_H-M "P 4/M N C"
_symmetry_group_IT_number 128
_symmetry_cell_setting 'tetragonal'
loop_
_space_group_symop_operation_xyz
x,y,z
-y,x,z
-x,-y,z
y,-x,z
1/2+x,1/2-y,1/2-z
1/2-x,1/2+y,1/2-z
1/2+y,1/2+x,1/2-z
1/2-y,1/2-x,1/2-z
-x,-y,-z
y,-x,-z
x,y,-z
-y,x,-z
1/2-x,1/2+y,1/2+z
1/2+x,1/2-y,1/2+z
1/2-y,1/2-x,1/2+z
1/2+y,1/2+x,1/2+z
loop_
_atom_site_type_symbol
_atom_site_label
_atom_site_fract_x
_atom_site_fract_y
_atom_site_fract_z
Si Si1 0.730288 0.846094 0.692642
Si Si2 0.918147 0.057420 0.760383
Si Si3 0.224661 0.261402 0.910626
Si Si4 0.262023 0.394182 0.874887
Si Si5 0.758170 0.960782 0.410244
Si Si6 0.646790 0.309551 0.285609
Si Si7 0.896940 0.905945 0.413233
O O1 0.674232 0.825769 0.750000
O O2 0.741192 0.790373 0.629702
O O3 0.726466 0.912036 0.649031
O O4 0.792940 0.842426 0.745420
O O5 0.863192 0.096537 0.798651
O O6 0.915383 0.063150 0.665207
O O7 0.985363 0.084312 0.782167
O O8 0.221267 0.336892 0.906497
O O9 0.171488 0.229486 0.858253
O O10 0.222818 0.241359 0.000000
O O11 0.246950 0.466102 0.893007
O O12 0.266339 0.382601 0.782032
O O13 0.331854 0.382613 0.909197
O O14 0.740087 0.947843 0.500000
O O15 0.832579 0.944742 0.405273
O O16 0.923803 0.918813 0.500000
#
# Coordination Sequence:
#
# PCOD9564524 Si02
#       7
#    16  16  16  16  16  16  16
#     4   9  17  28  42  63  89 121 155 187 226 269
#     4  10  19  29  41  59  85 122 162 189 218 263
#     4  10  17  30  47  65  86 115 154 201 236 268
#     4  10  18  27  41  64  93 123 154 184 224 270
#     4  11  18  25  41  65  93 127 157 188 223 265
#     4   9  18  29  45  61  88 121 159 188 230 264
#     4  10  17  24  35  55  89 127 159 186 209 245
#
# _framework density 14.283125
#
# number of rings (size 3 to 8) (size 9 to 14) (size 15 to 20)
#    0.000    2.143    4.286    4.714    0.000    1.714 
#    0.000    0.714    0.000    0.857    0.000    1.000 
#    0.000    2.286    0.000    6.714    1.429    0.143 
#
# Total GULP energy -623888.070384 kJ/mol
# GULP energy per Si atom -5570.429200 kJ/mol
# Density = 1.425062 g / cm^3
# Si number density = 14.283125 Si / 1000 Ang^3
#
#
#
# Elastic Constant Matrix: (Units=GPa)
#
#
# Indices 1 2 3 4 5 6 
#
# 1 70.5043 16.3026 36.1274 0.0000 0.0000 0.0000
# 2 16.3026 70.5034 36.1297 0.0000 0.0000 0.0000
# 3 36.1274 36.1297 74.7212 0.0000 0.0000 0.0000
# 4 0.0000 0.0000 0.0000 9.3329 0.0000 0.0000
# 5 0.0000 0.0000 0.0000 0.0000 9.3332 0.0000
# 6 0.0000 0.0000 0.0000 0.0000 0.0000 10.8482
#
#
#
# Elastic Compliance Matrix: (Units=1/GPa)
#
#
# Indices 1 2 3 4 5 6 
#
# 1 0.018864 0.000415 -0.009321 0.000000 0.000000 0.000000
# 2 0.000415 0.018865 -0.009322 0.000000 0.000000 0.000000
# 3 -0.009321 -0.009322 0.022397 0.000000 0.000000 0.000000
# 4 0.000000 0.000000 0.000000 0.107148 0.000000 0.000000
# 5 0.000000 0.000000 0.000000 0.000000 0.107145 0.000000
# 6 0.000000 0.000000 0.000000 0.000000 0.000000 0.092181
#
#
# Mechanical properties :
#
#
# Convention : Reuss Voigt Hill
#
# Bulk Modulus (GPa) = 42.24943 43.64980 42.94961
# Shear Modulus (GPa) = 12.16701 14.38080 13.27391
#
# Velocity S-wave (km/s) = 2.92180 3.17651 3.05182
# Velocity P-wave (km/s) = 6.40521 6.63931 6.52331
#
# Compressibility (1/GPa) = 0.02366896
#
# Stress axis : x y z
#
# Youngs Moduli (GPa) = 53.01123 53.00805 44.64799
#
# Poissons Ratio (x) = -0.02198 0.41617
# Poissons Ratio (y) = -0.02199 0.41622
# Poissons Ratio (z) = 0.49413 0.49416
#
# Static dielectric constant tensor:
#      x y z
#    x 1.477850 0.000000 0.000000 
#    y 0.000000 1.477850 0.000000 
#    z 0.000000 0.000000 1.487540 
# 
# From -- ./inp_files/5021.got.cif
#   From: 2010.05.17/outbox.cif.g08.bks.cpg/sg128_3_cif.got.tgz:5021.got - 2010.05.20 12:07:25.
