data_PCOD9564328
_publ_section_title
;
Structure prediction by ZEFSAII (Michael W. Deem and Ramdas Pophale) SiO2 
 PCOD9564328
Probable space group: P 4/M B M
;
_chemical_formula_sum "Si O2"
_cell_formula_units_Z 128
_cell_length_a 21.408863
_cell_length_b 21.408863
_cell_length_c 19.462551
_cell_angle_alpha 90.000000
_cell_angle_beta 90.000000
_cell_angle_gamma 90.000000
_cell_volume 8920.454239
_symmetry_space_group_name_H-M "P 4/M B M"
_symmetry_group_IT_number 127
_symmetry_cell_setting 'tetragonal'
loop_
_space_group_symop_operation_xyz
x,y,z
-y,x,z
-x,-y,z
y,-x,z
1/2+x,1/2-y,-z
1/2-x,1/2+y,-z
1/2+y,1/2+x,-z
1/2-y,1/2-x,-z
-x,-y,-z
y,-x,-z
x,y,-z
-y,x,-z
1/2-x,1/2+y,z
1/2+x,1/2-y,z
1/2-y,1/2-x,z
1/2+y,1/2+x,z
loop_
_atom_site_type_symbol
_atom_site_label
_atom_site_fract_x
_atom_site_fract_y
_atom_site_fract_z
Si Si1 0.583251 0.810204 0.579767
Si Si2 0.638725 0.237491 0.321398
Si Si3 0.589165 0.444163 0.079699
Si Si4 0.396445 0.477910 0.422263
Si Si5 0.840351 0.237483 0.312547
Si Si6 0.154447 0.443159 0.581841
Si Si7 0.165983 0.952508 0.718922
Si Si8 0.346805 0.585685 0.214792
O O1 0.580797 0.788789 0.500000
O O2 0.632896 0.867105 0.582248
O O3 0.608473 0.757627 0.631466
O O4 0.514943 0.834378 0.600983
O O5 0.684181 0.184181 0.290608
O O6 0.684708 0.293882 0.342963
O O7 0.601122 0.205157 0.382534
O O8 0.587588 0.270869 0.274019
O O9 0.582707 0.519059 0.090569
O O10 0.636727 0.415579 0.134545
O O11 0.605715 0.433721 0.000000
O O12 0.453830 0.428657 0.415617
O O13 0.370960 0.472593 0.500000
O O14 0.348059 0.466420 0.361251
O O15 0.797312 0.297312 0.297403
O O16 0.870783 0.207908 0.244681
O O17 0.160570 0.439654 0.500000
O O18 0.087137 0.412864 0.600028
O O19 0.110147 0.909332 0.747130
O O20 0.167419 0.016276 0.759917
#
# Coordination Sequence:
#
# PCOD9564328 Si02
#       8
#    16  16  16  16  16  16  16  16
#     4   9  17  30  47  64  83 108 141 186 234 277
#     4   9  19  32  42  54  77 109 145 181 213 249
#     4   9  17  29  45  69 100 125 141 167 211 263
#     4   9  17  28  38  52  81 113 136 169 216 261
#     4   9  19  33  45  61  84 116 156 189 216 252
#     4   9  17  29  44  60  78 101 134 182 236 280
#     4  11  19  27  44  65  85 110 146 181 215 260
#     4  11  19  28  46  69  90 116 142 179 214 261
#
# _framework density 14.349045
#
# number of rings (size 3 to 8) (size 9 to 14) (size 15 to 20)
#    0.000    2.500    2.500    1.500    0.000    1.500 
#    0.000    6.250    0.000    0.375    0.000    0.000 
#    0.000    0.500    0.000    0.000    0.000    0.000 
#
# Total GULP energy -712955.329152 kJ/mol
# GULP energy per Si atom -5569.963509 kJ/mol
# Density = 1.431639 g / cm^3
# Si number density = 14.349045 Si / 1000 Ang^3
#
#
#
# Elastic Constant Matrix: (Units=GPa)
#
#
# Indices 1 2 3 4 5 6 
#
# 1 50.8071 13.0344 25.4990 0.0000 0.0000 0.0000
# 2 13.0344 50.8071 25.4990 0.0000 0.0000 0.0000
# 3 25.4990 25.4990 78.8390 0.0000 0.0000 0.0000
# 4 0.0000 0.0000 0.0000 14.8438 0.0000 0.0000
# 5 0.0000 0.0000 0.0000 0.0000 14.8438 0.0000
# 6 0.0000 0.0000 0.0000 0.0000 0.0000 11.4715
#
#
#
# Elastic Compliance Matrix: (Units=1/GPa)
#
#
# Indices 1 2 3 4 5 6 
#
# 1 0.023797 -0.002677 -0.006831 0.000000 0.000000 0.000000
# 2 -0.002677 0.023797 -0.006831 0.000000 0.000000 0.000000
# 3 -0.006831 -0.006831 0.017103 0.000000 0.000000 0.000000
# 4 0.000000 0.000000 0.000000 0.067368 0.000000 0.000000
# 5 0.000000 0.000000 0.000000 0.000000 0.067368 0.000000
# 6 0.000000 0.000000 0.000000 0.000000 0.000000 0.087172
#
#
# Mechanical properties :
#
#
# Convention : Reuss Voigt Hill
#
# Bulk Modulus (GPa) = 31.23068 34.27978 32.75523
# Shear Modulus (GPa) = 15.15345 15.99319 15.57332
#
# Velocity S-wave (km/s) = 3.25323 3.34216 3.29800
# Velocity P-wave (km/s) = 5.99363 6.23179 6.11387
#
# Compressibility (1/GPa) = 0.03201980
#
# Stress axis : x y z
#
# Youngs Moduli (GPa) = 42.02139 42.02139 58.46978
#
# Poissons Ratio (x) = 0.11248 0.39941
# Poissons Ratio (y) = 0.11248 0.39941
# Poissons Ratio (z) = 0.28705 0.28705
#
# Static dielectric constant tensor:
#      x y z
#    x 1.491930 0.000000 0.000000 
#    y 0.000000 1.491930 0.000000 
#    z 0.000000 0.000000 1.449580 
# 
# From -- ./inp_files/5414.got.cif
#   From: 2010.05.17/outbox.cif.g08.bks.cpg/sg127_3_cif.got.tgz:5414.got - 2010.05.20 12:03:00.
