data_PCOD9564280
_publ_section_title
;
Structure prediction by ZEFSAII (Michael W. Deem and Ramdas Pophale) SiO2 
 PCOD9564280
Probable space group: P 4/M B M
;
_chemical_formula_sum "Si O2"
_cell_formula_units_Z 88
_cell_length_a 12.162808
_cell_length_b 12.162808
_cell_length_c 28.674107
_cell_angle_alpha 90.000000
_cell_angle_beta 90.000000
_cell_angle_gamma 90.000000
_cell_volume 4241.872433
_symmetry_space_group_name_H-M "P 4/M B M"
_symmetry_group_IT_number 127
_symmetry_cell_setting 'tetragonal'
loop_
_space_group_symop_operation_xyz
x,y,z
-y,x,z
-x,-y,z
y,-x,z
1/2+x,1/2-y,-z
1/2-x,1/2+y,-z
1/2+y,1/2+x,-z
1/2-y,1/2-x,-z
-x,-y,-z
y,-x,-z
x,y,-z
-y,x,-z
1/2-x,1/2+y,z
1/2+x,1/2-y,z
1/2-y,1/2-x,z
1/2+y,1/2+x,z
loop_
_atom_site_type_symbol
_atom_site_label
_atom_site_fract_x
_atom_site_fract_y
_atom_site_fract_z
Si Si1 0.184439 0.006812 0.713507
Si Si2 0.243762 0.440288 0.613510
Si Si3 0.504266 0.818137 0.806941
Si Si4 0.472323 0.680276 0.103645
Si Si5 0.617579 0.702740 0.551826
Si Si6 0.590475 0.090475 0.944160
O O1 0.237632 0.999766 0.662514
O O2 0.109992 0.897300 0.717740
O O3 0.271922 0.011079 0.754834
O O4 0.152448 0.347553 0.620275
O O5 0.217165 0.526012 0.572764
O O6 0.354826 0.386796 0.591425
O O7 0.616465 0.883536 0.819183
O O8 0.478800 0.719914 0.842646
O O9 0.406338 0.906338 0.810516
O O10 0.378916 0.588978 0.094200
O O11 0.446225 0.790976 0.075290
O O12 0.588709 0.662773 0.500000
O O13 0.729416 0.770585 0.547797
O O14 0.500000 0.000000 0.929282
O O15 0.593808 0.093808 0.000000
#
# Coordination Sequence:
#
# PCOD9564280 Si02
#       6
#    16  16  16  16  16   8
#     4  11  23  40  62  89 123 164 211 263 325 393
#     4  11  22  39  61  85 117 155 197 250 313 380
#     4  11  24  41  66  99 137 180 229 278 339 412
#     4  11  25  45  73 108 148 195 248 305 364 430
#     4  10  22  39  60  86 115 152 197 247 307 379
#     4  11  26  46  74 109 151 201 253 312 373 427
#
# _framework density 20.745555
#
# number of rings (size 3 to 8) (size 9 to 14) (size 15 to 20)
#    0.000    1.182    2.727    2.727    2.545    7.636 
#    0.000    2.727    0.000    0.000    0.000    0.000 
#    0.000    0.000    0.000    0.000    0.000    0.000 
#
# Total GULP energy -491504.076349 kJ/mol
# GULP energy per Si atom -5585.273595 kJ/mol
# Density = 2.069834 g / cm^3
# Si number density = 20.745555 Si / 1000 Ang^3
#
#
#
# Elastic Constant Matrix: (Units=GPa)
#
#
# Indices 1 2 3 4 5 6 
#
# 1 96.5721 38.9363 35.5376 0.0000 0.0000 0.0000
# 2 38.9363 96.5721 35.5376 0.0000 0.0000 0.0000
# 3 35.5376 35.5376 108.4092 0.0000 0.0000 0.0000
# 4 0.0000 0.0000 0.0000 22.6686 0.0000 0.0000
# 5 0.0000 0.0000 0.0000 0.0000 22.6686 0.0000
# 6 0.0000 0.0000 0.0000 0.0000 0.0000 17.4895
#
#
#
# Elastic Compliance Matrix: (Units=1/GPa)
#
#
# Indices 1 2 3 4 5 6 
#
# 1 0.013131 -0.004219 -0.002921 0.000000 0.000000 0.000000
# 2 -0.004219 0.013131 -0.002921 0.000000 0.000000 0.000000
# 3 -0.002921 -0.002921 0.011140 0.000000 0.000000 0.000000
# 4 0.000000 0.000000 0.000000 0.044114 0.000000 0.000000
# 5 0.000000 0.000000 0.000000 0.000000 0.044114 0.000000
# 6 0.000000 0.000000 0.000000 0.000000 0.000000 0.057177
#
#
# Mechanical properties :
#
#
# Convention : Reuss Voigt Hill
#
# Bulk Modulus (GPa) = 57.87765 57.95294 57.91529
# Shear Modulus (GPa) = 23.95893 25.33478 24.64686
#
# Velocity S-wave (km/s) = 3.40206 3.49838 3.45056
# Velocity P-wave (km/s) = 6.58722 6.65687 6.62214
#
# Compressibility (1/GPa) = 0.01727783
#
# Stress axis : x y z
#
# Youngs Moduli (GPa) = 76.15493 76.15493 89.76949
#
# Poissons Ratio (x) = 0.32131 0.26225
# Poissons Ratio (y) = 0.32131 0.26225
# Poissons Ratio (z) = 0.22248 0.22248
#
# Static dielectric constant tensor:
#      x y z
#    x 1.774330 0.000000 0.000000 
#    y 0.000000 1.774330 0.000000 
#    z 0.000000 0.000000 1.730730 
# 
# From -- ./inp_files/6504.got.cif
#   From: 2010.05.17/outbox.cif.g08.bks.cpg/sg127_4_cif.got.tgz:6504.got - 2010.05.20 12:03:00.
