data_PCOD9564617
_publ_section_title
;
Structure prediction by ZEFSAII (Michael W. Deem and Ramdas Pophale) SiO2 
 PCOD9564617
Probable space group: P 4/M N C
;
_chemical_formula_sum "Si O2"
_cell_formula_units_Z 128
_cell_length_a 20.485742
_cell_length_b 20.485742
_cell_length_c 18.818442
_cell_angle_alpha 90.000000
_cell_angle_beta 90.000000
_cell_angle_gamma 90.000000
_cell_volume 7897.453229
_symmetry_space_group_name_H-M "P 4/M N C"
_symmetry_group_IT_number 128
_symmetry_cell_setting 'tetragonal'
loop_
_space_group_symop_operation_xyz
x,y,z
-y,x,z
-x,-y,z
y,-x,z
1/2+x,1/2-y,1/2-z
1/2-x,1/2+y,1/2-z
1/2+y,1/2+x,1/2-z
1/2-y,1/2-x,1/2-z
-x,-y,-z
y,-x,-z
x,y,-z
-y,x,-z
1/2-x,1/2+y,1/2+z
1/2+x,1/2-y,1/2+z
1/2-y,1/2-x,1/2+z
1/2+y,1/2+x,1/2+z
loop_
_atom_site_type_symbol
_atom_site_label
_atom_site_fract_x
_atom_site_fract_y
_atom_site_fract_z
Si Si1 0.932090 0.674216 0.777054
Si Si2 0.484797 0.071879 0.080536
Si Si3 0.367476 0.895923 0.078085
Si Si4 0.672037 0.733074 0.203496
Si Si5 0.569286 0.842822 0.198445
Si Si6 0.403036 0.448092 0.418303
Si Si7 0.275664 0.774199 0.583833
Si Si8 0.190420 0.868268 0.818067
O O1 0.877554 0.622447 0.750000
O O2 0.943207 0.655299 0.859430
O O3 0.901656 0.746301 0.781669
O O4 0.997745 0.668521 0.732017
O O5 0.554883 0.106912 0.078666
O O6 0.438294 0.115804 0.126906
O O7 0.500000 0.000000 0.111523
O O8 0.460921 0.062071 0.000000
O O9 0.335699 0.825045 0.089981
O O10 0.345988 0.918592 0.000000
O O11 0.721927 0.778074 0.250000
O O12 0.608538 0.776034 0.188082
O O13 0.711630 0.715821 0.131909
O O14 0.656770 0.672439 0.254975
O O15 0.612106 0.887895 0.250000
O O16 0.474338 0.414784 0.410798
O O17 0.380506 0.436184 0.500000
O O18 0.354390 0.419138 0.360033
O O19 0.263515 0.762594 0.500000
O O20 0.317465 0.716944 0.622017
#
# Coordination Sequence:
#
# PCOD9564617 Si02
#       8
#    16  16  16  16  16  16  16  16
#     4  11  20  32  53  77  99 137 181 211 263 312
#     4  10  20  33  50  72 102 138 172 210 255 308
#     4   9  17  30  48  73  98 123 170 219 251 295
#     4   9  20  35  47  72 105 133 170 221 264 303
#     4  11  23  34  51  74 107 140 174 216 262 315
#     4   9  19  35  54  78 108 139 168 204 261 327
#     4   9  17  32  54  73  95 134 174 217 262 306
#     4  10  19  32  55  75 107 131 173 220 264 311
#
# _framework density 16.207756
#
# number of rings (size 3 to 8) (size 9 to 14) (size 15 to 20)
#    0.000    2.250    1.250    3.375    1.750    1.000 
#    0.000    0.000    0.000    0.750    0.000    0.000 
#    0.000    0.000    0.000    1.375    0.000    0.000 
#
# Total GULP energy -713313.956897 kJ/mol
# GULP energy per Si atom -5572.765288 kJ/mol
# Density = 1.617087 g / cm^3
# Si number density = 16.207756 Si / 1000 Ang^3
#
#
#
# Elastic Constant Matrix: (Units=GPa)
#
#
# Indices 1 2 3 4 5 6 
#
# 1 57.5639 33.9084 32.6542 0.0000 0.0000 0.0000
# 2 33.9084 57.5638 32.6546 0.0000 0.0000 0.0000
# 3 32.6542 32.6546 86.7505 0.0000 0.0000 0.0000
# 4 0.0000 0.0000 0.0000 15.8155 0.0000 0.0000
# 5 0.0000 0.0000 0.0000 0.0000 15.8138 0.0000
# 6 0.0000 0.0000 0.0000 0.0000 0.0000 19.9645
#
#
#
# Elastic Compliance Matrix: (Units=1/GPa)
#
#
# Indices 1 2 3 4 5 6 
#
# 1 0.028612 -0.013662 -0.005627 0.000000 0.000000 0.000000
# 2 -0.013662 0.028612 -0.005628 0.000000 0.000000 0.000000
# 3 -0.005627 -0.005628 0.015764 0.000000 0.000000 0.000000
# 4 0.000000 0.000000 0.000000 0.063229 0.000000 0.000000
# 5 0.000000 0.000000 0.000000 0.000000 0.063236 0.000000
# 6 0.000000 0.000000 0.000000 0.000000 0.000000 0.050089
#
#
# Mechanical properties :
#
#
# Convention : Reuss Voigt Hill
#
# Bulk Modulus (GPa) = 43.18867 44.47917 43.83392
# Shear Modulus (GPa) = 16.28171 17.16282 16.72227
#
# Velocity S-wave (km/s) = 3.17292 3.25765 3.21556
# Velocity P-wave (km/s) = 6.33467 6.45387 6.39454
#
# Compressibility (1/GPa) = 0.02315422
#
# Stress axis : x y z
#
# Youngs Moduli (GPa) = 34.95070 34.95042 63.43611
#
# Poissons Ratio (x) = 0.47748 0.35698
# Poissons Ratio (y) = 0.47748 0.35700
# Poissons Ratio (z) = 0.19668 0.19669
#
# Static dielectric constant tensor:
#      x y z
#    x 1.542150 0.000000 0.000000 
#    y 0.000000 1.542150 0.000000 
#    z 0.000000 0.000000 1.576710 
# 
# From -- ./inp_files/5122.got.cif
#   From: 2010.05.17/outbox.cif.g08.bks.cpg/sg128_3_cif.got.tgz:5122.got - 2010.05.20 12:07:25.
