data_PCOD9564922
_publ_section_title
;
Structure prediction by ZEFSAII (Michael W. Deem and Ramdas Pophale) SiO2 
 PCOD9564922
Probable space group: P 4/M N C
;
_chemical_formula_sum "Si O2"
_cell_formula_units_Z 98
_cell_length_a 14.071594
_cell_length_b 14.071594
_cell_length_c 23.913858
_cell_angle_alpha 90.000000
_cell_angle_beta 90.000000
_cell_angle_gamma 90.000000
_cell_volume 4735.177228
_symmetry_space_group_name_H-M "P 4/M N C"
_symmetry_group_IT_number 128
_symmetry_cell_setting 'tetragonal'
loop_
_space_group_symop_operation_xyz
x,y,z
-y,x,z
-x,-y,z
y,-x,z
1/2+x,1/2-y,1/2-z
1/2-x,1/2+y,1/2-z
1/2+y,1/2+x,1/2-z
1/2-y,1/2-x,1/2-z
-x,-y,-z
y,-x,-z
x,y,-z
-y,x,-z
1/2-x,1/2+y,1/2+z
1/2+x,1/2-y,1/2+z
1/2-y,1/2-x,1/2+z
1/2+y,1/2+x,1/2+z
loop_
_atom_site_type_symbol
_atom_site_label
_atom_site_fract_x
_atom_site_fract_y
_atom_site_fract_z
Si Si1 0.158235 0.221862 0.878853
Si Si2 0.527343 0.890986 0.112978
Si Si3 0.063087 0.403536 0.500000
Si Si4 0.028296 0.725407 0.721782
Si Si5 0.603733 0.291970 0.500000
Si Si6 0.445447 0.221633 0.652282
Si Si7 0.332117 0.722558 0.797483
Si Si8 0.000000 0.000000 0.000000
O O1 0.225569 0.304608 0.855204
O O2 0.189907 0.126710 0.846269
O O3 0.165146 0.200106 0.944002
O O4 0.048582 0.249078 0.869266
O O5 0.473383 0.853923 0.057521
O O6 0.500903 0.844709 0.171842
O O7 0.500000 0.000000 0.117374
O O8 0.177032 0.425279 0.500000
O O9 0.000000 0.500000 0.500000
O O10 0.142251 0.604389 0.613587
O O11 0.039722 0.685324 0.784233
O O12 0.127132 0.772478 0.706035
O O13 0.940362 0.797519 0.718376
O O14 0.529476 0.382181 0.500000
O O15 0.294469 0.794469 0.750000
#
# Coordination Sequence:
#
# PCOD9564922 Si02
#       8
#    16  16   8  16   8  16  16   2
#     4  12  25  43  66  98 137 182 224 291 336 415
#     4  11  23  38  66  95 129 175 223 281 345 405
#     4  10  22  44  64  98 137 171 229 296 346 402
#     4  12  23  41  65  95 135 178 225 283 351 416
#     4  12  26  46  70  98 139 187 241 277 349 424
#     4  12  23  40  64  96 137 177 231 281 348 413
#     4  12  23  44  65  96 135 173 229 286 343 415
#     4  12  28  52  76 100 140 204 244 280 340 450
#
# _framework density 20.696164
#
# number of rings (size 3 to 8) (size 9 to 14) (size 15 to 20)
#    0.000    0.327    4.898    5.388    0.000    1.959 
#    0.000    1.633    0.000    0.000    0.000    0.000 
#    0.000    3.918    0.000    0.000    0.000    0.000 
#
# Total GULP energy -546301.842178 kJ/mol
# GULP energy per Si atom -5574.508594 kJ/mol
# Density = 2.064906 g / cm^3
# Si number density = 20.696164 Si / 1000 Ang^3
#
#
#
# Elastic Constant Matrix: (Units=GPa)
#
#
# Indices 1 2 3 4 5 6 
#
# 1 90.0543 4.8337 27.9839 0.0000 0.0000 0.0000
# 2 4.8337 90.0543 27.9839 0.0000 0.0000 0.0000
# 3 27.9839 27.9839 162.2194 0.0000 0.0000 0.0000
# 4 0.0000 0.0000 0.0000 22.3812 0.0000 0.0000
# 5 0.0000 0.0000 0.0000 0.0000 22.3812 0.0000
# 6 0.0000 0.0000 0.0000 0.0000 0.0000 22.7705
#
#
#
# Elastic Compliance Matrix: (Units=1/GPa)
#
#
# Indices 1 2 3 4 5 6 
#
# 1 0.011733 -0.000001 -0.002024 0.000000 0.000000 0.000000
# 2 -0.000001 0.011733 -0.002024 0.000000 0.000000 0.000000
# 3 -0.002024 -0.002024 0.006863 0.000000 0.000000 0.000000
# 4 0.000000 0.000000 0.000000 0.044680 0.000000 0.000000
# 5 0.000000 0.000000 0.000000 0.000000 0.044680 0.000000
# 6 0.000000 0.000000 0.000000 0.000000 0.000000 0.043917
#
#
# Mechanical properties :
#
#
# Convention : Reuss Voigt Hill
#
# Bulk Modulus (GPa) = 44.98010 51.54791 48.26401
# Shear Modulus (GPa) = 27.91505 32.27502 30.09504
#
# Velocity S-wave (km/s) = 3.67659 3.95330 3.81745
# Velocity P-wave (km/s) = 6.30903 6.76750 6.54228
#
# Compressibility (1/GPa) = 0.02223205
#
# Stress axis : x y z
#
# Youngs Moduli (GPa) = 85.22692 85.22692 145.71369
#
# Poissons Ratio (x) = 0.00007 0.29491
# Poissons Ratio (y) = 0.00007 0.29491
# Poissons Ratio (z) = 0.17249 0.17249
#
# Static dielectric constant tensor:
#      x y z
#    x 2.048870 0.000000 0.000000 
#    y 0.000000 2.048870 0.000000 
#    z 0.000000 0.000000 1.816020 
# 
# From -- ./inp_files/6421.got.cif
#   From: 2010.05.17/outbox.cif.g08.bks.cpg/sg128_4_cif.got.tgz:6421.got - 2010.05.20 12:07:25.
