data_PCOD9564952
_publ_section_title
;
Structure prediction by ZEFSAII (Michael W. Deem and Ramdas Pophale) SiO2 
 PCOD9564952
Probable space group: P 4/M N C
;
_chemical_formula_sum "Si O2"
_cell_formula_units_Z 84
_cell_length_a 12.185128
_cell_length_b 12.185128
_cell_length_c 28.070094
_cell_angle_alpha 90.000000
_cell_angle_beta 90.000000
_cell_angle_gamma 90.000000
_cell_volume 4167.773014
_symmetry_space_group_name_H-M "P 4/M N C"
_symmetry_group_IT_number 128
_symmetry_cell_setting 'tetragonal'
loop_
_space_group_symop_operation_xyz
x,y,z
-y,x,z
-x,-y,z
y,-x,z
1/2+x,1/2-y,1/2-z
1/2-x,1/2+y,1/2-z
1/2+y,1/2+x,1/2-z
1/2-y,1/2-x,1/2-z
-x,-y,-z
y,-x,-z
x,y,-z
-y,x,-z
1/2-x,1/2+y,1/2+z
1/2+x,1/2-y,1/2+z
1/2-y,1/2-x,1/2+z
1/2+y,1/2+x,1/2+z
loop_
_atom_site_type_symbol
_atom_site_label
_atom_site_fract_x
_atom_site_fract_y
_atom_site_fract_z
Si Si1 0.969060 0.172527 0.942711
Si Si2 0.170522 0.597846 0.803127
Si Si3 0.464648 0.322188 0.057478
Si Si4 0.914401 0.406072 0.098947
Si Si5 0.000000 0.000000 0.251459
Si Si6 0.223156 0.875024 0.718363
O O1 0.945524 0.293059 0.925657
O O2 0.085695 0.123327 0.926504
O O3 0.969292 0.171039 0.000000
O O4 0.127489 0.627489 0.750000
O O5 0.083267 0.614397 0.844324
O O6 0.213138 0.473801 0.806030
O O7 0.277802 0.672011 0.813201
O O8 0.583282 0.375262 0.069284
O O9 0.441166 0.207943 0.083098
O O10 0.461223 0.306578 0.000000
O O11 0.000000 0.500000 0.085737
O O12 0.069974 0.118155 0.255033
O O13 0.311435 0.811435 0.750000
#
# Coordination Sequence:
#
# PCOD9564952 Si02
#       6
#    16  16  16  16   4  16
#     4   9  21  45  72  95 129 174 216 268 334 398
#     4  10  24  42  60  92 126 174 216 267 323 375
#     4   9  21  43  67  95 133 173 213 270 338 395
#     4  12  27  38  64 102 135 170 220 274 319 393
#     4   8  16  36  56  96 108 132 221 268 313 388
#     4   9  19  38  66  81 117 166 215 262 319 380
#
# _framework density 20.154648000000002
#
# number of rings (size 3 to 8) (size 9 to 14) (size 15 to 20)
#    0.000    2.286    0.000    1.714    8.000    1.524 
#    3.429    0.000    0.000    0.000    0.000    0.000 
#    0.000    0.000    0.000    0.000    0.000    0.000 
#
# Total GULP energy -467815.800780 kJ/mol
# GULP energy per Si atom -5569.235724 kJ/mol
# Density = 2.010878 g / cm^3
# Si number density = 20.154648 Si / 1000 Ang^3
#
#
#
# Elastic Constant Matrix: (Units=GPa)
#
#
# Indices 1 2 3 4 5 6 
#
# 1 124.3263 79.9335 40.0433 0.0000 0.0000 0.0000
# 2 79.9335 124.3263 40.0433 0.0000 0.0000 0.0000
# 3 40.0433 40.0433 47.6649 0.0000 0.0000 0.0000
# 4 0.0000 0.0000 0.0000 15.6126 0.0000 0.0000
# 5 0.0000 0.0000 0.0000 0.0000 15.6126 0.0000
# 6 0.0000 0.0000 0.0000 0.0000 0.0000 26.7710
#
#
#
# Elastic Compliance Matrix: (Units=1/GPa)
#
#
# Indices 1 2 3 4 5 6 
#
# 1 0.014913 -0.007613 -0.006133 0.000000 0.000000 0.000000
# 2 -0.007613 0.014913 -0.006133 0.000000 0.000000 0.000000
# 3 -0.006133 -0.006133 0.031285 0.000000 0.000000 0.000000
# 4 0.000000 0.000000 0.000000 0.064051 0.000000 0.000000
# 5 0.000000 0.000000 0.000000 0.000000 0.064051 0.000000
# 6 0.000000 0.000000 0.000000 0.000000 0.000000 0.037354
#
#
# Mechanical properties :
#
#
# Convention : Reuss Voigt Hill
#
# Bulk Modulus (GPa) = 46.83158 68.48417 57.65787
# Shear Modulus (GPa) = 18.28536 20.68571 19.48554
#
# Velocity S-wave (km/s) = 3.01533 3.20714 3.11272
# Velocity P-wave (km/s) = 5.95059 6.91140 6.44891
#
# Compressibility (1/GPa) = 0.02135311
#
# Stress axis : x y z
#
# Youngs Moduli (GPa) = 67.05436 67.05436 31.96466
#
# Poissons Ratio (x) = 0.51048 0.19604
# Poissons Ratio (y) = 0.51048 0.19604
# Poissons Ratio (z) = 0.41125 0.41125
#
# Static dielectric constant tensor:
#      x y z
#    x 1.713710 0.000000 0.000000 
#    y 0.000000 1.713710 0.000000 
#    z 0.000000 0.000000 1.754190 
# 
# From -- ./inp_files/7290.got.cif
#   From: 2010.05.17/outbox.cif.g08.bks.cpg/sg128_4_cif.got.tgz:7290.got - 2010.05.20 12:07:25.
