data_PCOD9564489
_publ_section_title
;
Structure prediction by ZEFSAII (Michael W. Deem and Ramdas Pophale) SiO2 
 PCOD9564489
Probable space group: P 4/M B M
;
_chemical_formula_sum "Si O2"
_cell_formula_units_Z 96
_cell_length_a 24.000000
_cell_length_b 24.000000
_cell_length_c 9.000000
_cell_angle_alpha 90.000000
_cell_angle_beta 90.000000
_cell_angle_gamma 90.000000
_cell_volume 5184.000000
_symmetry_space_group_name_H-M "P 4/M B M"
_symmetry_group_IT_number 127
_symmetry_cell_setting 'tetragonal'
loop_
_space_group_symop_operation_xyz
x,y,z
-y,x,z
-x,-y,z
y,-x,z
1/2+x,1/2-y,-z
1/2-x,1/2+y,-z
1/2+y,1/2+x,-z
1/2-y,1/2-x,-z
-x,-y,-z
y,-x,-z
x,y,-z
-y,x,-z
1/2-x,1/2+y,z
1/2+x,1/2-y,z
1/2-y,1/2-x,z
1/2+y,1/2+x,z
loop_
_atom_site_type_symbol
_atom_site_label
_atom_site_fract_x
_atom_site_fract_y
_atom_site_fract_z
Si Si1 0.630753 0.956578 0.821366
Si Si2 0.020480 0.750275 0.680409
Si Si3 0.846143 0.653858 0.679007
Si Si4 0.446156 0.424122 0.163853
Si Si5 0.114819 0.834971 0.673500
Si Si6 0.431583 0.931583 0.177130
Si Si7 0.606479 0.273936 0.318725
O O1 0.601713 0.898288 0.778649
O O2 0.688072 0.971207 0.740657
O O3 0.586890 0.005870 0.787844
O O4 0.639478 0.956072 0.000000
O O5 0.020347 0.750168 0.500000
O O6 0.073982 0.786465 0.732948
O O7 0.959138 0.773756 0.726938
O O8 0.847344 0.652657 0.500000
O O9 0.890023 0.609978 0.740878
O O10 0.865494 0.715488 0.725413
O O11 0.512630 0.425701 0.170225
O O12 0.421854 0.389665 0.298197
O O13 0.429935 0.401193 0.000000
O O14 0.123073 0.822686 0.500000
O O15 0.174858 0.854777 0.734931
O O16 0.424680 0.924680 0.000000
O O17 0.605846 0.276653 0.500000
#
# Coordination Sequence:
#
# PCOD9564489 Si02
#       7
#    16  16   8  16  16   8  16
#     4  10  21  37  57  81 111 143 174 215 272 330
#     4  10  20  35  55  80 109 142 182 227 270 320
#     4  10  18  33  57  77 106 146 180 217 271 324
#     4   9  18  32  49  72 103 137 175 220 271 325
#     4  10  20  34  52  78 107 138 181 228 269 314
#     4  10  19  34  58  86 110 134 174 222 267 321
#     4   9  18  33  53  77 106 140 178 222 272 322
#
# _framework density 18.518519000000001
#
# number of rings (size 3 to 8) (size 9 to 14) (size 15 to 20)
#    0.000    2.333    1.667    1.750    0.000    4.000 
#    1.500    2.500    0.000    1.500    0.000    0.000 
#    0.000    0.000    0.000    0.000    0.000    0.000 
#
# Total GULP energy -534702.014195 kJ/mol
# GULP energy per Si atom -5569.812648 kJ/mol
# Density = 1.847637 g / cm^3
# Si number density = 18.518519 Si / 1000 Ang^3
#
#
#
# Elastic Constant Matrix: (Units=GPa)
#
#
# Indices 1 2 3 4 5 6 
#
# 1 165.0393 1.2743 10.1076 0.0000 0.0000 0.0000
# 2 1.2743 165.0386 10.1077 0.0000 0.0000 0.0000
# 3 10.1076 10.1077 -10.5846 0.0000 0.0000 0.0000
# 4 0.0000 0.0000 0.0000 17.0664 0.0000 0.0000
# 5 0.0000 0.0000 0.0000 0.0000 17.0664 0.0000
# 6 0.0000 0.0000 0.0000 0.0000 0.0000 51.6282
#
#
#
# Elastic Compliance Matrix: (Units=1/GPa)
#
#
# Indices 1 2 3 4 5 6 
#
# 1 0.005747 -0.000359 0.005145 0.000000 0.000000 0.000000
# 2 -0.000359 0.005747 0.005145 0.000000 0.000000 0.000000
# 3 0.005145 0.005145 -0.084651 0.000000 0.000000 0.000000
# 4 0.000000 0.000000 0.000000 0.058595 0.000000 0.000000
# 5 0.000000 0.000000 0.000000 0.000000 0.058595 0.000000
# 6 0.000000 0.000000 0.000000 0.000000 0.000000 0.019369
#
#
# Mechanical properties :
#
#
# Convention : Reuss Voigt Hill
#
# Bulk Modulus (GPa) = -18.76256 40.27470 10.75607
# Shear Modulus (GPa) = 193.98083 37.01913 115.49998
#
# Velocity S-wave (km/s) = 10.24583 4.47590 7.90603
# Velocity P-wave (km/s) = 11.39367 6.96471 9.44253
#
# Compressibility (1/GPa) = -0.05329764
#
# Stress axis : x y z
#
# Youngs Moduli (GPa) = 174.00795 174.00735 -11.81321
#
# Poissons Ratio (x) = 0.06255 0.06077
# Poissons Ratio (y) = 0.06255 0.06077
# Poissons Ratio (z) = -0.89520 -0.89521
#
# Static dielectric constant tensor:
#      x y z
#    x 1.646000 0.000000 0.000000 
#    y 0.000000 1.646000 0.000000 
#    z 0.000000 0.000000 1.641080 
# 
# From -- ./inp_files/2079.got.cif
#   From: 2010.05.17/outbox.ucp.g08.bks.cvg/sg127_2_cif.got.tgz:2079.got - 2010.06.11 11:37:05.
