data_PCOD9564014
_publ_section_title
;
Structure prediction by ZEFSAII (Michael W. Deem and Ramdas Pophale) SiO2 
 PCOD9564014
Probable space group: P 4/M B M
;
_chemical_formula_sum "Si O2"
_cell_formula_units_Z 72
_cell_length_a 16.916123
_cell_length_b 16.916123
_cell_length_c 12.560706
_cell_angle_alpha 90.000000
_cell_angle_beta 90.000000
_cell_angle_gamma 90.000000
_cell_volume 3594.311556
_symmetry_space_group_name_H-M "P 4/M B M"
_symmetry_group_IT_number 127
_symmetry_cell_setting 'tetragonal'
loop_
_space_group_symop_operation_xyz
x,y,z
-y,x,z
-x,-y,z
y,-x,z
1/2+x,1/2-y,-z
1/2-x,1/2+y,-z
1/2+y,1/2+x,-z
1/2-y,1/2-x,-z
-x,-y,-z
y,-x,-z
x,y,-z
-y,x,-z
1/2-x,1/2+y,z
1/2+x,1/2-y,z
1/2-y,1/2-x,z
1/2+y,1/2+x,z
loop_
_atom_site_type_symbol
_atom_site_label
_atom_site_fract_x
_atom_site_fract_y
_atom_site_fract_z
Si Si1 0.793720 0.838194 0.767197
Si Si2 0.319680 0.949038 0.000000
Si Si3 0.568313 0.068313 0.377385
Si Si4 0.186242 0.814981 0.000000
Si Si5 0.966103 0.333881 0.776254
Si Si6 0.424005 0.606696 0.625622
O O1 0.742803 0.757198 0.766354
O O2 0.734505 0.908356 0.734017
O O3 0.870435 0.835532 0.694279
O O4 0.819246 0.857325 0.888200
O O5 0.252799 0.882047 0.000000
O O6 0.312997 0.997601 0.109140
O O7 0.403805 0.903805 0.000000
O O8 0.587585 0.087585 0.500000
O O9 0.531356 0.140085 0.309569
O O10 0.500000 0.000000 0.380738
O O11 0.229755 0.729755 0.000000
O O12 0.909715 0.409715 0.794213
O O13 0.394107 0.517215 0.648626
O O14 0.414265 0.620903 0.500000
#
# Coordination Sequence:
#
# PCOD9564014 Si02
#       6
#    16   8   8   8  16  16
#     4  10  21  38  60  86 120 156 195 238 295 358
#     4  11  20  32  55  81 112 153 198 234 286 354
#     4   9  18  33  51  79 119 152 187 237 287 337
#     4   9  21  37  52  78 116 153 186 243 296 341
#     4  10  20  33  54  83 115 154 194 236 287 355
#     4   9  20  40  64  88 115 151 199 252 295 337
#
# _framework density 20.031651
#
# number of rings (size 3 to 8) (size 9 to 14) (size 15 to 20)
#    0.000    2.333    1.111    1.667    3.111    3.556 
#    0.000    2.222    0.000    1.333    0.000    0.000 
#    0.000    0.000    0.000    0.000    0.000    0.000 
#
# Total GULP energy -401910.167777 kJ/mol
# GULP energy per Si atom -5582.085664 kJ/mol
# Density = 1.998606 g / cm^3
# Si number density = 20.031651 Si / 1000 Ang^3
#
#
#
# Elastic Constant Matrix: (Units=GPa)
#
#
# Indices 1 2 3 4 5 6 
#
# 1 33.5551 5.8029 25.8258 0.0000 0.0000 0.0000
# 2 5.8029 33.5551 25.8258 0.0000 0.0000 0.0000
# 3 25.8258 25.8258 92.3749 0.0000 0.0000 0.0000
# 4 0.0000 0.0000 0.0000 20.4995 0.0000 0.0000
# 5 0.0000 0.0000 0.0000 0.0000 20.4995 0.0000
# 6 0.0000 0.0000 0.0000 0.0000 0.0000 16.6271
#
#
#
# Elastic Compliance Matrix: (Units=1/GPa)
#
#
# Indices 1 2 3 4 5 6 
#
# 1 0.038083 0.002050 -0.011220 0.000000 0.000000 0.000000
# 2 0.002050 0.038083 -0.011220 0.000000 0.000000 0.000000
# 3 -0.011220 -0.011220 0.017099 0.000000 0.000000 0.000000
# 4 0.000000 0.000000 0.000000 0.048782 0.000000 0.000000
# 5 0.000000 0.000000 0.000000 0.000000 0.048782 0.000000
# 6 0.000000 0.000000 0.000000 0.000000 0.000000 0.060143
#
#
# Mechanical properties :
#
#
# Convention : Reuss Voigt Hill
#
# Bulk Modulus (GPa) = 19.05346 30.48820 24.77083
# Shear Modulus (GPa) = 16.16834 18.32728 17.24781
#
# Velocity S-wave (km/s) = 2.84410 3.02804 2.93751
# Velocity P-wave (km/s) = 4.50750 5.24199 4.88856
#
# Compressibility (1/GPa) = 0.05248391
#
# Stress axis : x y z
#
# Youngs Moduli (GPa) = 26.25856 26.25856 58.48244
#
# Poissons Ratio (x) = -0.05382 0.65618
# Poissons Ratio (y) = -0.05382 0.65618
# Poissons Ratio (z) = 0.29462 0.29462
#
# Static dielectric constant tensor:
#      x y z
#    x 1.715750 0.000000 0.000000 
#    y 0.000000 1.715750 0.000000 
#    z 0.000000 0.000000 1.672840 
# 
# From -- ./inp_files/3216.got.cif
#   From: 2010.05.17/outbox.cif.g08.bks.cpg/sg127_2_cif.got.tgz:3216.got - 2010.05.20 12:03:00.
