data_PCOD9564755
_publ_section_title
;
Structure prediction by ZEFSAII (Michael W. Deem and Ramdas Pophale) SiO2 
 PCOD9564755
Probable space group: P 4/M N C
;
_chemical_formula_sum "Si O2"
_cell_formula_units_Z 96
_cell_length_a 24.293380
_cell_length_b 24.293380
_cell_length_c 8.842573
_cell_angle_alpha 90.000000
_cell_angle_beta 90.000000
_cell_angle_gamma 90.000000
_cell_volume 5218.606380
_symmetry_space_group_name_H-M "P 4/M N C"
_symmetry_group_IT_number 128
_symmetry_cell_setting 'tetragonal'
loop_
_space_group_symop_operation_xyz
x,y,z
-y,x,z
-x,-y,z
y,-x,z
1/2+x,1/2-y,1/2-z
1/2-x,1/2+y,1/2-z
1/2+y,1/2+x,1/2-z
1/2-y,1/2-x,1/2-z
-x,-y,-z
y,-x,-z
x,y,-z
-y,x,-z
1/2-x,1/2+y,1/2+z
1/2+x,1/2-y,1/2+z
1/2-y,1/2-x,1/2+z
1/2+y,1/2+x,1/2+z
loop_
_atom_site_type_symbol
_atom_site_label
_atom_site_fract_x
_atom_site_fract_y
_atom_site_fract_z
Si Si1 0.064909 0.234599 0.680241
Si Si2 0.552943 0.424844 0.168552
Si Si3 0.137978 0.447695 0.181479
Si Si4 0.148942 0.565364 0.319807
Si Si5 0.553471 0.721793 0.318629
Si Si6 0.645382 0.635380 0.325111
O O1 0.062747 0.231329 0.500000
O O2 0.067271 0.298939 0.724204
O O3 0.117452 0.200918 0.740591
O O4 0.006320 0.211926 0.743871
O O5 0.573269 0.487492 0.176967
O O6 0.580875 0.391180 0.300188
O O7 0.568235 0.403277 0.000000
O O8 0.095625 0.404376 0.250000
O O9 0.127887 0.508642 0.246252
O O10 0.134061 0.448413 0.000000
O O11 0.116090 0.616090 0.250000
O O12 0.141254 0.563553 0.500000
O O13 0.214401 0.568004 0.289455
O O14 0.547635 0.713857 0.500000
O O15 0.604194 0.683225 0.266757
O O16 0.657269 0.646304 0.500000
#
# Coordination Sequence:
#
# PCOD9564755 Si02
#       6
#    16  16  16  16  16  16
#     4  10  21  36  55  79 107 141 181 224 270 319
#     4   9  18  31  45  64  93 128 168 219 276 325
#     4  10  21  38  60  86 113 142 176 214 262 318
#     4  10  20  37  60  85 114 144 176 216 263 316
#     4   9  20  37  55  77 107 144 182 223 271 319
#     4  11  21  32  49  73 101 137 182 224 265 316
#
# _framework density 18.395714999999999
#
# number of rings (size 3 to 8) (size 9 to 14) (size 15 to 20)
#    0.000    2.167    0.000    3.500    0.000    7.667 
#    0.000    3.333    0.000    4.000    0.000    0.000 
#    0.000    0.000    0.000    0.000    0.000    0.000 
#
# Total GULP energy -535588.377560 kJ/mol
# GULP energy per Si atom -5579.045600 kJ/mol
# Density = 1.835385 g / cm^3
# Si number density = 18.395715 Si / 1000 Ang^3
#
#
#
# Elastic Constant Matrix: (Units=GPa)
#
#
# Indices 1 2 3 4 5 6 
#
# 1 72.8961 46.6973 28.0595 0.0000 0.0000 0.0000
# 2 46.6973 72.8911 28.0583 0.0000 0.0000 0.0000
# 3 28.0595 28.0583 43.8581 0.0000 0.0000 0.0000
# 4 0.0000 0.0000 0.0000 27.4159 0.0000 0.0000
# 5 0.0000 0.0000 0.0000 0.0000 27.4163 0.0000
# 6 0.0000 0.0000 0.0000 0.0000 0.0000 39.7919
#
#
#
# Elastic Compliance Matrix: (Units=1/GPa)
#
#
# Indices 1 2 3 4 5 6 
#
# 1 0.025060 -0.013112 -0.007645 0.000000 0.000000 0.000000
# 2 -0.013112 0.025062 -0.007645 0.000000 0.000000 0.000000
# 3 -0.007645 -0.007645 0.032582 0.000000 0.000000 0.000000
# 4 0.000000 0.000000 0.000000 0.036475 0.000000 0.000000
# 5 0.000000 0.000000 0.000000 0.000000 0.036475 0.000000
# 6 0.000000 0.000000 0.000000 0.000000 0.000000 0.025131
#
#
# Mechanical properties :
#
#
# Convention : Reuss Voigt Hill
#
# Bulk Modulus (GPa) = 38.60697 43.91948 41.26322
# Shear Modulus (GPa) = 20.30686 24.71347 22.51017
#
# Velocity S-wave (km/s) = 3.32609 3.66927 3.50189
# Velocity P-wave (km/s) = 5.98189 6.47132 6.23141
#
# Compressibility (1/GPa) = 0.02590206
#
# Stress axis : x y z
#
# Youngs Moduli (GPa) = 39.90356 39.90103 30.69149
#
# Poissons Ratio (x) = 0.52319 0.23462
# Poissons Ratio (y) = 0.52322 0.23462
# Poissons Ratio (z) = 0.30505 0.30503
#
# Static dielectric constant tensor:
#      x y z
#    x 1.633680 0.000000 0.000000 
#    y 0.000000 1.633680 0.000000 
#    z 0.000000 0.000000 1.643490 
# 
# From -- ./inp_files/1414.got.cif
#   From: 2010.05.17/outbox.cif.g08.bks.cpg/sg128_1_cif.got.tgz:1414.got - 2010.05.20 12:07:25.
