data_PCOD9564365
_publ_section_title
;
Structure prediction by ZEFSAII (Michael W. Deem and Ramdas Pophale) SiO2 
 PCOD9564365
Probable space group: P 4/M B M
;
_chemical_formula_sum "Si O2"
_cell_formula_units_Z 96
_cell_length_a 20.140154
_cell_length_b 20.140154
_cell_length_c 12.172895
_cell_angle_alpha 90.000000
_cell_angle_beta 90.000000
_cell_angle_gamma 90.000000
_cell_volume 4937.640311
_symmetry_space_group_name_H-M "P 4/M B M"
_symmetry_group_IT_number 127
_symmetry_cell_setting 'tetragonal'
loop_
_space_group_symop_operation_xyz
x,y,z
-y,x,z
-x,-y,z
y,-x,z
1/2+x,1/2-y,-z
1/2-x,1/2+y,-z
1/2+y,1/2+x,-z
1/2-y,1/2-x,-z
-x,-y,-z
y,-x,-z
x,y,-z
-y,x,-z
1/2-x,1/2+y,z
1/2+x,1/2-y,z
1/2-y,1/2-x,z
1/2+y,1/2+x,z
loop_
_atom_site_type_symbol
_atom_site_label
_atom_site_fract_x
_atom_site_fract_y
_atom_site_fract_z
Si Si1 0.241587 0.451924 0.273801
Si Si2 0.903931 0.203143 0.266962
Si Si3 0.423015 0.420966 0.378898
Si Si4 0.759417 0.629531 0.500000
Si Si5 0.745164 0.351413 0.500000
Si Si6 0.672413 0.283948 0.874350
Si Si7 0.003187 0.609904 0.373116
O O1 0.281501 0.519258 0.243837
O O2 0.252456 0.416135 0.392890
O O3 0.258845 0.393879 0.188310
O O4 0.166635 0.479771 0.289965
O O5 0.893981 0.124316 0.286684
O O6 0.890640 0.236250 0.386093
O O7 0.845073 0.213541 0.181146
O O8 0.501829 0.410742 0.372600
O O9 0.402072 0.398623 0.500000
O O10 0.832324 0.667677 0.500000
O O11 0.707469 0.690185 0.500000
O O12 0.816067 0.316067 0.500000
O O13 0.721836 0.221836 0.871727
O O14 0.656406 0.301722 0.000000
O O15 0.007802 0.635218 0.500000
O O16 0.072072 0.572072 0.346702
O O17 0.946620 0.553381 0.373650
#
# Coordination Sequence:
#
# PCOD9564365 Si02
#       7
#    16  16  16   8   8  16  16
#     4  12  23  37  64  97 127 169 218 267 323 393
#     4  12  23  36  58  91 127 159 202 261 322 376
#     4   9  18  31  49  77 116 158 190 224 282 359
#     4  11  21  36  61  95 134 176 221 262 312 393
#     4  11  23  36  56  89 135 175 205 247 311 387
#     4  11  26  48  69  87 116 167 228 283 334 390
#     4   9  18  32  52  85 130 170 199 238 303 385
#
# _framework density 19.442487
#
# number of rings (size 3 to 8) (size 9 to 14) (size 15 to 20)
#    0.000    1.333    3.333    4.500    0.000    2.000 
#    0.000    0.000    0.000    0.500    0.000    5.833 
#    0.000    0.000    0.000    0.000    0.000    0.000 
#
# Total GULP energy -535456.631735 kJ/mol
# GULP energy per Si atom -5577.673247 kJ/mol
# Density = 1.939823 g / cm^3
# Si number density = 19.442487 Si / 1000 Ang^3
#
#
#
# Elastic Constant Matrix: (Units=GPa)
#
#
# Indices 1 2 3 4 5 6 
#
# 1 94.9687 8.8341 32.1894 0.0000 0.0000 0.0000
# 2 8.8341 94.9690 32.1893 0.0000 0.0000 0.0000
# 3 32.1894 32.1893 98.3759 0.0000 0.0000 0.0000
# 4 0.0000 0.0000 0.0000 12.8473 0.0000 0.0000
# 5 0.0000 0.0000 0.0000 0.0000 12.8472 0.0000
# 6 0.0000 0.0000 0.0000 0.0000 0.0000 36.4282
#
#
#
# Elastic Compliance Matrix: (Units=1/GPa)
#
#
# Indices 1 2 3 4 5 6 
#
# 1 0.011848 0.000238 -0.003955 0.000000 0.000000 0.000000
# 2 0.000238 0.011848 -0.003955 0.000000 0.000000 0.000000
# 3 -0.003955 -0.003955 0.012753 0.000000 0.000000 0.000000
# 4 0.000000 0.000000 0.000000 0.077838 0.000000 0.000000
# 5 0.000000 0.000000 0.000000 0.000000 0.077838 0.000000
# 6 0.000000 0.000000 0.000000 0.000000 0.000000 0.027451
#
#
# Mechanical properties :
#
#
# Convention : Reuss Voigt Hill
#
# Bulk Modulus (GPa) = 47.37794 48.30438 47.84116
# Shear Modulus (GPa) = 20.66509 26.76460 23.71484
#
# Velocity S-wave (km/s) = 3.26373 3.71429 3.49627
# Velocity P-wave (km/s) = 6.21480 6.57976 6.39988
#
# Compressibility (1/GPa) = 0.02110687
#
# Stress axis : x y z
#
# Youngs Moduli (GPa) = 84.40188 84.40229 78.41200
#
# Poissons Ratio (x) = -0.02012 0.31010
# Poissons Ratio (y) = -0.02012 0.31010
# Poissons Ratio (z) = 0.33379 0.33379
#
# Static dielectric constant tensor:
#      x y z
#    x 1.724370 0.000000 0.000000 
#    y 0.000000 1.724370 0.000000 
#    z 0.000000 0.000000 1.660890 
# 
# From -- ./inp_files/3573.got.cif
#   From: 2010.05.17/outbox.cif.g08.bks.cpg/sg127_2_cif.got.tgz:3573.got - 2010.05.20 12:03:00.
