data_PCOD9564467
_publ_section_title
;
Structure prediction by ZEFSAII (Michael W. Deem and Ramdas Pophale) SiO2 
 PCOD9564467
Probable space group: P 4/M B M
;
_chemical_formula_sum "Si O2"
_cell_formula_units_Z 112
_cell_length_a 13.635234
_cell_length_b 13.635234
_cell_length_c 37.123994
_cell_angle_alpha 90.000000
_cell_angle_beta 90.000000
_cell_angle_gamma 90.000000
_cell_volume 6902.078346
_symmetry_space_group_name_H-M "P 4/M B M"
_symmetry_group_IT_number 127
_symmetry_cell_setting 'tetragonal'
loop_
_space_group_symop_operation_xyz
x,y,z
-y,x,z
-x,-y,z
y,-x,z
1/2+x,1/2-y,-z
1/2-x,1/2+y,-z
1/2+y,1/2+x,-z
1/2-y,1/2-x,-z
-x,-y,-z
y,-x,-z
x,y,-z
-y,x,-z
1/2-x,1/2+y,z
1/2+x,1/2-y,z
1/2-y,1/2-x,z
1/2+y,1/2+x,z
loop_
_atom_site_type_symbol
_atom_site_label
_atom_site_fract_x
_atom_site_fract_y
_atom_site_fract_z
Si Si1 0.833698 0.000001 0.881933
Si Si2 0.664894 0.500000 0.400476
Si Si3 0.164535 0.500001 0.259981
Si Si4 0.833529 0.000001 0.038685
Si Si5 0.335176 0.499999 0.681981
Si Si6 0.000001 0.664910 0.823071
Si Si7 0.835173 0.500001 0.458700
O O1 0.905744 0.094258 0.879307
O O2 0.785265 0.000002 0.922012
O O3 0.753078 0.000001 0.851066
O O4 0.594318 0.594319 0.404619
O O5 0.702566 0.500001 0.359241
O O6 0.749857 0.500000 0.429657
O O7 0.094362 0.405639 0.264551
O O8 0.250616 0.499999 0.288700
O O9 0.199845 0.500002 0.218489
O O10 0.094365 0.594365 0.264552
O O11 0.906277 0.906278 0.038534
O O12 0.779430 0.000002 0.000000
O O13 0.405698 0.405697 0.686080
O O14 0.094484 0.594484 0.827832
O O15 0.905520 0.594481 0.827831
O O16 0.798069 0.500000 0.500000
O O17 0.905669 0.405669 0.454450
O O18 0.905667 0.594334 0.454450
#
# Coordination Sequence:
#
# PCOD9564467 Si02
#       7
#    16  16  16  16  16  16  16
#     4   9  17  28  45  72  98 117 147 192 235 276
#     4   9  19  35  52  72 100 131 161 193 232 281
#     4   9  19  35  52  70  92 120 158 199 234 274
#     4   7  10  19  37  61  89 118 145 178 224 273
#     4   9  19  35  52  72 100 129 155 189 235 283
#     4   9  19  35  50  64  89 126 161 191 228 276
#     4   9  19  35  52  72 100 131 163 201 242 280
#
# _framework density 16.226996
#
# number of rings (size 3 to 8) (size 9 to 14) (size 15 to 20)
#    0.000    3.286    0.000    3.429    0.000    4.571 
#    0.000   10.714    0.000    0.857    0.000    5.000 
#    0.000    0.000    0.000    0.000    0.000    0.000 
#
# Total GULP energy -623550.817197 kJ/mol
# GULP energy per Si atom -5567.418011 kJ/mol
# Density = 1.619006 g / cm^3
# Si number density = 16.226996 Si / 1000 Ang^3
#
#
#
# Elastic Constant Matrix: (Units=GPa)
#
#
# Indices 1 2 3 4 5 6 
#
# 1 79.9231 13.8360 90.4107 0.0000 0.0000 0.0000
# 2 13.8360 79.9231 90.4107 0.0000 0.0000 0.0000
# 3 90.4107 90.4107 208.7952 0.0000 0.0000 0.0000
# 4 0.0000 0.0000 0.0000 102.6948 0.0000 0.0000
# 5 0.0000 0.0000 0.0000 0.0000 102.6948 0.0000
# 6 0.0000 0.0000 0.0000 0.0000 0.0000 -0.6044
#
#
#
# Elastic Compliance Matrix: (Units=1/GPa)
#
#
# Indices 1 2 3 4 5 6 
#
# 1 0.039904 0.024773 -0.028006 0.000000 0.000000 0.000000
# 2 0.024773 0.039904 -0.028006 0.000000 0.000000 0.000000
# 3 -0.028006 -0.028006 0.029043 0.000000 0.000000 0.000000
# 4 0.000000 0.000000 0.000000 0.009738 0.000000 0.000000
# 5 0.000000 0.000000 0.000000 0.000000 0.009738 0.000000
# 6 0.000000 0.000000 0.000000 0.000000 0.000000 -1.654405
#
#
# Mechanical properties :
#
#
# Convention : Reuss Voigt Hill
#
# Bulk Modulus (GPa) = 21.56396 84.21735 52.89066
# Shear Modulus (GPa) = -3.45270 52.55597 24.55164
#
# Velocity S-wave (km/s) = -1.46026 5.69722 3.89397
# Velocity P-wave (km/s) = 3.23645 9.76166 7.27202
#
# Compressibility (1/GPa) = 0.04637367
#
# Stress axis : x y z
#
# Youngs Moduli (GPa) = 25.05995 25.05995 34.43156
#
# Poissons Ratio (x) = -0.62080 0.96429
# Poissons Ratio (y) = -0.62080 0.96429
# Poissons Ratio (z) = 0.70183 0.70183
#
# Static dielectric constant tensor:
#      x y z
#    x 1.525310 0.000000 0.000000 
#    y 0.000000 1.525310 0.000000 
#    z 0.000000 0.000000 1.558580 
# 
# From -- ./inp_files/6657.got.cif
#   From: 2010.05.17/outbox.cif.g08.bks.cpg/sg127_4_cif.got.tgz:6657.got - 2010.05.20 12:03:00.
