data_PCOD9564465
_publ_section_title
;
Structure prediction by ZEFSAII (Michael W. Deem and Ramdas Pophale) SiO2 
 PCOD9564465
Probable space group: P 4/M B M
;
_chemical_formula_sum "Si O2"
_cell_formula_units_Z 52
_cell_length_a 17.451418
_cell_length_b 17.451418
_cell_length_c 7.675113
_cell_angle_alpha 90.000000
_cell_angle_beta 90.000000
_cell_angle_gamma 90.000000
_cell_volume 2337.470939
_symmetry_space_group_name_H-M "P 4/M B M"
_symmetry_group_IT_number 127
_symmetry_cell_setting 'tetragonal'
loop_
_space_group_symop_operation_xyz
x,y,z
-y,x,z
-x,-y,z
y,-x,z
1/2+x,1/2-y,-z
1/2-x,1/2+y,-z
1/2+y,1/2+x,-z
1/2-y,1/2-x,-z
-x,-y,-z
y,-x,-z
x,y,-z
-y,x,-z
1/2-x,1/2+y,z
1/2+x,1/2-y,z
1/2-y,1/2-x,z
1/2+y,1/2+x,z
loop_
_atom_site_type_symbol
_atom_site_label
_atom_site_fract_x
_atom_site_fract_y
_atom_site_fract_z
Si Si1 0.796247 0.028728 0.300013
Si Si2 0.995869 0.376340 0.789801
Si Si3 0.136870 0.813386 0.192871
Si Si4 0.706222 0.793778 0.500000
O O1 0.820315 0.036139 0.500000
O O2 0.815841 0.108063 0.207908
O O3 0.705164 0.013372 0.289928
O O4 0.832218 0.952864 0.217772
O O5 0.917072 0.417072 0.730214
O O6 0.063697 0.436304 0.750463
O O7 0.992485 0.368703 0.000000
O O8 0.162753 0.757279 0.346472
O O9 0.146943 0.779586 0.000000
#
# Coordination Sequence:
#
# PCOD9564465 Si02
#       4
#    16  16  16   4
#     4  12  25  46  68 101 142 184 242 300 357 429
#     4   9  20  38  61  93 133 181 231 281 350 433
#     4  12  27  48  74 105 145 194 240 296 367 431
#     4  12  26  48  72 112 146 184 238 308 354 428
#
# _framework density 22.246265999999999
#
# number of rings (size 3 to 8) (size 9 to 14) (size 15 to 20)
#    0.000    0.923    3.077    4.154    4.308    1.846 
#    0.000    4.615    0.000    0.000    0.000    0.000 
#    0.000    0.000    0.000    0.000    0.000    0.000 
#
# Total GULP energy -290056.379442 kJ/mol
# GULP energy per Si atom -5578.007297 kJ/mol
# Density = 2.219563 g / cm^3
# Si number density = 22.246266 Si / 1000 Ang^3
#
#
#
# Elastic Constant Matrix: (Units=GPa)
#
#
# Indices 1 2 3 4 5 6 
#
# 1 55.5910 43.4839 4.5786 0.0000 0.0000 0.0000
# 2 43.4839 55.5900 4.5778 0.0000 0.0000 0.0000
# 3 4.5786 4.5778 169.8848 0.0000 0.0000 0.0000
# 4 0.0000 0.0000 0.0000 32.9307 0.0000 0.0000
# 5 0.0000 0.0000 0.0000 0.0000 32.9312 0.0000
# 6 0.0000 0.0000 0.0000 0.0000 0.0000 33.4018
#
#
#
# Elastic Compliance Matrix: (Units=1/GPa)
#
#
# Indices 1 2 3 4 5 6 
#
# 1 0.046359 -0.036240 -0.000273 0.000000 0.000000 0.000000
# 2 -0.036240 0.046359 -0.000273 0.000000 0.000000 0.000000
# 3 -0.000273 -0.000273 0.005901 0.000000 0.000000 0.000000
# 4 0.000000 0.000000 0.000000 0.030367 0.000000 0.000000
# 5 0.000000 0.000000 0.000000 0.000000 0.030366 0.000000
# 6 0.000000 0.000000 0.000000 0.000000 0.000000 0.029938
#
#
# Mechanical properties :
#
#
# Convention : Reuss Voigt Hill
#
# Bulk Modulus (GPa) = 39.92408 42.92740 41.42574
# Shear Modulus (GPa) = 18.43582 35.08112 26.75847
#
# Velocity S-wave (km/s) = 2.88186 3.97538 3.47195
# Velocity P-wave (km/s) = 5.39063 6.35688 5.89359
#
# Compressibility (1/GPa) = 0.02504754
#
# Stress axis : x y z
#
# Youngs Moduli (GPa) = 21.57100 21.57062 169.46170
#
# Poissons Ratio (x) = 0.78173 0.04624
# Poissons Ratio (y) = 0.78174 0.04618
# Poissons Ratio (z) = 0.00589 0.00588
#
# Static dielectric constant tensor:
#      x y z
#    x 1.806870 0.000000 0.000000 
#    y 0.000000 1.806880 0.000000 
#    z 0.000000 0.000000 1.821080 
# 
# From -- ./inp_files/944.got.cif
#   From: 2010.05.17/outbox.cif.g08.bks.cpg/sg127_1_cif.got.tgz:944.got - 2010.05.20 12:03:00.
