data_PCOD9564718
_publ_section_title
;
Structure prediction by ZEFSAII (Michael W. Deem and Ramdas Pophale) SiO2 
 PCOD9564718
Probable space group: P 4/M N C
;
_chemical_formula_sum "Si O2"
_cell_formula_units_Z 116
_cell_length_a 18.026274
_cell_length_b 18.026274
_cell_length_c 14.551912
_cell_angle_alpha 90.000000
_cell_angle_beta 90.000000
_cell_angle_gamma 90.000000
_cell_volume 4728.593663
_symmetry_space_group_name_H-M "P 4/M N C"
_symmetry_group_IT_number 128
_symmetry_cell_setting 'tetragonal'
loop_
_space_group_symop_operation_xyz
x,y,z
-y,x,z
-x,-y,z
y,-x,z
1/2+x,1/2-y,1/2-z
1/2-x,1/2+y,1/2-z
1/2+y,1/2+x,1/2-z
1/2-y,1/2-x,1/2-z
-x,-y,-z
y,-x,-z
x,y,-z
-y,x,-z
1/2-x,1/2+y,1/2+z
1/2+x,1/2-y,1/2+z
1/2-y,1/2-x,1/2+z
1/2+y,1/2+x,1/2+z
loop_
_atom_site_type_symbol
_atom_site_label
_atom_site_fract_x
_atom_site_fract_y
_atom_site_fract_z
Si Si1 0.013082 0.880774 0.143319
Si Si2 0.215269 0.528209 0.101519
Si Si3 0.928443 0.276699 0.105251
Si Si4 0.000000 0.500000 0.500000
Si Si5 0.513062 0.617881 0.865042
Si Si6 0.232218 0.693513 0.111313
Si Si7 0.139498 0.303689 0.388636
Si Si8 0.387902 0.957832 0.836400
O O1 0.026905 0.799475 0.107280
O O2 0.013620 0.876432 0.254450
O O3 0.936851 0.920844 0.116181
O O4 0.303181 0.521887 0.092792
O O5 0.210814 0.610321 0.144579
O O6 0.198135 0.447139 0.142922
O O7 0.177437 0.531525 0.000000
O O8 0.842964 0.261284 0.130591
O O9 0.969827 0.336443 0.167958
O O10 0.928009 0.305861 0.000000
O O11 0.942795 0.530028 0.579421
O O12 0.436774 0.578990 0.891642
O O13 0.305700 0.737577 0.143713
O O14 0.240955 0.686643 0.000000
O O15 0.138232 0.299878 0.500000
O O16 0.163731 0.385516 0.357077
O O17 0.437935 0.937935 0.750000
#
# Coordination Sequence:
#
# PCOD9564718 Si02
#       8
#    16  16  16   4  16  16  16  16
#     4   9  21  41  65  97 136 184 241 301 367 445
#     4  10  20  34  59  88 127 177 237 287 349 432
#     4  11  24  44  72 104 143 185 239 310 377 444
#     4  12  26  56  80 102 148 190 248 304 362 440
#     4   9  18  34  55  82 124 171 218 285 358 418
#     4   9  21  39  63  98 139 189 242 300 374 444
#     4  10  21  41  67  98 145 195 239 305 374 440
#     4  12  28  47  78 110 145 195 249 307 376 453
#
# _framework density 24.531607000000001
#
# number of rings (size 3 to 8) (size 9 to 14) (size 15 to 20)
#    0.000    1.931    1.379    1.862    5.793    2.207 
#    0.000    2.069    0.000    0.000    0.000    0.000 
#    0.000    0.000    0.000    0.000    0.000    0.000 
#
# Total GULP energy -647494.421788 kJ/mol
# GULP energy per Si atom -5581.848464 kJ/mol
# Density = 2.447577 g / cm^3
# Si number density = 24.531607 Si / 1000 Ang^3
#
#
#
# Elastic Constant Matrix: (Units=GPa)
#
#
# Indices 1 2 3 4 5 6 
#
# 1 100.2246 34.7470 16.8901 0.0000 0.0000 0.0000
# 2 34.7470 100.2246 16.8901 0.0000 0.0000 0.0000
# 3 16.8901 16.8901 95.5654 0.0000 0.0000 0.0000
# 4 0.0000 0.0000 0.0000 15.5362 0.0000 0.0000
# 5 0.0000 0.0000 0.0000 0.0000 15.5362 0.0000
# 6 0.0000 0.0000 0.0000 0.0000 0.0000 48.7438
#
#
#
# Elastic Compliance Matrix: (Units=1/GPa)
#
#
# Indices 1 2 3 4 5 6 
#
# 1 0.011512 -0.003760 -0.001370 0.000000 0.000000 0.000000
# 2 -0.003760 0.011512 -0.001370 0.000000 0.000000 0.000000
# 3 -0.001370 -0.001370 0.010948 0.000000 0.000000 0.000000
# 4 0.000000 0.000000 0.000000 0.064366 0.000000 0.000000
# 5 0.000000 0.000000 0.000000 0.000000 0.064366 0.000000
# 6 0.000000 0.000000 0.000000 0.000000 0.000000 0.020515
#
#
# Mechanical properties :
#
#
# Convention : Reuss Voigt Hill
#
# Bulk Modulus (GPa) = 47.68302 48.11878 47.90090
# Shear Modulus (GPa) = 24.60494 31.12906 27.86700
#
# Velocity S-wave (km/s) = 3.17044 3.56608 3.37406
# Velocity P-wave (km/s) = 5.73427 6.05091 5.89471
#
# Compressibility (1/GPa) = 0.02097183
#
# Stress axis : x y z
#
# Youngs Moduli (GPa) = 86.86491 86.86491 91.33826
#
# Poissons Ratio (x) = 0.32664 0.12514
# Poissons Ratio (y) = 0.32664 0.12514
# Poissons Ratio (z) = 0.11901 0.11901
#
# Static dielectric constant tensor:
#      x y z
#    x 1.939090 0.000000 0.000000 
#    y 0.000000 1.939090 0.000000 
#    z 0.000000 0.000000 1.971830 
# 
# From -- ./inp_files/4939.got.cif
#   From: 2010.05.17/outbox.cif.g08.bks.cpg/sg128_3_cif.got.tgz:4939.got - 2010.05.20 12:07:25.
