data_PCOD9564488
_publ_section_title
;
Structure prediction by ZEFSAII (Michael W. Deem and Ramdas Pophale) SiO2 
 PCOD9564488
Probable space group: P 4/M B M
;
_chemical_formula_sum "Si O2"
_cell_formula_units_Z 96
_cell_length_a 24.000000
_cell_length_b 24.000000
_cell_length_c 9.000000
_cell_angle_alpha 90.000000
_cell_angle_beta 90.000000
_cell_angle_gamma 90.000000
_cell_volume 5184.000000
_symmetry_space_group_name_H-M "P 4/M B M"
_symmetry_group_IT_number 127
_symmetry_cell_setting 'tetragonal'
loop_
_space_group_symop_operation_xyz
x,y,z
-y,x,z
-x,-y,z
y,-x,z
1/2+x,1/2-y,-z
1/2-x,1/2+y,-z
1/2+y,1/2+x,-z
1/2-y,1/2-x,-z
-x,-y,-z
y,-x,-z
x,y,-z
-y,x,-z
1/2-x,1/2+y,z
1/2+x,1/2-y,z
1/2-y,1/2-x,z
1/2+y,1/2+x,z
loop_
_atom_site_type_symbol
_atom_site_label
_atom_site_fract_x
_atom_site_fract_y
_atom_site_fract_z
Si Si1 0.370998 0.870998 0.336319
Si Si2 0.369291 0.572002 0.325231
Si Si3 0.220411 0.973342 0.674579
Si Si4 0.074083 0.054269 0.000000
Si Si5 0.208655 0.291346 0.175370
Si Si6 0.453421 0.046580 0.177736
Si Si7 0.156268 0.501117 0.671994
Si Si8 0.316660 0.357277 0.181632
O O1 0.351964 0.851964 0.500000
O O2 0.337025 0.837025 0.217324
O O3 0.359718 0.936035 0.324405
O O4 0.391951 0.573481 0.500000
O O5 0.327671 0.519768 0.320192
O O6 0.404693 0.568568 0.169217
O O7 0.342011 0.631258 0.286462
O O8 0.227239 0.956336 0.500000
O O9 0.279210 0.000993 0.722439
O O10 0.203822 0.919466 0.771242
O O11 0.011945 0.076534 0.000000
O O12 0.267843 0.314630 0.223552
O O13 0.212263 0.287738 0.000000
O O14 0.468806 0.108043 0.236242
O O15 0.500000 0.000000 0.228411
O O16 0.454136 0.045865 0.000000
O O17 0.154225 0.520206 0.500000
O O18 0.327224 0.355996 0.000000
#
# Coordination Sequence:
#
# PCOD9564488 Si02
#       8
#     8  16  16   8   8   8  16  16
#     4  10  18  31  55  85 116 150 197 250 305 370
#     4  11  24  42  63  92 130 167 208 259 315 379
#     4  10  22  39  62  90 120 158 206 261 316 375
#     4  11  24  42  66  95 124 160 207 251 310 382
#     4  10  22  36  56  92 128 159 199 259 315 360
#     4  11  23  35  50  79 120 160 202 255 313 370
#     4  10  20  36  57  83 116 157 204 249 306 376
#     4  11  22  38  62  91 127 166 209 257 313 378
#
# _framework density 18.518519000000001
#
# number of rings (size 3 to 8) (size 9 to 14) (size 15 to 20)
#    0.000    1.500    3.333    1.750    1.167    4.333 
#    0.000    1.667    0.000    3.000    0.000    0.000 
#    0.000    0.000    0.000    0.000    0.000    0.000 
#
# Total GULP energy -534481.193762 kJ/mol
# GULP energy per Si atom -5567.512435 kJ/mol
# Density = 1.847637 g / cm^3
# Si number density = 18.518519 Si / 1000 Ang^3
#
#
#
# Elastic Constant Matrix: (Units=GPa)
#
#
# Indices 1 2 3 4 5 6 
#
# 1 55.2838 1.6771 24.1113 0.0000 0.0000 0.0000
# 2 1.6771 55.2830 24.1123 0.0000 0.0000 0.0000
# 3 24.1113 24.1123 79.9017 0.0000 0.0000 0.0000
# 4 0.0000 0.0000 0.0000 24.1259 0.0000 0.0000
# 5 0.0000 0.0000 0.0000 0.0000 24.1219 0.0000
# 6 0.0000 0.0000 0.0000 0.0000 0.0000 26.6443
#
#
#
# Elastic Compliance Matrix: (Units=1/GPa)
#
#
# Indices 1 2 3 4 5 6 
#
# 1 0.021117 0.002463 -0.007116 0.000000 0.000000 0.000000
# 2 0.002463 0.021118 -0.007116 0.000000 0.000000 0.000000
# 3 -0.007116 -0.007116 0.016810 0.000000 0.000000 0.000000
# 4 0.000000 0.000000 0.000000 0.041449 0.000000 0.000000
# 5 0.000000 0.000000 0.000000 0.000000 0.041456 0.000000
# 6 0.000000 0.000000 0.000000 0.000000 0.000000 0.037531
#
#
# Mechanical properties :
#
#
# Convention : Reuss Voigt Hill
#
# Bulk Modulus (GPa) = 28.16301 32.25218 30.20760
# Shear Modulus (GPa) = 23.27152 24.34961 23.81056
#
# Velocity S-wave (km/s) = 3.54879 3.63006 3.58965
# Velocity P-wave (km/s) = 5.65976 5.91809 5.79037
#
# Compressibility (1/GPa) = 0.03550757
#
# Stress axis : x y z
#
# Youngs Moduli (GPa) = 47.35490 47.35357 59.48831
#
# Poissons Ratio (x) = -0.11663 0.42329
# Poissons Ratio (y) = -0.11663 0.42332
# Poissons Ratio (z) = 0.33696 0.33697
#
# Static dielectric constant tensor:
#      x y z
#    x 1.665330 0.000000 0.000000 
#    y 0.000000 1.665330 0.000000 
#    z 0.000000 0.000000 1.666120 
# 
# From -- ./inp_files/2161.got.cif
#   From: 2010.05.17/outbox.ucp.g08.bks.cvg/sg127_2_cif.got.tgz:2161.got - 2010.06.11 11:37:05.
