data_PCOD9564159
_publ_section_title
;
Structure prediction by ZEFSAII (Michael W. Deem and Ramdas Pophale) SiO2 
 PCOD9564159
Probable space group: P 4/M B M
;
_chemical_formula_sum "Si O2"
_cell_formula_units_Z 104
_cell_length_a 19.214056
_cell_length_b 19.214056
_cell_length_c 16.951713
_cell_angle_alpha 90.000000
_cell_angle_beta 90.000000
_cell_angle_gamma 90.000000
_cell_volume 6258.232523
_symmetry_space_group_name_H-M "P 4/M B M"
_symmetry_group_IT_number 127
_symmetry_cell_setting 'tetragonal'
loop_
_space_group_symop_operation_xyz
x,y,z
-y,x,z
-x,-y,z
y,-x,z
1/2+x,1/2-y,-z
1/2-x,1/2+y,-z
1/2+y,1/2+x,-z
1/2-y,1/2-x,-z
-x,-y,-z
y,-x,-z
x,y,-z
-y,x,-z
1/2-x,1/2+y,z
1/2+x,1/2-y,z
1/2-y,1/2-x,z
1/2+y,1/2+x,z
loop_
_atom_site_type_symbol
_atom_site_label
_atom_site_fract_x
_atom_site_fract_y
_atom_site_fract_z
Si Si1 0.500000 0.880674 0.500000
Si Si2 0.109705 0.000001 0.406014
Si Si3 0.747852 0.364514 0.251362
Si Si4 0.304356 0.582209 0.088238
Si Si5 0.195644 0.917789 0.088238
Si Si6 0.768866 0.500000 0.356746
Si Si7 0.135487 0.247851 0.251363
O O1 0.432342 0.932342 0.500000
O O2 0.500000 0.829202 0.423439
O O3 0.567660 0.932341 0.500000
O O4 0.102331 0.000001 0.500000
O O5 0.190821 0.000001 0.390959
O O6 0.067469 0.932532 0.375553
O O7 0.807284 0.307284 0.258528
O O8 0.739758 0.388133 0.160545
O O9 0.768939 0.430557 0.303568
O O10 0.675403 0.324598 0.273373
O O11 0.312936 0.499999 0.098038
O O12 0.377821 0.622178 0.091772
O O13 0.275342 0.595415 0.000000
O O14 0.239758 0.888131 0.160545
O O15 0.224657 0.904582 0.000000
O O16 0.768937 0.569443 0.303568
O O17 0.192717 0.307284 0.258531
#
# Coordination Sequence:
#
# PCOD9564159 Si02
#       7
#     8  16  16  16  16  16  16
#     4  11  26  44  60  79 100 130 182 235 278 330
#     4   9  18  33  54  80 107 135 167 201 243 306
#     4  10  21  35  53  81 111 138 175 220 264 315
#     4   9  17  31  51  76 108 144 179 215 259 313
#     4   9  17  31  51  76 108 144 179 215 259 313
#     4  12  20  38  59  78 104 142 172 216 273 318
#     4  10  21  35  53  81 111 138 175 220 264 315
#
# _framework density 16.618110999999999
#
# number of rings (size 3 to 8) (size 9 to 14) (size 15 to 20)
#    0.000    2.077    2.308    2.308    0.000    0.923 
#    0.000    4.615    0.000    3.692    0.000    0.000 
#    0.000    2.462    0.000    0.000    0.000    0.000 
#
# Total GULP energy -579131.059994 kJ/mol
# GULP energy per Si atom -5568.567885 kJ/mol
# Density = 1.658029 g / cm^3
# Si number density = 16.618111 Si / 1000 Ang^3
#
#
#
# Elastic Constant Matrix: (Units=GPa)
#
#
# Indices 1 2 3 4 5 6 
#
# 1 115.1664 56.4866 65.7846 0.0000 0.0000 0.0000
# 2 56.4866 115.1666 65.7846 0.0000 0.0000 0.0000
# 3 65.7846 65.7846 103.5583 0.0000 0.0000 0.0000
# 4 0.0000 0.0000 0.0000 12.9588 0.0000 0.0000
# 5 0.0000 0.0000 0.0000 0.0000 12.9582 0.0000
# 6 0.0000 0.0000 0.0000 0.0000 0.0000 21.5175
#
#
#
# Elastic Compliance Matrix: (Units=1/GPa)
#
#
# Indices 1 2 3 4 5 6 
#
# 1 0.014198 -0.002844 -0.007213 0.000000 0.000000 0.000000
# 2 -0.002844 0.014198 -0.007213 0.000000 0.000000 0.000000
# 3 -0.007213 -0.007213 0.018820 0.000000 0.000000 0.000000
# 4 0.000000 0.000000 0.000000 0.077168 0.000000 0.000000
# 5 0.000000 0.000000 0.000000 0.000000 0.077171 0.000000
# 6 0.000000 0.000000 0.000000 0.000000 0.000000 0.046474
#
#
# Mechanical properties :
#
#
# Convention : Reuss Voigt Hill
#
# Bulk Modulus (GPa) = 78.87894 78.88920 78.88407
# Shear Modulus (GPa) = 17.43424 19.20925 18.32174
#
# Velocity S-wave (km/s) = 3.24251 3.40357 3.32402
# Velocity P-wave (km/s) = 7.84775 7.93855 7.89328
#
# Compressibility (1/GPa) = 0.01267765
#
# Stress axis : x y z
#
# Youngs Moduli (GPa) = 70.43335 70.43357 53.13554
#
# Poissons Ratio (x) = 0.20030 0.38324
# Poissons Ratio (y) = 0.20030 0.38324
# Poissons Ratio (z) = 0.50800 0.50800
#
# Static dielectric constant tensor:
#      x y z
#    x 1.547590 0.000000 0.000000 
#    y 0.000000 1.547590 0.000000 
#    z 0.000000 0.000000 1.577700 
# 
# From -- ./inp_files/5216.got.cif
#   From: 2010.05.17/outbox.cif.g08.bks.cpg/sg127_3_cif.got.tgz:5216.got - 2010.05.20 12:03:00.
