data_PCOD9564628
_publ_section_title
;
Structure prediction by ZEFSAII (Michael W. Deem and Ramdas Pophale) SiO2 
 PCOD9564628
Probable space group: P 4/M N C
;
_chemical_formula_sum "Si O2"
_cell_formula_units_Z 112
_cell_length_a 14.959383
_cell_length_b 14.959383
_cell_length_c 22.016790
_cell_angle_alpha 90.000000
_cell_angle_beta 90.000000
_cell_angle_gamma 90.000000
_cell_volume 4926.986393
_symmetry_space_group_name_H-M "P 4/M N C"
_symmetry_group_IT_number 128
_symmetry_cell_setting 'tetragonal'
loop_
_space_group_symop_operation_xyz
x,y,z
-y,x,z
-x,-y,z
y,-x,z
1/2+x,1/2-y,1/2-z
1/2-x,1/2+y,1/2-z
1/2+y,1/2+x,1/2-z
1/2-y,1/2-x,1/2-z
-x,-y,-z
y,-x,-z
x,y,-z
-y,x,-z
1/2-x,1/2+y,1/2+z
1/2+x,1/2-y,1/2+z
1/2-y,1/2-x,1/2+z
1/2+y,1/2+x,1/2+z
loop_
_atom_site_type_symbol
_atom_site_label
_atom_site_fract_x
_atom_site_fract_y
_atom_site_fract_z
Si Si1 0.999155 0.349678 0.240459
Si Si2 0.743579 0.603776 0.926694
Si Si3 0.441129 0.628061 0.620642
Si Si4 0.933786 0.429357 0.932529
Si Si5 0.680903 0.073383 0.108545
Si Si6 0.094596 0.762288 0.573724
Si Si7 0.981178 0.856133 0.266286
O O1 0.080279 0.419721 0.250000
O O2 0.016753 0.325340 0.170369
O O3 0.011240 0.252579 0.274373
O O4 0.906888 0.406888 0.250000
O O5 0.840578 0.618145 0.897478
O O6 0.674971 0.677779 0.903808
O O7 0.704508 0.505633 0.914093
O O8 0.754435 0.611169 0.000000
O O9 0.385876 0.542654 0.599441
O O10 0.395245 0.718461 0.600533
O O11 0.458386 0.633038 0.693633
O O12 0.839829 0.405640 0.903935
O O13 0.000000 0.500000 0.900086
O O14 0.997515 0.345422 0.938341
O O15 0.913529 0.467130 0.000000
O O16 0.104555 0.760762 0.500000
O O17 0.074796 0.902398 0.287548
#
# Coordination Sequence:
#
# PCOD9564628 Si02
#       7
#    16  16  16  16  16  16  16
#     4  10  23  37  53  82 119 148 186 235 291 340
#     4  10  20  36  57  84 114 146 195 242 289 347
#     4   8  16  31  50  78 111 140 185 234 274 335
#     4  10  19  33  54  80 109 143 188 232 280 335
#     4  11  21  33  59  80 108 152 188 227 286 336
#     4   9  19  33  52  80 112 146 185 238 286 336
#     4   8  15  33  60  82 104 140 186 234 285 343
#
# _framework density 22.731947999999999
#
# number of rings (size 3 to 8) (size 9 to 14) (size 15 to 20)
#    0.000    2.571    1.429    1.286    4.000    0.857 
#    0.000    1.429    3.143    0.000    0.000    4.000 
#    0.000    0.000    0.000    0.000    0.000    0.000 
#
# Total GULP energy -623636.116928 kJ/mol
# GULP energy per Si atom -5568.179615 kJ/mol
# Density = 2.268021 g / cm^3
# Si number density = 22.731948 Si / 1000 Ang^3
#
#
#
# Elastic Constant Matrix: (Units=GPa)
#
#
# Indices 1 2 3 4 5 6 
#
# 1 120.9682 79.0139 10.5785 0.0000 0.0000 0.0000
# 2 79.0139 120.9678 10.5782 0.0000 0.0000 0.0000
# 3 10.5785 10.5782 48.0436 0.0000 0.0000 0.0000
# 4 0.0000 0.0000 0.0000 10.8887 0.0000 0.0000
# 5 0.0000 0.0000 0.0000 0.0000 10.8889 0.0000
# 6 0.0000 0.0000 0.0000 0.0000 0.0000 18.2298
#
#
#
# Elastic Compliance Matrix: (Units=1/GPa)
#
#
# Indices 1 2 3 4 5 6 
#
# 1 0.014478 -0.009358 -0.001127 0.000000 0.000000 0.000000
# 2 -0.009358 0.014478 -0.001127 0.000000 0.000000 0.000000
# 3 -0.001127 -0.001127 0.021311 0.000000 0.000000 0.000000
# 4 0.000000 0.000000 0.000000 0.091838 0.000000 0.000000
# 5 0.000000 0.000000 0.000000 0.000000 0.091837 0.000000
# 6 0.000000 0.000000 0.000000 0.000000 0.000000 0.054855
#
#
# Mechanical properties :
#
#
# Convention : Reuss Voigt Hill
#
# Bulk Modulus (GPa) = 36.98064 54.48010 45.73037
# Shear Modulus (GPa) = 15.57462 20.65542 18.11502
#
# Velocity S-wave (km/s) = 2.62036 3.01765 2.82600
# Velocity P-wave (km/s) = 5.04564 6.01332 5.55061
#
# Compressibility (1/GPa) = 0.02704118
#
# Stress axis : x y z
#
# Youngs Moduli (GPa) = 69.07216 69.07203 46.92448
#
# Poissons Ratio (x) = 0.64637 0.05290
# Poissons Ratio (y) = 0.64637 0.05289
# Poissons Ratio (z) = 0.07787 0.07786
#
# Static dielectric constant tensor:
#      x y z
#    x 1.865090 0.000000 0.000000 
#    y 0.000000 1.865090 0.000000 
#    z 0.000000 0.000000 1.980260 
# 
# From -- ./inp_files/6444.got.cif
#   From: 2010.05.17/outbox.cif.g08.bks.cpg/sg128_4_cif.got.tgz:6444.got - 2010.05.20 12:07:25.
