data_PCOD9564962
_publ_section_title
;
Structure prediction by ZEFSAII (Michael W. Deem and Ramdas Pophale) SiO2 
 PCOD9564962
Probable space group: P 4/M N C
;
_chemical_formula_sum "Si O2"
_cell_formula_units_Z 112
_cell_length_a 16.456002
_cell_length_b 16.456002
_cell_length_c 18.514673
_cell_angle_alpha 90.000000
_cell_angle_beta 90.000000
_cell_angle_gamma 90.000000
_cell_volume 5013.773482
_symmetry_space_group_name_H-M "P 4/M N C"
_symmetry_group_IT_number 128
_symmetry_cell_setting 'tetragonal'
loop_
_space_group_symop_operation_xyz
x,y,z
-y,x,z
-x,-y,z
y,-x,z
1/2+x,1/2-y,1/2-z
1/2-x,1/2+y,1/2-z
1/2+y,1/2+x,1/2-z
1/2-y,1/2-x,1/2-z
-x,-y,-z
y,-x,-z
x,y,-z
-y,x,-z
1/2-x,1/2+y,1/2+z
1/2+x,1/2-y,1/2+z
1/2-y,1/2-x,1/2+z
1/2+y,1/2+x,1/2+z
loop_
_atom_site_type_symbol
_atom_site_label
_atom_site_fract_x
_atom_site_fract_y
_atom_site_fract_z
Si Si1 0.013137 0.599739 0.317953
Si Si2 0.980735 0.136294 0.419120
Si Si3 0.497791 0.266094 0.772875
Si Si4 0.362984 0.938823 0.913975
Si Si5 0.805960 0.393739 0.351616
Si Si6 0.443313 0.623571 0.346560
Si Si7 0.180661 0.229877 0.082470
O O1 0.051610 0.551610 0.250000
O O2 0.966016 0.677587 0.287093
O O3 0.052802 0.440162 0.370508
O O4 0.098331 0.628833 0.353041
O O5 0.975737 0.174395 0.500000
O O6 0.975911 0.192498 0.348769
O O7 0.066632 0.088232 0.415315
O O8 0.420841 0.238779 0.722890
O O9 0.557950 0.324212 0.727386
O O10 0.310818 0.019586 0.894115
O O11 0.315438 0.856363 0.892678
O O12 0.376092 0.938068 0.000000
O O13 0.752503 0.319490 0.379997
O O14 0.397720 0.537963 0.349437
O O15 0.399792 0.673984 0.408662
O O16 0.204508 0.239406 0.000000
#
# Coordination Sequence:
#
# PCOD9564962 Si02
#       7
#    16  16  16  16  16  16  16
#     4  10  26  47  71 100 136 182 249 309 360 417
#     4   9  19  36  59  90 132 184 234 287 354 423
#     4  11  21  39  64  94 134 177 233 298 343 414
#     4  11  24  45  73 106 143 190 243 296 362 438
#     4  11  23  44  70 102 141 187 236 289 366 431
#     4  11  21  37  63  98 141 185 229 267 337 424
#     4  11  23  43  67 103 151 185 228 290 358 432
#
# _framework density 22.338464999999999
#
# number of rings (size 3 to 8) (size 9 to 14) (size 15 to 20)
#    0.000    1.429    2.857    2.143    0.000    9.143 
#    5.143    0.714    0.000    0.000    0.000    0.000 
#    0.000    0.000    0.000    0.000    0.000    0.000 
#
# Total GULP energy -624186.976437 kJ/mol
# GULP energy per Si atom -5573.098004 kJ/mol
# Density = 2.228762 g / cm^3
# Si number density = 22.338465 Si / 1000 Ang^3
#
#
#
# Elastic Constant Matrix: (Units=GPa)
#
#
# Indices 1 2 3 4 5 6 
#
# 1 36.4793 94.9905 38.9008 0.0000 0.0000 0.0000
# 2 94.9905 36.4793 38.9008 0.0000 0.0000 0.0000
# 3 38.9008 38.9008 106.7796 0.0000 0.0000 0.0000
# 4 0.0000 0.0000 0.0000 26.3323 0.0000 0.0000
# 5 0.0000 0.0000 0.0000 0.0000 26.3323 0.0000
# 6 0.0000 0.0000 0.0000 0.0000 0.0000 34.0786
#
#
#
# Elastic Compliance Matrix: (Units=1/GPa)
#
#
# Indices 1 2 3 4 5 6 
#
# 1 -0.003697 0.013394 -0.003533 0.000000 0.000000 0.000000
# 2 0.013394 -0.003697 -0.003533 0.000000 0.000000 0.000000
# 3 -0.003533 -0.003533 0.011939 0.000000 0.000000 0.000000
# 4 0.000000 0.000000 0.000000 0.037976 0.000000 0.000000
# 5 0.000000 0.000000 0.000000 0.000000 0.037976 0.000000
# 6 0.000000 0.000000 0.000000 0.000000 0.000000 0.029344
#
#
# Mechanical properties :
#
#
# Convention : Reuss Voigt Hill
#
# Bulk Modulus (GPa) = 58.13227 58.36917 58.25072
# Shear Modulus (GPa) = 48.58209 17.81170 33.19689
#
# Velocity S-wave (km/s) = 4.66855 2.82681 3.85916
# Velocity P-wave (km/s) = 7.42566 6.06965 6.78163
#
# Compressibility (1/GPa) = 0.01720215
#
# Stress axis : x y z
#
# Youngs Moduli (GPa) = -270.49409 -270.49409 83.75871
#
# Poissons Ratio (x) = 3.62295 0.29589
# Poissons Ratio (y) = 3.62295 0.29589
# Poissons Ratio (z) = -0.95557 -0.95557
#
# Static dielectric constant tensor:
#      x y z
#    x 1.912450 0.000000 0.000000 
#    y 0.000000 1.912450 0.000000 
#    z 0.000000 0.000000 1.852220 
# 
# From -- ./inp_files/6053.got.cif
#   From: 2010.05.17/outbox.cif.g08.bks.cpg/sg128_4_cif.got.tgz:6053.got - 2010.05.20 12:07:25.
