data_PCOD9564592
_publ_section_title
;
Structure prediction by ZEFSAII (Michael W. Deem and Ramdas Pophale) SiO2 
 PCOD9564592
Probable space group: P 4/M N C
;
_chemical_formula_sum "Si O2"
_cell_formula_units_Z 96
_cell_length_a 25.728648
_cell_length_b 25.728648
_cell_length_c 8.972558
_cell_angle_alpha 90.000000
_cell_angle_beta 90.000000
_cell_angle_gamma 90.000000
_cell_volume 5939.504354
_symmetry_space_group_name_H-M "P 4/M N C"
_symmetry_group_IT_number 128
_symmetry_cell_setting 'tetragonal'
loop_
_space_group_symop_operation_xyz
x,y,z
-y,x,z
-x,-y,z
y,-x,z
1/2+x,1/2-y,1/2-z
1/2-x,1/2+y,1/2-z
1/2+y,1/2+x,1/2-z
1/2-y,1/2-x,1/2-z
-x,-y,-z
y,-x,-z
x,y,-z
-y,x,-z
1/2-x,1/2+y,1/2+z
1/2+x,1/2-y,1/2+z
1/2-y,1/2-x,1/2+z
1/2+y,1/2+x,1/2+z
loop_
_atom_site_type_symbol
_atom_site_label
_atom_site_fract_x
_atom_site_fract_y
_atom_site_fract_z
Si Si1 0.119207 0.951185 0.667237
Si Si2 0.059435 0.243846 0.669972
Si Si3 0.677773 0.259239 0.817974
Si Si4 0.336723 0.244591 0.318126
Si Si5 0.875336 0.947651 0.831910
Si Si6 0.953921 0.249647 0.828788
O O1 0.103193 0.965196 0.500000
O O2 0.181273 0.946291 0.669497
O O3 0.093845 0.897913 0.718411
O O4 0.103681 0.996430 0.780761
O O5 0.058526 0.262437 0.500000
O O6 0.118114 0.251853 0.727779
O O7 0.007729 0.264882 0.749778
O O8 0.714478 0.214478 0.750000
O O9 0.702143 0.312257 0.749100
O O10 0.680682 0.261258 0.000000
O O11 0.300226 0.199775 0.250000
O O12 0.333796 0.246436 0.500000
O O13 0.396608 0.234745 0.272650
O O14 0.813204 0.950966 0.825603
O O15 0.890434 0.934415 0.000000
O O16 0.957574 0.266399 0.000000
#
# Coordination Sequence:
#
# PCOD9564592 Si02
#       6
#    16  16  16  16  16  16
#     4  10  19  31  44  59  78 104 138 179 221 262
#     4   9  19  32  47  66  89 116 149 184 223 268
#     4  10  19  31  47  70  96 125 157 191 230 275
#     4  10  19  31  47  70  96 125 157 191 230 275
#     4  10  19  31  44  59  78 104 138 179 221 262
#     4   9  19  32  47  66  89 116 149 184 223 268
#
# _framework density 16.162965
#
# number of rings (size 3 to 8) (size 9 to 14) (size 15 to 20)
#    0.000    2.333    0.000    4.000    0.000    4.333 
#    0.000    1.667    0.000    0.000    0.000    0.000 
#    0.000    0.667    0.000    7.333    0.000    5.333 
#
# Total GULP energy -534649.418275 kJ/mol
# GULP energy per Si atom -5569.264774 kJ/mol
# Density = 1.612618 g / cm^3
# Si number density = 16.162965 Si / 1000 Ang^3
#
#
#
# Elastic Constant Matrix: (Units=GPa)
#
#
# Indices 1 2 3 4 5 6 
#
# 1 77.6950 8.5340 19.2378 0.0000 0.0000 0.0000
# 2 8.5340 77.6935 19.2367 0.0000 0.0000 0.0000
# 3 19.2378 19.2367 39.7105 0.0000 0.0000 0.0000
# 4 0.0000 0.0000 0.0000 18.0277 0.0000 0.0000
# 5 0.0000 0.0000 0.0000 0.0000 18.0278 0.0000
# 6 0.0000 0.0000 0.0000 0.0000 0.0000 16.8997
#
#
#
# Elastic Compliance Matrix: (Units=1/GPa)
#
#
# Indices 1 2 3 4 5 6 
#
# 1 0.014627 0.000168 -0.007168 0.000000 0.000000 0.000000
# 2 0.000168 0.014627 -0.007167 0.000000 0.000000 0.000000
# 3 -0.007168 -0.007167 0.032127 0.000000 0.000000 0.000000
# 4 0.000000 0.000000 0.000000 0.055470 0.000000 0.000000
# 5 0.000000 0.000000 0.000000 0.000000 0.055470 0.000000
# 6 0.000000 0.000000 0.000000 0.000000 0.000000 0.059173
#
#
# Mechanical properties :
#
#
# Convention : Reuss Voigt Hill
#
# Bulk Modulus (GPa) = 30.25947 32.12399 31.19173
# Shear Modulus (GPa) = 18.46089 20.46374 19.46232
#
# Velocity S-wave (km/s) = 3.38327 3.56207 3.47382
# Velocity P-wave (km/s) = 5.83302 6.06927 5.95232
#
# Compressibility (1/GPa) = 0.03304750
#
# Stress axis : x y z
#
# Youngs Moduli (GPa) = 68.36623 68.36574 31.12695
#
# Poissons Ratio (x) = -0.01149 0.22310
# Poissons Ratio (y) = -0.01149 0.22309
# Poissons Ratio (z) = 0.49002 0.48999
#
# Static dielectric constant tensor:
#      x y z
#    x 1.556810 0.000000 0.000000 
#    y 0.000000 1.556800 0.000000 
#    z 0.000000 0.000000 1.555600 
# 
# From -- ./inp_files/1428.got.cif
#   From: 2010.05.17/outbox.cif.g08.bks.cpg/sg128_1_cif.got.tgz:1428.got - 2010.05.20 12:07:25.
