data_PCOD9564456
_publ_section_title
;
Structure prediction by ZEFSAII (Michael W. Deem and Ramdas Pophale) SiO2 
 PCOD9564456
Probable space group: P 4/M B M
;
_chemical_formula_sum "Si O2"
_cell_formula_units_Z 88
_cell_length_a 10.966654
_cell_length_b 10.966654
_cell_length_c 34.775153
_cell_angle_alpha 90.000000
_cell_angle_beta 90.000000
_cell_angle_gamma 90.000000
_cell_volume 4182.320712
_symmetry_space_group_name_H-M "P 4/M B M"
_symmetry_group_IT_number 127
_symmetry_cell_setting 'tetragonal'
loop_
_space_group_symop_operation_xyz
x,y,z
-y,x,z
-x,-y,z
y,-x,z
1/2+x,1/2-y,-z
1/2-x,1/2+y,-z
1/2+y,1/2+x,-z
1/2-y,1/2-x,-z
-x,-y,-z
y,-x,-z
x,y,-z
-y,x,-z
1/2-x,1/2+y,z
1/2+x,1/2-y,z
1/2-y,1/2-x,z
1/2+y,1/2+x,z
loop_
_atom_site_type_symbol
_atom_site_label
_atom_site_fract_x
_atom_site_fract_y
_atom_site_fract_z
Si Si1 0.294039 0.521384 0.000000
Si Si2 0.792211 0.989970 0.458621
Si Si3 0.897868 0.397868 0.144960
Si Si4 0.013652 0.792863 0.375947
Si Si5 0.601865 0.898136 0.231162
Si Si6 0.522112 0.704286 0.292248
Si Si7 0.203782 0.025197 0.083707
O O1 0.371616 0.395869 0.000000
O O2 0.232224 0.528898 0.958374
O O3 0.726954 0.987416 0.500000
O O4 0.726968 0.985109 0.417251
O O5 0.888735 0.877394 0.458628
O O6 0.859985 0.359985 0.188092
O O7 0.954143 0.290193 0.119482
O O8 0.000000 0.500000 0.148149
O O9 0.022108 0.731365 0.334303
O O10 0.891028 0.875558 0.376014
O O11 0.544060 0.791248 0.256669
O O12 0.500000 0.000000 0.227357
O O13 0.396375 0.629377 0.290782
O O14 0.101698 0.130968 0.085143
#
# Coordination Sequence:
#
# PCOD9564456 Si02
#       7
#     8  16   8  16   8  16  16
#     4   7  12  29  58  89 117 147 188 230 267 314
#     4   7   8  10  21  48  89 129 156 188 244 307
#     4  11  26  41  56  82 119 151 188 238 285 330
#     4   7  10  19  37  63  94 126 164 210 258 313
#     4  11  26  42  57  81 113 147 183 237 292 335
#     4   9  19  37  61  84 106 139 183 232 286 340
#     4   9  19  38  64  89 117 156 193 227 273 328
#
# _framework density 21.040951
#
# number of rings (size 3 to 8) (size 9 to 14) (size 15 to 20)
#    0.000    3.545    0.000    3.818    2.545    1.818 
#    0.000    2.727    0.000    0.000    0.000    0.636 
#    0.000    1.455    0.000    0.000    0.000    0.000 
#
# Total GULP energy -490089.269643 kJ/mol
# GULP energy per Si atom -5569.196246 kJ/mol
# Density = 2.099306 g / cm^3
# Si number density = 21.040951 Si / 1000 Ang^3
#
#
#
# Elastic Constant Matrix: (Units=GPa)
#
#
# Indices 1 2 3 4 5 6 
#
# 1 22.7274 20.5674 40.8622 0.0000 0.0000 0.0000
# 2 20.5674 22.7274 40.8622 0.0000 0.0000 0.0000
# 3 40.8622 40.8622 271.4234 0.0000 0.0000 0.0000
# 4 0.0000 0.0000 0.0000 -25.3396 0.0000 0.0000
# 5 0.0000 0.0000 0.0000 0.0000 -25.3396 0.0000
# 6 0.0000 0.0000 0.0000 0.0000 0.0000 -11.7933
#
#
#
# Elastic Compliance Matrix: (Units=1/GPa)
#
#
# Indices 1 2 3 4 5 6 
#
# 1 0.247618 -0.215351 -0.004858 0.000000 0.000000 0.000000
# 2 -0.215351 0.247618 -0.004858 0.000000 0.000000 0.000000
# 3 -0.004858 -0.004858 0.005147 0.000000 0.000000 0.000000
# 4 0.000000 0.000000 0.000000 -0.039464 0.000000 0.000000
# 5 0.000000 0.000000 0.000000 0.000000 -0.039464 0.000000
# 6 0.000000 0.000000 0.000000 0.000000 0.000000 -0.084794
#
#
# Mechanical properties :
#
#
# Convention : Reuss Voigt Hill
#
# Bulk Modulus (GPa) = 19.90047 57.94021 38.92034
# Shear Modulus (GPa) = 6.22245 1.81127 4.01686
#
# Velocity S-wave (km/s) = 1.72155 0.92882 1.38319
# Velocity P-wave (km/s) = 3.66471 5.36162 4.59222
#
# Compressibility (1/GPa) = 0.05025006
#
# Stress axis : x y z
#
# Youngs Moduli (GPa) = 4.03848 4.03848 194.29087
#
# Poissons Ratio (x) = 0.86969 0.94381
# Poissons Ratio (y) = 0.86969 0.94381
# Poissons Ratio (z) = 0.01962 0.01962
#
# Static dielectric constant tensor:
#      x y z
#    x 1.774120 0.000000 0.000000 
#    y 0.000000 1.774120 0.000000 
#    z 0.000000 0.000000 1.820210 
# 
# From -- ./inp_files/6559.got.cif
#   From: 2010.05.17/outbox.cif.g08.bks.cpg/sg127_4_cif.got.tgz:6559.got - 2010.05.20 12:03:00.
