data_PCOD9564279
_publ_section_title
;
Structure prediction by ZEFSAII (Michael W. Deem and Ramdas Pophale) SiO2 
 PCOD9564279
Probable space group: P 4/M B M
;
_chemical_formula_sum "Si O2"
_cell_formula_units_Z 88
_cell_length_a 12.209501
_cell_length_b 12.209501
_cell_length_c 28.618845
_cell_angle_alpha 90.000000
_cell_angle_beta 90.000000
_cell_angle_gamma 90.000000
_cell_volume 4266.266020
_symmetry_space_group_name_H-M "P 4/M B M"
_symmetry_group_IT_number 127
_symmetry_cell_setting 'tetragonal'
loop_
_space_group_symop_operation_xyz
x,y,z
-y,x,z
-x,-y,z
y,-x,z
1/2+x,1/2-y,-z
1/2-x,1/2+y,-z
1/2+y,1/2+x,-z
1/2-y,1/2-x,-z
-x,-y,-z
y,-x,-z
x,y,-z
-y,x,-z
1/2-x,1/2+y,z
1/2+x,1/2-y,z
1/2-y,1/2-x,z
1/2+y,1/2+x,z
loop_
_atom_site_type_symbol
_atom_site_label
_atom_site_fract_x
_atom_site_fract_y
_atom_site_fract_z
Si Si1 0.243235 0.924998 0.384286
Si Si2 0.820325 0.972226 0.102919
Si Si3 0.103257 0.784609 0.552299
Si Si4 0.317939 0.489299 0.281678
Si Si5 0.090276 0.590276 0.055955
Si Si6 0.504768 0.180396 0.191028
O O1 0.326623 0.826623 0.375642
O O2 0.135333 0.878030 0.410497
O O3 0.221628 0.981766 0.334949
O O4 0.285720 0.009212 0.423126
O O5 0.708974 0.946033 0.075121
O O6 0.911435 0.879261 0.093316
O O7 0.781085 0.978919 0.156789
O O8 0.073115 0.820828 0.500000
O O9 0.210915 0.710915 0.548426
O O10 0.400501 0.387793 0.274657
O O11 0.222807 0.484822 0.243708
O O12 0.000000 0.500000 0.070837
O O13 0.093336 0.593336 0.000000
O O14 0.615469 0.115469 0.177133
O O15 0.406380 0.093621 0.187269
#
# Coordination Sequence:
#
# PCOD9564279 Si02
#       6
#    16  16  16  16   8  16
#     4  11  22  39  61  85 116 154 196 248 309 376
#     4  11  25  45  73 108 147 193 246 303 361 425
#     4  10  22  39  60  86 115 151 195 244 303 373
#     4  11  23  40  62  89 123 164 211 263 326 391
#     4  11  26  46  74 109 151 201 251 308 369 423
#     4  11  24  41  66  99 137 180 229 277 337 409
#
# _framework density 20.626935
#
# number of rings (size 3 to 8) (size 9 to 14) (size 15 to 20)
#    0.000    1.182    2.727    2.727    2.545    7.636 
#    0.000    2.727    0.000    0.000    0.000    0.000 
#    0.000    0.000    0.000    0.000    0.000    0.000 
#
# Total GULP energy -491516.248802 kJ/mol
# GULP energy per Si atom -5585.411918 kJ/mol
# Density = 2.057999 g / cm^3
# Si number density = 20.626935 Si / 1000 Ang^3
#
#
#
# Elastic Constant Matrix: (Units=GPa)
#
#
# Indices 1 2 3 4 5 6 
#
# 1 103.0699 46.3156 36.3466 0.0000 0.0000 0.0000
# 2 46.3156 103.0699 36.3466 0.0000 0.0000 0.0000
# 3 36.3466 36.3466 104.4743 0.0000 0.0000 0.0000
# 4 0.0000 0.0000 0.0000 -62.7180 0.0000 0.0000
# 5 0.0000 0.0000 0.0000 0.0000 -62.7180 0.0000
# 6 0.0000 0.0000 0.0000 0.0000 0.0000 12.5758
#
#
#
# Elastic Compliance Matrix: (Units=1/GPa)
#
#
# Indices 1 2 3 4 5 6 
#
# 1 0.012839 -0.004781 -0.002803 0.000000 0.000000 0.000000
# 2 -0.004781 0.012839 -0.002803 0.000000 0.000000 0.000000
# 3 -0.002803 -0.002803 0.011522 0.000000 0.000000 0.000000
# 4 0.000000 0.000000 0.000000 -0.015944 0.000000 0.000000
# 5 0.000000 0.000000 0.000000 0.000000 -0.015944 0.000000
# 6 0.000000 0.000000 0.000000 0.000000 0.000000 0.079518
#
#
# Mechanical properties :
#
#
# Convention : Reuss Voigt Hill
#
# Bulk Modulus (GPa) = 60.88255 60.95910 60.92082
# Shear Modulus (GPa) = 45.01268 -9.79836 17.60716
#
# Velocity S-wave (km/s) = 4.67650 -2.18188 2.92481
# Velocity P-wave (km/s) = 7.66418 4.82388 6.40350
#
# Compressibility (1/GPa) = 0.01642507
#
# Stress axis : x y z
#
# Youngs Moduli (GPa) = 77.88736 77.88736 86.78743
#
# Poissons Ratio (x) = 0.37236 0.24331
# Poissons Ratio (y) = 0.37236 0.24331
# Poissons Ratio (z) = 0.21836 0.21836
#
# Static dielectric constant tensor:
#      x y z
#    x 1.765640 0.000000 0.000000 
#    y 0.000000 1.765640 0.000000 
#    z 0.000000 0.000000 1.722670 
# 
# From -- ./inp_files/6509.got.cif
#   From: 2010.05.17/outbox.cif.g08.bks.cpg/sg127_4_cif.got.tgz:6509.got - 2010.05.20 12:03:00.
