data_PCOD9564787
_publ_section_title
;
Structure prediction by ZEFSAII (Michael W. Deem and Ramdas Pophale) SiO2 
 PCOD9564787
Probable space group: P 4/M N C
;
_chemical_formula_sum "Si O2"
_cell_formula_units_Z 116
_cell_length_a 19.870601
_cell_length_b 19.870601
_cell_length_c 17.688959
_cell_angle_alpha 90.000000
_cell_angle_beta 90.000000
_cell_angle_gamma 90.000000
_cell_volume 6984.322441
_symmetry_space_group_name_H-M "P 4/M N C"
_symmetry_group_IT_number 128
_symmetry_cell_setting 'tetragonal'
loop_
_space_group_symop_operation_xyz
x,y,z
-y,x,z
-x,-y,z
y,-x,z
1/2+x,1/2-y,1/2-z
1/2-x,1/2+y,1/2-z
1/2+y,1/2+x,1/2-z
1/2-y,1/2-x,1/2-z
-x,-y,-z
y,-x,-z
x,y,-z
-y,x,-z
1/2-x,1/2+y,1/2+z
1/2+x,1/2-y,1/2+z
1/2-y,1/2-x,1/2+z
1/2+y,1/2+x,1/2+z
loop_
_atom_site_type_symbol
_atom_site_label
_atom_site_fract_x
_atom_site_fract_y
_atom_site_fract_z
Si Si1 0.776678 0.556809 0.331607
Si Si2 0.500000 0.000000 0.750000
Si Si3 0.334098 0.872902 0.588314
Si Si4 0.714707 0.286606 0.858971
Si Si5 0.422702 0.258799 0.412545
Si Si6 0.997712 0.351860 0.684534
Si Si7 0.322663 0.324821 0.301654
Si Si8 0.128189 0.671077 0.416258
O O1 0.830452 0.609290 0.366455
O O2 0.754861 0.499301 0.389807
O O3 0.810601 0.520469 0.259100
O O4 0.712566 0.603061 0.311569
O O5 0.568812 0.999650 0.702660
O O6 0.348738 0.869148 0.500000
O O7 0.260431 0.841725 0.604404
O O8 0.336244 0.947467 0.620818
O O9 0.688226 0.328836 0.787520
O O10 0.768590 0.231175 0.829309
O O11 0.756841 0.335277 0.912321
O O12 0.415408 0.280636 0.500000
O O13 0.387145 0.309831 0.353685
O O14 0.383708 0.187383 0.405658
O O15 0.925026 0.334262 0.651064
O O16 0.098303 0.660623 0.500000
#
# Coordination Sequence:
#
# PCOD9564787 Si02
#       8
#    16   4  16  16  16  16  16  16
#     4  11  20  36  55  75 107 143 185 222 262 323
#     4  12  24  36  54  68 108 160 194 220 248 312
#     4  11  21  34  54  79 108 143 184 229 274 322
#     4   9  17  34  55  77 101 135 176 230 280 318
#     4  10  21  35  52  80 110 139 179 225 272 319
#     4  12  22  37  52  76 107 149 190 223 261 320
#     4   9  18  32  55  77 100 135 179 224 268 321
#     4  10  21  35  52  78 109 138 175 225 279 323
#
# _framework density 16.608626000000001
#
# number of rings (size 3 to 8) (size 9 to 14) (size 15 to 20)
#    0.000    1.655    2.759    2.897    0.000    6.069 
#    0.000    0.690    0.000    0.414    0.000    0.966 
#    0.000    0.552    0.000    4.000    0.000    0.138 
#
# Total GULP energy -646953.562283 kJ/mol
# GULP energy per Si atom -5577.185882 kJ/mol
# Density = 1.657082 g / cm^3
# Si number density = 16.608626 Si / 1000 Ang^3
#
#
#
# Elastic Constant Matrix: (Units=GPa)
#
#
# Indices 1 2 3 4 5 6 
#
# 1 54.4426 37.2684 25.8789 0.0000 0.0000 0.0000
# 2 37.2684 54.4426 25.8789 0.0000 0.0000 0.0000
# 3 25.8789 25.8789 90.5204 0.0000 0.0000 0.0000
# 4 0.0000 0.0000 0.0000 23.9241 0.0000 0.0000
# 5 0.0000 0.0000 0.0000 0.0000 23.9241 0.0000
# 6 0.0000 0.0000 0.0000 0.0000 0.0000 19.6679
#
#
#
# Elastic Compliance Matrix: (Units=1/GPa)
#
#
# Indices 1 2 3 4 5 6 
#
# 1 0.035614 -0.022613 -0.003717 0.000000 0.000000 0.000000
# 2 -0.022613 0.035614 -0.003717 0.000000 0.000000 0.000000
# 3 -0.003717 -0.003717 0.013173 0.000000 0.000000 0.000000
# 4 0.000000 0.000000 0.000000 0.041799 0.000000 0.000000
# 5 0.000000 0.000000 0.000000 0.000000 0.041799 0.000000
# 6 0.000000 0.000000 0.000000 0.000000 0.000000 0.050844
#
#
# Mechanical properties :
#
#
# Convention : Reuss Voigt Hill
#
# Bulk Modulus (GPa) = 41.13944 41.93978 41.53961
# Shear Modulus (GPa) = 17.41925 20.86184 19.14055
#
# Velocity S-wave (km/s) = 3.24204 3.54797 3.39845
# Velocity P-wave (km/s) = 6.23203 6.48774 6.36117
#
# Compressibility (1/GPa) = 0.02430758
#
# Stress axis : x y z
#
# Youngs Moduli (GPa) = 28.07872 28.07872 75.91541
#
# Poissons Ratio (x) = 0.63493 0.28218
# Poissons Ratio (y) = 0.63493 0.28218
# Poissons Ratio (z) = 0.10437 0.10437
#
# Static dielectric constant tensor:
#      x y z
#    x 1.554970 0.000000 0.000000 
#    y 0.000000 1.554970 0.000000 
#    z 0.000000 0.000000 1.579250 
# 
# From -- ./inp_files/4956.got.cif
#   From: 2010.05.17/outbox.cif.g08.bks.cpg/sg128_3_cif.got.tgz:4956.got - 2010.05.20 12:07:25.
