data_PCOD9564910
_publ_section_title
;
Structure prediction by ZEFSAII (Michael W. Deem and Ramdas Pophale) SiO2 
 PCOD9564910
Probable space group: P 4/M N C
;
_chemical_formula_sum "Si O2"
_cell_formula_units_Z 64
_cell_length_a 16.717225
_cell_length_b 16.717225
_cell_length_c 11.408473
_cell_angle_alpha 90.000000
_cell_angle_beta 90.000000
_cell_angle_gamma 90.000000
_cell_volume 3188.275886
_symmetry_space_group_name_H-M "P 4/M N C"
_symmetry_group_IT_number 128
_symmetry_cell_setting 'tetragonal'
loop_
_space_group_symop_operation_xyz
x,y,z
-y,x,z
-x,-y,z
y,-x,z
1/2+x,1/2-y,1/2-z
1/2-x,1/2+y,1/2-z
1/2+y,1/2+x,1/2-z
1/2-y,1/2-x,1/2-z
-x,-y,-z
y,-x,-z
x,y,-z
-y,x,-z
1/2-x,1/2+y,1/2+z
1/2+x,1/2-y,1/2+z
1/2-y,1/2-x,1/2+z
1/2+y,1/2+x,1/2+z
loop_
_atom_site_type_symbol
_atom_site_label
_atom_site_fract_x
_atom_site_fract_y
_atom_site_fract_z
Si Si1 0.912056 0.100967 0.000000
Si Si2 0.534845 0.110478 0.132084
Si Si3 0.373900 0.126101 0.750000
Si Si4 0.602451 0.686744 0.737493
Si Si5 0.799279 0.060917 0.633568
O O1 0.881659 0.143406 0.115734
O O2 0.008001 0.108480 0.000000
O O3 0.569034 0.069034 0.250000
O O4 0.438648 0.108330 0.148385
O O5 0.561916 0.203015 0.139126
O O6 0.556301 0.081209 0.000000
O O7 0.386375 0.218877 0.721416
O O8 0.662189 0.644542 0.828530
O O9 0.512117 0.672554 0.783954
O O10 0.821922 0.041948 0.500000
#
# Coordination Sequence:
#
# PCOD9564910 Si02
#       5
#     8  16   8  16  16
#     4  11  22  40  64  94 135 167 209 260 318 400
#     4  10  23  45  66  94 128 169 217 269 321 381
#     4  10  25  40  66  94 126 165 216 264 316 378
#     4  11  22  42  62  94 126 168 211 257 318 379
#     4  10  22  41  64  91 128 165 212 261 315 379
#
# _framework density 20.073543999999998
#
# number of rings (size 3 to 8) (size 9 to 14) (size 15 to 20)
#    0.000    1.625    2.500    1.125    3.500    3.500 
#    9.000    1.250    0.000    0.000    0.000    0.000 
#    0.000    0.000    0.000    0.000    0.000    0.000 
#
# Total GULP energy -357175.087014 kJ/mol
# GULP energy per Si atom -5580.860735 kJ/mol
# Density = 2.002786 g / cm^3
# Si number density = 20.073544 Si / 1000 Ang^3
#
#
#
# Elastic Constant Matrix: (Units=GPa)
#
#
# Indices 1 2 3 4 5 6 
#
# 1 78.1100 0.8759 26.3399 0.0000 0.0000 0.0000
# 2 0.8759 78.1119 26.3396 0.0000 0.0000 0.0000
# 3 26.3399 26.3396 108.6343 0.0000 0.0000 0.0000
# 4 0.0000 0.0000 0.0000 15.5589 0.0000 0.0000
# 5 0.0000 0.0000 0.0000 0.0000 15.5599 0.0000
# 6 0.0000 0.0000 0.0000 0.0000 0.0000 28.0993
#
#
#
# Elastic Compliance Matrix: (Units=1/GPa)
#
#
# Indices 1 2 3 4 5 6 
#
# 1 0.014025 0.001078 -0.003662 0.000000 0.000000 0.000000
# 2 0.001078 0.014025 -0.003662 0.000000 0.000000 0.000000
# 3 -0.003662 -0.003662 0.010981 0.000000 0.000000 0.000000
# 4 0.000000 0.000000 0.000000 0.064272 0.000000 0.000000
# 5 0.000000 0.000000 0.000000 0.000000 0.064268 0.000000
# 6 0.000000 0.000000 0.000000 0.000000 0.000000 0.035588
#
#
# Mechanical properties :
#
#
# Convention : Reuss Voigt Hill
#
# Bulk Modulus (GPa) = 37.68073 41.32967 39.50520
# Shear Modulus (GPa) = 22.27201 25.93035 24.10118
#
# Velocity S-wave (km/s) = 3.33456 3.59802 3.46879
# Velocity P-wave (km/s) = 5.79981 6.15587 5.98049
#
# Compressibility (1/GPa) = 0.02653877
#
# Stress axis : x y z
#
# Youngs Moduli (GPa) = 71.30019 71.30222 91.06724
#
# Poissons Ratio (x) = -0.07683 0.33348
# Poissons Ratio (y) = -0.07683 0.33346
# Poissons Ratio (z) = 0.26109 0.26109
#
# Static dielectric constant tensor:
#      x y z
#    x 1.701710 0.000000 0.000000 
#    y 0.000000 1.701700 0.000000 
#    z 0.000000 0.000000 1.693570 
# 
# From -- ./inp_files/2546.got.cif
#   From: 2010.05.17/outbox.cif.g08.bks.cpg/sg128_2_cif.got.tgz:2546.got - 2010.05.20 12:07:25.
