data_PCOD9564316
_publ_section_title
;
Structure prediction by ZEFSAII (Michael W. Deem and Ramdas Pophale) SiO2 
 PCOD9564316
Probable space group: P 4/M B M
;
_chemical_formula_sum "Si O2"
_cell_formula_units_Z 52
_cell_length_a 17.984988
_cell_length_b 17.984988
_cell_length_c 7.134184
_cell_angle_alpha 90.000000
_cell_angle_beta 90.000000
_cell_angle_gamma 90.000000
_cell_volume 2307.621682
_symmetry_space_group_name_H-M "P 4/M B M"
_symmetry_group_IT_number 127
_symmetry_cell_setting 'tetragonal'
loop_
_space_group_symop_operation_xyz
x,y,z
-y,x,z
-x,-y,z
y,-x,z
1/2+x,1/2-y,-z
1/2-x,1/2+y,-z
1/2+y,1/2+x,-z
1/2-y,1/2-x,-z
-x,-y,-z
y,-x,-z
x,y,-z
-y,x,-z
1/2-x,1/2+y,z
1/2+x,1/2-y,z
1/2-y,1/2-x,z
1/2+y,1/2+x,z
loop_
_atom_site_type_symbol
_atom_site_label
_atom_site_fract_x
_atom_site_fract_y
_atom_site_fract_z
Si Si1 0.785569 0.968752 0.225543
Si Si2 0.119155 0.496106 0.773007
Si Si3 0.179569 0.870083 0.226040
Si Si4 0.802222 0.697779 0.500000
O O1 0.831967 0.042680 0.267856
O O2 0.701368 0.984128 0.291158
O O3 0.821437 0.891511 0.284721
O O4 0.781446 0.963703 0.000000
O O5 0.061497 0.561497 0.723572
O O6 0.081253 0.418748 0.708679
O O7 0.121151 0.492869 0.000000
O O8 0.251267 0.843259 0.336877
O O9 0.190238 0.863091 0.000000
#
# Coordination Sequence:
#
# PCOD9564316 Si02
#       4
#    16  16  16   4
#     4   9  19  36  62  92 127 169 215 270 322 386
#     4   8  14  25  46  80 119 160 201 246 312 384
#     4  10  23  42  65  96 130 173 220 267 330 389
#     4  12  26  40  64  96 134 176 210 280 322 384
#
# _framework density 22.534025
#
# number of rings (size 3 to 8) (size 9 to 14) (size 15 to 20)
#    0.000    2.769    0.000    1.385    4.308    1.846 
#    0.000    3.077    0.000    1.846    0.000    2.154 
#    0.000    0.000    0.000    0.000    0.000    0.000 
#
# Total GULP energy -289547.858393 kJ/mol
# GULP energy per Si atom -5568.228046 kJ/mol
# Density = 2.248274 g / cm^3
# Si number density = 22.534025 Si / 1000 Ang^3
#
#
#
# Elastic Constant Matrix: (Units=GPa)
#
#
# Indices 1 2 3 4 5 6 
#
# 1 68.7728 44.0039 -2.6842 0.0000 0.0000 0.0000
# 2 44.0039 68.7750 -2.6835 0.0000 0.0000 0.0000
# 3 -2.6842 -2.6835 142.3075 0.0000 0.0000 0.0000
# 4 0.0000 0.0000 0.0000 -49.1219 0.0000 0.0000
# 5 0.0000 0.0000 0.0000 0.0000 -49.1204 0.0000
# 6 0.0000 0.0000 0.0000 0.0000 0.0000 32.3918
#
#
#
# Elastic Compliance Matrix: (Units=1/GPa)
#
#
# Indices 1 2 3 4 5 6 
#
# 1 0.024624 -0.015748 0.000167 0.000000 0.000000 0.000000
# 2 -0.015748 0.024623 0.000167 0.000000 0.000000 0.000000
# 3 0.000167 0.000167 0.007033 0.000000 0.000000 0.000000
# 4 0.000000 0.000000 0.000000 -0.020358 0.000000 0.000000
# 5 0.000000 0.000000 0.000000 0.000000 -0.020358 0.000000
# 6 0.000000 0.000000 0.000000 0.000000 0.000000 0.030872
#
#
# Mechanical properties :
#
#
# Convention : Reuss Voigt Hill
#
# Bulk Modulus (GPa) = 39.28844 39.68085 39.48464
# Shear Modulus (GPa) = 58.31086 2.91116 30.61101
#
# Velocity S-wave (km/s) = 5.09244 1.13785 3.68969
# Velocity P-wave (km/s) = 7.21459 4.40157 5.97596
#
# Compressibility (1/GPa) = 0.02545278
#
# Stress axis : x y z
#
# Youngs Moduli (GPa) = 40.61146 40.61280 142.17973
#
# Poissons Ratio (x) = 0.63958 -0.02381
# Poissons Ratio (y) = 0.63956 -0.02378
# Poissons Ratio (z) = -0.00680 -0.00679
#
# Static dielectric constant tensor:
#      x y z
#    x 1.808270 0.000000 0.000000 
#    y 0.000000 1.808270 0.000000 
#    z 0.000000 0.000000 1.879620 
# 
# From -- ./inp_files/945.got.cif
#   From: 2010.05.17/outbox.cif.g08.bks.cpg/sg127_1_cif.got.tgz:945.got - 2010.05.20 12:03:00.
