data_PCOD9564636
_publ_section_title
;
Structure prediction by ZEFSAII (Michael W. Deem and Ramdas Pophale) SiO2 
 PCOD9564636
Probable space group: P 4/M N C
;
_chemical_formula_sum "Si O2"
_cell_formula_units_Z 120
_cell_length_a 15.004552
_cell_length_b 15.004552
_cell_length_c 31.615119
_cell_angle_alpha 90.000000
_cell_angle_beta 90.000000
_cell_angle_gamma 90.000000
_cell_volume 7117.719791
_symmetry_space_group_name_H-M "P 4/M N C"
_symmetry_group_IT_number 128
_symmetry_cell_setting 'tetragonal'
loop_
_space_group_symop_operation_xyz
x,y,z
-y,x,z
-x,-y,z
y,-x,z
1/2+x,1/2-y,1/2-z
1/2-x,1/2+y,1/2-z
1/2+y,1/2+x,1/2-z
1/2-y,1/2-x,1/2-z
-x,-y,-z
y,-x,-z
x,y,-z
-y,x,-z
1/2-x,1/2+y,1/2+z
1/2+x,1/2-y,1/2+z
1/2-y,1/2-x,1/2+z
1/2+y,1/2+x,1/2+z
loop_
_atom_site_type_symbol
_atom_site_label
_atom_site_fract_x
_atom_site_fract_y
_atom_site_fract_z
Si Si1 0.257868 0.975833 0.810625
Si Si2 0.291088 0.810696 0.863922
Si Si3 0.679465 0.012822 0.677413
Si Si4 0.415250 0.915250 0.250000
Si Si5 0.870641 0.758881 0.952480
Si Si6 0.080695 0.740878 0.952508
Si Si7 0.639738 0.834577 0.634692
Si Si8 0.511010 0.646302 0.232843
O O1 0.241096 0.896899 0.843889
O O2 0.324713 0.930038 0.776485
O O3 0.177365 0.009718 0.781726
O O4 0.301512 0.058953 0.835128
O O5 0.389144 0.807652 0.842931
O O6 0.296705 0.828365 0.914146
O O7 0.227717 0.725505 0.856558
O O8 0.599037 0.014636 0.712195
O O9 0.768224 0.986147 0.702795
O O10 0.658321 0.937151 0.644002
O O11 0.828195 0.857286 0.949202
O O12 0.976703 0.761538 0.947968
O O13 0.849991 0.725439 0.000000
O O14 0.110988 0.680101 0.913694
O O15 0.094811 0.703760 0.000000
O O16 0.420137 0.592325 0.224979
#
# Coordination Sequence:
#
# PCOD9564636 Si02
#       8
#    16  16  16   8  16  16  16  16
#     4  10  19  34  51  76 105 134 169 213 259 312
#     4  10  20  35  52  77 107 135 175 217 258 305
#     4  10  21  36  53  73 102 136 181 220 258 305
#     4   8  20  33  48  70  96 126 166 213 246 298
#     4   9  17  32  53  76 108 141 171 210 256 308
#     4   9  18  33  52  78 107 137 172 210 255 310
#     4  11  21  33  55  77 101 141 174 211 261 309
#     4  10  20  34  52  74 102 136 175 222 270 311
#
# _framework density 16.859331999999998
#
# number of rings (size 3 to 8) (size 9 to 14) (size 15 to 20)
#    0.000    2.267    1.333    1.600    0.000    5.067 
#    0.000    7.333    0.000    1.600    0.000    0.000 
#    0.000    0.000    0.000   16.267    0.000    0.000 
#
# Total GULP energy -668300.430132 kJ/mol
# GULP energy per Si atom -5569.170251 kJ/mol
# Density = 1.682096 g / cm^3
# Si number density = 16.859332 Si / 1000 Ang^3
#
#
#
# Elastic Constant Matrix: (Units=GPa)
#
#
# Indices 1 2 3 4 5 6 
#
# 1 62.9934 20.2058 32.7477 0.0000 0.0000 0.0000
# 2 20.2058 62.9934 32.7477 0.0000 0.0000 0.0000
# 3 32.7477 32.7477 104.3479 0.0000 0.0000 0.0000
# 4 0.0000 0.0000 0.0000 23.6625 0.0000 0.0000
# 5 0.0000 0.0000 0.0000 0.0000 23.6625 0.0000
# 6 0.0000 0.0000 0.0000 0.0000 0.0000 9.7633
#
#
#
# Elastic Compliance Matrix: (Units=1/GPa)
#
#
# Indices 1 2 3 4 5 6 
#
# 1 0.019667 -0.003704 -0.005010 0.000000 0.000000 0.000000
# 2 -0.003704 0.019667 -0.005010 0.000000 0.000000 0.000000
# 3 -0.005010 -0.005010 0.012728 0.000000 0.000000 0.000000
# 4 0.000000 0.000000 0.000000 0.042261 0.000000 0.000000
# 5 0.000000 0.000000 0.000000 0.000000 0.042261 0.000000
# 6 0.000000 0.000000 0.000000 0.000000 0.000000 0.102425
#
#
# Mechanical properties :
#
#
# Convention : Reuss Voigt Hill
#
# Bulk Modulus (GPa) = 40.62567 44.63746 42.63157
# Shear Modulus (GPa) = 18.20430 21.05992 19.63211
#
# Velocity S-wave (km/s) = 3.28956 3.53817 3.41613
# Velocity P-wave (km/s) = 6.21107 6.57461 6.39542
#
# Compressibility (1/GPa) = 0.02461498
#
# Stress axis : x y z
#
# Youngs Moduli (GPa) = 50.84624 50.84624 78.56863
#
# Poissons Ratio (x) = 0.18834 0.39361
# Poissons Ratio (y) = 0.18834 0.39361
# Poissons Ratio (z) = 0.25472 0.25472
#
# Static dielectric constant tensor:
#      x y z
#    x 1.568800 0.000000 0.000000 
#    y 0.000000 1.568800 0.000000 
#    z 0.000000 0.000000 1.598830 
# 
# From -- ./inp_files/7411.got.cif
#   From: 2010.05.17/outbox.cif.g08.bks.cpg/sg128_4_cif.got.tgz:7411.got - 2010.05.20 12:07:25.
