data_PCOD9564760
_publ_section_title
;
Structure prediction by ZEFSAII (Michael W. Deem and Ramdas Pophale) SiO2 
 PCOD9564760
Probable space group: P 4/M N C
;
_chemical_formula_sum "Si O2"
_cell_formula_units_Z 56
_cell_length_a 13.491563
_cell_length_b 13.491563
_cell_length_c 16.144402
_cell_angle_alpha 90.000000
_cell_angle_beta 90.000000
_cell_angle_gamma 90.000000
_cell_volume 2938.640735
_symmetry_space_group_name_H-M "P 4/M N C"
_symmetry_group_IT_number 128
_symmetry_cell_setting 'tetragonal'
loop_
_space_group_symop_operation_xyz
x,y,z
-y,x,z
-x,-y,z
y,-x,z
1/2+x,1/2-y,1/2-z
1/2-x,1/2+y,1/2-z
1/2+y,1/2+x,1/2-z
1/2-y,1/2-x,1/2-z
-x,-y,-z
y,-x,-z
x,y,-z
-y,x,-z
1/2-x,1/2+y,1/2+z
1/2+x,1/2-y,1/2+z
1/2-y,1/2-x,1/2+z
1/2+y,1/2+x,1/2+z
loop_
_atom_site_type_symbol
_atom_site_label
_atom_site_fract_x
_atom_site_fract_y
_atom_site_fract_z
Si Si1 0.334515 0.481964 0.000000
Si Si2 0.932242 0.850128 0.000000
Si Si3 0.160102 0.660102 0.250000
Si Si4 0.045163 0.278542 0.327035
Si Si5 0.856126 0.765844 0.168839
O O1 0.415032 0.394017 0.000000
O O2 0.272889 0.473723 0.085002
O O3 0.903499 0.795714 0.083536
O O4 0.047207 0.873739 0.000000
O O5 0.169351 0.554922 0.204351
O O6 0.181439 0.750176 0.185306
O O7 0.077080 0.208638 0.249296
O O8 0.146421 0.341863 0.335396
#
# Coordination Sequence:
#
# PCOD9564760 Si02
#       5
#     8   8   8  16  16
#     4  11  21  34  58  89 119 152 197 253 306 357
#     4  11  23  40  62  86 115 156 201 246 304 363
#     4  10  20  37  62  83 116 164 196 240 300 360
#     4  10  21  38  59  86 120 158 199 240 302 360
#     4  10  22  38  59  87 123 155 199 255 292 353
#
# _framework density 19.056431
#
# number of rings (size 3 to 8) (size 9 to 14) (size 15 to 20)
#    0.000    2.000    0.000    6.000    0.000    3.429 
#    0.000    4.286    0.000   10.286    0.000    0.000 
#    0.000    0.000    0.000    0.000    0.000    0.000 
#
# Total GULP energy -312244.324538 kJ/mol
# GULP energy per Si atom -5575.791510 kJ/mol
# Density = 1.901306 g / cm^3
# Si number density = 19.056431 Si / 1000 Ang^3
#
#
#
# Elastic Constant Matrix: (Units=GPa)
#
#
# Indices 1 2 3 4 5 6 
#
# 1 109.1025 58.8551 77.0033 0.0000 0.0000 0.0000
# 2 58.8551 109.1025 77.0033 0.0000 0.0000 0.0000
# 3 77.0033 77.0033 211.3114 0.0000 0.0000 0.0000
# 4 0.0000 0.0000 0.0000 24.3056 0.0000 0.0000
# 5 0.0000 0.0000 0.0000 0.0000 24.3056 0.0000
# 6 0.0000 0.0000 0.0000 0.0000 0.0000 11.2330
#
#
#
# Elastic Compliance Matrix: (Units=1/GPa)
#
#
# Indices 1 2 3 4 5 6 
#
# 1 0.014422 -0.005480 -0.003258 0.000000 0.000000 0.000000
# 2 -0.005480 0.014422 -0.003258 0.000000 0.000000 0.000000
# 3 -0.003258 -0.003258 0.007107 0.000000 0.000000 0.000000
# 4 0.000000 0.000000 0.000000 0.041143 0.000000 0.000000
# 5 0.000000 0.000000 0.000000 0.000000 0.041143 0.000000
# 6 0.000000 0.000000 0.000000 0.000000 0.000000 0.089023
#
#
# Mechanical properties :
#
#
# Convention : Reuss Voigt Hill
#
# Bulk Modulus (GPa) = 83.63442 95.02667 89.33055
# Shear Modulus (GPa) = 21.25508 26.41250 23.83379
#
# Velocity S-wave (km/s) = 3.34335 3.72696 3.54035
# Velocity P-wave (km/s) = 7.67379 8.27614 7.98065
#
# Compressibility (1/GPa) = 0.01195680
#
# Stress axis : x y z
#
# Youngs Moduli (GPa) = 69.34053 69.34053 140.70414
#
# Poissons Ratio (x) = 0.37998 0.45847
# Poissons Ratio (y) = 0.37998 0.45847
# Poissons Ratio (z) = 0.22594 0.22594
#
# Static dielectric constant tensor:
#      x y z
#    x 1.675110 0.000000 0.000000 
#    y 0.000000 1.675110 0.000000 
#    z 0.000000 0.000000 1.668830 
# 
# From -- ./inp_files/3484.got.cif
#   From: 2010.05.17/outbox.cif.g08.bks.cpg/sg128_2_cif.got.tgz:3484.got - 2010.05.20 12:07:25.
