data_PCOD9564516
_publ_section_title
;
Structure prediction by ZEFSAII (Michael W. Deem and Ramdas Pophale) SiO2 
 PCOD9564516
Probable space group: P 4/M B M
;
_chemical_formula_sum "Si O2"
_cell_formula_units_Z 96
_cell_length_a 24.000000
_cell_length_b 24.000000
_cell_length_c 9.000000
_cell_angle_alpha 90.000000
_cell_angle_beta 90.000000
_cell_angle_gamma 90.000000
_cell_volume 5184.000000
_symmetry_space_group_name_H-M "P 4/M B M"
_symmetry_group_IT_number 127
_symmetry_cell_setting 'tetragonal'
loop_
_space_group_symop_operation_xyz
x,y,z
-y,x,z
-x,-y,z
y,-x,z
1/2+x,1/2-y,-z
1/2-x,1/2+y,-z
1/2+y,1/2+x,-z
1/2-y,1/2-x,-z
-x,-y,-z
y,-x,-z
x,y,-z
-y,x,-z
1/2-x,1/2+y,z
1/2+x,1/2-y,z
1/2-y,1/2-x,z
1/2+y,1/2+x,z
loop_
_atom_site_type_symbol
_atom_site_label
_atom_site_fract_x
_atom_site_fract_y
_atom_site_fract_z
Si Si1 0.319839 0.731179 0.819308
Si Si2 0.084558 0.963853 0.322673
Si Si3 0.285984 0.024446 0.322980
Si Si4 0.999325 0.589782 0.680773
Si Si5 0.639282 0.766252 0.828481
Si Si6 0.701048 0.558605 0.822172
O O1 0.283594 0.783594 0.766040
O O2 0.287520 0.674552 0.778940
O O3 0.383256 0.728684 0.771928
O O4 0.318631 0.732645 0.000000
O O5 0.094376 0.959786 0.500000
O O6 0.137953 0.943889 0.234259
O O7 0.028469 0.929422 0.289133
O O8 0.283035 0.018405 0.500000
O O9 0.279919 0.088272 0.275944
O O10 0.346660 0.003048 0.270030
O O11 0.236578 0.990780 0.247263
O O12 0.999493 0.590090 0.500000
O O13 0.944820 0.555181 0.728228
O O14 0.053089 0.553089 0.726430
O O15 0.683427 0.816574 0.828278
O O16 0.620593 0.758280 0.000000
O O17 0.702241 0.555851 0.000000
#
# Coordination Sequence:
#
# PCOD9564516 Si02
#       6
#    16  16  16  16  16  16
#     4   8  17  36  58  78 104 141 182 224 271 322
#     4   9  20  40  62  83 111 145 178 222 285 342
#     4  11  22  34  51  80 114 146 182 227 278 327
#     4   8  15  30  52  76 104 141 183 226 272 323
#     4   9  18  35  59  83 108 140 180 229 281 329
#     4  11  23  36  55  83 112 147 190 230 270 326
#
# _framework density 18.518519000000001
#
# number of rings (size 3 to 8) (size 9 to 14) (size 15 to 20)
#    0.000    2.667    0.000    3.500    2.333    2.333 
#    0.000    1.667    0.000    5.000    0.000    5.833 
#    0.000    0.000    0.000    0.000    0.000    0.000 
#
# Total GULP energy -535419.001623 kJ/mol
# GULP energy per Si atom -5577.281267 kJ/mol
# Density = 1.847637 g / cm^3
# Si number density = 18.518519 Si / 1000 Ang^3
#
#
#
# Elastic Constant Matrix: (Units=GPa)
#
#
# Indices 1 2 3 4 5 6 
#
# 1 196.5913 -167.1419 14.6657 0.0000 0.0000 0.0000
# 2 -167.1419 196.5913 14.6657 0.0000 0.0000 0.0000
# 3 14.6657 14.6657 25.0666 0.0000 0.0000 0.0000
# 4 0.0000 0.0000 0.0000 18.2079 0.0000 0.0000
# 5 0.0000 0.0000 0.0000 0.0000 18.2079 0.0000
# 6 0.0000 0.0000 0.0000 0.0000 0.0000 2.5860
#
#
#
# Elastic Compliance Matrix: (Units=1/GPa)
#
#
# Indices 1 2 3 4 5 6 
#
# 1 0.042063 0.039314 -0.047611 0.000000 0.000000 0.000000
# 2 0.039314 0.042063 -0.047611 0.000000 0.000000 0.000000
# 3 -0.047611 -0.047611 0.095605 0.000000 0.000000 0.000000
# 4 0.000000 0.000000 0.000000 0.054921 0.000000 0.000000
# 5 0.000000 0.000000 0.000000 0.000000 0.054921 0.000000
# 6 0.000000 0.000000 0.000000 0.000000 0.000000 0.386703
#
#
# Mechanical properties :
#
#
# Convention : Reuss Voigt Hill
#
# Bulk Modulus (GPa) = 14.72436 15.84756 15.28596
# Shear Modulus (GPa) = 6.16727 44.87101 25.51914
#
# Velocity S-wave (km/s) = 1.82690 4.92777 3.71621
# Velocity P-wave (km/s) = 3.52399 6.39949 5.16585
#
# Compressibility (1/GPa) = 0.06791465
#
# Stress axis : x y z
#
# Youngs Moduli (GPa) = 23.77384 23.77384 10.45967
#
# Poissons Ratio (x) = -0.93464 0.49800
# Poissons Ratio (y) = -0.93464 0.49800
# Poissons Ratio (z) = 1.13190 1.13190
#
# Static dielectric constant tensor:
#      x y z
#    x 1.628940 0.000000 0.000000 
#    y 0.000000 1.628940 0.000000 
#    z 0.000000 0.000000 1.623140 
# 
# From -- ./inp_files/1943.got.cif
#   From: 2010.05.17/outbox.ucp.g08.bks.cvg/sg127_1_cif.got.tgz:1943.got - 2010.06.11 11:37:05.
