data_PCOD9564585
_publ_section_title
;
Structure prediction by ZEFSAII (Michael W. Deem and Ramdas Pophale) SiO2 
 PCOD9564585
Probable space group: P 4/M N C
;
_chemical_formula_sum "Si O2"
_cell_formula_units_Z 88
_cell_length_a 16.679715
_cell_length_b 16.679715
_cell_length_c 16.120301
_cell_angle_alpha 90.000000
_cell_angle_beta 90.000000
_cell_angle_gamma 90.000000
_cell_volume 4484.875569
_symmetry_space_group_name_H-M "P 4/M N C"
_symmetry_group_IT_number 128
_symmetry_cell_setting 'tetragonal'
loop_
_space_group_symop_operation_xyz
x,y,z
-y,x,z
-x,-y,z
y,-x,z
1/2+x,1/2-y,1/2-z
1/2-x,1/2+y,1/2-z
1/2+y,1/2+x,1/2-z
1/2-y,1/2-x,1/2-z
-x,-y,-z
y,-x,-z
x,y,-z
-y,x,-z
1/2-x,1/2+y,1/2+z
1/2+x,1/2-y,1/2+z
1/2-y,1/2-x,1/2+z
1/2+y,1/2+x,1/2+z
loop_
_atom_site_type_symbol
_atom_site_label
_atom_site_fract_x
_atom_site_fract_y
_atom_site_fract_z
Si Si1 0.810943 0.443726 0.592363
Si Si2 0.890961 0.080279 0.181054
Si Si3 0.112039 0.924301 0.000000
Si Si4 0.731696 0.366469 0.247925
Si Si5 0.568921 0.069416 0.346954
Si Si6 0.306656 0.051345 0.407990
O O1 0.774458 0.444068 0.500000
O O2 0.757040 0.416531 0.669437
O O3 0.853633 0.528421 0.611008
O O4 0.881661 0.377310 0.590854
O O5 0.855050 0.098907 0.089480
O O6 0.846490 0.137892 0.244936
O O7 0.984844 0.105652 0.189241
O O8 0.020092 0.895806 0.000000
O O9 0.788849 0.288849 0.250000
O O10 0.751177 0.419798 0.167337
O O11 0.584132 0.084132 0.250000
O O12 0.500000 0.000000 0.351059
O O13 0.647300 0.031469 0.388426
O O14 0.270128 0.049469 0.500000
#
# Coordination Sequence:
#
# PCOD9564585 Si02
#       6
#    16  16   8  16  16  16
#     4   9  16  24  38  64  96 132 169 202 245 305
#     4   9  18  34  57  80 103 135 173 210 253 307
#     4   7  12  26  50  82 108 126 157 202 249 303
#     4  10  19  30  48  75 104 130 168 216 261 308
#     4   9  13  21  36  55  88 130 171 209 240 288
#     4   9  16  26  40  61  93 134 173 209 249 292
#
# _framework density 19.621502
#
# number of rings (size 3 to 8) (size 9 to 14) (size 15 to 20)
#    0.000    3.000    1.818    1.636    1.273    2.182 
#    0.000    0.000    4.000    1.091    0.000    1.273 
#    0.000    0.000    0.000    0.000    0.000    0.000 
#
# Total GULP energy -490212.245982 kJ/mol
# GULP energy per Si atom -5570.593704 kJ/mol
# Density = 1.957684 g / cm^3
# Si number density = 19.621502 Si / 1000 Ang^3
#
#
#
# Elastic Constant Matrix: (Units=GPa)
#
#
# Indices 1 2 3 4 5 6 
#
# 1 34.5382 14.7127 6.3529 0.0000 0.0000 0.0000
# 2 14.7127 34.5382 6.3529 0.0000 0.0000 0.0000
# 3 6.3529 6.3529 109.3896 0.0000 0.0000 0.0000
# 4 0.0000 0.0000 0.0000 11.2450 0.0000 0.0000
# 5 0.0000 0.0000 0.0000 0.0000 11.2450 0.0000
# 6 0.0000 0.0000 0.0000 0.0000 0.0000 -2.6434
#
#
#
# Elastic Compliance Matrix: (Units=1/GPa)
#
#
# Indices 1 2 3 4 5 6 
#
# 1 0.035527 -0.014914 -0.001197 0.000000 0.000000 0.000000
# 2 -0.014914 0.035527 -0.001197 0.000000 0.000000 0.000000
# 3 -0.001197 -0.001197 0.009281 0.000000 0.000000 0.000000
# 4 0.000000 0.000000 0.000000 0.088928 0.000000 0.000000
# 5 0.000000 0.000000 0.000000 0.000000 0.088928 0.000000
# 6 0.000000 0.000000 0.000000 0.000000 0.000000 -0.378302
#
#
# Mechanical properties :
#
#
# Convention : Reuss Voigt Hill
#
# Bulk Modulus (GPa) = 21.87309 25.92254 23.89782
# Shear Modulus (GPa) = -71.16845 14.03916 -28.56465
#
# Velocity S-wave (km/s) = -6.02905 2.67778 -3.81961
# Velocity P-wave (km/s) = 6.10689 4.77500 2.69198
#
# Compressibility (1/GPa) = 0.04571827
#
# Stress axis : x y z
#
# Youngs Moduli (GPa) = 28.14788 28.14788 107.75069
#
# Poissons Ratio (x) = 0.41979 0.12899
# Poissons Ratio (y) = 0.41979 0.12899
# Poissons Ratio (z) = 0.03370 0.03370
#
# Static dielectric constant tensor:
#      x y z
#    x 1.740720 0.000000 0.000000 
#    y 0.000000 1.740720 0.000000 
#    z 0.000000 0.000000 1.727440 
# 
# From -- ./inp_files/3851.got.cif
#   From: 2010.05.17/outbox.cif.g08.bks.cpg/sg128_2_cif.got.tgz:3851.got - 2010.05.20 12:07:25.
