data_PCOD9564802
_publ_section_title
;
Structure prediction by ZEFSAII (Michael W. Deem and Ramdas Pophale) SiO2 
 PCOD9564802
Probable space group: P 4/M N C
;
_chemical_formula_sum "Si O2"
_cell_formula_units_Z 96
_cell_length_a 24.534433
_cell_length_b 24.534433
_cell_length_c 8.417057
_cell_angle_alpha 90.000000
_cell_angle_beta 90.000000
_cell_angle_gamma 90.000000
_cell_volume 5066.549845
_symmetry_space_group_name_H-M "P 4/M N C"
_symmetry_group_IT_number 128
_symmetry_cell_setting 'tetragonal'
loop_
_space_group_symop_operation_xyz
x,y,z
-y,x,z
-x,-y,z
y,-x,z
1/2+x,1/2-y,1/2-z
1/2-x,1/2+y,1/2-z
1/2+y,1/2+x,1/2-z
1/2-y,1/2-x,1/2-z
-x,-y,-z
y,-x,-z
x,y,-z
-y,x,-z
1/2-x,1/2+y,1/2+z
1/2+x,1/2-y,1/2+z
1/2-y,1/2-x,1/2+z
1/2+y,1/2+x,1/2+z
loop_
_atom_site_type_symbol
_atom_site_label
_atom_site_fract_x
_atom_site_fract_y
_atom_site_fract_z
Si Si1 0.055222 0.358125 0.689768
Si Si2 0.567813 0.845667 0.810141
Si Si3 0.953082 0.927654 0.306543
Si Si4 0.223598 0.055847 0.810995
Si Si5 0.264109 0.431942 0.689048
Si Si6 0.359733 0.648073 0.190276
O O1 0.095572 0.404429 0.750000
O O2 0.059899 0.352930 0.500000
O O3 0.068309 0.299520 0.765754
O O4 0.991858 0.370044 0.727833
O O5 0.615299 0.884702 0.750000
O O6 0.569382 0.786021 0.731990
O O7 0.571726 0.839004 0.000000
O O8 0.953298 0.926975 0.500000
O O9 0.915126 0.880630 0.249168
O O10 0.015112 0.927310 0.255236
O O11 0.186845 0.105779 0.745316
O O12 0.214750 0.992704 0.750565
O O13 0.216091 0.054730 0.000000
O O14 0.270491 0.432509 0.500000
O O15 0.291497 0.375866 0.753122
O O16 0.357035 0.648871 0.000000
#
# Coordination Sequence:
#
# PCOD9564802 Si02
#       6
#    16  16  16  16  16  16
#     4  10  21  38  61  88 117 148 182 221 269 327
#     4  10  21  38  61  88 117 148 182 221 269 327
#     4   8  14  24  39  63  95 129 168 219 275 324
#     4  10  21  37  56  79 111 150 190 233 281 331
#     4  10  21  37  56  79 111 150 190 233 281 331
#     4  11  20  31  51  77 106 143 189 235 279 331
#
# _framework density 18.947806
#
# number of rings (size 3 to 8) (size 9 to 14) (size 15 to 20)
#    0.000    2.167    0.000    4.000    0.000    5.667 
#    0.000    2.500    0.000    0.000    0.000    7.000 
#    0.000    0.000    0.000    0.000    0.000    0.000 
#
# Total GULP energy -534828.052627 kJ/mol
# GULP energy per Si atom -5571.125548 kJ/mol
# Density = 1.890468 g / cm^3
# Si number density = 18.947806 Si / 1000 Ang^3
#
#
#
# Elastic Constant Matrix: (Units=GPa)
#
#
# Indices 1 2 3 4 5 6 
#
# 1 62.5405 77.4337 22.3004 0.0000 0.0000 0.0000
# 2 77.4337 62.5427 22.3017 0.0000 0.0000 0.0000
# 3 22.3004 22.3017 53.1107 0.0000 0.0000 0.0000
# 4 0.0000 0.0000 0.0000 26.2512 0.0000 0.0000
# 5 0.0000 0.0000 0.0000 0.0000 26.2512 0.0000
# 6 0.0000 0.0000 0.0000 0.0000 0.0000 42.0535
#
#
#
# Elastic Compliance Matrix: (Units=1/GPa)
#
#
# Indices 1 2 3 4 5 6 
#
# 1 -0.029451 0.037699 -0.003464 0.000000 0.000000 0.000000
# 2 0.037699 -0.029451 -0.003462 0.000000 0.000000 0.000000
# 3 -0.003464 -0.003462 0.021737 0.000000 0.000000 0.000000
# 4 0.000000 0.000000 0.000000 0.038093 0.000000 0.000000
# 5 0.000000 0.000000 0.000000 0.000000 0.038094 0.000000
# 6 0.000000 0.000000 0.000000 0.000000 0.000000 0.023779
#
#
# Mechanical properties :
#
#
# Convention : Reuss Voigt Hill
#
# Bulk Modulus (GPa) = 41.01797 46.91840 43.96818
# Shear Modulus (GPa) = 532.86262 22.65504 277.75883
#
# Velocity S-wave (km/s) = 16.78800 3.46158 12.12063
# Velocity P-wave (km/s) = 19.93684 6.38689 14.80321
#
# Compressibility (1/GPa) = 0.02437956
#
# Stress axis : x y z
#
# Youngs Moduli (GPa) = -33.95440 -33.95509 46.00461
#
# Poissons Ratio (x) = 1.28006 0.15935
# Poissons Ratio (y) = 1.28003 0.15929
# Poissons Ratio (z) = -0.11761 -0.11757
#
# Static dielectric constant tensor:
#      x y z
#    x 1.677020 0.000000 0.000000 
#    y 0.000000 1.677020 0.000000 
#    z 0.000000 0.000000 1.662510 
# 
# From -- ./inp_files/1447.got.cif
#   From: 2010.05.17/outbox.cif.g08.bks.cpg/sg128_1_cif.got.tgz:1447.got - 2010.05.20 12:07:25.
