data_PCOD9564653
_publ_section_title
;
Structure prediction by ZEFSAII (Michael W. Deem and Ramdas Pophale) SiO2 
 PCOD9564653
Probable space group: P 4/M N C
;
_chemical_formula_sum "Si O2"
_cell_formula_units_Z 116
_cell_length_a 27.832730
_cell_length_b 27.832730
_cell_length_c 8.725396
_cell_angle_alpha 90.000000
_cell_angle_beta 90.000000
_cell_angle_gamma 90.000000
_cell_volume 6759.222763
_symmetry_space_group_name_H-M "P 4/M N C"
_symmetry_group_IT_number 128
_symmetry_cell_setting 'tetragonal'
loop_
_space_group_symop_operation_xyz
x,y,z
-y,x,z
-x,-y,z
y,-x,z
1/2+x,1/2-y,1/2-z
1/2-x,1/2+y,1/2-z
1/2+y,1/2+x,1/2-z
1/2-y,1/2-x,1/2-z
-x,-y,-z
y,-x,-z
x,y,-z
-y,x,-z
1/2-x,1/2+y,1/2+z
1/2+x,1/2-y,1/2+z
1/2-y,1/2-x,1/2+z
1/2+y,1/2+x,1/2+z
loop_
_atom_site_type_symbol
_atom_site_label
_atom_site_fract_x
_atom_site_fract_y
_atom_site_fract_z
Si Si1 0.410455 0.338494 0.316406
Si Si2 0.000000 0.000000 0.781365
Si Si3 0.056929 0.631958 0.682822
Si Si4 0.129410 0.445551 0.816017
Si Si5 0.892919 0.002262 0.318629
Si Si6 0.329107 0.402274 0.181087
Si Si7 0.234901 0.553716 0.316517
Si Si8 0.941139 0.733312 0.183388
O O1 0.415827 0.342712 0.500000
O O2 0.453829 0.367253 0.235902
O O3 0.360705 0.361684 0.262934
O O4 0.416941 0.282510 0.274568
O O5 0.988885 0.942052 0.771393
O O6 0.092698 0.592698 0.750000
O O7 0.058779 0.630264 0.500000
O O8 0.069589 0.685601 0.738466
O O9 0.001455 0.622970 0.730694
O O10 0.087777 0.412224 0.750000
O O11 0.181244 0.429527 0.752176
O O12 0.129760 0.443267 0.000000
O O13 0.905622 0.998457 0.500000
O O14 0.857706 0.047374 0.297356
O O15 0.276301 0.409743 0.248969
O O16 0.326919 0.392924 0.000000
O O17 0.228718 0.556282 0.500000
O O18 0.242995 0.497400 0.277138
O O19 0.937103 0.732254 0.000000
#
# Coordination Sequence:
#
# PCOD9564653 Si02
#       8
#    16   4  16  16  16  16  16  16
#     4  11  22  35  51  74 103 136 181 234 286 334
#     4  12  21  36  49  66 101 148 189 222 285 352
#     4  10  21  36  58  87 119 152 186 220 262 317
#     4  10  21  37  58  88 120 154 188 221 263 318
#     4  11  21  33  49  67  96 138 182 227 277 338
#     4  11  22  34  51  75 103 140 184 232 283 337
#     4   9  19  35  55  78 107 142 184 231 278 327
#     4  10  19  35  57  80 108 144 185 234 280 326
#
# _framework density 17.161736000000001
#
# number of rings (size 3 to 8) (size 9 to 14) (size 15 to 20)
#    0.000    1.655    2.759    2.690    0.000    4.138 
#    0.000    1.724    0.000    0.828    0.000    1.931 
#    0.000    0.000    0.000    0.000    0.000    0.000 
#
# Total GULP energy -646859.963083 kJ/mol
# GULP energy per Si atom -5576.378992 kJ/mol
# Density = 1.712267 g / cm^3
# Si number density = 17.161736 Si / 1000 Ang^3
#
#
#
# Elastic Constant Matrix: (Units=GPa)
#
#
# Indices 1 2 3 4 5 6 
#
# 1 98.0309 64.2023 30.4229 0.0000 0.0000 0.0000
# 2 64.2023 98.0214 30.4210 0.0000 0.0000 0.0000
# 3 30.4229 30.4210 29.7314 0.0000 0.0000 0.0000
# 4 0.0000 0.0000 0.0000 20.7805 0.0000 0.0000
# 5 0.0000 0.0000 0.0000 0.0000 20.7809 0.0000
# 6 0.0000 0.0000 0.0000 0.0000 0.0000 24.7803
#
#
#
# Elastic Compliance Matrix: (Units=1/GPa)
#
#
# Indices 1 2 3 4 5 6 
#
# 1 0.019783 -0.009781 -0.010235 0.000000 0.000000 0.000000
# 2 -0.009781 0.019785 -0.010235 0.000000 0.000000 0.000000
# 3 -0.010235 -0.010235 0.054580 0.000000 0.000000 0.000000
# 4 0.000000 0.000000 0.000000 0.048122 0.000000 0.000000
# 5 0.000000 0.000000 0.000000 0.000000 0.048121 0.000000
# 6 0.000000 0.000000 0.000000 0.000000 0.000000 0.040355
#
#
# Mechanical properties :
#
#
# Convention : Reuss Voigt Hill
#
# Bulk Modulus (GPa) = 29.72185 52.87514 41.29849
# Shear Modulus (GPa) = 16.53090 19.98418 18.25754
#
# Velocity S-wave (km/s) = 3.10698 3.41612 3.26521
# Velocity P-wave (km/s) = 5.49794 6.81444 6.19129
#
# Compressibility (1/GPa) = 0.03364528
#
# Stress axis : x y z
#
# Youngs Moduli (GPa) = 50.54831 50.54406 18.32159
#
# Poissons Ratio (x) = 0.49437 0.18753
# Poissons Ratio (y) = 0.49441 0.18752
# Poissons Ratio (z) = 0.51738 0.51732
#
# Static dielectric constant tensor:
#      x y z
#    x 1.562110 0.000000 0.000000 
#    y 0.000000 1.562110 0.000000 
#    z 0.000000 0.000000 1.592000 
# 
# From -- ./inp_files/1766.got.cif
#   From: 2010.05.17/outbox.cif.g08.bks.cpg/sg128_1_cif.got.tgz:1766.got - 2010.05.20 12:07:25.
