data_PCOD9564700
_publ_section_title
;
Structure prediction by ZEFSAII (Michael W. Deem and Ramdas Pophale) SiO2 
 PCOD9564700
Probable space group: P 4/M N C
;
_chemical_formula_sum "Si O2"
_cell_formula_units_Z 96
_cell_length_a 25.828550
_cell_length_b 25.828550
_cell_length_c 8.653060
_cell_angle_alpha 90.000000
_cell_angle_beta 90.000000
_cell_angle_gamma 90.000000
_cell_volume 5772.577426
_symmetry_space_group_name_H-M "P 4/M N C"
_symmetry_group_IT_number 128
_symmetry_cell_setting 'tetragonal'
loop_
_space_group_symop_operation_xyz
x,y,z
-y,x,z
-x,-y,z
y,-x,z
1/2+x,1/2-y,1/2-z
1/2-x,1/2+y,1/2-z
1/2+y,1/2+x,1/2-z
1/2-y,1/2-x,1/2-z
-x,-y,-z
y,-x,-z
x,y,-z
-y,x,-z
1/2-x,1/2+y,1/2+z
1/2+x,1/2-y,1/2+z
1/2-y,1/2-x,1/2+z
1/2+y,1/2+x,1/2+z
loop_
_atom_site_type_symbol
_atom_site_label
_atom_site_fract_x
_atom_site_fract_y
_atom_site_fract_z
Si Si1 0.390355 0.808824 0.186058
Si Si2 0.886653 0.807723 0.816344
Si Si3 0.502552 0.696521 0.316614
Si Si4 0.494591 0.188933 0.817662
Si Si5 0.887016 0.306092 0.816624
Si Si6 0.107968 0.810191 0.316314
O O1 0.346678 0.846678 0.250000
O O2 0.383951 0.751292 0.255795
O O3 0.448041 0.829807 0.227577
O O4 0.387989 0.805343 0.000000
O O5 0.845941 0.844381 0.732720
O O6 0.945866 0.827100 0.790651
O O7 0.877040 0.807881 0.000000
O O8 0.506818 0.708088 0.500000
O O9 0.502577 0.749919 0.220862
O O10 0.554700 0.669005 0.260851
O O11 0.443391 0.170967 0.729187
O O12 0.487088 0.181122 0.000000
O O13 0.842327 0.342327 0.750000
O O14 0.883769 0.248322 0.745748
O O15 0.883000 0.302255 0.000000
O O16 0.102330 0.808637 0.500000
#
# Coordination Sequence:
#
# PCOD9564700 Si02
#       6
#    16  16  16  16  16  16
#     4  10  20  33  51  75 103 133 166 203 245 293
#     4  10  20  34  52  74 101 132 167 204 245 293
#     4   9  17  31  51  72  95 127 166 204 241 286
#     4   9  17  31  50  72  97 127 165 204 241 286
#     4  11  21  34  52  74 101 131 165 203 246 294
#     4  11  21  33  51  75 103 132 164 202 246 294
#
# _framework density 16.630352999999999
#
# number of rings (size 3 to 8) (size 9 to 14) (size 15 to 20)
#    0.000    2.000    0.000    7.000    0.000    4.667 
#    0.000    3.333    0.000    1.000    0.000    7.000 
#    0.000    0.000    0.000    0.000    0.000    0.000 
#
# Total GULP energy -535153.365241 kJ/mol
# GULP energy per Si atom -5574.514221 kJ/mol
# Density = 1.659250 g / cm^3
# Si number density = 16.630353 Si / 1000 Ang^3
#
#
#
# Elastic Constant Matrix: (Units=GPa)
#
#
# Indices 1 2 3 4 5 6 
#
# 1 90.0307 55.9283 36.9986 0.0000 0.0000 0.0000
# 2 55.9283 90.0307 36.9986 0.0000 0.0000 0.0000
# 3 36.9986 36.9986 85.5505 0.0000 0.0000 0.0000
# 4 0.0000 0.0000 0.0000 20.0214 0.0000 0.0000
# 5 0.0000 0.0000 0.0000 0.0000 20.0214 0.0000
# 6 0.0000 0.0000 0.0000 0.0000 0.0000 -4.0301
#
#
#
# Elastic Compliance Matrix: (Units=1/GPa)
#
#
# Indices 1 2 3 4 5 6 
#
# 1 0.019049 -0.010274 -0.003795 0.000000 0.000000 0.000000
# 2 -0.010274 0.019049 -0.003795 0.000000 0.000000 0.000000
# 3 -0.003795 -0.003795 0.014972 0.000000 0.000000 0.000000
# 4 0.000000 0.000000 0.000000 0.049947 0.000000 0.000000
# 5 0.000000 0.000000 0.000000 0.000000 0.049947 0.000000
# 6 0.000000 0.000000 0.000000 0.000000 0.000000 -0.248131
#
#
# Mechanical properties :
#
#
# Convention : Reuss Voigt Hill
#
# Bulk Modulus (GPa) = 57.66445 58.38478 58.02461
# Shear Modulus (GPa) = -93.18261 16.24827 -38.46717
#
# Velocity S-wave (km/s) = -7.49355 3.12913 -4.81466
# Velocity P-wave (km/s) = 6.33416 6.94542 2.01461
#
# Compressibility (1/GPa) = 0.01734171
#
# Stress axis : x y z
#
# Youngs Moduli (GPa) = 52.49520 52.49520 66.79319
#
# Poissons Ratio (x) = 0.53934 0.25349
# Poissons Ratio (y) = 0.53934 0.25349
# Poissons Ratio (z) = 0.19922 0.19922
#
# Static dielectric constant tensor:
#      x y z
#    x 1.565920 0.000000 0.000000 
#    y 0.000000 1.565920 0.000000 
#    z 0.000000 0.000000 1.553960 
# 
# From -- ./inp_files/1521.got.cif
#   From: 2010.05.17/outbox.cif.g08.bks.cpg/sg128_1_cif.got.tgz:1521.got - 2010.05.20 12:07:25.
