data_PCOD9564854
_publ_section_title
;
Structure prediction by ZEFSAII (Michael W. Deem and Ramdas Pophale) SiO2 
 PCOD9564854
Probable space group: P 4/M N C
;
_chemical_formula_sum "Si O2"
_cell_formula_units_Z 48
_cell_length_a 10.490800
_cell_length_b 10.490800
_cell_length_c 18.259988
_cell_angle_alpha 90.000000
_cell_angle_beta 90.000000
_cell_angle_gamma 90.000000
_cell_volume 2009.637393
_symmetry_space_group_name_H-M "P 4/M N C"
_symmetry_group_IT_number 128
_symmetry_cell_setting 'tetragonal'
loop_
_space_group_symop_operation_xyz
x,y,z
-y,x,z
-x,-y,z
y,-x,z
1/2+x,1/2-y,1/2-z
1/2-x,1/2+y,1/2-z
1/2+y,1/2+x,1/2-z
1/2-y,1/2-x,1/2-z
-x,-y,-z
y,-x,-z
x,y,-z
-y,x,-z
1/2-x,1/2+y,1/2+z
1/2+x,1/2-y,1/2+z
1/2-y,1/2-x,1/2+z
1/2+y,1/2+x,1/2+z
loop_
_atom_site_type_symbol
_atom_site_label
_atom_site_fract_x
_atom_site_fract_y
_atom_site_fract_z
Si Si1 0.607312 0.679223 0.770564
Si Si2 0.794908 0.250212 0.586246
Si Si3 0.862520 0.529028 0.587669
O O1 0.457567 0.670392 0.748495
O O2 0.700221 0.799779 0.750000
O O3 0.601340 0.694798 0.859175
O O4 0.821515 0.228532 0.500000
O O5 0.781417 0.402265 0.596536
O O6 0.662117 0.191439 0.611345
O O7 0.877815 0.545396 0.500000
O O8 0.000000 0.500000 0.620905
#
# Coordination Sequence:
#
# PCOD9564854 Si02
#       3
#    16  16  16
#     4  11  27  48  71 102 137 180 233 281 338 414
#     4  10  21  39  67 100 134 173 221 280 339 396
#     4   9  18  33  57  93 131 166 210 265 330 400
#
# _framework density 23.884905
#
# number of rings (size 3 to 8) (size 9 to 14) (size 15 to 20)
#    0.000    2.000    0.000    2.000    4.667    5.333 
#    0.000    5.000    0.000    0.000    0.000    0.000 
#    0.000    0.000    0.000    0.000    0.000    0.000 
#
# Total GULP energy -267951.202303 kJ/mol
# GULP energy per Si atom -5582.316715 kJ/mol
# Density = 2.383054 g / cm^3
# Si number density = 23.884905 Si / 1000 Ang^3
#
#
#
# Elastic Constant Matrix: (Units=GPa)
#
#
# Indices 1 2 3 4 5 6 
#
# 1 83.3178 43.1978 9.1707 0.0000 0.0000 0.0000
# 2 43.1978 83.3178 9.1707 0.0000 0.0000 0.0000
# 3 9.1707 9.1707 89.7940 0.0000 0.0000 0.0000
# 4 0.0000 0.0000 0.0000 20.9256 0.0000 0.0000
# 5 0.0000 0.0000 0.0000 0.0000 20.9256 0.0000
# 6 0.0000 0.0000 0.0000 0.0000 0.0000 41.4924
#
#
#
# Elastic Compliance Matrix: (Units=1/GPa)
#
#
# Indices 1 2 3 4 5 6 
#
# 1 0.016474 -0.008451 -0.000819 0.000000 0.000000 0.000000
# 2 -0.008451 0.016474 -0.000819 0.000000 0.000000 0.000000
# 3 -0.000819 -0.000819 0.011304 0.000000 0.000000 0.000000
# 4 0.000000 0.000000 0.000000 0.047788 0.000000 0.000000
# 5 0.000000 0.000000 0.000000 0.000000 0.047788 0.000000
# 6 0.000000 0.000000 0.000000 0.000000 0.000000 0.024101
#
#
# Mechanical properties :
#
#
# Convention : Reuss Voigt Hill
#
# Bulk Modulus (GPa) = 41.54149 42.16757 41.85453
# Shear Modulus (GPa) = 26.02358 29.66142 27.84250
#
# Velocity S-wave (km/s) = 3.30440 3.52781 3.41793
# Velocity P-wave (km/s) = 5.65587 5.85549 5.75654
#
# Compressibility (1/GPa) = 0.02407232
#
# Stress axis : x y z
#
# Youngs Moduli (GPa) = 60.70141 60.70141 88.46445
#
# Poissons Ratio (x) = 0.51300 0.07249
# Poissons Ratio (y) = 0.51300 0.07249
# Poissons Ratio (z) = 0.04974 0.04974
#
# Static dielectric constant tensor:
#      x y z
#    x 1.950680 0.000000 0.000000 
#    y 0.000000 1.950680 0.000000 
#    z 0.000000 0.000000 2.001320 
# 
# From -- ./inp_files/4319.got.cif
#   From: 2010.05.17/outbox.cif.g08.bks.cpg/sg128_3_cif.got.tgz:4319.got - 2010.05.20 12:07:25.
