data_PCOD9564235
_publ_section_title
;
Structure prediction by ZEFSAII (Michael W. Deem and Ramdas Pophale) SiO2 
 PCOD9564235
Probable space group: P 4/M B M
;
_chemical_formula_sum "Si O2"
_cell_formula_units_Z 104
_cell_length_a 25.838988
_cell_length_b 25.838988
_cell_length_c 7.471357
_cell_angle_alpha 90.000000
_cell_angle_beta 90.000000
_cell_angle_gamma 90.000000
_cell_volume 4988.276163
_symmetry_space_group_name_H-M "P 4/M B M"
_symmetry_group_IT_number 127
_symmetry_cell_setting 'tetragonal'
loop_
_space_group_symop_operation_xyz
x,y,z
-y,x,z
-x,-y,z
y,-x,z
1/2+x,1/2-y,-z
1/2-x,1/2+y,-z
1/2+y,1/2+x,-z
1/2-y,1/2-x,-z
-x,-y,-z
y,-x,-z
x,y,-z
-y,x,-z
1/2-x,1/2+y,z
1/2+x,1/2-y,z
1/2-y,1/2-x,z
1/2+y,1/2+x,z
loop_
_atom_site_type_symbol
_atom_site_label
_atom_site_fract_x
_atom_site_fract_y
_atom_site_fract_z
Si Si1 0.667481 0.751654 0.283736
Si Si2 0.165363 0.860425 0.296538
Si Si3 0.783989 0.632300 0.783192
Si Si4 0.221111 0.484190 0.216515
Si Si5 0.417938 0.161207 0.212436
Si Si6 0.022421 0.158811 0.707561
Si Si7 0.086050 0.013259 0.000000
O O1 0.670686 0.747455 0.500000
O O2 0.721854 0.778147 0.223072
O O3 0.651808 0.695021 0.212843
O O4 0.623409 0.792758 0.237724
O O5 0.145276 0.861080 0.500000
O O6 0.227764 0.857100 0.296387
O O7 0.153603 0.917712 0.223675
O O8 0.826481 0.673520 0.726552
O O9 0.796987 0.573330 0.734777
O O10 0.779099 0.634873 0.000000
O O11 0.182661 0.528223 0.284471
O O12 0.280396 0.490953 0.278468
O O13 0.223105 0.486942 0.000000
O O14 0.390197 0.109804 0.286061
O O15 0.424756 0.153242 0.000000
O O16 0.020311 0.143800 0.500000
O O17 0.986190 0.123213 0.827896
O O18 0.055938 0.958349 0.000000
#
# Coordination Sequence:
#
# PCOD9564235 Si02
#       7
#    16  16  16  16  16  16   8
#     4   9  17  29  44  66 101 137 168 210 264 324
#     4   9  18  31  49  75 105 136 168 210 267 330
#     4   9  17  28  46  72 100 135 177 220 269 326
#     4   9  17  33  54  76 108 145 182 229 279 326
#     4   9  18  31  47  70 100 138 182 221 264 321
#     4  10  21  39  62  87 112 142 185 231 278 331
#     4  11  26  46  64  84 112 146 186 233 284 330
#
# _framework density 20.848886
#
# number of rings (size 3 to 8) (size 9 to 14) (size 15 to 20)
#    0.000    2.692    0.769    0.462    1.077    4.000 
#    0.000    3.846    0.000    0.462    0.000    3.231 
#    0.000    0.000    0.000   11.538    0.000   12.000 
#
# Total GULP energy -580281.471225 kJ/mol
# GULP energy per Si atom -5579.629531 kJ/mol
# Density = 2.080143 g / cm^3
# Si number density = 20.848886 Si / 1000 Ang^3
#
#
#
# Elastic Constant Matrix: (Units=GPa)
#
#
# Indices 1 2 3 4 5 6 
#
# 1 31.1180 1.2731 3.2160 0.0000 0.0000 0.0000
# 2 1.2731 31.1180 3.2160 0.0000 0.0000 0.0000
# 3 3.2160 3.2160 79.1976 0.0000 0.0000 0.0000
# 4 0.0000 0.0000 0.0000 22.9000 0.0000 0.0000
# 5 0.0000 0.0000 0.0000 0.0000 22.9000 0.0000
# 6 0.0000 0.0000 0.0000 0.0000 0.0000 24.0539
#
#
#
# Elastic Compliance Matrix: (Units=1/GPa)
#
#
# Indices 1 2 3 4 5 6 
#
# 1 0.032315 -0.001191 -0.001264 0.000000 0.000000 0.000000
# 2 -0.001191 0.032315 -0.001264 0.000000 0.000000 0.000000
# 3 -0.001264 -0.001264 0.012729 0.000000 0.000000 0.000000
# 4 0.000000 0.000000 0.000000 0.043668 0.000000 0.000000
# 5 0.000000 0.000000 0.000000 0.000000 0.043668 0.000000
# 6 0.000000 0.000000 0.000000 0.000000 0.000000 0.041573
#
#
# Mechanical properties :
#
#
# Convention : Reuss Voigt Hill
#
# Bulk Modulus (GPa) = 14.30182 17.42709 15.86445
# Shear Modulus (GPa) = 21.09577 22.88602 21.99089
#
# Velocity S-wave (km/s) = 3.18440 3.31676 3.25125
# Velocity P-wave (km/s) = 4.51610 4.80050 4.66047
#
# Compressibility (1/GPa) = 0.06992119
#
# Stress axis : x y z
#
# Youngs Moduli (GPa) = 30.94526 30.94526 78.55899
#
# Poissons Ratio (x) = 0.03687 0.09929
# Poissons Ratio (y) = 0.03687 0.09929
# Poissons Ratio (z) = 0.03911 0.03911
#
# Static dielectric constant tensor:
#      x y z
#    x 1.753440 0.000000 0.000000 
#    y 0.000000 1.753440 0.000000 
#    z 0.000000 0.000000 1.791120 
# 
# From -- ./inp_files/2271.got.cif
#   From: 2010.05.17/outbox.cif.g08.bks.cpg/sg127_2_cif.got.tgz:2271.got - 2010.05.20 12:03:00.
