data_PCOD9564652
_publ_section_title
;
Structure prediction by ZEFSAII (Michael W. Deem and Ramdas Pophale) SiO2 
 PCOD9564652
Probable space group: P 4/M N C
;
_chemical_formula_sum "Si O2"
_cell_formula_units_Z 72
_cell_length_a 13.955717
_cell_length_b 13.955717
_cell_length_c 20.539864
_cell_angle_alpha 90.000000
_cell_angle_beta 90.000000
_cell_angle_gamma 90.000000
_cell_volume 4000.385752
_symmetry_space_group_name_H-M "P 4/M N C"
_symmetry_group_IT_number 128
_symmetry_cell_setting 'tetragonal'
loop_
_space_group_symop_operation_xyz
x,y,z
-y,x,z
-x,-y,z
y,-x,z
1/2+x,1/2-y,1/2-z
1/2-x,1/2+y,1/2-z
1/2+y,1/2+x,1/2-z
1/2-y,1/2-x,1/2-z
-x,-y,-z
y,-x,-z
x,y,-z
-y,x,-z
1/2-x,1/2+y,1/2+z
1/2+x,1/2-y,1/2+z
1/2-y,1/2-x,1/2+z
1/2+y,1/2+x,1/2+z
loop_
_atom_site_type_symbol
_atom_site_label
_atom_site_fract_x
_atom_site_fract_y
_atom_site_fract_z
Si Si1 0.083600 0.421272 0.571887
Si Si2 0.444756 0.143128 0.313950
Si Si3 0.155785 0.027451 0.253122
Si Si4 0.086677 0.863471 0.500000
Si Si5 0.440896 0.236214 0.884639
O O1 0.133232 0.418657 0.500000
O O2 0.129278 0.462773 0.638886
O O3 0.000000 0.500000 0.564548
O O4 0.032459 0.320016 0.585722
O O5 0.425532 0.074469 0.250000
O O6 0.451388 0.250402 0.288380
O O7 0.349704 0.123931 0.356439
O O8 0.192863 0.029374 0.327189
O O9 0.074871 0.106981 0.241271
O O10 0.125936 0.970567 0.500000
O O11 0.111810 0.800222 0.562244
#
# Coordination Sequence:
#
# PCOD9564652 Si02
#       5
#    16  16  16   8  16
#     4   9  17  32  56  81 114 148 177 227 290 330
#     4   9  20  36  56  85 111 142 193 244 282 328
#     4  10  21  39  56  75 110 152 185 228 294 346
#     4  11  22  36  53  80 122 157 176 213 279 353
#     4  10  19  35  56  84 110 143 188 227 272 341
#
# _framework density 17.998263999999999
#
# number of rings (size 3 to 8) (size 9 to 14) (size 15 to 20)
#    0.000    2.333    1.111    1.333    1.556   12.000 
#   16.000    0.000    0.000    1.333    0.000    1.556 
#    0.000    0.000    0.000    0.000    0.000    0.000 
#
# Total GULP energy -400807.076630 kJ/mol
# GULP energy per Si atom -5566.764953 kJ/mol
# Density = 1.795730 g / cm^3
# Si number density = 17.998264 Si / 1000 Ang^3
#
#
#
# Elastic Constant Matrix: (Units=GPa)
#
#
# Indices 1 2 3 4 5 6 
#
# 1 78.0224 24.3804 30.9752 0.0000 0.0000 0.0000
# 2 24.3804 78.0234 30.9750 0.0000 0.0000 0.0000
# 3 30.9752 30.9750 109.1254 0.0000 0.0000 0.0000
# 4 0.0000 0.0000 0.0000 10.3438 0.0000 0.0000
# 5 0.0000 0.0000 0.0000 0.0000 10.3436 0.0000
# 6 0.0000 0.0000 0.0000 0.0000 0.0000 10.5958
#
#
#
# Elastic Compliance Matrix: (Units=1/GPa)
#
#
# Indices 1 2 3 4 5 6 
#
# 1 0.015216 -0.003426 -0.003347 0.000000 0.000000 0.000000
# 2 -0.003426 0.015216 -0.003346 0.000000 0.000000 0.000000
# 3 -0.003347 -0.003346 0.011064 0.000000 0.000000 0.000000
# 4 0.000000 0.000000 0.000000 0.096676 0.000000 0.000000
# 5 0.000000 0.000000 0.000000 0.000000 0.096678 0.000000
# 6 0.000000 0.000000 0.000000 0.000000 0.000000 0.094377
#
#
# Mechanical properties :
#
#
# Convention : Reuss Voigt Hill
#
# Bulk Modulus (GPa) = 47.04304 48.64807 47.84555
# Shear Modulus (GPa) = 14.02325 18.17934 16.10130
#
# Velocity S-wave (km/s) = 2.79434 3.18159 2.99424
# Velocity P-wave (km/s) = 6.05024 6.37061 6.21249
#
# Compressibility (1/GPa) = 0.02125713
#
# Stress axis : x y z
#
# Youngs Moduli (GPa) = 65.72029 65.72129 90.38662
#
# Poissons Ratio (x) = 0.22516 0.30249
# Poissons Ratio (y) = 0.22516 0.30248
# Poissons Ratio (z) = 0.21994 0.21994
#
# Static dielectric constant tensor:
#      x y z
#    x 1.608140 0.000000 0.000000 
#    y 0.000000 1.608140 0.000000 
#    z 0.000000 0.000000 1.716790 
# 
# From -- ./inp_files/4542.got.cif
#   From: 2010.05.17/outbox.cif.g08.bks.cpg/sg128_3_cif.got.tgz:4542.got - 2010.05.20 12:07:25.
