data_PCOD9564155
_publ_section_title
;
Structure prediction by ZEFSAII (Michael W. Deem and Ramdas Pophale) SiO2 
 PCOD9564155
Probable space group: P 4/M B M
;
_chemical_formula_sum "Si O2"
_cell_formula_units_Z 96
_cell_length_a 19.568142
_cell_length_b 19.568142
_cell_length_c 14.067743
_cell_angle_alpha 90.000000
_cell_angle_beta 90.000000
_cell_angle_gamma 90.000000
_cell_volume 5386.710159
_symmetry_space_group_name_H-M "P 4/M B M"
_symmetry_group_IT_number 127
_symmetry_cell_setting 'tetragonal'
loop_
_space_group_symop_operation_xyz
x,y,z
-y,x,z
-x,-y,z
y,-x,z
1/2+x,1/2-y,-z
1/2-x,1/2+y,-z
1/2+y,1/2+x,-z
1/2-y,1/2-x,-z
-x,-y,-z
y,-x,-z
x,y,-z
-y,x,-z
1/2-x,1/2+y,z
1/2+x,1/2-y,z
1/2-y,1/2-x,z
1/2+y,1/2+x,z
loop_
_atom_site_type_symbol
_atom_site_label
_atom_site_fract_x
_atom_site_fract_y
_atom_site_fract_z
Si Si1 0.677081 0.711971 0.612886
Si Si2 0.533015 0.739958 0.711796
Si Si3 0.614690 0.505655 0.393397
Si Si4 0.379727 0.235672 0.888635
Si Si5 0.605519 0.220591 0.302661
Si Si6 0.767674 0.151123 0.895091
O O1 0.672475 0.711836 0.500000
O O2 0.727972 0.772029 0.645870
O O3 0.603407 0.728958 0.654761
O O4 0.716922 0.643342 0.643468
O O5 0.497208 0.666704 0.693511
O O6 0.557931 0.761715 0.815832
O O7 0.473721 0.789393 0.671526
O O8 0.562552 0.568547 0.389151
O O9 0.647121 0.506966 0.500000
O O10 0.327379 0.172622 0.869760
O O11 0.336328 0.305757 0.874502
O O12 0.398442 0.232078 0.000000
O O13 0.654597 0.154597 0.313842
O O14 0.605402 0.244561 0.192353
O O15 0.709753 0.209753 0.900213
O O16 0.772904 0.119053 0.000000
#
# Coordination Sequence:
#
# PCOD9564155 Si02
#       6
#    16  16  16  16  16  16
#     4  10  21  37  55  75 102 137 178 219 258 309
#     4  12  20  29  54  80 101 132 173 220 258 311
#     4   9  19  34  49  69 102 140 175 211 256 314
#     4   9  18  33  53  76 101 132 174 219 257 300
#     4  10  21  35  51  79 113 138 164 211 272 315
#     4   8  14  29  52  72  96 131 166 203 249 301
#
# _framework density 17.821638
#
# number of rings (size 3 to 8) (size 9 to 14) (size 15 to 20)
#    0.000    2.333    1.667    3.500    0.000    3.333 
#    0.000    0.000    0.000    2.000    0.000    3.500 
#    0.000    0.000    0.000    0.000    0.000    0.000 
#
# Total GULP energy -534777.850419 kJ/mol
# GULP energy per Si atom -5570.602609 kJ/mol
# Density = 1.778108 g / cm^3
# Si number density = 17.821638 Si / 1000 Ang^3
#
#
#
# Elastic Constant Matrix: (Units=GPa)
#
#
# Indices 1 2 3 4 5 6 
#
# 1 75.1333 17.6780 25.7447 0.0000 0.0000 0.0000
# 2 17.6780 75.1333 25.7447 0.0000 0.0000 0.0000
# 3 25.7447 25.7447 51.0984 0.0000 0.0000 0.0000
# 4 0.0000 0.0000 0.0000 18.9063 0.0000 0.0000
# 5 0.0000 0.0000 0.0000 0.0000 18.9063 0.0000
# 6 0.0000 0.0000 0.0000 0.0000 0.0000 12.2838
#
#
#
# Elastic Compliance Matrix: (Units=1/GPa)
#
#
# Indices 1 2 3 4 5 6 
#
# 1 0.016180 -0.001225 -0.007534 0.000000 0.000000 0.000000
# 2 -0.001225 0.016180 -0.007534 0.000000 0.000000 0.000000
# 3 -0.007534 -0.007534 0.027162 0.000000 0.000000 0.000000
# 4 0.000000 0.000000 0.000000 0.052892 0.000000 0.000000
# 5 0.000000 0.000000 0.000000 0.000000 0.052892 0.000000
# 6 0.000000 0.000000 0.000000 0.000000 0.000000 0.081408
#
#
# Mechanical properties :
#
#
# Convention : Reuss Voigt Hill
#
# Bulk Modulus (GPa) = 37.12871 37.74441 37.43656
# Shear Modulus (GPa) = 17.34423 18.83246 18.08835
#
# Velocity S-wave (km/s) = 3.12302 3.25425 3.18931
# Velocity P-wave (km/s) = 5.82092 5.94518 5.88337
#
# Compressibility (1/GPa) = 0.02693334
#
# Stress axis : x y z
#
# Youngs Moduli (GPa) = 61.80598 61.80598 36.81584
#
# Poissons Ratio (x) = 0.07572 0.27739
# Poissons Ratio (y) = 0.07572 0.27739
# Poissons Ratio (z) = 0.46568 0.46568
#
# Static dielectric constant tensor:
#      x y z
#    x 1.642550 0.000000 0.000000 
#    y 0.000000 1.642550 0.000000 
#    z 0.000000 0.000000 1.658210 
# 
# From -- ./inp_files/4539.got.cif
#   From: 2010.05.17/outbox.cif.g08.bks.cpg/sg127_3_cif.got.tgz:4539.got - 2010.05.20 12:03:00.
