data_PCOD9564682
_publ_section_title
;
Structure prediction by ZEFSAII (Michael W. Deem and Ramdas Pophale) SiO2 
 PCOD9564682
Probable space group: P 4/M N C
;
_chemical_formula_sum "Si O2"
_cell_formula_units_Z 96
_cell_length_a 18.341668
_cell_length_b 18.341668
_cell_length_c 14.677471
_cell_angle_alpha 90.000000
_cell_angle_beta 90.000000
_cell_angle_gamma 90.000000
_cell_volume 4937.747606
_symmetry_space_group_name_H-M "P 4/M N C"
_symmetry_group_IT_number 128
_symmetry_cell_setting 'tetragonal'
loop_
_space_group_symop_operation_xyz
x,y,z
-y,x,z
-x,-y,z
y,-x,z
1/2+x,1/2-y,1/2-z
1/2-x,1/2+y,1/2-z
1/2+y,1/2+x,1/2-z
1/2-y,1/2-x,1/2-z
-x,-y,-z
y,-x,-z
x,y,-z
-y,x,-z
1/2-x,1/2+y,1/2+z
1/2+x,1/2-y,1/2+z
1/2-y,1/2-x,1/2+z
1/2+y,1/2+x,1/2+z
loop_
_atom_site_type_symbol
_atom_site_label
_atom_site_fract_x
_atom_site_fract_y
_atom_site_fract_z
Si Si1 0.989696 0.877724 0.600257
Si Si2 0.083281 0.668034 0.605149
Si Si3 0.553511 0.715643 0.751931
Si Si4 0.047973 0.430618 0.642225
Si Si5 0.980652 0.322958 0.099678
Si Si6 0.897489 0.931332 0.894678
O O1 0.986633 0.842927 0.500000
O O2 0.925026 0.935921 0.605962
O O3 0.995649 0.823305 0.682687
O O4 0.093407 0.690918 0.500000
O O5 0.131236 0.594290 0.618931
O O6 0.098002 0.731411 0.678732
O O7 0.999902 0.639640 0.619418
O O8 0.513763 0.766407 0.679642
O O9 0.593480 0.656536 0.686395
O O10 0.060114 0.439887 0.750000
O O11 0.125445 0.448780 0.599798
O O12 0.000000 0.500000 0.611052
O O13 0.972359 0.289595 0.000000
O O14 0.902961 0.019617 0.884531
O O15 0.875657 0.915061 0.000000
#
# Coordination Sequence:
#
# PCOD9564682 Si02
#       6
#    16  16  16  16  16  16
#     4   9  19  36  56  79 105 128 155 202 264 320
#     4  10  20  32  47  72 107 142 175 212 253 294
#     4  12  19  28  49  80 106 128 161 206 250 303
#     4   9  15  29  49  68  95 135 174 211 255 292
#     4  10  20  32  47  72 107 142 175 212 253 294
#     4   9  19  36  56  79 105 128 155 202 264 320
#
# _framework density 19.442063999999998
#
# number of rings (size 3 to 8) (size 9 to 14) (size 15 to 20)
#    0.000    2.167    1.667    4.000    0.000    3.333 
#    0.000    0.000    0.000    0.000   34.667    0.000 
#    0.000    0.000    0.000    0.000    0.000    0.000 
#
# Total GULP energy -534922.058561 kJ/mol
# GULP energy per Si atom -5572.104777 kJ/mol
# Density = 1.939781 g / cm^3
# Si number density = 19.442064 Si / 1000 Ang^3
#
#
#
# Elastic Constant Matrix: (Units=GPa)
#
#
# Indices 1 2 3 4 5 6 
#
# 1 53.0580 -1.6712 39.8123 0.0000 0.0000 0.0000
# 2 -1.6712 53.0580 39.8122 0.0000 0.0000 0.0000
# 3 39.8123 39.8122 165.5779 0.0000 0.0000 0.0000
# 4 0.0000 0.0000 0.0000 26.1045 0.0000 0.0000
# 5 0.0000 0.0000 0.0000 0.0000 26.1047 0.0000
# 6 0.0000 0.0000 0.0000 0.0000 0.0000 4.7461
#
#
#
# Elastic Compliance Matrix: (Units=1/GPa)
#
#
# Indices 1 2 3 4 5 6 
#
# 1 0.024644 0.006372 -0.007458 0.000000 0.000000 0.000000
# 2 0.006372 0.024644 -0.007458 0.000000 0.000000 0.000000
# 3 -0.007458 -0.007458 0.009626 0.000000 0.000000 0.000000
# 4 0.000000 0.000000 0.000000 0.038308 0.000000 0.000000
# 5 0.000000 0.000000 0.000000 0.000000 0.038307 0.000000
# 6 0.000000 0.000000 0.000000 0.000000 0.000000 0.210697
#
#
# Mechanical properties :
#
#
# Convention : Reuss Voigt Hill
#
# Bulk Modulus (GPa) = 23.90795 47.51117 35.70956
# Shear Modulus (GPa) = 13.25366 24.30710 18.78038
#
# Velocity S-wave (km/s) = 2.61377 3.53970 3.11137
# Velocity P-wave (km/s) = 4.62956 6.41844 5.59594
#
# Compressibility (1/GPa) = 0.04182708
#
# Stress axis : x y z
#
# Youngs Moduli (GPa) = 40.57815 40.57810 103.88835
#
# Poissons Ratio (x) = -0.25856 0.77476
# Poissons Ratio (y) = -0.25856 0.77476
# Poissons Ratio (z) = 0.30261 0.30261
#
# Static dielectric constant tensor:
#      x y z
#    x 1.707740 0.000000 0.000000 
#    y 0.000000 1.707740 0.000000 
#    z 0.000000 0.000000 1.729710 
# 
# From -- ./inp_files/3988.got.cif
#   From: 2010.05.17/outbox.cif.g08.bks.cpg/sg128_2_cif.got.tgz:3988.got - 2010.05.20 12:07:25.
