data_PCOD9564306
_publ_section_title
;
Structure prediction by ZEFSAII (Michael W. Deem and Ramdas Pophale) SiO2 
 PCOD9564306
Probable space group: P 4/M B M
;
_chemical_formula_sum "Si O2"
_cell_formula_units_Z 52
_cell_length_a 14.751175
_cell_length_b 14.751175
_cell_length_c 12.017383
_cell_angle_alpha 90.000000
_cell_angle_beta 90.000000
_cell_angle_gamma 90.000000
_cell_volume 2614.948458
_symmetry_space_group_name_H-M "P 4/M B M"
_symmetry_group_IT_number 127
_symmetry_cell_setting 'tetragonal'
loop_
_space_group_symop_operation_xyz
x,y,z
-y,x,z
-x,-y,z
y,-x,z
1/2+x,1/2-y,-z
1/2-x,1/2+y,-z
1/2+y,1/2+x,-z
1/2-y,1/2-x,-z
-x,-y,-z
y,-x,-z
x,y,-z
-y,x,-z
1/2-x,1/2+y,z
1/2+x,1/2-y,z
1/2-y,1/2-x,z
1/2+y,1/2+x,z
loop_
_atom_site_type_symbol
_atom_site_label
_atom_site_fract_x
_atom_site_fract_y
_atom_site_fract_z
Si Si1 0.312705 0.339347 0.761363
Si Si2 0.023204 0.725164 0.302143
Si Si3 0.094784 0.120150 0.000000
Si Si4 0.077144 0.577144 0.128227
Si Si5 0.899319 0.399319 0.500000
O O1 0.246055 0.253946 0.761336
O O2 0.404662 0.306930 0.702127
O O3 0.264501 0.422781 0.700390
O O4 0.334562 0.368811 0.887524
O O5 0.041010 0.665910 0.190983
O O6 0.046387 0.658380 0.402818
O O7 0.985559 0.122810 0.000000
O O8 0.000000 0.500000 0.135215
O O9 0.096729 0.596729 0.000000
#
# Coordination Sequence:
#
# PCOD9564306 Si02
#       5
#    16  16   8   8   4
#     4  12  24  43  69 104 143 189 244 293 368 438
#     4  11  25  44  71 102 136 189 240 299 365 428
#     4  11  23  40  68 102 153 195 228 292 370 446
#     4  10  22  42  63  95 144 183 233 288 351 430
#     4  10  24  54  71  96 142 179 244 308 350 422
#
# _framework density 19.885669
#
# number of rings (size 3 to 8) (size 9 to 14) (size 15 to 20)
#    0.000    0.923    6.154    1.385    4.308    1.846 
#    0.000   13.077    0.000    1.846    0.000    0.000 
#    0.000    0.000    0.000    0.000    0.000    0.000 
#
# Total GULP energy -289845.980223 kJ/mol
# GULP energy per Si atom -5573.961158 kJ/mol
# Density = 1.984041 g / cm^3
# Si number density = 19.885669 Si / 1000 Ang^3
#
#
#
# Elastic Constant Matrix: (Units=GPa)
#
#
# Indices 1 2 3 4 5 6 
#
# 1 50.3778 -6.5891 4.6059 0.0000 0.0000 0.0000
# 2 -6.5891 50.3778 4.6059 0.0000 0.0000 0.0000
# 3 4.6059 4.6059 91.3257 0.0000 0.0000 0.0000
# 4 0.0000 0.0000 0.0000 -65.7687 0.0000 0.0000
# 5 0.0000 0.0000 0.0000 0.0000 -65.7687 0.0000
# 6 0.0000 0.0000 0.0000 0.0000 0.0000 27.9324
#
#
#
# Elastic Compliance Matrix: (Units=1/GPa)
#
#
# Indices 1 2 3 4 5 6 
#
# 1 0.020318 0.002764 -0.001164 0.000000 0.000000 0.000000
# 2 0.002764 0.020318 -0.001164 0.000000 0.000000 0.000000
# 3 -0.001164 -0.001164 0.011067 0.000000 0.000000 0.000000
# 4 0.000000 0.000000 0.000000 -0.015205 0.000000 0.000000
# 5 0.000000 0.000000 0.000000 0.000000 -0.015205 0.000000
# 6 0.000000 0.000000 0.000000 0.000000 0.000000 0.035801
#
#
# Mechanical properties :
#
#
# Convention : Reuss Voigt Hill
#
# Bulk Modulus (GPa) = 19.02063 21.92520 20.47291
# Shear Modulus (GPa) = 67.79870 -8.09043 29.85414
#
# Velocity S-wave (km/s) = 5.84536 -2.01923 3.87885
# Velocity P-wave (km/s) = 7.42586 2.36921 5.51165
#
# Compressibility (1/GPa) = 0.05257450
#
# Stress axis : x y z
#
# Youngs Moduli (GPa) = 49.21755 49.21755 90.35680
#
# Poissons Ratio (x) = -0.13603 0.10519
# Poissons Ratio (y) = -0.13603 0.10519
# Poissons Ratio (z) = 0.05729 0.05729
#
# Static dielectric constant tensor:
#      x y z
#    x 1.702220 0.000000 0.000000 
#    y 0.000000 1.702220 0.000000 
#    z 0.000000 0.000000 1.669740 
# 
# From -- ./inp_files/2899.got.cif
#   From: 2010.05.17/outbox.cif.g08.bks.cpg/sg127_2_cif.got.tgz:2899.got - 2010.05.20 12:03:00.
