data_PCOD9564560
_publ_section_title
;
Structure prediction by ZEFSAII (Michael W. Deem and Ramdas Pophale) SiO2 
 PCOD9564560
Probable space group: P 4/M N C
;
_chemical_formula_sum "Si O2"
_cell_formula_units_Z 96
_cell_length_a 16.562395
_cell_length_b 16.562395
_cell_length_c 13.759835
_cell_angle_alpha 90.000000
_cell_angle_beta 90.000000
_cell_angle_gamma 90.000000
_cell_volume 3774.500630
_symmetry_space_group_name_H-M "P 4/M N C"
_symmetry_group_IT_number 128
_symmetry_cell_setting 'tetragonal'
loop_
_space_group_symop_operation_xyz
x,y,z
-y,x,z
-x,-y,z
y,-x,z
1/2+x,1/2-y,1/2-z
1/2-x,1/2+y,1/2-z
1/2+y,1/2+x,1/2-z
1/2-y,1/2-x,1/2-z
-x,-y,-z
y,-x,-z
x,y,-z
-y,x,-z
1/2-x,1/2+y,1/2+z
1/2+x,1/2-y,1/2+z
1/2-y,1/2-x,1/2+z
1/2+y,1/2+x,1/2+z
loop_
_atom_site_type_symbol
_atom_site_label
_atom_site_fract_x
_atom_site_fract_y
_atom_site_fract_z
Si Si1 0.280756 0.775024 0.133885
Si Si2 0.445392 0.612078 0.687986
Si Si3 0.129662 0.107336 0.393278
Si Si4 0.706168 0.056014 0.170746
Si Si5 0.794921 0.494903 0.890789
Si Si6 0.871449 0.328828 0.138758
O O1 0.278143 0.778143 0.250000
O O2 0.337033 0.699124 0.107390
O O3 0.191052 0.741206 0.104075
O O4 0.321462 0.863133 0.113330
O O5 0.396679 0.536091 0.650593
O O6 0.430663 0.601392 0.803626
O O7 0.419962 0.700175 0.664066
O O8 0.096130 0.091166 0.500000
O O9 0.207976 0.050573 0.377040
O O10 0.688484 0.040597 0.287217
O O11 0.691386 0.966242 0.129179
O O12 0.855579 0.418818 0.899436
O O13 0.792796 0.531263 0.000000
O O14 0.843929 0.343929 0.250000
#
# Coordination Sequence:
#
# PCOD9564560 Si02
#       6
#    16  16  16  16  16  16
#     4  10  18  32  51  75 102 140 194 238 264 322
#     4  11  21  31  47  80 121 152 176 210 267 344
#     4  10  20  35  50  71 110 156 191 221 266 333
#     4  11  18  31  54  78 107 142 185 231 279 323
#     4   9  18  34  55  78 107 146 188 228 284 346
#     4   8  17  32  53  74 104 148 192 225 275 330
#
# _framework density 25.433827999999998
#
# number of rings (size 3 to 8) (size 9 to 14) (size 15 to 20)
#    0.000    2.167    3.333    2.000    0.000    1.333 
#    0.000    1.667    0.000    4.500    0.000    1.167 
#    0.000    0.000    0.000   20.333    0.000    0.000 
#
# Total GULP energy -534880.358818 kJ/mol
# GULP energy per Si atom -5571.670404 kJ/mol
# Density = 2.537594 g / cm^3
# Si number density = 25.433828 Si / 1000 Ang^3
#
#
#
# Elastic Constant Matrix: (Units=GPa)
#
#
# Indices 1 2 3 4 5 6 
#
# 1 146.7833 32.7361 11.1850 0.0000 0.0000 0.0000
# 2 32.7361 146.7833 11.1850 0.0000 0.0000 0.0000
# 3 11.1850 11.1850 92.6511 0.0000 0.0000 0.0000
# 4 0.0000 0.0000 0.0000 -11.8514 0.0000 0.0000
# 5 0.0000 0.0000 0.0000 0.0000 -11.8514 0.0000
# 6 0.0000 0.0000 0.0000 0.0000 0.0000 -242.0408
#
#
#
# Elastic Compliance Matrix: (Units=1/GPa)
#
#
# Indices 1 2 3 4 5 6 
#
# 1 0.007212 -0.001556 -0.000683 0.000000 0.000000 0.000000
# 2 -0.001556 0.007212 -0.000683 0.000000 0.000000 0.000000
# 3 -0.000683 -0.000683 0.010958 0.000000 0.000000 0.000000
# 4 0.000000 0.000000 0.000000 -0.084378 0.000000 0.000000
# 5 0.000000 0.000000 0.000000 0.000000 -0.084378 0.000000
# 6 0.000000 0.000000 0.000000 0.000000 0.000000 -0.004132
#
#
# Mechanical properties :
#
#
# Convention : Reuss Voigt Hill
#
# Bulk Modulus (GPa) = 51.18214 55.15889 53.17051
# Shear Modulus (GPa) = -36.99603 -31.07462 -34.03532
#
# Velocity S-wave (km/s) = -3.81806 -3.49919 -3.66210
# Velocity P-wave (km/s) = 0.85474 2.32562 1.75201
#
# Compressibility (1/GPa) = 0.01953806
#
# Stress axis : x y z
#
# Youngs Moduli (GPa) = 138.65969 138.65969 91.25735
#
# Poissons Ratio (x) = 0.21581 0.06231
# Poissons Ratio (y) = 0.21581 0.06231
# Poissons Ratio (z) = 0.09467 0.09467
#
# Static dielectric constant tensor:
#      x y z
#    x 2.073440 0.000000 0.000000 
#    y 0.000000 2.073440 0.000000 
#    z 0.000000 0.000000 2.038170 
# 
# From -- ./inp_files/4797.got.cif
#   From: 2010.05.17/outbox.cif.g08.bks.cpg/sg128_3_cif.got.tgz:4797.got - 2010.05.20 12:07:25.
