data_PCOD9564053
_publ_section_title
;
Structure prediction by ZEFSAII (Michael W. Deem and Ramdas Pophale) SiO2 
 PCOD9564053
Probable space group: P 4/M B M
;
_chemical_formula_sum "Si O2"
_cell_formula_units_Z 120
_cell_length_a 26.908660
_cell_length_b 26.908660
_cell_length_c 8.830351
_cell_angle_alpha 90.000000
_cell_angle_beta 90.000000
_cell_angle_gamma 90.000000
_cell_volume 6393.845081
_symmetry_space_group_name_H-M "P 4/M B M"
_symmetry_group_IT_number 127
_symmetry_cell_setting 'tetragonal'
loop_
_space_group_symop_operation_xyz
x,y,z
-y,x,z
-x,-y,z
y,-x,z
1/2+x,1/2-y,-z
1/2-x,1/2+y,-z
1/2+y,1/2+x,-z
1/2-y,1/2-x,-z
-x,-y,-z
y,-x,-z
x,y,-z
-y,x,-z
1/2-x,1/2+y,z
1/2+x,1/2-y,z
1/2-y,1/2-x,z
1/2+y,1/2+x,z
loop_
_atom_site_type_symbol
_atom_site_label
_atom_site_fract_x
_atom_site_fract_y
_atom_site_fract_z
Si Si1 0.599171 0.606809 0.683378
Si Si2 0.198676 0.848863 0.819796
Si Si3 0.837985 0.254903 0.829026
Si Si4 0.350701 0.493805 0.317510
Si Si5 0.540846 0.040846 0.184704
Si Si6 0.939851 0.749335 0.681416
Si Si7 0.988876 0.652133 0.179887
Si Si8 0.823849 0.408794 0.328338
O O1 0.604248 0.613117 0.500000
O O2 0.644581 0.632512 0.768177
O O3 0.608199 0.548488 0.715060
O O4 0.547344 0.630478 0.734370
O O5 0.195602 0.791049 0.777250
O O6 0.237669 0.884450 0.737514
O O7 0.205788 0.853261 0.000000
O O8 0.801958 0.301958 0.837964
O O9 0.882994 0.272583 0.724203
O O10 0.856029 0.243603 0.000000
O O11 0.347134 0.496774 0.500000
O O12 0.296447 0.474186 0.265552
O O13 0.596843 0.026811 0.232253
O O14 0.500000 0.000000 0.235002
O O15 0.540068 0.040068 0.000000
O O16 0.940983 0.748800 0.500000
O O17 0.958886 0.697251 0.744843
O O18 0.046348 0.661100 0.220809
O O19 0.981670 0.654325 0.000000
O O20 0.818757 0.427383 0.500000
O O21 0.867137 0.367137 0.326080
#
# Coordination Sequence:
#
# PCOD9564053 Si02
#       8
#    16  16  16  16   8  16  16  16
#     4   9  17  31  50  73 103 141 183 228 282 335
#     4  10  20  35  54  78 105 141 187 235 284 336
#     4   9  19  36  56  80 109 142 183 231 280 334
#     4   8  16  30  50  75 102 139 183 229 276 327
#     4   9  20  40  65  91 119 153 195 235 281 345
#     4  10  21  38  56  80 114 149 189 236 285 341
#     4  11  22  38  62  89 115 151 192 237 285 337
#     4  10  21  36  56  86 121 151 183 227 281 342
#
# _framework density 18.768049000000001
#
# number of rings (size 3 to 8) (size 9 to 14) (size 15 to 20)
#    0.000    2.467    0.000    2.800    1.867    2.667 
#    1.200    5.333    0.000    2.400    0.000    3.733 
#    0.000    0.000    0.000    0.000    0.000    0.000 
#
# Total GULP energy -668949.185514 kJ/mol
# GULP energy per Si atom -5574.576546 kJ/mol
# Density = 1.872533 g / cm^3
# Si number density = 18.768049 Si / 1000 Ang^3
#
#
#
# Elastic Constant Matrix: (Units=GPa)
#
#
# Indices 1 2 3 4 5 6 
#
# 1 99.0127 46.3953 30.3012 0.0000 0.0000 0.0000
# 2 46.3953 99.0127 30.3012 0.0000 0.0000 0.0000
# 3 30.3012 30.3012 38.5593 0.0000 0.0000 0.0000
# 4 0.0000 0.0000 0.0000 22.0522 0.0000 0.0000
# 5 0.0000 0.0000 0.0000 0.0000 22.0522 0.0000
# 6 0.0000 0.0000 0.0000 0.0000 0.0000 18.3226
#
#
#
# Elastic Compliance Matrix: (Units=1/GPa)
#
#
# Indices 1 2 3 4 5 6 
#
# 1 0.014616 -0.004389 -0.008036 0.000000 0.000000 0.000000
# 2 -0.004389 0.014616 -0.008036 0.000000 0.000000 0.000000
# 3 -0.008036 -0.008036 0.038565 0.000000 0.000000 0.000000
# 4 0.000000 0.000000 0.000000 0.045347 0.000000 0.000000
# 5 0.000000 0.000000 0.000000 0.000000 0.045347 0.000000
# 6 0.000000 0.000000 0.000000 0.000000 0.000000 0.054577
#
#
# Mechanical properties :
#
#
# Convention : Reuss Voigt Hill
#
# Bulk Modulus (GPa) = 37.21315 50.06447 43.63881
# Shear Modulus (GPa) = 19.01509 21.12454 20.06981
#
# Velocity S-wave (km/s) = 3.18648 3.35857 3.27366
# Velocity P-wave (km/s) = 5.78006 6.46323 6.13117
#
# Compressibility (1/GPa) = 0.02687222
#
# Stress axis : x y z
#
# Youngs Moduli (GPa) = 68.41895 68.41895 25.93049
#
# Poissons Ratio (x) = 0.30031 0.20839
# Poissons Ratio (y) = 0.30031 0.20839
# Poissons Ratio (z) = 0.54984 0.54984
#
# Static dielectric constant tensor:
#      x y z
#    x 1.663030 0.000000 0.000000 
#    y 0.000000 1.663030 0.000000 
#    z 0.000000 0.000000 1.645800 
# 
# From -- ./inp_files/2413.got.cif
#   From: 2010.05.17/outbox.cif.g08.bks.cpg/sg127_2_cif.got.tgz:2413.got - 2010.05.20 12:03:00.
