data_PCOD9564661
_publ_section_title
;
Structure prediction by ZEFSAII (Michael W. Deem and Ramdas Pophale) SiO2 
 PCOD9564661
Probable space group: P 4/M N C
;
_chemical_formula_sum "Si O2"
_cell_formula_units_Z 112
_cell_length_a 15.109445
_cell_length_b 15.109445
_cell_length_c 26.781858
_cell_angle_alpha 90.000000
_cell_angle_beta 90.000000
_cell_angle_gamma 90.000000
_cell_volume 6114.173062
_symmetry_space_group_name_H-M "P 4/M N C"
_symmetry_group_IT_number 128
_symmetry_cell_setting 'tetragonal'
loop_
_space_group_symop_operation_xyz
x,y,z
-y,x,z
-x,-y,z
y,-x,z
1/2+x,1/2-y,1/2-z
1/2-x,1/2+y,1/2-z
1/2+y,1/2+x,1/2-z
1/2-y,1/2-x,1/2-z
-x,-y,-z
y,-x,-z
x,y,-z
-y,x,-z
1/2-x,1/2+y,1/2+z
1/2+x,1/2-y,1/2+z
1/2-y,1/2-x,1/2+z
1/2+y,1/2+x,1/2+z
loop_
_atom_site_type_symbol
_atom_site_label
_atom_site_fract_x
_atom_site_fract_y
_atom_site_fract_z
Si Si1 0.456273 0.796552 0.696596
Si Si2 0.613471 0.283912 0.400831
Si Si3 0.355031 0.139701 0.150705
Si Si4 0.810812 0.780030 0.372634
Si Si5 0.078330 0.751076 0.058670
Si Si6 0.919790 0.124639 0.443639
Si Si7 0.689171 0.048976 0.311550
O O1 0.418713 0.724702 0.657046
O O2 0.554940 0.822222 0.680935
O O3 0.393943 0.883118 0.689734
O O4 0.457855 0.775708 0.755035
O O5 0.693081 0.212333 0.404960
O O6 0.526702 0.261019 0.432501
O O7 0.661304 0.373561 0.418611
O O8 0.296414 0.226465 0.162761
O O9 0.329486 0.114434 0.093270
O O10 0.456013 0.159857 0.164927
O O11 0.816254 0.868139 0.404964
O O12 0.901000 0.762006 0.344276
O O13 0.098252 0.742061 0.000000
O O14 0.901258 0.154103 0.500000
O O15 0.024807 0.117282 0.437897
#
# Coordination Sequence:
#
# PCOD9564661 Si02
#       7
#    16  16  16  16  16  16  16
#     4   9  19  37  57  80 107 140 186 233 274 330
#     4   9  20  36  53  80 110 144 184 236 279 331
#     4  10  20  34  54  83 106 145 177 225 276 332
#     4  10  20  34  52  80 113 138 178 232 277 329
#     4  10  20  36  57  80 111 147 187 233 283 337
#     4   9  18  33  54  77 105 144 184 221 266 326
#     4  10  19  36  57  81 108 144 184 228 272 341
#
# _framework density 18.318093999999999
#
# number of rings (size 3 to 8) (size 9 to 14) (size 15 to 20)
#    0.000    2.429    0.000    2.571    0.000    4.286 
#   18.000    1.429    0.000   12.000    0.000    0.000 
#    0.000    0.000    0.000    0.000    0.000    0.000 
#
# Total GULP energy -623964.716240 kJ/mol
# GULP energy per Si atom -5571.113538 kJ/mol
# Density = 1.827640 g / cm^3
# Si number density = 18.318094 Si / 1000 Ang^3
#
#
#
# Elastic Constant Matrix: (Units=GPa)
#
#
# Indices 1 2 3 4 5 6 
#
# 1 28.9334 0.7200 25.7688 0.0000 0.0000 0.0000
# 2 0.7200 28.9334 25.7688 0.0000 0.0000 0.0000
# 3 25.7688 25.7688 85.2831 0.0000 0.0000 0.0000
# 4 0.0000 0.0000 0.0000 17.6140 0.0000 0.0000
# 5 0.0000 0.0000 0.0000 0.0000 17.6140 0.0000
# 6 0.0000 0.0000 0.0000 0.0000 0.0000 17.0371
#
#
#
# Elastic Compliance Matrix: (Units=1/GPa)
#
#
# Indices 1 2 3 4 5 6 
#
# 1 0.053231 0.017787 -0.021459 0.000000 0.000000 0.000000
# 2 0.017787 0.053231 -0.021459 0.000000 0.000000 0.000000
# 3 -0.021459 -0.021459 0.024693 0.000000 0.000000 0.000000
# 4 0.000000 0.000000 0.000000 0.056773 0.000000 0.000000
# 5 0.000000 0.000000 0.000000 0.000000 0.056773 0.000000
# 6 0.000000 0.000000 0.000000 0.000000 0.000000 0.058696
#
#
# Mechanical properties :
#
#
# Convention : Reuss Voigt Hill
#
# Bulk Modulus (GPa) = 12.36168 27.51832 19.94000
# Shear Modulus (GPa) = 13.13638 16.51250 14.82444
#
# Velocity S-wave (km/s) = 2.68083 3.00564 2.84787
# Velocity P-wave (km/s) = 4.04295 5.20579 4.66078
#
# Compressibility (1/GPa) = 0.08089518
#
# Stress axis : x y z
#
# Youngs Moduli (GPa) = 18.78603 18.78603 40.49683
#
# Poissons Ratio (x) = -0.33415 0.86900
# Poissons Ratio (y) = -0.33415 0.86900
# Poissons Ratio (z) = 0.40312 0.40312
#
# Static dielectric constant tensor:
#      x y z
#    x 1.628140 0.000000 0.000000 
#    y 0.000000 1.628140 0.000000 
#    z 0.000000 0.000000 1.643150 
# 
# From -- ./inp_files/6482.got.cif
#   From: 2010.05.17/outbox.cif.g08.bks.cpg/sg128_4_cif.got.tgz:6482.got - 2010.05.20 12:07:25.
