data_PCOD9564901
_publ_section_title
;
Structure prediction by ZEFSAII (Michael W. Deem and Ramdas Pophale) SiO2 
 PCOD9564901
Probable space group: P 4/M N C
;
_chemical_formula_sum "Si O2"
_cell_formula_units_Z 112
_cell_length_a 14.455985
_cell_length_b 14.455985
_cell_length_c 26.296077
_cell_angle_alpha 90.000000
_cell_angle_beta 90.000000
_cell_angle_gamma 90.000000
_cell_volume 5495.235900
_symmetry_space_group_name_H-M "P 4/M N C"
_symmetry_group_IT_number 128
_symmetry_cell_setting 'tetragonal'
loop_
_space_group_symop_operation_xyz
x,y,z
-y,x,z
-x,-y,z
y,-x,z
1/2+x,1/2-y,1/2-z
1/2-x,1/2+y,1/2-z
1/2+y,1/2+x,1/2-z
1/2-y,1/2-x,1/2-z
-x,-y,-z
y,-x,-z
x,y,-z
-y,x,-z
1/2-x,1/2+y,1/2+z
1/2+x,1/2-y,1/2+z
1/2-y,1/2-x,1/2+z
1/2+y,1/2+x,1/2+z
loop_
_atom_site_type_symbol
_atom_site_label
_atom_site_fract_x
_atom_site_fract_y
_atom_site_fract_z
Si Si1 0.725176 0.296487 0.056252
Si Si2 0.759959 0.410510 0.766043
Si Si3 0.613863 0.102133 0.556502
Si Si4 0.847315 0.977691 0.170102
Si Si5 0.874061 0.908119 0.355172
Si Si6 0.930841 0.298369 0.909583
Si Si7 0.101465 0.526648 0.844737
O O1 0.674915 0.197331 0.061306
O O2 0.684927 0.363531 0.099385
O O3 0.835247 0.284431 0.061165
O O4 0.703250 0.333538 0.000000
O O5 0.824248 0.324248 0.750000
O O6 0.721304 0.462237 0.717017
O O7 0.674750 0.381229 0.802231
O O8 0.822552 0.477303 0.801290
O O9 0.620599 0.058070 0.500000
O O10 0.514750 0.152616 0.560981
O O11 0.620279 0.033035 0.604306
O O12 0.793538 0.967328 0.117250
O O13 0.924881 0.898520 0.173561
O O14 0.980237 0.875580 0.358129
O O15 0.903895 0.368668 0.864279
O O16 0.000000 0.500000 0.825338
#
# Coordination Sequence:
#
# PCOD9564901 Si02
#       7
#    16  16  16  16  16  16  16
#     4  11  23  39  65  98 132 173 218 270 329 391
#     4  12  22  42  65  92 128 166 218 271 324 386
#     4  10  23  41  65  98 131 172 219 261 329 397
#     4  11  24  42  66  93 126 170 217 269 331 396
#     4  11  24  43  67  93 130 177 221 268 322 390
#     4  11  21  42  64  91 128 166 217 273 326 380
#     4  10  22  40  64  91 126 170 213 265 323 387
#
# _framework density 20.38129
#
# number of rings (size 3 to 8) (size 9 to 14) (size 15 to 20)
#    0.000    1.143    2.857    3.000    0.000    5.143 
#    0.000    2.143    0.000    0.000    0.000    6.000 
#    0.000    0.000    0.000    0.000    0.000    0.000 
#
# Total GULP energy -626175.362562 kJ/mol
# GULP energy per Si atom -5590.851451 kJ/mol
# Density = 2.033490 g / cm^3
# Si number density = 20.381290 Si / 1000 Ang^3
#
#
#
# Elastic Constant Matrix: (Units=GPa)
#
#
# Indices 1 2 3 4 5 6 
#
# 1 201.4656 -83.1411 38.2947 0.0000 0.0000 0.0000
# 2 -83.1411 201.4656 38.2947 0.0000 0.0000 0.0000
# 3 38.2947 38.2947 100.4725 0.0000 0.0000 0.0000
# 4 0.0000 0.0000 0.0000 13.7429 0.0000 0.0000
# 5 0.0000 0.0000 0.0000 0.0000 13.7429 0.0000
# 6 0.0000 0.0000 0.0000 0.0000 0.0000 -7.4696
#
#
#
# Elastic Compliance Matrix: (Units=1/GPa)
#
#
# Indices 1 2 3 4 5 6 
#
# 1 0.007366 0.003853 -0.004276 0.000000 0.000000 0.000000
# 2 0.003853 0.007366 -0.004276 0.000000 0.000000 0.000000
# 3 -0.004276 -0.004276 0.013213 0.000000 0.000000 0.000000
# 4 0.000000 0.000000 0.000000 0.072765 0.000000 0.000000
# 5 0.000000 0.000000 0.000000 0.000000 0.072765 0.000000
# 6 0.000000 0.000000 0.000000 0.000000 0.000000 -0.133876
#
#
# Mechanical properties :
#
#
# Convention : Reuss Voigt Hill
#
# Bulk Modulus (GPa) = 53.91869 54.47783 54.19826
# Shear Modulus (GPa) = 90.61213 38.00028 64.30620
#
# Velocity S-wave (km/s) = 6.67495 4.32263 5.62317
# Velocity P-wave (km/s) = 9.26926 7.19033 8.29518
#
# Compressibility (1/GPa) = 0.01854644
#
# Stress axis : x y z
#
# Youngs Moduli (GPa) = 135.75110 135.75110 75.68497
#
# Poissons Ratio (x) = -0.52302 0.32364
# Poissons Ratio (y) = -0.52302 0.32364
# Poissons Ratio (z) = 0.58049 0.58049
#
# Static dielectric constant tensor:
#      x y z
#    x 1.721370 0.000000 0.000000 
#    y 0.000000 1.721370 0.000000 
#    z 0.000000 0.000000 1.737510 
# 
# From -- ./inp_files/6432.got.cif
#   From: 2010.05.17/outbox.cif.g08.bks.cpg/sg128_4_cif.got.tgz:6432.got - 2010.05.20 12:07:25.
