data_PCOD9564247
_publ_section_title
;
Structure prediction by ZEFSAII (Michael W. Deem and Ramdas Pophale) SiO2 
 PCOD9564247
Probable space group: P 4/M B M
;
_chemical_formula_sum "Si O2"
_cell_formula_units_Z 96
_cell_length_a 15.603207
_cell_length_b 15.603207
_cell_length_c 24.129477
_cell_angle_alpha 90.000000
_cell_angle_beta 90.000000
_cell_angle_gamma 90.000000
_cell_volume 5874.564128
_symmetry_space_group_name_H-M "P 4/M B M"
_symmetry_group_IT_number 127
_symmetry_cell_setting 'tetragonal'
loop_
_space_group_symop_operation_xyz
x,y,z
-y,x,z
-x,-y,z
y,-x,z
1/2+x,1/2-y,-z
1/2-x,1/2+y,-z
1/2+y,1/2+x,-z
1/2-y,1/2-x,-z
-x,-y,-z
y,-x,-z
x,y,-z
-y,x,-z
1/2-x,1/2+y,z
1/2+x,1/2-y,z
1/2-y,1/2-x,z
1/2+y,1/2+x,z
loop_
_atom_site_type_symbol
_atom_site_label
_atom_site_fract_x
_atom_site_fract_y
_atom_site_fract_z
Si Si1 0.006409 0.362570 0.265163
Si Si2 0.745214 0.389089 0.334133
Si Si3 0.241515 0.000524 0.826896
Si Si4 0.631963 0.441525 0.562985
Si Si5 0.355636 0.492385 0.935838
Si Si6 0.678603 0.676103 0.776898
O O1 0.098717 0.401284 0.279373
O O2 0.003896 0.334785 0.200869
O O3 0.936432 0.436432 0.272760
O O4 0.972453 0.285876 0.303608
O O5 0.822162 0.322162 0.344592
O O6 0.696417 0.412814 0.389629
O O7 0.684672 0.345031 0.287891
O O8 0.220270 0.989441 0.891412
O O9 0.197026 0.920077 0.796026
O O10 0.206995 0.093647 0.809102
O O11 0.608552 0.541883 0.568743
O O12 0.663536 0.427558 0.500000
O O13 0.422043 0.413466 0.927348
O O14 0.328200 0.490920 0.000000
O O15 0.757974 0.742027 0.787720
#
# Coordination Sequence:
#
# PCOD9564247 Si02
#       6
#    16  16  16  16  16  16
#     4   9  19  35  53  72  98 140 179 208 256 310
#     4   9  19  34  51  76 104 129 168 220 258 302
#     4  11  18  32  53  73 108 136 162 212 267 312
#     4   9  19  35  52  72 102 139 173 203 247 313
#     4   9  17  30  48  73 103 133 167 203 251 318
#     4  10  22  33  47  79 109 133 172 215 262 318
#
# _framework density 16.341639000000001
#
# number of rings (size 3 to 8) (size 9 to 14) (size 15 to 20)
#    0.000    2.500    1.667    3.000    4.667    0.667 
#    0.000    0.000    0.000    6.500    0.000    3.500 
#    0.000    0.000    0.000    0.000    0.000    0.000 
#
# Total GULP energy -534461.650694 kJ/mol
# GULP energy per Si atom -5567.308861 kJ/mol
# Density = 1.630444 g / cm^3
# Si number density = 16.341639 Si / 1000 Ang^3
#
#
#
# Elastic Constant Matrix: (Units=GPa)
#
#
# Indices 1 2 3 4 5 6 
#
# 1 46.1171 13.6217 38.1119 0.0000 0.0000 0.0000
# 2 13.6217 46.1171 38.1119 0.0000 0.0000 0.0000
# 3 38.1119 38.1119 140.7315 0.0000 0.0000 0.0000
# 4 0.0000 0.0000 0.0000 22.2176 0.0000 0.0000
# 5 0.0000 0.0000 0.0000 0.0000 22.2176 0.0000
# 6 0.0000 0.0000 0.0000 0.0000 0.0000 12.2431
#
#
#
# Elastic Compliance Matrix: (Units=1/GPa)
#
#
# Indices 1 2 3 4 5 6 
#
# 1 0.028176 -0.002598 -0.006927 0.000000 0.000000 0.000000
# 2 -0.002598 0.028176 -0.006927 0.000000 0.000000 0.000000
# 3 -0.006927 -0.006927 0.010857 0.000000 0.000000 0.000000
# 4 0.000000 0.000000 0.000000 0.045009 0.000000 0.000000
# 5 0.000000 0.000000 0.000000 0.000000 0.045009 0.000000
# 6 0.000000 0.000000 0.000000 0.000000 0.000000 0.081679
#
#
# Mechanical properties :
#
#
# Convention : Reuss Voigt Hill
#
# Bulk Modulus (GPa) = 29.14951 45.85076 37.50014
# Shear Modulus (GPa) = 17.65260 20.87701 19.26480
#
# Velocity S-wave (km/s) = 3.29024 3.57814 3.43720
# Velocity P-wave (km/s) = 5.68423 6.72230 6.22494
#
# Compressibility (1/GPa) = 0.03430589
#
# Stress axis : x y z
#
# Youngs Moduli (GPa) = 35.49160 35.49160 92.10241
#
# Poissons Ratio (x) = 0.09220 0.63798
# Poissons Ratio (y) = 0.09220 0.63798
# Poissons Ratio (z) = 0.24584 0.24584
#
# Static dielectric constant tensor:
#      x y z
#    x 1.575730 0.000000 0.000000 
#    y 0.000000 1.575730 0.000000 
#    z 0.000000 0.000000 1.534940 
# 
# From -- ./inp_files/5777.got.cif
#   From: 2010.05.17/outbox.cif.g08.bks.cpg/sg127_3_cif.got.tgz:5777.got - 2010.05.20 12:03:00.
