data_PCOD9564845
_publ_section_title
;
Structure prediction by ZEFSAII (Michael W. Deem and Ramdas Pophale) SiO2 
 PCOD9564845
Probable space group: P 4/M N C
;
_chemical_formula_sum "Si O2"
_cell_formula_units_Z 112
_cell_length_a 14.261088
_cell_length_b 14.261088
_cell_length_c 25.459347
_cell_angle_alpha 90.000000
_cell_angle_beta 90.000000
_cell_angle_gamma 90.000000
_cell_volume 5177.887138
_symmetry_space_group_name_H-M "P 4/M N C"
_symmetry_group_IT_number 128
_symmetry_cell_setting 'tetragonal'
loop_
_space_group_symop_operation_xyz
x,y,z
-y,x,z
-x,-y,z
y,-x,z
1/2+x,1/2-y,1/2-z
1/2-x,1/2+y,1/2-z
1/2+y,1/2+x,1/2-z
1/2-y,1/2-x,1/2-z
-x,-y,-z
y,-x,-z
x,y,-z
-y,x,-z
1/2-x,1/2+y,1/2+z
1/2+x,1/2-y,1/2+z
1/2-y,1/2-x,1/2+z
1/2+y,1/2+x,1/2+z
loop_
_atom_site_type_symbol
_atom_site_label
_atom_site_fract_x
_atom_site_fract_y
_atom_site_fract_z
Si Si1 0.784539 0.746778 0.689380
Si Si2 0.926420 0.252183 0.937797
Si Si3 0.525410 0.159471 0.219172
Si Si4 0.909259 0.818325 0.119539
Si Si5 0.187760 0.595447 0.128071
Si Si6 0.349680 0.504538 0.274907
Si Si7 0.990312 0.154992 0.562670
O O1 0.752625 0.747376 0.750000
O O2 0.891391 0.715288 0.690007
O O3 0.728808 0.666416 0.658014
O O4 0.761872 0.841929 0.660339
O O5 0.883703 0.151592 0.919131
O O6 0.870957 0.334889 0.908374
O O7 0.032920 0.251728 0.917363
O O8 0.919171 0.261355 0.000000
O O9 0.576419 0.076419 0.250000
O O10 0.453328 0.128946 0.174535
O O11 0.487261 0.241971 0.257485
O O12 0.987651 0.853010 0.162095
O O13 0.248830 0.524236 0.093443
O O14 0.407222 0.411955 0.256499
O O15 0.989251 0.171384 0.500000
O O16 0.084400 0.096430 0.574643
#
# Coordination Sequence:
#
# PCOD9564845 Si02
#       7
#    16  16  16  16  16  16  16
#     4  10  21  39  61  90 130 165 209 259 320 389
#     4  11  25  43  66  94 124 166 221 274 329 386
#     4  11  22  38  62  94 131 172 213 259 314 392
#     4  11  21  39  66  92 128 167 205 267 330 384
#     4  11  23  38  64  90 129 172 219 265 315 386
#     4  11  21  36  62  97 133 170 208 261 331 395
#     4   9  18  35  61  93 129 164 212 278 338 382
#
# _framework density 21.630444000000001
#
# number of rings (size 3 to 8) (size 9 to 14) (size 15 to 20)
#    0.000    1.429    4.286    3.000    0.000    0.286 
#    0.000    3.571    0.000    3.429    0.000    0.000 
#    0.000    0.000    0.000    0.000    0.000    0.000 
#
# Total GULP energy -625526.613084 kJ/mol
# GULP energy per Si atom -5585.059045 kJ/mol
# Density = 2.158121 g / cm^3
# Si number density = 21.630444 Si / 1000 Ang^3
#
#
#
# Elastic Constant Matrix: (Units=GPa)
#
#
# Indices 1 2 3 4 5 6 
#
# 1 51.4118 25.1284 49.2374 0.0000 0.0000 0.0000
# 2 25.1284 51.4116 49.2374 0.0000 0.0000 0.0000
# 3 49.2374 49.2374 146.0091 0.0000 0.0000 0.0000
# 4 0.0000 0.0000 0.0000 24.7213 0.0000 0.0000
# 5 0.0000 0.0000 0.0000 0.0000 24.7212 0.0000
# 6 0.0000 0.0000 0.0000 0.0000 0.0000 22.6242
#
#
#
# Elastic Compliance Matrix: (Units=1/GPa)
#
#
# Indices 1 2 3 4 5 6 
#
# 1 0.030562 -0.007485 -0.007782 0.000000 0.000000 0.000000
# 2 -0.007485 0.030562 -0.007782 0.000000 0.000000 0.000000
# 3 -0.007782 -0.007782 0.012098 0.000000 0.000000 0.000000
# 4 0.000000 0.000000 0.000000 0.040451 0.000000 0.000000
# 5 0.000000 0.000000 0.000000 0.000000 0.040451 0.000000
# 6 0.000000 0.000000 0.000000 0.000000 0.000000 0.044201
#
#
# Mechanical properties :
#
#
# Convention : Reuss Voigt Hill
#
# Bulk Modulus (GPa) = 36.86824 55.11546 45.99185
# Shear Modulus (GPa) = 19.72665 22.76196 21.24430
#
# Velocity S-wave (km/s) = 3.02319 3.24745 3.13732
# Velocity P-wave (km/s) = 5.40997 6.29262 5.86792
#
# Compressibility (1/GPa) = 0.02712362
#
# Stress axis : x y z
#
# Youngs Moduli (GPa) = 32.72017 32.72000 82.66127
#
# Poissons Ratio (x) = 0.24490 0.64329
# Poissons Ratio (y) = 0.24490 0.64329
# Poissons Ratio (z) = 0.25463 0.25464
#
# Static dielectric constant tensor:
#      x y z
#    x 1.830580 0.000000 0.000000 
#    y 0.000000 1.830580 0.000000 
#    z 0.000000 0.000000 1.781090 
# 
# From -- ./inp_files/6475.got.cif
#   From: 2010.05.17/outbox.cif.g08.bks.cpg/sg128_4_cif.got.tgz:6475.got - 2010.05.20 12:07:25.
