data_PCOD9564402
_publ_section_title
;
Structure prediction by ZEFSAII (Michael W. Deem and Ramdas Pophale) SiO2 
 PCOD9564402
Probable space group: P 4/M B M
;
_chemical_formula_sum "Si O2"
_cell_formula_units_Z 96
_cell_length_a 20.741265
_cell_length_b 20.741265
_cell_length_c 11.826245
_cell_angle_alpha 90.000000
_cell_angle_beta 90.000000
_cell_angle_gamma 90.000000
_cell_volume 5087.651472
_symmetry_space_group_name_H-M "P 4/M B M"
_symmetry_group_IT_number 127
_symmetry_cell_setting 'tetragonal'
loop_
_space_group_symop_operation_xyz
x,y,z
-y,x,z
-x,-y,z
y,-x,z
1/2+x,1/2-y,-z
1/2-x,1/2+y,-z
1/2+y,1/2+x,-z
1/2-y,1/2-x,-z
-x,-y,-z
y,-x,-z
x,y,-z
-y,x,-z
1/2-x,1/2+y,z
1/2+x,1/2-y,z
1/2-y,1/2-x,z
1/2+y,1/2+x,z
loop_
_atom_site_type_symbol
_atom_site_label
_atom_site_fract_x
_atom_site_fract_y
_atom_site_fract_z
Si Si1 0.223172 0.171536 0.637428
Si Si2 0.955071 0.654014 0.236004
Si Si3 0.918496 0.782933 0.633728
Si Si4 0.108401 0.986183 0.250542
Si Si5 0.001737 0.608384 0.000000
Si Si6 0.181206 0.573413 0.625492
Si Si7 0.891908 0.013825 0.000000
O O1 0.226922 0.167967 0.500000
O O2 0.268052 0.231949 0.672331
O O3 0.149775 0.184860 0.666318
O O4 0.254925 0.104891 0.680345
O O5 0.900379 0.599622 0.246719
O O6 0.929023 0.721253 0.286353
O O7 0.984009 0.650229 0.109925
O O8 0.017766 0.643516 0.312343
O O9 0.915573 0.766358 0.500000
O O10 0.972809 0.836258 0.658971
O O11 0.139268 0.982018 0.123886
O O12 0.053103 0.930751 0.260913
O O13 0.950228 0.549773 0.000000
O O14 0.071763 0.571763 0.000000
O O15 0.197680 0.549834 0.500000
O O16 0.134090 0.634090 0.616989
O O17 0.946699 0.068969 0.000000
#
# Coordination Sequence:
#
# PCOD9564402 Si02
#       7
#    16  16  16  16   8  16   8
#     4   8  16  33  53  73 104 148 190 222 269 346
#     4  11  23  38  58  85 115 147 193 249 303 366
#     4  11  23  34  53  81 118 160 194 237 298 363
#     4   9  19  35  55  80 110 150 201 254 303 353
#     4   9  20  41  66  88 114 152 191 236 303 370
#     4   9  18  33  56  84 113 147 186 232 287 350
#     4   7  12  29  54  74  97 133 181 235 288 337
#
# _framework density 18.869218
#
# number of rings (size 3 to 8) (size 9 to 14) (size 15 to 20)
#    0.000    2.667    0.000    3.500    2.333    4.333 
#    0.000    1.667    0.000    1.000    0.000    2.333 
#    0.000    0.000    0.000    0.000    0.000    0.000 
#
# Total GULP energy -534417.450737 kJ/mol
# GULP energy per Si atom -5566.848445 kJ/mol
# Density = 1.882627 g / cm^3
# Si number density = 18.869218 Si / 1000 Ang^3
#
#
#
# Elastic Constant Matrix: (Units=GPa)
#
#
# Indices 1 2 3 4 5 6 
#
# 1 142.6317 -30.1681 35.7008 0.0000 0.0000 0.0000
# 2 -30.1681 142.6293 35.7016 0.0000 0.0000 0.0000
# 3 35.7008 35.7016 87.9490 0.0000 0.0000 0.0000
# 4 0.0000 0.0000 0.0000 47.4999 0.0000 0.0000
# 5 0.0000 0.0000 0.0000 0.0000 47.4934 0.0000
# 6 0.0000 0.0000 0.0000 0.0000 0.0000 24.8234
#
#
#
# Elastic Compliance Matrix: (Units=1/GPa)
#
#
# Indices 1 2 3 4 5 6 
#
# 1 0.008883 0.003096 -0.004863 0.000000 0.000000 0.000000
# 2 0.003096 0.008883 -0.004863 0.000000 0.000000 0.000000
# 3 -0.004863 -0.004863 0.015318 0.000000 0.000000 0.000000
# 4 0.000000 0.000000 0.000000 0.021053 0.000000 0.000000
# 5 0.000000 0.000000 0.000000 0.000000 0.021056 0.000000
# 6 0.000000 0.000000 0.000000 0.000000 0.000000 0.040285
#
#
# Mechanical properties :
#
#
# Convention : Reuss Voigt Hill
#
# Bulk Modulus (GPa) = 50.43986 50.63096 50.53541
# Shear Modulus (GPa) = 36.94276 46.09505 41.51890
#
# Velocity S-wave (km/s) = 4.42954 4.94790 4.69588
# Velocity P-wave (km/s) = 7.27670 7.71577 7.49945
#
# Compressibility (1/GPa) = 0.01982559
#
# Stress axis : x y z
#
# Youngs Moduli (GPa) = 112.57412 112.57148 65.28234
#
# Poissons Ratio (x) = -0.34853 0.31745
# Poissons Ratio (y) = -0.34854 0.31745
# Poissons Ratio (z) = 0.54741 0.54741
#
# Static dielectric constant tensor:
#      x y z
#    x 1.685550 0.000000 0.000000 
#    y 0.000000 1.685550 0.000000 
#    z 0.000000 0.000000 1.546440 
# 
# From -- ./inp_files/3583.got.cif
#   From: 2010.05.17/outbox.cif.g08.bks.cpg/sg127_2_cif.got.tgz:3583.got - 2010.05.20 12:03:00.
