data_PCOD9564312
_publ_section_title
;
Structure prediction by ZEFSAII (Michael W. Deem and Ramdas Pophale) SiO2 
 PCOD9564312
Probable space group: P 4/M B M
;
_chemical_formula_sum "Si O2"
_cell_formula_units_Z 88
_cell_length_a 14.801202
_cell_length_b 14.801202
_cell_length_c 21.523188
_cell_angle_alpha 90.000000
_cell_angle_beta 90.000000
_cell_angle_gamma 90.000000
_cell_volume 4715.204908
_symmetry_space_group_name_H-M "P 4/M B M"
_symmetry_group_IT_number 127
_symmetry_cell_setting 'tetragonal'
loop_
_space_group_symop_operation_xyz
x,y,z
-y,x,z
-x,-y,z
y,-x,z
1/2+x,1/2-y,-z
1/2-x,1/2+y,-z
1/2+y,1/2+x,-z
1/2-y,1/2-x,-z
-x,-y,-z
y,-x,-z
x,y,-z
-y,x,-z
1/2-x,1/2+y,z
1/2+x,1/2-y,z
1/2-y,1/2-x,z
1/2+y,1/2+x,z
loop_
_atom_site_type_symbol
_atom_site_label
_atom_site_fract_x
_atom_site_fract_y
_atom_site_fract_z
Si Si1 0.832466 0.181300 0.892742
Si Si2 0.601924 0.385320 0.500000
Si Si3 0.507359 0.224268 0.932060
Si Si4 0.398466 0.614175 0.635012
Si Si5 0.868884 0.784541 0.240378
Si Si6 0.993711 0.355654 0.201804
O O1 0.771591 0.271591 0.894195
O O2 0.775028 0.102541 0.924757
O O3 0.843632 0.150239 0.821046
O O4 0.926841 0.203470 0.924227
O O5 0.621770 0.492820 0.500000
O O6 0.633173 0.350037 0.567206
O O7 0.496781 0.160395 0.872337
O O8 0.501251 0.181215 0.000000
O O9 0.377851 0.507478 0.637408
O O10 0.361649 0.663708 0.695295
O O11 0.794615 0.705386 0.237654
O O12 0.966311 0.735009 0.232270
O O13 0.066765 0.433236 0.216493
O O14 0.895792 0.395792 0.219339
#
# Coordination Sequence:
#
# PCOD9564312 Si02
#       6
#    16   8  16  16  16  16
#     4  10  23  39  53  74 106 135 169 218 263 309
#     4   7  12  26  45  70 102 131 159 197 240 283
#     4  11  22  36  55  74  98 135 170 206 264 322
#     4   9  17  29  50  76 101 130 165 201 241 292
#     4   9  19  34  49  71 102 133 164 204 253 299
#     4   9  19  35  52  71  96 127 170 220 260 299
#
# _framework density 18.663028000000001
#
# number of rings (size 3 to 8) (size 9 to 14) (size 15 to 20)
#    0.000    2.636    0.000    3.818    5.091    4.000 
#    0.000    2.273    0.000    0.000    0.000    1.909 
#    0.000    2.909    0.000    0.000    0.000    0.000 
#
# Total GULP energy -490566.118151 kJ/mol
# GULP energy per Si atom -5574.614979 kJ/mol
# Density = 1.862055 g / cm^3
# Si number density = 18.663028 Si / 1000 Ang^3
#
#
#
# Elastic Constant Matrix: (Units=GPa)
#
#
# Indices 1 2 3 4 5 6 
#
# 1 25.8222 -2.1418 -0.5699 0.0000 0.0000 0.0000
# 2 -2.1418 25.8222 -0.5699 0.0000 0.0000 0.0000
# 3 -0.5699 -0.5699 116.5600 0.0000 0.0000 0.0000
# 4 0.0000 0.0000 0.0000 -4.9082 0.0000 0.0000
# 5 0.0000 0.0000 0.0000 0.0000 -4.9082 0.0000
# 6 0.0000 0.0000 0.0000 0.0000 0.0000 5.3114
#
#
#
# Elastic Compliance Matrix: (Units=1/GPa)
#
#
# Indices 1 2 3 4 5 6 
#
# 1 0.039000 0.003239 0.000207 0.000000 0.000000 0.000000
# 2 0.003239 0.039000 0.000207 0.000000 0.000000 0.000000
# 3 0.000207 0.000207 0.008581 0.000000 0.000000 0.000000
# 4 0.000000 0.000000 0.000000 -0.203742 0.000000 0.000000
# 5 0.000000 0.000000 0.000000 0.000000 -0.203742 0.000000
# 6 0.000000 0.000000 0.000000 0.000000 0.000000 0.188274
#
#
# Mechanical properties :
#
#
# Convention : Reuss Voigt Hill
#
# Bulk Modulus (GPa) = 10.65129 17.96014 14.30571
# Shear Modulus (GPa) = -46.02415 10.53141 -17.74637
#
# Velocity S-wave (km/s) = -4.97133 2.37806 -3.08699
# Velocity P-wave (km/s) = 5.21849 4.14542 2.24144
#
# Compressibility (1/GPa) = 0.09388538
#
# Stress axis : x y z
#
# Youngs Moduli (GPa) = 25.64125 25.64125 116.53259
#
# Poissons Ratio (x) = -0.08306 -0.02407
# Poissons Ratio (y) = -0.08306 -0.02407
# Poissons Ratio (z) = -0.00530 -0.00530
#
# Static dielectric constant tensor:
#      x y z
#    x 1.653890 0.000000 0.000000 
#    y 0.000000 1.653890 0.000000 
#    z 0.000000 0.000000 1.668530 
# 
# From -- ./inp_files/5700.got.cif
#   From: 2010.05.17/outbox.cif.g08.bks.cpg/sg127_3_cif.got.tgz:5700.got - 2010.05.20 12:03:00.
