data_PCOD9564582
_publ_section_title
;
Structure prediction by ZEFSAII (Michael W. Deem and Ramdas Pophale) SiO2 
 PCOD9564582
Probable space group: P 4/M N C
;
_chemical_formula_sum "Si O2"
_cell_formula_units_Z 64
_cell_length_a 20.110380
_cell_length_b 20.110380
_cell_length_c 8.835373
_cell_angle_alpha 90.000000
_cell_angle_beta 90.000000
_cell_angle_gamma 90.000000
_cell_volume 3573.266787
_symmetry_space_group_name_H-M "P 4/M N C"
_symmetry_group_IT_number 128
_symmetry_cell_setting 'tetragonal'
loop_
_space_group_symop_operation_xyz
x,y,z
-y,x,z
-x,-y,z
y,-x,z
1/2+x,1/2-y,1/2-z
1/2-x,1/2+y,1/2-z
1/2+y,1/2+x,1/2-z
1/2-y,1/2-x,1/2-z
-x,-y,-z
y,-x,-z
x,y,-z
-y,x,-z
1/2-x,1/2+y,1/2+z
1/2+x,1/2-y,1/2+z
1/2-y,1/2-x,1/2+z
1/2+y,1/2+x,1/2+z
loop_
_atom_site_type_symbol
_atom_site_label
_atom_site_fract_x
_atom_site_fract_y
_atom_site_fract_z
Si Si1 0.251772 0.852205 0.181699
Si Si2 0.905629 0.496518 0.828913
Si Si3 0.146816 0.747755 0.316356
Si Si4 0.251268 0.494073 0.174308
O O1 0.320701 0.820701 0.250000
O O2 0.194859 0.805043 0.252176
O O3 0.234032 0.927849 0.229693
O O4 0.254775 0.846527 0.000000
O O5 0.943562 0.556439 0.750000
O O6 0.828288 0.505898 0.826723
O O7 0.929730 0.429730 0.750000
O O8 0.927710 0.493049 0.000000
O O9 0.179918 0.679918 0.250000
O O10 0.149230 0.744102 0.500000
O O11 0.070162 0.765087 0.274085
O O12 0.275377 0.486124 0.000000
#
# Coordination Sequence:
#
# PCOD9564582 Si02
#       4
#    16  16  16  16
#     4  11  22  36  56  80 109 143 180 223 267 316
#     4  10  19  30  44  66  98 133 168 203 245 299
#     4  10  20  36  57  80 110 143 178 221 267 320
#     4  10  21  35  53  77 103 136 176 217 264 316
#
# _framework density 17.910782000000001
#
# number of rings (size 3 to 8) (size 9 to 14) (size 15 to 20)
#    0.000    1.750    0.000    7.500    0.000    6.000 
#    0.000    0.000    0.000    0.750    0.000    5.250 
#    0.000    0.000    0.000    0.000    0.000    0.000 
#
# Total GULP energy -356624.939663 kJ/mol
# GULP energy per Si atom -5572.264682 kJ/mol
# Density = 1.787002 g / cm^3
# Si number density = 17.910782 Si / 1000 Ang^3
#
#
#
# Elastic Constant Matrix: (Units=GPa)
#
#
# Indices 1 2 3 4 5 6 
#
# 1 99.1480 25.6070 33.5971 0.0000 0.0000 0.0000
# 2 25.6070 99.1454 33.5960 0.0000 0.0000 0.0000
# 3 33.5971 33.5960 109.5069 0.0000 0.0000 0.0000
# 4 0.0000 0.0000 0.0000 59.5110 0.0000 0.0000
# 5 0.0000 0.0000 0.0000 0.0000 59.5985 0.0000
# 6 0.0000 0.0000 0.0000 0.0000 0.0000 23.9880
#
#
#
# Elastic Compliance Matrix: (Units=1/GPa)
#
#
# Indices 1 2 3 4 5 6 
#
# 1 0.011600 -0.001998 -0.002946 0.000000 0.000000 0.000000
# 2 -0.001998 0.011600 -0.002946 0.000000 0.000000 0.000000
# 3 -0.002946 -0.002946 0.010940 0.000000 0.000000 0.000000
# 4 0.000000 0.000000 0.000000 0.016804 0.000000 0.000000
# 5 0.000000 0.000000 0.000000 0.000000 0.016779 0.000000
# 6 0.000000 0.000000 0.000000 0.000000 0.000000 0.041688
#
#
# Mechanical properties :
#
#
# Convention : Reuss Voigt Hill
#
# Bulk Modulus (GPa) = 54.46491 54.82228 54.64359
# Shear Modulus (GPa) = 38.07777 42.95283 40.51530
#
# Velocity S-wave (km/s) = 4.61583 4.90241 4.76127
# Velocity P-wave (km/s) = 7.67351 7.91958 7.79752
#
# Compressibility (1/GPa) = 0.01836044
#
# Stress axis : x y z
#
# Youngs Moduli (GPa) = 86.20540 86.20357 91.41159
#
# Poissons Ratio (x) = 0.17221 0.26931
# Poissons Ratio (y) = 0.17222 0.26930
# Poissons Ratio (z) = 0.25397 0.25396
#
# Static dielectric constant tensor:
#      x y z
#    x 1.633410 0.000000 0.000000 
#    y 0.000000 1.633410 0.000000 
#    z 0.000000 0.000000 1.622700 
# 
# From -- ./inp_files/1011.got.cif
#   From: 2010.05.17/outbox.cif.g08.bks.cpg/sg128_1_cif.got.tgz:1011.got - 2010.05.20 12:07:25.
