data_PCOD9564083
_publ_section_title
;
Structure prediction by ZEFSAII (Michael W. Deem and Ramdas Pophale) SiO2 
 PCOD9564083
Probable space group: P 4/M B M
;
_chemical_formula_sum "Si O2"
_cell_formula_units_Z 104
_cell_length_a 17.657914
_cell_length_b 17.657914
_cell_length_c 19.064823
_cell_angle_alpha 90.000000
_cell_angle_beta 90.000000
_cell_angle_gamma 90.000000
_cell_volume 5944.448546
_symmetry_space_group_name_H-M "P 4/M B M"
_symmetry_group_IT_number 127
_symmetry_cell_setting 'tetragonal'
loop_
_space_group_symop_operation_xyz
x,y,z
-y,x,z
-x,-y,z
y,-x,z
1/2+x,1/2-y,-z
1/2-x,1/2+y,-z
1/2+y,1/2+x,-z
1/2-y,1/2-x,-z
-x,-y,-z
y,-x,-z
x,y,-z
-y,x,-z
1/2-x,1/2+y,z
1/2+x,1/2-y,z
1/2-y,1/2-x,z
1/2+y,1/2+x,z
loop_
_atom_site_type_symbol
_atom_site_label
_atom_site_fract_x
_atom_site_fract_y
_atom_site_fract_z
Si Si1 0.986479 0.873725 0.000000
Si Si2 0.179017 0.320984 0.081761
Si Si3 0.182565 0.562426 0.584116
Si Si4 0.702296 0.564705 0.861874
Si Si5 0.191602 0.691602 0.082254
Si Si6 0.167070 0.794189 0.337393
Si Si7 0.397954 0.769110 0.581777
Si Si8 0.702750 0.402460 0.183003
O O1 0.976515 0.821853 0.933218
O O2 0.064210 0.919605 0.000000
O O3 0.110958 0.279620 0.123359
O O4 0.243700 0.256301 0.077787
O O5 0.159943 0.340058 0.000000
O O6 0.178914 0.562968 0.500000
O O7 0.108883 0.608883 0.610317
O O8 0.255628 0.608526 0.609434
O O9 0.192634 0.475937 0.605931
O O10 0.705588 0.493313 0.810362
O O11 0.635497 0.624621 0.845144
O O12 0.231298 0.626137 0.129348
O O13 0.172603 0.672603 0.000000
O O14 0.238156 0.738156 0.334160
O O15 0.200363 0.871742 0.368646
O O16 0.132388 0.792691 0.260359
O O17 0.405603 0.744366 0.500000
O O18 0.332979 0.832979 0.582422
#
# Coordination Sequence:
#
# PCOD9564083 Si02
#       8
#     8   8  16  16   8  16  16  16
#     4  11  20  33  52  78 110 140 171 222 284 345
#     4   9  18  32  54  79 103 130 178 229 275 330
#     4   9  18  33  56  83 111 146 184 224 272 328
#     4  11  22  34  54  79 107 139 179 225 285 339
#     4   9  20  36  54  77 106 142 184 228 272 330
#     4  10  20  36  54  76 109 146 185 226 269 328
#     4   9  18  33  57  86 113 144 182 226 275 327
#     4  11  23  36  53  80 109 143 181 228 283 329
#
# _framework density 17.495315000000002
#
# number of rings (size 3 to 8) (size 9 to 14) (size 15 to 20)
#    0.000    2.077    3.077    0.462    4.308    2.462 
#    0.000    1.538    0.000    0.923    0.000    3.231 
#    0.000    0.000    0.000    0.000    0.000    0.000 
#
# Total GULP energy -579174.019928 kJ/mol
# GULP energy per Si atom -5568.980961 kJ/mol
# Density = 1.745550 g / cm^3
# Si number density = 17.495315 Si / 1000 Ang^3
#
#
#
# Elastic Constant Matrix: (Units=GPa)
#
#
# Indices 1 2 3 4 5 6 
#
# 1 76.0949 37.8776 27.8067 0.0000 0.0000 0.0000
# 2 37.8776 76.0949 27.8067 0.0000 0.0000 0.0000
# 3 27.8067 27.8067 24.4666 0.0000 0.0000 0.0000
# 4 0.0000 0.0000 0.0000 120.1750 0.0000 0.0000
# 5 0.0000 0.0000 0.0000 0.0000 120.1698 0.0000
# 6 0.0000 0.0000 0.0000 0.0000 0.0000 12.0940
#
#
#
# Elastic Compliance Matrix: (Units=1/GPa)
#
#
# Indices 1 2 3 4 5 6 
#
# 1 0.022932 -0.003234 -0.022387 0.000000 0.000000 0.000000
# 2 -0.003234 0.022932 -0.022387 0.000000 0.000000 0.000000
# 3 -0.022387 -0.022387 0.091759 0.000000 0.000000 0.000000
# 4 0.000000 0.000000 0.000000 0.008321 0.000000 0.000000
# 5 0.000000 0.000000 0.000000 0.000000 0.008322 0.000000
# 6 0.000000 0.000000 0.000000 0.000000 0.000000 0.082686
#
#
# Mechanical properties :
#
#
# Convention : Reuss Voigt Hill
#
# Bulk Modulus (GPa) = 24.03479 40.40428 32.21953
# Shear Modulus (GPa) = 14.41603 56.03212 35.22408
#
# Velocity S-wave (km/s) = 2.87364 5.66537 4.49190
# Velocity P-wave (km/s) = 4.97776 8.12033 6.73490
#
# Compressibility (1/GPa) = 0.04160636
#
# Stress axis : x y z
#
# Youngs Moduli (GPa) = 43.60718 43.60712 10.89816
#
# Poissons Ratio (x) = 0.14103 0.24398
# Poissons Ratio (y) = 0.14103 0.24398
# Poissons Ratio (z) = 0.97623 0.97623
#
# Static dielectric constant tensor:
#      x y z
#    x 1.620930 0.000000 0.000000 
#    y 0.000000 1.620930 0.000000 
#    z 0.000000 0.000000 1.648370 
# 
# From -- ./inp_files/5246.got.cif
#   From: 2010.05.17/outbox.cif.g08.bks.cpg/sg127_3_cif.got.tgz:5246.got - 2010.05.20 12:03:00.
