data_PCOD9564580
_publ_section_title
;
Structure prediction by ZEFSAII (Michael W. Deem and Ramdas Pophale) SiO2 
 PCOD9564580
Probable space group: P 4/M N C
;
_chemical_formula_sum "Si O2"
_cell_formula_units_Z 128
_cell_length_a 16.937902
_cell_length_b 16.937902
_cell_length_c 17.238160
_cell_angle_alpha 90.000000
_cell_angle_beta 90.000000
_cell_angle_gamma 90.000000
_cell_volume 4945.499234
_symmetry_space_group_name_H-M "P 4/M N C"
_symmetry_group_IT_number 128
_symmetry_cell_setting 'tetragonal'
loop_
_space_group_symop_operation_xyz
x,y,z
-y,x,z
-x,-y,z
y,-x,z
1/2+x,1/2-y,1/2-z
1/2-x,1/2+y,1/2-z
1/2+y,1/2+x,1/2-z
1/2-y,1/2-x,1/2-z
-x,-y,-z
y,-x,-z
x,y,-z
-y,x,-z
1/2-x,1/2+y,1/2+z
1/2+x,1/2-y,1/2+z
1/2-y,1/2-x,1/2+z
1/2+y,1/2+x,1/2+z
loop_
_atom_site_type_symbol
_atom_site_label
_atom_site_fract_x
_atom_site_fract_y
_atom_site_fract_z
Si Si1 0.549956 0.376038 0.413746
Si Si2 0.981079 0.382650 0.310184
Si Si3 0.368879 0.890077 0.585797
Si Si4 0.192873 0.967773 0.414098
Si Si5 0.881255 0.164258 0.325392
Si Si6 0.236728 0.003359 0.203424
Si Si7 0.671984 0.895007 0.088668
Si Si8 0.260094 0.760417 0.091044
O O1 0.598556 0.457360 0.412190
O O2 0.565430 0.339479 0.500000
O O3 0.556813 0.324426 0.335719
O O4 0.940125 0.440125 0.250000
O O5 0.055446 0.416789 0.356365
O O6 0.014277 0.304471 0.266759
O O7 0.906564 0.365547 0.367105
O O8 0.402838 0.892036 0.500000
O O9 0.281947 0.933498 0.583602
O O10 0.343552 0.801740 0.607225
O O11 0.159165 0.953848 0.500000
O O12 0.190820 0.059086 0.393592
O O13 0.141773 0.925593 0.346522
O O14 0.925165 0.189565 0.247011
O O15 0.799581 0.207774 0.344141
O O16 0.290087 0.031349 0.131297
O O17 0.743555 0.831871 0.092278
O O18 0.651398 0.908266 0.000000
O O19 0.282899 0.741943 0.000000
#
# Coordination Sequence:
#
# PCOD9564580 Si02
#       8
#    16  16  16  16  16  16  16  16
#     4   9  20  38  55  67  88 129 179 222 261 302
#     4  10  19  30  45  70  98 129 162 208 253 303
#     4   9  16  28  45  65  90 127 164 194 237 294
#     4  10  19  30  43  60  89 133 173 204 244 296
#     4  11  20  29  42  62  92 125 167 208 246 287
#     4  11  21  30  47  70  97 122 169 220 267 289
#     4  10  19  33  49  67  93 131 171 208 253 313
#     4   9  17  29  47  66  89 124 163 194 235 301
#
# _framework density 25.882117999999998
#
# number of rings (size 3 to 8) (size 9 to 14) (size 15 to 20)
#    0.000    2.125    2.500    3.000    1.750    2.250 
#    0.000    0.625    0.000    0.000    0.000    0.000 
#    0.000    0.000    0.000   37.125    0.000  270.125 
#
# Total GULP energy -715444.299557 kJ/mol
# GULP energy per Si atom -5589.408590 kJ/mol
# Density = 2.582321 g / cm^3
# Si number density = 25.882118 Si / 1000 Ang^3
#
#
#
# Elastic Constant Matrix: (Units=GPa)
#
#
# Indices 1 2 3 4 5 6 
#
# 1 71.5095 28.3696 35.6869 0.0000 0.0000 0.0000
# 2 28.3696 71.5095 35.6869 0.0000 0.0000 0.0000
# 3 35.6869 35.6869 150.9391 0.0000 0.0000 0.0000
# 4 0.0000 0.0000 0.0000 27.4511 0.0000 0.0000
# 5 0.0000 0.0000 0.0000 0.0000 27.4511 0.0000
# 6 0.0000 0.0000 0.0000 0.0000 0.0000 43.2556
#
#
#
# Elastic Compliance Matrix: (Units=1/GPa)
#
#
# Indices 1 2 3 4 5 6 
#
# 1 0.017614 -0.005566 -0.002848 0.000000 0.000000 0.000000
# 2 -0.005566 0.017614 -0.002848 0.000000 0.000000 0.000000
# 3 -0.002848 -0.002848 0.007972 0.000000 0.000000 0.000000
# 4 0.000000 0.000000 0.000000 0.036428 0.000000 0.000000
# 5 0.000000 0.000000 0.000000 0.000000 0.036428 0.000000
# 6 0.000000 0.000000 0.000000 0.000000 0.000000 0.023118
#
#
# Mechanical properties :
#
#
# Convention : Reuss Voigt Hill
#
# Bulk Modulus (GPa) = 48.37097 54.82719 51.59908
# Shear Modulus (GPa) = 29.65722 32.57922 31.11822
#
# Velocity S-wave (km/s) = 3.38872 3.55174 3.47119
# Velocity P-wave (km/s) = 5.83445 6.16841 6.00375
#
# Compressibility (1/GPa) = 0.02067356
#
# Stress axis : x y z
#
# Youngs Moduli (GPa) = 56.77301 56.77301 125.43720
#
# Poissons Ratio (x) = 0.31602 0.35730
# Poissons Ratio (y) = 0.31602 0.35730
# Poissons Ratio (z) = 0.16171 0.16171
#
# Static dielectric constant tensor:
#      x y z
#    x 2.084020 0.000000 0.000000 
#    y 0.000000 2.084020 0.000000 
#    z 0.000000 0.000000 2.034820 
# 
# From -- ./inp_files/5086.got.cif
#   From: 2010.05.17/outbox.cif.g08.bks.cpg/sg128_3_cif.got.tgz:5086.got - 2010.05.20 12:07:25.
