data_PCOD9564603
_publ_section_title
;
Structure prediction by ZEFSAII (Michael W. Deem and Ramdas Pophale) SiO2 
 PCOD9564603
Probable space group: P 4/M N C
;
_chemical_formula_sum "Si O2"
_cell_formula_units_Z 72
_cell_length_a 21.195846
_cell_length_b 21.195846
_cell_length_c 9.485148
_cell_angle_alpha 90.000000
_cell_angle_beta 90.000000
_cell_angle_gamma 90.000000
_cell_volume 4261.334465
_symmetry_space_group_name_H-M "P 4/M N C"
_symmetry_group_IT_number 128
_symmetry_cell_setting 'tetragonal'
loop_
_space_group_symop_operation_xyz
x,y,z
-y,x,z
-x,-y,z
y,-x,z
1/2+x,1/2-y,1/2-z
1/2-x,1/2+y,1/2-z
1/2+y,1/2+x,1/2-z
1/2-y,1/2-x,1/2-z
-x,-y,-z
y,-x,-z
x,y,-z
-y,x,-z
1/2-x,1/2+y,1/2+z
1/2+x,1/2-y,1/2+z
1/2-y,1/2-x,1/2+z
1/2+y,1/2+x,1/2+z
loop_
_atom_site_type_symbol
_atom_site_label
_atom_site_fract_x
_atom_site_fract_y
_atom_site_fract_z
Si Si1 0.976006 0.393375 0.658698
Si Si2 0.243666 0.906411 0.162727
Si Si3 0.684062 0.722350 0.669736
Si Si4 0.455718 0.232168 0.331037
Si Si5 0.385614 0.885614 0.250000
O O1 0.951264 0.451264 0.750000
O O2 0.951328 0.396157 0.500000
O O3 0.952315 0.332076 0.742777
O O4 0.051717 0.389899 0.656111
O O5 0.207267 0.846216 0.223850
O O6 0.318267 0.890961 0.174319
O O7 0.235538 0.978164 0.216117
O O8 0.224509 0.908617 0.000000
O O9 0.723960 0.776041 0.750000
O O10 0.696203 0.727213 0.500000
O O11 0.609254 0.730874 0.690431
O O12 0.461555 0.218984 0.500000
#
# Coordination Sequence:
#
# PCOD9564603 Si02
#       5
#    16  16  16  16   8
#     4  11  22  33  48  69  98 135 171 205 245 294
#     4   9  17  31  49  70  97 127 160 201 251 299
#     4  10  19  32  52  75  99 129 167 208 251 300
#     4   9  19  34  51  71  99 132 165 207 255 301
#     4  10  19  32  48  68  96 128 164 207 244 290
#
# _framework density 16.896115000000002
#
# number of rings (size 3 to 8) (size 9 to 14) (size 15 to 20)
#    0.000    2.222    1.111    2.333    0.000    6.222 
#    0.000    0.000    0.000    0.667    0.000    4.667 
#    0.000    0.000    0.000    7.778    0.000    7.778 
#
# Total GULP energy -400994.734061 kJ/mol
# GULP energy per Si atom -5569.371306 kJ/mol
# Density = 1.685766 g / cm^3
# Si number density = 16.896115 Si / 1000 Ang^3
#
#
#
# Elastic Constant Matrix: (Units=GPa)
#
#
# Indices 1 2 3 4 5 6 
#
# 1 106.1834 70.4419 27.6921 0.0000 0.0000 0.0000
# 2 70.4419 106.1796 27.6922 0.0000 0.0000 0.0000
# 3 27.6921 27.6922 57.3118 0.0000 0.0000 0.0000
# 4 0.0000 0.0000 0.0000 8.4920 0.0000 0.0000
# 5 0.0000 0.0000 0.0000 0.0000 8.4926 0.0000
# 6 0.0000 0.0000 0.0000 0.0000 0.0000 31.5485
#
#
#
# Elastic Compliance Matrix: (Units=1/GPa)
#
#
# Indices 1 2 3 4 5 6 
#
# 1 0.017326 -0.010654 -0.003224 0.000000 0.000000 0.000000
# 2 -0.010654 0.017327 -0.003224 0.000000 0.000000 0.000000
# 3 -0.003224 -0.003224 0.020564 0.000000 0.000000 0.000000
# 4 0.000000 0.000000 0.000000 0.117757 0.000000 0.000000
# 5 0.000000 0.000000 0.000000 0.000000 0.117750 0.000000
# 6 0.000000 0.000000 0.000000 0.000000 0.000000 0.031697
#
#
# Mechanical properties :
#
#
# Convention : Reuss Voigt Hill
#
# Bulk Modulus (GPa) = 47.58959 57.92523 52.75741
# Shear Modulus (GPa) = 13.75026 19.29654 16.52340
#
# Velocity S-wave (km/s) = 2.85583 3.38312 3.13060
# Velocity P-wave (km/s) = 6.25312 7.04402 6.66032
#
# Compressibility (1/GPa) = 0.02101300
#
# Stress axis : x y z
#
# Youngs Moduli (GPa) = 57.71634 57.71399 48.62828
#
# Poissons Ratio (x) = 0.61487 0.15678
# Poissons Ratio (y) = 0.61489 0.15680
# Poissons Ratio (z) = 0.18608 0.18609
#
# Static dielectric constant tensor:
#      x y z
#    x 1.589010 0.000000 0.000000 
#    y 0.000000 1.589010 0.000000 
#    z 0.000000 0.000000 1.646700 
# 
# From -- ./inp_files/1186.got.cif
#   From: 2010.05.17/outbox.cif.g08.bks.cpg/sg128_1_cif.got.tgz:1186.got - 2010.05.20 12:07:25.
