data_PCOD9564998
_publ_section_title
;
Structure prediction by ZEFSAII (Michael W. Deem and Ramdas Pophale) SiO2 
 PCOD9564998
Probable space group: P 4/M N C
;
_chemical_formula_sum "Si O2"
_cell_formula_units_Z 112
_cell_length_a 15.098178
_cell_length_b 15.098178
_cell_length_c 28.660801
_cell_angle_alpha 90.000000
_cell_angle_beta 90.000000
_cell_angle_gamma 90.000000
_cell_volume 6533.372288
_symmetry_space_group_name_H-M "P 4/M N C"
_symmetry_group_IT_number 128
_symmetry_cell_setting 'tetragonal'
loop_
_space_group_symop_operation_xyz
x,y,z
-y,x,z
-x,-y,z
y,-x,z
1/2+x,1/2-y,1/2-z
1/2-x,1/2+y,1/2-z
1/2+y,1/2+x,1/2-z
1/2-y,1/2-x,1/2-z
-x,-y,-z
y,-x,-z
x,y,-z
-y,x,-z
1/2-x,1/2+y,1/2+z
1/2+x,1/2-y,1/2+z
1/2-y,1/2-x,1/2+z
1/2+y,1/2+x,1/2+z
loop_
_atom_site_type_symbol
_atom_site_label
_atom_site_fract_x
_atom_site_fract_y
_atom_site_fract_z
Si Si1 0.075585 0.130696 0.693681
Si Si2 0.887847 0.702335 0.054481
Si Si3 0.948562 0.411693 0.943681
Si Si4 0.720669 0.615020 0.098292
Si Si5 0.872197 0.078190 0.796217
Si Si6 0.581028 0.374453 0.398938
Si Si7 0.423788 0.253973 0.943929
O O1 0.108084 0.192820 0.652196
O O2 0.099479 0.166530 0.745462
O O3 0.968903 0.116195 0.689791
O O4 0.817897 0.650748 0.086103
O O5 0.881764 0.806617 0.063531
O O6 0.986914 0.669984 0.066898
O O7 0.871346 0.680451 0.000000
O O8 0.847469 0.407340 0.927478
O O9 0.000000 0.500000 0.927517
O O10 0.943633 0.417455 0.000000
O O11 0.652790 0.681827 0.073642
O O12 0.714174 0.517451 0.076198
O O13 0.835991 0.102652 0.847105
O O14 0.972010 0.116210 0.796318
O O15 0.616839 0.474359 0.403012
O O16 0.426969 0.254774 0.000000
#
# Coordination Sequence:
#
# PCOD9564998 Si02
#       7
#    16  16  16  16  16  16  16
#     4   9  16  30  51  78 107 138 172 213 264 320
#     4  11  23  36  52  76 106 141 185 226 257 317
#     4   9  18  36  55  67  91 139 188 217 247 299
#     4  12  22  34  50  79 111 142 184 223 268 313
#     4   7  12  27  53  76 100 132 166 209 267 332
#     4   9  19  36  56  80 105 130 166 223 291 336
#     4  11  22  35  51  73 108 148 182 221 265 313
#
# _framework density 17.142754
#
# number of rings (size 3 to 8) (size 9 to 14) (size 15 to 20)
#    0.000    2.286    2.857    3.000    2.000    0.857 
#    0.000    2.143    0.000    0.000    0.000    1.000 
#    0.000    0.000    0.000    0.000    0.000    0.000 
#
# Total GULP energy -623908.292570 kJ/mol
# GULP energy per Si atom -5570.609755 kJ/mol
# Density = 1.710374 g / cm^3
# Si number density = 17.142754 Si / 1000 Ang^3
#
#
#
# Elastic Constant Matrix: (Units=GPa)
#
#
# Indices 1 2 3 4 5 6 
#
# 1 53.5388 19.9883 7.0596 0.0000 0.0000 0.0000
# 2 19.9883 53.5388 7.0596 0.0000 0.0000 0.0000
# 3 7.0596 7.0596 29.6368 0.0000 0.0000 0.0000
# 4 0.0000 0.0000 0.0000 16.3939 0.0000 0.0000
# 5 0.0000 0.0000 0.0000 0.0000 16.3939 0.0000
# 6 0.0000 0.0000 0.0000 0.0000 0.0000 16.1684
#
#
#
# Elastic Compliance Matrix: (Units=1/GPa)
#
#
# Indices 1 2 3 4 5 6 
#
# 1 0.022029 -0.007777 -0.003395 0.000000 0.000000 0.000000
# 2 -0.007777 0.022029 -0.003395 0.000000 0.000000 0.000000
# 3 -0.003395 -0.003395 0.035359 0.000000 0.000000 0.000000
# 4 0.000000 0.000000 0.000000 0.060998 0.000000 0.000000
# 5 0.000000 0.000000 0.000000 0.000000 0.060998 0.000000
# 6 0.000000 0.000000 0.000000 0.000000 0.000000 0.061849
#
#
# Mechanical properties :
#
#
# Convention : Reuss Voigt Hill
#
# Bulk Modulus (GPa) = 19.88701 22.76992 21.32847
# Shear Modulus (GPa) = 16.17296 16.63168 16.40232
#
# Velocity S-wave (km/s) = 3.07486 3.11816 3.09659
# Velocity P-wave (km/s) = 4.92264 5.12594 5.02532
#
# Compressibility (1/GPa) = 0.05028409
#
# Stress axis : x y z
#
# Youngs Moduli (GPa) = 45.39454 45.39454 28.28112
#
# Poissons Ratio (x) = 0.35302 0.09601
# Poissons Ratio (y) = 0.35302 0.09601
# Poissons Ratio (z) = 0.15411 0.15411
#
# Static dielectric constant tensor:
#      x y z
#    x 1.584580 0.000000 0.000000 
#    y 0.000000 1.584580 0.000000 
#    z 0.000000 0.000000 1.596500 
# 
# From -- ./inp_files/6906.got.cif
#   From: 2010.05.17/outbox.cif.g08.bks.cpg/sg128_4_cif.got.tgz:6906.got - 2010.05.20 12:07:25.
