data_PCOD9564708
_publ_section_title
;
Structure prediction by ZEFSAII (Michael W. Deem and Ramdas Pophale) SiO2 
 PCOD9564708
Probable space group: P 4/M N C
;
_chemical_formula_sum "Si O2"
_cell_formula_units_Z 80
_cell_length_a 18.782715
_cell_length_b 18.782715
_cell_length_c 12.951793
_cell_angle_alpha 90.000000
_cell_angle_beta 90.000000
_cell_angle_gamma 90.000000
_cell_volume 4569.268010
_symmetry_space_group_name_H-M "P 4/M N C"
_symmetry_group_IT_number 128
_symmetry_cell_setting 'tetragonal'
loop_
_space_group_symop_operation_xyz
x,y,z
-y,x,z
-x,-y,z
y,-x,z
1/2+x,1/2-y,1/2-z
1/2-x,1/2+y,1/2-z
1/2+y,1/2+x,1/2-z
1/2-y,1/2-x,1/2-z
-x,-y,-z
y,-x,-z
x,y,-z
-y,x,-z
1/2-x,1/2+y,1/2+z
1/2+x,1/2-y,1/2+z
1/2-y,1/2-x,1/2+z
1/2+y,1/2+x,1/2+z
loop_
_atom_site_type_symbol
_atom_site_label
_atom_site_fract_x
_atom_site_fract_y
_atom_site_fract_z
Si Si1 0.762668 0.618635 0.774386
Si Si2 0.455353 0.072126 0.886907
Si Si3 0.474870 0.184290 0.701922
Si Si4 0.194311 0.100104 0.500000
Si Si5 0.929389 0.786719 0.500000
Si Si6 0.349994 0.267956 0.224488
O O1 0.823287 0.676714 0.750000
O O2 0.782850 0.552476 0.703119
O O3 0.755152 0.593146 0.894562
O O4 0.688248 0.657840 0.751213
O O5 0.469548 0.133097 0.803689
O O6 0.372946 0.048575 0.882606
O O7 0.500000 0.000000 0.866498
O O8 0.474934 0.098676 0.000000
O O9 0.419477 0.247958 0.712119
O O10 0.117077 0.139723 0.500000
O O11 0.231701 0.128527 0.396071
O O12 0.196623 0.014017 0.500000
O O13 0.293871 0.206130 0.250000
#
# Coordination Sequence:
#
# PCOD9564708 Si02
#       6
#    16  16  16   8   8  16
#     4  10  21  35  52  77 106 140 179 217 261 319
#     4  10  21  33  51  79 105 133 172 213 264 324
#     4  11  19  34  54  72 104 142 172 215 267 312
#     4  10  20  35  56  81 105 139 178 216 280 316
#     4  10  20  35  58  79 107 141 172 226 270 326
#     4  10  20  34  53  76 103 140 182 216 260 319
#
# _framework density 17.508274
#
# number of rings (size 3 to 8) (size 9 to 14) (size 15 to 20)
#    0.000    1.800    4.000    2.400    2.800    0.200 
#    1.800    0.000    0.000    0.600    0.000    0.000 
#    0.000    0.000    0.000    1.800    0.000   11.600 
#
# Total GULP energy -445859.446891 kJ/mol
# GULP energy per Si atom -5573.243086 kJ/mol
# Density = 1.746842 g / cm^3
# Si number density = 17.508274 Si / 1000 Ang^3
#
#
#
# Elastic Constant Matrix: (Units=GPa)
#
#
# Indices 1 2 3 4 5 6 
#
# 1 95.5008 43.9532 15.1589 0.0000 0.0000 0.0000
# 2 43.9532 95.5013 15.1581 0.0000 0.0000 0.0000
# 3 15.1589 15.1581 55.6432 0.0000 0.0000 0.0000
# 4 0.0000 0.0000 0.0000 -6.6411 0.0000 0.0000
# 5 0.0000 0.0000 0.0000 0.0000 -6.6634 0.0000
# 6 0.0000 0.0000 0.0000 0.0000 0.0000 31.5861
#
#
#
# Elastic Compliance Matrix: (Units=1/GPa)
#
#
# Indices 1 2 3 4 5 6 
#
# 1 0.013511 -0.005889 -0.002077 0.000000 0.000000 0.000000
# 2 -0.005889 0.013511 -0.002076 0.000000 0.000000 0.000000
# 3 -0.002077 -0.002076 0.019103 0.000000 0.000000 0.000000
# 4 0.000000 0.000000 0.000000 -0.150577 0.000000 0.000000
# 5 0.000000 0.000000 0.000000 0.000000 -0.150074 0.000000
# 6 0.000000 0.000000 0.000000 0.000000 0.000000 0.031659
#
#
# Mechanical properties :
#
#
# Convention : Reuss Voigt Hill
#
# Bulk Modulus (GPa) = 38.40014 43.90953 41.15484
# Shear Modulus (GPa) = -25.75950 15.14800 -5.30575
#
# Velocity S-wave (km/s) = -3.83988 2.94460 -1.74270
# Velocity P-wave (km/s) = 1.52335 6.05761 4.41674
#
# Compressibility (1/GPa) = 0.02604157
#
# Stress axis : x y z
#
# Youngs Moduli (GPa) = 74.01423 74.01500 52.34782
#
# Poissons Ratio (x) = 0.43585 0.10871
# Poissons Ratio (y) = 0.43584 0.10869
# Poissons Ratio (z) = 0.15370 0.15368
#
# Static dielectric constant tensor:
#      x y z
#    x 1.606210 0.000000 0.000000 
#    y 0.000000 1.606210 0.000000 
#    z 0.000000 0.000000 1.611220 
# 
# From -- ./inp_files/3781.got.cif
#   From: 2010.05.17/outbox.cif.g08.bks.cpg/sg128_2_cif.got.tgz:3781.got - 2010.05.20 12:07:25.
