data_PCOD9564573
_publ_section_title
;
Structure prediction by ZEFSAII (Michael W. Deem and Ramdas Pophale) SiO2 
 PCOD9564573
Probable space group: P 4/M N C
;
_chemical_formula_sum "Si O2"
_cell_formula_units_Z 60
_cell_length_a 16.247538
_cell_length_b 16.247538
_cell_length_c 9.863468
_cell_angle_alpha 90.000000
_cell_angle_beta 90.000000
_cell_angle_gamma 90.000000
_cell_volume 2603.782853
_symmetry_space_group_name_H-M "P 4/M N C"
_symmetry_group_IT_number 128
_symmetry_cell_setting 'tetragonal'
loop_
_space_group_symop_operation_xyz
x,y,z
-y,x,z
-x,-y,z
y,-x,z
1/2+x,1/2-y,1/2-z
1/2-x,1/2+y,1/2-z
1/2+y,1/2+x,1/2-z
1/2-y,1/2-x,1/2-z
-x,-y,-z
y,-x,-z
x,y,-z
-y,x,-z
1/2-x,1/2+y,1/2+z
1/2+x,1/2-y,1/2+z
1/2-y,1/2-x,1/2+z
1/2+y,1/2+x,1/2+z
loop_
_atom_site_type_symbol
_atom_site_label
_atom_site_fract_x
_atom_site_fract_y
_atom_site_fract_z
Si Si1 0.763386 0.323752 0.000000
Si Si2 0.000000 0.000000 0.500000
Si Si3 0.972008 0.194674 0.000000
Si Si4 0.500000 0.500000 0.500000
Si Si5 0.460009 0.217284 0.218070
Si Si6 0.609355 0.109355 0.250000
Si Si7 0.817258 0.065506 0.500000
Si Si8 0.648219 0.226094 0.500000
O O1 0.790504 0.378038 0.128473
O O2 0.663875 0.313684 0.000000
O O3 0.783515 0.227901 0.000000
O O4 0.048547 0.087033 0.500000
O O5 0.943256 0.238840 0.860832
O O6 0.068783 0.217573 0.000000
O O7 0.965615 0.096412 0.000000
O O8 0.513724 0.133909 0.233354
O O9 0.521857 0.275563 0.129838
O O10 0.641026 0.164618 0.373848
#
# Coordination Sequence:
#
# PCOD9564573 Si02
#       8
#     8   2   8   2  16   8   8   8
#     4  11  20  36  60  86 120 163 231 263 315 385
#     4  12  20  30  52  78 124 158 208 254 296 382
#     4  10  26  38  54  84 130 176 210 253 332 389
#     4  12  28  38  52  78 140 170 196 238 316 426
#     4  10  21  35  55  85 122 170 216 260 319 387
#     4  10  18  36  56  84 124 174 208 266 326 382
#     4  11  20  30  52  80 116 170 211 255 308 380
#     4  10  20  36  60  82 122 172 216 273 311 387
#
# _framework density 23.043396000000001
#
# number of rings (size 3 to 8) (size 9 to 14) (size 15 to 20)
#    0.000    1.600    5.333    0.800    3.733    1.067 
#    0.000    0.000    0.000    0.000    0.000    0.000 
#    0.000   50.133    0.000    0.000    0.000    0.000 
#
# Total GULP energy -334524.824973 kJ/mol
# GULP energy per Si atom -5575.413750 kJ/mol
# Density = 2.299095 g / cm^3
# Si number density = 23.043396 Si / 1000 Ang^3
#
#
#
# Elastic Constant Matrix: (Units=GPa)
#
#
# Indices 1 2 3 4 5 6 
#
# 1 103.1013 9.3557 46.4929 0.0000 0.0000 0.0000
# 2 9.3557 103.1013 46.4929 0.0000 0.0000 0.0000
# 3 46.4929 46.4929 173.6427 0.0000 0.0000 0.0000
# 4 0.0000 0.0000 0.0000 16.9873 0.0000 0.0000
# 5 0.0000 0.0000 0.0000 0.0000 16.9873 0.0000
# 6 0.0000 0.0000 0.0000 0.0000 0.0000 36.2148
#
#
#
# Elastic Compliance Matrix: (Units=1/GPa)
#
#
# Indices 1 2 3 4 5 6 
#
# 1 0.011044 0.000377 -0.003058 0.000000 0.000000 0.000000
# 2 0.000377 0.011044 -0.003058 0.000000 0.000000 0.000000
# 3 -0.003058 -0.003058 0.007396 0.000000 0.000000 0.000000
# 4 0.000000 0.000000 0.000000 0.058867 0.000000 0.000000
# 5 0.000000 0.000000 0.000000 0.000000 0.058867 0.000000
# 6 0.000000 0.000000 0.000000 0.000000 0.000000 0.027613
#
#
# Mechanical properties :
#
#
# Convention : Reuss Voigt Hill
#
# Bulk Modulus (GPa) = 55.53611 64.94761 60.24186
# Shear Modulus (GPa) = 25.99934 32.53812 29.26873
#
# Velocity S-wave (km/s) = 3.36263 3.76178 3.56779
# Velocity P-wave (km/s) = 6.26333 6.86397 6.57052
#
# Compressibility (1/GPa) = 0.01800630
#
# Stress axis : x y z
#
# Youngs Moduli (GPa) = 90.54727 90.54727 135.19968
#
# Poissons Ratio (x) = -0.03412 0.41343
# Poissons Ratio (y) = -0.03412 0.41343
# Poissons Ratio (z) = 0.27689 0.27689
#
# Static dielectric constant tensor:
#      x y z
#    x 1.875700 0.000000 0.000000 
#    y 0.000000 1.875700 0.000000 
#    z 0.000000 0.000000 1.822970 
# 
# From -- ./inp_files/879.got.cif
#   From: 2010.05.17/outbox.cif.g08.bks.cpg/sg128_1_cif.got.tgz:879.got - 2010.05.20 12:07:25.
