data_PCOD9564220
_publ_section_title
;
Structure prediction by ZEFSAII (Michael W. Deem and Ramdas Pophale) SiO2 
 PCOD9564220
Probable space group: P 4/M B M
;
_chemical_formula_sum "Si O2"
_cell_formula_units_Z 72
_cell_length_a 20.775187
_cell_length_b 20.775187
_cell_length_c 7.222780
_cell_angle_alpha 90.000000
_cell_angle_beta 90.000000
_cell_angle_gamma 90.000000
_cell_volume 3117.412482
_symmetry_space_group_name_H-M "P 4/M B M"
_symmetry_group_IT_number 127
_symmetry_cell_setting 'tetragonal'
loop_
_space_group_symop_operation_xyz
x,y,z
-y,x,z
-x,-y,z
y,-x,z
1/2+x,1/2-y,-z
1/2-x,1/2+y,-z
1/2+y,1/2+x,-z
1/2-y,1/2-x,-z
-x,-y,-z
y,-x,-z
x,y,-z
-y,x,-z
1/2-x,1/2+y,z
1/2+x,1/2-y,z
1/2-y,1/2-x,z
1/2+y,1/2+x,z
loop_
_atom_site_type_symbol
_atom_site_label
_atom_site_fract_x
_atom_site_fract_y
_atom_site_fract_z
Si Si1 0.298766 0.201235 0.725915
Si Si2 0.583280 0.438783 0.725046
Si Si3 0.793159 0.545154 0.277954
Si Si4 0.503797 0.895822 0.000000
Si Si5 0.279111 0.579357 0.275770
Si Si6 0.306832 0.806832 0.275571
O O1 0.300193 0.199808 0.500000
O O2 0.273234 0.131468 0.786731
O O3 0.245604 0.254397 0.781415
O O4 0.586538 0.513731 0.781765
O O5 0.582367 0.436930 0.500000
O O6 0.648440 0.404102 0.784241
O O7 0.799450 0.544937 0.500000
O O8 0.737293 0.494451 0.227839
O O9 0.789293 0.619867 0.219923
O O10 0.854070 0.513180 0.179282
O O11 0.574549 0.925452 0.000000
O O12 0.453649 0.953649 0.000000
O O13 0.278692 0.581839 0.500000
O O14 0.306362 0.806362 0.500000
#
# Coordination Sequence:
#
# PCOD9564220 Si02
#       6
#     8  16  16   8  16   8
#     4   9  18  30  47  78 115 150 190 236 292 350
#     4   8  14  24  40  68 106 143 185 236 284 338
#     4  10  21  38  60  86 115 152 197 240 289 347
#     4  11  24  40  60  84 114 151 190 242 296 338
#     4   9  18  29  48  77 112 150 189 237 289 343
#     4   9  18  33  55  82 113 150 194 242 287 343
#
# _framework density 23.096077999999999
#
# number of rings (size 3 to 8) (size 9 to 14) (size 15 to 20)
#    0.000    2.778    1.111    0.667    4.667    0.444 
#    0.000    1.111    0.000    2.667    0.000    0.000 
#    0.000    1.778    0.000    0.222    0.000    0.000 
#
# Total GULP energy -401948.732049 kJ/mol
# GULP energy per Si atom -5582.621278 kJ/mol
# Density = 2.304351 g / cm^3
# Si number density = 23.096078 Si / 1000 Ang^3
#
#
#
# Elastic Constant Matrix: (Units=GPa)
#
#
# Indices 1 2 3 4 5 6 
#
# 1 90.4574 48.1047 -1.7841 0.0000 0.0000 0.0000
# 2 48.1047 90.4581 -1.7840 0.0000 0.0000 0.0000
# 3 -1.7841 -1.7840 100.2673 0.0000 0.0000 0.0000
# 4 0.0000 0.0000 0.0000 -66.2608 0.0000 0.0000
# 5 0.0000 0.0000 0.0000 0.0000 -66.3232 0.0000
# 6 0.0000 0.0000 0.0000 0.0000 0.0000 35.1075
#
#
#
# Elastic Compliance Matrix: (Units=1/GPa)
#
#
# Indices 1 2 3 4 5 6 
#
# 1 0.015416 -0.008195 0.000128 0.000000 0.000000 0.000000
# 2 -0.008195 0.015416 0.000128 0.000000 0.000000 0.000000
# 3 0.000128 0.000128 0.009978 0.000000 0.000000 0.000000
# 4 0.000000 0.000000 0.000000 -0.015092 0.000000 0.000000
# 5 0.000000 0.000000 0.000000 0.000000 -0.015078 0.000000
# 6 0.000000 0.000000 0.000000 0.000000 0.000000 0.028484
#
#
# Mechanical properties :
#
#
# Convention : Reuss Voigt Hill
#
# Bulk Modulus (GPa) = 40.10856 41.13956 40.62406
# Shear Modulus (GPa) = 78.97483 -3.71890 37.62796
#
# Velocity S-wave (km/s) = 5.85391 -1.27031 4.04070
# Velocity P-wave (km/s) = 7.94322 3.96225 6.27671
#
# Compressibility (1/GPa) = 0.02493233
#
# Stress axis : x y z
#
# Youngs Moduli (GPa) = 64.86887 64.86939 100.22138
#
# Poissons Ratio (x) = 0.53163 -0.01288
# Poissons Ratio (y) = 0.53163 -0.01287
# Poissons Ratio (z) = -0.00833 -0.00833
#
# Static dielectric constant tensor:
#      x y z
#    x 1.854890 0.000000 0.000000 
#    y 0.000000 1.854880 0.000000 
#    z 0.000000 0.000000 1.932350 
# 
# From -- ./inp_files/1652.got.cif
#   From: 2010.05.17/outbox.cif.g08.bks.cpg/sg127_1_cif.got.tgz:1652.got - 2010.05.20 12:03:00.
