data_PCOD9564939
_publ_section_title
;
Structure prediction by ZEFSAII (Michael W. Deem and Ramdas Pophale) SiO2 
 PCOD9564939
Probable space group: P 4/M N C
;
_chemical_formula_sum "Si O2"
_cell_formula_units_Z 64
_cell_length_a 14.694206
_cell_length_b 14.694206
_cell_length_c 13.978382
_cell_angle_alpha 90.000000
_cell_angle_beta 90.000000
_cell_angle_gamma 90.000000
_cell_volume 3018.207908
_symmetry_space_group_name_H-M "P 4/M N C"
_symmetry_group_IT_number 128
_symmetry_cell_setting 'tetragonal'
loop_
_space_group_symop_operation_xyz
x,y,z
-y,x,z
-x,-y,z
y,-x,z
1/2+x,1/2-y,1/2-z
1/2-x,1/2+y,1/2-z
1/2+y,1/2+x,1/2-z
1/2-y,1/2-x,1/2-z
-x,-y,-z
y,-x,-z
x,y,-z
-y,x,-z
1/2-x,1/2+y,1/2+z
1/2+x,1/2-y,1/2+z
1/2-y,1/2-x,1/2+z
1/2+y,1/2+x,1/2+z
loop_
_atom_site_type_symbol
_atom_site_label
_atom_site_fract_x
_atom_site_fract_y
_atom_site_fract_z
Si Si1 0.043075 0.852396 0.893593
Si Si2 0.533513 0.226634 0.254425
Si Si3 0.937301 0.588731 0.609626
Si Si4 0.575369 0.365673 0.891154
O O1 0.045229 0.779079 0.810800
O O2 0.107392 0.940046 0.886241
O O3 0.054910 0.813288 0.000000
O O4 0.576431 0.157686 0.332833
O O5 0.504917 0.163551 0.166424
O O6 0.597156 0.298389 0.196404
O O7 0.919361 0.611388 0.500000
O O8 0.000000 0.500000 0.613746
O O9 0.618302 0.466027 0.882881
O O10 0.594583 0.333110 0.000000
#
# Coordination Sequence:
#
# PCOD9564939 Si02
#       4
#    16  16  16  16
#     4   9  18  32  53  85 120 149 175 206 254 320
#     4  11  18  31  58  82 100 136 183 226 267 320
#     4  10  23  41  58  75  97 136 191 243 284 317
#     4   9  18  32  53  85 120 149 175 206 254 320
#
# _framework density 21.204635
#
# number of rings (size 3 to 8) (size 9 to 14) (size 15 to 20)
#    0.000    2.250    0.000    6.000    0.000    2.000 
#    0.000    0.000   44.000    0.000    0.000    0.000 
#    0.000    0.000    0.000    0.000    0.000    0.000 
#
# Total GULP energy -356587.410400 kJ/mol
# GULP energy per Si atom -5571.678288 kJ/mol
# Density = 2.115637 g / cm^3
# Si number density = 21.204635 Si / 1000 Ang^3
#
#
#
# Elastic Constant Matrix: (Units=GPa)
#
#
# Indices 1 2 3 4 5 6 
#
# 1 59.0665 1.6445 37.3305 0.0000 0.0000 0.0000
# 2 1.6445 59.0665 37.3305 0.0000 0.0000 0.0000
# 3 37.3305 37.3305 185.9109 0.0000 0.0000 0.0000
# 4 0.0000 0.0000 0.0000 15.9080 0.0000 0.0000
# 5 0.0000 0.0000 0.0000 0.0000 15.9080 0.0000
# 6 0.0000 0.0000 0.0000 0.0000 0.0000 8.9770
#
#
#
# Elastic Compliance Matrix: (Units=1/GPa)
#
#
# Indices 1 2 3 4 5 6 
#
# 1 0.019644 0.002229 -0.004392 0.000000 0.000000 0.000000
# 2 0.002229 0.019644 -0.004392 0.000000 0.000000 0.000000
# 3 -0.004392 -0.004392 0.007143 0.000000 0.000000 0.000000
# 4 0.000000 0.000000 0.000000 0.062861 0.000000 0.000000
# 5 0.000000 0.000000 0.000000 0.000000 0.062861 0.000000
# 6 0.000000 0.000000 0.000000 0.000000 0.000000 0.111396
#
#
# Mechanical properties :
#
#
# Convention : Reuss Voigt Hill
#
# Bulk Modulus (GPa) = 30.01193 50.73944 40.37568
# Shear Modulus (GPa) = 16.24610 23.34114 19.79362
#
# Velocity S-wave (km/s) = 2.77096 3.32136 3.05857
# Velocity P-wave (km/s) = 4.94184 6.22005 5.61742
#
# Compressibility (1/GPa) = 0.03332009
#
# Stress axis : x y z
#
# Youngs Moduli (GPa) = 50.90665 50.90665 140.00267
#
# Poissons Ratio (x) = -0.11346 0.61489
# Poissons Ratio (y) = -0.11346 0.61489
# Poissons Ratio (z) = 0.22358 0.22358
#
# Static dielectric constant tensor:
#      x y z
#    x 1.818790 0.000000 0.000000 
#    y 0.000000 1.818790 0.000000 
#    z 0.000000 0.000000 1.814030 
# 
# From -- ./inp_files/3498.got.cif
#   From: 2010.05.17/outbox.cif.g08.bks.cpg/sg128_2_cif.got.tgz:3498.got - 2010.05.20 12:07:25.
