data_PCOD9564915
_publ_section_title
;
Structure prediction by ZEFSAII (Michael W. Deem and Ramdas Pophale) SiO2 
 PCOD9564915
Probable space group: P 4/M N C
;
_chemical_formula_sum "Si O2"
_cell_formula_units_Z 120
_cell_length_a 19.303072
_cell_length_b 19.303072
_cell_length_c 14.922205
_cell_angle_alpha 90.000000
_cell_angle_beta 90.000000
_cell_angle_gamma 90.000000
_cell_volume 5560.141744
_symmetry_space_group_name_H-M "P 4/M N C"
_symmetry_group_IT_number 128
_symmetry_cell_setting 'tetragonal'
loop_
_space_group_symop_operation_xyz
x,y,z
-y,x,z
-x,-y,z
y,-x,z
1/2+x,1/2-y,1/2-z
1/2-x,1/2+y,1/2-z
1/2+y,1/2+x,1/2-z
1/2-y,1/2-x,1/2-z
-x,-y,-z
y,-x,-z
x,y,-z
-y,x,-z
1/2-x,1/2+y,1/2+z
1/2+x,1/2-y,1/2+z
1/2-y,1/2-x,1/2+z
1/2+y,1/2+x,1/2+z
loop_
_atom_site_type_symbol
_atom_site_label
_atom_site_fract_x
_atom_site_fract_y
_atom_site_fract_z
Si Si1 0.113213 0.450254 0.106129
Si Si2 0.186373 0.464127 0.604698
Si Si3 0.364473 0.249573 0.900431
Si Si4 0.276603 0.479051 0.105222
Si Si5 0.580549 0.583913 0.400342
Si Si6 0.901100 0.397967 0.147368
Si Si7 0.401271 0.699646 0.721665
Si Si8 0.755022 0.744979 0.250000
O O1 0.084358 0.377012 0.139145
O O2 0.195488 0.458824 0.118722
O O3 0.079857 0.520786 0.142836
O O4 0.098789 0.450483 0.000000
O O5 0.201550 0.448830 0.500000
O O6 0.152744 0.539772 0.613476
O O7 0.254745 0.455736 0.664204
O O8 0.438446 0.285182 0.876815
O O9 0.386195 0.169112 0.905937
O O10 0.303646 0.251746 0.827501
O O11 0.342384 0.273496 0.000000
O O12 0.313056 0.431623 0.179393
O O13 0.293253 0.467001 0.000000
O O14 0.498680 0.593405 0.392965
O O15 0.601898 0.606800 0.500000
O O16 0.627332 0.616779 0.325058
O O17 0.883599 0.383599 0.250000
O O18 0.332146 0.744690 0.715127
#
# Coordination Sequence:
#
# PCOD9564915 Si02
#       8
#    16  16  16  16  16  16  16   8
#     4   9  18  33  51  75 118 168 212 253 298 350
#     4  11  22  34  52  86 127 166 209 258 312 372
#     4  10  22  42  64  86 124 166 208 260 316 381
#     4   9  20  40  63  85 118 170 218 259 311 379
#     4   9  21  44  71  98 128 164 210 268 337 404
#     4  11  20  33  56  84 117 159 218 261 296 359
#     4  12  25  38  65  93 131 166 212 268 331 401
#     4  12  28  42  60 100 132 164 212 262 340 400
#
# _framework density 21.582184999999999
#
# number of rings (size 3 to 8) (size 9 to 14) (size 15 to 20)
#    0.000    1.733    0.667    5.600    1.867    4.800 
#    0.000    1.333    0.000    0.000    0.000    0.933 
#    0.000    0.000    0.000    0.000    0.000    0.000 
#
# Total GULP energy -670248.259665 kJ/mol
# GULP energy per Si atom -5585.402164 kJ/mol
# Density = 2.153306 g / cm^3
# Si number density = 21.582185 Si / 1000 Ang^3
#
#
#
# Elastic Constant Matrix: (Units=GPa)
#
#
# Indices 1 2 3 4 5 6 
#
# 1 44.0891 -10.7466 10.7513 0.0000 0.0000 0.0000
# 2 -10.7466 44.0903 10.7541 0.0000 0.0000 0.0000
# 3 10.7513 10.7541 54.6533 0.0000 0.0000 0.0000
# 4 0.0000 0.0000 0.0000 12.8186 0.0000 0.0000
# 5 0.0000 0.0000 0.0000 0.0000 12.8188 0.0000
# 6 0.0000 0.0000 0.0000 0.0000 0.0000 24.0512
#
#
#
# Elastic Compliance Matrix: (Units=1/GPa)
#
#
# Indices 1 2 3 4 5 6 
#
# 1 0.026293 0.008057 -0.006758 0.000000 0.000000 0.000000
# 2 0.008057 0.026293 -0.006759 0.000000 0.000000 0.000000
# 3 -0.006758 -0.006759 0.020956 0.000000 0.000000 0.000000
# 4 0.000000 0.000000 0.000000 0.078012 0.000000 0.000000
# 5 0.000000 0.000000 0.000000 0.000000 0.078010 0.000000
# 6 0.000000 0.000000 0.000000 0.000000 0.000000 0.041578
#
#
# Mechanical properties :
#
#
# Convention : Reuss Voigt Hill
#
# Bulk Modulus (GPa) = 15.96837 18.26115 17.11476
# Shear Modulus (GPa) = 16.50512 18.74263 17.62387
#
# Velocity S-wave (km/s) = 2.76842 2.95011 2.86071
# Velocity P-wave (km/s) = 4.19926 4.48149 4.34267
#
# Compressibility (1/GPa) = 0.06262381
#
# Stress axis : x y z
#
# Youngs Moduli (GPa) = 38.03278 38.03292 47.71806
#
# Poissons Ratio (x) = -0.30643 0.32246
# Poissons Ratio (y) = -0.30643 0.32251
# Poissons Ratio (z) = 0.25701 0.25705
#
# Static dielectric constant tensor:
#      x y z
#    x 1.800300 0.000000 0.000000 
#    y 0.000000 1.800300 0.000000 
#    z 0.000000 0.000000 1.831550 
# 
# From -- ./inp_files/4102.got.cif
#   From: 2010.05.17/outbox.cif.g08.bks.cpg/sg128_3_cif.got.tgz:4102.got - 2010.05.20 12:07:25.
