data_PCOD9564310
_publ_section_title
;
Structure prediction by ZEFSAII (Michael W. Deem and Ramdas Pophale) SiO2 
 PCOD9564310
Probable space group: P 4/M B M
;
_chemical_formula_sum "Si O2"
_cell_formula_units_Z 58
_cell_length_a 15.121557
_cell_length_b 15.121557
_cell_length_c 14.092864
_cell_angle_alpha 90.000000
_cell_angle_beta 90.000000
_cell_angle_gamma 90.000000
_cell_volume 3222.495226
_symmetry_space_group_name_H-M "P 4/M B M"
_symmetry_group_IT_number 127
_symmetry_cell_setting 'tetragonal'
loop_
_space_group_symop_operation_xyz
x,y,z
-y,x,z
-x,-y,z
y,-x,z
1/2+x,1/2-y,-z
1/2-x,1/2+y,-z
1/2+y,1/2+x,-z
1/2-y,1/2-x,-z
-x,-y,-z
y,-x,-z
x,y,-z
-y,x,-z
1/2-x,1/2+y,z
1/2+x,1/2-y,z
1/2-y,1/2-x,z
1/2+y,1/2+x,z
loop_
_atom_site_type_symbol
_atom_site_label
_atom_site_fract_x
_atom_site_fract_y
_atom_site_fract_z
Si Si1 0.882846 0.905239 0.500000
Si Si2 0.305101 0.652656 0.296748
Si Si3 0.758050 0.539250 0.239979
Si Si4 0.073895 0.426106 0.886870
Si Si5 0.627051 0.127051 0.397996
Si Si6 0.500000 0.000000 0.500000
O O1 0.836519 0.869579 0.595654
O O2 0.987092 0.879562 0.500000
O O3 0.231566 0.731566 0.296196
O O4 0.389821 0.679182 0.232126
O O5 0.266828 0.561603 0.255699
O O6 0.832389 0.548554 0.159838
O O7 0.800381 0.578078 0.336827
O O8 0.000000 0.500000 0.862444
O O9 0.079683 0.420318 0.000000
O O10 0.660356 0.160356 0.500000
O O11 0.554362 0.054362 0.420293
#
# Coordination Sequence:
#
# PCOD9564310 Si02
#       6
#     8  16  16   8   8   2
#     4  11  23  38  56  84 127 187 228 260 309 375
#     4  12  24  39  61  89 129 177 221 271 314 378
#     4  11  24  40  62  93 128 165 217 262 325 388
#     4  10  22  46  75  99 126 158 208 281 348 398
#     4   9  21  35  51  84 121 161 211 266 307 359
#     4   8  20  28  56  72 110 168 204 250 318 340
#
# _framework density 17.998474999999999
#
# number of rings (size 3 to 8) (size 9 to 14) (size 15 to 20)
#    0.414    0.828    5.517    1.241    9.655    0.552 
#    0.000    1.379    0.000    0.000    0.000    1.931 
#    0.000    0.000    0.000    0.000    0.000    0.000 
#
# Total GULP energy -323001.134927 kJ/mol
# GULP energy per Si atom -5568.985085 kJ/mol
# Density = 1.795751 g / cm^3
# Si number density = 17.998475 Si / 1000 Ang^3
#
#
#
# Elastic Constant Matrix: (Units=GPa)
#
#
# Indices 1 2 3 4 5 6 
#
# 1 136.7984 44.1360 38.4365 0.0000 0.0000 0.0000
# 2 44.1360 136.7977 38.4360 0.0000 0.0000 0.0000
# 3 38.4365 38.4360 83.4413 0.0000 0.0000 0.0000
# 4 0.0000 0.0000 0.0000 3.6114 0.0000 0.0000
# 5 0.0000 0.0000 0.0000 0.0000 3.6116 0.0000
# 6 0.0000 0.0000 0.0000 0.0000 0.0000 49.5740
#
#
#
# Elastic Compliance Matrix: (Units=1/GPa)
#
#
# Indices 1 2 3 4 5 6 
#
# 1 0.008832 -0.001960 -0.003165 0.000000 0.000000 0.000000
# 2 -0.001960 0.008832 -0.003165 0.000000 0.000000 0.000000
# 3 -0.003165 -0.003165 0.014901 0.000000 0.000000 0.000000
# 4 0.000000 0.000000 0.000000 0.276903 0.000000 0.000000
# 5 0.000000 0.000000 0.000000 0.000000 0.276888 0.000000
# 6 0.000000 0.000000 0.000000 0.000000 0.000000 0.020172
#
#
# Mechanical properties :
#
#
# Convention : Reuss Voigt Hill
#
# Bulk Modulus (GPa) = 62.56801 66.56158 64.56480
# Shear Modulus (GPa) = 7.95626 27.09465 17.52546
#
# Velocity S-wave (km/s) = 2.10478 3.88414 3.12383
# Velocity P-wave (km/s) = 6.38320 7.56158 6.99724
#
# Compressibility (1/GPa) = 0.01598261
#
# Stress axis : x y z
#
# Youngs Moduli (GPa) = 113.22710 113.22683 67.11105
#
# Poissons Ratio (x) = 0.22193 0.21243
# Poissons Ratio (y) = 0.22193 0.21243
# Poissons Ratio (z) = 0.35841 0.35840
#
# Static dielectric constant tensor:
#      x y z
#    x 1.655350 0.000000 0.000000 
#    y 0.000000 1.655350 0.000000 
#    z 0.000000 0.000000 1.631270 
# 
# From -- ./inp_files/4139.got.cif
#   From: 2010.05.17/outbox.cif.g08.bks.cpg/sg127_3_cif.got.tgz:4139.got - 2010.05.20 12:03:00.
