data_PCOD9564282
_publ_section_title
;
Structure prediction by ZEFSAII (Michael W. Deem and Ramdas Pophale) SiO2 
 PCOD9564282
Probable space group: P 4/M B M
;
_chemical_formula_sum "Si O2"
_cell_formula_units_Z 64
_cell_length_a 13.452328
_cell_length_b 13.452328
_cell_length_c 19.320406
_cell_angle_alpha 90.000000
_cell_angle_beta 90.000000
_cell_angle_gamma 90.000000
_cell_volume 3496.319757
_symmetry_space_group_name_H-M "P 4/M B M"
_symmetry_group_IT_number 127
_symmetry_cell_setting 'tetragonal'
loop_
_space_group_symop_operation_xyz
x,y,z
-y,x,z
-x,-y,z
y,-x,z
1/2+x,1/2-y,-z
1/2-x,1/2+y,-z
1/2+y,1/2+x,-z
1/2-y,1/2-x,-z
-x,-y,-z
y,-x,-z
x,y,-z
-y,x,-z
1/2-x,1/2+y,z
1/2+x,1/2-y,z
1/2-y,1/2-x,z
1/2+y,1/2+x,z
loop_
_atom_site_type_symbol
_atom_site_label
_atom_site_fract_x
_atom_site_fract_y
_atom_site_fract_z
Si Si1 0.165303 0.503819 0.419491
Si Si2 0.914087 0.754309 0.160446
Si Si3 0.333678 0.481057 0.306438
Si Si4 0.725963 0.394341 0.078638
O O1 0.196120 0.511116 0.500000
O O2 0.084848 0.415153 0.414667
O O3 0.255706 0.481913 0.368891
O O4 0.104732 0.604732 0.401474
O O5 0.834481 0.665520 0.164948
O O6 0.857265 0.851238 0.130422
O O7 0.963076 0.776500 0.234443
O O8 0.001614 0.733795 0.106309
O O9 0.415664 0.393872 0.309451
O O10 0.813608 0.313608 0.078762
O O11 0.687766 0.402631 0.000000
#
# Coordination Sequence:
#
# PCOD9564282 Si02
#       4
#    16  16  16  16
#     4   9  20  40  64  90 121 158 199 240 287 347
#     4  11  22  39  61  85 117 158 200 246 301 361
#     4  11  23  39  60  87 121 158 197 244 295 347
#     4  10  22  39  60  87 117 153 199 249 302 362
#
# _framework density 18.304962
#
# number of rings (size 3 to 8) (size 9 to 14) (size 15 to 20)
#    0.000    1.750    2.500    2.250    0.000    6.500 
#    0.000    6.250    0.000    0.000    0.000    0.000 
#    0.000    0.000    0.000    0.000    0.000    0.000 
#
# Total GULP energy -357258.947112 kJ/mol
# GULP energy per Si atom -5582.171049 kJ/mol
# Density = 1.826330 g / cm^3
# Si number density = 18.304962 Si / 1000 Ang^3
#
#
#
# Elastic Constant Matrix: (Units=GPa)
#
#
# Indices 1 2 3 4 5 6 
#
# 1 79.4477 8.7196 55.7309 0.0000 0.0000 0.0000
# 2 8.7196 79.4477 55.7309 0.0000 0.0000 0.0000
# 3 55.7309 55.7309 127.8373 0.0000 0.0000 0.0000
# 4 0.0000 0.0000 0.0000 31.3164 0.0000 0.0000
# 5 0.0000 0.0000 0.0000 0.0000 31.3164 0.0000
# 6 0.0000 0.0000 0.0000 0.0000 0.0000 8.0921
#
#
#
# Elastic Compliance Matrix: (Units=1/GPa)
#
#
# Indices 1 2 3 4 5 6 
#
# 1 0.019703 0.005565 -0.011016 0.000000 0.000000 0.000000
# 2 0.005565 0.019703 -0.011016 0.000000 0.000000 0.000000
# 3 -0.011016 -0.011016 0.017427 0.000000 0.000000 0.000000
# 4 0.000000 0.000000 0.000000 0.031932 0.000000 0.000000
# 5 0.000000 0.000000 0.000000 0.000000 0.031932 0.000000
# 6 0.000000 0.000000 0.000000 0.000000 0.000000 0.123577
#
#
# Mechanical properties :
#
#
# Convention : Reuss Voigt Hill
#
# Bulk Modulus (GPa) = 41.83979 58.56617 50.20298
# Shear Modulus (GPa) = 17.53307 25.24841 21.39074
#
# Velocity S-wave (km/s) = 3.09824 3.71795 3.42215
# Velocity P-wave (km/s) = 5.97541 7.10598 6.56508
#
# Compressibility (1/GPa) = 0.02390069
#
# Stress axis : x y z
#
# Youngs Moduli (GPa) = 50.75241 50.75241 57.38167
#
# Poissons Ratio (x) = -0.28243 0.63210
# Poissons Ratio (y) = -0.28243 0.63210
# Poissons Ratio (z) = 0.55908 0.55908
#
# Static dielectric constant tensor:
#      x y z
#    x 1.615120 0.000000 0.000000 
#    y 0.000000 1.615120 0.000000 
#    z 0.000000 0.000000 1.617450 
# 
# From -- ./inp_files/4075.got.cif
#   From: 2010.05.17/outbox.cif.g08.bks.cpg/sg127_3_cif.got.tgz:4075.got - 2010.05.20 12:03:00.
