data_PCOD9564723
_publ_section_title
;
Structure prediction by ZEFSAII (Michael W. Deem and Ramdas Pophale) SiO2 
 PCOD9564723
Probable space group: P 4/M N C
;
_chemical_formula_sum "Si O2"
_cell_formula_units_Z 96
_cell_length_a 24.566324
_cell_length_b 24.566324
_cell_length_c 8.514429
_cell_angle_alpha 90.000000
_cell_angle_beta 90.000000
_cell_angle_gamma 90.000000
_cell_volume 5138.494300
_symmetry_space_group_name_H-M "P 4/M N C"
_symmetry_group_IT_number 128
_symmetry_cell_setting 'tetragonal'
loop_
_space_group_symop_operation_xyz
x,y,z
-y,x,z
-x,-y,z
y,-x,z
1/2+x,1/2-y,1/2-z
1/2-x,1/2+y,1/2-z
1/2+y,1/2+x,1/2-z
1/2-y,1/2-x,1/2-z
-x,-y,-z
y,-x,-z
x,y,-z
-y,x,-z
1/2-x,1/2+y,1/2+z
1/2+x,1/2-y,1/2+z
1/2-y,1/2-x,1/2+z
1/2+y,1/2+x,1/2+z
loop_
_atom_site_type_symbol
_atom_site_label
_atom_site_fract_x
_atom_site_fract_y
_atom_site_fract_z
Si Si1 0.000141 0.414632 0.311353
Si Si2 0.082044 0.031717 0.308633
Si Si3 0.514380 0.209550 0.810384
Si Si4 0.307453 0.276103 0.688050
Si Si5 0.299735 0.572515 0.190209
Si Si6 0.134839 0.281636 0.187865
O O1 0.948399 0.448399 0.250000
O O2 0.000435 0.416673 0.500000
O O3 0.053060 0.446941 0.250000
O O4 0.000436 0.351987 0.259399
O O5 0.082604 0.031847 0.500000
O O6 0.068467 0.969676 0.260344
O O7 0.140265 0.053703 0.255397
O O8 0.470402 0.253902 0.757491
O O9 0.574446 0.223951 0.752295
O O10 0.514724 0.209750 0.000000
O O11 0.278367 0.221634 0.750000
O O12 0.308309 0.274661 0.500000
O O13 0.367516 0.285236 0.752059
O O14 0.268191 0.326125 0.738269
O O15 0.300283 0.572752 0.000000
O O16 0.163712 0.336289 0.250000
O O17 0.133840 0.283366 0.000000
#
# Coordination Sequence:
#
# PCOD9564723 Si02
#       6
#    16  16  16  16  16  16
#     4  10  20  35  54  77 106 140 180 224 270 326
#     4   8  15  29  51  81 112 144 186 231 275 326
#     4  10  22  36  53  84 118 146 184 228 275 335
#     4  10  22  40  59  81 110 147 190 234 283 339
#     4  10  21  35  56  85 115 151 189 232 282 331
#     4  10  21  37  59  84 110 146 188 235 286 335
#
# _framework density 18.682517000000001
#
# number of rings (size 3 to 8) (size 9 to 14) (size 15 to 20)
#    0.000    2.333    0.000    3.000    2.333    6.000 
#    0.000    1.667    0.000    0.000    0.000    1.167 
#    0.000    0.000    0.000    0.000    0.000    0.000 
#
# Total GULP energy -536002.349368 kJ/mol
# GULP energy per Si atom -5583.357806 kJ/mol
# Density = 1.863999 g / cm^3
# Si number density = 18.682517 Si / 1000 Ang^3
#
#
#
# Elastic Constant Matrix: (Units=GPa)
#
#
# Indices 1 2 3 4 5 6 
#
# 1 197.2080 97.2853 24.5186 0.0000 0.0000 0.0000
# 2 97.2853 197.2089 24.5252 0.0000 0.0000 0.0000
# 3 24.5186 24.5252 12.3601 0.0000 0.0000 0.0000
# 4 0.0000 0.0000 0.0000 19.5714 0.0000 0.0000
# 5 0.0000 0.0000 0.0000 0.0000 19.5719 0.0000
# 6 0.0000 0.0000 0.0000 0.0000 0.0000 18.0479
#
#
#
# Elastic Compliance Matrix: (Units=1/GPa)
#
#
# Indices 1 2 3 4 5 6 
#
# 1 0.007539 -0.002468 -0.010057 0.000000 0.000000 0.000000
# 2 -0.002468 0.007540 -0.010065 0.000000 0.000000 0.000000
# 3 -0.010057 -0.010065 0.120826 0.000000 0.000000 0.000000
# 4 0.000000 0.000000 0.000000 0.051095 0.000000 0.000000
# 5 0.000000 0.000000 0.000000 0.000000 0.051094 0.000000
# 6 0.000000 0.000000 0.000000 0.000000 0.000000 0.055408
#
#
# Mechanical properties :
#
#
# Convention : Reuss Voigt Hill
#
# Bulk Modulus (GPa) = 11.02235 77.71503 44.36869
# Shear Modulus (GPa) = 13.55293 28.80144 21.17719
#
# Velocity S-wave (km/s) = 2.69631 3.93061 3.37045
# Velocity P-wave (km/s) = 3.95045 7.89225 6.24074
#
# Compressibility (1/GPa) = 0.09072478
#
# Stress axis : x y z
#
# Youngs Moduli (GPa) = 132.64713 132.62482 8.27634
#
# Poissons Ratio (x) = 0.32735 0.08324
# Poissons Ratio (y) = 0.32741 0.08330
# Poissons Ratio (z) = 1.33404 1.33485
#
# Static dielectric constant tensor:
#      x y z
#    x 1.627460 0.000000 0.000000 
#    y 0.000000 1.627460 0.000000 
#    z 0.000000 0.000000 1.643240 
# 
# From -- ./inp_files/1458.got.cif
#   From: 2010.05.17/outbox.cif.g08.bks.cpg/sg128_1_cif.got.tgz:1458.got - 2010.05.20 12:07:25.
