data_PCOD9564722
_publ_section_title
;
Structure prediction by ZEFSAII (Michael W. Deem and Ramdas Pophale) SiO2 
 PCOD9564722
Probable space group: P 4/M N C
;
_chemical_formula_sum "Si O2"
_cell_formula_units_Z 96
_cell_length_a 24.693014
_cell_length_b 24.693014
_cell_length_c 8.764423
_cell_angle_alpha 90.000000
_cell_angle_beta 90.000000
_cell_angle_gamma 90.000000
_cell_volume 5344.062580
_symmetry_space_group_name_H-M "P 4/M N C"
_symmetry_group_IT_number 128
_symmetry_cell_setting 'tetragonal'
loop_
_space_group_symop_operation_xyz
x,y,z
-y,x,z
-x,-y,z
y,-x,z
1/2+x,1/2-y,1/2-z
1/2-x,1/2+y,1/2-z
1/2+y,1/2+x,1/2-z
1/2-y,1/2-x,1/2-z
-x,-y,-z
y,-x,-z
x,y,-z
-y,x,-z
1/2-x,1/2+y,1/2+z
1/2+x,1/2-y,1/2+z
1/2-y,1/2-x,1/2+z
1/2+y,1/2+x,1/2+z
loop_
_atom_site_type_symbol
_atom_site_label
_atom_site_fract_x
_atom_site_fract_y
_atom_site_fract_z
Si Si1 0.729819 0.851699 0.317322
Si Si2 0.852196 0.729791 0.183010
Si Si3 0.440374 0.860074 0.316962
Si Si4 0.145415 0.564087 0.683567
Si Si5 0.561835 0.436241 0.684199
Si Si6 0.644383 0.348185 0.182636
O O1 0.702964 0.797037 0.250000
O O2 0.723991 0.850104 0.500000
O O3 0.694410 0.900326 0.249010
O O4 0.792643 0.859825 0.279193
O O5 0.797939 0.702062 0.250000
O O6 0.900980 0.689262 0.227059
O O7 0.864850 0.788750 0.247921
O O8 0.847792 0.731893 0.000000
O O9 0.414152 0.914152 0.250000
O O10 0.439377 0.863615 0.500000
O O11 0.501818 0.850749 0.269156
O O12 0.091548 0.591548 0.750000
O O13 0.145365 0.567833 0.500000
O O14 0.574364 0.498848 0.727256
O O15 0.564762 0.433155 0.500000
O O16 0.603342 0.393172 0.753704
O O17 0.639426 0.346033 0.000000
#
# Coordination Sequence:
#
# PCOD9564722 Si02
#       6
#    16  16  16  16  16  16
#     4  10  21  36  53  76 107 141 176 216 264 314
#     4  10  20  36  56  79 109 144 181 223 271 320
#     4   9  20  36  54  77 105 139 178 220 265 313
#     4  10  20  35  54  77 105 138 178 221 265 312
#     4   9  20  40  62  82 107 141 180 222 269 320
#     4  11  23  36  55  85 113 141 179 219 265 324
#
# _framework density 17.963863
#
# number of rings (size 3 to 8) (size 9 to 14) (size 15 to 20)
#    0.000    2.167    0.000    4.000    0.000    8.333 
#    0.000    7.500    0.000    0.000    0.000    0.000 
#    0.000    0.000    0.000    0.000    0.000    0.000 
#
# Total GULP energy -535877.283547 kJ/mol
# GULP energy per Si atom -5582.055037 kJ/mol
# Density = 1.792298 g / cm^3
# Si number density = 17.963863 Si / 1000 Ang^3
#
#
#
# Elastic Constant Matrix: (Units=GPa)
#
#
# Indices 1 2 3 4 5 6 
#
# 1 159.6612 88.6403 50.1703 0.0000 0.0000 0.0000
# 2 88.6403 159.6577 50.1673 0.0000 0.0000 0.0000
# 3 50.1703 50.1673 44.2396 0.0000 0.0000 0.0000
# 4 0.0000 0.0000 0.0000 29.7646 0.0000 0.0000
# 5 0.0000 0.0000 0.0000 0.0000 29.7644 0.0000
# 6 0.0000 0.0000 0.0000 0.0000 0.0000 26.5895
#
#
#
# Elastic Compliance Matrix: (Units=1/GPa)
#
#
# Indices 1 2 3 4 5 6 
#
# 1 0.010758 -0.003323 -0.008431 0.000000 0.000000 0.000000
# 2 -0.003323 0.010757 -0.008430 0.000000 0.000000 0.000000
# 3 -0.008431 -0.008430 0.041725 0.000000 0.000000 0.000000
# 4 0.000000 0.000000 0.000000 0.033597 0.000000 0.000000
# 5 0.000000 0.000000 0.000000 0.000000 0.033597 0.000000
# 6 0.000000 0.000000 0.000000 0.000000 0.000000 0.037609
#
#
# Mechanical properties :
#
#
# Convention : Reuss Voigt Hill
#
# Bulk Modulus (GPa) = 43.72303 82.39049 63.05676
# Shear Modulus (GPa) = 23.14440 28.86242 26.00341
#
# Velocity S-wave (km/s) = 3.59330 4.01271 3.80878
# Velocity P-wave (km/s) = 6.45043 8.21177 7.38381
#
# Compressibility (1/GPa) = 0.02287124
#
# Stress axis : x y z
#
# Youngs Moduli (GPa) = 92.95751 92.96061 23.96648
#
# Poissons Ratio (x) = 0.30893 0.20207
# Poissons Ratio (y) = 0.30892 0.20203
# Poissons Ratio (z) = 0.78374 0.78364
#
# Static dielectric constant tensor:
#      x y z
#    x 1.602850 0.000000 0.000000 
#    y 0.000000 1.602850 0.000000 
#    z 0.000000 0.000000 1.604130 
# 
# From -- ./inp_files/1432.got.cif
#   From: 2010.05.17/outbox.cif.g08.bks.cpg/sg128_1_cif.got.tgz:1432.got - 2010.05.20 12:07:25.
