data_PCOD9564568
_publ_section_title
;
Structure prediction by ZEFSAII (Michael W. Deem and Ramdas Pophale) SiO2 
 PCOD9564568
Probable space group: P 4/M N C
;
_chemical_formula_sum "Si O2"
_cell_formula_units_Z 64
_cell_length_a 22.060848
_cell_length_b 22.060848
_cell_length_c 7.703799
_cell_angle_alpha 90.000000
_cell_angle_beta 90.000000
_cell_angle_gamma 90.000000
_cell_volume 3749.292713
_symmetry_space_group_name_H-M "P 4/M N C"
_symmetry_group_IT_number 128
_symmetry_cell_setting 'tetragonal'
loop_
_space_group_symop_operation_xyz
x,y,z
-y,x,z
-x,-y,z
y,-x,z
1/2+x,1/2-y,1/2-z
1/2-x,1/2+y,1/2-z
1/2+y,1/2+x,1/2-z
1/2-y,1/2-x,1/2-z
-x,-y,-z
y,-x,-z
x,y,-z
-y,x,-z
1/2-x,1/2+y,1/2+z
1/2+x,1/2-y,1/2+z
1/2-y,1/2-x,1/2+z
1/2+y,1/2+x,1/2+z
loop_
_atom_site_type_symbol
_atom_site_label
_atom_site_fract_x
_atom_site_fract_y
_atom_site_fract_z
Si Si1 0.772354 0.536689 0.293942
Si Si2 0.635362 0.635826 0.000000
Si Si3 0.681248 0.500840 0.000000
Si Si4 0.728236 0.671989 0.703043
Si Si5 0.997095 0.402873 0.204259
O O1 0.764719 0.523474 0.500000
O O2 0.721956 0.507061 0.172889
O O3 0.766620 0.609532 0.275132
O O4 0.837066 0.513165 0.226202
O O5 0.671673 0.663179 0.833438
O O6 0.642271 0.562797 0.000000
O O7 0.564623 0.650838 0.000000
O O8 0.771186 0.728815 0.750000
O O9 0.710489 0.676056 0.500000
O O10 0.933173 0.433173 0.250000
O O11 0.048871 0.451130 0.250000
O O12 0.998484 0.396387 0.000000
#
# Coordination Sequence:
#
# PCOD9564568 Si02
#       5
#    16   8   8  16  16
#     4   9  20  34  53  80 107 143 180 226 276 321
#     4  10  22  39  58  90 108 152 180 229 284 330
#     4  10  22  39  62  77 112 136 182 230 284 340
#     4  10  18  33  58  85 115 140 183 231 273 325
#     4  10  19  29  45  70 104 144 187 220 256 309
#
# _framework density 17.069886
#
# number of rings (size 3 to 8) (size 9 to 14) (size 15 to 20)
#    0.000    2.250    1.250    2.250    3.500    1.250 
#    0.000    1.250    0.000    0.000    0.000    7.000 
#    0.000    0.000    0.000    0.000    0.000    0.000 
#
# Total GULP energy -356660.589536 kJ/mol
# GULP energy per Si atom -5572.821712 kJ/mol
# Density = 1.703103 g / cm^3
# Si number density = 17.069886 Si / 1000 Ang^3
#
#
#
# Elastic Constant Matrix: (Units=GPa)
#
#
# Indices 1 2 3 4 5 6 
#
# 1 104.9227 81.3554 47.6658 0.0000 0.0000 0.0000
# 2 81.3554 104.9142 47.6611 0.0000 0.0000 0.0000
# 3 47.6658 47.6611 96.3832 0.0000 0.0000 0.0000
# 4 0.0000 0.0000 0.0000 16.8469 0.0000 0.0000
# 5 0.0000 0.0000 0.0000 0.0000 16.8471 0.0000
# 6 0.0000 0.0000 0.0000 0.0000 0.0000 24.0117
#
#
#
# Elastic Compliance Matrix: (Units=1/GPa)
#
#
# Indices 1 2 3 4 5 6 
#
# 1 0.024813 -0.017626 -0.003555 0.000000 0.000000 0.000000
# 2 -0.017626 0.024814 -0.003554 0.000000 0.000000 0.000000
# 3 -0.003555 -0.003554 0.013891 0.000000 0.000000 0.000000
# 4 0.000000 0.000000 0.000000 0.059358 0.000000 0.000000
# 5 0.000000 0.000000 0.000000 0.000000 0.059357 0.000000
# 6 0.000000 0.000000 0.000000 0.000000 0.000000 0.041646
#
#
# Mechanical properties :
#
#
# Convention : Reuss Voigt Hill
#
# Bulk Modulus (GPa) = 71.18378 73.28718 72.23548
# Shear Modulus (GPa) = 17.98362 20.17701 19.08031
#
# Velocity S-wave (km/s) = 3.24933 3.44179 3.34694
# Velocity P-wave (km/s) = 7.47459 7.66951 7.57267
#
# Compressibility (1/GPa) = 0.01404814
#
# Stress axis : x y z
#
# Youngs Moduli (GPa) = 40.30182 40.29993 71.99112
#
# Poissons Ratio (x) = 0.71033 0.25593
# Poissons Ratio (y) = 0.71036 0.25582
# Poissons Ratio (z) = 0.14328 0.14321
#
# Static dielectric constant tensor:
#      x y z
#    x 1.597970 0.000000 0.000000 
#    y 0.000000 1.597900 0.000000 
#    z 0.000000 0.000000 1.594570 
# 
# From -- ./inp_files/1070.got.cif
#   From: 2010.05.17/outbox.cif.g08.bks.cpg/sg128_1_cif.got.tgz:1070.got - 2010.05.20 12:07:25.
