data_PCOD9564799
_publ_section_title
;
Structure prediction by ZEFSAII (Michael W. Deem and Ramdas Pophale) SiO2 
 PCOD9564799
Probable space group: P 4/M N C
;
_chemical_formula_sum "Si O2"
_cell_formula_units_Z 112
_cell_length_a 14.291156
_cell_length_b 14.291156
_cell_length_c 29.151219
_cell_angle_alpha 90.000000
_cell_angle_beta 90.000000
_cell_angle_gamma 90.000000
_cell_volume 5953.761591
_symmetry_space_group_name_H-M "P 4/M N C"
_symmetry_group_IT_number 128
_symmetry_cell_setting 'tetragonal'
loop_
_space_group_symop_operation_xyz
x,y,z
-y,x,z
-x,-y,z
y,-x,z
1/2+x,1/2-y,1/2-z
1/2-x,1/2+y,1/2-z
1/2+y,1/2+x,1/2-z
1/2-y,1/2-x,1/2-z
-x,-y,-z
y,-x,-z
x,y,-z
-y,x,-z
1/2-x,1/2+y,1/2+z
1/2+x,1/2-y,1/2+z
1/2-y,1/2-x,1/2+z
1/2+y,1/2+x,1/2+z
loop_
_atom_site_type_symbol
_atom_site_label
_atom_site_fract_x
_atom_site_fract_y
_atom_site_fract_z
Si Si1 0.912765 0.730181 0.119069
Si Si2 0.312795 0.065224 0.628563
Si Si3 0.113209 0.765709 0.138138
Si Si4 0.367061 0.580467 0.167320
Si Si5 0.863579 0.920556 0.770999
Si Si6 0.902116 0.556608 0.946704
Si Si7 0.931067 0.590148 0.304042
O O1 0.826851 0.802463 0.117834
O O2 0.911177 0.657475 0.077056
O O3 0.912269 0.662486 0.164585
O O4 0.009247 0.788792 0.120306
O O5 0.378750 0.155118 0.630288
O O6 0.210528 0.109926 0.631910
O O7 0.330782 0.003299 0.584091
O O8 0.330861 0.997067 0.672440
O O9 0.115094 0.791258 0.191917
O O10 0.378109 0.469166 0.161839
O O11 0.335433 0.601028 0.219102
O O12 0.967504 0.877321 0.776726
O O13 0.000000 0.500000 0.942646
O O14 0.877404 0.562716 0.000000
O O15 0.904790 0.595211 0.250000
O O16 0.000000 0.500000 0.309167
#
# Coordination Sequence:
#
# PCOD9564799 Si02
#       7
#    16  16  16  16  16  16  16
#     4  11  23  40  56  91 120 156 199 247 302 358
#     4  11  22  36  60  90 113 150 205 250 306 359
#     4  12  22  35  57  85 126 156 203 249 290 355
#     4   9  21  37  54  78 121 167 207 245 292 351
#     4   9  18  33  50  75 116 175 212 231 274 347
#     4  10  21  45  71  86 111 148 190 246 312 376
#     4  10  21  37  55  77 121 160 199 255 300 342
#
# _framework density 18.811636
#
# number of rings (size 3 to 8) (size 9 to 14) (size 15 to 20)
#    0.000    1.714    4.286    1.714    6.000    0.857 
#    0.000    1.429    0.000    0.000    0.000    2.000 
#    0.000    0.000    0.000    0.000    0.000    0.000 
#
# Total GULP energy -624760.320858 kJ/mol
# GULP energy per Si atom -5578.217151 kJ/mol
# Density = 1.876882 g / cm^3
# Si number density = 18.811636 Si / 1000 Ang^3
#
#
#
# Elastic Constant Matrix: (Units=GPa)
#
#
# Indices 1 2 3 4 5 6 
#
# 1 64.4363 20.8093 27.6389 0.0000 0.0000 0.0000
# 2 20.8093 64.4360 27.6389 0.0000 0.0000 0.0000
# 3 27.6389 27.6389 95.7605 0.0000 0.0000 0.0000
# 4 0.0000 0.0000 0.0000 15.9983 0.0000 0.0000
# 5 0.0000 0.0000 0.0000 0.0000 15.9982 0.0000
# 6 0.0000 0.0000 0.0000 0.0000 0.0000 10.0358
#
#
#
# Elastic Compliance Matrix: (Units=1/GPa)
#
#
# Indices 1 2 3 4 5 6 
#
# 1 0.018677 -0.004245 -0.004165 0.000000 0.000000 0.000000
# 2 -0.004245 0.018677 -0.004165 0.000000 0.000000 0.000000
# 3 -0.004165 -0.004165 0.012847 0.000000 0.000000 0.000000
# 4 0.000000 0.000000 0.000000 0.062507 0.000000 0.000000
# 5 0.000000 0.000000 0.000000 0.000000 0.062507 0.000000
# 6 0.000000 0.000000 0.000000 0.000000 0.000000 0.099643
#
#
# Mechanical properties :
#
#
# Convention : Reuss Voigt Hill
#
# Bulk Modulus (GPa) = 39.92116 41.86745 40.89431
# Shear Modulus (GPa) = 16.21488 18.30951 17.26220
#
# Velocity S-wave (km/s) = 2.93910 3.12317 3.03253
# Velocity P-wave (km/s) = 5.72585 5.94223 5.83504
#
# Compressibility (1/GPa) = 0.02504937
#
# Stress axis : x y z
#
# Youngs Moduli (GPa) = 53.54253 53.54228 77.83789
#
# Poissons Ratio (x) = 0.22728 0.32423
# Poissons Ratio (y) = 0.22728 0.32423
# Poissons Ratio (z) = 0.22303 0.22303
#
# Static dielectric constant tensor:
#      x y z
#    x 1.702660 0.000000 0.000000 
#    y 0.000000 1.702660 0.000000 
#    z 0.000000 0.000000 1.627910 
# 
# From -- ./inp_files/6900.got.cif
#   From: 2010.05.17/outbox.cif.g08.bks.cpg/sg128_4_cif.got.tgz:6900.got - 2010.05.20 12:07:25.
