data_PCOD9564504
_publ_section_title
;
Structure prediction by ZEFSAII (Michael W. Deem and Ramdas Pophale) SiO2 
 PCOD9564504
Probable space group: P 4/M B M
;
_chemical_formula_sum "Si O2"
_cell_formula_units_Z 112
_cell_length_a 15.000000
_cell_length_b 15.000000
_cell_length_c 27.000000
_cell_angle_alpha 90.000000
_cell_angle_beta 90.000000
_cell_angle_gamma 90.000000
_cell_volume 6075.000000
_symmetry_space_group_name_H-M "P 4/M B M"
_symmetry_group_IT_number 127
_symmetry_cell_setting 'tetragonal'
loop_
_space_group_symop_operation_xyz
x,y,z
-y,x,z
-x,-y,z
y,-x,z
1/2+x,1/2-y,-z
1/2-x,1/2+y,-z
1/2+y,1/2+x,-z
1/2-y,1/2-x,-z
-x,-y,-z
y,-x,-z
x,y,-z
-y,x,-z
1/2-x,1/2+y,z
1/2+x,1/2-y,z
1/2-y,1/2-x,z
1/2+y,1/2+x,z
loop_
_atom_site_type_symbol
_atom_site_label
_atom_site_fract_x
_atom_site_fract_y
_atom_site_fract_z
Si Si1 0.495080 0.145481 0.235399
Si Si2 0.996323 0.647456 0.553177
Si Si3 0.478477 0.648771 0.942597
Si Si4 0.240929 0.523055 0.657583
Si Si5 0.592340 0.241963 0.855545
Si Si6 0.600104 0.387498 0.215341
Si Si7 0.305000 0.340430 0.316689
O O1 0.569588 0.069588 0.241745
O O2 0.484950 0.189245 0.289691
O O3 0.531091 0.203438 0.189395
O O4 0.402171 0.097830 0.222722
O O5 0.003271 0.697630 0.500000
O O6 0.901079 0.598922 0.554071
O O7 0.070590 0.570590 0.551114
O O8 0.009841 0.691693 0.605992
O O9 0.403012 0.572026 0.935403
O O10 0.461229 0.728042 0.904103
O O11 0.474210 0.677567 0.000000
O O12 0.282562 0.620228 0.657164
O O13 0.306128 0.438914 0.661081
O O14 0.669296 0.169296 0.864995
O O15 0.630004 0.334806 0.833233
O O16 0.619153 0.492351 0.217781
O O17 0.646950 0.336872 0.260370
O O18 0.210204 0.289797 0.319109
#
# Coordination Sequence:
#
# PCOD9564504 Si02
#       7
#    16  16  16  16  16  16  16
#     4  10  20  35  55  78 110 152 192 233 285 344
#     4   9  18  35  60  86 111 145 195 253 305 352
#     4   9  19  38  62  83 105 142 190 234 280 337
#     4  12  23  37  56  83 118 153 193 242 294 352
#     4  11  21  34  54  84 118 148 184 235 288 342
#     4  11  21  36  55  78 112 154 195 234 284 337
#     4  12  23  36  56  83 114 151 193 237 291 353
#
# _framework density 18.436214
#
# number of rings (size 3 to 8) (size 9 to 14) (size 15 to 20)
#    0.000    1.429    2.857    4.714    0.000    2.857 
#    0.000    5.000    0.000    3.857    0.000    3.000 
#    0.000    0.000    0.000    0.000    0.000    0.000 
#
# Total GULP energy -624246.220641 kJ/mol
# GULP energy per Si atom -5573.626970 kJ/mol
# Density = 1.839425 g / cm^3
# Si number density = 18.436214 Si / 1000 Ang^3
#
#
#
# Elastic Constant Matrix: (Units=GPa)
#
#
# Indices 1 2 3 4 5 6 
#
# 1 49.8036 10.0878 35.0120 0.0000 0.0000 0.0000
# 2 10.0878 49.8036 35.0120 0.0000 0.0000 0.0000
# 3 35.0120 35.0120 144.8883 0.0000 0.0000 0.0000
# 4 0.0000 0.0000 0.0000 22.6851 0.0000 0.0000
# 5 0.0000 0.0000 0.0000 0.0000 22.6851 0.0000
# 6 0.0000 0.0000 0.0000 0.0000 0.0000 18.0437
#
#
#
# Elastic Compliance Matrix: (Units=1/GPa)
#
#
# Indices 1 2 3 4 5 6 
#
# 1 0.024225 -0.000954 -0.005624 0.000000 0.000000 0.000000
# 2 -0.000954 0.024225 -0.005624 0.000000 0.000000 0.000000
# 3 -0.005624 -0.005624 0.009620 0.000000 0.000000 0.000000
# 4 0.000000 0.000000 0.000000 0.044082 0.000000 0.000000
# 5 0.000000 0.000000 0.000000 0.000000 0.044082 0.000000
# 6 0.000000 0.000000 0.000000 0.000000 0.000000 0.055421
#
#
# Mechanical properties :
#
#
# Convention : Reuss Voigt Hill
#
# Bulk Modulus (GPa) = 29.70080 44.96879 37.33479
# Shear Modulus (GPa) = 21.07218 23.64169 22.35694
#
# Velocity S-wave (km/s) = 3.38446 3.58488 3.48611
# Velocity P-wave (km/s) = 5.60516 6.44823 6.04142
#
# Compressibility (1/GPa) = 0.03366913
#
# Stress axis : x y z
#
# Youngs Moduli (GPa) = 41.27892 41.27892 103.95285
#
# Poissons Ratio (x) = 0.03936 0.58459
# Poissons Ratio (y) = 0.03936 0.58459
# Poissons Ratio (z) = 0.23214 0.23214
#
# Static dielectric constant tensor:
#      x y z
#    x 1.688280 0.000000 0.000000 
#    y 0.000000 1.688280 0.000000 
#    z 0.000000 0.000000 0.613650 
# 
# From -- ./inp_files/6402.got.cif
#   From: 2010.05.17/outbox.ucp.g08.bks.cvg/sg127_4_cif.got.tgz:6402.got - 2010.06.11 11:37:05.
