data_PCOD9564252
_publ_section_title
;
Structure prediction by ZEFSAII (Michael W. Deem and Ramdas Pophale) SiO2 
 PCOD9564252
Probable space group: P 4/M B M
;
_chemical_formula_sum "Si O2"
_cell_formula_units_Z 128
_cell_length_a 19.705952
_cell_length_b 19.705952
_cell_length_c 18.603853
_cell_angle_alpha 90.000000
_cell_angle_beta 90.000000
_cell_angle_gamma 90.000000
_cell_volume 7224.332737
_symmetry_space_group_name_H-M "P 4/M B M"
_symmetry_group_IT_number 127
_symmetry_cell_setting 'tetragonal'
loop_
_space_group_symop_operation_xyz
x,y,z
-y,x,z
-x,-y,z
y,-x,z
1/2+x,1/2-y,-z
1/2-x,1/2+y,-z
1/2+y,1/2+x,-z
1/2-y,1/2-x,-z
-x,-y,-z
y,-x,-z
x,y,-z
-y,x,-z
1/2-x,1/2+y,z
1/2+x,1/2-y,z
1/2-y,1/2-x,z
1/2+y,1/2+x,z
loop_
_atom_site_type_symbol
_atom_site_label
_atom_site_fract_x
_atom_site_fract_y
_atom_site_fract_z
Si Si1 0.005108 0.113783 0.081285
Si Si2 0.702967 0.316977 0.300988
Si Si3 0.812545 0.421364 0.297530
Si Si4 0.211871 0.172692 0.863633
Si Si5 0.475987 0.254992 0.844849
Si Si6 0.020158 0.367276 0.582711
Si Si7 0.280938 0.888887 0.915857
Si Si8 0.748614 0.133649 0.578380
O O1 0.002544 0.168052 0.144827
O O2 0.067728 0.062242 0.085572
O O3 0.006666 0.145107 0.000000
O O4 0.750489 0.250489 0.294591
O O5 0.751387 0.376512 0.330490
O O6 0.686181 0.334410 0.218884
O O7 0.643041 0.298648 0.354972
O O8 0.866127 0.366127 0.266732
O O9 0.778037 0.463172 0.232960
O O10 0.851159 0.464893 0.357228
O O11 0.274936 0.225065 0.866935
O O12 0.238976 0.097941 0.883234
O O13 0.150578 0.209190 0.905163
O O14 0.537438 0.214901 0.881215
O O15 0.994877 0.371597 0.500000
O O16 0.065310 0.434691 0.596362
O O17 0.071923 0.303642 0.586027
O O18 0.337638 0.837638 0.884842
O O19 0.291703 0.895664 0.000000
O O20 0.782331 0.128683 0.500000
O O21 0.700205 0.200205 0.576645
#
# Coordination Sequence:
#
# PCOD9564252 Si02
#       8
#    16  16  16  16  16  16  16  16
#     4   9  18  33  54  82 114 143 174 218 274 335
#     4   8  15  29  48  69  98 130 161 200 248 302
#     4  10  22  36  49  74 107 140 180 221 260 314
#     4   9  19  35  53  74 102 137 175 218 265 317
#     4  11  20  32  53  77 106 142 177 218 267 323
#     4   9  19  35  54  77 103 133 175 224 269 317
#     4  10  22  37  53  78 106 133 176 227 270 320
#     4   8  14  26  47  74 100 126 160 203 253 307
#
# _framework density 17.717898999999999
#
# number of rings (size 3 to 8) (size 9 to 14) (size 15 to 20)
#    0.000    2.750    0.000    3.375    1.750    3.500 
#    0.000    1.875    0.000    5.625    0.000    3.500 
#    0.000    0.000    0.000    4.125    0.000    0.250 
#
# Total GULP energy -712587.665057 kJ/mol
# GULP energy per Si atom -5567.091133 kJ/mol
# Density = 1.767757 g / cm^3
# Si number density = 17.717899 Si / 1000 Ang^3
#
#
#
# Elastic Constant Matrix: (Units=GPa)
#
#
# Indices 1 2 3 4 5 6 
#
# 1 72.8049 11.4835 32.7133 0.0000 0.0000 0.0000
# 2 11.4835 72.8049 32.7133 0.0000 0.0000 0.0000
# 3 32.7133 32.7133 61.0033 0.0000 0.0000 0.0000
# 4 0.0000 0.0000 0.0000 24.8398 0.0000 0.0000
# 5 0.0000 0.0000 0.0000 0.0000 24.8398 0.0000
# 6 0.0000 0.0000 0.0000 0.0000 0.0000 14.2121
#
#
#
# Elastic Compliance Matrix: (Units=1/GPa)
#
#
# Indices 1 2 3 4 5 6 
#
# 1 0.018316 0.002008 -0.010899 0.000000 0.000000 0.000000
# 2 0.002008 0.018316 -0.010899 0.000000 0.000000 0.000000
# 3 -0.010899 -0.010899 0.028082 0.000000 0.000000 0.000000
# 4 0.000000 0.000000 0.000000 0.040258 0.000000 0.000000
# 5 0.000000 0.000000 0.000000 0.000000 0.040258 0.000000
# 6 0.000000 0.000000 0.000000 0.000000 0.000000 0.070363
#
#
# Mechanical properties :
#
#
# Convention : Reuss Voigt Hill
#
# Bulk Modulus (GPa) = 39.78632 40.04816 39.91724
# Shear Modulus (GPa) = 18.97185 21.42522 20.19854
#
# Velocity S-wave (km/s) = 3.27582 3.48119 3.38006
# Velocity P-wave (km/s) = 6.06730 6.22981 6.14909
#
# Compressibility (1/GPa) = 0.02513427
#
# Stress axis : x y z
#
# Youngs Moduli (GPa) = 54.59792 54.59792 35.61049
#
# Poissons Ratio (x) = -0.10964 0.38811
# Poissons Ratio (y) = -0.10964 0.38811
# Poissons Ratio (z) = 0.59505 0.59505
#
# Static dielectric constant tensor:
#      x y z
#    x 1.633770 0.000000 0.000000 
#    y 0.000000 1.633770 0.000000 
#    z 0.000000 0.000000 1.625450 
# 
# From -- ./inp_files/5394.got.cif
#   From: 2010.05.17/outbox.cif.g08.bks.cpg/sg127_3_cif.got.tgz:5394.got - 2010.05.20 12:03:00.
