data_PCOD9564796
_publ_section_title
;
Structure prediction by ZEFSAII (Michael W. Deem and Ramdas Pophale) SiO2 
 PCOD9564796
Probable space group: P 4/M N C
;
_chemical_formula_sum "Si O2"
_cell_formula_units_Z 64
_cell_length_a 13.634137
_cell_length_b 13.634137
_cell_length_c 13.903340
_cell_angle_alpha 90.000000
_cell_angle_beta 90.000000
_cell_angle_gamma 90.000000
_cell_volume 2584.487587
_symmetry_space_group_name_H-M "P 4/M N C"
_symmetry_group_IT_number 128
_symmetry_cell_setting 'tetragonal'
loop_
_space_group_symop_operation_xyz
x,y,z
-y,x,z
-x,-y,z
y,-x,z
1/2+x,1/2-y,1/2-z
1/2-x,1/2+y,1/2-z
1/2+y,1/2+x,1/2-z
1/2-y,1/2-x,1/2-z
-x,-y,-z
y,-x,-z
x,y,-z
-y,x,-z
1/2-x,1/2+y,1/2+z
1/2+x,1/2-y,1/2+z
1/2-y,1/2-x,1/2+z
1/2+y,1/2+x,1/2+z
loop_
_atom_site_type_symbol
_atom_site_label
_atom_site_fract_x
_atom_site_fract_y
_atom_site_fract_z
Si Si1 0.568603 0.639423 0.324549
Si Si2 0.942354 0.596320 0.362610
Si Si3 0.702171 0.438942 0.895352
Si Si4 0.760518 0.718259 0.635534
O O1 0.458238 0.626660 0.355969
O O2 0.553026 0.649386 0.208722
O O3 0.641957 0.717444 0.369655
O O4 0.925626 0.574375 0.250000
O O5 0.833963 0.631696 0.397467
O O6 0.000000 0.500000 0.398987
O O7 0.010678 0.691778 0.378817
O O8 0.706812 0.322047 0.903443
O O9 0.665089 0.476660 0.000000
O O10 0.777982 0.722018 0.750000
#
# Coordination Sequence:
#
# PCOD9564796 Si02
#       4
#    16  16  16  16
#     4  10  21  36  62  91 118 162 213 262 315 380
#     4  10  22  37  64  94 125 174 223 274 320 386
#     4  11  23  38  59  90 131 168 204 264 337 396
#     4   9  20  36  59  87 123 164 214 263 315 384
#
# _framework density 24.76313
#
# number of rings (size 3 to 8) (size 9 to 14) (size 15 to 20)
#    0.000    2.000    0.000    4.500   14.000    4.500 
#    0.000    1.250    0.000    0.000    0.000    1.750 
#    0.000    0.000    0.000    0.000    0.000    0.000 
#
# Total GULP energy -356357.840034 kJ/mol
# GULP energy per Si atom -5568.091251 kJ/mol
# Density = 2.470677 g / cm^3
# Si number density = 24.763130 Si / 1000 Ang^3
#
#
#
# Elastic Constant Matrix: (Units=GPa)
#
#
# Indices 1 2 3 4 5 6 
#
# 1 82.2367 28.4981 5.6161 0.0000 0.0000 0.0000
# 2 28.4981 82.2359 5.6164 0.0000 0.0000 0.0000
# 3 5.6161 5.6164 99.1623 0.0000 0.0000 0.0000
# 4 0.0000 0.0000 0.0000 11.8390 0.0000 0.0000
# 5 0.0000 0.0000 0.0000 0.0000 11.8442 0.0000
# 6 0.0000 0.0000 0.0000 0.0000 0.0000 13.0936
#
#
#
# Elastic Compliance Matrix: (Units=1/GPa)
#
#
# Indices 1 2 3 4 5 6 
#
# 1 0.013846 -0.004763 -0.000514 0.000000 0.000000 0.000000
# 2 -0.004763 0.013846 -0.000514 0.000000 0.000000 0.000000
# 3 -0.000514 -0.000514 0.010143 0.000000 0.000000 0.000000
# 4 0.000000 0.000000 0.000000 0.084466 0.000000 0.000000
# 5 0.000000 0.000000 0.000000 0.000000 0.084430 0.000000
# 6 0.000000 0.000000 0.000000 0.000000 0.000000 0.076373
#
#
# Mechanical properties :
#
#
# Convention : Reuss Voigt Hill
#
# Bulk Modulus (GPa) = 38.09427 38.12177 38.10802
# Shear Modulus (GPa) = 16.47788 22.28233 19.38010
#
# Velocity S-wave (km/s) = 2.58237 3.00295 2.80057
# Velocity P-wave (km/s) = 4.93035 5.23943 5.08724
#
# Compressibility (1/GPa) = 0.02625067
#
# Stress axis : x y z
#
# Youngs Moduli (GPa) = 72.22460 72.22390 98.59261
#
# Poissons Ratio (x) = 0.34400 0.05071
# Poissons Ratio (y) = 0.34400 0.05072
# Poissons Ratio (z) = 0.03715 0.03716
#
# Static dielectric constant tensor:
#      x y z
#    x 1.948780 0.000000 0.000000 
#    y 0.000000 1.948780 0.000000 
#    z 0.000000 0.000000 -1.441270 
# 
# From -- ./inp_files/3551.got.cif
#   From: 2010.05.17/outbox.cif.g08.bks.cpg/sg128_2_cif.got.tgz:3551.got - 2010.05.20 12:07:25.
