data_PCOD9564411
_publ_section_title
;
Structure prediction by ZEFSAII (Michael W. Deem and Ramdas Pophale) SiO2 
 PCOD9564411
Probable space group: P 4/M B M
;
_chemical_formula_sum "Si O2"
_cell_formula_units_Z 96
_cell_length_a 24.510982
_cell_length_b 24.510982
_cell_length_c 8.700800
_cell_angle_alpha 90.000000
_cell_angle_beta 90.000000
_cell_angle_gamma 90.000000
_cell_volume 5227.338306
_symmetry_space_group_name_H-M "P 4/M B M"
_symmetry_group_IT_number 127
_symmetry_cell_setting 'tetragonal'
loop_
_space_group_symop_operation_xyz
x,y,z
-y,x,z
-x,-y,z
y,-x,z
1/2+x,1/2-y,-z
1/2-x,1/2+y,-z
1/2+y,1/2+x,-z
1/2-y,1/2-x,-z
-x,-y,-z
y,-x,-z
x,y,-z
-y,x,-z
1/2-x,1/2+y,z
1/2+x,1/2-y,z
1/2-y,1/2-x,z
1/2+y,1/2+x,z
loop_
_atom_site_type_symbol
_atom_site_label
_atom_site_fract_x
_atom_site_fract_y
_atom_site_fract_z
Si Si1 0.720692 0.307924 0.314703
Si Si2 0.864332 0.723502 0.815070
Si Si3 0.998905 0.589168 0.314892
Si Si4 0.931386 0.199774 0.315454
Si Si5 0.988817 0.708757 0.184291
Si Si6 0.969253 0.083862 0.185508
O O1 0.720728 0.307723 0.500000
O O2 0.774907 0.274907 0.263488
O O3 0.669496 0.272907 0.256683
O O4 0.714884 0.370065 0.262975
O O5 0.831597 0.668403 0.773720
O O6 0.926675 0.720815 0.765692
O O7 0.862802 0.728687 0.000000
O O8 0.997707 0.595025 0.500000
O O9 0.049878 0.549878 0.277206
O O10 0.944440 0.555561 0.268986
O O11 0.002896 0.647890 0.238894
O O12 0.932282 0.199549 0.500000
O O13 0.949057 0.140202 0.256381
O O14 0.971869 0.245882 0.253931
O O15 0.991099 0.711307 0.000000
O O16 0.031521 0.067944 0.228564
O O17 0.967796 0.088155 0.000000
#
# Coordination Sequence:
#
# PCOD9564411 Si02
#       6
#    16  16  16  16  16  16
#     4   9  20  39  59  79 107 145 187 230 278 333
#     4   9  19  36  58  83 110 142 182 231 281 329
#     4   9  19  37  60  85 115 153 194 237 289 345
#     4  11  24  38  56  85 117 152 194 240 289 342
#     4  11  23  37  55  84 118 152 191 235 285 341
#     4   9  20  40  63  85 112 149 190 234 292 356
#
# _framework density 18.364986999999999
#
# number of rings (size 3 to 8) (size 9 to 14) (size 15 to 20)
#    0.000    2.333    0.000    2.500    2.333    5.333 
#    0.000    5.000    0.000    0.000    0.000    0.000 
#    0.000    0.000    0.000    0.000    0.000    0.000 
#
# Total GULP energy -535939.189107 kJ/mol
# GULP energy per Si atom -5582.699887 kJ/mol
# Density = 1.832319 g / cm^3
# Si number density = 18.364987 Si / 1000 Ang^3
#
#
#
# Elastic Constant Matrix: (Units=GPa)
#
#
# Indices 1 2 3 4 5 6 
#
# 1 285.5772 9.0479 42.7550 0.0000 0.0000 0.0000
# 2 9.0479 285.5772 42.7550 0.0000 0.0000 0.0000
# 3 42.7550 42.7550 23.7516 0.0000 0.0000 0.0000
# 4 0.0000 0.0000 0.0000 30.9055 0.0000 0.0000
# 5 0.0000 0.0000 0.0000 0.0000 30.9055 0.0000
# 6 0.0000 0.0000 0.0000 0.0000 0.0000 12.9838
#
#
#
# Elastic Compliance Matrix: (Units=1/GPa)
#
#
# Indices 1 2 3 4 5 6 
#
# 1 0.005362 0.001746 -0.012794 0.000000 0.000000 0.000000
# 2 0.001746 0.005362 -0.012794 0.000000 0.000000 0.000000
# 3 -0.012794 -0.012794 0.088163 0.000000 0.000000 0.000000
# 4 0.000000 0.000000 0.000000 0.032357 0.000000 0.000000
# 5 0.000000 0.000000 0.000000 0.000000 0.032357 0.000000
# 6 0.000000 0.000000 0.000000 0.000000 0.000000 0.077019
#
#
# Mechanical properties :
#
#
# Convention : Reuss Voigt Hill
#
# Bulk Modulus (GPa) = 19.53051 87.11351 53.32201
# Shear Modulus (GPa) = 16.37357 48.31551 32.34454
#
# Velocity S-wave (km/s) = 2.98915 5.13474 4.20123
# Velocity P-wave (km/s) = 4.75090 9.09350 7.25475
#
# Compressibility (1/GPa) = 0.05120194
#
# Stress axis : x y z
#
# Youngs Moduli (GPa) = 186.50451 186.50451 11.34266
#
# Poissons Ratio (x) = -0.32555 0.14512
# Poissons Ratio (y) = -0.32555 0.14512
# Poissons Ratio (z) = 2.38611 2.38611
#
# Static dielectric constant tensor:
#      x y z
#    x 1.612860 0.000000 0.000000 
#    y 0.000000 1.612860 0.000000 
#    z 0.000000 0.000000 1.625850 
# 
# From -- ./inp_files/2024.got.cif
#   From: 2010.05.17/outbox.cif.g08.bks.cpg/sg127_2_cif.got.tgz:2024.got - 2010.05.20 12:03:00.
