data_PCOD9564710
_publ_section_title
;
Structure prediction by ZEFSAII (Michael W. Deem and Ramdas Pophale) SiO2 
 PCOD9564710
Probable space group: P 4/M N C
;
_chemical_formula_sum "Si O2"
_cell_formula_units_Z 104
_cell_length_a 25.359267
_cell_length_b 25.359267
_cell_length_c 9.451551
_cell_angle_alpha 90.000000
_cell_angle_beta 90.000000
_cell_angle_gamma 90.000000
_cell_volume 6078.220832
_symmetry_space_group_name_H-M "P 4/M N C"
_symmetry_group_IT_number 128
_symmetry_cell_setting 'tetragonal'
loop_
_space_group_symop_operation_xyz
x,y,z
-y,x,z
-x,-y,z
y,-x,z
1/2+x,1/2-y,1/2-z
1/2-x,1/2+y,1/2-z
1/2+y,1/2+x,1/2-z
1/2-y,1/2-x,1/2-z
-x,-y,-z
y,-x,-z
x,y,-z
-y,x,-z
1/2-x,1/2+y,1/2+z
1/2+x,1/2-y,1/2+z
1/2-y,1/2-x,1/2+z
1/2+y,1/2+x,1/2+z
loop_
_atom_site_type_symbol
_atom_site_label
_atom_site_fract_x
_atom_site_fract_y
_atom_site_fract_z
Si Si1 0.081655 0.963890 0.000000
Si Si2 0.754536 0.665131 0.173712
Si Si3 0.357647 0.557655 0.146942
Si Si4 0.544090 0.244348 0.838534
Si Si5 0.057021 0.759236 0.166298
Si Si6 0.759494 0.820005 0.172067
Si Si7 0.448675 0.631165 0.795166
O O1 0.116708 0.948542 0.867687
O O2 0.025864 0.933228 0.000000
O O3 0.798215 0.701786 0.250000
O O4 0.769311 0.604144 0.205046
O O5 0.700603 0.686760 0.249479
O O6 0.751838 0.671251 0.000000
O O7 0.319670 0.556008 0.280181
O O8 0.396521 0.605833 0.146582
O O9 0.391591 0.504247 0.151244
O O10 0.325520 0.558258 0.000000
O O11 0.491953 0.231331 0.746780
O O12 0.547723 0.307941 0.832912
O O13 0.536344 0.226804 0.000000
O O14 0.118375 0.745518 0.194888
O O15 0.047759 0.755514 0.000000
O O16 0.715154 0.784847 0.250000
O O17 0.762571 0.811278 0.000000
#
# Coordination Sequence:
#
# PCOD9564710 Si02
#       7
#     8  16  16  16  16  16  16
#     4  11  22  36  44  60  84 116 158 216 258 299
#     4  10  20  36  55  78 104 135 176 214 256 309
#     4  11  22  34  46  61  85 116 156 202 249 296
#     4  10  22  36  51  72 100 131 162 201 252 306
#     4  10  22  35  50  74  99 125 164 203 246 299
#     4  10  20  34  53  79 104 134 172 212 257 307
#     4  11  21  32  46  62  83 114 160 197 248 293
#
# _framework density 17.11027
#
# number of rings (size 3 to 8) (size 9 to 14) (size 15 to 20)
#    0.000    1.615    1.538    5.538    5.385    5.231 
#    0.000    0.769    0.000    0.000    0.000    0.000 
#    0.000    0.615    0.000    6.769    0.000    4.923 
#
# Total GULP energy -578999.440483 kJ/mol
# GULP energy per Si atom -5567.302312 kJ/mol
# Density = 1.707133 g / cm^3
# Si number density = 17.110270 Si / 1000 Ang^3
#
#
#
# Elastic Constant Matrix: (Units=GPa)
#
#
# Indices 1 2 3 4 5 6 
#
# 1 76.6296 13.1428 32.5025 0.0000 0.0000 0.0000
# 2 13.1428 76.6293 32.5032 0.0000 0.0000 0.0000
# 3 32.5025 32.5032 120.9812 0.0000 0.0000 0.0000
# 4 0.0000 0.0000 0.0000 15.9660 0.0000 0.0000
# 5 0.0000 0.0000 0.0000 0.0000 15.9661 0.0000
# 6 0.0000 0.0000 0.0000 0.0000 0.0000 18.9360
#
#
#
# Elastic Compliance Matrix: (Units=1/GPa)
#
#
# Indices 1 2 3 4 5 6 
#
# 1 0.014790 -0.000961 -0.003715 0.000000 0.000000 0.000000
# 2 -0.000961 0.014791 -0.003716 0.000000 0.000000 0.000000
# 3 -0.003715 -0.003716 0.010262 0.000000 0.000000 0.000000
# 4 0.000000 0.000000 0.000000 0.062633 0.000000 0.000000
# 5 0.000000 0.000000 0.000000 0.000000 0.062633 0.000000
# 6 0.000000 0.000000 0.000000 0.000000 0.000000 0.052809
#
#
# Mechanical properties :
#
#
# Convention : Reuss Voigt Hill
#
# Bulk Modulus (GPa) = 43.36576 47.83746 45.60161
# Shear Modulus (GPa) = 20.62800 23.24638 21.93719
#
# Velocity S-wave (km/s) = 3.47593 3.68995 3.58454
# Velocity P-wave (km/s) = 6.44277 6.79509 6.62128
#
# Compressibility (1/GPa) = 0.02305967
#
# Stress axis : x y z
#
# Youngs Moduli (GPa) = 67.61103 67.61032 97.44521
#
# Poissons Ratio (x) = 0.06496 0.36205
# Poissons Ratio (y) = 0.06496 0.36207
# Poissons Ratio (z) = 0.25121 0.25121
#
# Static dielectric constant tensor:
#      x y z
#    x 1.622120 0.000000 0.000000 
#    y 0.000000 1.622120 0.000000 
#    z 0.000000 0.000000 1.694270 
# 
# From -- ./inp_files/1688.got.cif
#   From: 2010.05.17/outbox.cif.g08.bks.cpg/sg128_1_cif.got.tgz:1688.got - 2010.05.20 12:07:25.
