data_PCOD9564632
_publ_section_title
;
Structure prediction by ZEFSAII (Michael W. Deem and Ramdas Pophale) SiO2 
 PCOD9564632
Probable space group: P 4/M N C
;
_chemical_formula_sum "Si O2"
_cell_formula_units_Z 96
_cell_length_a 16.915935
_cell_length_b 16.915935
_cell_length_c 18.498904
_cell_angle_alpha 90.000000
_cell_angle_beta 90.000000
_cell_angle_gamma 90.000000
_cell_volume 5293.440234
_symmetry_space_group_name_H-M "P 4/M N C"
_symmetry_group_IT_number 128
_symmetry_cell_setting 'tetragonal'
loop_
_space_group_symop_operation_xyz
x,y,z
-y,x,z
-x,-y,z
y,-x,z
1/2+x,1/2-y,1/2-z
1/2-x,1/2+y,1/2-z
1/2+y,1/2+x,1/2-z
1/2-y,1/2-x,1/2-z
-x,-y,-z
y,-x,-z
x,y,-z
-y,x,-z
1/2-x,1/2+y,1/2+z
1/2+x,1/2-y,1/2+z
1/2-y,1/2-x,1/2+z
1/2+y,1/2+x,1/2+z
loop_
_atom_site_type_symbol
_atom_site_label
_atom_site_fract_x
_atom_site_fract_y
_atom_site_fract_z
Si Si1 0.538185 0.625414 0.288745
Si Si2 0.269516 0.827565 0.912848
Si Si3 0.268374 0.503985 0.585734
Si Si4 0.319310 0.157699 0.914010
Si Si5 0.399044 0.706973 0.913126
Si Si6 0.926578 0.215877 0.650707
O O1 0.449226 0.594478 0.275149
O O2 0.537254 0.657451 0.370050
O O3 0.562213 0.695114 0.234610
O O4 0.202195 0.763180 0.895601
O O5 0.351159 0.785968 0.889975
O O6 0.251871 0.915865 0.887053
O O7 0.271790 0.833417 0.000000
O O8 0.285019 0.502564 0.500000
O O9 0.196469 0.565291 0.596713
O O10 0.386893 0.200400 0.868311
O O11 0.334122 0.171988 0.000000
O O12 0.488023 0.708069 0.885694
O O13 0.349475 0.633032 0.882565
O O14 0.397383 0.702788 0.000000
#
# Coordination Sequence:
#
# PCOD9564632 Si02
#       6
#    16  16  16  16  16  16
#     4  11  23  37  52  80 118 146 181 234 276 332
#     4   8  16  32  53  80 109 137 183 238 274 320
#     4  10  20  37  59  78 104 146 190 237 289 327
#     4   9  18  33  56  84 108 139 192 236 266 333
#     4  10  19  33  56  82 110 149 189 226 273 334
#     4  11  20  35  52  79 117 149 177 229 279 330
#
# _framework density 18.135653999999999
#
# number of rings (size 3 to 8) (size 9 to 14) (size 15 to 20)
#    0.000    2.167    1.667    3.500    0.000    3.000 
#    0.000    3.333    0.000    4.000    0.000    2.333 
#    0.000    0.000    0.000    0.000    0.000    0.000 
#
# Total GULP energy -535381.623654 kJ/mol
# GULP energy per Si atom -5576.891913 kJ/mol
# Density = 1.809438 g / cm^3
# Si number density = 18.135654 Si / 1000 Ang^3
#
#
#
# Elastic Constant Matrix: (Units=GPa)
#
#
# Indices 1 2 3 4 5 6 
#
# 1 71.5246 16.4510 17.5618 0.0000 0.0000 0.0000
# 2 16.4510 71.5246 17.5618 0.0000 0.0000 0.0000
# 3 17.5618 17.5618 53.6088 0.0000 0.0000 0.0000
# 4 0.0000 0.0000 0.0000 21.0932 0.0000 0.0000
# 5 0.0000 0.0000 0.0000 0.0000 21.0932 0.0000
# 6 0.0000 0.0000 0.0000 0.0000 0.0000 9.2915
#
#
#
# Elastic Compliance Matrix: (Units=1/GPa)
#
#
# Indices 1 2 3 4 5 6 
#
# 1 0.015617 -0.002540 -0.004284 0.000000 0.000000 0.000000
# 2 -0.002540 0.015617 -0.004284 0.000000 0.000000 0.000000
# 3 -0.004284 -0.004284 0.021460 0.000000 0.000000 0.000000
# 4 0.000000 0.000000 0.000000 0.047409 0.000000 0.000000
# 5 0.000000 0.000000 0.000000 0.000000 0.047409 0.000000
# 6 0.000000 0.000000 0.000000 0.000000 0.000000 0.107625
#
#
# Mechanical properties :
#
#
# Convention : Reuss Voigt Hill
#
# Bulk Modulus (GPa) = 32.80964 33.31192 33.06078
# Shear Modulus (GPa) = 17.39051 19.96782 18.67916
#
# Velocity S-wave (km/s) = 3.09999 3.32177 3.21279
# Velocity P-wave (km/s) = 5.56271 5.75502 5.65968
#
# Compressibility (1/GPa) = 0.03047885
#
# Stress axis : x y z
#
# Youngs Moduli (GPa) = 64.03149 64.03149 46.59743
#
# Poissons Ratio (x) = 0.16265 0.19962
# Poissons Ratio (y) = 0.16265 0.19962
# Poissons Ratio (z) = 0.27431 0.27431
#
# Static dielectric constant tensor:
#      x y z
#    x 1.626620 0.000000 0.000000 
#    y 0.000000 1.626620 0.000000 
#    z 0.000000 0.000000 1.629360 
# 
# From -- ./inp_files/4743.got.cif
#   From: 2010.05.17/outbox.cif.g08.bks.cpg/sg128_3_cif.got.tgz:4743.got - 2010.05.20 12:07:25.
