data_PCOD9564789
_publ_section_title
;
Structure prediction by ZEFSAII (Michael W. Deem and Ramdas Pophale) SiO2 
 PCOD9564789
Probable space group: P 4/M N C
;
_chemical_formula_sum "Si O2"
_cell_formula_units_Z 116
_cell_length_a 17.937667
_cell_length_b 17.937667
_cell_length_c 14.631422
_cell_angle_alpha 90.000000
_cell_angle_beta 90.000000
_cell_angle_gamma 90.000000
_cell_volume 4707.804842
_symmetry_space_group_name_H-M "P 4/M N C"
_symmetry_group_IT_number 128
_symmetry_cell_setting 'tetragonal'
loop_
_space_group_symop_operation_xyz
x,y,z
-y,x,z
-x,-y,z
y,-x,z
1/2+x,1/2-y,1/2-z
1/2-x,1/2+y,1/2-z
1/2+y,1/2+x,1/2-z
1/2-y,1/2-x,1/2-z
-x,-y,-z
y,-x,-z
x,y,-z
-y,x,-z
1/2-x,1/2+y,1/2+z
1/2+x,1/2-y,1/2+z
1/2-y,1/2-x,1/2+z
1/2+y,1/2+x,1/2+z
loop_
_atom_site_type_symbol
_atom_site_label
_atom_site_fract_x
_atom_site_fract_y
_atom_site_fract_z
Si Si1 0.572032 0.849375 0.889663
Si Si2 0.892320 0.597915 0.141124
Si Si3 0.500000 0.500000 0.339852
Si Si4 0.301518 0.763026 0.354191
Si Si5 0.666307 0.553273 0.611107
Si Si6 0.399414 0.436075 0.110358
Si Si7 0.288489 0.645574 0.104003
Si Si8 0.309477 0.036816 0.895614
O O1 0.488549 0.878111 0.876380
O O2 0.584636 0.765780 0.853165
O O3 0.639528 0.899523 0.851649
O O4 0.581308 0.847895 0.000000
O O5 0.894537 0.605464 0.250000
O O6 0.831497 0.657772 0.107740
O O7 0.968711 0.631287 0.103354
O O8 0.414451 0.463515 0.348096
O O9 0.278553 0.778553 0.250000
O O10 0.365346 0.701616 0.367066
O O11 0.222957 0.745237 0.399009
O O12 0.659159 0.548319 0.500000
O O13 0.731752 0.495492 0.642197
O O14 0.479096 0.401909 0.141056
O O15 0.343496 0.372044 0.141960
O O16 0.394749 0.445969 0.000000
O O17 0.301756 0.620072 0.000000
O O18 0.291814 0.057964 0.000000
#
# Coordination Sequence:
#
# PCOD9564789 Si02
#       8
#    16  16   4  16  16  16  16  16
#     4  10  21  35  56  89 122 152 197 254 309 370
#     4  10  21  38  59  85 119 159 207 250 302 381
#     4  12  25  40  72 108 132 172 229 294 349 400
#     4  10  23  43  60  85 125 172 209 263 327 385
#     4  10  21  39  66  97 127 166 217 272 333 395
#     4   8  15  29  51  81 114 144 183 242 301 355
#     4  10  21  35  58  88 114 153 203 254 311 375
#     4   9  19  36  57  85 123 157 192 252 316 370
#
# _framework density 24.639935000000001
#
# number of rings (size 3 to 8) (size 9 to 14) (size 15 to 20)
#    0.000    2.345    0.000    2.276    3.862    3.862 
#    2.483    1.379    0.000    0.000    0.000    0.000 
#    0.000    0.000    0.000    0.000    0.000    0.000 
#
# Total GULP energy -646401.420704 kJ/mol
# GULP energy per Si atom -5572.426041 kJ/mol
# Density = 2.458385 g / cm^3
# Si number density = 24.639935 Si / 1000 Ang^3
#
#
#
# Elastic Constant Matrix: (Units=GPa)
#
#
# Indices 1 2 3 4 5 6 
#
# 1 130.3030 40.1490 -0.8919 0.0000 0.0000 0.0000
# 2 40.1490 130.3029 -0.8920 0.0000 0.0000 0.0000
# 3 -0.8919 -0.8920 67.8076 0.0000 0.0000 0.0000
# 4 0.0000 0.0000 0.0000 -218.6431 0.0000 0.0000
# 5 0.0000 0.0000 0.0000 0.0000 -218.6336 0.0000
# 6 0.0000 0.0000 0.0000 0.0000 0.0000 20.0479
#
#
#
# Elastic Compliance Matrix: (Units=1/GPa)
#
#
# Indices 1 2 3 4 5 6 
#
# 1 0.008480 -0.002612 0.000077 0.000000 0.000000 0.000000
# 2 -0.002612 0.008480 0.000077 0.000000 0.000000 0.000000
# 3 0.000077 0.000077 0.014750 0.000000 0.000000 0.000000
# 4 0.000000 0.000000 0.000000 -0.004574 0.000000 0.000000
# 5 0.000000 0.000000 0.000000 0.000000 -0.004574 0.000000
# 6 0.000000 0.000000 0.000000 0.000000 0.000000 0.049881
#
#
# Mechanical properties :
#
#
# Convention : Reuss Voigt Hill
#
# Bulk Modulus (GPa) = 37.32246 45.01594 41.16920
# Shear Modulus (GPa) = 57.94459 -64.10919 -3.08230
#
# Velocity S-wave (km/s) = 4.85465 -5.10636 -1.11967
# Velocity P-wave (km/s) = 6.82667 4.05677 3.88240
#
# Compressibility (1/GPa) = 0.02679352
#
# Stress axis : x y z
#
# Youngs Moduli (GPa) = 117.92667 117.92660 67.79823
#
# Poissons Ratio (x) = 0.30806 -0.00523
# Poissons Ratio (y) = 0.30806 -0.00523
# Poissons Ratio (z) = -0.00910 -0.00910
#
# Static dielectric constant tensor:
#      x y z
#    x 1.970860 0.000000 0.000000 
#    y 0.000000 1.970860 0.000000 
#    z 0.000000 0.000000 2.048250 
# 
# From -- ./inp_files/4974.got.cif
#   From: 2010.05.17/outbox.cif.g08.bks.cpg/sg128_3_cif.got.tgz:4974.got - 2010.05.20 12:07:25.
