data_PCOD9564634
_publ_section_title
;
Structure prediction by ZEFSAII (Michael W. Deem and Ramdas Pophale) SiO2 
 PCOD9564634
Probable space group: P 4/M N C
;
_chemical_formula_sum "Si O2"
_cell_formula_units_Z 80
_cell_length_a 12.390729
_cell_length_b 12.390729
_cell_length_c 26.321927
_cell_angle_alpha 90.000000
_cell_angle_beta 90.000000
_cell_angle_gamma 90.000000
_cell_volume 4041.209799
_symmetry_space_group_name_H-M "P 4/M N C"
_symmetry_group_IT_number 128
_symmetry_cell_setting 'tetragonal'
loop_
_space_group_symop_operation_xyz
x,y,z
-y,x,z
-x,-y,z
y,-x,z
1/2+x,1/2-y,1/2-z
1/2-x,1/2+y,1/2-z
1/2+y,1/2+x,1/2-z
1/2-y,1/2-x,1/2-z
-x,-y,-z
y,-x,-z
x,y,-z
-y,x,-z
1/2-x,1/2+y,1/2+z
1/2+x,1/2-y,1/2+z
1/2-y,1/2-x,1/2+z
1/2+y,1/2+x,1/2+z
loop_
_atom_site_type_symbol
_atom_site_label
_atom_site_fract_x
_atom_site_fract_y
_atom_site_fract_z
Si Si1 0.828747 0.025976 0.334771
Si Si2 0.242298 0.493160 0.943839
Si Si3 0.139186 0.706543 0.097166
Si Si4 0.058731 0.611125 0.692674
Si Si5 0.396375 0.782435 0.559062
O O1 0.818411 0.029154 0.395985
O O2 0.911716 0.118202 0.319491
O O3 0.709066 0.026014 0.312751
O O4 0.194950 0.612819 0.936687
O O5 0.146014 0.405763 0.938984
O O6 0.290226 0.480022 0.000000
O O7 0.135052 0.654536 0.153170
O O8 0.210209 0.813427 0.091245
O O9 0.017935 0.725521 0.078344
O O10 0.098932 0.598932 0.750000
O O11 0.000000 0.500000 0.677918
O O12 0.389962 0.748182 0.500000
#
# Coordination Sequence:
#
# PCOD9564634 Si02
#       5
#    16  16  16  16  16
#     4  10  21  38  58  86 122 156 187 236 301 359
#     4  10  19  33  56  85 117 156 202 240 282 343
#     4  11  22  38  58  84 121 155 200 248 300 360
#     4  10  22  42  63  88 111 151 207 257 300 354
#     4  11  22  36  58  88 121 162 200 241 298 361
#
# _framework density 19.796052
#
# number of rings (size 3 to 8) (size 9 to 14) (size 15 to 20)
#    0.000    1.600    0.000    7.200    0.000    4.400 
#    7.200    2.000    0.000    0.000    0.000    0.000 
#    0.000    0.000    0.000    0.000    0.000    0.000 
#
# Total GULP energy -447071.448560 kJ/mol
# GULP energy per Si atom -5588.393107 kJ/mol
# Density = 1.975100 g / cm^3
# Si number density = 19.796052 Si / 1000 Ang^3
#
#
#
# Elastic Constant Matrix: (Units=GPa)
#
#
# Indices 1 2 3 4 5 6 
#
# 1 62.6693 12.7707 -13.9191 0.0000 0.0000 0.0000
# 2 12.7707 62.6693 -13.9191 0.0000 0.0000 0.0000
# 3 -13.9191 -13.9191 68.7456 0.0000 0.0000 0.0000
# 4 0.0000 0.0000 0.0000 6.6011 0.0000 0.0000
# 5 0.0000 0.0000 0.0000 0.0000 6.6011 0.0000
# 6 0.0000 0.0000 0.0000 0.0000 0.0000 21.5153
#
#
#
# Elastic Compliance Matrix: (Units=1/GPa)
#
#
# Indices 1 2 3 4 5 6 
#
# 1 0.017183 -0.002857 0.002901 0.000000 0.000000 0.000000
# 2 -0.002857 0.017183 0.002901 0.000000 0.000000 0.000000
# 3 0.002901 0.002901 0.015721 0.000000 0.000000 0.000000
# 4 0.000000 0.000000 0.000000 0.151490 0.000000 0.000000
# 5 0.000000 0.000000 0.000000 0.000000 0.151490 0.000000
# 6 0.000000 0.000000 0.000000 0.000000 0.000000 0.046479
#
#
# Mechanical properties :
#
#
# Convention : Reuss Voigt Hill
#
# Bulk Modulus (GPa) = 17.86503 18.21657 18.04080
# Shear Modulus (GPa) = 12.12658 20.88694 16.50676
#
# Velocity S-wave (km/s) = 2.47771 3.25176 2.89076
# Velocity P-wave (km/s) = 4.15085 4.82915 4.50279
#
# Compressibility (1/GPa) = 0.05597527
#
# Stress axis : x y z
#
# Youngs Moduli (GPa) = 58.19612 58.19612 63.60930
#
# Poissons Ratio (x) = 0.16629 -0.18451
# Poissons Ratio (y) = 0.16629 -0.18451
# Poissons Ratio (z) = -0.16880 -0.16880
#
# Static dielectric constant tensor:
#      x y z
#    x 1.692560 0.000000 0.000000 
#    y 0.000000 1.692560 0.000000 
#    z 0.000000 0.000000 1.696200 
# 
# From -- ./inp_files/7169.got.cif
#   From: 2010.05.17/outbox.cif.g08.bks.cpg/sg128_4_cif.got.tgz:7169.got - 2010.05.20 12:07:25.
