data_PCOD9564926
_publ_section_title
;
Structure prediction by ZEFSAII (Michael W. Deem and Ramdas Pophale) SiO2 
 PCOD9564926
Probable space group: P 4/M N C
;
_chemical_formula_sum "Si O2"
_cell_formula_units_Z 44
_cell_length_a 8.327757
_cell_length_b 8.327757
_cell_length_c 29.185619
_cell_angle_alpha 90.000000
_cell_angle_beta 90.000000
_cell_angle_gamma 90.000000
_cell_volume 2024.067526
_symmetry_space_group_name_H-M "P 4/M N C"
_symmetry_group_IT_number 128
_symmetry_cell_setting 'tetragonal'
loop_
_space_group_symop_operation_xyz
x,y,z
-y,x,z
-x,-y,z
y,-x,z
1/2+x,1/2-y,1/2-z
1/2-x,1/2+y,1/2-z
1/2+y,1/2+x,1/2-z
1/2-y,1/2-x,1/2-z
-x,-y,-z
y,-x,-z
x,y,-z
-y,x,-z
1/2-x,1/2+y,1/2+z
1/2+x,1/2-y,1/2+z
1/2-y,1/2-x,1/2+z
1/2+y,1/2+x,1/2+z
loop_
_atom_site_type_symbol
_atom_site_label
_atom_site_fract_x
_atom_site_fract_y
_atom_site_fract_z
Si Si1 0.692009 0.192009 0.250000
Si Si2 0.000000 0.000000 0.762721
Si Si3 0.573126 0.760657 0.500000
Si Si4 0.261432 0.928694 0.653758
Si Si5 0.500000 0.000000 0.922571
O O1 0.655512 0.379376 0.260002
O O2 0.654964 0.104830 0.297944
O O3 0.391055 0.690882 0.500000
O O4 0.589182 0.874111 0.544304
O O5 0.378323 0.908465 0.611001
O O6 0.108148 0.810773 0.652034
#
# Coordination Sequence:
#
# PCOD9564926 Si02
#       5
#     8   4   8  16   8
#     4  12  24  50  64 108 142 208 236 306 340 422
#     4  12  28  44  80  96 152 202 260 288 364 404
#     4  10  22  46  66  96 130 162 218 293 360 434
#     4  11  24  43  64  99 142 184 237 293 342 418
#     4  11  24  39  72  96 126 181 224 281 366 430
#
# _framework density 21.738403000000002
#
# number of rings (size 3 to 8) (size 9 to 14) (size 15 to 20)
#    0.000    0.909    3.636    2.182    5.091    1.455 
#    0.000    0.000    0.000    8.727    0.000    0.000 
#    0.000    0.000    0.000    0.000    0.000    0.000 
#
# Total GULP energy -244944.781631 kJ/mol
# GULP energy per Si atom -5566.926855 kJ/mol
# Density = 2.168893 g / cm^3
# Si number density = 21.738403 Si / 1000 Ang^3
#
#
#
# Elastic Constant Matrix: (Units=GPa)
#
#
# Indices 1 2 3 4 5 6 
#
# 1 63.0105 13.4718 27.7373 0.0000 0.0000 0.0000
# 2 13.4718 63.0105 27.7373 0.0000 0.0000 0.0000
# 3 27.7373 27.7373 171.8098 0.0000 0.0000 0.0000
# 4 0.0000 0.0000 0.0000 23.3187 0.0000 0.0000
# 5 0.0000 0.0000 0.0000 0.0000 23.3187 0.0000
# 6 0.0000 0.0000 0.0000 0.0000 0.0000 35.3925
#
#
#
# Elastic Compliance Matrix: (Units=1/GPa)
#
#
# Indices 1 2 3 4 5 6 
#
# 1 0.017498 -0.002689 -0.002391 0.000000 0.000000 0.000000
# 2 -0.002689 0.017498 -0.002391 0.000000 0.000000 0.000000
# 3 -0.002391 -0.002391 0.006592 0.000000 0.000000 0.000000
# 4 0.000000 0.000000 0.000000 0.042884 0.000000 0.000000
# 5 0.000000 0.000000 0.000000 0.000000 0.042884 0.000000
# 6 0.000000 0.000000 0.000000 0.000000 0.000000 0.028255
#
#
# Mechanical properties :
#
#
# Convention : Reuss Voigt Hill
#
# Bulk Modulus (GPa) = 37.52738 48.41372 42.97055
# Shear Modulus (GPa) = 27.86553 31.66493 29.76523
#
# Velocity S-wave (km/s) = 3.58419 3.82073 3.70435
# Velocity P-wave (km/s) = 5.86764 6.46401 6.17303
#
# Compressibility (1/GPa) = 0.02664721
#
# Stress axis : x y z
#
# Youngs Moduli (GPa) = 57.15054 57.15054 151.69122
#
# Poissons Ratio (x) = 0.15366 0.36266
# Poissons Ratio (y) = 0.15366 0.36266
# Poissons Ratio (z) = 0.13664 0.13664
#
# Static dielectric constant tensor:
#      x y z
#    x 1.808750 0.000000 0.000000 
#    y 0.000000 1.808750 0.000000 
#    z 0.000000 0.000000 1.790700 
# 
# From -- ./inp_files/7005.got.cif
#   From: 2010.05.17/outbox.cif.g08.bks.cpg/sg128_4_cif.got.tgz:7005.got - 2010.05.20 12:07:25.
