data_PCOD9564752
_publ_section_title
;
Structure prediction by ZEFSAII (Michael W. Deem and Ramdas Pophale) SiO2 
 PCOD9564752
Probable space group: P 4/M N C
;
_chemical_formula_sum "Si O2"
_cell_formula_units_Z 80
_cell_length_a 14.830678
_cell_length_b 14.830678
_cell_length_c 14.217856
_cell_angle_alpha 90.000000
_cell_angle_beta 90.000000
_cell_angle_gamma 90.000000
_cell_volume 3127.203351
_symmetry_space_group_name_H-M "P 4/M N C"
_symmetry_group_IT_number 128
_symmetry_cell_setting 'tetragonal'
loop_
_space_group_symop_operation_xyz
x,y,z
-y,x,z
-x,-y,z
y,-x,z
1/2+x,1/2-y,1/2-z
1/2-x,1/2+y,1/2-z
1/2+y,1/2+x,1/2-z
1/2-y,1/2-x,1/2-z
-x,-y,-z
y,-x,-z
x,y,-z
-y,x,-z
1/2-x,1/2+y,1/2+z
1/2+x,1/2-y,1/2+z
1/2-y,1/2-x,1/2+z
1/2+y,1/2+x,1/2+z
loop_
_atom_site_type_symbol
_atom_site_label
_atom_site_fract_x
_atom_site_fract_y
_atom_site_fract_z
Si Si1 0.114002 0.919719 0.886153
Si Si2 0.697478 0.164626 0.887130
Si Si3 0.527304 0.642619 0.885177
Si Si4 0.980646 0.404794 0.847498
Si Si5 0.155892 0.714801 0.388341
O O1 0.200949 0.865069 0.868187
O O2 0.021342 0.878949 0.850756
O O3 0.107578 0.923311 0.000000
O O4 0.713287 0.267852 0.853555
O O5 0.641985 0.079007 0.847262
O O6 0.676557 0.165836 0.000000
O O7 0.431911 0.601491 0.856359
O O8 0.560519 0.741764 0.855448
O O9 0.523064 0.643921 0.000000
O O10 0.939512 0.439512 0.750000
O O11 0.894388 0.343241 0.878196
O O12 0.000000 0.500000 0.900079
O O13 0.161805 0.726052 0.500000
#
# Coordination Sequence:
#
# PCOD9564752 Si02
#       5
#    16  16  16  16  16
#     4   8  13  23  45  79 118 152 185 242 319 385
#     4  10  20  36  62  94 126 163 217 285 341 401
#     4   8  15  29  51  83 123 156 193 260 335 398
#     4  11  26  46  61  88 136 187 231 274 341 423
#     4  10  21  37  65 101 127 166 229 286 348 410
#
# _framework density 25.581961
#
# number of rings (size 3 to 8) (size 9 to 14) (size 15 to 20)
#    0.000    2.600    0.000    3.000    2.800    4.800 
#    3.600    0.000    0.000    0.000    0.000    0.000 
#    0.000    0.000    0.000    0.000    0.000    0.000 
#
# Total GULP energy -445457.364866 kJ/mol
# GULP energy per Si atom -5568.217061 kJ/mol
# Density = 2.552374 g / cm^3
# Si number density = 25.581961 Si / 1000 Ang^3
#
#
#
# Elastic Constant Matrix: (Units=GPa)
#
#
# Indices 1 2 3 4 5 6 
#
# 1 33.7900 121.6957 3.1980 0.0000 0.0000 0.0000
# 2 121.6957 33.7900 3.1980 0.0000 0.0000 0.0000
# 3 3.1980 3.1980 88.0992 0.0000 0.0000 0.0000
# 4 0.0000 0.0000 0.0000 15.0853 0.0000 0.0000
# 5 0.0000 0.0000 0.0000 0.0000 15.0853 0.0000
# 6 0.0000 0.0000 0.0000 0.0000 0.0000 66.6622
#
#
#
# Elastic Compliance Matrix: (Units=1/GPa)
#
#
# Indices 1 2 3 4 5 6 
#
# 1 -0.002467 0.008908 -0.000234 0.000000 0.000000 0.000000
# 2 0.008908 -0.002467 -0.000234 0.000000 0.000000 0.000000
# 3 -0.000234 -0.000234 0.011368 0.000000 0.000000 0.000000
# 4 0.000000 0.000000 0.000000 0.066290 0.000000 0.000000
# 5 0.000000 0.000000 0.000000 0.000000 0.066290 0.000000
# 6 0.000000 0.000000 0.000000 0.000000 0.000000 0.015001
#
#
# Mechanical properties :
#
#
# Convention : Reuss Voigt Hill
#
# Bulk Modulus (GPa) = 42.89135 45.76251 44.32693
# Shear Modulus (GPa) = 34.50575 21.20573 27.85574
#
# Velocity S-wave (km/s) = 3.67663 2.88224 3.30340
# Velocity P-wave (km/s) = 5.90136 5.38552 5.64933
#
# Compressibility (1/GPa) = 0.02331473
#
# Stress axis : x y z
#
# Youngs Moduli (GPa) = -405.28829 -405.28829 87.96762
#
# Poissons Ratio (x) = 3.61049 0.02057
# Poissons Ratio (y) = 3.61049 0.02057
# Poissons Ratio (z) = -0.09476 -0.09476
#
# Static dielectric constant tensor:
#      x y z
#    x 2.068500 0.000000 0.000000 
#    y 0.000000 2.068500 0.000000 
#    z 0.000000 0.000000 2.152220 
# 
# From -- ./inp_files/5563.got.cif
#   From: 2010.05.17/outbox.cif.g08.bks.cpg/sg128_3_cif.got.tgz:5563.got - 2010.05.20 12:07:25.
