data_PCOD9564642
_publ_section_title
;
Structure prediction by ZEFSAII (Michael W. Deem and Ramdas Pophale) SiO2 
 PCOD9564642
Probable space group: P 4/M N C
;
_chemical_formula_sum "Si O2"
_cell_formula_units_Z 80
_cell_length_a 17.852053
_cell_length_b 17.852053
_cell_length_c 15.344694
_cell_angle_alpha 90.000000
_cell_angle_beta 90.000000
_cell_angle_gamma 90.000000
_cell_volume 4890.289474
_symmetry_space_group_name_H-M "P 4/M N C"
_symmetry_group_IT_number 128
_symmetry_cell_setting 'tetragonal'
loop_
_space_group_symop_operation_xyz
x,y,z
-y,x,z
-x,-y,z
y,-x,z
1/2+x,1/2-y,1/2-z
1/2-x,1/2+y,1/2-z
1/2+y,1/2+x,1/2-z
1/2-y,1/2-x,1/2-z
-x,-y,-z
y,-x,-z
x,y,-z
-y,x,-z
1/2-x,1/2+y,1/2+z
1/2+x,1/2-y,1/2+z
1/2-y,1/2-x,1/2+z
1/2+y,1/2+x,1/2+z
loop_
_atom_site_type_symbol
_atom_site_label
_atom_site_fract_x
_atom_site_fract_y
_atom_site_fract_z
Si Si1 0.437173 0.608534 0.500000
Si Si2 0.623760 0.517412 0.000000
Si Si3 0.382151 0.686959 0.325370
Si Si4 0.265340 0.473571 0.837377
Si Si5 0.817889 0.719669 0.603911
Si Si6 0.752361 0.859635 0.293554
O O1 0.401417 0.526196 0.500000
O O2 0.411425 0.651089 0.413522
O O3 0.561545 0.581652 0.000000
O O4 0.673125 0.524215 0.913640
O O5 0.446776 0.700448 0.254592
O O6 0.340621 0.764816 0.349258
O O7 0.318338 0.636961 0.278643
O O8 0.212779 0.404009 0.865607
O O9 0.234965 0.557803 0.828372
O O10 0.812563 0.713840 0.500000
O O11 0.786727 0.801108 0.635632
O O12 0.681677 0.818324 0.250000
#
# Coordination Sequence:
#
# PCOD9564642 Si02
#       6
#     8   8  16  16  16  16
#     4  11  22  33  52  80 106 141 182 221 271 321
#     4  11  22  31  46  80 118 150 174 205 269 344
#     4  10  20  37  53  74 110 147 186 223 265 329
#     4  11  20  33  55  78 109 142 181 226 274 323
#     4  10  19  34  56  80 105 145 189 227 267 332
#     4   9  20  34  54  80 109 140 182 226 278 324
#
# _framework density 16.35895
#
# number of rings (size 3 to 8) (size 9 to 14) (size 15 to 20)
#    0.000    1.800    2.000    5.400    1.400    0.000 
#    0.000    2.000    0.000    2.400    0.000    1.400 
#    0.000    0.000    0.000    0.000    0.000    0.000 
#
# Total GULP energy -446234.429212 kJ/mol
# GULP energy per Si atom -5577.930365 kJ/mol
# Density = 1.632172 g / cm^3
# Si number density = 16.358950 Si / 1000 Ang^3
#
#
#
# Elastic Constant Matrix: (Units=GPa)
#
#
# Indices 1 2 3 4 5 6 
#
# 1 -32.5492 148.7135 28.3356 0.0000 0.0000 0.0000
# 2 148.7135 -32.5422 28.3377 0.0000 0.0000 0.0000
# 3 28.3356 28.3377 120.6331 0.0000 0.0000 0.0000
# 4 0.0000 0.0000 0.0000 13.1413 0.0000 0.0000
# 5 0.0000 0.0000 0.0000 0.0000 13.1416 0.0000
# 6 0.0000 0.0000 0.0000 0.0000 0.0000 -30.4711
#
#
#
# Elastic Compliance Matrix: (Units=1/GPa)
#
#
# Indices 1 2 3 4 5 6 
#
# 1 0.002103 0.007620 -0.002284 0.000000 0.000000 0.000000
# 2 0.007620 0.002103 -0.002284 0.000000 0.000000 0.000000
# 3 -0.002284 -0.002284 0.009363 0.000000 0.000000 0.000000
# 4 0.000000 0.000000 0.000000 0.076096 0.000000 0.000000
# 5 0.000000 0.000000 0.000000 0.000000 0.076094 0.000000
# 6 0.000000 0.000000 0.000000 0.000000 0.000000 -0.032818
#
#
# Mechanical properties :
#
#
# Convention : Reuss Voigt Hill
#
# Bulk Modulus (GPa) = 50.83322 51.81281 51.32302
# Shear Modulus (GPa) = 37.48322 -10.82731 13.32795
#
# Velocity S-wave (km/s) = 4.79194 -2.57545 2.85743
# Velocity P-wave (km/s) = 7.85863 4.78511 6.50597
#
# Compressibility (1/GPa) = 0.01967217
#
# Stress axis : x y z
#
# Youngs Moduli (GPa) = 475.61069 475.53737 106.80879
#
# Poissons Ratio (x) = -3.62344 0.24393
# Poissons Ratio (y) = -3.62400 0.24393
# Poissons Ratio (z) = 1.08620 1.08602
#
# Static dielectric constant tensor:
#      x y z
#    x 1.541430 0.000000 0.000000 
#    y 0.000000 1.541430 0.000000 
#    z 0.000000 0.000000 1.553830 
# 
# From -- ./inp_files/3783.got.cif
#   From: 2010.05.17/outbox.cif.g08.bks.cpg/sg128_2_cif.got.tgz:3783.got - 2010.05.20 12:07:25.
