data_PCOD9564286
_publ_section_title
;
Structure prediction by ZEFSAII (Michael W. Deem and Ramdas Pophale) SiO2 
 PCOD9564286
Probable space group: P 4/M B M
;
_chemical_formula_sum "Si O2"
_cell_formula_units_Z 46
_cell_length_a 15.123841
_cell_length_b 15.123841
_cell_length_c 11.814844
_cell_angle_alpha 90.000000
_cell_angle_beta 90.000000
_cell_angle_gamma 90.000000
_cell_volume 2702.415962
_symmetry_space_group_name_H-M "P 4/M B M"
_symmetry_group_IT_number 127
_symmetry_cell_setting 'tetragonal'
loop_
_space_group_symop_operation_xyz
x,y,z
-y,x,z
-x,-y,z
y,-x,z
1/2+x,1/2-y,-z
1/2-x,1/2+y,-z
1/2+y,1/2+x,-z
1/2-y,1/2-x,-z
-x,-y,-z
y,-x,-z
x,y,-z
-y,x,-z
1/2-x,1/2+y,z
1/2+x,1/2-y,z
1/2-y,1/2-x,z
1/2+y,1/2+x,z
loop_
_atom_site_type_symbol
_atom_site_label
_atom_site_fract_x
_atom_site_fract_y
_atom_site_fract_z
Si Si1 0.288134 0.211867 0.000000
Si Si2 0.000000 0.000000 0.000000
Si Si3 0.575810 0.300190 0.000000
Si Si4 0.346419 0.153582 0.246782
Si Si5 0.688537 0.046694 0.775720
Si Si6 0.712542 0.212542 0.634364
O O1 0.182620 0.197112 0.000000
O O2 0.328642 0.171359 0.113655
O O3 0.102887 0.964037 0.000000
O O4 0.546432 0.246938 0.888512
O O5 0.448757 0.174621 0.269650
O O6 0.281881 0.218120 0.315336
O O7 0.594888 0.094888 0.802241
O O8 0.731834 0.115003 0.686146
O O9 0.712321 0.212321 0.500000
#
# Coordination Sequence:
#
# PCOD9564286 Si02
#       6
#     4   2   8   8  16   8
#     4  12  20  40  59  93 122 166 194 250 318 386
#     4  12  28  28  64 104 130 168 216 252 320 410
#     4  12  20  40  57  90 134 164 197 256 320 383
#     4  12  21  38  66  92 119 158 205 259 320 375
#     4  10  22  39  64  88 125 157 207 256 318 373
#     4  10  24  42  60  87 125 162 208 262 312 364
#
# _framework density 17.021805000000001
#
# number of rings (size 3 to 8) (size 9 to 14) (size 15 to 20)
#    1.043    0.000    5.217    3.652    0.000    1.391 
#    0.000    3.478    0.000    0.000    0.000    3.652 
#    0.000    0.000    0.000    0.000    0.000    0.000 
#
# Total GULP energy -256069.955888 kJ/mol
# GULP energy per Si atom -5566.738171 kJ/mol
# Density = 1.698306 g / cm^3
# Si number density = 17.021805 Si / 1000 Ang^3
#
#
#
# Elastic Constant Matrix: (Units=GPa)
#
#
# Indices 1 2 3 4 5 6 
#
# 1 -150.0868 384.8630 53.2319 0.0000 0.0000 0.0000
# 2 384.8630 -150.0961 53.2268 0.0000 0.0000 0.0000
# 3 53.2319 53.2268 121.1508 0.0000 0.0000 0.0000
# 4 0.0000 0.0000 0.0000 -1.0293 0.0000 0.0000
# 5 0.0000 0.0000 0.0000 0.0000 -1.0297 0.0000
# 6 0.0000 0.0000 0.0000 0.0000 0.0000 34.7398
#
#
#
# Elastic Compliance Matrix: (Units=1/GPa)
#
#
# Indices 1 2 3 4 5 6 
#
# 1 0.001725 0.003594 -0.002337 0.000000 0.000000 0.000000
# 2 0.003594 0.001725 -0.002337 0.000000 0.000000 0.000000
# 3 -0.002337 -0.002337 0.010308 0.000000 0.000000 0.000000
# 4 0.000000 0.000000 0.000000 -0.971536 0.000000 0.000000
# 5 0.000000 0.000000 0.000000 0.000000 -0.971135 0.000000
# 6 0.000000 0.000000 0.000000 0.000000 0.000000 0.028785
#
#
# Mechanical properties :
#
#
# Convention : Reuss Voigt Hill
#
# Bulk Modulus (GPa) = 86.22201 89.29016 87.75608
# Shear Modulus (GPa) = -2.63977 -38.15410 -20.39694
#
# Velocity S-wave (km/s) = -1.24667 -4.73957 -3.46538
# Velocity P-wave (km/s) = 6.97793 4.75593 5.97120
#
# Compressibility (1/GPa) = 0.01159797
#
# Stress axis : x y z
#
# Youngs Moduli (GPa) = 579.71801 579.73447 97.01362
#
# Poissons Ratio (x) = -2.08372 0.22673
# Poissons Ratio (y) = -2.08366 0.22673
# Poissons Ratio (z) = 1.35483 1.35490
#
# Static dielectric constant tensor:
#      x y z
#    x 1.571330 0.000000 0.000000 
#    y 0.000000 1.571330 0.000000 
#    z 0.000000 0.000000 1.549990 
# 
# From -- ./inp_files/2833.got.cif
#   From: 2010.05.17/outbox.cif.g08.bks.cpg/sg127_2_cif.got.tgz:2833.got - 2010.05.20 12:03:00.
