data_PCOD9564121
_publ_section_title
;
Structure prediction by ZEFSAII (Michael W. Deem and Ramdas Pophale) SiO2 
 PCOD9564121
Probable space group: P 4/M B M
;
_chemical_formula_sum "Si O2"
_cell_formula_units_Z 96
_cell_length_a 25.167613
_cell_length_b 25.167613
_cell_length_c 8.746131
_cell_angle_alpha 90.000000
_cell_angle_beta 90.000000
_cell_angle_gamma 90.000000
_cell_volume 5539.875853
_symmetry_space_group_name_H-M "P 4/M B M"
_symmetry_group_IT_number 127
_symmetry_cell_setting 'tetragonal'
loop_
_space_group_symop_operation_xyz
x,y,z
-y,x,z
-x,-y,z
y,-x,z
1/2+x,1/2-y,-z
1/2-x,1/2+y,-z
1/2+y,1/2+x,-z
1/2-y,1/2-x,-z
-x,-y,-z
y,-x,-z
x,y,-z
-y,x,-z
1/2-x,1/2+y,z
1/2+x,1/2-y,z
1/2-y,1/2-x,z
1/2+y,1/2+x,z
loop_
_atom_site_type_symbol
_atom_site_label
_atom_site_fract_x
_atom_site_fract_y
_atom_site_fract_z
Si Si1 0.329926 0.014207 0.819637
Si Si2 0.906741 0.678069 0.680651
Si Si3 0.303153 0.412205 0.317066
Si Si4 0.386141 0.113859 0.316986
Si Si5 0.145468 0.807720 0.181742
Si Si6 0.713305 0.469905 0.316936
Si Si7 0.703435 0.796566 0.683392
O O1 0.368657 0.058559 0.755196
O O2 0.274371 0.022953 0.732093
O O3 0.346434 0.954572 0.777449
O O4 0.322139 0.020362 0.000000
O O5 0.919371 0.672590 0.500000
O O6 0.852250 0.647750 0.710699
O O7 0.903299 0.740510 0.712791
O O8 0.311831 0.407309 0.500000
O O9 0.333303 0.365357 0.231962
O O10 0.314509 0.473874 0.273760
O O11 0.389632 0.110368 0.500000
O O12 0.341342 0.158659 0.281306
O O13 0.084793 0.804461 0.240691
O O14 0.181151 0.759600 0.252635
O O15 0.146755 0.801703 0.000000
O O16 0.709952 0.464802 0.500000
O O17 0.707981 0.792020 0.500000
#
# Coordination Sequence:
#
# PCOD9564121 Si02
#       7
#    16  16  16   8  16  16   8
#     4  11  21  33  53  80 109 140 178 232 287 332
#     4   9  19  37  58  78 104 146 193 229 267 327
#     4   9  20  37  59  84 111 149 192 227 266 328
#     4  11  21  35  56  78 104 146 188 229 272 331
#     4  12  24  36  56  88 122 148 179 232 289 333
#     4  10  20  38  60  80 107 150 194 225 264 330
#     4  11  23  37  57  80 113 154 190 227 272 332
#
# _framework density 17.328907999999998
#
# number of rings (size 3 to 8) (size 9 to 14) (size 15 to 20)
#    0.000    1.667    1.667    5.000    1.167    4.333 
#    0.000    0.417    0.000    3.000    0.000    3.500 
#    0.000    0.000    0.000    0.000    0.000    0.000 
#
# Total GULP energy -535722.647814 kJ/mol
# GULP energy per Si atom -5580.444248 kJ/mol
# Density = 1.728947 g / cm^3
# Si number density = 17.328908 Si / 1000 Ang^3
#
#
#
# Elastic Constant Matrix: (Units=GPa)
#
#
# Indices 1 2 3 4 5 6 
#
# 1 90.8211 60.1269 49.2784 0.0000 0.0000 0.0000
# 2 60.1269 90.8206 49.2779 0.0000 0.0000 0.0000
# 3 49.2784 49.2779 66.0412 0.0000 0.0000 0.0000
# 4 0.0000 0.0000 0.0000 -1.8638 0.0000 0.0000
# 5 0.0000 0.0000 0.0000 0.0000 -1.8640 0.0000
# 6 0.0000 0.0000 0.0000 0.0000 0.0000 27.2425
#
#
#
# Elastic Compliance Matrix: (Units=1/GPa)
#
#
# Indices 1 2 3 4 5 6 
#
# 1 0.022749 -0.009831 -0.009640 0.000000 0.000000 0.000000
# 2 -0.009831 0.022749 -0.009639 0.000000 0.000000 0.000000
# 3 -0.009640 -0.009639 0.029528 0.000000 0.000000 0.000000
# 4 0.000000 0.000000 0.000000 -0.536529 0.000000 0.000000
# 5 0.000000 0.000000 0.000000 0.000000 -0.536473 0.000000
# 6 0.000000 0.000000 0.000000 0.000000 0.000000 0.036707
#
#
# Mechanical properties :
#
#
# Convention : Reuss Voigt Hill
#
# Bulk Modulus (GPa) = 59.50006 62.78327 61.14167
# Shear Modulus (GPa) = -5.57136 10.63625 2.53244
#
# Velocity S-wave (km/s) = -1.79501 2.48016 1.21019
# Velocity P-wave (km/s) = 5.48764 6.67163 6.10839
#
# Compressibility (1/GPa) = 0.01680671
#
# Stress axis : x y z
#
# Youngs Moduli (GPa) = 43.95755 43.95784 33.86668
#
# Poissons Ratio (x) = 0.43213 0.32646
# Poissons Ratio (y) = 0.43213 0.32645
# Poissons Ratio (z) = 0.42374 0.42372
#
# Static dielectric constant tensor:
#      x y z
#    x 1.583520 0.000000 0.000000 
#    y 0.000000 1.583520 0.000000 
#    z 0.000000 0.000000 1.579830 
# 
# From -- ./inp_files/2110.got.cif
#   From: 2010.05.17/outbox.cif.g08.bks.cpg/sg127_2_cif.got.tgz:2110.got - 2010.05.20 12:03:00.
