data_PCOD9564378
_publ_section_title
;
Structure prediction by ZEFSAII (Michael W. Deem and Ramdas Pophale) SiO2 
 PCOD9564378
Probable space group: P 4/M B M
;
_chemical_formula_sum "Si O2"
_cell_formula_units_Z 88
_cell_length_a 13.348627
_cell_length_b 13.348627
_cell_length_c 27.586230
_cell_angle_alpha 90.000000
_cell_angle_beta 90.000000
_cell_angle_gamma 90.000000
_cell_volume 4915.475642
_symmetry_space_group_name_H-M "P 4/M B M"
_symmetry_group_IT_number 127
_symmetry_cell_setting 'tetragonal'
loop_
_space_group_symop_operation_xyz
x,y,z
-y,x,z
-x,-y,z
y,-x,z
1/2+x,1/2-y,-z
1/2-x,1/2+y,-z
1/2+y,1/2+x,-z
1/2-y,1/2-x,-z
-x,-y,-z
y,-x,-z
x,y,-z
-y,x,-z
1/2-x,1/2+y,z
1/2+x,1/2-y,z
1/2-y,1/2-x,z
1/2+y,1/2+x,z
loop_
_atom_site_type_symbol
_atom_site_label
_atom_site_fract_x
_atom_site_fract_y
_atom_site_fract_z
Si Si1 0.018566 0.833860 0.919124
Si Si2 0.844280 0.069152 0.447862
Si Si3 0.568216 0.344310 0.657864
Si Si4 0.585489 0.248281 0.239583
Si Si5 0.728005 0.394630 0.183153
Si Si6 0.497770 0.833020 0.000000
O O1 0.041487 0.799953 0.864267
O O2 0.915017 0.893526 0.927975
O O3 0.014728 0.738488 0.953854
O O4 0.794487 0.091440 0.500000
O O5 0.797497 0.089557 0.395234
O O6 0.951341 0.126345 0.447849
O O7 0.626425 0.450467 0.660581
O O8 0.593776 0.279279 0.704426
O O9 0.650726 0.150726 0.229906
O O10 0.634105 0.337075 0.207115
O O11 0.472074 0.233926 0.223331
O O12 0.811350 0.311350 0.171174
O O13 0.581344 0.918657 0.000000
O O14 0.390620 0.890620 0.000000
#
# Coordination Sequence:
#
# PCOD9564378 Si02
#       6
#    16  16  16  16  16   8
#     4  11  23  41  68  95 118 150 194 240 281 324
#     4   7  10  17  32  60  94 126 165 216 277 335
#     4   9  15  25  46  70  97 136 179 227 278 332
#     4  11  22  35  54  79 111 148 185 232 283 330
#     4  11  23  39  60  86 115 149 187 229 280 334
#     4  11  26  45  64  90 128 165 192 229 280 332
#
# _framework density 17.902640999999999
#
# number of rings (size 3 to 8) (size 9 to 14) (size 15 to 20)
#    0.000    2.091    3.636    2.727    0.000    4.364 
#    0.000    0.000    0.000    0.545    0.000    0.000 
#    0.000    0.727    0.000    1.636    0.000    0.000 
#
# Total GULP energy -490244.019712 kJ/mol
# GULP energy per Si atom -5570.954769 kJ/mol
# Density = 1.786189 g / cm^3
# Si number density = 17.902641 Si / 1000 Ang^3
#
#
#
# Elastic Constant Matrix: (Units=GPa)
#
#
# Indices 1 2 3 4 5 6 
#
# 1 51.6344 19.7328 28.1971 0.0000 0.0000 0.0000
# 2 19.7328 51.6332 28.1965 0.0000 0.0000 0.0000
# 3 28.1971 28.1965 119.2212 0.0000 0.0000 0.0000
# 4 0.0000 0.0000 0.0000 -10.7076 0.0000 0.0000
# 5 0.0000 0.0000 0.0000 0.0000 -10.7647 0.0000
# 6 0.0000 0.0000 0.0000 0.0000 0.0000 8.2348
#
#
#
# Elastic Compliance Matrix: (Units=1/GPa)
#
#
# Indices 1 2 3 4 5 6 
#
# 1 0.024290 -0.007057 -0.004076 0.000000 0.000000 0.000000
# 2 -0.007057 0.024290 -0.004076 0.000000 0.000000 0.000000
# 3 -0.004076 -0.004076 0.010316 0.000000 0.000000 0.000000
# 4 0.000000 0.000000 0.000000 -0.093392 0.000000 0.000000
# 5 0.000000 0.000000 0.000000 0.000000 -0.092896 0.000000
# 6 0.000000 0.000000 0.000000 0.000000 0.000000 0.121435
#
#
# Mechanical properties :
#
#
# Convention : Reuss Voigt Hill
#
# Bulk Modulus (GPa) = 35.11435 41.63796 38.37615
# Shear Modulus (GPa) = 147.26270 7.11000 77.18635
#
# Velocity S-wave (km/s) = 9.07943 1.99502 6.57329
# Velocity P-wave (km/s) = 11.38295 5.34933 8.89345
#
# Compressibility (1/GPa) = 0.02847839
#
# Stress axis : x y z
#
# Youngs Moduli (GPa) = 41.16985 41.16908 96.94024
#
# Poissons Ratio (x) = 0.29053 0.39510
# Poissons Ratio (y) = 0.29054 0.39510
# Poissons Ratio (z) = 0.16780 0.16779
#
# Static dielectric constant tensor:
#      x y z
#    x 1.599530 0.000000 0.000000 
#    y 0.000000 1.599530 0.000000 
#    z 0.000000 0.000000 1.661510 
# 
# From -- ./inp_files/6533.got.cif
#   From: 2010.05.17/outbox.cif.g08.bks.cpg/sg127_4_cif.got.tgz:6533.got - 2010.05.20 12:03:00.
