data_PCOD9564662
_publ_section_title
;
Structure prediction by ZEFSAII (Michael W. Deem and Ramdas Pophale) SiO2 
 PCOD9564662
Probable space group: P 4/M N C
;
_chemical_formula_sum "Si O2"
_cell_formula_units_Z 88
_cell_length_a 17.016748
_cell_length_b 17.016748
_cell_length_c 16.535075
_cell_angle_alpha 90.000000
_cell_angle_beta 90.000000
_cell_angle_gamma 90.000000
_cell_volume 4788.056914
_symmetry_space_group_name_H-M "P 4/M N C"
_symmetry_group_IT_number 128
_symmetry_cell_setting 'tetragonal'
loop_
_space_group_symop_operation_xyz
x,y,z
-y,x,z
-x,-y,z
y,-x,z
1/2+x,1/2-y,1/2-z
1/2-x,1/2+y,1/2-z
1/2+y,1/2+x,1/2-z
1/2-y,1/2-x,1/2-z
-x,-y,-z
y,-x,-z
x,y,-z
-y,x,-z
1/2-x,1/2+y,1/2+z
1/2+x,1/2-y,1/2+z
1/2-y,1/2-x,1/2+z
1/2+y,1/2+x,1/2+z
loop_
_atom_site_type_symbol
_atom_site_label
_atom_site_fract_x
_atom_site_fract_y
_atom_site_fract_z
Si Si1 0.630109 0.504872 0.000000
Si Si2 0.228859 0.252110 0.405261
Si Si3 0.605446 0.215163 0.305576
Si Si4 0.678909 0.900861 0.404811
Si Si5 0.498501 0.908013 0.405277
Si Si6 0.739467 0.548102 0.145141
O O1 0.573384 0.579596 0.000000
O O2 0.676575 0.509532 0.084595
O O3 0.246215 0.256231 0.500000
O O4 0.258736 0.330228 0.360606
O O5 0.266524 0.170437 0.374243
O O6 0.134535 0.251933 0.392772
O O7 0.657963 0.157963 0.250000
O O8 0.552950 0.155131 0.357244
O O9 0.561132 0.270745 0.241085
O O10 0.697270 0.913131 0.500000
O O11 0.588089 0.879009 0.399634
O O12 0.690666 0.984811 0.362310
O O13 0.473418 0.909578 0.500000
O O14 0.500000 0.000000 0.378132
#
# Coordination Sequence:
#
# PCOD9564662 Si02
#       6
#     8  16  16  16  16  16
#     4  11  22  38  60  82 107 148 200 248 301 364
#     4  10  19  36  58  78 114 154 194 238 289 358
#     4  10  22  35  51  82 114 147 189 230 295 345
#     4  10  20  34  57  85 110 152 200 233 283 353
#     4  10  20  36  57  81 115 156 196 235 285 355
#     4  11  20  35  55  81 115 146 188 244 298 347
#
# _framework density 18.379062999999999
#
# number of rings (size 3 to 8) (size 9 to 14) (size 15 to 20)
#    0.000    1.727    1.818    3.818    0.000    4.000 
#   13.091    0.000    0.000    0.000    0.000    0.000 
#    0.000    0.000    0.000   10.545    0.000    0.000 
#
# Total GULP energy -490299.059486 kJ/mol
# GULP energy per Si atom -5571.580221 kJ/mol
# Density = 1.833723 g / cm^3
# Si number density = 18.379063 Si / 1000 Ang^3
#
#
#
# Elastic Constant Matrix: (Units=GPa)
#
#
# Indices 1 2 3 4 5 6 
#
# 1 55.6423 18.1167 21.9291 0.0000 0.0000 0.0000
# 2 18.1167 55.6423 21.9291 0.0000 0.0000 0.0000
# 3 21.9291 21.9291 56.6812 0.0000 0.0000 0.0000
# 4 0.0000 0.0000 0.0000 8.6812 0.0000 0.0000
# 5 0.0000 0.0000 0.0000 0.0000 8.6812 0.0000
# 6 0.0000 0.0000 0.0000 0.0000 0.0000 29.5106
#
#
#
# Elastic Compliance Matrix: (Units=1/GPa)
#
#
# Indices 1 2 3 4 5 6 
#
# 1 0.022128 -0.004520 -0.006812 0.000000 0.000000 0.000000
# 2 -0.004520 0.022128 -0.006812 0.000000 0.000000 0.000000
# 3 -0.006812 -0.006812 0.022914 0.000000 0.000000 0.000000
# 4 0.000000 0.000000 0.000000 0.115192 0.000000 0.000000
# 5 0.000000 0.000000 0.000000 0.000000 0.115192 0.000000
# 6 0.000000 0.000000 0.000000 0.000000 0.000000 0.033886
#
#
# Mechanical properties :
#
#
# Convention : Reuss Voigt Hill
#
# Bulk Modulus (GPa) = 32.38243 32.43505 32.40874
# Shear Modulus (GPa) = 13.22668 16.44065 14.83367
#
# Velocity S-wave (km/s) = 2.68556 2.99412 2.84403
# Velocity P-wave (km/s) = 5.22243 5.44418 5.33446
#
# Compressibility (1/GPa) = 0.03088094
#
# Stress axis : x y z
#
# Youngs Moduli (GPa) = 45.19068 45.19068 43.64188
#
# Poissons Ratio (x) = 0.20426 0.29731
# Poissons Ratio (y) = 0.20426 0.29731
# Poissons Ratio (z) = 0.30786 0.30786
#
# Static dielectric constant tensor:
#      x y z
#    x 1.665880 0.000000 0.000000 
#    y 0.000000 1.665880 0.000000 
#    z 0.000000 0.000000 1.684560 
# 
# From -- ./inp_files/3815.got.cif
#   From: 2010.05.17/outbox.cif.g08.bks.cpg/sg128_2_cif.got.tgz:3815.got - 2010.05.20 12:07:25.
