data_PCOD9564237
_publ_section_title
;
Structure prediction by ZEFSAII (Michael W. Deem and Ramdas Pophale) SiO2 
 PCOD9564237
Probable space group: P 4/M B M
;
_chemical_formula_sum "Si O2"
_cell_formula_units_Z 72
_cell_length_a 21.032774
_cell_length_b 21.032774
_cell_length_c 7.178019
_cell_angle_alpha 90.000000
_cell_angle_beta 90.000000
_cell_angle_gamma 90.000000
_cell_volume 3175.394690
_symmetry_space_group_name_H-M "P 4/M B M"
_symmetry_group_IT_number 127
_symmetry_cell_setting 'tetragonal'
loop_
_space_group_symop_operation_xyz
x,y,z
-y,x,z
-x,-y,z
y,-x,z
1/2+x,1/2-y,-z
1/2-x,1/2+y,-z
1/2+y,1/2+x,-z
1/2-y,1/2-x,-z
-x,-y,-z
y,-x,-z
x,y,-z
-y,x,-z
1/2-x,1/2+y,z
1/2+x,1/2-y,z
1/2-y,1/2-x,z
1/2+y,1/2+x,z
loop_
_atom_site_type_symbol
_atom_site_label
_atom_site_fract_x
_atom_site_fract_y
_atom_site_fract_z
Si Si1 0.280286 0.003609 0.275059
Si Si2 0.422770 0.436508 0.274162
Si Si3 0.498745 0.894246 0.000000
Si Si4 0.253667 0.147377 0.725813
Si Si5 0.874493 0.794272 0.275153
O O1 0.282433 0.003461 0.500000
O O2 0.248511 0.072317 0.220801
O O3 0.248324 0.935592 0.217760
O O4 0.348669 0.003694 0.178734
O O5 0.491277 0.413838 0.213955
O O6 0.423581 0.436390 0.500000
O O7 0.364518 0.395625 0.218939
O O8 0.554906 0.945095 0.000000
O O9 0.432960 0.932960 0.000000
O O10 0.250323 0.146015 0.500000
O O11 0.321344 0.178657 0.778264
O O12 0.199088 0.198432 0.783755
O O13 0.873015 0.786369 0.500000
#
# Coordination Sequence:
#
# PCOD9564237 Si02
#       5
#    16  16   8  16  16
#     4  10  21  39  64  91 123 164 204 245 303 372
#     4   8  12  18  32  60 101 145 186 228 273 325
#     4  11  26  46  66  90 118 149 198 264 320 369
#     4   9  17  30  51  81 117 157 202 251 302 361
#     4   9  16  27  48  80 115 151 194 242 290 346
#
# _framework density 22.674347000000001
#
# number of rings (size 3 to 8) (size 9 to 14) (size 15 to 20)
#    0.000    2.778    0.000    2.667    0.000    8.000 
#    0.000    4.444    0.000    1.333    0.000    0.000 
#    0.000    5.333    0.000    0.667    0.000    0.000 
#
# Total GULP energy -400981.359102 kJ/mol
# GULP energy per Si atom -5569.185543 kJ/mol
# Density = 2.262274 g / cm^3
# Si number density = 22.674347 Si / 1000 Ang^3
#
#
#
# Elastic Constant Matrix: (Units=GPa)
#
#
# Indices 1 2 3 4 5 6 
#
# 1 179.3134 14.8652 11.3557 0.0000 0.0000 0.0000
# 2 14.8652 179.3115 11.3555 0.0000 0.0000 0.0000
# 3 11.3557 11.3555 110.3897 0.0000 0.0000 0.0000
# 4 0.0000 0.0000 0.0000 22.9725 0.0000 0.0000
# 5 0.0000 0.0000 0.0000 0.0000 22.9757 0.0000
# 6 0.0000 0.0000 0.0000 0.0000 0.0000 56.2192
#
#
#
# Elastic Compliance Matrix: (Units=1/GPa)
#
#
# Indices 1 2 3 4 5 6 
#
# 1 0.005647 -0.000434 -0.000536 0.000000 0.000000 0.000000
# 2 -0.000434 0.005647 -0.000536 0.000000 0.000000 0.000000
# 3 -0.000536 -0.000536 0.009169 0.000000 0.000000 0.000000
# 4 0.000000 0.000000 0.000000 0.043530 0.000000 0.000000
# 5 0.000000 0.000000 0.000000 0.000000 0.043524 0.000000
# 6 0.000000 0.000000 0.000000 0.000000 0.000000 0.017788
#
#
# Mechanical properties :
#
#
# Convention : Reuss Voigt Hill
#
# Bulk Modulus (GPa) = 57.30804 60.46303 58.88554
# Shear Modulus (GPa) = 37.27604 49.19604 43.23604
#
# Velocity S-wave (km/s) = 4.05899 4.66303 4.37146
# Velocity P-wave (km/s) = 6.87725 7.46429 7.17677
#
# Compressibility (1/GPa) = 0.01744956
#
# Stress axis : x y z
#
# Youngs Moduli (GPa) = 177.09210 177.09030 109.06150
#
# Poissons Ratio (x) = 0.07689 0.05848
# Poissons Ratio (y) = 0.07689 0.05848
# Poissons Ratio (z) = 0.09496 0.09496
#
# Static dielectric constant tensor:
#      x y z
#    x 1.846450 0.000000 0.000000 
#    y 0.000000 1.846450 0.000000 
#    z 0.000000 0.000000 1.862030 
# 
# From -- ./inp_files/1550.got.cif
#   From: 2010.05.17/outbox.cif.g08.bks.cpg/sg127_1_cif.got.tgz:1550.got - 2010.05.20 12:03:00.
