data_PCOD9564507
_publ_section_title
;
Structure prediction by ZEFSAII (Michael W. Deem and Ramdas Pophale) SiO2 
 PCOD9564507
Probable space group: P 4/M B M
;
_chemical_formula_sum "Si O2"
_cell_formula_units_Z 120
_cell_length_a 27.000000
_cell_length_b 27.000000
_cell_length_c 9.000000
_cell_angle_alpha 90.000000
_cell_angle_beta 90.000000
_cell_angle_gamma 90.000000
_cell_volume 6561.000000
_symmetry_space_group_name_H-M "P 4/M B M"
_symmetry_group_IT_number 127
_symmetry_cell_setting 'tetragonal'
loop_
_space_group_symop_operation_xyz
x,y,z
-y,x,z
-x,-y,z
y,-x,z
1/2+x,1/2-y,-z
1/2-x,1/2+y,-z
1/2+y,1/2+x,-z
1/2-y,1/2-x,-z
-x,-y,-z
y,-x,-z
x,y,-z
-y,x,-z
1/2-x,1/2+y,z
1/2+x,1/2-y,z
1/2-y,1/2-x,z
1/2+y,1/2+x,z
loop_
_atom_site_type_symbol
_atom_site_label
_atom_site_fract_x
_atom_site_fract_y
_atom_site_fract_z
Si Si1 0.148883 0.524989 0.178267
Si Si2 0.252453 0.836667 0.668585
Si Si3 0.065134 0.277741 0.827536
Si Si4 0.414157 0.235844 0.323932
Si Si5 0.958328 0.458328 0.678790
Si Si6 0.999556 0.081897 0.678573
Si Si7 0.188815 0.010852 0.825099
Si Si8 0.183335 0.767484 0.167269
O O1 0.178287 0.473560 0.206971
O O2 0.185851 0.566465 0.244435
O O3 0.095068 0.527226 0.252579
O O4 0.144910 0.531102 0.000000
O O5 0.234333 0.841489 0.500000
O O6 0.294586 0.794586 0.671513
O O7 0.275872 0.887295 0.725206
O O8 0.208348 0.817630 0.773471
O O9 0.036092 0.225689 0.811744
O O10 0.079900 0.283154 0.000000
O O11 0.419753 0.230825 0.500000
O O12 0.446657 0.281713 0.263181
O O13 0.358531 0.247840 0.276520
O O14 0.954436 0.454436 0.500000
O O15 0.000000 0.500000 0.713011
O O16 0.999531 0.089347 0.500000
O O17 0.998307 0.134463 0.759809
O O18 0.047692 0.048280 0.714883
O O19 0.186062 0.023340 0.000000
O O20 0.226657 0.726657 0.163000
O O21 0.163514 0.773391 0.000000
#
# Coordination Sequence:
#
# PCOD9564507 Si02
#       8
#    16  16  16  16   8  16  16  16
#     4  10  22  41  63  87 117 153 196 241 291 353
#     4  10  21  36  55  82 114 147 186 232 280 332
#     4   9  20  38  58  81 111 150 191 233 284 343
#     4  11  22  37  59  85 116 150 188 234 287 347
#     4  11  25  43  63  91 125 157 197 249 299 351
#     4   9  19  36  56  79 110 149 193 240 292 349
#     4  10  21  37  56  81 112 144 186 235 281 336
#     4  10  21  37  57  81 112 149 188 229 276 332
#
# _framework density 18.289895000000001
#
# number of rings (size 3 to 8) (size 9 to 14) (size 15 to 20)
#    0.000    2.067    0.000    4.200    0.933    7.467 
#    0.000    6.000    0.000    0.000    0.000    0.000 
#    0.000    0.000    0.000    0.000    0.000    0.000 
#
# Total GULP energy -669933.652440 kJ/mol
# GULP energy per Si atom -5582.780437 kJ/mol
# Density = 1.824827 g / cm^3
# Si number density = 18.289895 Si / 1000 Ang^3
#
#
#
# Elastic Constant Matrix: (Units=GPa)
#
#
# Indices 1 2 3 4 5 6 
#
# 1 102.5893 31.3666 53.2754 0.0000 0.0000 0.0000
# 2 31.3666 102.5893 53.2754 0.0000 0.0000 0.0000
# 3 53.2754 53.2754 100.6814 0.0000 0.0000 0.0000
# 4 0.0000 0.0000 0.0000 32.5916 0.0000 0.0000
# 5 0.0000 0.0000 0.0000 0.0000 32.5916 0.0000
# 6 0.0000 0.0000 0.0000 0.0000 0.0000 7.3632
#
#
#
# Elastic Compliance Matrix: (Units=1/GPa)
#
#
# Indices 1 2 3 4 5 6 
#
# 1 0.013466 -0.000575 -0.006821 0.000000 0.000000 0.000000
# 2 -0.000575 0.013466 -0.006821 0.000000 0.000000 0.000000
# 3 -0.006821 -0.006821 0.017151 0.000000 0.000000 0.000000
# 4 0.000000 0.000000 0.000000 0.030683 0.000000 0.000000
# 5 0.000000 0.000000 0.000000 0.000000 0.030683 0.000000
# 6 0.000000 0.000000 0.000000 0.000000 0.000000 0.135811
#
#
# Mechanical properties :
#
#
# Convention : Reuss Voigt Hill
#
# Bulk Modulus (GPa) = 63.90538 64.63275 64.26906
# Shear Modulus (GPa) = 18.18781 25.70545 21.94663
#
# Velocity S-wave (km/s) = 3.15686 3.75299 3.46776
# Velocity P-wave (km/s) = 6.95009 7.36170 7.15886
#
# Compressibility (1/GPa) = 0.01564814
#
# Stress axis : x y z
#
# Youngs Moduli (GPa) = 74.26306 74.26306 58.30512
#
# Poissons Ratio (x) = 0.04269 0.39771
# Poissons Ratio (y) = 0.04269 0.39771
# Poissons Ratio (z) = 0.50656 0.50656
#
# Static dielectric constant tensor:
#      x y z
#    x 1.611140 0.000000 0.000000 
#    y 0.000000 1.611140 0.000000 
#    z 0.000000 0.000000 1.622210 
# 
# From -- ./inp_files/2405.got.cif
#   From: 2010.05.17/outbox.ucp.g08.bks.cvg/sg127_2_cif.got.tgz:2405.got - 2010.06.11 11:37:05.
