data_PCOD9564366
_publ_section_title
;
Structure prediction by ZEFSAII (Michael W. Deem and Ramdas Pophale) SiO2 
 PCOD9564366
Probable space group: P 4/M B M
;
_chemical_formula_sum "Si O2"
_cell_formula_units_Z 72
_cell_length_a 14.064635
_cell_length_b 14.064635
_cell_length_c 22.939921
_cell_angle_alpha 90.000000
_cell_angle_beta 90.000000
_cell_angle_gamma 90.000000
_cell_volume 4537.836562
_symmetry_space_group_name_H-M "P 4/M B M"
_symmetry_group_IT_number 127
_symmetry_cell_setting 'tetragonal'
loop_
_space_group_symop_operation_xyz
x,y,z
-y,x,z
-x,-y,z
y,-x,z
1/2+x,1/2-y,-z
1/2-x,1/2+y,-z
1/2+y,1/2+x,-z
1/2-y,1/2-x,-z
-x,-y,-z
y,-x,-z
x,y,-z
-y,x,-z
1/2-x,1/2+y,z
1/2+x,1/2-y,z
1/2-y,1/2-x,z
1/2+y,1/2+x,z
loop_
_atom_site_type_symbol
_atom_site_label
_atom_site_fract_x
_atom_site_fract_y
_atom_site_fract_z
Si Si1 0.898270 0.238918 0.124236
Si Si2 0.850202 0.060413 0.690438
Si Si3 0.255481 0.402252 0.188132
Si Si4 0.561144 0.350465 0.437327
Si Si5 0.056292 0.849639 0.000000
O O1 0.830095 0.330095 0.125570
O O2 0.840738 0.153530 0.155494
O O3 0.995602 0.255986 0.158621
O O4 0.920764 0.208323 0.058270
O O5 0.784618 0.086278 0.744483
O O6 0.806292 0.078893 0.626149
O O7 0.949505 0.118752 0.694371
O O8 0.162421 0.337580 0.182113
O O9 0.618444 0.450292 0.437399
O O10 0.580981 0.302338 0.500000
O O11 0.118044 0.946400 0.000000
#
# Coordination Sequence:
#
# PCOD9564366 Si02
#       5
#    16  16  16  16   8
#     4  11  23  39  57  79 109 139 168 210 258 308
#     4   9  15  25  46  71  97 131 169 214 263 308
#     4  11  22  35  54  77 104 138 176 217 261 307
#     4   7  10  17  32  60  95 127 160 200 253 312
#     4  11  21  36  62  87 106 134 170 213 256 298
#
# _framework density 15.866592000000001
#
# number of rings (size 3 to 8) (size 9 to 14) (size 15 to 20)
#    0.000    2.333    4.444    2.333    0.000    0.889 
#    0.000    0.556    0.000    2.000    0.000    0.000 
#    0.000    0.889    0.000    2.000    0.000    0.000 
#
# Total GULP energy -400991.577897 kJ/mol
# GULP energy per Si atom -5569.327471 kJ/mol
# Density = 1.583048 g / cm^3
# Si number density = 15.866592 Si / 1000 Ang^3
#
#
#
# Elastic Constant Matrix: (Units=GPa)
#
#
# Indices 1 2 3 4 5 6 
#
# 1 62.8596 31.0683 37.9144 0.0000 0.0000 0.0000
# 2 31.0683 62.8596 37.9144 0.0000 0.0000 0.0000
# 3 37.9144 37.9144 169.3806 0.0000 0.0000 0.0000
# 4 0.0000 0.0000 0.0000 7.7907 0.0000 0.0000
# 5 0.0000 0.0000 0.0000 0.0000 7.7907 0.0000
# 6 0.0000 0.0000 0.0000 0.0000 0.0000 4.3304
#
#
#
# Elastic Compliance Matrix: (Units=1/GPa)
#
#
# Indices 1 2 3 4 5 6 
#
# 1 0.022225 -0.009230 -0.002909 0.000000 0.000000 0.000000
# 2 -0.009230 0.022225 -0.002909 0.000000 0.000000 0.000000
# 3 -0.002909 -0.002909 0.007206 0.000000 0.000000 0.000000
# 4 0.000000 0.000000 0.000000 0.128358 0.000000 0.000000
# 5 0.000000 0.000000 0.000000 0.000000 0.128358 0.000000
# 6 0.000000 0.000000 0.000000 0.000000 0.000000 0.230925
#
#
# Mechanical properties :
#
#
# Convention : Reuss Voigt Hill
#
# Bulk Modulus (GPa) = 46.38114 56.54379 51.46246
# Shear Modulus (GPa) = 8.67183 16.52920 12.60051
#
# Velocity S-wave (km/s) = 2.34037 3.23113 2.82113
# Velocity P-wave (km/s) = 6.04967 7.04519 6.56632
#
# Compressibility (1/GPa) = 0.02156049
#
# Stress axis : x y z
#
# Youngs Moduli (GPa) = 44.99442 44.99442 138.77189
#
# Poissons Ratio (x) = 0.41531 0.40365
# Poissons Ratio (y) = 0.41531 0.40365
# Poissons Ratio (z) = 0.13088 0.13088
#
# Static dielectric constant tensor:
#      x y z
#    x 1.504510 0.000000 0.000000 
#    y 0.000000 1.504510 0.000000 
#    z 0.000000 0.000000 1.566240 
# 
# From -- ./inp_files/5615.got.cif
#   From: 2010.05.17/outbox.cif.g08.bks.cpg/sg127_3_cif.got.tgz:5615.got - 2010.05.20 12:03:00.
