data_PCOD9564408
_publ_section_title
;
Structure prediction by ZEFSAII (Michael W. Deem and Ramdas Pophale) SiO2 
 PCOD9564408
Probable space group: P 4/M B M
;
_chemical_formula_sum "Si O2"
_cell_formula_units_Z 64
_cell_length_a 15.493153
_cell_length_b 15.493153
_cell_length_c 17.028002
_cell_angle_alpha 90.000000
_cell_angle_beta 90.000000
_cell_angle_gamma 90.000000
_cell_volume 4087.363966
_symmetry_space_group_name_H-M "P 4/M B M"
_symmetry_group_IT_number 127
_symmetry_cell_setting 'tetragonal'
loop_
_space_group_symop_operation_xyz
x,y,z
-y,x,z
-x,-y,z
y,-x,z
1/2+x,1/2-y,-z
1/2-x,1/2+y,-z
1/2+y,1/2+x,-z
1/2-y,1/2-x,-z
-x,-y,-z
y,-x,-z
x,y,-z
-y,x,-z
1/2-x,1/2+y,z
1/2+x,1/2-y,z
1/2-y,1/2-x,z
1/2+y,1/2+x,z
loop_
_atom_site_type_symbol
_atom_site_label
_atom_site_fract_x
_atom_site_fract_y
_atom_site_fract_z
Si Si1 0.900875 0.893040 0.500000
Si Si2 0.899945 0.891941 0.326668
Si Si3 0.185888 0.833700 0.168694
Si Si4 0.931831 0.431831 0.904827
Si Si5 0.240423 0.014933 0.094324
O O1 0.872085 0.861951 0.414230
O O2 0.004429 0.883542 0.500000
O O3 0.852173 0.839608 0.258858
O O4 0.004532 0.882754 0.319166
O O5 0.255819 0.755819 0.159692
O O6 0.095558 0.815174 0.124450
O O7 0.220190 0.922888 0.132053
O O8 0.836839 0.458576 0.881706
O O9 0.000000 0.500000 0.874356
O O10 0.933503 0.433503 0.000000
O O11 0.234316 0.008500 0.000000
#
# Coordination Sequence:
#
# PCOD9564408 Si02
#       5
#     8  16  16   8  16
#     4   7  12  24  49  78 100 128 165 201 250 318
#     4   9  16  31  53  77 104 133 165 208 263 320
#     4  12  23  36  54  79 108 137 178 225 269 317
#     4   9  18  36  56  72  94 134 186 224 256 305
#     4  11  23  37  54  75 104 141 179 223 269 312
#
# _framework density 15.658014
#
# number of rings (size 3 to 8) (size 9 to 14) (size 15 to 20)
#    0.000    2.000    3.750    3.000    0.000    3.000 
#    0.000    1.875    0.000    0.000    0.000    0.000 
#    0.000    0.000    0.000   13.750    0.000    0.000 
#
# Total GULP energy -356407.270658 kJ/mol
# GULP energy per Si atom -5568.863604 kJ/mol
# Density = 1.562238 g / cm^3
# Si number density = 15.658014 Si / 1000 Ang^3
#
#
#
# Elastic Constant Matrix: (Units=GPa)
#
#
# Indices 1 2 3 4 5 6 
#
# 1 66.0578 22.8831 19.4616 0.0000 0.0000 0.0000
# 2 22.8831 66.0578 19.4616 0.0000 0.0000 0.0000
# 3 19.4616 19.4616 93.0580 0.0000 0.0000 0.0000
# 4 0.0000 0.0000 0.0000 14.7262 0.0000 0.0000
# 5 0.0000 0.0000 0.0000 0.0000 14.7262 0.0000
# 6 0.0000 0.0000 0.0000 0.0000 0.0000 29.7120
#
#
#
# Elastic Compliance Matrix: (Units=1/GPa)
#
#
# Indices 1 2 3 4 5 6 
#
# 1 0.017769 -0.005393 -0.002588 0.000000 0.000000 0.000000
# 2 -0.005393 0.017769 -0.002588 0.000000 0.000000 0.000000
# 3 -0.002588 -0.002588 0.011829 0.000000 0.000000 0.000000
# 4 0.000000 0.000000 0.000000 0.067906 0.000000 0.000000
# 5 0.000000 0.000000 0.000000 0.000000 0.067906 0.000000
# 6 0.000000 0.000000 0.000000 0.000000 0.000000 0.033656
#
#
# Mechanical properties :
#
#
# Convention : Reuss Voigt Hill
#
# Bulk Modulus (GPa) = 38.12754 38.75400 38.44077
# Shear Modulus (GPa) = 20.26615 22.72402 21.49508
#
# Velocity S-wave (km/s) = 3.60154 3.81369 3.70913
# Velocity P-wave (km/s) = 6.45738 6.64803 6.55340
#
# Compressibility (1/GPa) = 0.02622776
#
# Stress axis : x y z
#
# Youngs Moduli (GPa) = 56.27799 56.27799 84.54104
#
# Poissons Ratio (x) = 0.30350 0.21881
# Poissons Ratio (y) = 0.30350 0.21881
# Poissons Ratio (z) = 0.14566 0.14566
#
# Static dielectric constant tensor:
#      x y z
#    x 1.532230 0.000000 0.000000 
#    y 0.000000 1.532230 0.000000 
#    z 0.000000 0.000000 1.542600 
# 
# From -- ./inp_files/4901.got.cif
#   From: 2010.05.17/outbox.cif.g08.bks.cpg/sg127_3_cif.got.tgz:4901.got - 2010.05.20 12:03:00.
