data_PCOD9564236
_publ_section_title
;
Structure prediction by ZEFSAII (Michael W. Deem and Ramdas Pophale) SiO2 
 PCOD9564236
Probable space group: P 4/M B M
;
_chemical_formula_sum "Si O2"
_cell_formula_units_Z 96
_cell_length_a 24.339022
_cell_length_b 24.339022
_cell_length_c 8.703391
_cell_angle_alpha 90.000000
_cell_angle_beta 90.000000
_cell_angle_gamma 90.000000
_cell_volume 5155.784317
_symmetry_space_group_name_H-M "P 4/M B M"
_symmetry_group_IT_number 127
_symmetry_cell_setting 'tetragonal'
loop_
_space_group_symop_operation_xyz
x,y,z
-y,x,z
-x,-y,z
y,-x,z
1/2+x,1/2-y,-z
1/2-x,1/2+y,-z
1/2+y,1/2+x,-z
1/2-y,1/2-x,-z
-x,-y,-z
y,-x,-z
x,y,-z
-y,x,-z
1/2-x,1/2+y,z
1/2+x,1/2-y,z
1/2-y,1/2-x,z
1/2+y,1/2+x,z
loop_
_atom_site_type_symbol
_atom_site_label
_atom_site_fract_x
_atom_site_fract_y
_atom_site_fract_z
Si Si1 0.808074 0.781421 0.316421
Si Si2 0.417088 0.468371 0.187018
Si Si3 0.427999 0.702914 0.184219
Si Si4 0.132444 0.723439 0.817384
Si Si5 0.000889 0.590479 0.184160
Si Si6 0.210075 0.512450 0.681297
O O1 0.807058 0.788354 0.500000
O O2 0.774014 0.725986 0.279256
O O3 0.869703 0.781178 0.256064
O O4 0.774491 0.831025 0.238542
O O5 0.469071 0.431008 0.234768
O O6 0.358093 0.446415 0.237404
O O7 0.416729 0.468392 0.000000
O O8 0.473343 0.746928 0.233306
O O9 0.423083 0.701906 0.000000
O O10 0.169223 0.669223 0.787292
O O11 0.075082 0.720537 0.731169
O O12 0.123055 0.727006 0.000000
O O13 0.055116 0.555116 0.225430
O O14 0.998295 0.648038 0.268762
O O15 0.949004 0.550997 0.215473
O O16 0.002984 0.599747 0.000000
O O17 0.216568 0.505976 0.500000
#
# Coordination Sequence:
#
# PCOD9564236 Si02
#       6
#    16  16  16  16  16  16
#     4  10  22  41  62  85 118 157 196 242 299 358
#     4   8  16  33  57  86 116 145 184 238 294 346
#     4  11  23  37  60  89 118 158 202 245 294 355
#     4  10  21  39  64  90 116 151 199 250 296 350
#     4   9  19  38  63  88 115 150 194 245 298 354
#     4  12  25  38  55  85 124 160 195 242 298 352
#
# _framework density 18.619865000000001
#
# number of rings (size 3 to 8) (size 9 to 14) (size 15 to 20)
#    0.000    2.000    0.000    4.500    2.333    5.333 
#    0.000    0.833    0.000    0.000    0.000    4.667 
#    0.000    0.000    0.000    0.000    0.000    0.000 
#
# Total GULP energy -536355.063897 kJ/mol
# GULP energy per Si atom -5587.031916 kJ/mol
# Density = 1.857749 g / cm^3
# Si number density = 18.619865 Si / 1000 Ang^3
#
#
#
# Elastic Constant Matrix: (Units=GPa)
#
#
# Indices 1 2 3 4 5 6 
#
# 1 131.7960 -7.8289 7.7307 0.0000 0.0000 0.0000
# 2 -7.8289 131.7960 7.7307 0.0000 0.0000 0.0000
# 3 7.7307 7.7307 20.5512 0.0000 0.0000 0.0000
# 4 0.0000 0.0000 0.0000 6.3027 0.0000 0.0000
# 5 0.0000 0.0000 0.0000 0.0000 6.3027 0.0000
# 6 0.0000 0.0000 0.0000 0.0000 0.0000 10.9019
#
#
#
# Elastic Compliance Matrix: (Units=1/GPa)
#
#
# Indices 1 2 3 4 5 6 
#
# 1 0.007813 0.000651 -0.003184 0.000000 0.000000 0.000000
# 2 0.000651 0.007813 -0.003184 0.000000 0.000000 0.000000
# 3 -0.003184 -0.003184 0.051054 0.000000 0.000000 0.000000
# 4 0.000000 0.000000 0.000000 0.158661 0.000000 0.000000
# 5 0.000000 0.000000 0.000000 0.000000 0.158661 0.000000
# 6 0.000000 0.000000 0.000000 0.000000 0.000000 0.091727
#
#
# Mechanical properties :
#
#
# Convention : Reuss Voigt Hill
#
# Bulk Modulus (GPa) = 18.10068 33.26760 25.68414
# Shear Modulus (GPa) = 9.88964 23.13551 16.51258
#
# Velocity S-wave (km/s) = 2.30713 3.52876 2.98119
# Velocity P-wave (km/s) = 4.10359 5.87438 5.06694
#
# Compressibility (1/GPa) = 0.05524653
#
# Stress axis : x y z
#
# Youngs Moduli (GPa) = 127.99355 127.99355 19.58701
#
# Poissons Ratio (x) = -0.08330 0.06236
# Poissons Ratio (y) = -0.08330 0.06236
# Poissons Ratio (z) = 0.40751 0.40751
#
# Static dielectric constant tensor:
#      x y z
#    x 1.621460 0.000000 0.000000 
#    y 0.000000 1.621460 0.000000 
#    z 0.000000 0.000000 1.621760 
# 
# From -- ./inp_files/2017.got.cif
#   From: 2010.05.17/outbox.cif.g08.bks.cpg/sg127_2_cif.got.tgz:2017.got - 2010.05.20 12:03:00.
