data_PCOD9564136
_publ_section_title
;
Structure prediction by ZEFSAII (Michael W. Deem and Ramdas Pophale) SiO2 
 PCOD9564136
Probable space group: P 4/M B M
;
_chemical_formula_sum "Si O2"
_cell_formula_units_Z 48
_cell_length_a 15.119464
_cell_length_b 15.119464
_cell_length_c 12.663528
_cell_angle_alpha 90.000000
_cell_angle_beta 90.000000
_cell_angle_gamma 90.000000
_cell_volume 2894.859601
_symmetry_space_group_name_H-M "P 4/M B M"
_symmetry_group_IT_number 127
_symmetry_cell_setting 'tetragonal'
loop_
_space_group_symop_operation_xyz
x,y,z
-y,x,z
-x,-y,z
y,-x,z
1/2+x,1/2-y,-z
1/2-x,1/2+y,-z
1/2+y,1/2+x,-z
1/2-y,1/2-x,-z
-x,-y,-z
y,-x,-z
x,y,-z
-y,x,-z
1/2-x,1/2+y,z
1/2+x,1/2-y,z
1/2-y,1/2-x,z
1/2+y,1/2+x,z
loop_
_atom_site_type_symbol
_atom_site_label
_atom_site_fract_x
_atom_site_fract_y
_atom_site_fract_z
Si Si1 0.198434 0.698434 0.376357
Si Si2 0.997522 0.735701 0.876677
Si Si3 0.428467 0.071534 0.743972
Si Si4 0.816686 0.824702 0.189743
O O1 0.208858 0.708858 0.500000
O O2 0.124980 0.624980 0.345919
O O3 0.170591 0.787632 0.313131
O O4 0.023674 0.646397 0.814859
O O5 0.080138 0.802021 0.861117
O O6 0.910258 0.780743 0.829864
O O7 0.984319 0.717031 0.000000
O O8 0.500000 0.000000 0.707221
O O9 0.740989 0.759012 0.144110
#
# Coordination Sequence:
#
# PCOD9564136 Si02
#       4
#     8  16   8  16
#     4   8  18  40  59  73 109 150 182 238 293 318
#     4  11  20  34  55  80 118 159 184 227 287 339
#     4  10  21  33  54  89 118 138 196 236 283 349
#     4   9  21  36  54  79 115 143 199 233 275 345
#
# _framework density 16.581116999999999
#
# number of rings (size 3 to 8) (size 9 to 14) (size 15 to 20)
#    1.000    1.333    1.667    2.500    0.000    5.667 
#    0.000    8.333    0.000    0.000    0.000    9.333 
#    0.000    0.000    0.000    0.000    0.000    0.000 
#
# Total GULP energy -267300.426731 kJ/mol
# GULP energy per Si atom -5568.758890 kJ/mol
# Density = 1.654338 g / cm^3
# Si number density = 16.581117 Si / 1000 Ang^3
#
#
#
# Elastic Constant Matrix: (Units=GPa)
#
#
# Indices 1 2 3 4 5 6 
#
# 1 74.5628 31.1608 10.9329 0.0000 0.0000 0.0000
# 2 31.1608 74.5628 10.9329 0.0000 0.0000 0.0000
# 3 10.9329 10.9329 84.6767 0.0000 0.0000 0.0000
# 4 0.0000 0.0000 0.0000 -0.6560 0.0000 0.0000
# 5 0.0000 0.0000 0.0000 0.0000 -0.6560 0.0000
# 6 0.0000 0.0000 0.0000 0.0000 0.0000 38.2306
#
#
#
# Elastic Compliance Matrix: (Units=1/GPa)
#
#
# Indices 1 2 3 4 5 6 
#
# 1 0.016379 -0.006661 -0.001255 0.000000 0.000000 0.000000
# 2 -0.006661 0.016379 -0.001255 0.000000 0.000000 0.000000
# 3 -0.001255 -0.001255 0.012134 0.000000 0.000000 0.000000
# 4 0.000000 0.000000 0.000000 -1.524492 0.000000 0.000000
# 5 0.000000 0.000000 0.000000 0.000000 -1.524492 0.000000
# 6 0.000000 0.000000 0.000000 0.000000 0.000000 0.026157
#
#
# Mechanical properties :
#
#
# Convention : Reuss Voigt Hill
#
# Bulk Modulus (GPa) = 37.66347 37.76173 37.71260
# Shear Modulus (GPa) = -1.69449 19.43545 8.87048
#
# Velocity S-wave (km/s) = -1.01201 3.42737 2.31546
# Velocity P-wave (km/s) = 4.62585 6.20370 5.47194
#
# Compressibility (1/GPa) = 0.02655093
#
# Stress axis : x y z
#
# Youngs Moduli (GPa) = 61.05279 61.05279 82.41559
#
# Poissons Ratio (x) = 0.40668 0.10341
# Poissons Ratio (y) = 0.40668 0.10341
# Poissons Ratio (z) = 0.07661 0.07661
#
# Static dielectric constant tensor:
#      x y z
#    x 1.558740 0.000000 0.000000 
#    y 0.000000 1.558740 0.000000 
#    z 0.000000 0.000000 1.551100 
# 
# From -- ./inp_files/2747.got.cif
#   From: 2010.05.17/outbox.cif.g08.bks.cpg/sg127_2_cif.got.tgz:2747.got - 2010.05.20 12:03:00.
