data_PCOD9564293
_publ_section_title
;
Structure prediction by ZEFSAII (Michael W. Deem and Ramdas Pophale) SiO2 
 PCOD9564293
Probable space group: P 4/M B M
;
_chemical_formula_sum "Si O2"
_cell_formula_units_Z 96
_cell_length_a 14.476832
_cell_length_b 14.476832
_cell_length_c 24.004854
_cell_angle_alpha 90.000000
_cell_angle_beta 90.000000
_cell_angle_gamma 90.000000
_cell_volume 5030.905249
_symmetry_space_group_name_H-M "P 4/M B M"
_symmetry_group_IT_number 127
_symmetry_cell_setting 'tetragonal'
loop_
_space_group_symop_operation_xyz
x,y,z
-y,x,z
-x,-y,z
y,-x,z
1/2+x,1/2-y,-z
1/2-x,1/2+y,-z
1/2+y,1/2+x,-z
1/2-y,1/2-x,-z
-x,-y,-z
y,-x,-z
x,y,-z
-y,x,-z
1/2-x,1/2+y,z
1/2+x,1/2-y,z
1/2-y,1/2-x,z
1/2+y,1/2+x,z
loop_
_atom_site_type_symbol
_atom_site_label
_atom_site_fract_x
_atom_site_fract_y
_atom_site_fract_z
Si Si1 0.347816 0.005249 0.937214
Si Si2 0.600735 0.746902 0.433318
Si Si3 0.759140 0.107273 0.846802
Si Si4 0.946750 0.854057 0.732456
Si Si5 0.757556 0.102285 0.619597
Si Si6 0.110884 0.109351 0.060571
O O1 0.396358 0.103643 0.928906
O O2 0.429137 0.929137 0.939722
O O3 0.288713 0.971194 0.885073
O O4 0.306148 0.004228 0.000000
O O5 0.598083 0.736516 0.500000
O O6 0.661394 0.838607 0.420321
O O7 0.658427 0.661337 0.407523
O O8 0.497012 0.752315 0.409981
O O9 0.681876 0.181876 0.831519
O O10 0.809047 0.068870 0.792624
O O11 0.834376 0.152048 0.888584
O O12 0.917802 0.784957 0.683431
O O13 0.052953 0.885831 0.727120
O O14 0.666662 0.166662 0.614895
O O15 0.000127 0.122146 0.063719
O O16 0.143101 0.142809 0.000000
#
# Coordination Sequence:
#
# PCOD9564293 Si02
#       6
#    16  16  16  16  16  16
#     4   8  15  30  51  74 104 143 184 229 288 362
#     4  10  22  40  66 102 139 176 218 264 317 377
#     4  11  21  33  53  82 110 142 186 239 298 363
#     4  11  23  42  64  83 110 155 208 258 311 373
#     4  11  22  41  66  96 134 174 219 270 320 377
#     4   9  18  34  54  74 100 137 181 231 290 357
#
# _framework density 19.082052000000001
#
# number of rings (size 3 to 8) (size 9 to 14) (size 15 to 20)
#    0.000    2.000    1.667    3.500    0.000    4.000 
#    0.000    6.667    0.000    3.000    0.000    0.000 
#    0.000    0.000    0.000    0.000    0.000    0.000 
#
# Total GULP energy -535829.054951 kJ/mol
# GULP energy per Si atom -5581.552656 kJ/mol
# Density = 1.903862 g / cm^3
# Si number density = 19.082052 Si / 1000 Ang^3
#
#
#
# Elastic Constant Matrix: (Units=GPa)
#
#
# Indices 1 2 3 4 5 6 
#
# 1 108.4023 51.8932 48.7506 0.0000 0.0000 0.0000
# 2 51.8932 108.4023 48.7506 0.0000 0.0000 0.0000
# 3 48.7506 48.7506 121.9276 0.0000 0.0000 0.0000
# 4 0.0000 0.0000 0.0000 27.3792 0.0000 0.0000
# 5 0.0000 0.0000 0.0000 0.0000 27.3792 0.0000
# 6 0.0000 0.0000 0.0000 0.0000 0.0000 14.1843
#
#
#
# Elastic Compliance Matrix: (Units=1/GPa)
#
#
# Indices 1 2 3 4 5 6 
#
# 1 0.012970 -0.004727 -0.003296 0.000000 0.000000 0.000000
# 2 -0.004727 0.012970 -0.003296 0.000000 0.000000 0.000000
# 3 -0.003296 -0.003296 0.010837 0.000000 0.000000 0.000000
# 4 0.000000 0.000000 0.000000 0.036524 0.000000 0.000000
# 5 0.000000 0.000000 0.000000 0.000000 0.036524 0.000000
# 6 0.000000 0.000000 0.000000 0.000000 0.000000 0.070500
#
#
# Mechanical properties :
#
#
# Convention : Reuss Voigt Hill
#
# Bulk Modulus (GPa) = 70.72111 70.83565 70.77838
# Shear Modulus (GPa) = 24.07603 26.41105 25.24354
#
# Velocity S-wave (km/s) = 3.55591 3.72436 3.64111
# Velocity P-wave (km/s) = 7.34856 7.46302 7.40601
#
# Compressibility (1/GPa) = 0.01414005
#
# Stress axis : x y z
#
# Youngs Moduli (GPa) = 77.10244 77.10244 92.27454
#
# Poissons Ratio (x) = 0.36442 0.30413
# Poissons Ratio (y) = 0.36442 0.30413
# Poissons Ratio (z) = 0.25412 0.25412
#
# Static dielectric constant tensor:
#      x y z
#    x 1.686270 0.000000 0.000000 
#    y 0.000000 1.686270 0.000000 
#    z 0.000000 0.000000 1.635050 
# 
# From -- ./inp_files/5770.got.cif
#   From: 2010.05.17/outbox.cif.g08.bks.cpg/sg127_3_cif.got.tgz:5770.got - 2010.05.20 12:03:00.
