data_PCOD9564139
_publ_section_title
;
Structure prediction by ZEFSAII (Michael W. Deem and Ramdas Pophale) SiO2 
 PCOD9564139
Probable space group: P 4/M B M
;
_chemical_formula_sum "Si O2"
_cell_formula_units_Z 96
_cell_length_a 22.696690
_cell_length_b 22.696690
_cell_length_c 9.769876
_cell_angle_alpha 90.000000
_cell_angle_beta 90.000000
_cell_angle_gamma 90.000000
_cell_volume 5032.851353
_symmetry_space_group_name_H-M "P 4/M B M"
_symmetry_group_IT_number 127
_symmetry_cell_setting 'tetragonal'
loop_
_space_group_symop_operation_xyz
x,y,z
-y,x,z
-x,-y,z
y,-x,z
1/2+x,1/2-y,-z
1/2-x,1/2+y,-z
1/2+y,1/2+x,-z
1/2-y,1/2-x,-z
-x,-y,-z
y,-x,-z
x,y,-z
-y,x,-z
1/2-x,1/2+y,z
1/2+x,1/2-y,z
1/2-y,1/2-x,z
1/2+y,1/2+x,z
loop_
_atom_site_type_symbol
_atom_site_label
_atom_site_fract_x
_atom_site_fract_y
_atom_site_fract_z
Si Si1 0.372544 0.698867 0.661509
Si Si2 0.032281 0.906650 0.356599
Si Si3 0.293609 0.032504 0.155726
Si Si4 0.925826 0.671841 0.338777
Si Si5 0.643631 0.756537 0.658793
Si Si6 0.665065 0.522002 0.850382
O O1 0.385020 0.687804 0.500000
O O2 0.386103 0.768616 0.683342
O O3 0.307340 0.673444 0.689070
O O4 0.419463 0.667184 0.758855
O O5 0.043146 0.873943 0.500000
O O6 0.032130 0.867051 0.224784
O O7 0.069512 0.965437 0.356401
O O8 0.278153 0.091617 0.240767
O O9 0.329374 0.984559 0.246016
O O10 0.231739 0.998911 0.139963
O O11 0.316076 0.043714 0.000000
O O12 0.942313 0.673097 0.500000
O O13 0.883722 0.616279 0.313245
O O14 0.622455 0.754524 0.500000
O O15 0.695792 0.804209 0.666033
O O16 0.639595 0.533039 0.000000
#
# Coordination Sequence:
#
# PCOD9564139 Si02
#       6
#    16  16  16  16  16  16
#     4   9  18  33  54  81 109 140 177 221 269 317
#     4   9  19  34  49  66  90 127 179 231 273 313
#     4  10  22  37  52  77 112 147 179 214 265 327
#     4   9  17  33  59  86 110 138 178 227 274 320
#     4  10  21  37  58  83 110 142 181 224 269 319
#     4  10  21  34  49  73 106 141 179 221 263 316
#
# _framework density 19.074674000000002
#
# number of rings (size 3 to 8) (size 9 to 14) (size 15 to 20)
#    0.000    2.500    0.000    2.000    2.333    6.000 
#    0.000    0.833    0.000    3.500    0.000    3.500 
#    0.000    0.000    0.000    0.000    0.000    0.000 
#
# Total GULP energy -534721.127477 kJ/mol
# GULP energy per Si atom -5570.011745 kJ/mol
# Density = 1.903126 g / cm^3
# Si number density = 19.074674 Si / 1000 Ang^3
#
#
#
# Elastic Constant Matrix: (Units=GPa)
#
#
# Indices 1 2 3 4 5 6 
#
# 1 67.8124 15.3240 32.1072 0.0000 0.0000 0.0000
# 2 15.3240 67.8124 32.1072 0.0000 0.0000 0.0000
# 3 32.1072 32.1072 82.3848 0.0000 0.0000 0.0000
# 4 0.0000 0.0000 0.0000 -29.4618 0.0000 0.0000
# 5 0.0000 0.0000 0.0000 0.0000 -29.4618 0.0000
# 6 0.0000 0.0000 0.0000 0.0000 0.0000 28.5314
#
#
#
# Elastic Compliance Matrix: (Units=1/GPa)
#
#
# Indices 1 2 3 4 5 6 
#
# 1 0.018130 -0.000922 -0.006707 0.000000 0.000000 0.000000
# 2 -0.000922 0.018130 -0.006707 0.000000 0.000000 0.000000
# 3 -0.006707 -0.006707 0.017366 0.000000 0.000000 0.000000
# 4 0.000000 0.000000 0.000000 -0.033942 0.000000 0.000000
# 5 0.000000 0.000000 0.000000 0.000000 -0.033942 0.000000
# 6 0.000000 0.000000 0.000000 0.000000 0.000000 0.035049
#
#
# Mechanical properties :
#
#
# Convention : Reuss Voigt Hill
#
# Bulk Modulus (GPa) = 40.06981 41.89847 40.98414
# Shear Modulus (GPa) = 86.53679 3.15297 44.84488
#
# Velocity S-wave (km/s) = 6.74284 1.28707 4.85399
# Velocity P-wave (km/s) = 9.03734 4.92158 7.27652
#
# Compressibility (1/GPa) = 0.02495645
#
# Stress axis : x y z
#
# Youngs Moduli (GPa) = 55.15658 55.15658 57.58530
#
# Poissons Ratio (x) = 0.05083 0.38620
# Poissons Ratio (y) = 0.05083 0.38620
# Poissons Ratio (z) = 0.36991 0.36991
#
# Static dielectric constant tensor:
#      x y z
#    x 1.674650 0.000000 0.000000 
#    y 0.000000 1.674650 0.000000 
#    z 0.000000 0.000000 1.770360 
# 
# From -- ./inp_files/1941.got.cif
#   From: 2010.05.17/outbox.cif.g08.bks.cpg/sg127_1_cif.got.tgz:1941.got - 2010.05.20 12:03:00.
