data_PCOD9564138
_publ_section_title
;
Structure prediction by ZEFSAII (Michael W. Deem and Ramdas Pophale) SiO2 
 PCOD9564138
Probable space group: P 4/M B M
;
_chemical_formula_sum "Si O2"
_cell_formula_units_Z 120
_cell_length_a 18.017116
_cell_length_b 18.017116
_cell_length_c 16.475833
_cell_angle_alpha 90.000000
_cell_angle_beta 90.000000
_cell_angle_gamma 90.000000
_cell_volume 5348.326732
_symmetry_space_group_name_H-M "P 4/M B M"
_symmetry_group_IT_number 127
_symmetry_cell_setting 'tetragonal'
loop_
_space_group_symop_operation_xyz
x,y,z
-y,x,z
-x,-y,z
y,-x,z
1/2+x,1/2-y,-z
1/2-x,1/2+y,-z
1/2+y,1/2+x,-z
1/2-y,1/2-x,-z
-x,-y,-z
y,-x,-z
x,y,-z
-y,x,-z
1/2-x,1/2+y,z
1/2+x,1/2-y,z
1/2-y,1/2-x,z
1/2+y,1/2+x,z
loop_
_atom_site_type_symbol
_atom_site_label
_atom_site_fract_x
_atom_site_fract_y
_atom_site_fract_z
Si Si1 0.972673 0.649295 0.092261
Si Si2 0.234678 0.855339 0.586672
Si Si3 0.019149 0.360695 0.408665
Si Si4 0.346713 0.723746 0.085720
Si Si5 0.873468 0.011611 0.314045
Si Si6 0.481459 0.623178 0.500000
Si Si7 0.716256 0.958064 0.252626
Si Si8 0.813083 0.194581 0.250127
O O1 0.927810 0.572191 0.105425
O O2 0.909507 0.713297 0.089993
O O3 0.021738 0.673112 0.169447
O O4 0.005449 0.647127 0.000000
O O5 0.195867 0.866892 0.500000
O O6 0.275590 0.775590 0.582689
O O7 0.300506 0.914348 0.591071
O O8 0.187968 0.851398 0.667603
O O9 0.985316 0.357477 0.500000
O O10 0.060469 0.439532 0.399061
O O11 0.972868 0.335957 0.330685
O O12 0.268702 0.768702 0.083615
O O13 0.348457 0.676013 0.166453
O O14 0.354413 0.682949 0.000000
O O15 0.796278 0.001427 0.262942
O O16 0.936470 0.075887 0.301848
O O17 0.843787 0.014913 0.408371
O O18 0.421609 0.558683 0.500000
O O19 0.742362 0.873817 0.253898
O O20 0.730948 0.230948 0.246160
#
# Coordination Sequence:
#
# PCOD9564138 Si02
#       8
#    16  16  16  16  16   8  16  16
#     4   9  19  37  59  81 103 128 170 225 271 316
#     4   8  15  31  52  70  97 136 170 213 269 311
#     4   9  19  35  53  77 106 133 173 228 276 319
#     4   8  15  31  56  78  97 126 161 208 269 317
#     4   9  20  35  48  70 111 152 188 219 250 299
#     4   7  12  30  50  60  88 144 188 219 246 274
#     4  12  23  30  55  81 102 140 183 214 268 312
#     4  10  21  34  48  75 111 141 173 216 264 317
#
# _framework density 22.436924999999999
#
# number of rings (size 3 to 8) (size 9 to 14) (size 15 to 20)
#    0.000    2.867    0.000    3.600    4.667    3.200 
#    0.000    0.000    0.000    1.600    0.000    2.800 
#    0.000    0.000    0.000    0.000    0.000    0.000 
#
# Total GULP energy -668970.268301 kJ/mol
# GULP energy per Si atom -5574.752236 kJ/mol
# Density = 2.238586 g / cm^3
# Si number density = 22.436925 Si / 1000 Ang^3
#
#
#
# Elastic Constant Matrix: (Units=GPa)
#
#
# Indices 1 2 3 4 5 6 
#
# 1 73.3630 -5.1098 38.9378 0.0000 0.0000 0.0000
# 2 -5.1098 73.3630 38.9378 0.0000 0.0000 0.0000
# 3 38.9378 38.9378 205.8124 0.0000 0.0000 0.0000
# 4 0.0000 0.0000 0.0000 2.0983 0.0000 0.0000
# 5 0.0000 0.0000 0.0000 0.0000 2.0983 0.0000
# 6 0.0000 0.0000 0.0000 0.0000 0.0000 34.7901
#
#
#
# Elastic Compliance Matrix: (Units=1/GPa)
#
#
# Indices 1 2 3 4 5 6 
#
# 1 0.015714 0.002971 -0.003535 0.000000 0.000000 0.000000
# 2 0.002971 0.015714 -0.003535 0.000000 0.000000 0.000000
# 3 -0.003535 -0.003535 0.006196 0.000000 0.000000 0.000000
# 4 0.000000 0.000000 0.000000 0.476587 0.000000 0.000000
# 5 0.000000 0.000000 0.000000 0.000000 0.476587 0.000000
# 6 0.000000 0.000000 0.000000 0.000000 0.000000 0.028744
#
#
# Mechanical properties :
#
#
# Convention : Reuss Voigt Hill
#
# Bulk Modulus (GPa) = 33.98377 55.34112 44.66244
# Shear Modulus (GPa) = 4.81905 26.44881 15.63393
#
# Velocity S-wave (km/s) = 1.46713 3.43710 2.64255
# Velocity P-wave (km/s) = 4.24844 6.36163 5.40923
#
# Compressibility (1/GPa) = 0.02942581
#
# Stress axis : x y z
#
# Youngs Moduli (GPa) = 63.63763 63.63763 161.38510
#
# Poissons Ratio (x) = -0.18905 0.57049
# Poissons Ratio (y) = -0.18905 0.57049
# Poissons Ratio (z) = 0.22496 0.22496
#
# Static dielectric constant tensor:
#      x y z
#    x 1.900610 0.000000 0.000000 
#    y 0.000000 1.900610 0.000000 
#    z 0.000000 0.000000 1.889220 
# 
# From -- ./inp_files/4654.got.cif
#   From: 2010.05.17/outbox.cif.g08.bks.cpg/sg127_3_cif.got.tgz:4654.got - 2010.05.20 12:03:00.
