data_PCOD9564769
_publ_section_title
;
Structure prediction by ZEFSAII (Michael W. Deem and Ramdas Pophale) SiO2 
 PCOD9564769
Probable space group: P 4/M N C
;
_chemical_formula_sum "Si O2"
_cell_formula_units_Z 96
_cell_length_a 14.539577
_cell_length_b 14.539577
_cell_length_c 21.864355
_cell_angle_alpha 90.000000
_cell_angle_beta 90.000000
_cell_angle_gamma 90.000000
_cell_volume 4622.109327
_symmetry_space_group_name_H-M "P 4/M N C"
_symmetry_group_IT_number 128
_symmetry_cell_setting 'tetragonal'
loop_
_space_group_symop_operation_xyz
x,y,z
-y,x,z
-x,-y,z
y,-x,z
1/2+x,1/2-y,1/2-z
1/2-x,1/2+y,1/2-z
1/2+y,1/2+x,1/2-z
1/2-y,1/2-x,1/2-z
-x,-y,-z
y,-x,-z
x,y,-z
-y,x,-z
1/2-x,1/2+y,1/2+z
1/2+x,1/2-y,1/2+z
1/2-y,1/2-x,1/2+z
1/2+y,1/2+x,1/2+z
loop_
_atom_site_type_symbol
_atom_site_label
_atom_site_fract_x
_atom_site_fract_y
_atom_site_fract_z
Si Si1 0.918805 0.207025 0.141229
Si Si2 0.274896 0.348683 0.072701
Si Si3 0.603649 0.846120 0.187155
Si Si4 0.763279 0.101959 0.926646
Si Si5 0.356836 0.540297 0.772697
Si Si6 0.950900 0.278253 0.427746
O O1 0.856873 0.288991 0.169408
O O2 0.860389 0.144129 0.095513
O O3 0.955797 0.150734 0.199049
O O4 0.004435 0.250029 0.105270
O O5 0.178744 0.308809 0.096878
O O6 0.363409 0.286950 0.085638
O O7 0.279299 0.456691 0.084068
O O8 0.265472 0.339636 0.000000
O O9 0.594729 0.905271 0.250000
O O10 0.570234 0.743504 0.204731
O O11 0.553413 0.860640 0.121779
O O12 0.760245 0.092918 0.000000
O O13 0.389479 0.438109 0.790951
O O14 0.948567 0.304774 0.500000
#
# Coordination Sequence:
#
# PCOD9564769 Si02
#       6
#    16  16  16  16  16  16
#     4  11  21  39  60  86 129 170 213 262 322 385
#     4   9  20  37  61  93 125 167 216 267 329 389
#     4  10  23  38  61  90 123 167 211 254 321 387
#     4  11  22  37  62  95 128 169 218 268 324 388
#     4  10  21  38  61  91 125 162 210 269 326 387
#     4  10  20  38  64  91 127 165 209 268 328 388
#
# _framework density 20.769738
#
# number of rings (size 3 to 8) (size 9 to 14) (size 15 to 20)
#    0.000    1.833    3.333    0.500    2.333    1.333 
#    0.000    3.333    0.000    6.000    0.000    0.000 
#    0.000    0.000    0.000    0.000    0.000    0.000 
#
# Total GULP energy -534802.407923 kJ/mol
# GULP energy per Si atom -5570.858416 kJ/mol
# Density = 2.072246 g / cm^3
# Si number density = 20.769738 Si / 1000 Ang^3
#
#
#
# Elastic Constant Matrix: (Units=GPa)
#
#
# Indices 1 2 3 4 5 6 
#
# 1 55.5507 25.4684 11.7301 0.0000 0.0000 0.0000
# 2 25.4684 55.5505 11.7298 0.0000 0.0000 0.0000
# 3 11.7301 11.7298 126.6199 0.0000 0.0000 0.0000
# 4 0.0000 0.0000 0.0000 24.1481 0.0000 0.0000
# 5 0.0000 0.0000 0.0000 0.0000 24.1482 0.0000
# 6 0.0000 0.0000 0.0000 0.0000 0.0000 12.0006
#
#
#
# Elastic Compliance Matrix: (Units=1/GPa)
#
#
# Indices 1 2 3 4 5 6 
#
# 1 0.022963 -0.010280 -0.001175 0.000000 0.000000 0.000000
# 2 -0.010280 0.022963 -0.001175 0.000000 0.000000 0.000000
# 3 -0.001175 -0.001175 0.008115 0.000000 0.000000 0.000000
# 4 0.000000 0.000000 0.000000 0.041411 0.000000 0.000000
# 5 0.000000 0.000000 0.000000 0.000000 0.041411 0.000000
# 6 0.000000 0.000000 0.000000 0.000000 0.000000 0.083329
#
#
# Mechanical properties :
#
#
# Convention : Reuss Voigt Hill
#
# Bulk Modulus (GPa) = 34.74444 37.28640 36.01542
# Shear Modulus (GPa) = 19.60442 24.64557 22.12499
#
# Velocity S-wave (km/s) = 3.07562 3.44846 3.26736
# Velocity P-wave (km/s) = 5.42008 5.81782 5.62247
#
# Compressibility (1/GPa) = 0.02878158
#
# Stress axis : x y z
#
# Youngs Moduli (GPa) = 43.54909 43.54896 123.22337
#
# Poissons Ratio (x) = 0.44767 0.14478
# Poissons Ratio (y) = 0.44767 0.14478
# Poissons Ratio (z) = 0.05117 0.05117
#
# Static dielectric constant tensor:
#      x y z
#    x 1.740790 0.000000 0.000000 
#    y 0.000000 1.740790 0.000000 
#    z 0.000000 0.000000 1.810640 
# 
# From -- ./inp_files/5762.got.cif
#   From: 2010.05.17/outbox.cif.g08.bks.cpg/sg128_3_cif.got.tgz:5762.got - 2010.05.20 12:07:25.
