data_PCOD9564228
_publ_section_title
;
Structure prediction by ZEFSAII (Michael W. Deem and Ramdas Pophale) SiO2 
 PCOD9564228
Probable space group: P 4/M B M
;
_chemical_formula_sum "Si O2"
_cell_formula_units_Z 96
_cell_length_a 14.518877
_cell_length_b 14.518877
_cell_length_c 21.212381
_cell_angle_alpha 90.000000
_cell_angle_beta 90.000000
_cell_angle_gamma 90.000000
_cell_volume 4471.523021
_symmetry_space_group_name_H-M "P 4/M B M"
_symmetry_group_IT_number 127
_symmetry_cell_setting 'tetragonal'
loop_
_space_group_symop_operation_xyz
x,y,z
-y,x,z
-x,-y,z
y,-x,z
1/2+x,1/2-y,-z
1/2-x,1/2+y,-z
1/2+y,1/2+x,-z
1/2-y,1/2-x,-z
-x,-y,-z
y,-x,-z
x,y,-z
-y,x,-z
1/2-x,1/2+y,z
1/2+x,1/2-y,z
1/2-y,1/2-x,z
1/2+y,1/2+x,z
loop_
_atom_site_type_symbol
_atom_site_label
_atom_site_fract_x
_atom_site_fract_y
_atom_site_fract_z
Si Si1 0.229209 0.519236 0.142046
Si Si2 0.692292 0.662349 0.130996
Si Si3 0.885509 0.231650 0.573045
Si Si4 0.494974 0.144125 0.730875
Si Si5 0.246168 0.411633 0.626334
Si Si6 0.348683 0.995838 0.000000
Si Si7 0.609192 0.389357 0.000000
O O1 0.270815 0.617348 0.159546
O O2 0.305553 0.441404 0.153614
O O3 0.152823 0.501371 0.193851
O O4 0.199171 0.509898 0.068674
O O5 0.791836 0.708165 0.136357
O O6 0.658990 0.654203 0.059280
O O7 0.873569 0.203448 0.500000
O O8 0.824594 0.324594 0.581731
O O9 0.836382 0.151784 0.615087
O O10 0.994020 0.249135 0.585520
O O11 0.392722 0.107279 0.713555
O O12 0.541005 0.230481 0.695307
O O13 0.564060 0.064060 0.711733
O O14 0.160103 0.339898 0.613180
O O15 0.395271 0.895271 0.000000
O O16 0.428045 0.071956 0.000000
O O17 0.623495 0.499002 0.000000
#
# Coordination Sequence:
#
# PCOD9564228 Si02
#       7
#    16  16  16  16  16   8   8
#     4  12  25  41  59  90 121 157 210 263 324 395
#     4  12  24  40  62  84 115 155 195 253 323 390
#     4  10  21  38  64  98 136 177 219 269 324 382
#     4  10  21  40  65  91 125 169 218 272 325 387
#     4  10  22  40  63  94 134 178 225 272 326 389
#     4  11  22  38  60  83 114 152 196 267 336 379
#     4  11  21  40  62  82 115 157 194 246 322 401
#
# _framework density 21.469194999999999
#
# number of rings (size 3 to 8) (size 9 to 14) (size 15 to 20)
#    0.000    1.167    1.667    5.250    0.000    5.333 
#    0.000    5.000    0.000    2.000    0.000    0.000 
#    0.000    0.000    0.000    0.000    0.000    0.000 
#
# Total GULP energy -534868.789801 kJ/mol
# GULP energy per Si atom -5571.549894 kJ/mol
# Density = 2.142033 g / cm^3
# Si number density = 21.469195 Si / 1000 Ang^3
#
#
#
# Elastic Constant Matrix: (Units=GPa)
#
#
# Indices 1 2 3 4 5 6 
#
# 1 96.9118 36.3021 18.9145 0.0000 0.0000 0.0000
# 2 36.3021 96.9119 18.9146 0.0000 0.0000 0.0000
# 3 18.9145 18.9146 81.6442 0.0000 0.0000 0.0000
# 4 0.0000 0.0000 0.0000 24.1072 0.0000 0.0000
# 5 0.0000 0.0000 0.0000 0.0000 24.1035 0.0000
# 6 0.0000 0.0000 0.0000 0.0000 0.0000 40.3099
#
#
#
# Elastic Compliance Matrix: (Units=1/GPa)
#
#
# Indices 1 2 3 4 5 6 
#
# 1 0.012267 -0.004232 -0.001862 0.000000 0.000000 0.000000
# 2 -0.004232 0.012267 -0.001862 0.000000 0.000000 0.000000
# 3 -0.001862 -0.001862 0.013111 0.000000 0.000000 0.000000
# 4 0.000000 0.000000 0.000000 0.041481 0.000000 0.000000
# 5 0.000000 0.000000 0.000000 0.000000 0.041488 0.000000
# 6 0.000000 0.000000 0.000000 0.000000 0.000000 0.024808
#
#
# Mechanical properties :
#
#
# Convention : Reuss Voigt Hill
#
# Bulk Modulus (GPa) = 46.00813 47.08115 46.54464
# Shear Modulus (GPa) = 29.66003 31.12657 30.39330
#
# Velocity S-wave (km/s) = 3.72091 3.81179 3.76662
# Velocity P-wave (km/s) = 6.31954 6.43041 6.37522
#
# Compressibility (1/GPa) = 0.02173529
#
# Stress axis : x y z
#
# Youngs Moduli (GPa) = 81.51834 81.51838 76.27293
#
# Poissons Ratio (x) = 0.34497 0.14199
# Poissons Ratio (y) = 0.34497 0.14199
# Poissons Ratio (z) = 0.15175 0.15175
#
# Static dielectric constant tensor:
#      x y z
#    x 1.819780 0.000000 0.000000 
#    y 0.000000 1.819780 0.000000 
#    z 0.000000 0.000000 1.842420 
# 
# From -- ./inp_files/5811.got.cif
#   From: 2010.05.17/outbox.cif.g08.bks.cpg/sg127_3_cif.got.tgz:5811.got - 2010.05.20 12:03:00.
