data_PCOD9564844
_publ_section_title
;
Structure prediction by ZEFSAII (Michael W. Deem and Ramdas Pophale) SiO2 
 PCOD9564844
Probable space group: P 4/M N C
;
_chemical_formula_sum "Si O2"
_cell_formula_units_Z 72
_cell_length_a 14.383826
_cell_length_b 14.383826
_cell_length_c 17.152302
_cell_angle_alpha 90.000000
_cell_angle_beta 90.000000
_cell_angle_gamma 90.000000
_cell_volume 3548.716095
_symmetry_space_group_name_H-M "P 4/M N C"
_symmetry_group_IT_number 128
_symmetry_cell_setting 'tetragonal'
loop_
_space_group_symop_operation_xyz
x,y,z
-y,x,z
-x,-y,z
y,-x,z
1/2+x,1/2-y,1/2-z
1/2-x,1/2+y,1/2-z
1/2+y,1/2+x,1/2-z
1/2-y,1/2-x,1/2-z
-x,-y,-z
y,-x,-z
x,y,-z
-y,x,-z
1/2-x,1/2+y,1/2+z
1/2+x,1/2-y,1/2+z
1/2-y,1/2-x,1/2+z
1/2+y,1/2+x,1/2+z
loop_
_atom_site_type_symbol
_atom_site_label
_atom_site_fract_x
_atom_site_fract_y
_atom_site_fract_z
Si Si1 0.596432 0.123761 0.907119
Si Si2 0.297377 0.064363 0.298123
Si Si3 0.271321 0.027330 0.135435
Si Si4 0.149812 0.971635 0.000000
Si Si5 0.245150 0.719948 0.908290
O O1 0.510428 0.157776 0.855459
O O2 0.681526 0.197301 0.893720
O O3 0.629153 0.021360 0.879830
O O4 0.576711 0.122463 0.000000
O O5 0.374263 0.125738 0.250000
O O6 0.244973 0.017692 0.225542
O O7 0.236420 0.134378 0.349867
O O8 0.262661 0.135071 0.109346
O O9 0.208948 0.967639 0.077355
O O10 0.103160 0.071293 0.000000
O O11 0.252089 0.696358 0.000000
#
# Coordination Sequence:
#
# PCOD9564844 Si02
#       5
#    16  16  16   8  16
#     4  11  22  39  64  89 122 168 207 253 314 372
#     4  10  24  39  59  91 124 160 202 260 310 370
#     4  11  21  36  57  86 118 155 198 252 301 364
#     4  11  22  36  56  81 114 158 200 245 304 369
#     4  10  21  39  61  86 121 161 209 257 308 368
#
# _framework density 20.289027000000001
#
# number of rings (size 3 to 8) (size 9 to 14) (size 15 to 20)
#    0.000    1.444    2.222    2.667    0.000   13.333 
#    0.000    5.556    0.000    0.667    0.000    3.111 
#    0.000    0.000    0.000    0.000    0.000    0.000 
#
# Total GULP energy -401734.872083 kJ/mol
# GULP energy per Si atom -5579.651001 kJ/mol
# Density = 2.024285 g / cm^3
# Si number density = 20.289027 Si / 1000 Ang^3
#
#
#
# Elastic Constant Matrix: (Units=GPa)
#
#
# Indices 1 2 3 4 5 6 
#
# 1 69.2407 12.7333 48.3703 0.0000 0.0000 0.0000
# 2 12.7333 69.2407 48.3703 0.0000 0.0000 0.0000
# 3 48.3703 48.3703 156.7713 0.0000 0.0000 0.0000
# 4 0.0000 0.0000 0.0000 25.5902 0.0000 0.0000
# 5 0.0000 0.0000 0.0000 0.0000 25.5902 0.0000
# 6 0.0000 0.0000 0.0000 0.0000 0.0000 34.2021
#
#
#
# Elastic Compliance Matrix: (Units=1/GPa)
#
#
# Indices 1 2 3 4 5 6 
#
# 1 0.018441 0.000744 -0.005919 0.000000 0.000000 0.000000
# 2 0.000744 0.018441 -0.005919 0.000000 0.000000 0.000000
# 3 -0.005919 -0.005919 0.010031 0.000000 0.000000 0.000000
# 4 0.000000 0.000000 0.000000 0.039077 0.000000 0.000000
# 5 0.000000 0.000000 0.000000 0.000000 0.039078 0.000000
# 6 0.000000 0.000000 0.000000 0.000000 0.000000 0.029238
#
#
# Mechanical properties :
#
#
# Convention : Reuss Voigt Hill
#
# Bulk Modulus (GPa) = 40.44739 57.13339 48.79039
# Shear Modulus (GPa) = 27.06570 29.46174 28.26372
#
# Velocity S-wave (km/s) = 3.65637 3.81478 3.73641
# Velocity P-wave (km/s) = 6.14852 6.90103 6.53561
#
# Compressibility (1/GPa) = 0.02472347
#
# Stress axis : x y z
#
# Youngs Moduli (GPa) = 54.22815 54.22816 99.68770
#
# Poissons Ratio (x) = -0.04034 0.59007
# Poissons Ratio (y) = -0.04034 0.59007
# Poissons Ratio (z) = 0.32099 0.32099
#
# Static dielectric constant tensor:
#      x y z
#    x 1.752390 0.000000 0.000000 
#    y 0.000000 1.752390 0.000000 
#    z 0.000000 0.000000 1.082090 
# 
# From -- ./inp_files/4553.got.cif
#   From: 2010.05.17/outbox.cif.g08.bks.cpg/sg128_3_cif.got.tgz:4553.got - 2010.05.20 12:07:25.
