data_PCOD9564651
_publ_section_title
;
Structure prediction by ZEFSAII (Michael W. Deem and Ramdas Pophale) SiO2 
 PCOD9564651
Probable space group: P 4/M N C
;
_chemical_formula_sum "Si O2"
_cell_formula_units_Z 48
_cell_length_a 10.729132
_cell_length_b 10.729132
_cell_length_c 18.144617
_cell_angle_alpha 90.000000
_cell_angle_beta 90.000000
_cell_angle_gamma 90.000000
_cell_volume 2088.704403
_symmetry_space_group_name_H-M "P 4/M N C"
_symmetry_group_IT_number 128
_symmetry_cell_setting 'tetragonal'
loop_
_space_group_symop_operation_xyz
x,y,z
-y,x,z
-x,-y,z
y,-x,z
1/2+x,1/2-y,1/2-z
1/2-x,1/2+y,1/2-z
1/2+y,1/2+x,1/2-z
1/2-y,1/2-x,1/2-z
-x,-y,-z
y,-x,-z
x,y,-z
-y,x,-z
1/2-x,1/2+y,1/2+z
1/2+x,1/2-y,1/2+z
1/2-y,1/2-x,1/2+z
1/2+y,1/2+x,1/2+z
loop_
_atom_site_type_symbol
_atom_site_label
_atom_site_fract_x
_atom_site_fract_y
_atom_site_fract_z
Si Si1 0.817150 0.074567 0.117649
Si Si2 0.043227 0.355564 0.418320
Si Si3 0.507038 0.796476 0.235774
O O1 0.691771 0.133741 0.088346
O O2 0.933460 0.156587 0.093070
O O3 0.802190 0.046735 0.205946
O O4 0.003869 0.317924 0.500000
O O5 0.000000 0.500000 0.406097
O O6 0.997336 0.271108 0.350976
O O7 0.644060 0.855941 0.250000
O O8 0.409432 0.909432 0.250000
#
# Coordination Sequence:
#
# PCOD9564651 Si02
#       3
#    16  16  16
#     4  10  21  35  56  83 111 144 177 224 280 322
#     4  10  19  35  56  78 109 145 181 223 269 321
#     4   9  15  32  53  78 103 138 181 224 260 307
#
# _framework density 22.980754000000001
#
# number of rings (size 3 to 8) (size 9 to 14) (size 15 to 20)
#    0.000    2.333    6.667    0.000    0.000    5.333 
#    0.000    1.667    0.000    0.000    0.000    2.333 
#    0.000    0.000    0.000    0.000    0.000    0.000 
#
# Total GULP energy -267675.711701 kJ/mol
# GULP energy per Si atom -5576.577327 kJ/mol
# Density = 2.292845 g / cm^3
# Si number density = 22.980754 Si / 1000 Ang^3
#
#
#
# Elastic Constant Matrix: (Units=GPa)
#
#
# Indices 1 2 3 4 5 6 
#
# 1 11.9592 17.1389 -5.7568 0.0000 0.0000 0.0000
# 2 17.1389 11.9597 -5.7562 0.0000 0.0000 0.0000
# 3 -5.7568 -5.7562 167.8258 0.0000 0.0000 0.0000
# 4 0.0000 0.0000 0.0000 -4.7259 0.0000 0.0000
# 5 0.0000 0.0000 0.0000 0.0000 -4.7260 0.0000
# 6 0.0000 0.0000 0.0000 0.0000 0.0000 11.0496
#
#
#
# Elastic Compliance Matrix: (Units=1/GPa)
#
#
# Indices 1 2 3 4 5 6 
#
# 1 -0.079118 0.113956 0.001195 0.000000 0.000000 0.000000
# 2 0.113956 -0.079115 0.001195 0.000000 0.000000 0.000000
# 3 0.001195 0.001195 0.006041 0.000000 0.000000 0.000000
# 4 0.000000 0.000000 0.000000 -0.211599 0.000000 0.000000
# 5 0.000000 0.000000 0.000000 0.000000 -0.211594 0.000000
# 6 0.000000 0.000000 0.000000 0.000000 0.000000 0.090501
#
#
# Mechanical properties :
#
#
# Convention : Reuss Voigt Hill
#
# Bulk Modulus (GPa) = 12.42261 22.55519 17.48890
# Shear Modulus (GPa) = -7.23859 12.72745 2.74443
#
# Velocity S-wave (km/s) = -1.77671 2.35591 1.09399
# Velocity P-wave (km/s) = 1.09931 4.15169 3.03686
#
# Compressibility (1/GPa) = 0.08049837
#
# Stress axis : x y z
#
# Youngs Moduli (GPa) = -12.63929 -12.63987 165.54823
#
# Poissons Ratio (x) = 1.44038 -0.19776
# Poissons Ratio (y) = 1.44032 -0.19790
# Poissons Ratio (z) = 0.01510 0.01511
#
# Static dielectric constant tensor:
#      x y z
#    x 1.856060 0.000000 0.000000 
#    y 0.000000 1.856060 0.000000 
#    z 0.000000 0.000000 1.979050 
# 
# From -- ./inp_files/4323.got.cif
#   From: 2010.05.17/outbox.cif.g08.bks.cpg/sg128_3_cif.got.tgz:4323.got - 2010.05.20 12:07:25.
