data_PCOD9564594
_publ_section_title
;
Structure prediction by ZEFSAII (Michael W. Deem and Ramdas Pophale) SiO2 
 PCOD9564594
Probable space group: P 4/M N C
;
_chemical_formula_sum "Si O2"
_cell_formula_units_Z 96
_cell_length_a 22.340885
_cell_length_b 22.340885
_cell_length_c 9.394092
_cell_angle_alpha 90.000000
_cell_angle_beta 90.000000
_cell_angle_gamma 90.000000
_cell_volume 4688.733568
_symmetry_space_group_name_H-M "P 4/M N C"
_symmetry_group_IT_number 128
_symmetry_cell_setting 'tetragonal'
loop_
_space_group_symop_operation_xyz
x,y,z
-y,x,z
-x,-y,z
y,-x,z
1/2+x,1/2-y,1/2-z
1/2-x,1/2+y,1/2-z
1/2+y,1/2+x,1/2-z
1/2-y,1/2-x,1/2-z
-x,-y,-z
y,-x,-z
x,y,-z
-y,x,-z
1/2-x,1/2+y,1/2+z
1/2+x,1/2-y,1/2+z
1/2-y,1/2-x,1/2+z
1/2+y,1/2+x,1/2+z
loop_
_atom_site_type_symbol
_atom_site_label
_atom_site_fract_x
_atom_site_fract_y
_atom_site_fract_z
Si Si1 0.562346 0.665484 0.671428
Si Si2 0.128902 0.550345 0.341316
Si Si3 0.149992 0.730605 0.840189
Si Si4 0.336952 0.423874 0.671471
Si Si5 0.760945 0.654873 0.162738
Si Si6 0.863905 0.555286 0.159993
O O1 0.559614 0.674367 0.500000
O O2 0.608647 0.716677 0.723849
O O3 0.596518 0.602883 0.696648
O O4 0.493285 0.668670 0.719275
O O5 0.072705 0.572705 0.250000
O O6 0.113138 0.530274 0.500000
O O7 0.174692 0.604920 0.353268
O O8 0.160929 0.499167 0.251583
O O9 0.204495 0.704495 0.750000
O O10 0.169275 0.748616 0.000000
O O11 0.325940 0.421023 0.500000
O O12 0.291114 0.379502 0.751345
O O13 0.791007 0.708994 0.250000
O O14 0.814509 0.606564 0.152318
O O15 0.743349 0.670616 0.000000
O O16 0.919206 0.580795 0.250000
O O17 0.880167 0.537297 0.000000
#
# Coordination Sequence:
#
# PCOD9564594 Si02
#       6
#    16  16  16  16  16  16
#     4   9  19  35  58  87 117 153 197 245 295 347
#     4  10  19  31  48  69  98 136 178 225 277 332
#     4   9  18  33  52  77 107 140 180 226 280 338
#     4  10  20  37  60  86 119 157 199 246 295 351
#     4  10  21  37  58  85 115 149 190 238 295 355
#     4  10  20  33  49  70  98 133 177 226 278 337
#
# _framework density 20.474612
#
# number of rings (size 3 to 8) (size 9 to 14) (size 15 to 20)
#    0.000    2.333    0.000    2.500    0.000    5.333 
#    0.000    7.500    0.000    0.000    0.000    1.167 
#    0.000    0.000    0.000    0.000    0.000    0.000 
#
# Total GULP energy -535333.476973 kJ/mol
# GULP energy per Si atom -5576.390385 kJ/mol
# Density = 2.042801 g / cm^3
# Si number density = 20.474612 Si / 1000 Ang^3
#
#
#
# Elastic Constant Matrix: (Units=GPa)
#
#
# Indices 1 2 3 4 5 6 
#
# 1 55.8718 106.8679 49.6014 0.0000 0.0000 0.0000
# 2 106.8679 55.8710 49.6025 0.0000 0.0000 0.0000
# 3 49.6014 49.6025 119.3617 0.0000 0.0000 0.0000
# 4 0.0000 0.0000 0.0000 11.2889 0.0000 0.0000
# 5 0.0000 0.0000 0.0000 0.0000 11.2895 0.0000
# 6 0.0000 0.0000 0.0000 0.0000 0.0000 22.0571
#
#
#
# Elastic Compliance Matrix: (Units=1/GPa)
#
#
# Indices 1 2 3 4 5 6 
#
# 1 -0.005690 0.013919 -0.003420 0.000000 0.000000 0.000000
# 2 0.013919 -0.005690 -0.003420 0.000000 0.000000 0.000000
# 3 -0.003420 -0.003420 0.011220 0.000000 0.000000 0.000000
# 4 0.000000 0.000000 0.000000 0.088583 0.000000 0.000000
# 5 0.000000 0.000000 0.000000 0.000000 0.088578 0.000000
# 6 0.000000 0.000000 0.000000 0.000000 0.000000 0.045337
#
#
# Mechanical properties :
#
#
# Convention : Reuss Voigt Hill
#
# Bulk Modulus (GPa) = 71.42963 71.47203 71.45083
# Shear Modulus (GPa) = 23.49123 10.59594 17.04359
#
# Velocity S-wave (km/s) = 3.39091 2.27737 2.88831
# Velocity P-wave (km/s) = 7.09180 6.47291 6.78941
#
# Compressibility (1/GPa) = 0.01399979
#
# Stress axis : x y z
#
# Youngs Moduli (GPa) = -175.75612 -175.74738 89.12495
#
# Poissons Ratio (x) = 2.44629 0.30481
# Poissons Ratio (y) = 2.44641 0.30478
# Poissons Ratio (z) = -0.60109 -0.60100
#
# Static dielectric constant tensor:
#      x y z
#    x 1.761220 0.000000 0.000000 
#    y 0.000000 1.761210 0.000000 
#    z 0.000000 0.000000 1.747860 
# 
# From -- ./inp_files/1501.got.cif
#   From: 2010.05.17/outbox.cif.g08.bks.cpg/sg128_1_cif.got.tgz:1501.got - 2010.05.20 12:07:25.
