data_PCOD9564821
_publ_section_title
;
Structure prediction by ZEFSAII (Michael W. Deem and Ramdas Pophale) SiO2 
 PCOD9564821
Probable space group: P 4/M N C
;
_chemical_formula_sum "Si O2"
_cell_formula_units_Z 112
_cell_length_a 15.396547
_cell_length_b 15.396547
_cell_length_c 24.960661
_cell_angle_alpha 90.000000
_cell_angle_beta 90.000000
_cell_angle_gamma 90.000000
_cell_volume 5917.016034
_symmetry_space_group_name_H-M "P 4/M N C"
_symmetry_group_IT_number 128
_symmetry_cell_setting 'tetragonal'
loop_
_space_group_symop_operation_xyz
x,y,z
-y,x,z
-x,-y,z
y,-x,z
1/2+x,1/2-y,1/2-z
1/2-x,1/2+y,1/2-z
1/2+y,1/2+x,1/2-z
1/2-y,1/2-x,1/2-z
-x,-y,-z
y,-x,-z
x,y,-z
-y,x,-z
1/2-x,1/2+y,1/2+z
1/2+x,1/2-y,1/2+z
1/2-y,1/2-x,1/2+z
1/2+y,1/2+x,1/2+z
loop_
_atom_site_type_symbol
_atom_site_label
_atom_site_fract_x
_atom_site_fract_y
_atom_site_fract_z
Si Si1 0.731672 0.867207 0.294834
Si Si2 0.644729 0.160910 0.437452
Si Si3 0.909068 0.114335 0.218944
Si Si4 0.937473 0.356357 0.062184
Si Si5 0.322893 0.279621 0.623439
Si Si6 0.485104 0.187188 0.116660
Si Si7 0.462688 0.364972 0.935692
O O1 0.663236 0.836765 0.250000
O O2 0.825355 0.874467 0.267246
O O3 0.725293 0.792531 0.339801
O O4 0.702637 0.957332 0.322246
O O5 0.671472 0.149999 0.500000
O O6 0.540755 0.151599 0.434757
O O7 0.673987 0.252930 0.414111
O O8 0.683346 0.084561 0.400677
O O9 0.871364 0.155889 0.164378
O O10 0.013763 0.117734 0.221381
O O11 0.892315 0.272301 0.087825
O O12 0.898479 0.437739 0.094430
O O13 0.912928 0.366353 0.000000
O O14 0.444472 0.270943 0.086869
O O15 0.558860 0.397065 0.918778
O O16 0.461247 0.362313 0.000000
#
# Coordination Sequence:
#
# PCOD9564821 Si02
#       7
#    16  16  16  16  16  16  16
#     4   9  22  40  58  84 118 152 201 253 301 360
#     4  11  23  37  60  93 123 159 205 245 306 384
#     4  10  21  38  63  87 114 150 197 254 309 359
#     4  10  21  38  58  84 122 160 194 243 294 361
#     4  10  21  39  61  85 117 156 198 248 302 359
#     4  11  22  35  60  84 121 160 202 249 303 365
#     4   9  19  33  49  79 124 165 199 236 284 354
#
# _framework density 18.928460000000001
#
# number of rings (size 3 to 8) (size 9 to 14) (size 15 to 20)
#    0.000    2.000    0.000    3.429    6.000    1.143 
#    0.000    1.429    0.000    6.857    0.000    6.000 
#    0.000    0.000    0.000    0.000    0.000    0.000 
#
# Total GULP energy -625395.460735 kJ/mol
# GULP energy per Si atom -5583.888042 kJ/mol
# Density = 1.888538 g / cm^3
# Si number density = 18.928460 Si / 1000 Ang^3
#
#
#
# Elastic Constant Matrix: (Units=GPa)
#
#
# Indices 1 2 3 4 5 6 
#
# 1 74.0798 27.6246 28.5805 0.0000 0.0000 0.0000
# 2 27.6246 74.0786 28.5812 0.0000 0.0000 0.0000
# 3 28.5805 28.5812 51.4463 0.0000 0.0000 0.0000
# 4 0.0000 0.0000 0.0000 8.3420 0.0000 0.0000
# 5 0.0000 0.0000 0.0000 0.0000 8.3373 0.0000
# 6 0.0000 0.0000 0.0000 0.0000 0.0000 27.4009
#
#
#
# Elastic Compliance Matrix: (Units=1/GPa)
#
#
# Indices 1 2 3 4 5 6 
#
# 1 0.017911 -0.003615 -0.007942 0.000000 0.000000 0.000000
# 2 -0.003615 0.017912 -0.007943 0.000000 0.000000 0.000000
# 3 -0.007942 -0.007943 0.028262 0.000000 0.000000 0.000000
# 4 0.000000 0.000000 0.000000 0.119875 0.000000 0.000000
# 5 0.000000 0.000000 0.000000 0.000000 0.119943 0.000000
# 6 0.000000 0.000000 0.000000 0.000000 0.000000 0.036495
#
#
# Mechanical properties :
#
#
# Convention : Reuss Voigt Hill
#
# Bulk Modulus (GPa) = 39.86303 41.01970 40.44137
# Shear Modulus (GPa) = 12.89458 16.47060 14.68259
#
# Velocity S-wave (km/s) = 2.61286 2.95303 2.78814
# Velocity P-wave (km/s) = 5.49621 5.77453 5.63708
#
# Compressibility (1/GPa) = 0.02508590
#
# Stress axis : x y z
#
# Youngs Moduli (GPa) = 55.83132 55.82939 35.38268
#
# Poissons Ratio (x) = 0.20182 0.28101
# Poissons Ratio (y) = 0.20183 0.28103
# Poissons Ratio (z) = 0.44341 0.44343
#
# Static dielectric constant tensor:
#      x y z
#    x 1.650800 0.000000 0.000000 
#    y 0.000000 1.650800 0.000000 
#    z 0.000000 0.000000 1.661450 
# 
# From -- ./inp_files/6465.got.cif
#   From: 2010.05.17/outbox.cif.g08.bks.cpg/sg128_4_cif.got.tgz:6465.got - 2010.05.20 12:07:25.
