data_PCOD9564198
_publ_section_title
;
Structure prediction by ZEFSAII (Michael W. Deem and Ramdas Pophale) SiO2 
 PCOD9564198
Probable space group: P 4/M B M
;
_chemical_formula_sum "Si O2"
_cell_formula_units_Z 96
_cell_length_a 14.858317
_cell_length_b 14.858317
_cell_length_c 21.581227
_cell_angle_alpha 90.000000
_cell_angle_beta 90.000000
_cell_angle_gamma 90.000000
_cell_volume 4764.478509
_symmetry_space_group_name_H-M "P 4/M B M"
_symmetry_group_IT_number 127
_symmetry_cell_setting 'tetragonal'
loop_
_space_group_symop_operation_xyz
x,y,z
-y,x,z
-x,-y,z
y,-x,z
1/2+x,1/2-y,-z
1/2-x,1/2+y,-z
1/2+y,1/2+x,-z
1/2-y,1/2-x,-z
-x,-y,-z
y,-x,-z
x,y,-z
-y,x,-z
1/2-x,1/2+y,z
1/2+x,1/2-y,z
1/2-y,1/2-x,z
1/2+y,1/2+x,z
loop_
_atom_site_type_symbol
_atom_site_label
_atom_site_fract_x
_atom_site_fract_y
_atom_site_fract_z
Si Si1 0.647089 0.005647 0.388412
Si Si2 0.494511 0.146871 0.241099
Si Si3 0.105045 0.107945 0.687589
Si Si4 0.368687 0.284676 0.432126
Si Si5 0.381891 0.404368 0.068633
Si Si6 0.719755 0.629053 0.807329
O O1 0.567065 0.932936 0.398626
O O2 0.666547 0.001885 0.314665
O O3 0.731905 0.963841 0.423379
O O4 0.602565 0.102565 0.403955
O O5 0.396711 0.103290 0.228145
O O6 0.532348 0.230620 0.202846
O O7 0.566669 0.066669 0.230565
O O8 0.149592 0.145440 0.625382
O O9 0.142320 0.153139 0.749587
O O10 0.998384 0.121248 0.687875
O O11 0.366417 0.327894 0.500000
O O12 0.291642 0.208359 0.429614
O O13 0.487011 0.378950 0.072327
O O14 0.329131 0.367243 0.127129
O O15 0.348500 0.377542 0.000000
O O16 0.795880 0.704121 0.803570
#
# Coordination Sequence:
#
# PCOD9564198 Si02
#       6
#    16  16  16  16  16  16
#     4   8  14  27  49  77 109 142 176 221 282 350
#     4   8  15  29  50  79 115 149 177 212 269 340
#     4  11  24  41  59  78 105 146 197 243 281 333
#     4  10  21  37  57  81 110 143 182 235 297 355
#     4   9  19  38  61  82 111 154 197 232 269 319
#     4  11  21  34  59  91 119 146 181 233 290 340
#
# _framework density 20.14911
#
# number of rings (size 3 to 8) (size 9 to 14) (size 15 to 20)
#    0.000    2.500    0.000    4.000    0.000    2.667 
#    0.000    8.333    0.000    1.500    0.000    2.333 
#    0.000    0.000    0.000    0.000    0.000    0.000 
#
# Total GULP energy -536055.352186 kJ/mol
# GULP energy per Si atom -5583.909919 kJ/mol
# Density = 2.010325 g / cm^3
# Si number density = 20.149110 Si / 1000 Ang^3
#
#
#
# Elastic Constant Matrix: (Units=GPa)
#
#
# Indices 1 2 3 4 5 6 
#
# 1 72.9853 20.3758 53.4952 0.0000 0.0000 0.0000
# 2 20.3758 72.9853 53.4952 0.0000 0.0000 0.0000
# 3 53.4952 53.4952 168.6592 0.0000 0.0000 0.0000
# 4 0.0000 0.0000 0.0000 26.3384 0.0000 0.0000
# 5 0.0000 0.0000 0.0000 0.0000 26.3384 0.0000
# 6 0.0000 0.0000 0.0000 0.0000 0.0000 11.3518
#
#
#
# Elastic Compliance Matrix: (Units=1/GPa)
#
#
# Indices 1 2 3 4 5 6 
#
# 1 0.017918 -0.001090 -0.005337 0.000000 0.000000 0.000000
# 2 -0.001090 0.017918 -0.005337 0.000000 0.000000 0.000000
# 3 -0.005337 -0.005337 0.009315 0.000000 0.000000 0.000000
# 4 0.000000 0.000000 0.000000 0.037967 0.000000 0.000000
# 5 0.000000 0.000000 0.000000 0.000000 0.037967 0.000000
# 6 0.000000 0.000000 0.000000 0.000000 0.000000 0.088092
#
#
# Mechanical properties :
#
#
# Convention : Reuss Voigt Hill
#
# Bulk Modulus (GPa) = 46.25197 63.26248 54.75722
# Shear Modulus (GPa) = 20.84077 25.28993 23.06535
#
# Velocity S-wave (km/s) = 3.21959 3.54664 3.38706
# Velocity P-wave (km/s) = 6.06841 6.94527 6.52160
#
# Compressibility (1/GPa) = 0.02162070
#
# Stress axis : x y z
#
# Youngs Moduli (GPa) = 55.81037 55.81037 107.35455
#
# Poissons Ratio (x) = 0.06084 0.57299
# Poissons Ratio (y) = 0.06084 0.57299
# Poissons Ratio (z) = 0.29788 0.29788
#
# Static dielectric constant tensor:
#      x y z
#    x 1.744990 0.000000 0.000000 
#    y 0.000000 1.744990 0.000000 
#    z 0.000000 0.000000 1.686030 
# 
# From -- ./inp_files/5760.got.cif
#   From: 2010.05.17/outbox.cif.g08.bks.cpg/sg127_3_cif.got.tgz:5760.got - 2010.05.20 12:03:00.
