data_PCOD9564215
_publ_section_title
;
Structure prediction by ZEFSAII (Michael W. Deem and Ramdas Pophale) SiO2 
 PCOD9564215
Probable space group: P 4/M B M
;
_chemical_formula_sum "Si O2"
_cell_formula_units_Z 80
_cell_length_a 14.820227
_cell_length_b 14.820227
_cell_length_c 18.919500
_cell_angle_alpha 90.000000
_cell_angle_beta 90.000000
_cell_angle_gamma 90.000000
_cell_volume 4155.462488
_symmetry_space_group_name_H-M "P 4/M B M"
_symmetry_group_IT_number 127
_symmetry_cell_setting 'tetragonal'
loop_
_space_group_symop_operation_xyz
x,y,z
-y,x,z
-x,-y,z
y,-x,z
1/2+x,1/2-y,-z
1/2-x,1/2+y,-z
1/2+y,1/2+x,-z
1/2-y,1/2-x,-z
-x,-y,-z
y,-x,-z
x,y,-z
-y,x,-z
1/2-x,1/2+y,z
1/2+x,1/2-y,z
1/2-y,1/2-x,z
1/2+y,1/2+x,z
loop_
_atom_site_type_symbol
_atom_site_label
_atom_site_fract_x
_atom_site_fract_y
_atom_site_fract_z
Si Si1 0.348719 0.509790 0.418150
Si Si2 0.098982 0.886693 0.789094
Si Si3 0.279286 0.373764 0.081490
Si Si4 0.230190 0.585629 0.698987
Si Si5 0.146998 0.505478 0.158519
O O1 0.407948 0.419771 0.407486
O O2 0.319580 0.511513 0.500000
O O3 0.268932 0.523614 0.362937
O O4 0.136534 0.862490 0.866197
O O5 0.138137 0.815595 0.733758
O O6 0.991489 0.879420 0.778956
O O7 0.211574 0.288427 0.087915
O O8 0.221962 0.460522 0.108528
O O9 0.305082 0.383996 0.000000
O O10 0.156076 0.656076 0.672766
O O11 0.187410 0.532353 0.765531
O O12 0.094117 0.594117 0.130329
O O13 0.071573 0.428427 0.167968
#
# Coordination Sequence:
#
# PCOD9564215 Si02
#       5
#    16  16  16  16  16
#     4   9  19  37  59  83 114 150 184 220 267 324
#     4  11  22  37  55  76 107 147 188 224 272 336
#     4  10  21  38  58  80 108 140 182 239 292 335
#     4  11  21  35  58  86 113 143 185 233 276 323
#     4   9  19  37  59  82 109 143 186 233 282 334
#
# _framework density 19.251768999999999
#
# number of rings (size 3 to 8) (size 9 to 14) (size 15 to 20)
#    0.000    2.000    2.000    2.400    0.000    3.200 
#    0.000    3.000    0.000    1.800    0.000    2.800 
#    0.000    0.000    0.000    0.000    0.000    0.000 
#
# Total GULP energy -446387.887199 kJ/mol
# GULP energy per Si atom -5579.848590 kJ/mol
# Density = 1.920795 g / cm^3
# Si number density = 19.251769 Si / 1000 Ang^3
#
#
#
# Elastic Constant Matrix: (Units=GPa)
#
#
# Indices 1 2 3 4 5 6 
#
# 1 35.2326 -16.3228 -6.4777 0.0000 0.0000 0.0000
# 2 -16.3228 35.2326 -6.4777 0.0000 0.0000 0.0000
# 3 -6.4777 -6.4777 59.3884 0.0000 0.0000 0.0000
# 4 0.0000 0.0000 0.0000 25.4296 0.0000 0.0000
# 5 0.0000 0.0000 0.0000 0.0000 25.4296 0.0000
# 6 0.0000 0.0000 0.0000 0.0000 0.0000 10.4206
#
#
#
# Elastic Compliance Matrix: (Units=1/GPa)
#
#
# Indices 1 2 3 4 5 6 
#
# 1 0.038275 0.018879 0.006234 0.000000 0.000000 0.000000
# 2 0.018879 0.038275 0.006234 0.000000 0.000000 0.000000
# 3 0.006234 0.006234 0.018198 0.000000 0.000000 0.000000
# 4 0.000000 0.000000 0.000000 0.039324 0.000000 0.000000
# 5 0.000000 0.000000 0.000000 0.000000 0.039324 0.000000
# 6 0.000000 0.000000 0.000000 0.000000 0.000000 0.095964
#
#
# Mechanical properties :
#
#
# Convention : Reuss Voigt Hill
#
# Bulk Modulus (GPa) = 6.35157 7.92191 7.13674
# Shear Modulus (GPa) = 19.29395 22.86474 21.07935
#
# Velocity S-wave (km/s) = 3.16917 3.45000 3.31256
# Velocity P-wave (km/s) = 4.08631 4.47144 4.28321
#
# Compressibility (1/GPa) = 0.15744132
#
# Stress axis : x y z
#
# Youngs Moduli (GPa) = 26.12663 26.12663 54.95043
#
# Poissons Ratio (x) = -0.49323 -0.34256
# Poissons Ratio (y) = -0.49323 -0.34256
# Poissons Ratio (z) = -0.16287 -0.16287
#
# Static dielectric constant tensor:
#      x y z
#    x 1.700970 0.000000 0.000000 
#    y 0.000000 1.700970 0.000000 
#    z 0.000000 0.000000 1.659670 
# 
# From -- ./inp_files/5624.got.cif
#   From: 2010.05.17/outbox.cif.g08.bks.cpg/sg127_3_cif.got.tgz:5624.got - 2010.05.20 12:03:00.
