data_PCOD9564798
_publ_section_title
;
Structure prediction by ZEFSAII (Michael W. Deem and Ramdas Pophale) SiO2 
 PCOD9564798
Probable space group: P 4/M N C
;
_chemical_formula_sum "Si O2"
_cell_formula_units_Z 80
_cell_length_a 10.786213
_cell_length_b 10.786213
_cell_length_c 38.371319
_cell_angle_alpha 90.000000
_cell_angle_beta 90.000000
_cell_angle_gamma 90.000000
_cell_volume 4464.210994
_symmetry_space_group_name_H-M "P 4/M N C"
_symmetry_group_IT_number 128
_symmetry_cell_setting 'tetragonal'
loop_
_space_group_symop_operation_xyz
x,y,z
-y,x,z
-x,-y,z
y,-x,z
1/2+x,1/2-y,1/2-z
1/2-x,1/2+y,1/2-z
1/2+y,1/2+x,1/2-z
1/2-y,1/2-x,1/2-z
-x,-y,-z
y,-x,-z
x,y,-z
-y,x,-z
1/2-x,1/2+y,1/2+z
1/2+x,1/2-y,1/2+z
1/2-y,1/2-x,1/2+z
1/2+y,1/2+x,1/2+z
loop_
_atom_site_type_symbol
_atom_site_label
_atom_site_fract_x
_atom_site_fract_y
_atom_site_fract_z
Si Si1 0.798363 0.054355 0.038453
Si Si2 0.774441 0.726021 0.791449
Si Si3 0.630081 0.061399 0.894551
Si Si4 0.029168 0.649564 0.178426
Si Si5 0.575939 0.311122 0.852376
O O1 0.713059 0.073634 0.071629
O O2 0.915972 0.145681 0.040085
O O3 0.739431 0.070345 0.000000
O O4 0.774279 0.725722 0.750000
O O5 0.917330 0.724663 0.803744
O O6 0.720892 0.605936 0.811970
O O7 0.695255 0.842774 0.805215
O O8 0.678898 0.975116 0.862840
O O9 0.612525 0.193892 0.875627
O O10 0.500000 0.000000 0.904775
O O11 0.000000 0.500000 0.181907
O O12 0.655307 0.434003 0.859409
#
# Coordination Sequence:
#
# PCOD9564798 Si02
#       5
#    16  16  16  16  16
#     4   9  20  37  59  89 122 156 190 234 298 359
#     4  11  24  37  61  83 116 159 202 250 310 363
#     4  10  21  36  63  88 118 150 199 248 290 349
#     4  10  24  41  58  86 120 156 202 255 308 354
#     4  10  22  40  60  84 118 159 203 242 299 364
#
# _framework density 17.920299
#
# number of rings (size 3 to 8) (size 9 to 14) (size 15 to 20)
#    0.000    2.000    0.000    4.200   14.000    0.800 
#    0.000    0.000    0.000    0.000    0.000    1.400 
#    0.000    0.000    0.000    0.000    0.000    0.000 
#
# Total GULP energy -446175.477553 kJ/mol
# GULP energy per Si atom -5577.193469 kJ/mol
# Density = 1.787951 g / cm^3
# Si number density = 17.920299 Si / 1000 Ang^3
#
#
#
# Elastic Constant Matrix: (Units=GPa)
#
#
# Indices 1 2 3 4 5 6 
#
# 1 74.9901 38.6630 54.5965 0.0000 0.0000 0.0000
# 2 38.6630 74.9902 54.5966 0.0000 0.0000 0.0000
# 3 54.5965 54.5966 157.9038 0.0000 0.0000 0.0000
# 4 0.0000 0.0000 0.0000 18.3668 0.0000 0.0000
# 5 0.0000 0.0000 0.0000 0.0000 18.3669 0.0000
# 6 0.0000 0.0000 0.0000 0.0000 0.0000 23.5501
#
#
#
# Elastic Compliance Matrix: (Units=1/GPa)
#
#
# Indices 1 2 3 4 5 6 
#
# 1 0.020352 -0.007176 -0.004556 0.000000 0.000000 0.000000
# 2 -0.007176 0.020352 -0.004556 0.000000 0.000000 0.000000
# 3 -0.004556 -0.004556 0.009483 0.000000 0.000000 0.000000
# 4 0.000000 0.000000 0.000000 0.054446 0.000000 0.000000
# 5 0.000000 0.000000 0.000000 0.000000 0.054446 0.000000
# 6 0.000000 0.000000 0.000000 0.000000 0.000000 0.042463
#
#
# Mechanical properties :
#
#
# Convention : Reuss Voigt Hill
#
# Bulk Modulus (GPa) = 56.77947 67.06626 61.92287
# Shear Modulus (GPa) = 20.83460 22.72531 21.77996
#
# Velocity S-wave (km/s) = 3.41343 3.56495 3.49001
# Velocity P-wave (km/s) = 6.87667 7.37910 7.13231
#
# Compressibility (1/GPa) = 0.01761200
#
# Stress axis : x y z
#
# Youngs Moduli (GPa) = 49.13632 49.13635 105.44974
#
# Poissons Ratio (x) = 0.35261 0.48038
# Poissons Ratio (y) = 0.35261 0.48038
# Poissons Ratio (z) = 0.22384 0.22384
#
# Static dielectric constant tensor:
#      x y z
#    x 1.631310 0.000000 0.000000 
#    y 0.000000 1.631310 0.000000 
#    z 0.000000 0.000000 1.598540 
# 
# From -- ./inp_files/7195.got.cif
#   From: 2010.05.17/outbox.cif.g08.bks.cpg/sg128_4_cif.got.tgz:7195.got - 2010.05.20 12:07:25.
