data_PCOD9564347
_publ_section_title
;
Structure prediction by ZEFSAII (Michael W. Deem and Ramdas Pophale) SiO2 
 PCOD9564347
Probable space group: P 4/M B M
;
_chemical_formula_sum "Si O2"
_cell_formula_units_Z 96
_cell_length_a 24.942979
_cell_length_b 24.942979
_cell_length_c 8.497193
_cell_angle_alpha 90.000000
_cell_angle_beta 90.000000
_cell_angle_gamma 90.000000
_cell_volume 5286.547331
_symmetry_space_group_name_H-M "P 4/M B M"
_symmetry_group_IT_number 127
_symmetry_cell_setting 'tetragonal'
loop_
_space_group_symop_operation_xyz
x,y,z
-y,x,z
-x,-y,z
y,-x,z
1/2+x,1/2-y,-z
1/2-x,1/2+y,-z
1/2+y,1/2+x,-z
1/2-y,1/2-x,-z
-x,-y,-z
y,-x,-z
x,y,-z
-y,x,-z
1/2-x,1/2+y,z
1/2+x,1/2-y,z
1/2-y,1/2-x,z
1/2+y,1/2+x,z
loop_
_atom_site_type_symbol
_atom_site_label
_atom_site_fract_x
_atom_site_fract_y
_atom_site_fract_z
Si Si1 0.147213 0.267401 0.808180
Si Si2 0.649306 0.354349 0.811843
Si Si3 0.941399 0.357509 0.310724
Si Si4 0.854803 0.560554 0.810568
Si Si5 0.063136 0.060105 0.310052
Si Si6 0.768522 0.354162 0.690100
O O1 0.201671 0.298330 0.757841
O O2 0.139539 0.206721 0.753826
O O3 0.097848 0.305134 0.760097
O O4 0.148540 0.266457 0.000000
O O5 0.607145 0.397701 0.748070
O O6 0.710680 0.364249 0.762525
O O7 0.645259 0.354839 0.000000
O O8 0.942830 0.358445 0.500000
O O9 0.911759 0.411759 0.256454
O O10 0.902372 0.308617 0.266232
O O11 0.000686 0.351518 0.248451
O O12 0.908561 0.591440 0.758188
O O13 0.854558 0.560351 0.000000
O O14 0.063795 0.060595 0.500000
O O15 0.001809 0.073762 0.260381
O O16 0.764087 0.352889 0.500000
O O17 0.799112 0.299112 0.738796
#
# Coordination Sequence:
#
# PCOD9564347 Si02
#       6
#    16  16  16  16  16  16
#     4   8  16  32  50  70 102 138 166 199 248 302
#     4  11  21  32  54  85 109 132 167 211 261 317
#     4   9  19  35  52  71  99 135 172 213 259 300
#     4   9  18  33  52  73 100 135 172 211 255 303
#     4   9  20  40  60  75  99 138 177 212 255 307
#     4   9  19  36  54  73 103 141 178 216 257 304
#
# _framework density 18.159299000000001
#
# number of rings (size 3 to 8) (size 9 to 14) (size 15 to 20)
#    0.000    2.833    0.000    3.500    0.000    4.667 
#    0.000    9.167    0.000    2.000    0.000    0.000 
#    0.000    0.000    0.000    0.000    0.000    0.000 
#
# Total GULP energy -535157.113139 kJ/mol
# GULP energy per Si atom -5574.553262 kJ/mol
# Density = 1.811797 g / cm^3
# Si number density = 18.159299 Si / 1000 Ang^3
#
#
#
# Elastic Constant Matrix: (Units=GPa)
#
#
# Indices 1 2 3 4 5 6 
#
# 1 179.3585 87.3045 28.0521 0.0000 0.0000 0.0000
# 2 87.3045 179.3585 28.0521 0.0000 0.0000 0.0000
# 3 28.0521 28.0521 12.3418 0.0000 0.0000 0.0000
# 4 0.0000 0.0000 0.0000 26.1619 0.0000 0.0000
# 5 0.0000 0.0000 0.0000 0.0000 26.1619 0.0000
# 6 0.0000 0.0000 0.0000 0.0000 0.0000 24.9984
#
#
#
# Elastic Compliance Matrix: (Units=1/GPa)
#
#
# Indices 1 2 3 4 5 6 
#
# 1 0.009025 -0.001838 -0.016336 0.000000 0.000000 0.000000
# 2 -0.001838 0.009025 -0.016336 0.000000 0.000000 0.000000
# 3 -0.016336 -0.016336 0.155286 0.000000 0.000000 0.000000
# 4 0.000000 0.000000 0.000000 0.038224 0.000000 0.000000
# 5 0.000000 0.000000 0.000000 0.000000 0.038224 0.000000
# 6 0.000000 0.000000 0.000000 0.000000 0.000000 0.040003
#
#
# Mechanical properties :
#
#
# Convention : Reuss Voigt Hill
#
# Bulk Modulus (GPa) = 9.58615 73.09737 41.34176
# Shear Modulus (GPa) = 12.70402 30.64111 21.67256
#
# Velocity S-wave (km/s) = 2.64784 4.11219 3.45841
# Velocity P-wave (km/s) = 3.82602 7.93017 6.22600
#
# Compressibility (1/GPa) = 0.10431720
#
# Stress axis : x y z
#
# Youngs Moduli (GPa) = 110.80246 110.80246 6.43975
#
# Poissons Ratio (x) = 0.20367 0.10520
# Poissons Ratio (y) = 0.20367 0.10520
# Poissons Ratio (z) = 1.81002 1.81002
#
# Static dielectric constant tensor:
#      x y z
#    x 1.617350 0.000000 0.000000 
#    y 0.000000 1.617350 0.000000 
#    z 0.000000 0.000000 1.640120 
# 
# From -- ./inp_files/2018.got.cif
#   From: 2010.05.17/outbox.cif.g08.bks.cpg/sg127_2_cif.got.tgz:2018.got - 2010.05.20 12:03:00.
