data_PCOD9564085
_publ_section_title
;
Structure prediction by ZEFSAII (Michael W. Deem and Ramdas Pophale) SiO2 
 PCOD9564085
Probable space group: P 4/M B M
;
_chemical_formula_sum "Si O2"
_cell_formula_units_Z 96
_cell_length_a 23.683453
_cell_length_b 23.683453
_cell_length_c 7.550926
_cell_angle_alpha 90.000000
_cell_angle_beta 90.000000
_cell_angle_gamma 90.000000
_cell_volume 4235.359291
_symmetry_space_group_name_H-M "P 4/M B M"
_symmetry_group_IT_number 127
_symmetry_cell_setting 'tetragonal'
loop_
_space_group_symop_operation_xyz
x,y,z
-y,x,z
-x,-y,z
y,-x,z
1/2+x,1/2-y,-z
1/2-x,1/2+y,-z
1/2+y,1/2+x,-z
1/2-y,1/2-x,-z
-x,-y,-z
y,-x,-z
x,y,-z
-y,x,-z
1/2-x,1/2+y,z
1/2+x,1/2-y,z
1/2-y,1/2-x,z
1/2+y,1/2+x,z
loop_
_atom_site_type_symbol
_atom_site_label
_atom_site_fract_x
_atom_site_fract_y
_atom_site_fract_z
Si Si1 0.007739 0.279908 0.290282
Si Si2 0.634056 0.220297 0.711534
Si Si3 0.886384 0.124546 0.218386
Si Si4 0.995727 0.842892 0.204757
Si Si5 0.090547 0.498812 0.212883
Si Si6 0.275805 0.688179 0.798763
O O1 0.007634 0.271355 0.500000
O O2 0.071615 0.277083 0.220273
O O3 0.983295 0.222200 0.213459
O O4 0.989824 0.344428 0.260718
O O5 0.635716 0.231910 0.500000
O O6 0.658129 0.158129 0.737659
O O7 0.676779 0.262824 0.801960
O O8 0.853345 0.067653 0.277696
O O9 0.860309 0.184541 0.283157
O O10 0.951582 0.121424 0.275696
O O11 0.883380 0.127576 0.000000
O O12 0.990417 0.858744 0.000000
O O13 0.049824 0.549824 0.271670
O O14 0.059164 0.440837 0.275462
O O15 0.089034 0.497184 0.000000
O O16 0.220083 0.720083 0.720749
O O17 0.260490 0.671883 0.000000
#
# Coordination Sequence:
#
# PCOD9564085 Si02
#       6
#    16  16  16  16  16  16
#     4  11  21  33  51  79 111 146 182 220 271 328
#     4   9  17  28  44  70 102 132 163 202 250 304
#     4   9  18  33  54  79 104 135 180 233 283 333
#     4  10  20  36  56  77 105 139 182 234 287 341
#     4   9  19  36  57  82 113 150 191 231 270 316
#     4   9  16  28  48  74 102 130 163 205 258 319
#
# _framework density 22.666319000000001
#
# number of rings (size 3 to 8) (size 9 to 14) (size 15 to 20)
#    0.000    2.500    1.667    1.500    0.000    2.333 
#    0.000    6.667    0.000    3.000    0.000    1.167 
#    0.000    0.000    0.000    0.000    0.000    0.000 
#
# Total GULP energy -534473.596354 kJ/mol
# GULP energy per Si atom -5567.433295 kJ/mol
# Density = 2.261473 g / cm^3
# Si number density = 22.666319 Si / 1000 Ang^3
#
#
#
# Elastic Constant Matrix: (Units=GPa)
#
#
# Indices 1 2 3 4 5 6 
#
# 1 84.6595 54.8464 -3.2717 0.0000 0.0000 0.0000
# 2 54.8464 84.6595 -3.2717 0.0000 0.0000 0.0000
# 3 -3.2717 -3.2717 51.4356 0.0000 0.0000 0.0000
# 4 0.0000 0.0000 0.0000 22.5903 0.0000 0.0000
# 5 0.0000 0.0000 0.0000 0.0000 22.5903 0.0000
# 6 0.0000 0.0000 0.0000 0.0000 0.0000 30.4882
#
#
#
# Elastic Compliance Matrix: (Units=1/GPa)
#
#
# Indices 1 2 3 4 5 6 
#
# 1 0.020366 -0.013176 0.000457 0.000000 0.000000 0.000000
# 2 -0.013176 0.020366 0.000457 0.000000 0.000000 0.000000
# 3 0.000457 0.000457 0.019500 0.000000 0.000000 0.000000
# 4 0.000000 0.000000 0.000000 0.044267 0.000000 0.000000
# 5 0.000000 0.000000 0.000000 0.000000 0.044267 0.000000
# 6 0.000000 0.000000 0.000000 0.000000 0.000000 0.032800
#
#
# Mechanical properties :
#
#
# Convention : Reuss Voigt Hill
#
# Bulk Modulus (GPa) = 28.00463 35.26232 31.63348
# Shear Modulus (GPa) = 22.93669 26.63053 24.78361
#
# Velocity S-wave (km/s) = 3.18453 3.43139 3.31026
# Velocity P-wave (km/s) = 5.08956 5.59376 5.34761
#
# Compressibility (1/GPa) = 0.03570838
#
# Stress axis : x y z
#
# Youngs Moduli (GPa) = 49.10151 49.10151 51.28219
#
# Poissons Ratio (x) = 0.64698 -0.02345
# Poissons Ratio (y) = 0.64698 -0.02345
# Poissons Ratio (z) = -0.02245 -0.02245
#
# Static dielectric constant tensor:
#      x y z
#    x 1.890970 0.000000 0.000000 
#    y 0.000000 1.890970 0.000000 
#    z 0.000000 0.000000 1.818470 
# 
# From -- ./inp_files/1982.got.cif
#   From: 2010.05.17/outbox.cif.g08.bks.cpg/sg127_1_cif.got.tgz:1982.got - 2010.05.20 12:03:00.
