data_PCOD9564001
_publ_section_title
;
Structure prediction by ZEFSAII (Michael W. Deem and Ramdas Pophale) SiO2 
 PCOD9564001
Probable space group: P 4/M B M
;
_chemical_formula_sum "Si O2"
_cell_formula_units_Z 96
_cell_length_a 23.558847
_cell_length_b 23.558847
_cell_length_c 7.355895
_cell_angle_alpha 90.000000
_cell_angle_beta 90.000000
_cell_angle_gamma 90.000000
_cell_volume 4082.663488
_symmetry_space_group_name_H-M "P 4/M B M"
_symmetry_group_IT_number 127
_symmetry_cell_setting 'tetragonal'
loop_
_space_group_symop_operation_xyz
x,y,z
-y,x,z
-x,-y,z
y,-x,z
1/2+x,1/2-y,-z
1/2-x,1/2+y,-z
1/2+y,1/2+x,-z
1/2-y,1/2-x,-z
-x,-y,-z
y,-x,-z
x,y,-z
-y,x,-z
1/2-x,1/2+y,z
1/2+x,1/2-y,z
1/2-y,1/2-x,z
1/2+y,1/2+x,z
loop_
_atom_site_type_symbol
_atom_site_label
_atom_site_fract_x
_atom_site_fract_y
_atom_site_fract_z
Si Si1 0.886442 0.289099 0.206404
Si Si2 0.414557 0.829278 0.287030
Si Si3 0.476047 0.588836 0.721721
Si Si4 0.970587 0.380104 0.220039
Si Si5 0.203742 0.203279 0.778678
Si Si6 0.292348 0.428735 0.291095
O O1 0.836993 0.336993 0.196475
O O2 0.938349 0.323439 0.289576
O O3 0.853988 0.235534 0.286199
O O4 0.902707 0.273729 0.000000
O O5 0.403428 0.818549 0.500000
O O6 0.357613 0.857613 0.209018
O O7 0.464808 0.874495 0.272829
O O8 0.436561 0.770060 0.206761
O O9 0.432268 0.538812 0.775976
O O10 0.474951 0.589591 0.500000
O O11 0.457410 0.651057 0.786733
O O12 0.935001 0.435001 0.279904
O O13 0.967345 0.379359 0.000000
O O14 0.242430 0.257571 0.723703
O O15 0.139553 0.202532 0.714059
O O16 0.203949 0.202925 0.000000
O O17 0.289856 0.448907 0.500000
#
# Coordination Sequence:
#
# PCOD9564001 Si02
#       6
#    16  16  16  16  16  16
#     4   7  12  26  47  70  96 123 152 195 251 298
#     4  10  22  37  49  67 102 140 167 202 256 305
#     4   8  15  30  52  77 104 132 162 199 246 299
#     4   9  18  34  56  78  98 125 167 215 254 293
#     4   9  17  30  49  72 100 136 173 206 248 304
#     4  10  20  33  51  75 101 131 169 210 248 290
#
# _framework density 23.514061999999999
#
# number of rings (size 3 to 8) (size 9 to 14) (size 15 to 20)
#    0.000    3.167    0.000    3.000    0.000    4.000 
#    0.000    4.167    0.000    4.000    0.000    1.167 
#    0.000    0.000    0.000    0.000    0.000    0.000 
#
# Total GULP energy -535475.983099 kJ/mol
# GULP energy per Si atom -5577.874824 kJ/mol
# Density = 2.346054 g / cm^3
# Si number density = 23.514062 Si / 1000 Ang^3
#
#
#
# Elastic Constant Matrix: (Units=GPa)
#
#
# Indices 1 2 3 4 5 6 
#
# 1 123.7954 74.9358 0.0200 0.0000 0.0000 0.0000
# 2 74.9358 123.7954 0.0200 0.0000 0.0000 0.0000
# 3 0.0200 0.0200 92.7607 0.0000 0.0000 0.0000
# 4 0.0000 0.0000 0.0000 -1.5941 0.0000 0.0000
# 5 0.0000 0.0000 0.0000 0.0000 -1.5941 0.0000
# 6 0.0000 0.0000 0.0000 0.0000 0.0000 35.9763
#
#
#
# Elastic Compliance Matrix: (Units=1/GPa)
#
#
# Indices 1 2 3 4 5 6 
#
# 1 0.012749 -0.007717 -0.000001 0.000000 0.000000 0.000000
# 2 -0.007717 0.012749 -0.000001 0.000000 0.000000 0.000000
# 3 -0.000001 -0.000001 0.010780 0.000000 0.000000 0.000000
# 4 0.000000 0.000000 0.000000 -0.627309 0.000000 0.000000
# 5 0.000000 0.000000 0.000000 0.000000 -0.627309 0.000000
# 6 0.000000 0.000000 0.000000 0.000000 0.000000 0.027796
#
#
# Mechanical properties :
#
#
# Convention : Reuss Voigt Hill
#
# Bulk Modulus (GPa) = 47.98481 54.47813 51.23147
# Shear Modulus (GPa) = -4.28025 24.24932 9.98453
#
# Velocity S-wave (km/s) = -1.35065 3.21482 2.06287
# Velocity P-wave (km/s) = 4.24486 6.08266 5.24488
#
# Compressibility (1/GPa) = 0.02083993
#
# Stress axis : x y z
#
# Youngs Moduli (GPa) = 78.43517 78.43517 92.76072
#
# Poissons Ratio (x) = 0.60532 0.00010
# Poissons Ratio (y) = 0.60532 0.00010
# Poissons Ratio (z) = 0.00009 0.00009
#
# Static dielectric constant tensor:
#      x y z
#    x 1.898500 0.000000 0.000000 
#    y 0.000000 1.898500 0.000000 
#    z 0.000000 0.000000 1.859070 
# 
# From -- ./inp_files/1958.got.cif
#   From: 2010.05.17/outbox.cif.g08.bks.cpg/sg127_1_cif.got.tgz:1958.got - 2010.05.20 12:03:00.
