data_PCOD9564751
_publ_section_title
;
Structure prediction by ZEFSAII (Michael W. Deem and Ramdas Pophale) SiO2 
 PCOD9564751
Probable space group: P 4/M N C
;
_chemical_formula_sum "Si O2"
_cell_formula_units_Z 104
_cell_length_a 18.775109
_cell_length_b 18.775109
_cell_length_c 16.744142
_cell_angle_alpha 90.000000
_cell_angle_beta 90.000000
_cell_angle_gamma 90.000000
_cell_volume 5902.389053
_symmetry_space_group_name_H-M "P 4/M N C"
_symmetry_group_IT_number 128
_symmetry_cell_setting 'tetragonal'
loop_
_space_group_symop_operation_xyz
x,y,z
-y,x,z
-x,-y,z
y,-x,z
1/2+x,1/2-y,1/2-z
1/2-x,1/2+y,1/2-z
1/2+y,1/2+x,1/2-z
1/2-y,1/2-x,1/2-z
-x,-y,-z
y,-x,-z
x,y,-z
-y,x,-z
1/2-x,1/2+y,1/2+z
1/2+x,1/2-y,1/2+z
1/2-y,1/2-x,1/2+z
1/2+y,1/2+x,1/2+z
loop_
_atom_site_type_symbol
_atom_site_label
_atom_site_fract_x
_atom_site_fract_y
_atom_site_fract_z
Si Si1 0.719841 0.600572 0.626340
Si Si2 0.871027 0.525853 0.407146
Si Si3 0.233828 0.740230 0.410250
Si Si4 0.529323 0.158077 0.095697
Si Si5 0.387471 0.459749 0.500000
Si Si6 0.872840 0.370005 0.657347
Si Si7 0.863568 0.742768 0.294516
O O1 0.796536 0.566449 0.606003
O O2 0.721726 0.682688 0.598318
O O3 0.660194 0.559198 0.577079
O O4 0.712656 0.602811 0.722178
O O5 0.876969 0.505110 0.500000
O O6 0.934488 0.580830 0.389662
O O7 0.872400 0.454480 0.356627
O O8 0.220943 0.766328 0.500000
O O9 0.186887 0.671173 0.392714
O O10 0.219183 0.801362 0.344788
O O11 0.449699 0.157906 0.129081
O O12 0.578505 0.213016 0.144068
O O13 0.530870 0.170188 0.000000
O O14 0.458519 0.411920 0.500000
O O15 0.857489 0.357489 0.750000
O O16 0.823602 0.676399 0.250000
#
# Coordination Sequence:
#
# PCOD9564751 Si02
#       7
#    16  16  16  16   8  16  16
#     4  11  21  38  61  88 113 157 201 242 298 370
#     4  11  21  36  58  82 114 164 203 233 297 366
#     4  11  21  39  59  83 115 156 204 250 298 358
#     4  11  22  39  56  84 122 163 203 245 297 363
#     4  11  26  44  64  94 123 155 201 263 311 365
#     4  12  26  36  54  86 123 157 197 256 301 351
#     4  10  20  36  62  86 112 152 201 246 294 361
#
# _framework density 17.619983999999999
#
# number of rings (size 3 to 8) (size 9 to 14) (size 15 to 20)
#    0.000    1.000    4.615    4.615    2.154    1.846 
#    2.769    0.000    0.000    0.000    0.000    0.000 
#    0.000    0.000    0.000    6.308    0.000    0.000 
#
# Total GULP energy -581064.600083 kJ/mol
# GULP energy per Si atom -5587.159616 kJ/mol
# Density = 1.757988 g / cm^3
# Si number density = 17.619984 Si / 1000 Ang^3
#
#
#
# Elastic Constant Matrix: (Units=GPa)
#
#
# Indices 1 2 3 4 5 6 
#
# 1 36.4475 19.9446 21.4689 0.0000 0.0000 0.0000
# 2 19.9446 36.4476 21.4684 0.0000 0.0000 0.0000
# 3 21.4689 21.4684 104.9452 0.0000 0.0000 0.0000
# 4 0.0000 0.0000 0.0000 23.7604 0.0000 0.0000
# 5 0.0000 0.0000 0.0000 0.0000 23.7597 0.0000
# 6 0.0000 0.0000 0.0000 0.0000 0.0000 20.7640
#
#
#
# Elastic Compliance Matrix: (Units=1/GPa)
#
#
# Indices 1 2 3 4 5 6 
#
# 1 0.040800 -0.019795 -0.004297 0.000000 0.000000 0.000000
# 2 -0.019795 0.040800 -0.004297 0.000000 0.000000 0.000000
# 3 -0.004297 -0.004297 0.011287 0.000000 0.000000 0.000000
# 4 0.000000 0.000000 0.000000 0.042087 0.000000 0.000000
# 5 0.000000 0.000000 0.000000 0.000000 0.042088 0.000000
# 6 0.000000 0.000000 0.000000 0.000000 0.000000 0.048160
#
#
# Mechanical properties :
#
#
# Convention : Reuss Voigt Hill
#
# Bulk Modulus (GPa) = 27.69436 33.73380 30.71408
# Shear Modulus (GPa) = 17.00471 21.32071 19.16271
#
# Velocity S-wave (km/s) = 3.10995 3.48232 3.30139
# Velocity P-wave (km/s) = 5.35233 5.94605 5.65698
#
# Compressibility (1/GPa) = 0.03610844
#
# Stress axis : x y z
#
# Youngs Moduli (GPa) = 24.50973 24.50997 88.59883
#
# Poissons Ratio (x) = 0.48518 0.38072
# Poissons Ratio (y) = 0.48518 0.38069
# Poissons Ratio (z) = 0.10532 0.10531
#
# Static dielectric constant tensor:
#      x y z
#    x 1.582190 0.000000 0.000000 
#    y 0.000000 1.582190 0.000000 
#    z 0.000000 0.000000 1.621250 
# 
# From -- ./inp_files/4871.got.cif
#   From: 2010.05.17/outbox.cif.g08.bks.cpg/sg128_3_cif.got.tgz:4871.got - 2010.05.20 12:07:25.
