data_PCOD9564388
_publ_section_title
;
Structure prediction by ZEFSAII (Michael W. Deem and Ramdas Pophale) SiO2 
 PCOD9564388
Probable space group: P 4/M B M
;
_chemical_formula_sum "Si O2"
_cell_formula_units_Z 112
_cell_length_a 14.602151
_cell_length_b 14.602151
_cell_length_c 30.290036
_cell_angle_alpha 90.000000
_cell_angle_beta 90.000000
_cell_angle_gamma 90.000000
_cell_volume 6458.526707
_symmetry_space_group_name_H-M "P 4/M B M"
_symmetry_group_IT_number 127
_symmetry_cell_setting 'tetragonal'
loop_
_space_group_symop_operation_xyz
x,y,z
-y,x,z
-x,-y,z
y,-x,z
1/2+x,1/2-y,-z
1/2-x,1/2+y,-z
1/2+y,1/2+x,-z
1/2-y,1/2-x,-z
-x,-y,-z
y,-x,-z
x,y,-z
-y,x,-z
1/2-x,1/2+y,z
1/2+x,1/2-y,z
1/2-y,1/2-x,z
1/2+y,1/2+x,z
loop_
_atom_site_type_symbol
_atom_site_label
_atom_site_fract_x
_atom_site_fract_y
_atom_site_fract_z
Si Si1 0.078461 0.421540 0.759842
Si Si2 0.825258 0.826193 0.948093
Si Si3 0.282948 0.062077 0.273313
Si Si4 0.853708 0.954728 0.193822
Si Si5 0.350155 0.541368 0.547439
Si Si6 0.734644 0.496999 0.100967
Si Si7 0.422387 0.922387 0.862021
Si Si8 0.649866 0.459039 0.644599
O O1 0.162538 0.467324 0.734574
O O2 0.101288 0.398713 0.810829
O O3 0.000000 0.500000 0.761986
O O4 0.763383 0.736618 0.939519
O O5 0.918119 0.821021 0.919766
O O6 0.767294 0.914814 0.933935
O O7 0.846929 0.829284 0.000000
O O8 0.356598 0.143403 0.276020
O O9 0.220169 0.072466 0.230146
O O10 0.220090 0.058437 0.316350
O O11 0.941522 0.889939 0.199519
O O12 0.810557 0.955449 0.145190
O O13 0.392416 0.438956 0.547307
O O14 0.301608 0.554849 0.500000
O O15 0.306624 0.553192 0.595627
O O16 0.833479 0.536467 0.114205
O O17 0.500000 0.000000 0.861331
O O18 0.607811 0.561618 0.648008
#
# Coordination Sequence:
#
# PCOD9564388 Si02
#       8
#     8  16  16  16  16  16   8  16
#     4   9  20  36  54  73 105 141 176 228 270 305
#     4  11  25  43  63  91 124 152 187 232 278 334
#     4  11  22  37  53  77 108 146 188 224 269 325
#     4  11  23  40  59  83 115 142 177 224 276 329
#     4   7  10  19  41  72 101 133 176 221 270 328
#     4  12  22  41  66  91 116 152 188 229 283 336
#     4  11  22  40  65  92 117 150 192 237 282 336
#     4   9  17  32  51  75 111 146 176 225 283 324
#
# _framework density 17.341417
#
# number of rings (size 3 to 8) (size 9 to 14) (size 15 to 20)
#    0.000    1.857    3.571    3.000    0.000    2.000 
#    6.429    0.714    0.000    2.143    0.000    0.500 
#    0.000    1.714    0.000    0.000    0.000    0.000 
#
# Total GULP energy -624475.292109 kJ/mol
# GULP energy per Si atom -5575.672251 kJ/mol
# Density = 1.730195 g / cm^3
# Si number density = 17.341417 Si / 1000 Ang^3
#
#
#
# Elastic Constant Matrix: (Units=GPa)
#
#
# Indices 1 2 3 4 5 6 
#
# 1 50.2836 15.9996 37.4547 0.0000 0.0000 0.0000
# 2 15.9996 50.2836 37.4547 0.0000 0.0000 0.0000
# 3 37.4547 37.4547 133.6531 0.0000 0.0000 0.0000
# 4 0.0000 0.0000 0.0000 13.4235 0.0000 0.0000
# 5 0.0000 0.0000 0.0000 0.0000 13.4235 0.0000
# 6 0.0000 0.0000 0.0000 0.0000 0.0000 12.9051
#
#
#
# Elastic Compliance Matrix: (Units=1/GPa)
#
#
# Indices 1 2 3 4 5 6 
#
# 1 0.025624 -0.003544 -0.006188 0.000000 0.000000 0.000000
# 2 -0.003544 0.025624 -0.006188 0.000000 0.000000 0.000000
# 3 -0.006188 -0.006188 0.010950 0.000000 0.000000 0.000000
# 4 0.000000 0.000000 0.000000 0.074496 0.000000 0.000000
# 5 0.000000 0.000000 0.000000 0.000000 0.074496 0.000000
# 6 0.000000 0.000000 0.000000 0.000000 0.000000 0.077489
#
#
# Mechanical properties :
#
#
# Convention : Reuss Voigt Hill
#
# Bulk Modulus (GPa) = 32.93916 46.22648 39.58282
# Shear Modulus (GPa) = 15.12231 17.50450 16.31341
#
# Velocity S-wave (km/s) = 2.95623 3.18056 3.07044
# Velocity P-wave (km/s) = 5.53968 6.34054 5.95360
#
# Compressibility (1/GPa) = 0.03035900
#
# Stress axis : x y z
#
# Youngs Moduli (GPa) = 39.02612 39.02612 91.32396
#
# Poissons Ratio (x) = 0.13832 0.56507
# Poissons Ratio (y) = 0.13832 0.56507
# Poissons Ratio (z) = 0.24148 0.24148
#
# Static dielectric constant tensor:
#      x y z
#    x 1.577350 0.000000 0.000000 
#    y 0.000000 1.577350 0.000000 
#    z 0.000000 0.000000 1.611540 
# 
# From -- ./inp_files/6411.got.cif
#   From: 2010.05.17/outbox.cif.g08.bks.cpg/sg127_4_cif.got.tgz:6411.got - 2010.05.20 12:03:00.
