data_PCOD9564273
_publ_section_title
;
Structure prediction by ZEFSAII (Michael W. Deem and Ramdas Pophale) SiO2 
 PCOD9564273
Probable space group: P 4/M B M
;
_chemical_formula_sum "Si O2"
_cell_formula_units_Z 88
_cell_length_a 13.671036
_cell_length_b 13.671036
_cell_length_c 26.673742
_cell_angle_alpha 90.000000
_cell_angle_beta 90.000000
_cell_angle_gamma 90.000000
_cell_volume 4985.248369
_symmetry_space_group_name_H-M "P 4/M B M"
_symmetry_group_IT_number 127
_symmetry_cell_setting 'tetragonal'
loop_
_space_group_symop_operation_xyz
x,y,z
-y,x,z
-x,-y,z
y,-x,z
1/2+x,1/2-y,-z
1/2-x,1/2+y,-z
1/2+y,1/2+x,-z
1/2-y,1/2-x,-z
-x,-y,-z
y,-x,-z
x,y,-z
-y,x,-z
1/2-x,1/2+y,z
1/2+x,1/2-y,z
1/2-y,1/2-x,z
1/2+y,1/2+x,z
loop_
_atom_site_type_symbol
_atom_site_label
_atom_site_fract_x
_atom_site_fract_y
_atom_site_fract_z
Si Si1 0.895387 0.871658 0.444903
Si Si2 0.225708 0.882040 0.341285
Si Si3 0.664462 0.513281 0.000000
Si Si4 0.499485 0.163509 0.192082
Si Si5 0.256070 0.083170 0.703861
Si Si6 0.486905 0.666210 0.111095
O O1 0.864984 0.834250 0.500000
O O2 0.857639 0.816299 0.396118
O O3 0.013733 0.868503 0.442623
O O4 0.326772 0.826772 0.333611
O O5 0.150272 0.840220 0.299863
O O6 0.240471 0.995920 0.334512
O O7 0.585664 0.600705 0.000000
O O8 0.711967 0.517059 0.054777
O O9 0.595233 0.095233 0.199865
O O10 0.464557 0.216572 0.243078
O O11 0.516930 0.247513 0.151214
O O12 0.411445 0.088556 0.177787
O O13 0.344813 0.155188 0.689888
O O14 0.398724 0.586664 0.116000
#
# Coordination Sequence:
#
# PCOD9564273 Si02
#       6
#    16  16   8  16  16  16
#     4   9  17  32  54  79 109 141 173 221 279 321
#     4  11  21  35  59  83 106 145 186 222 269 317
#     4   7  12  28  52  77 110 142 172 221 274 319
#     4  10  22  39  55  74 108 150 182 219 275 326
#     4  10  23  39  55  81 111 141 182 224 269 325
#     4   9  18  33  56  85 110 139 182 227 273 320
#
# _framework density 17.652079000000001
#
# number of rings (size 3 to 8) (size 9 to 14) (size 15 to 20)
#    0.000    2.455    1.818    2.182    2.545    2.545 
#    0.000    0.909    0.000    4.909    0.000    1.273 
#    0.000    0.000    0.000    0.000    0.000    0.000 
#
# Total GULP energy -490119.825595 kJ/mol
# GULP energy per Si atom -5569.543473 kJ/mol
# Density = 1.761190 g / cm^3
# Si number density = 17.652079 Si / 1000 Ang^3
#
#
#
# Elastic Constant Matrix: (Units=GPa)
#
#
# Indices 1 2 3 4 5 6 
#
# 1 63.6271 11.5949 34.9975 0.0000 0.0000 0.0000
# 2 11.5949 63.6271 34.9975 0.0000 0.0000 0.0000
# 3 34.9975 34.9975 97.2975 0.0000 0.0000 0.0000
# 4 0.0000 0.0000 0.0000 5.9987 0.0000 0.0000
# 5 0.0000 0.0000 0.0000 0.0000 5.9987 0.0000
# 6 0.0000 0.0000 0.0000 0.0000 0.0000 6.8606
#
#
#
# Elastic Compliance Matrix: (Units=1/GPa)
#
#
# Indices 1 2 3 4 5 6 
#
# 1 0.019600 0.000382 -0.007187 0.000000 0.000000 0.000000
# 2 0.000382 0.019600 -0.007187 0.000000 0.000000 0.000000
# 3 -0.007187 -0.007187 0.015448 0.000000 0.000000 0.000000
# 4 0.000000 0.000000 0.000000 0.166702 0.000000 0.000000
# 5 0.000000 0.000000 0.000000 0.000000 0.166702 0.000000
# 6 0.000000 0.000000 0.000000 0.000000 0.000000 0.145760
#
#
# Mechanical properties :
#
#
# Convention : Reuss Voigt Hill
#
# Bulk Modulus (GPa) = 37.50577 43.08128 40.29352
# Shear Modulus (GPa) = 8.76136 13.30240 11.03188
#
# Velocity S-wave (km/s) = 2.23028 2.74813 2.50264
# Velocity P-wave (km/s) = 5.28446 5.87609 5.58811
#
# Compressibility (1/GPa) = 0.02666256
#
# Stress axis : x y z
#
# Youngs Moduli (GPa) = 51.01930 51.01930 64.73181
#
# Poissons Ratio (x) = -0.01947 0.46526
# Poissons Ratio (y) = -0.01947 0.46526
# Poissons Ratio (z) = 0.36670 0.36670
#
# Static dielectric constant tensor:
#      x y z
#    x 1.584160 0.000000 0.000000 
#    y 0.000000 1.584160 0.000000 
#    z 0.000000 0.000000 1.631040 
# 
# From -- ./inp_files/6066.got.cif
#   From: 2010.05.17/outbox.cif.g08.bks.cpg/sg127_4_cif.got.tgz:6066.got - 2010.05.20 12:03:00.
