data_PCOD9564031
_publ_section_title
;
Structure prediction by ZEFSAII (Michael W. Deem and Ramdas Pophale) SiO2 
 PCOD9564031
Probable space group: P 4/M B M
;
_chemical_formula_sum "Si O2"
_cell_formula_units_Z 112
_cell_length_a 15.978425
_cell_length_b 15.978425
_cell_length_c 23.935164
_cell_angle_alpha 90.000000
_cell_angle_beta 90.000000
_cell_angle_gamma 90.000000
_cell_volume 6110.888288
_symmetry_space_group_name_H-M "P 4/M B M"
_symmetry_group_IT_number 127
_symmetry_cell_setting 'tetragonal'
loop_
_space_group_symop_operation_xyz
x,y,z
-y,x,z
-x,-y,z
y,-x,z
1/2+x,1/2-y,-z
1/2-x,1/2+y,-z
1/2+y,1/2+x,-z
1/2-y,1/2-x,-z
-x,-y,-z
y,-x,-z
x,y,-z
-y,x,-z
1/2-x,1/2+y,z
1/2+x,1/2-y,z
1/2-y,1/2-x,z
1/2+y,1/2+x,z
loop_
_atom_site_type_symbol
_atom_site_label
_atom_site_fract_x
_atom_site_fract_y
_atom_site_fract_z
Si Si1 0.173423 0.535436 0.761193
Si Si2 0.312383 0.677188 0.244033
Si Si3 0.862198 0.495912 0.635034
Si Si4 0.404947 0.771092 0.852053
Si Si5 0.610115 0.251854 0.565593
Si Si6 0.085609 0.111487 0.653128
Si Si7 0.974139 0.863562 0.933469
O O1 0.088229 0.588229 0.767483
O O2 0.250037 0.600125 0.765574
O O3 0.173195 0.501139 0.697922
O O4 0.183120 0.466288 0.808396
O O5 0.255219 0.755219 0.263968
O O6 0.355036 0.705342 0.186793
O O7 0.379667 0.652243 0.290222
O O8 0.936797 0.563204 0.632362
O O9 0.794820 0.528217 0.590802
O O10 0.905190 0.405190 0.625764
O O11 0.338215 0.838215 0.874813
O O12 0.454232 0.718858 0.898410
O O13 0.600791 0.267836 0.500000
O O14 0.687830 0.187830 0.573490
O O15 0.621127 0.335278 0.601625
O O16 0.985096 0.112804 0.651474
O O17 0.064136 0.905426 0.920838
O O18 0.971262 0.848123 0.000000
#
# Coordination Sequence:
#
# PCOD9564031 Si02
#       7
#    16  16  16  16  16  16  16
#     4  10  20  34  53  79 111 143 174 211 261 323
#     4  10  20  34  54  79 107 138 175 221 266 309
#     4   9  17  31  53  78 103 134 172 215 265 317
#     4  11  21  32  52  82 114 146 179 218 266 321
#     4  10  21  37  56  76 100 132 172 220 270 320
#     4  11  23  37  54  76 104 138 173 211 261 323
#     4   9  19  37  59  80 105 143 191 239 282 320
#
# _framework density 18.327940000000002
#
# number of rings (size 3 to 8) (size 9 to 14) (size 15 to 20)
#    0.000    2.000    0.000    4.714    0.000    4.286 
#    0.000    4.286    0.000    1.286    0.000    1.000 
#    0.000    0.000    0.000    0.000    0.000    0.000 
#
# Total GULP energy -625512.416622 kJ/mol
# GULP energy per Si atom -5584.932291 kJ/mol
# Density = 1.828622 g / cm^3
# Si number density = 18.327940 Si / 1000 Ang^3
#
#
#
# Elastic Constant Matrix: (Units=GPa)
#
#
# Indices 1 2 3 4 5 6 
#
# 1 55.3507 4.3238 18.6618 0.0000 0.0000 0.0000
# 2 4.3238 55.3507 18.6618 0.0000 0.0000 0.0000
# 3 18.6618 18.6618 44.7170 0.0000 0.0000 0.0000
# 4 0.0000 0.0000 0.0000 20.3965 0.0000 0.0000
# 5 0.0000 0.0000 0.0000 0.0000 20.3965 0.0000
# 6 0.0000 0.0000 0.0000 0.0000 0.0000 14.8076
#
#
#
# Elastic Compliance Matrix: (Units=1/GPa)
#
#
# Indices 1 2 3 4 5 6 
#
# 1 0.021137 0.001540 -0.009464 0.000000 0.000000 0.000000
# 2 0.001540 0.021137 -0.009464 0.000000 0.000000 0.000000
# 3 -0.009464 -0.009464 0.030262 0.000000 0.000000 0.000000
# 4 0.000000 0.000000 0.000000 0.049028 0.000000 0.000000
# 5 0.000000 0.000000 0.000000 0.000000 0.049028 0.000000
# 6 0.000000 0.000000 0.000000 0.000000 0.000000 0.067533
#
#
# Mechanical properties :
#
#
# Convention : Reuss Voigt Hill
#
# Bulk Modulus (GPa) = 26.48276 26.52371 26.50324
# Shear Modulus (GPa) = 17.51389 18.70483 18.10936
#
# Velocity S-wave (km/s) = 3.09461 3.19809 3.14677
# Velocity P-wave (km/s) = 5.22011 5.30473 5.26259
#
# Compressibility (1/GPa) = 0.03776041
#
# Stress axis : x y z
#
# Youngs Moduli (GPa) = 47.31025 47.31025 33.04489
#
# Poissons Ratio (x) = -0.07284 0.31273
# Poissons Ratio (y) = -0.07284 0.31273
# Poissons Ratio (z) = 0.44773 0.44773
#
# Static dielectric constant tensor:
#      x y z
#    x 1.646150 0.000000 0.000000 
#    y 0.000000 1.646150 0.000000 
#    z 0.000000 0.000000 1.587680 
# 
# From -- ./inp_files/6177.got.cif
#   From: 2010.05.17/outbox.cif.g08.bks.cpg/sg127_4_cif.got.tgz:6177.got - 2010.05.20 12:03:00.
