data_PCOD9564730
_publ_section_title
;
Structure prediction by ZEFSAII (Michael W. Deem and Ramdas Pophale) SiO2 
 PCOD9564730
Probable space group: P 4/M N C
;
_chemical_formula_sum "Si O2"
_cell_formula_units_Z 116
_cell_length_a 18.736927
_cell_length_b 18.736927
_cell_length_c 18.432787
_cell_angle_alpha 90.000000
_cell_angle_beta 90.000000
_cell_angle_gamma 90.000000
_cell_volume 6471.243386
_symmetry_space_group_name_H-M "P 4/M N C"
_symmetry_group_IT_number 128
_symmetry_cell_setting 'tetragonal'
loop_
_space_group_symop_operation_xyz
x,y,z
-y,x,z
-x,-y,z
y,-x,z
1/2+x,1/2-y,1/2-z
1/2-x,1/2+y,1/2-z
1/2+y,1/2+x,1/2-z
1/2-y,1/2-x,1/2-z
-x,-y,-z
y,-x,-z
x,y,-z
-y,x,-z
1/2-x,1/2+y,1/2+z
1/2+x,1/2-y,1/2+z
1/2-y,1/2-x,1/2+z
1/2+y,1/2+x,1/2+z
loop_
_atom_site_type_symbol
_atom_site_label
_atom_site_fract_x
_atom_site_fract_y
_atom_site_fract_z
Si Si1 0.391487 0.608513 0.081610
Si Si2 0.731398 0.081763 0.630755
Si Si3 0.731397 0.918237 0.369245
Si Si4 0.000000 0.000000 0.355974
Si Si5 0.082506 0.797474 0.786521
Si Si6 0.277775 0.157775 0.916875
Si Si7 0.222225 0.342225 0.416875
Si Si8 0.917493 0.797474 0.786521
O O1 0.406678 0.691808 0.092821
O O2 0.308192 0.593322 0.092821
O O3 0.437901 0.562099 0.136451
O O4 0.412759 0.587241 0.000000
O O5 0.678050 0.141249 0.601612
O O6 0.747861 0.093564 0.716000
O O7 0.708685 0.000000 0.619454
O O8 0.747860 0.906436 0.283999
O O9 0.678050 0.858751 0.398388
O O10 0.103354 0.754645 0.858879
O O11 0.135616 0.864384 0.780910
O O12 1.000000 0.819680 0.787375
O O13 0.230113 0.230113 0.909474
O O14 0.271061 0.133643 0.000000
O O15 0.228939 0.366357 0.500000
O O16 0.254645 0.396646 0.358879
#
# Coordination Sequence:
#
# PCOD9564730 Si02
#       8
#    16  16  16   4  16  16  16  16
#     4  12  21  30  43  69 110 155 188 214 250 307
#     4  11  21  33  52  80 110 147 184 222 262 316
#     4  11  21  33  52  80 110 147 184 222 262 316
#     4  12  25  32  40  68 124 172 185 210 265 320
#     4  10  21  37  56  82 111 143 182 226 278 330
#     4  10  20  35  56  78 105 143 187 233 276 322
#     4  10  20  35  56  78 105 143 187 233 276 322
#     4  10  21  37  56  82 111 143 182 226 278 330
#
# _framework density 17.925457999999999
#
# number of rings (size 3 to 8) (size 9 to 14) (size 15 to 20)
#    0.000    1.379    4.138    2.276    0.000    4.690 
#    0.000    0.000    0.000    0.828    0.000    9.655 
#    0.000    0.000    0.000    0.000    0.000    0.000 
#
# Total GULP energy -647159.601742 kJ/mol
# GULP energy per Si atom -5578.962084 kJ/mol
# Density = 1.788466 g / cm^3
# Si number density = 17.925458 Si / 1000 Ang^3
#
#
#
# Elastic Constant Matrix: (Units=GPa)
#
#
# Indices 1 2 3 4 5 6 
#
# 1 30.4358 -9.7016 12.4433 0.0000 0.0000 0.0000
# 2 -9.7016 30.4358 12.4433 0.0000 0.0000 0.0000
# 3 12.4433 12.4433 96.8116 0.0000 0.0000 0.0000
# 4 0.0000 0.0000 0.0000 -1.3685 0.0000 0.0000
# 5 0.0000 0.0000 0.0000 0.0000 -1.3685 0.0000
# 6 0.0000 0.0000 0.0000 0.0000 0.0000 16.4152
#
#
#
# Elastic Compliance Matrix: (Units=1/GPa)
#
#
# Indices 1 2 3 4 5 6 
#
# 1 0.040971 0.016056 -0.007330 0.000000 0.000000 0.000000
# 2 0.016056 0.040971 -0.007330 0.000000 0.000000 0.000000
# 3 -0.007330 -0.007330 0.012214 0.000000 0.000000 0.000000
# 4 0.000000 0.000000 0.000000 -0.730752 0.000000 0.000000
# 5 0.000000 0.000000 0.000000 0.000000 -0.730752 0.000000
# 6 0.000000 0.000000 0.000000 0.000000 0.000000 0.060919
#
#
# Mechanical properties :
#
#
# Convention : Reuss Voigt Hill
#
# Bulk Modulus (GPa) = 10.31474 20.89482 15.60478
# Shear Modulus (GPa) = -3.91571 12.23553 4.15991
#
# Velocity S-wave (km/s) = -1.47959 2.61545 1.52503
# Velocity P-wave (km/s) = 1.68755 4.56099 3.43878
#
# Compressibility (1/GPa) = 0.09694864
#
# Stress axis : x y z
#
# Youngs Moduli (GPa) = 24.40765 24.40765 81.87627
#
# Poissons Ratio (x) = -0.39190 0.60013
# Poissons Ratio (y) = -0.39190 0.60013
# Poissons Ratio (z) = 0.17890 0.17890
#
# Static dielectric constant tensor:
#      x y z
#    x 1.592740 0.000000 0.000000 
#    y 0.000000 1.592740 0.000000 
#    z 0.000000 0.000000 1.648940 
# 
# From -- ./inp_files/4938.got.cif
#   From: 2010.05.17/outbox.cif.g08.bks.cpg/sg128_3_cif.got.tgz:4938.got - 2010.05.20 12:07:25.
