data_PCOD9564761
_publ_section_title
;
Structure prediction by ZEFSAII (Michael W. Deem and Ramdas Pophale) SiO2 
 PCOD9564761
Probable space group: P 4/M N C
;
_chemical_formula_sum "Si O2"
_cell_formula_units_Z 64
_cell_length_a 14.981487
_cell_length_b 14.981487
_cell_length_c 13.581341
_cell_angle_alpha 90.000000
_cell_angle_beta 90.000000
_cell_angle_gamma 90.000000
_cell_volume 3048.263439
_symmetry_space_group_name_H-M "P 4/M N C"
_symmetry_group_IT_number 128
_symmetry_cell_setting 'tetragonal'
loop_
_space_group_symop_operation_xyz
x,y,z
-y,x,z
-x,-y,z
y,-x,z
1/2+x,1/2-y,1/2-z
1/2-x,1/2+y,1/2-z
1/2+y,1/2+x,1/2-z
1/2-y,1/2-x,1/2-z
-x,-y,-z
y,-x,-z
x,y,-z
-y,x,-z
1/2-x,1/2+y,1/2+z
1/2+x,1/2-y,1/2+z
1/2-y,1/2-x,1/2+z
1/2+y,1/2+x,1/2+z
loop_
_atom_site_type_symbol
_atom_site_label
_atom_site_fract_x
_atom_site_fract_y
_atom_site_fract_z
Si Si1 0.252461 0.872540 0.889255
Si Si2 0.597942 0.036096 0.390634
Si Si3 0.683767 0.324044 0.885570
Si Si4 0.492884 0.731371 0.790213
O O1 0.356920 0.899080 0.891634
O O2 0.259087 0.766477 0.862807
O O3 0.210129 0.941193 0.811431
O O4 0.215958 0.880162 0.000000
O O5 0.628954 0.005874 0.500000
O O6 0.662658 0.002667 0.305989
O O7 0.500000 0.000000 0.377703
O O8 0.579730 0.298860 0.871731
O O9 0.698267 0.408756 0.815208
O O10 0.701194 0.345921 0.000000
#
# Coordination Sequence:
#
# PCOD9564761 Si02
#       4
#    16  16  16  16
#     4   9  20  39  58  83 127 170 212 269 326 390
#     4   9  17  32  54  84 118 155 204 264 327 392
#     4  10  20  37  63  92 123 164 214 275 337 396
#     4  11  21  37  60  88 128 171 215 268 335 398
#
# _framework density 20.995560999999999
#
# number of rings (size 3 to 8) (size 9 to 14) (size 15 to 20)
#    0.000    2.250    0.000    6.750    0.000    2.500 
#    9.000    2.500    0.000    3.000    0.000    1.750 
#    0.000    0.000    0.000    0.000    0.000    0.000 
#
# Total GULP energy -356795.260431 kJ/mol
# GULP energy per Si atom -5574.925944 kJ/mol
# Density = 2.094777 g / cm^3
# Si number density = 20.995561 Si / 1000 Ang^3
#
#
#
# Elastic Constant Matrix: (Units=GPa)
#
#
# Indices 1 2 3 4 5 6 
#
# 1 76.0909 25.8800 53.2096 0.0000 0.0000 0.0000
# 2 25.8800 76.0909 53.2096 0.0000 0.0000 0.0000
# 3 53.2096 53.2096 144.9174 0.0000 0.0000 0.0000
# 4 0.0000 0.0000 0.0000 25.1293 0.0000 0.0000
# 5 0.0000 0.0000 0.0000 0.0000 25.1293 0.0000
# 6 0.0000 0.0000 0.0000 0.0000 0.0000 26.1072
#
#
#
# Elastic Compliance Matrix: (Units=1/GPa)
#
#
# Indices 1 2 3 4 5 6 
#
# 1 0.017908 -0.002008 -0.005838 0.000000 0.000000 0.000000
# 2 -0.002008 0.017908 -0.005838 0.000000 0.000000 0.000000
# 3 -0.005838 -0.005838 0.011187 0.000000 0.000000 0.000000
# 4 0.000000 0.000000 0.000000 0.039794 0.000000 0.000000
# 5 0.000000 0.000000 0.000000 0.000000 0.039794 0.000000
# 6 0.000000 0.000000 0.000000 0.000000 0.000000 0.038304
#
#
# Mechanical properties :
#
#
# Convention : Reuss Voigt Hill
#
# Bulk Modulus (GPa) = 50.93016 62.41084 56.67050
# Shear Modulus (GPa) = 25.15001 26.25982 25.70492
#
# Velocity S-wave (km/s) = 3.46478 3.54041 3.50280
# Velocity P-wave (km/s) = 6.34953 6.81930 6.58861
#
# Compressibility (1/GPa) = 0.01963473
#
# Stress axis : x y z
#
# Youngs Moduli (GPa) = 55.84245 55.84245 89.38659
#
# Poissons Ratio (x) = 0.11216 0.52181
# Poissons Ratio (y) = 0.11216 0.52181
# Poissons Ratio (z) = 0.32599 0.32599
#
# Static dielectric constant tensor:
#      x y z
#    x 1.769340 0.000000 0.000000 
#    y 0.000000 1.769340 0.000000 
#    z 0.000000 0.000000 1.865630 
# 
# From -- ./inp_files/3530.got.cif
#   From: 2010.05.17/outbox.cif.g08.bks.cpg/sg128_2_cif.got.tgz:3530.got - 2010.05.20 12:07:25.
