data_PCOD9564240
_publ_section_title
;
Structure prediction by ZEFSAII (Michael W. Deem and Ramdas Pophale) SiO2 
 PCOD9564240
Probable space group: P 4/M B M
;
_chemical_formula_sum "Si O2"
_cell_formula_units_Z 72
_cell_length_a 21.499158
_cell_length_b 21.499158
_cell_length_c 8.859916
_cell_angle_alpha 90.000000
_cell_angle_beta 90.000000
_cell_angle_gamma 90.000000
_cell_volume 4095.175395
_symmetry_space_group_name_H-M "P 4/M B M"
_symmetry_group_IT_number 127
_symmetry_cell_setting 'tetragonal'
loop_
_space_group_symop_operation_xyz
x,y,z
-y,x,z
-x,-y,z
y,-x,z
1/2+x,1/2-y,-z
1/2-x,1/2+y,-z
1/2+y,1/2+x,-z
1/2-y,1/2-x,-z
-x,-y,-z
y,-x,-z
x,y,-z
-y,x,-z
1/2-x,1/2+y,z
1/2+x,1/2-y,z
1/2-y,1/2-x,z
1/2+y,1/2+x,z
loop_
_atom_site_type_symbol
_atom_site_label
_atom_site_fract_x
_atom_site_fract_y
_atom_site_fract_z
Si Si1 0.181160 0.490947 0.679554
Si Si2 0.872724 0.269824 0.675628
Si Si3 0.551387 0.051387 0.180656
Si Si4 0.402567 0.354990 0.178253
Si Si5 0.821772 0.035051 0.318456
O O1 0.172998 0.481735 0.500000
O O2 0.191253 0.564561 0.706713
O O3 0.120036 0.466505 0.761420
O O4 0.248184 0.461485 0.722951
O O5 0.877812 0.248580 0.500000
O O6 0.813927 0.313927 0.690106
O O7 0.870614 0.210737 0.782790
O O8 0.500000 0.000000 0.232469
O O9 0.551161 0.051161 0.000000
O O10 0.361791 0.409274 0.251016
O O11 0.470358 0.348623 0.254437
O O12 0.408873 0.364162 0.000000
O O13 0.825175 0.034472 0.500000
#
# Coordination Sequence:
#
# PCOD9564240 Si02
#       5
#    16  16   8  16  16
#     4   9  19  36  58  80 105 142 188 233 271 315
#     4   9  18  35  58  82 108 145 190 229 269 326
#     4  11  23  35  51  81 117 151 185 225 283 342
#     4  11  22  36  57  86 116 144 179 229 286 335
#     4  10  21  40  61  81 109 147 189 229 275 332
#
# _framework density 17.581664
#
# number of rings (size 3 to 8) (size 9 to 14) (size 15 to 20)
#    0.000    2.111    0.000    5.000    0.000    7.111 
#    2.000    2.222    0.000    0.000    0.000    0.000 
#    0.000    0.000    0.000    0.000    0.000    0.000 
#
# Total GULP energy -401870.156221 kJ/mol
# GULP energy per Si atom -5581.529948 kJ/mol
# Density = 1.754165 g / cm^3
# Si number density = 17.581664 Si / 1000 Ang^3
#
#
#
# Elastic Constant Matrix: (Units=GPa)
#
#
# Indices 1 2 3 4 5 6 
#
# 1 106.5198 94.5891 62.1956 0.0000 0.0000 0.0000
# 2 94.5891 106.5198 62.1956 0.0000 0.0000 0.0000
# 3 62.1956 62.1956 90.4480 0.0000 0.0000 0.0000
# 4 0.0000 0.0000 0.0000 15.0677 0.0000 0.0000
# 5 0.0000 0.0000 0.0000 0.0000 15.0677 0.0000
# 6 0.0000 0.0000 0.0000 0.0000 0.0000 30.0410
#
#
#
# Elastic Compliance Matrix: (Units=1/GPa)
#
#
# Indices 1 2 3 4 5 6 
#
# 1 0.046235 -0.037582 -0.005950 0.000000 0.000000 0.000000
# 2 -0.037582 0.046235 -0.005950 0.000000 0.000000 0.000000
# 3 -0.005950 -0.005950 0.019239 0.000000 0.000000 0.000000
# 4 0.000000 0.000000 0.000000 0.066367 0.000000 0.000000
# 5 0.000000 0.000000 0.000000 0.000000 0.066367 0.000000
# 6 0.000000 0.000000 0.000000 0.000000 0.000000 0.033288
#
#
# Mechanical properties :
#
#
# Convention : Reuss Voigt Hill
#
# Bulk Modulus (GPa) = 78.46504 82.38310 80.42407
# Shear Modulus (GPa) = 13.12530 17.66908 15.39719
#
# Velocity S-wave (km/s) = 2.73524 3.17357 2.96252
# Velocity P-wave (km/s) = 7.39602 7.77096 7.58581
#
# Compressibility (1/GPa) = 0.01274453
#
# Stress axis : x y z
#
# Youngs Moduli (GPa) = 21.62864 21.62864 51.97841
#
# Poissons Ratio (x) = 0.81286 0.30926
# Poissons Ratio (y) = 0.81286 0.30926
# Poissons Ratio (z) = 0.12869 0.12869
#
# Static dielectric constant tensor:
#      x y z
#    x 1.583740 0.000000 0.000000 
#    y 0.000000 1.583740 0.000000 
#    z 0.000000 0.000000 1.595600 
# 
# From -- ./inp_files/1577.got.cif
#   From: 2010.05.17/outbox.cif.g08.bks.cpg/sg127_1_cif.got.tgz:1577.got - 2010.05.20 12:03:00.
