data_PCOD9564848
_publ_section_title
;
Structure prediction by ZEFSAII (Michael W. Deem and Ramdas Pophale) SiO2 
 PCOD9564848
Probable space group: P 4/M N C
;
_chemical_formula_sum "Si O2"
_cell_formula_units_Z 96
_cell_length_a 15.117160
_cell_length_b 15.117160
_cell_length_c 20.872861
_cell_angle_alpha 90.000000
_cell_angle_beta 90.000000
_cell_angle_gamma 90.000000
_cell_volume 4770.044167
_symmetry_space_group_name_H-M "P 4/M N C"
_symmetry_group_IT_number 128
_symmetry_cell_setting 'tetragonal'
loop_
_space_group_symop_operation_xyz
x,y,z
-y,x,z
-x,-y,z
y,-x,z
1/2+x,1/2-y,1/2-z
1/2-x,1/2+y,1/2-z
1/2+y,1/2+x,1/2-z
1/2-y,1/2-x,1/2-z
-x,-y,-z
y,-x,-z
x,y,-z
-y,x,-z
1/2-x,1/2+y,1/2+z
1/2+x,1/2-y,1/2+z
1/2-y,1/2-x,1/2+z
1/2+y,1/2+x,1/2+z
loop_
_atom_site_type_symbol
_atom_site_label
_atom_site_fract_x
_atom_site_fract_y
_atom_site_fract_z
Si Si1 0.786215 0.568727 0.232702
Si Si2 0.529315 0.746424 0.638660
Si Si3 0.788104 0.819266 0.570802
Si Si4 0.388075 0.156592 0.177962
Si Si5 0.355593 0.686191 0.427003
Si Si6 0.922636 0.875906 0.348344
O O1 0.856464 0.643537 0.250000
O O2 0.741893 0.518416 0.292782
O O3 0.836599 0.492213 0.192325
O O4 0.703414 0.609916 0.196049
O O5 0.571873 0.844751 0.642323
O O6 0.610176 0.680195 0.621422
O O7 0.451419 0.723551 0.589700
O O8 0.758256 0.847430 0.500000
O O9 0.734297 0.864058 0.628708
O O10 0.765162 0.715824 0.576318
O O11 0.889762 0.844496 0.582129
O O12 0.344017 0.155984 0.250000
O O13 0.353547 0.651095 0.500000
O O14 0.026865 0.884468 0.337823
#
# Coordination Sequence:
#
# PCOD9564848 Si02
#       6
#    16  16  16  16  16  16
#     4  11  23  41  68  96 131 171 221 270 340 409
#     4  10  22  36  62  91 128 174 216 276 335 403
#     4  10  21  40  65  91 128 178 225 272 337 408
#     4   9  20  40  64  94 129 169 219 278 333 402
#     4  10  21  39  63  93 129 176 226 276 343 411
#     4  11  24  41  63  94 131 166 213 277 331 395
#
# _framework density 20.125599999999999
#
# number of rings (size 3 to 8) (size 9 to 14) (size 15 to 20)
#    0.000    1.833    1.667    1.500    2.333    6.667 
#    0.000    1.667    0.000    1.000    0.000   11.667 
#    0.000    0.000    0.000    0.000    0.000    0.000 
#
# Total GULP energy -534686.746421 kJ/mol
# GULP energy per Si atom -5569.653609 kJ/mol
# Density = 2.007979 g / cm^3
# Si number density = 20.125600 Si / 1000 Ang^3
#
#
#
# Elastic Constant Matrix: (Units=GPa)
#
#
# Indices 1 2 3 4 5 6 
#
# 1 117.7227 54.8127 51.9032 0.0000 0.0000 0.0000
# 2 54.8127 117.7236 51.9037 0.0000 0.0000 0.0000
# 3 51.9032 51.9037 81.7975 0.0000 0.0000 0.0000
# 4 0.0000 0.0000 0.0000 22.5276 0.0000 0.0000
# 5 0.0000 0.0000 0.0000 0.0000 22.5279 0.0000
# 6 0.0000 0.0000 0.0000 0.0000 0.0000 21.7589
#
#
#
# Elastic Compliance Matrix: (Units=1/GPa)
#
#
# Indices 1 2 3 4 5 6 
#
# 1 0.012635 -0.003260 -0.005949 0.000000 0.000000 0.000000
# 2 -0.003260 0.012635 -0.005949 0.000000 0.000000 0.000000
# 3 -0.005949 -0.005949 0.019775 0.000000 0.000000 0.000000
# 4 0.000000 0.000000 0.000000 0.044390 0.000000 0.000000
# 5 0.000000 0.000000 0.000000 0.000000 0.044389 0.000000
# 6 0.000000 0.000000 0.000000 0.000000 0.000000 0.045958
#
#
# Mechanical properties :
#
#
# Convention : Reuss Voigt Hill
#
# Bulk Modulus (GPa) = 67.89032 70.49810 69.19421
# Shear Modulus (GPa) = 23.25490 23.93784 23.59637
#
# Velocity S-wave (km/s) = 3.40294 3.45254 3.42783
# Velocity P-wave (km/s) = 7.01759 7.14132 7.07973
#
# Compressibility (1/GPa) = 0.01472964
#
# Stress axis : x y z
#
# Youngs Moduli (GPa) = 79.14320 79.14339 50.56957
#
# Poissons Ratio (x) = 0.25803 0.30082
# Poissons Ratio (y) = 0.25803 0.30083
# Poissons Ratio (z) = 0.47080 0.47081
#
# Static dielectric constant tensor:
#      x y z
#    x 1.740960 0.000000 0.000000 
#    y 0.000000 1.740960 0.000000 
#    z 0.000000 0.000000 1.784340 
# 
# From -- ./inp_files/5765.got.cif
#   From: 2010.05.17/outbox.cif.g08.bks.cpg/sg128_3_cif.got.tgz:5765.got - 2010.05.20 12:07:25.
