data_PCOD9564035
_publ_section_title
;
Structure prediction by ZEFSAII (Michael W. Deem and Ramdas Pophale) SiO2 
 PCOD9564035
Probable space group: P 4/M B M
;
_chemical_formula_sum "Si O2"
_cell_formula_units_Z 72
_cell_length_a 19.996619
_cell_length_b 19.996619
_cell_length_c 7.749246
_cell_angle_alpha 90.000000
_cell_angle_beta 90.000000
_cell_angle_gamma 90.000000
_cell_volume 3098.650481
_symmetry_space_group_name_H-M "P 4/M B M"
_symmetry_group_IT_number 127
_symmetry_cell_setting 'tetragonal'
loop_
_space_group_symop_operation_xyz
x,y,z
-y,x,z
-x,-y,z
y,-x,z
1/2+x,1/2-y,-z
1/2-x,1/2+y,-z
1/2+y,1/2+x,-z
1/2-y,1/2-x,-z
-x,-y,-z
y,-x,-z
x,y,-z
-y,x,-z
1/2-x,1/2+y,z
1/2+x,1/2-y,z
1/2-y,1/2-x,z
1/2+y,1/2+x,z
loop_
_atom_site_type_symbol
_atom_site_label
_atom_site_fract_x
_atom_site_fract_y
_atom_site_fract_z
Si Si1 0.301600 0.006413 0.295538
Si Si2 0.398654 0.468189 0.210583
Si Si3 0.554741 0.945260 0.711309
Si Si4 0.248525 0.146611 0.792357
Si Si5 0.884813 0.776566 0.207050
O O1 0.303838 0.006454 0.500000
O O2 0.372590 0.032126 0.225576
O O3 0.250386 0.067449 0.247708
O O4 0.288956 0.928692 0.244989
O O5 0.458280 0.419155 0.264014
O O6 0.330599 0.438387 0.273356
O O7 0.396888 0.468591 0.000000
O O8 0.557381 0.942620 0.500000
O O9 0.500000 0.000000 0.758327
O O10 0.316019 0.183982 0.730746
O O11 0.186367 0.193713 0.730701
O O12 0.246569 0.149765 0.000000
O O13 0.879141 0.778318 0.000000
#
# Coordination Sequence:
#
# PCOD9564035 Si02
#       5
#    16  16   8  16  16
#     4  11  22  38  61  88 119 159 206 258 312 371
#     4   8  13  23  42  68  98 135 179 220 262 322
#     4   9  20  40  63  85 113 155 205 254 309 370
#     4  10  21  38  61  87 120 162 205 252 314 384
#     4  10  20  34  54  82 116 154 195 242 298 366
#
# _framework density 23.235923
#
# number of rings (size 3 to 8) (size 9 to 14) (size 15 to 20)
#    0.000    2.333    1.111    2.667    0.000    5.333 
#    0.000    0.000    0.000    4.667    0.000    4.667 
#    0.000    0.000    0.000    0.000    0.000    0.000 
#
# Total GULP energy -401218.978597 kJ/mol
# GULP energy per Si atom -5572.485814 kJ/mol
# Density = 2.318304 g / cm^3
# Si number density = 23.235923 Si / 1000 Ang^3
#
#
#
# Elastic Constant Matrix: (Units=GPa)
#
#
# Indices 1 2 3 4 5 6 
#
# 1 71.0463 50.3754 1.7904 0.0000 0.0000 0.0000
# 2 50.3754 71.0469 1.7905 0.0000 0.0000 0.0000
# 3 1.7904 1.7905 38.9149 0.0000 0.0000 0.0000
# 4 0.0000 0.0000 0.0000 13.2754 0.0000 0.0000
# 5 0.0000 0.0000 0.0000 0.0000 13.2759 0.0000
# 6 0.0000 0.0000 0.0000 0.0000 0.0000 21.8228
#
#
#
# Elastic Compliance Matrix: (Units=1/GPa)
#
#
# Indices 1 2 3 4 5 6 
#
# 1 0.028312 -0.020065 -0.000379 0.000000 0.000000 0.000000
# 2 -0.020065 0.028312 -0.000379 0.000000 0.000000 0.000000
# 3 -0.000379 -0.000379 0.025732 0.000000 0.000000 0.000000
# 4 0.000000 0.000000 0.000000 0.075327 0.000000 0.000000
# 5 0.000000 0.000000 0.000000 0.000000 0.075325 0.000000
# 6 0.000000 0.000000 0.000000 0.000000 0.000000 0.045824
#
#
# Mechanical properties :
#
#
# Convention : Reuss Voigt Hill
#
# Bulk Modulus (GPa) = 24.56512 32.10230 28.33371
# Shear Modulus (GPa) = 14.96793 18.14493 16.55643
#
# Velocity S-wave (km/s) = 2.54081 2.79749 2.67223
# Velocity P-wave (km/s) = 4.38208 4.92751 4.66278
#
# Compressibility (1/GPa) = 0.04070812
#
# Stress axis : x y z
#
# Youngs Moduli (GPa) = 35.32095 35.32122 38.86209
#
# Poissons Ratio (x) = 0.70871 0.01474
# Poissons Ratio (y) = 0.70871 0.01475
# Poissons Ratio (z) = 0.01340 0.01340
#
# Static dielectric constant tensor:
#      x y z
#    x 1.933190 0.000000 0.000000 
#    y 0.000000 1.933190 0.000000 
#    z 0.000000 0.000000 1.882860 
# 
# From -- ./inp_files/1549.got.cif
#   From: 2010.05.17/outbox.cif.g08.bks.cpg/sg127_1_cif.got.tgz:1549.got - 2010.05.20 12:03:00.
