data_PCOD9564207
_publ_section_title
;
Structure prediction by ZEFSAII (Michael W. Deem and Ramdas Pophale) SiO2 
 PCOD9564207
Probable space group: P 4/M B M
;
_chemical_formula_sum "Si O2"
_cell_formula_units_Z 64
_cell_length_a 12.333322
_cell_length_b 12.333322
_cell_length_c 19.588998
_cell_angle_alpha 90.000000
_cell_angle_beta 90.000000
_cell_angle_gamma 90.000000
_cell_volume 2979.698775
_symmetry_space_group_name_H-M "P 4/M B M"
_symmetry_group_IT_number 127
_symmetry_cell_setting 'tetragonal'
loop_
_space_group_symop_operation_xyz
x,y,z
-y,x,z
-x,-y,z
y,-x,z
1/2+x,1/2-y,-z
1/2-x,1/2+y,-z
1/2+y,1/2+x,-z
1/2-y,1/2-x,-z
-x,-y,-z
y,-x,-z
x,y,-z
-y,x,-z
1/2-x,1/2+y,z
1/2+x,1/2-y,z
1/2-y,1/2-x,z
1/2+y,1/2+x,z
loop_
_atom_site_type_symbol
_atom_site_label
_atom_site_fract_x
_atom_site_fract_y
_atom_site_fract_z
Si Si1 0.477137 0.318578 0.077412
Si Si2 0.493521 0.178565 0.209236
Si Si3 0.920293 0.236537 0.577619
Si Si4 0.399086 0.722612 0.668741
O O1 0.590741 0.383452 0.084456
O O2 0.469946 0.230318 0.136146
O O3 0.471529 0.275055 0.000000
O O4 0.388149 0.111852 0.234316
O O5 0.531920 0.271480 0.261851
O O6 0.590260 0.090260 0.204382
O O7 0.936562 0.199424 0.500000
O O8 0.826231 0.326231 0.576731
O O9 0.883899 0.141515 0.629549
O O10 0.028522 0.282376 0.611406
O O11 0.292518 0.792518 0.683777
#
# Coordination Sequence:
#
# PCOD9564207 Si02
#       4
#    16  16  16  16
#     4   9  20  39  61  87 121 158 196 238 286 345
#     4  10  22  38  58  86 118 155 199 242 288 348
#     4  10  21  37  59  85 112 149 196 241 288 348
#     4  10  22  39  57  82 119 154 188 241 296 346
#
# _framework density 21.478680000000001
#
# number of rings (size 3 to 8) (size 9 to 14) (size 15 to 20)
#    0.000    2.250    0.000    2.250    3.500    5.500 
#    0.000    6.250    0.000    0.000    0.000    0.000 
#    0.000    0.000    0.000    0.000    0.000    0.000 
#
# Total GULP energy -357049.377839 kJ/mol
# GULP energy per Si atom -5578.896529 kJ/mol
# Density = 2.142979 g / cm^3
# Si number density = 21.478680 Si / 1000 Ang^3
#
#
#
# Elastic Constant Matrix: (Units=GPa)
#
#
# Indices 1 2 3 4 5 6 
#
# 1 42.3588 -10.6537 21.5185 0.0000 0.0000 0.0000
# 2 -10.6537 42.3588 21.5185 0.0000 0.0000 0.0000
# 3 21.5185 21.5185 106.9070 0.0000 0.0000 0.0000
# 4 0.0000 0.0000 0.0000 29.3365 0.0000 0.0000
# 5 0.0000 0.0000 0.0000 0.0000 29.3365 0.0000
# 6 0.0000 0.0000 0.0000 0.0000 0.0000 -3.3229
#
#
#
# Elastic Compliance Matrix: (Units=1/GPa)
#
#
# Indices 1 2 3 4 5 6 
#
# 1 0.031131 0.012267 -0.008735 0.000000 0.000000 0.000000
# 2 0.012267 0.031131 -0.008735 0.000000 0.000000 0.000000
# 3 -0.008735 -0.008735 0.012870 0.000000 0.000000 0.000000
# 4 0.000000 0.000000 0.000000 0.034087 0.000000 0.000000
# 5 0.000000 0.000000 0.000000 0.000000 0.034087 0.000000
# 6 0.000000 0.000000 0.000000 0.000000 0.000000 -0.300946
#
#
# Mechanical properties :
#
#
# Convention : Reuss Voigt Hill
#
# Bulk Modulus (GPa) = 15.44986 28.48793 21.96890
# Shear Modulus (GPa) = -39.79076 21.68609 -9.05234
#
# Velocity S-wave (km/s) = -4.30882 3.18096 -2.05517
# Velocity P-wave (km/s) = 4.18877 5.17527 2.14914
#
# Compressibility (1/GPa) = 0.06472551
#
# Stress axis : x y z
#
# Youngs Moduli (GPa) = 32.12253 32.12253 77.69734
#
# Poissons Ratio (x) = -0.39406 0.67871
# Poissons Ratio (y) = -0.39406 0.67871
# Poissons Ratio (z) = 0.28060 0.28060
#
# Static dielectric constant tensor:
#      x y z
#    x 1.820390 0.000000 0.000000 
#    y 0.000000 1.820390 0.000000 
#    z 0.000000 0.000000 1.758140 
# 
# From -- ./inp_files/4085.got.cif
#   From: 2010.05.17/outbox.cif.g08.bks.cpg/sg127_3_cif.got.tgz:4085.got - 2010.05.20 12:03:00.
