data_PCOD9564270
_publ_section_title
;
Structure prediction by ZEFSAII (Michael W. Deem and Ramdas Pophale) SiO2 
 PCOD9564270
Probable space group: P 4/M B M
;
_chemical_formula_sum "Si O2"
_cell_formula_units_Z 96
_cell_length_a 14.157032
_cell_length_b 14.157032
_cell_length_c 29.088470
_cell_angle_alpha 90.000000
_cell_angle_beta 90.000000
_cell_angle_gamma 90.000000
_cell_volume 5829.956391
_symmetry_space_group_name_H-M "P 4/M B M"
_symmetry_group_IT_number 127
_symmetry_cell_setting 'tetragonal'
loop_
_space_group_symop_operation_xyz
x,y,z
-y,x,z
-x,-y,z
y,-x,z
1/2+x,1/2-y,-z
1/2-x,1/2+y,-z
1/2+y,1/2+x,-z
1/2-y,1/2-x,-z
-x,-y,-z
y,-x,-z
x,y,-z
-y,x,-z
1/2-x,1/2+y,z
1/2+x,1/2-y,z
1/2-y,1/2-x,z
1/2+y,1/2+x,z
loop_
_atom_site_type_symbol
_atom_site_label
_atom_site_fract_x
_atom_site_fract_y
_atom_site_fract_z
Si Si1 0.648121 0.438137 0.899354
Si Si2 0.758417 0.898792 0.803668
Si Si3 0.754862 0.097044 0.646875
Si Si4 0.059666 0.851850 0.500000
Si Si5 0.257529 0.400528 0.755652
Si Si6 0.261327 0.602887 0.597793
Si Si7 0.852454 0.937956 0.000000
O O1 0.618622 0.548723 0.896248
O O2 0.713071 0.411280 0.856817
O O3 0.691701 0.419467 0.950054
O O4 0.666863 0.833138 0.798854
O O5 0.843937 0.844463 0.778176
O O6 0.745022 0.999864 0.780320
O O7 0.661613 0.161613 0.640824
O O8 0.772619 0.087015 0.701235
O O9 0.840021 0.155122 0.623480
O O10 0.744698 0.995902 0.623240
O O11 0.083711 0.794030 0.454230
O O12 0.949588 0.881418 0.500000
O O13 0.166128 0.333873 0.761925
O O14 0.169717 0.669717 0.599138
O O15 0.951815 0.881915 0.000000
#
# Coordination Sequence:
#
# PCOD9564270 Si02
#       7
#    16  16  16   8  16  16   8
#     4   9  15  28  49  74 103 135 173 223 276 322
#     4  11  21  34  53  78 108 143 183 225 272 323
#     4  10  22  39  59  83 112 145 182 223 269 321
#     4  11  21  38  62  87 114 144 180 223 272 326
#     4  10  22  38  55  80 111 142 181 225 267 320
#     4  11  22  39  61  85 114 146 181 225 271 315
#     4   7  12  22  43  72 100 131 168 214 274 329
#
# _framework density 16.466676
#
# number of rings (size 3 to 8) (size 9 to 14) (size 15 to 20)
#    0.000    2.000    3.333    2.250    0.000    3.333 
#    0.000    4.167    0.000    1.000    0.000    0.583 
#    0.000    1.333    0.000    0.000    0.000    0.000 
#
# Total GULP energy -535499.377703 kJ/mol
# GULP energy per Si atom -5578.118518 kJ/mol
# Density = 1.642920 g / cm^3
# Si number density = 16.466676 Si / 1000 Ang^3
#
#
#
# Elastic Constant Matrix: (Units=GPa)
#
#
# Indices 1 2 3 4 5 6 
#
# 1 85.5399 29.4371 66.6578 0.0000 0.0000 0.0000
# 2 29.4371 85.5399 66.6578 0.0000 0.0000 0.0000
# 3 66.6578 66.6578 172.9253 0.0000 0.0000 0.0000
# 4 0.0000 0.0000 0.0000 20.3762 0.0000 0.0000
# 5 0.0000 0.0000 0.0000 0.0000 20.3762 0.0000
# 6 0.0000 0.0000 0.0000 0.0000 0.0000 5.2372
#
#
#
# Elastic Compliance Matrix: (Units=1/GPa)
#
#
# Indices 1 2 3 4 5 6 
#
# 1 0.016775 -0.001049 -0.006062 0.000000 0.000000 0.000000
# 2 -0.001049 0.016775 -0.006062 0.000000 0.000000 0.000000
# 3 -0.006062 -0.006062 0.010456 0.000000 0.000000 0.000000
# 4 0.000000 0.000000 0.000000 0.049077 0.000000 0.000000
# 5 0.000000 0.000000 0.000000 0.000000 0.049077 0.000000
# 6 0.000000 0.000000 0.000000 0.000000 0.000000 0.190943
#
#
# Mechanical properties :
#
#
# Convention : Reuss Voigt Hill
#
# Bulk Modulus (GPa) = 56.62259 74.39005 65.50632
# Shear Modulus (GPa) = 13.68598 21.28139 17.48368
#
# Velocity S-wave (km/s) = 2.88606 3.59888 3.26200
# Velocity P-wave (km/s) = 6.75031 7.90844 7.35221
#
# Compressibility (1/GPa) = 0.01766080
#
# Stress axis : x y z
#
# Youngs Moduli (GPa) = 59.61113 59.61113 95.63565
#
# Poissons Ratio (x) = 0.06253 0.57975
# Poissons Ratio (y) = 0.06253 0.57975
# Poissons Ratio (z) = 0.36137 0.36137
#
# Static dielectric constant tensor:
#      x y z
#    x 1.527370 0.000000 0.000000 
#    y 0.000000 1.527370 0.000000 
#    z 0.000000 0.000000 1.560130 
# 
# From -- ./inp_files/6357.got.cif
#   From: 2010.05.17/outbox.cif.g08.bks.cpg/sg127_4_cif.got.tgz:6357.got - 2010.05.20 12:03:00.
