data_PCOD9564756
_publ_section_title
;
Structure prediction by ZEFSAII (Michael W. Deem and Ramdas Pophale) SiO2 
 PCOD9564756
Probable space group: P 4/M N C
;
_chemical_formula_sum "Si O2"
_cell_formula_units_Z 96
_cell_length_a 24.016965
_cell_length_b 24.016965
_cell_length_c 8.642363
_cell_angle_alpha 90.000000
_cell_angle_beta 90.000000
_cell_angle_gamma 90.000000
_cell_volume 4985.041224
_symmetry_space_group_name_H-M "P 4/M N C"
_symmetry_group_IT_number 128
_symmetry_cell_setting 'tetragonal'
loop_
_space_group_symop_operation_xyz
x,y,z
-y,x,z
-x,-y,z
y,-x,z
1/2+x,1/2-y,1/2-z
1/2-x,1/2+y,1/2-z
1/2+y,1/2+x,1/2-z
1/2-y,1/2-x,1/2-z
-x,-y,-z
y,-x,-z
x,y,-z
-y,x,-z
1/2-x,1/2+y,1/2+z
1/2+x,1/2-y,1/2+z
1/2-y,1/2-x,1/2+z
1/2+y,1/2+x,1/2+z
loop_
_atom_site_type_symbol
_atom_site_label
_atom_site_fract_x
_atom_site_fract_y
_atom_site_fract_z
Si Si1 0.990692 0.264162 0.814039
Si Si2 0.167193 0.212304 0.821265
Si Si3 0.274736 0.140322 0.813684
Si Si4 0.108910 0.914493 0.829380
Si Si5 0.853009 0.985414 0.325484
Si Si6 0.100114 0.315377 0.315631
O O1 0.005077 0.207783 0.723419
O O2 0.039424 0.305843 0.761284
O O3 0.925431 0.274612 0.772825
O O4 0.993934 0.256773 0.000000
O O5 0.221543 0.178320 0.761267
O O6 0.118727 0.166328 0.824776
O O7 0.142088 0.264365 0.729434
O O8 0.178161 0.229887 0.000000
O O9 0.329026 0.170975 0.750000
O O10 0.273165 0.142282 0.000000
O O11 0.107119 0.962269 0.702080
O O12 0.061848 0.870069 0.793843
O O13 0.102264 0.939382 0.000000
O O14 0.854127 0.964992 0.500000
O O15 0.129731 0.370270 0.250000
O O16 0.094568 0.317259 0.500000
#
# Coordination Sequence:
#
# PCOD9564756 Si02
#       6
#    16  16  16  16  16  16
#     4  11  22  41  63  86 120 162 200 240 297 363
#     4  10  20  37  60  88 122 161 200 243 296 356
#     4  10  22  39  61  90 122 157 197 240 292 351
#     4  11  22  39  61  82 115 161 206 248 302 359
#     4  12  24  38  58  87 118 153 205 259 302 350
#     4  12  25  40  61  92 124 159 201 248 302 356
#
# _framework density 19.257612999999999
#
# number of rings (size 3 to 8) (size 9 to 14) (size 15 to 20)
#    0.000    1.000    3.333    4.500    0.000    4.333 
#    0.000    1.667    0.000    0.500    0.000    3.500 
#    0.000    0.000    0.000    0.000    0.000    0.000 
#
# Total GULP energy -535974.602948 kJ/mol
# GULP energy per Si atom -5583.068781 kJ/mol
# Density = 1.921378 g / cm^3
# Si number density = 19.257613 Si / 1000 Ang^3
#
#
#
# Elastic Constant Matrix: (Units=GPa)
#
#
# Indices 1 2 3 4 5 6 
#
# 1 191.9756 -93.4757 17.0080 0.0000 0.0000 0.0000
# 2 -93.4757 191.9757 17.0057 0.0000 0.0000 0.0000
# 3 17.0080 17.0057 70.5877 0.0000 0.0000 0.0000
# 4 0.0000 0.0000 0.0000 157.0377 0.0000 0.0000
# 5 0.0000 0.0000 0.0000 0.0000 158.3129 0.0000
# 6 0.0000 0.0000 0.0000 0.0000 0.0000 25.1870
#
#
#
# Elastic Compliance Matrix: (Units=1/GPa)
#
#
# Indices 1 2 3 4 5 6 
#
# 1 0.007288 0.003785 -0.002668 0.000000 0.000000 0.000000
# 2 0.003785 0.007288 -0.002668 0.000000 0.000000 0.000000
# 3 -0.002668 -0.002668 0.015452 0.000000 0.000000 0.000000
# 4 0.000000 0.000000 0.000000 0.006368 0.000000 0.000000
# 5 0.000000 0.000000 0.000000 0.000000 0.006317 0.000000
# 6 0.000000 0.000000 0.000000 0.000000 0.000000 0.039703
#
#
# Mechanical properties :
#
#
# Convention : Reuss Voigt Hill
#
# Bulk Modulus (GPa) = 37.13659 37.29056 37.21358
# Shear Modulus (GPa) = 52.91335 102.37426 77.64380
#
# Velocity S-wave (km/s) = 5.24750 7.29903 6.35657
# Velocity P-wave (km/s) = 7.48605 9.51002 8.55808
#
# Compressibility (1/GPa) = 0.02692762
#
# Stress axis : x y z
#
# Youngs Moduli (GPa) = 137.20375 137.20465 64.71490
#
# Poissons Ratio (x) = -0.51934 0.17266
# Poissons Ratio (y) = -0.51934 0.17265
# Poissons Ratio (z) = 0.36607 0.36605
#
# Static dielectric constant tensor:
#      x y z
#    x 1.694640 0.000000 0.000000 
#    y 0.000000 1.694630 0.000000 
#    z 0.000000 0.000000 1.644600 
# 
# From -- ./inp_files/1441.got.cif
#   From: 2010.05.17/outbox.cif.g08.bks.cpg/sg128_1_cif.got.tgz:1441.got - 2010.05.20 12:07:25.
