data_PCOD9564886
_publ_section_title
;
Structure prediction by ZEFSAII (Michael W. Deem and Ramdas Pophale) SiO2 
 PCOD9564886
Probable space group: P 4/M N C
;
_chemical_formula_sum "Si O2"
_cell_formula_units_Z 80
_cell_length_a 10.683497
_cell_length_b 10.683497
_cell_length_c 31.248935
_cell_angle_alpha 90.000000
_cell_angle_beta 90.000000
_cell_angle_gamma 90.000000
_cell_volume 3566.663074
_symmetry_space_group_name_H-M "P 4/M N C"
_symmetry_group_IT_number 128
_symmetry_cell_setting 'tetragonal'
loop_
_space_group_symop_operation_xyz
x,y,z
-y,x,z
-x,-y,z
y,-x,z
1/2+x,1/2-y,1/2-z
1/2-x,1/2+y,1/2-z
1/2+y,1/2+x,1/2-z
1/2-y,1/2-x,1/2-z
-x,-y,-z
y,-x,-z
x,y,-z
-y,x,-z
1/2-x,1/2+y,1/2+z
1/2+x,1/2-y,1/2+z
1/2-y,1/2-x,1/2+z
1/2+y,1/2+x,1/2+z
loop_
_atom_site_type_symbol
_atom_site_label
_atom_site_fract_x
_atom_site_fract_y
_atom_site_fract_z
Si Si1 0.822609 0.894087 0.652516
Si Si2 0.626238 0.931989 0.200756
Si Si3 0.307884 0.776634 0.925388
Si Si4 0.129836 0.835902 0.000000
Si Si5 0.793392 0.040082 0.500000
Si Si6 0.702114 0.549917 0.359551
O O1 0.700265 0.849808 0.677527
O O2 0.807844 0.848357 0.603536
O O3 0.958510 0.835190 0.662345
O O4 0.602316 0.897685 0.250000
O O5 0.500000 0.000000 0.185121
O O6 0.735025 0.029807 0.187123
O O7 0.189731 0.779871 0.957272
O O8 0.425852 0.781290 0.957246
O O9 0.301259 0.894222 0.892977
O O10 0.981518 0.830481 0.000000
O O11 0.907383 0.140788 0.500000
O O12 0.586090 0.642831 0.366600
#
# Coordination Sequence:
#
# PCOD9564886 Si02
#       6
#    16  16  16   8   8  16
#     4  11  24  45  72 100 137 186 239 297 367 447
#     4  11  26  46  71 105 144 180 233 309 374 444
#     4  11  21  39  69 102 142 192 247 300 360 437
#     4  10  22  38  62  98 143 189 235 298 357 424
#     4  10  22  40  66 102 149 201 251 319 380 439
#     4  11  23  43  71 102 140 194 246 298 371 453
#
# _framework density 22.429928
#
# number of rings (size 3 to 8) (size 9 to 14) (size 15 to 20)
#    0.000    1.200    2.000    3.600    0.000    4.800 
#    0.000    2.000    0.000    4.800    0.000    0.000 
#    0.000    0.000    0.000    0.000    0.000    0.000 
#
# Total GULP energy -446355.557066 kJ/mol
# GULP energy per Si atom -5579.444463 kJ/mol
# Density = 2.237888 g / cm^3
# Si number density = 22.429928 Si / 1000 Ang^3
#
#
#
# Elastic Constant Matrix: (Units=GPa)
#
#
# Indices 1 2 3 4 5 6 
#
# 1 74.1676 40.4375 26.5743 0.0000 0.0000 0.0000
# 2 40.4375 74.1676 26.5744 0.0000 0.0000 0.0000
# 3 26.5743 26.5744 103.5633 0.0000 0.0000 0.0000
# 4 0.0000 0.0000 0.0000 33.4985 0.0000 0.0000
# 5 0.0000 0.0000 0.0000 0.0000 33.4984 0.0000
# 6 0.0000 0.0000 0.0000 0.0000 0.0000 39.2768
#
#
#
# Elastic Compliance Matrix: (Units=1/GPa)
#
#
# Indices 1 2 3 4 5 6 
#
# 1 0.019776 -0.009871 -0.002541 0.000000 0.000000 0.000000
# 2 -0.009871 0.019776 -0.002541 0.000000 0.000000 0.000000
# 3 -0.002541 -0.002541 0.010960 0.000000 0.000000 0.000000
# 4 0.000000 0.000000 0.000000 0.029852 0.000000 0.000000
# 5 0.000000 0.000000 0.000000 0.000000 0.029852 0.000000
# 6 0.000000 0.000000 0.000000 0.000000 0.000000 0.025460
#
#
# Mechanical properties :
#
#
# Convention : Reuss Voigt Hill
#
# Bulk Modulus (GPa) = 48.53680 48.78566 48.66123
# Shear Modulus (GPa) = 28.99350 31.80889 30.40119
#
# Velocity S-wave (km/s) = 3.59921 3.76991 3.68555
# Velocity P-wave (km/s) = 6.24169 6.38335 6.31292
#
# Compressibility (1/GPa) = 0.02060292
#
# Stress axis : x y z
#
# Youngs Moduli (GPa) = 50.56713 50.56713 91.23928
#
# Poissons Ratio (x) = 0.49917 0.23188
# Poissons Ratio (y) = 0.49917 0.23188
# Poissons Ratio (z) = 0.12851 0.12851
#
# Static dielectric constant tensor:
#      x y z
#    x 1.850460 0.000000 0.000000 
#    y 0.000000 1.850460 0.000000 
#    z 0.000000 0.000000 1.838930 
# 
# From -- ./inp_files/7202.got.cif
#   From: 2010.05.17/outbox.cif.g08.bks.cpg/sg128_4_cif.got.tgz:7202.got - 2010.05.20 12:07:25.
