data_PCOD9564549
_publ_section_title
;
Structure prediction by ZEFSAII (Michael W. Deem and Ramdas Pophale) SiO2 
 PCOD9564549
Probable space group: P 4/M N C
;
_chemical_formula_sum "Si O2"
_cell_formula_units_Z 128
_cell_length_a 21.273942
_cell_length_b 21.273942
_cell_length_c 18.312395
_cell_angle_alpha 90.000000
_cell_angle_beta 90.000000
_cell_angle_gamma 90.000000
_cell_volume 8287.834867
_symmetry_space_group_name_H-M "P 4/M N C"
_symmetry_group_IT_number 128
_symmetry_cell_setting 'tetragonal'
loop_
_space_group_symop_operation_xyz
x,y,z
-y,x,z
-x,-y,z
y,-x,z
1/2+x,1/2-y,1/2-z
1/2-x,1/2+y,1/2-z
1/2+y,1/2+x,1/2-z
1/2-y,1/2-x,1/2-z
-x,-y,-z
y,-x,-z
x,y,-z
-y,x,-z
1/2-x,1/2+y,1/2+z
1/2+x,1/2-y,1/2+z
1/2-y,1/2-x,1/2+z
1/2+y,1/2+x,1/2+z
loop_
_atom_site_type_symbol
_atom_site_label
_atom_site_fract_x
_atom_site_fract_y
_atom_site_fract_z
Si Si1 0.944681 0.703305 0.762631
Si Si2 0.493982 0.072453 0.083749
Si Si3 0.378416 0.867364 0.129612
Si Si4 0.677922 0.737269 0.194987
Si Si5 0.575416 0.838637 0.198275
Si Si6 0.420065 0.430642 0.416938
Si Si7 0.286282 0.765563 0.582812
Si Si8 0.178118 0.868929 0.810318
O O1 0.922861 0.659280 0.829510
O O2 0.904788 0.678351 0.693279
O O3 0.922413 0.773352 0.782421
O O4 0.016569 0.690792 0.742153
O O5 0.562952 0.103378 0.087992
O O6 0.451039 0.116377 0.134551
O O7 0.500000 0.000000 0.110151
O O8 0.471656 0.070834 0.000000
O O9 0.329124 0.827194 0.084097
O O10 0.721373 0.778628 0.250000
O O11 0.619344 0.780948 0.173755
O O12 0.721367 0.722652 0.125600
O O13 0.660607 0.675662 0.241994
O O14 0.617217 0.882784 0.250000
O O15 0.493849 0.414683 0.410738
O O16 0.399755 0.413410 0.500000
O O17 0.379535 0.397733 0.354754
O O18 0.277004 0.744026 0.500000
O O19 0.325773 0.716578 0.631925
#
# Coordination Sequence:
#
# PCOD9564549 Si02
#       8
#    16  16  16  16  16  16  16  16
#     4   9  17  28  49  70  94 121 163 201 241 282
#     4  10  20  32  48  70  99 132 163 197 237 289
#     4   9  16  30  46  69  94 123 158 203 235 283
#     4   9  19  33  47  68  99 124 161 208 246 288
#     4  10  20  33  49  71  97 130 162 200 249 291
#     4   9  19  34  50  71 100 130 159 197 249 307
#     4  10  18  30  49  69  93 129 162 199 248 293
#     4  10  18  31  50  72  96 123 166 205 245 290
#
# _framework density 15.444324
#
# number of rings (size 3 to 8) (size 9 to 14) (size 15 to 20)
#    0.000    2.500    1.250    1.875    1.750    1.750 
#    0.000    0.000    0.000    0.750    0.000    0.000 
#    0.000    0.000    0.000    1.375    0.000    0.000 
#
# Total GULP energy -713139.769787 kJ/mol
# GULP energy per Si atom -5571.404451 kJ/mol
# Density = 1.540917 g / cm^3
# Si number density = 15.444324 Si / 1000 Ang^3
#
#
#
# Elastic Constant Matrix: (Units=GPa)
#
#
# Indices 1 2 3 4 5 6 
#
# 1 72.3200 50.0718 38.4969 0.0000 0.0000 0.0000
# 2 50.0718 72.3203 38.4968 0.0000 0.0000 0.0000
# 3 38.4969 38.4968 77.5889 0.0000 0.0000 0.0000
# 4 0.0000 0.0000 0.0000 17.5468 0.0000 0.0000
# 5 0.0000 0.0000 0.0000 0.0000 17.5468 0.0000
# 6 0.0000 0.0000 0.0000 0.0000 0.0000 20.3183
#
#
#
# Elastic Compliance Matrix: (Units=1/GPa)
#
#
# Indices 1 2 3 4 5 6 
#
# 1 0.028413 -0.016535 -0.005893 0.000000 0.000000 0.000000
# 2 -0.016535 0.028412 -0.005893 0.000000 0.000000 0.000000
# 3 -0.005893 -0.005893 0.018737 0.000000 0.000000 0.000000
# 4 0.000000 0.000000 0.000000 0.056990 0.000000 0.000000
# 5 0.000000 0.000000 0.000000 0.000000 0.056990 0.000000
# 6 0.000000 0.000000 0.000000 0.000000 0.000000 0.049217
#
#
# Mechanical properties :
#
#
# Convention : Reuss Voigt Hill
#
# Bulk Modulus (GPa) = 52.85739 52.92890 52.89315
# Shear Modulus (GPa) = 16.57230 17.42663 16.99946
#
# Velocity S-wave (km/s) = 3.27928 3.36274 3.32127
# Velocity P-wave (km/s) = 6.97402 7.03012 7.00212
#
# Compressibility (1/GPa) = 0.01891883
#
# Stress axis : x y z
#
# Youngs Moduli (GPa) = 35.19567 35.19589 53.37153
#
# Poissons Ratio (x) = 0.58195 0.31454
# Poissons Ratio (y) = 0.58195 0.31454
# Poissons Ratio (z) = 0.20742 0.20742
#
# Static dielectric constant tensor:
#      x y z
#    x 1.506810 0.000000 0.000000 
#    y 0.000000 1.506810 0.000000 
#    z 0.000000 0.000000 1.506500 
# 
# From -- ./inp_files/5123.got.cif
#   From: 2010.05.17/outbox.cif.g08.bks.cpg/sg128_3_cif.got.tgz:5123.got - 2010.05.20 12:07:25.
