data_PCOD9564335
_publ_section_title
;
Structure prediction by ZEFSAII (Michael W. Deem and Ramdas Pophale) SiO2 
 PCOD9564335
Probable space group: P 4/M B M
;
_chemical_formula_sum "Si O2"
_cell_formula_units_Z 64
_cell_length_a 15.629384
_cell_length_b 15.629384
_cell_length_c 14.801535
_cell_angle_alpha 90.000000
_cell_angle_beta 90.000000
_cell_angle_gamma 90.000000
_cell_volume 3615.684101
_symmetry_space_group_name_H-M "P 4/M B M"
_symmetry_group_IT_number 127
_symmetry_cell_setting 'tetragonal'
loop_
_space_group_symop_operation_xyz
x,y,z
-y,x,z
-x,-y,z
y,-x,z
1/2+x,1/2-y,-z
1/2-x,1/2+y,-z
1/2+y,1/2+x,-z
1/2-y,1/2-x,-z
-x,-y,-z
y,-x,-z
x,y,-z
-y,x,-z
1/2-x,1/2+y,z
1/2+x,1/2-y,z
1/2-y,1/2-x,z
1/2+y,1/2+x,z
loop_
_atom_site_type_symbol
_atom_site_label
_atom_site_fract_x
_atom_site_fract_y
_atom_site_fract_z
Si Si1 0.955991 0.864145 0.606138
Si Si2 0.595098 0.392556 0.895911
Si Si3 0.857877 0.495419 0.898492
Si Si4 0.250944 0.894546 0.235515
O O1 0.949120 0.842799 0.500000
O O2 0.928819 0.788813 0.672043
O O3 0.052697 0.896470 0.623309
O O4 0.614795 0.492381 0.882215
O O5 0.637761 0.327658 0.826777
O O6 0.614521 0.371081 0.000000
O O7 0.932585 0.567416 0.902044
O O8 0.794833 0.529291 0.822310
O O9 0.906159 0.406159 0.880603
O O10 0.819364 0.492171 0.000000
O O11 0.320940 0.820940 0.248976
#
# Coordination Sequence:
#
# PCOD9564335 Si02
#       4
#    16  16  16  16
#     4   9  19  38  61  77  91 121 165 207 249 303
#     4   9  18  33  51  69  94 133 177 214 247 289
#     4   8  15  29  47  67  97 140 181 204 222 267
#     4  11  20  29  49  79 107 132 160 204 257 300
#
# _framework density 17.700661
#
# number of rings (size 3 to 8) (size 9 to 14) (size 15 to 20)
#    0.000    2.750    0.000    4.500    0.000    4.000 
#    0.000    5.000    0.000    3.750    0.000    3.500 
#    0.000    0.000    0.000    0.000    0.000    0.000 
#
# Total GULP energy -357041.921901 kJ/mol
# GULP energy per Si atom -5578.780030 kJ/mol
# Density = 1.766037 g / cm^3
# Si number density = 17.700661 Si / 1000 Ang^3
#
#
#
# Elastic Constant Matrix: (Units=GPa)
#
#
# Indices 1 2 3 4 5 6 
#
# 1 74.4431 36.3674 69.7066 0.0000 0.0000 0.0000
# 2 36.3674 74.4431 69.7066 0.0000 0.0000 0.0000
# 3 69.7066 69.7066 121.2170 0.0000 0.0000 0.0000
# 4 0.0000 0.0000 0.0000 30.4783 0.0000 0.0000
# 5 0.0000 0.0000 0.0000 0.0000 30.4783 0.0000
# 6 0.0000 0.0000 0.0000 0.0000 0.0000 12.2505
#
#
#
# Elastic Compliance Matrix: (Units=1/GPa)
#
#
# Indices 1 2 3 4 5 6 
#
# 1 0.029450 0.003187 -0.018768 0.000000 0.000000 0.000000
# 2 0.003187 0.029450 -0.018768 0.000000 0.000000 0.000000
# 3 -0.018768 -0.018768 0.029835 0.000000 0.000000 0.000000
# 4 0.000000 0.000000 0.000000 0.032810 0.000000 0.000000
# 5 0.000000 0.000000 0.000000 0.000000 0.032810 0.000000
# 6 0.000000 0.000000 0.000000 0.000000 0.000000 0.081629
#
#
# Mechanical properties :
#
#
# Convention : Reuss Voigt Hill
#
# Bulk Modulus (GPa) = 49.90859 69.07382 59.49120
# Shear Modulus (GPa) = 16.05845 20.92960 18.49403
#
# Velocity S-wave (km/s) = 3.01528 3.44236 3.23588
# Velocity P-wave (km/s) = 6.35450 7.40998 6.90245
#
# Compressibility (1/GPa) = 0.02003663
#
# Stress axis : x y z
#
# Youngs Moduli (GPa) = 33.95567 33.95567 33.51772
#
# Poissons Ratio (x) = -0.10821 0.62906
# Poissons Ratio (y) = -0.10821 0.62906
# Poissons Ratio (z) = 0.63728 0.63728
#
# Static dielectric constant tensor:
#      x y z
#    x 1.618670 0.000000 0.000000 
#    y 0.000000 1.618670 0.000000 
#    z 0.000000 0.000000 1.599030 
# 
# From -- ./inp_files/4077.got.cif
#   From: 2010.05.17/outbox.cif.g08.bks.cpg/sg127_3_cif.got.tgz:4077.got - 2010.05.20 12:03:00.
