data_PCOD9564364
_publ_section_title
;
Structure prediction by ZEFSAII (Michael W. Deem and Ramdas Pophale) SiO2 
 PCOD9564364
Probable space group: P 4/M B M
;
_chemical_formula_sum "Si O2"
_cell_formula_units_Z 50
_cell_length_a 14.727898
_cell_length_b 14.727898
_cell_length_c 10.922860
_cell_angle_alpha 90.000000
_cell_angle_beta 90.000000
_cell_angle_gamma 90.000000
_cell_volume 2369.288262
_symmetry_space_group_name_H-M "P 4/M B M"
_symmetry_group_IT_number 127
_symmetry_cell_setting 'tetragonal'
loop_
_space_group_symop_operation_xyz
x,y,z
-y,x,z
-x,-y,z
y,-x,z
1/2+x,1/2-y,-z
1/2-x,1/2+y,-z
1/2+y,1/2+x,-z
1/2-y,1/2-x,-z
-x,-y,-z
y,-x,-z
x,y,-z
-y,x,-z
1/2-x,1/2+y,z
1/2+x,1/2-y,z
1/2-y,1/2-x,z
1/2+y,1/2+x,z
loop_
_atom_site_type_symbol
_atom_site_label
_atom_site_fract_x
_atom_site_fract_y
_atom_site_fract_z
Si Si1 0.894386 0.605615 0.215597
Si Si2 0.000000 0.500000 0.000000
Si Si3 0.741458 0.758543 0.851498
Si Si4 0.148293 0.024269 0.500000
Si Si5 0.750300 0.965291 0.243871
Si Si6 0.516148 0.348569 0.000000
O O1 0.815969 0.684032 0.193281
O O2 0.842409 0.519319 0.272963
O O3 0.942646 0.557355 0.102088
O O4 0.638497 0.744886 0.802939
O O5 0.742286 0.757715 0.000000
O O6 0.100792 0.927546 0.500000
O O7 0.198587 0.032269 0.371660
O O8 0.791725 0.018220 0.125351
O O9 0.595367 0.422388 0.000000
#
# Coordination Sequence:
#
# PCOD9564364 Si02
#       6
#     8   2   8   8  16   8
#     4  12  26  44  73 107 153 199 248 320 387 460
#     4  12  24  44  72 106 148 194 240 312 392 456
#     4  12  25  44  70 108 151 197 251 312 381 462
#     4  11  24  46  72 101 144 198 256 323 394 465
#     4  12  26  43  69 105 144 194 253 308 381 457
#     4  11  21  36  61  94 130 172 233 304 365 430
#
# _framework density 21.103383999999998
#
# number of rings (size 3 to 8) (size 9 to 14) (size 15 to 20)
#    0.000    0.320    2.400    7.680    2.240    3.840 
#    0.000    3.200    0.000    2.880    0.000    0.000 
#    0.000    0.000    0.000    0.000    0.000    0.000 
#
# Total GULP energy -278395.281767 kJ/mol
# GULP energy per Si atom -5567.905635 kJ/mol
# Density = 2.105535 g / cm^3
# Si number density = 21.103384 Si / 1000 Ang^3
#
#
#
# Elastic Constant Matrix: (Units=GPa)
#
#
# Indices 1 2 3 4 5 6 
#
# 1 100.2829 54.0008 34.7803 0.0000 0.0000 0.0000
# 2 54.0008 100.2830 34.7806 0.0000 0.0000 0.0000
# 3 34.7803 34.7806 151.9452 0.0000 0.0000 0.0000
# 4 0.0000 0.0000 0.0000 189.6835 0.0000 0.0000
# 5 0.0000 0.0000 0.0000 0.0000 189.6824 0.0000
# 6 0.0000 0.0000 0.0000 0.0000 0.0000 65.6973
#
#
#
# Elastic Compliance Matrix: (Units=1/GPa)
#
#
# Indices 1 2 3 4 5 6 
#
# 1 0.014417 -0.007190 -0.001654 0.000000 0.000000 0.000000
# 2 -0.007190 0.014417 -0.001654 0.000000 0.000000 0.000000
# 3 -0.001654 -0.001654 0.007339 0.000000 0.000000 0.000000
# 4 0.000000 0.000000 0.000000 0.005272 0.000000 0.000000
# 5 0.000000 0.000000 0.000000 0.000000 0.005272 0.000000
# 6 0.000000 0.000000 0.000000 0.000000 0.000000 0.015221
#
#
# Mechanical properties :
#
#
# Convention : Reuss Voigt Hill
#
# Bulk Modulus (GPa) = 65.89299 66.62605 66.25952
# Shear Modulus (GPa) = 56.82250 104.27593 80.54922
#
# Velocity S-wave (km/s) = 5.19463 7.03699 6.18480
# Velocity P-wave (km/s) = 8.20187 9.88258 9.08119
#
# Compressibility (1/GPa) = 0.01517612
#
# Stress axis : x y z
#
# Youngs Moduli (GPa) = 69.36242 69.36245 136.26392
#
# Poissons Ratio (x) = 0.49869 0.22543
# Poissons Ratio (y) = 0.49869 0.22543
# Poissons Ratio (z) = 0.11475 0.11475
#
# Static dielectric constant tensor:
#      x y z
#    x 1.723510 0.000000 0.000000 
#    y 0.000000 1.723510 0.000000 
#    z 0.000000 0.000000 1.580170 
# 
# From -- ./inp_files/2920.got.cif
#   From: 2010.05.17/outbox.cif.g08.bks.cpg/sg127_2_cif.got.tgz:2920.got - 2010.05.20 12:03:00.
