data_PCOD9564096
_publ_section_title
;
Structure prediction by ZEFSAII (Michael W. Deem and Ramdas Pophale) SiO2 
 PCOD9564096
Probable space group: P 4/M B M
;
_chemical_formula_sum "Si O2"
_cell_formula_units_Z 96
_cell_length_a 15.576976
_cell_length_b 15.576976
_cell_length_c 20.777153
_cell_angle_alpha 90.000000
_cell_angle_beta 90.000000
_cell_angle_gamma 90.000000
_cell_volume 5041.413725
_symmetry_space_group_name_H-M "P 4/M B M"
_symmetry_group_IT_number 127
_symmetry_cell_setting 'tetragonal'
loop_
_space_group_symop_operation_xyz
x,y,z
-y,x,z
-x,-y,z
y,-x,z
1/2+x,1/2-y,-z
1/2-x,1/2+y,-z
1/2+y,1/2+x,-z
1/2-y,1/2-x,-z
-x,-y,-z
y,-x,-z
x,y,-z
-y,x,-z
1/2-x,1/2+y,z
1/2+x,1/2-y,z
1/2-y,1/2-x,z
1/2+y,1/2+x,z
loop_
_atom_site_type_symbol
_atom_site_label
_atom_site_fract_x
_atom_site_fract_y
_atom_site_fract_z
Si Si1 0.026652 0.330600 0.071162
Si Si2 0.508243 0.746587 0.366673
Si Si3 0.815355 0.172594 0.423023
Si Si4 0.639263 0.513646 0.249582
Si Si5 0.926334 0.426334 0.823134
Si Si6 0.973622 0.862665 0.096281
Si Si7 0.427672 0.072329 0.673288
O O1 0.111253 0.388748 0.079529
O O2 0.045352 0.230281 0.070098
O O3 0.965588 0.351625 0.131720
O O4 0.991195 0.353487 0.000000
O O5 0.591923 0.695054 0.392218
O O6 0.422101 0.719599 0.404548
O O7 0.485795 0.722411 0.292830
O O8 0.535123 0.845622 0.364224
O O9 0.824396 0.177203 0.500000
O O10 0.744930 0.244930 0.403003
O O11 0.574133 0.589916 0.266320
O O12 0.648399 0.521332 0.173489
O O13 0.905203 0.405203 0.748792
O O14 0.000000 0.500000 0.821499
O O15 0.065767 0.903347 0.078635
O O16 0.500000 0.000000 0.676153
#
# Coordination Sequence:
#
# PCOD9564096 Si02
#       7
#    16  16  16  16   8  16   8
#     4  10  20  36  58  83 115 156 200 247 300 357
#     4  12  21  40  65  91 123 164 206 253 312 370
#     4  11  25  43  62  91 129 167 211 260 306 366
#     4   9  17  32  57  87 118 147 187 244 303 361
#     4   9  19  38  61  85 120 155 196 251 299 360
#     4   9  19  36  57  82 115 156 193 238 302 365
#     4  11  24  39  63  93 125 161 205 255 308 378
#
# _framework density 19.042278
#
# number of rings (size 3 to 8) (size 9 to 14) (size 15 to 20)
#    0.000    1.833    2.500    3.250    0.000    2.000 
#    1.500    2.500    5.500    2.000    0.000    0.000 
#    0.000    0.000    0.000    0.000    0.000    0.000 
#
# Total GULP energy -535211.226872 kJ/mol
# GULP energy per Si atom -5575.116947 kJ/mol
# Density = 1.899894 g / cm^3
# Si number density = 19.042278 Si / 1000 Ang^3
#
#
#
# Elastic Constant Matrix: (Units=GPa)
#
#
# Indices 1 2 3 4 5 6 
#
# 1 95.2966 31.6704 32.7646 0.0000 0.0000 0.0000
# 2 31.6704 95.2966 32.7646 0.0000 0.0000 0.0000
# 3 32.7646 32.7646 78.6821 0.0000 0.0000 0.0000
# 4 0.0000 0.0000 0.0000 59.7334 0.0000 0.0000
# 5 0.0000 0.0000 0.0000 0.0000 59.7334 0.0000
# 6 0.0000 0.0000 0.0000 0.0000 0.0000 26.8924
#
#
#
# Elastic Compliance Matrix: (Units=1/GPa)
#
#
# Indices 1 2 3 4 5 6 
#
# 1 0.012874 -0.002842 -0.004178 0.000000 0.000000 0.000000
# 2 -0.002842 0.012874 -0.004178 0.000000 0.000000 0.000000
# 3 -0.004178 -0.004178 0.016189 0.000000 0.000000 0.000000
# 4 0.000000 0.000000 0.000000 0.016741 0.000000 0.000000
# 5 0.000000 0.000000 0.000000 0.000000 0.016741 0.000000
# 6 0.000000 0.000000 0.000000 0.000000 0.000000 0.037185
#
#
# Mechanical properties :
#
#
# Convention : Reuss Voigt Hill
#
# Bulk Modulus (GPa) = 51.17016 51.51940 51.34478
# Shear Modulus (GPa) = 35.33218 40.74353 38.03785
#
# Velocity S-wave (km/s) = 4.31218 4.63064 4.47424
# Velocity P-wave (km/s) = 7.19190 7.46354 7.32898
#
# Compressibility (1/GPa) = 0.01954264
#
# Stress axis : x y z
#
# Youngs Moduli (GPa) = 77.67307 77.67307 61.77186
#
# Poissons Ratio (x) = 0.22077 0.25806
# Poissons Ratio (y) = 0.22077 0.25806
# Poissons Ratio (z) = 0.32448 0.32448
#
# Static dielectric constant tensor:
#      x y z
#    x 1.643910 0.000000 0.000000 
#    y 0.000000 1.643910 0.000000 
#    z 0.000000 0.000000 1.695250 
# 
# From -- ./inp_files/6122.got.cif
#   From: 2010.05.17/outbox.cif.g08.bks.cpg/sg127_4_cif.got.tgz:6122.got - 2010.05.20 12:03:00.
