data_PCOD9564133
_publ_section_title
;
Structure prediction by ZEFSAII (Michael W. Deem and Ramdas Pophale) SiO2 
 PCOD9564133
Probable space group: P 4/M B M
;
_chemical_formula_sum "Si O2"
_cell_formula_units_Z 88
_cell_length_a 17.529648
_cell_length_b 17.529648
_cell_length_c 14.218894
_cell_angle_alpha 90.000000
_cell_angle_beta 90.000000
_cell_angle_gamma 90.000000
_cell_volume 4369.303448
_symmetry_space_group_name_H-M "P 4/M B M"
_symmetry_group_IT_number 127
_symmetry_cell_setting 'tetragonal'
loop_
_space_group_symop_operation_xyz
x,y,z
-y,x,z
-x,-y,z
y,-x,z
1/2+x,1/2-y,-z
1/2-x,1/2+y,-z
1/2+y,1/2+x,-z
1/2-y,1/2-x,-z
-x,-y,-z
y,-x,-z
x,y,-z
-y,x,-z
1/2-x,1/2+y,z
1/2+x,1/2-y,z
1/2-y,1/2-x,z
1/2+y,1/2+x,z
loop_
_atom_site_type_symbol
_atom_site_label
_atom_site_fract_x
_atom_site_fract_y
_atom_site_fract_z
Si Si1 0.169788 0.458545 0.106453
Si Si2 0.498939 0.126988 0.500000
Si Si3 0.172644 0.797409 0.298700
Si Si4 0.670689 0.299063 0.901534
Si Si5 0.329050 0.045760 0.695452
Si Si6 0.931848 0.898730 0.387589
O O1 0.093243 0.406758 0.114794
O O2 0.240219 0.399240 0.105117
O O3 0.179121 0.507483 0.201645
O O4 0.167808 0.494603 0.000000
O O5 0.416145 0.083856 0.500000
O O6 0.504332 0.169925 0.399891
O O7 0.562342 0.062342 0.500000
O O8 0.253620 0.753620 0.303701
O O9 0.154315 0.822435 0.192380
O O10 0.108748 0.735764 0.323747
O O11 0.166682 0.874407 0.357058
O O12 0.746028 0.246028 0.903865
O O13 0.665742 0.342207 0.000000
O O14 0.409547 0.090454 0.700722
O O15 0.934382 0.900216 0.500000
O O16 0.019491 0.897085 0.354975
#
# Coordination Sequence:
#
# PCOD9564133 Si02
#       6
#    16   8  16  16  16  16
#     4   9  18  33  54  78 106 143 187 235 283 338
#     4   9  18  34  52  68 102 157 194 218 271 344
#     4  10  21  34  56  87 113 144 183 237 292 335
#     4   8  16  33  53  73 103 142 180 222 284 352
#     4  10  21  33  49  78 112 145 187 236 284 337
#     4   9  20  39  61  83 110 150 192 233 286 343
#
# _framework density 20.140509999999999
#
# number of rings (size 3 to 8) (size 9 to 14) (size 15 to 20)
#    0.000    2.818    0.000    2.182    3.818    2.545 
#    0.000    2.727    0.000    0.000    0.000    1.273 
#    0.000    0.000    0.000    0.000    0.000    0.000 
#
# Total GULP energy -490002.217532 kJ/mol
# GULP energy per Si atom -5568.207017 kJ/mol
# Density = 2.009467 g / cm^3
# Si number density = 20.140510 Si / 1000 Ang^3
#
#
#
# Elastic Constant Matrix: (Units=GPa)
#
#
# Indices 1 2 3 4 5 6 
#
# 1 25.3075 6.9472 15.6282 0.0000 0.0000 0.0000
# 2 6.9472 25.3072 15.6281 0.0000 0.0000 0.0000
# 3 15.6282 15.6281 107.6779 0.0000 0.0000 0.0000
# 4 0.0000 0.0000 0.0000 31.4865 0.0000 0.0000
# 5 0.0000 0.0000 0.0000 0.0000 31.4867 0.0000
# 6 0.0000 0.0000 0.0000 0.0000 0.0000 15.3940
#
#
#
# Elastic Compliance Matrix: (Units=1/GPa)
#
#
# Indices 1 2 3 4 5 6 
#
# 1 0.045271 -0.009194 -0.005236 0.000000 0.000000 0.000000
# 2 -0.009194 0.045272 -0.005236 0.000000 0.000000 0.000000
# 3 -0.005236 -0.005236 0.010807 0.000000 0.000000 0.000000
# 4 0.000000 0.000000 0.000000 0.031760 0.000000 0.000000
# 5 0.000000 0.000000 0.000000 0.000000 0.031759 0.000000
# 6 0.000000 0.000000 0.000000 0.000000 0.000000 0.064960
#
#
# Mechanical properties :
#
#
# Convention : Reuss Voigt Hill
#
# Bulk Modulus (GPa) = 16.12461 26.07774 21.10117
# Shear Modulus (GPa) = 17.25119 23.67939 20.46529
#
# Velocity S-wave (km/s) = 2.92985 3.43258 3.19113
# Velocity P-wave (km/s) = 4.41234 5.35595 4.90688
#
# Compressibility (1/GPa) = 0.06201702
#
# Stress axis : x y z
#
# Youngs Moduli (GPa) = 22.08902 22.08876 92.53342
#
# Poissons Ratio (x) = 0.20309 0.48452
# Poissons Ratio (y) = 0.20309 0.48453
# Poissons Ratio (z) = 0.11566 0.11566
#
# Static dielectric constant tensor:
#      x y z
#    x 1.722210 0.000000 0.000000 
#    y 0.000000 1.722210 0.000000 
#    z 0.000000 0.000000 1.755970 
# 
# From -- ./inp_files/4393.got.cif
#   From: 2010.05.17/outbox.cif.g08.bks.cpg/sg127_3_cif.got.tgz:4393.got - 2010.05.20 12:03:00.
