data_PCOD9564377
_publ_section_title
;
Structure prediction by ZEFSAII (Michael W. Deem and Ramdas Pophale) SiO2 
 PCOD9564377
Probable space group: P 4/M B M
;
_chemical_formula_sum "Si O2"
_cell_formula_units_Z 72
_cell_length_a 21.913078
_cell_length_b 21.913078
_cell_length_c 8.439476
_cell_angle_alpha 90.000000
_cell_angle_beta 90.000000
_cell_angle_gamma 90.000000
_cell_volume 4052.492798
_symmetry_space_group_name_H-M "P 4/M B M"
_symmetry_group_IT_number 127
_symmetry_cell_setting 'tetragonal'
loop_
_space_group_symop_operation_xyz
x,y,z
-y,x,z
-x,-y,z
y,-x,z
1/2+x,1/2-y,-z
1/2-x,1/2+y,-z
1/2+y,1/2+x,-z
1/2-y,1/2-x,-z
-x,-y,-z
y,-x,-z
x,y,-z
-y,x,-z
1/2-x,1/2+y,z
1/2+x,1/2-y,z
1/2-y,1/2-x,z
1/2+y,1/2+x,z
loop_
_atom_site_type_symbol
_atom_site_label
_atom_site_fract_x
_atom_site_fract_y
_atom_site_fract_z
Si Si1 0.119016 0.282709 0.690572
Si Si2 0.949540 0.449540 0.310433
Si Si3 0.852710 0.098431 0.307879
Si Si4 0.987363 0.316346 0.186734
Si Si5 0.962936 0.182977 0.307840
O O1 0.108588 0.285465 0.500000
O O2 0.176545 0.323456 0.730091
O O3 0.127846 0.212282 0.733084
O O4 0.058775 0.308673 0.772093
O O5 0.951433 0.451433 0.500000
O O6 0.965391 0.380755 0.256902
O O7 0.000000 0.500000 0.252821
O O8 0.857682 0.096845 0.500000
O O9 0.908780 0.139070 0.250740
O O10 0.845632 0.028036 0.256246
O O11 0.958339 0.253341 0.253476
O O12 0.977810 0.317786 0.000000
O O13 0.962962 0.184013 0.500000
#
# Coordination Sequence:
#
# PCOD9564377 Si02
#       5
#    16   8  16  16  16
#     4   9  17  32  53  76 103 135 175 216 255 303
#     4  11  23  39  59  81 103 135 177 215 259 314
#     4   8  15  28  50  77 104 136 174 220 264 307
#     4  11  22  35  52  76 108 139 170 213 264 312
#     4   9  17  33  53  76 106 139 179 220 266 312
#
# _framework density 17.766843000000001
#
# number of rings (size 3 to 8) (size 9 to 14) (size 15 to 20)
#    0.000    2.556    0.000    4.333    0.000    4.444 
#    2.000    6.667    0.000    0.000    0.000    6.222 
#    0.000    0.000    0.000    0.000    0.000    0.000 
#
# Total GULP energy -401313.775880 kJ/mol
# GULP energy per Si atom -5573.802443 kJ/mol
# Density = 1.772640 g / cm^3
# Si number density = 17.766843 Si / 1000 Ang^3
#
#
#
# Elastic Constant Matrix: (Units=GPa)
#
#
# Indices 1 2 3 4 5 6 
#
# 1 133.7304 116.5654 32.4884 0.0000 0.0000 0.0000
# 2 116.5654 133.7304 32.4884 0.0000 0.0000 0.0000
# 3 32.4884 32.4884 34.3568 0.0000 0.0000 0.0000
# 4 0.0000 0.0000 0.0000 -4.8429 0.0000 0.0000
# 5 0.0000 0.0000 0.0000 0.0000 -4.8429 0.0000
# 6 0.0000 0.0000 0.0000 0.0000 0.0000 36.1682
#
#
#
# Elastic Compliance Matrix: (Units=1/GPa)
#
#
# Indices 1 2 3 4 5 6 
#
# 1 0.031777 -0.026482 -0.005007 0.000000 0.000000 0.000000
# 2 -0.026482 0.031777 -0.005007 0.000000 0.000000 0.000000
# 3 -0.005007 -0.005007 0.038576 0.000000 0.000000 0.000000
# 4 0.000000 0.000000 0.000000 -0.206490 0.000000 0.000000
# 5 0.000000 0.000000 0.000000 0.000000 -0.206490 0.000000
# 6 0.000000 0.000000 0.000000 0.000000 0.000000 0.027649
#
#
# Mechanical properties :
#
#
# Convention : Reuss Voigt Hill
#
# Bulk Modulus (GPa) = 34.31990 73.87800 54.09895
# Shear Modulus (GPa) = -24.93794 13.31486 -5.81154
#
# Velocity S-wave (km/s) = -3.75056 2.74053 -1.81055
# Velocity P-wave (km/s) = 0.77663 7.18931 5.11319
#
# Compressibility (1/GPa) = 0.02913762
#
# Stress axis : x y z
#
# Youngs Moduli (GPa) = 31.46962 31.46962 25.92285
#
# Poissons Ratio (x) = 0.83336 0.12980
# Poissons Ratio (y) = 0.83336 0.12980
# Poissons Ratio (z) = 0.15757 0.15757
#
# Static dielectric constant tensor:
#      x y z
#    x 1.597050 0.000000 0.000000 
#    y 0.000000 1.597050 0.000000 
#    z 0.000000 0.000000 1.607930 
# 
# From -- ./inp_files/1526.got.cif
#   From: 2010.05.17/outbox.cif.g08.bks.cpg/sg127_1_cif.got.tgz:1526.got - 2010.05.20 12:03:00.
