data_PCOD9564255
_publ_section_title
;
Structure prediction by ZEFSAII (Michael W. Deem and Ramdas Pophale) SiO2 
 PCOD9564255
Probable space group: P 4/M B M
;
_chemical_formula_sum "Si O2"
_cell_formula_units_Z 72
_cell_length_a 20.848388
_cell_length_b 20.848388
_cell_length_c 8.992334
_cell_angle_alpha 90.000000
_cell_angle_beta 90.000000
_cell_angle_gamma 90.000000
_cell_volume 3908.565472
_symmetry_space_group_name_H-M "P 4/M B M"
_symmetry_group_IT_number 127
_symmetry_cell_setting 'tetragonal'
loop_
_space_group_symop_operation_xyz
x,y,z
-y,x,z
-x,-y,z
y,-x,z
1/2+x,1/2-y,-z
1/2-x,1/2+y,-z
1/2+y,1/2+x,-z
1/2-y,1/2-x,-z
-x,-y,-z
y,-x,-z
x,y,-z
-y,x,-z
1/2-x,1/2+y,z
1/2+x,1/2-y,z
1/2-y,1/2-x,z
1/2+y,1/2+x,z
loop_
_atom_site_type_symbol
_atom_site_label
_atom_site_fract_x
_atom_site_fract_y
_atom_site_fract_z
Si Si1 0.001427 0.393289 0.673950
Si Si2 0.514318 0.758530 0.822856
Si Si3 0.306435 0.392298 0.330787
Si Si4 0.160962 0.764083 0.179122
Si Si5 0.570974 0.421117 0.500000
O O1 0.001933 0.373383 0.500000
O O2 0.942581 0.442581 0.693385
O O3 0.994226 0.332581 0.778119
O O4 0.065758 0.434243 0.702034
O O5 0.455041 0.721543 0.747431
O O6 0.586327 0.738645 0.772826
O O7 0.510895 0.750037 0.000000
O O8 0.279735 0.387358 0.500000
O O9 0.302174 0.325834 0.243770
O O10 0.382401 0.402904 0.359122
O O11 0.199927 0.699927 0.222739
O O12 0.161269 0.767800 0.000000
O O13 0.587199 0.494754 0.500000
#
# Coordination Sequence:
#
# PCOD9564255 Si02
#       5
#    16  16  16  16   8
#     4   9  19  36  57  82 113 150 195 246 296 352
#     4  11  22  37  59  86 118 157 198 245 300 362
#     4  10  22  36  58  83 114 148 193 239 294 343
#     4  10  22  40  60  85 120 159 199 244 298 361
#     4   9  18  34  57  82 108 137 175 228 286 342
#
# _framework density 18.421078999999999
#
# number of rings (size 3 to 8) (size 9 to 14) (size 15 to 20)
#    0.667    1.444    0.000    4.000    0.000    4.000 
#    0.000    1.111    0.000    0.000    0.000    9.333 
#    0.000    0.000    0.000    0.000    0.000    0.000 
#
# Total GULP energy -401286.809551 kJ/mol
# GULP energy per Si atom -5573.427910 kJ/mol
# Density = 1.837915 g / cm^3
# Si number density = 18.421079 Si / 1000 Ang^3
#
#
#
# Elastic Constant Matrix: (Units=GPa)
#
#
# Indices 1 2 3 4 5 6 
#
# 1 161.6463 -40.7314 33.2504 0.0000 0.0000 0.0000
# 2 -40.7314 161.6463 33.2504 0.0000 0.0000 0.0000
# 3 33.2504 33.2504 43.8016 0.0000 0.0000 0.0000
# 4 0.0000 0.0000 0.0000 32.8997 0.0000 0.0000
# 5 0.0000 0.0000 0.0000 0.0000 32.8997 0.0000
# 6 0.0000 0.0000 0.0000 0.0000 0.0000 44.1510
#
#
#
# Elastic Compliance Matrix: (Units=1/GPa)
#
#
# Indices 1 2 3 4 5 6 
#
# 1 0.009570 0.004628 -0.010778 0.000000 0.000000 0.000000
# 2 0.004628 0.009570 -0.010778 0.000000 0.000000 0.000000
# 3 -0.010778 -0.010778 0.039193 0.000000 0.000000 0.000000
# 4 0.000000 0.000000 0.000000 0.030395 0.000000 0.000000
# 5 0.000000 0.000000 0.000000 0.000000 0.030395 0.000000
# 6 0.000000 0.000000 0.000000 0.000000 0.000000 0.022650
#
#
# Mechanical properties :
#
#
# Convention : Reuss Voigt Hill
#
# Bulk Modulus (GPa) = 40.85316 46.51481 43.68398
# Shear Modulus (GPa) = 27.20541 44.74505 35.97523
#
# Velocity S-wave (km/s) = 3.84717 4.93385 4.42400
# Velocity P-wave (km/s) = 6.47764 7.60019 7.06125
#
# Compressibility (1/GPa) = 0.02447791
#
# Stress axis : x y z
#
# Youngs Moduli (GPa) = 104.49800 104.49800 25.51446
#
# Poissons Ratio (x) = -0.48365 0.27499
# Poissons Ratio (y) = -0.48365 0.27499
# Poissons Ratio (z) = 1.12626 1.12626
#
# Static dielectric constant tensor:
#      x y z
#    x 1.630100 0.000000 0.000000 
#    y 0.000000 1.630100 0.000000 
#    z 0.000000 0.000000 1.632500 
# 
# From -- ./inp_files/1558.got.cif
#   From: 2010.05.17/outbox.cif.g08.bks.cpg/sg127_1_cif.got.tgz:1558.got - 2010.05.20 12:03:00.
