data_PCOD9564272
_publ_section_title
;
Structure prediction by ZEFSAII (Michael W. Deem and Ramdas Pophale) SiO2 
 PCOD9564272
Probable space group: P 4/M B M
;
_chemical_formula_sum "Si O2"
_cell_formula_units_Z 104
_cell_length_a 14.582343
_cell_length_b 14.582343
_cell_length_c 28.096020
_cell_angle_alpha 90.000000
_cell_angle_beta 90.000000
_cell_angle_gamma 90.000000
_cell_volume 5974.470513
_symmetry_space_group_name_H-M "P 4/M B M"
_symmetry_group_IT_number 127
_symmetry_cell_setting 'tetragonal'
loop_
_space_group_symop_operation_xyz
x,y,z
-y,x,z
-x,-y,z
y,-x,z
1/2+x,1/2-y,-z
1/2-x,1/2+y,-z
1/2+y,1/2+x,-z
1/2-y,1/2-x,-z
-x,-y,-z
y,-x,-z
x,y,-z
-y,x,-z
1/2-x,1/2+y,z
1/2+x,1/2-y,z
1/2-y,1/2-x,z
1/2+y,1/2+x,z
loop_
_atom_site_type_symbol
_atom_site_label
_atom_site_fract_x
_atom_site_fract_y
_atom_site_fract_z
Si Si1 0.100157 0.751391 0.557095
Si Si2 0.075884 0.424117 0.945774
Si Si3 0.263576 0.448636 0.900989
Si Si4 0.944888 0.855224 0.803718
Si Si5 0.635561 0.717247 0.944334
Si Si6 0.058120 0.144060 0.304066
Si Si7 0.742170 0.603928 0.399487
O O1 0.096031 0.757903 0.500000
O O2 0.160856 0.660856 0.569356
O O3 0.158828 0.837777 0.576824
O O4 0.996976 0.748510 0.577401
O O5 0.159352 0.462312 0.915342
O O6 0.000000 0.500000 0.950308
O O7 0.102787 0.397214 0.000000
O O8 0.454839 0.307490 0.915064
O O9 0.286830 0.424310 0.846771
O O10 0.297494 0.367146 0.934636
O O11 0.929757 0.820961 0.749947
O O12 0.051118 0.886540 0.808015
O O13 0.690903 0.809098 0.929959
O O14 0.612588 0.726333 0.000000
O O15 0.088356 0.213877 0.344609
O O16 0.951268 0.114701 0.309370
O O17 0.832894 0.667107 0.404522
#
# Coordination Sequence:
#
# PCOD9564272 Si02
#       7
#    16   8  16  16  16  16  16
#     4  10  22  38  57  86 124 160 198 246 296 352
#     4  11  24  42  60  78 108 157 201 227 272 351
#     4  12  21  37  59  81 112 144 178 233 288 333
#     4   9  18  34  56  86 115 141 176 228 292 352
#     4  11  23  37  54  80 110 142 184 227 273 337
#     4   9  17  34  60  83 109 145 191 239 287 341
#     4  11  21  36  59  87 118 156 202 249 296 346
#
# _framework density 17.407401
#
# number of rings (size 3 to 8) (size 9 to 14) (size 15 to 20)
#    0.000    1.615    3.846    3.231    0.000    3.077 
#    1.385    2.308    0.000    1.846    0.000    0.000 
#    0.000    0.000    0.000    0.000    0.000    0.000 
#
# Total GULP energy -579927.602290 kJ/mol
# GULP energy per Si atom -5576.226945 kJ/mol
# Density = 1.736778 g / cm^3
# Si number density = 17.407401 Si / 1000 Ang^3
#
#
#
# Elastic Constant Matrix: (Units=GPa)
#
#
# Indices 1 2 3 4 5 6 
#
# 1 92.2557 24.3060 38.0676 0.0000 0.0000 0.0000
# 2 24.3060 92.2557 38.0676 0.0000 0.0000 0.0000
# 3 38.0676 38.0676 111.7476 0.0000 0.0000 0.0000
# 4 0.0000 0.0000 0.0000 20.7695 0.0000 0.0000
# 5 0.0000 0.0000 0.0000 0.0000 20.7693 0.0000
# 6 0.0000 0.0000 0.0000 0.0000 0.0000 16.5915
#
#
#
# Elastic Compliance Matrix: (Units=1/GPa)
#
#
# Indices 1 2 3 4 5 6 
#
# 1 0.012876 -0.001841 -0.003759 0.000000 0.000000 0.000000
# 2 -0.001841 0.012876 -0.003759 0.000000 0.000000 0.000000
# 3 -0.003759 -0.003759 0.011510 0.000000 0.000000 0.000000
# 4 0.000000 0.000000 0.000000 0.048148 0.000000 0.000000
# 5 0.000000 0.000000 0.000000 0.000000 0.048148 0.000000
# 6 0.000000 0.000000 0.000000 0.000000 0.000000 0.060272
#
#
# Mechanical properties :
#
#
# Convention : Reuss Voigt Hill
#
# Bulk Modulus (GPa) = 53.92937 55.23794 54.58366
# Shear Modulus (GPa) = 22.85950 24.68057 23.77004
#
# Velocity S-wave (km/s) = 3.62775 3.76948 3.69929
# Velocity P-wave (km/s) = 6.97104 7.12367 7.04777
#
# Compressibility (1/GPa) = 0.01854277
#
# Stress axis : x y z
#
# Youngs Moduli (GPa) = 77.66640 77.66635 86.88281
#
# Poissons Ratio (x) = 0.14300 0.32659
# Poissons Ratio (y) = 0.14300 0.32659
# Poissons Ratio (z) = 0.29194 0.29194
#
# Static dielectric constant tensor:
#      x y z
#    x 1.665820 0.000000 0.000000 
#    y 0.000000 1.665820 0.000000 
#    z 0.000000 0.000000 1.580450 
# 
# From -- ./inp_files/6655.got.cif
#   From: 2010.05.17/outbox.cif.g08.bks.cpg/sg127_4_cif.got.tgz:6655.got - 2010.05.20 12:03:00.
