data_PCOD9564531
_publ_section_title
;
Structure prediction by ZEFSAII (Michael W. Deem and Ramdas Pophale) SiO2 
 PCOD9564531
Probable space group: P 4/M N C
;
_chemical_formula_sum "Si O2"
_cell_formula_units_Z 112
_cell_length_a 18.745049
_cell_length_b 18.745049
_cell_length_c 14.028596
_cell_angle_alpha 90.000000
_cell_angle_beta 90.000000
_cell_angle_gamma 90.000000
_cell_volume 4929.324041
_symmetry_space_group_name_H-M "P 4/M N C"
_symmetry_group_IT_number 128
_symmetry_cell_setting 'tetragonal'
loop_
_space_group_symop_operation_xyz
x,y,z
-y,x,z
-x,-y,z
y,-x,z
1/2+x,1/2-y,1/2-z
1/2-x,1/2+y,1/2-z
1/2+y,1/2+x,1/2-z
1/2-y,1/2-x,1/2-z
-x,-y,-z
y,-x,-z
x,y,-z
-y,x,-z
1/2-x,1/2+y,1/2+z
1/2+x,1/2-y,1/2+z
1/2-y,1/2-x,1/2+z
1/2+y,1/2+x,1/2+z
loop_
_atom_site_type_symbol
_atom_site_label
_atom_site_fract_x
_atom_site_fract_y
_atom_site_fract_z
Si Si1 0.038985 0.802718 0.616965
Si Si2 0.438450 0.946019 0.637112
Si Si3 0.877258 0.822477 0.616170
Si Si4 0.278634 0.936967 0.108097
Si Si5 0.653142 0.926179 0.389436
Si Si6 0.755041 0.220129 0.883488
Si Si7 0.715985 0.908985 0.883315
O O1 0.037010 0.801134 0.500000
O O2 0.094994 0.863587 0.643669
O O3 0.078359 0.731172 0.652001
O O4 0.957118 0.803692 0.648045
O O5 0.443471 0.943471 0.750000
O O6 0.438143 0.865342 0.603021
O O7 0.500000 0.000000 0.601728
O O8 0.368759 0.991671 0.614367
O O9 0.876946 0.819399 0.500000
O O10 0.811620 0.770629 0.645141
O O11 0.256759 0.861132 0.150797
O O12 0.256964 0.013702 0.150390
O O13 0.250618 0.935464 0.000000
O O14 0.659650 0.906578 0.500000
O O15 0.598126 0.867439 0.352188
O O16 0.833780 0.248355 0.856709
O O17 0.753462 0.220152 0.000000
O O18 0.719834 0.913583 0.000000
#
# Coordination Sequence:
#
# PCOD9564531 Si02
#       7
#    16  16  16  16  16  16  16
#     4   9  16  24  38  60  87 123 162 200 234 270
#     4  11  22  32  44  68 103 132 155 193 249 292
#     4   9  15  23  34  55  89 125 158 194 238 276
#     4  10  19  31  51  74  94 124 165 201 236 291
#     4  10  17  29  48  67  91 127 168 198 230 292
#     4   9  16  28  45  69  98 122 153 202 250 284
#     4   9  16  27  46  71  96 122 156 199 243 286
#
# _framework density 22.721166
#
# number of rings (size 3 to 8) (size 9 to 14) (size 15 to 20)
#    0.000    2.429    2.857    1.286    0.000    3.143 
#    0.000    1.429    0.000    2.143    0.000    3.000 
#    0.000    0.000    0.000    0.000    0.000    0.000 
#
# Total GULP energy -625035.377360 kJ/mol
# GULP energy per Si atom -5580.673012 kJ/mol
# Density = 2.266945 g / cm^3
# Si number density = 22.721166 Si / 1000 Ang^3
#
#
#
# Elastic Constant Matrix: (Units=GPa)
#
#
# Indices 1 2 3 4 5 6 
#
# 1 159.8790 66.5242 6.4995 0.0000 0.0000 0.0000
# 2 66.5242 159.8790 6.4995 0.0000 0.0000 0.0000
# 3 6.4995 6.4995 75.6993 0.0000 0.0000 0.0000
# 4 0.0000 0.0000 0.0000 -1.5013 0.0000 0.0000
# 5 0.0000 0.0000 0.0000 0.0000 -1.5013 0.0000
# 6 0.0000 0.0000 0.0000 0.0000 0.0000 32.3930
#
#
#
# Elastic Compliance Matrix: (Units=1/GPa)
#
#
# Indices 1 2 3 4 5 6 
#
# 1 0.007575 -0.003137 -0.000381 0.000000 0.000000 0.000000
# 2 -0.003137 0.007575 -0.000381 0.000000 0.000000 0.000000
# 3 -0.000381 -0.000381 0.013276 0.000000 0.000000 0.000000
# 4 0.000000 0.000000 0.000000 -0.666097 0.000000 0.000000
# 5 0.000000 0.000000 0.000000 0.000000 -0.666097 0.000000
# 6 0.000000 0.000000 0.000000 0.000000 0.000000 0.030871
#
#
# Mechanical properties :
#
#
# Convention : Reuss Voigt Hill
#
# Bulk Modulus (GPa) = 48.47611 61.61153 55.04382
# Shear Modulus (GPa) = -3.97386 26.94036 11.48325
#
# Velocity S-wave (km/s) = -1.32392 3.44713 2.25055
# Velocity P-wave (km/s) = 4.36400 6.55887 5.57061
#
# Compressibility (1/GPa) = 0.02062872
#
# Stress axis : x y z
#
# Youngs Moduli (GPa) = 132.00794 132.00794 75.32613
#
# Poissons Ratio (x) = 0.41405 0.02871
# Poissons Ratio (y) = 0.41405 0.02871
# Poissons Ratio (z) = 0.05031 0.05031
#
# Static dielectric constant tensor:
#      x y z
#    x 1.827510 0.000000 0.000000 
#    y 0.000000 1.827510 0.000000 
#    z 0.000000 0.000000 1.987050 
# 
# From -- ./inp_files/6562.got.cif
#   From: 2010.05.17/outbox.cif.g08.bks.cpg/sg128_4_cif.got.tgz:6562.got - 2010.05.20 12:07:25.
