data_PCOD9564717
_publ_section_title
;
Structure prediction by ZEFSAII (Michael W. Deem and Ramdas Pophale) SiO2 
 PCOD9564717
Probable space group: P 4/M N C
;
_chemical_formula_sum "Si O2"
_cell_formula_units_Z 96
_cell_length_a 15.282207
_cell_length_b 15.282207
_cell_length_c 17.784545
_cell_angle_alpha 90.000000
_cell_angle_beta 90.000000
_cell_angle_gamma 90.000000
_cell_volume 4153.506693
_symmetry_space_group_name_H-M "P 4/M N C"
_symmetry_group_IT_number 128
_symmetry_cell_setting 'tetragonal'
loop_
_space_group_symop_operation_xyz
x,y,z
-y,x,z
-x,-y,z
y,-x,z
1/2+x,1/2-y,1/2-z
1/2-x,1/2+y,1/2-z
1/2+y,1/2+x,1/2-z
1/2-y,1/2-x,1/2-z
-x,-y,-z
y,-x,-z
x,y,-z
-y,x,-z
1/2-x,1/2+y,1/2+z
1/2+x,1/2-y,1/2+z
1/2-y,1/2-x,1/2+z
1/2+y,1/2+x,1/2+z
loop_
_atom_site_type_symbol
_atom_site_label
_atom_site_fract_x
_atom_site_fract_y
_atom_site_fract_z
Si Si1 0.571940 0.380942 0.090992
Si Si2 0.358180 0.487937 0.702591
Si Si3 0.431495 0.074983 0.909754
Si Si4 0.259403 0.851588 0.813802
Si Si5 0.910977 0.687570 0.410990
Si Si6 0.270936 0.599573 0.410286
O O1 0.616173 0.470708 0.116320
O O2 0.611562 0.287729 0.108373
O O3 0.571153 0.384970 0.000000
O O4 0.425975 0.411079 0.723252
O O5 0.269269 0.441857 0.726932
O O6 0.329653 0.516811 0.617407
O O7 0.488097 0.163227 0.897255
O O8 0.330568 0.084893 0.885440
O O9 0.500000 0.000000 0.882134
O O10 0.424688 0.060862 0.000000
O O11 0.282820 0.782820 0.750000
O O12 0.344303 0.869748 0.863822
O O13 0.184195 0.811934 0.868147
O O14 0.896429 0.674171 0.500000
O O15 0.273951 0.610313 0.500000
#
# Coordination Sequence:
#
# PCOD9564717 Si02
#       6
#    16  16  16  16  16  16
#     4   8  15  28  47  75 110 144 186 241 292 349
#     4   9  20  41  67  93 126 168 220 281 340 399
#     4   9  18  33  56  89 124 157 201 264 330 394
#     4  11  24  42  59  91 135 176 219 276 346 424
#     4  10  20  34  58  85 116 163 217 266 321 393
#     4  10  21  39  68 100 132 171 225 291 352 408
#
# _framework density 23.113001000000001
#
# number of rings (size 3 to 8) (size 9 to 14) (size 15 to 20)
#    0.000    2.500    0.000    2.000    2.333    4.667 
#    6.000    3.333    0.000    4.000    0.000    0.000 
#    0.000    0.000    0.000    0.000    0.000    0.000 
#
# Total GULP energy -534513.802455 kJ/mol
# GULP energy per Si atom -5567.852109 kJ/mol
# Density = 2.306039 g / cm^3
# Si number density = 23.113001 Si / 1000 Ang^3
#
#
#
# Elastic Constant Matrix: (Units=GPa)
#
#
# Indices 1 2 3 4 5 6 
#
# 1 68.3971 13.0194 20.6573 0.0000 0.0000 0.0000
# 2 13.0194 68.3971 20.6573 0.0000 0.0000 0.0000
# 3 20.6573 20.6573 91.4827 0.0000 0.0000 0.0000
# 4 0.0000 0.0000 0.0000 16.7571 0.0000 0.0000
# 5 0.0000 0.0000 0.0000 0.0000 16.7571 0.0000
# 6 0.0000 0.0000 0.0000 0.0000 0.0000 36.2864
#
#
#
# Elastic Compliance Matrix: (Units=1/GPa)
#
#
# Indices 1 2 3 4 5 6 
#
# 1 0.015965 -0.002093 -0.003132 0.000000 0.000000 0.000000
# 2 -0.002093 0.015965 -0.003132 0.000000 0.000000 0.000000
# 3 -0.003132 -0.003132 0.012346 0.000000 0.000000 0.000000
# 4 0.000000 0.000000 0.000000 0.059676 0.000000 0.000000
# 5 0.000000 0.000000 0.000000 0.000000 0.059676 0.000000
# 6 0.000000 0.000000 0.000000 0.000000 0.000000 0.027559
#
#
# Mechanical properties :
#
#
# Convention : Reuss Voigt Hill
#
# Bulk Modulus (GPa) = 36.28419 37.43830 36.86125
# Shear Modulus (GPa) = 23.03212 25.55632 24.29422
#
# Velocity S-wave (km/s) = 3.16016 3.32883 3.24559
# Velocity P-wave (km/s) = 5.38964 5.56848 5.47979
#
# Compressibility (1/GPa) = 0.02756021
#
# Stress axis : x y z
#
# Youngs Moduli (GPa) = 62.63728 62.63728 81.00023
#
# Poissons Ratio (x) = 0.13109 0.25372
# Poissons Ratio (y) = 0.13109 0.25372
# Poissons Ratio (z) = 0.19620 0.19620
#
# Static dielectric constant tensor:
#      x y z
#    x 1.902110 0.000000 0.000000 
#    y 0.000000 1.902110 0.000000 
#    z 0.000000 0.000000 1.884380 
# 
# From -- ./inp_files/5773.got.cif
#   From: 2010.05.17/outbox.cif.g08.bks.cpg/sg128_3_cif.got.tgz:5773.got - 2010.05.20 12:07:25.
