data_PCOD9564742
_publ_section_title
;
Structure prediction by ZEFSAII (Michael W. Deem and Ramdas Pophale) SiO2 
 PCOD9564742
Probable space group: P 4/M N C
;
_chemical_formula_sum "Si O2"
_cell_formula_units_Z 96
_cell_length_a 24.406888
_cell_length_b 24.406888
_cell_length_c 9.017182
_cell_angle_alpha 90.000000
_cell_angle_beta 90.000000
_cell_angle_gamma 90.000000
_cell_volume 5371.500888
_symmetry_space_group_name_H-M "P 4/M N C"
_symmetry_group_IT_number 128
_symmetry_cell_setting 'tetragonal'
loop_
_space_group_symop_operation_xyz
x,y,z
-y,x,z
-x,-y,z
y,-x,z
1/2+x,1/2-y,1/2-z
1/2-x,1/2+y,1/2-z
1/2+y,1/2+x,1/2-z
1/2-y,1/2-x,1/2-z
-x,-y,-z
y,-x,-z
x,y,-z
-y,x,-z
1/2-x,1/2+y,1/2+z
1/2+x,1/2-y,1/2+z
1/2-y,1/2-x,1/2+z
1/2+y,1/2+x,1/2+z
loop_
_atom_site_type_symbol
_atom_site_label
_atom_site_fract_x
_atom_site_fract_y
_atom_site_fract_z
Si Si1 0.733382 0.848003 0.322827
Si Si2 0.853055 0.728339 0.173430
Si Si3 0.445738 0.864888 0.326735
Si Si4 0.143608 0.561519 0.822480
Si Si5 0.559983 0.432568 0.678401
Si Si6 0.640413 0.344244 0.178068
O O1 0.704612 0.795389 0.250000
O O2 0.731426 0.840728 0.500000
O O3 0.695722 0.900201 0.284727
O O4 0.796300 0.856809 0.280449
O O5 0.801175 0.698826 0.250000
O O6 0.902826 0.685156 0.183808
O O7 0.869277 0.784044 0.255065
O O8 0.841427 0.738477 0.000000
O O9 0.416493 0.916493 0.250000
O O10 0.455872 0.875881 0.500000
O O11 0.501516 0.850702 0.244035
O O12 0.091595 0.591595 0.750000
O O13 0.138141 0.559790 0.000000
O O14 0.574923 0.495620 0.716358
O O15 0.564681 0.427154 0.500000
O O16 0.598992 0.388894 0.756426
O O17 0.636044 0.343121 0.000000
#
# Coordination Sequence:
#
# PCOD9564742 Si02
#       6
#    16  16  16  16  16  16
#     4   9  20  36  53  77 109 143 177 218 267 316
#     4  10  21  37  56  80 112 147 183 226 275 325
#     4  10  21  37  56  79 107 141 182 225 272 321
#     4  10  20  36  56  78 108 143 181 225 272 320
#     4   9  20  40  61  80 107 143 182 226 276 327
#     4  11  22  35  56  86 114 143 182 223 268 328
#
# _framework density 17.872098999999999
#
# number of rings (size 3 to 8) (size 9 to 14) (size 15 to 20)
#    0.000    2.167    0.000    3.000    0.000    7.667 
#    0.000    5.833    0.000    0.000    0.000    0.000 
#    0.000    0.000    0.000    0.000    0.000    0.000 
#
# Total GULP energy -536034.350988 kJ/mol
# GULP energy per Si atom -5583.691156 kJ/mol
# Density = 1.783142 g / cm^3
# Si number density = 17.872099 Si / 1000 Ang^3
#
#
#
# Elastic Constant Matrix: (Units=GPa)
#
#
# Indices 1 2 3 4 5 6 
#
# 1 108.1567 48.3174 57.9361 0.0000 0.0000 0.0000
# 2 48.3174 108.1497 57.9333 0.0000 0.0000 0.0000
# 3 57.9361 57.9333 83.1196 0.0000 0.0000 0.0000
# 4 0.0000 0.0000 0.0000 32.7399 0.0000 0.0000
# 5 0.0000 0.0000 0.0000 0.0000 32.7398 0.0000
# 6 0.0000 0.0000 0.0000 0.0000 0.0000 25.6970
#
#
#
# Elastic Compliance Matrix: (Units=1/GPa)
#
#
# Indices 1 2 3 4 5 6 
#
# 1 0.014960 -0.001752 -0.009206 0.000000 0.000000 0.000000
# 2 -0.001752 0.014961 -0.009206 0.000000 0.000000 0.000000
# 3 -0.009206 -0.009206 0.024865 0.000000 0.000000 0.000000
# 4 0.000000 0.000000 0.000000 0.030544 0.000000 0.000000
# 5 0.000000 0.000000 0.000000 0.000000 0.030544 0.000000
# 6 0.000000 0.000000 0.000000 0.000000 0.000000 0.038915
#
#
# Mechanical properties :
#
#
# Convention : Reuss Voigt Hill
#
# Bulk Modulus (GPa) = 69.17496 69.75551 69.46524
# Shear Modulus (GPa) = 25.00798 27.25129 26.12964
#
# Velocity S-wave (km/s) = 3.74475 3.90910 3.82781
# Velocity P-wave (km/s) = 7.58202 7.71297 7.64778
#
# Compressibility (1/GPa) = 0.01445610
#
# Stress axis : x y z
#
# Youngs Moduli (GPa) = 66.84454 66.84146 40.21783
#
# Poissons Ratio (x) = 0.11710 0.37026
# Poissons Ratio (y) = 0.11711 0.37026
# Poissons Ratio (z) = 0.61540 0.61536
#
# Static dielectric constant tensor:
#      x y z
#    x 1.593070 0.000000 0.000000 
#    y 0.000000 1.593070 0.000000 
#    z 0.000000 0.000000 1.598300 
# 
# From -- ./inp_files/1434.got.cif
#   From: 2010.05.17/outbox.cif.g08.bks.cpg/sg128_1_cif.got.tgz:1434.got - 2010.05.20 12:07:25.
