data_PCOD9564285
_publ_section_title
;
Structure prediction by ZEFSAII (Michael W. Deem and Ramdas Pophale) SiO2 
 PCOD9564285
Probable space group: P 4/M B M
;
_chemical_formula_sum "Si O2"
_cell_formula_units_Z 88
_cell_length_a 14.473537
_cell_length_b 14.473537
_cell_length_c 22.873032
_cell_angle_alpha 90.000000
_cell_angle_beta 90.000000
_cell_angle_gamma 90.000000
_cell_volume 4791.517613
_symmetry_space_group_name_H-M "P 4/M B M"
_symmetry_group_IT_number 127
_symmetry_cell_setting 'tetragonal'
loop_
_space_group_symop_operation_xyz
x,y,z
-y,x,z
-x,-y,z
y,-x,z
1/2+x,1/2-y,-z
1/2-x,1/2+y,-z
1/2+y,1/2+x,-z
1/2-y,1/2-x,-z
-x,-y,-z
y,-x,-z
x,y,-z
-y,x,-z
1/2-x,1/2+y,z
1/2+x,1/2-y,z
1/2-y,1/2-x,z
1/2+y,1/2+x,z
loop_
_atom_site_type_symbol
_atom_site_label
_atom_site_fract_x
_atom_site_fract_y
_atom_site_fract_z
Si Si1 0.570688 0.070688 0.570004
Si Si2 0.407867 0.755872 0.069817
Si Si3 0.421382 0.364591 0.246108
Si Si4 0.509066 0.274971 0.431476
Si Si5 0.834486 0.181010 0.632640
Si Si6 0.266707 0.611826 0.123526
O O1 0.564081 0.064081 0.500000
O O2 0.673720 0.044954 0.582993
O O3 0.500000 0.000000 0.598126
O O4 0.345955 0.845955 0.086863
O O5 0.345183 0.667317 0.087085
O O6 0.508298 0.750255 0.099741
O O7 0.419958 0.758103 0.000000
O O8 0.532153 0.378099 0.245300
O O9 0.382535 0.316221 0.304297
O O10 0.393858 0.306676 0.189103
O O11 0.523804 0.296943 0.500000
O O12 0.402452 0.275554 0.415279
O O13 0.574356 0.333824 0.389045
O O14 0.738705 0.238705 0.633155
O O15 0.174468 0.674468 0.120861
#
# Coordination Sequence:
#
# PCOD9564285 Si02
#       6
#     8  16  16  16  16  16
#     4   9  18  36  58  82 114 153 195 233 284 360
#     4  10  22  39  62  97 135 169 209 255 307 369
#     4  11  22  41  65  88 117 159 208 260 313 361
#     4  11  23  38  60  89 121 156 194 245 309 374
#     4  12  24  41  63  88 121 159 204 255 310 372
#     4  11  22  40  65  91 126 169 211 257 310 364
#
# _framework density 18.365788999999999
#
# number of rings (size 3 to 8) (size 9 to 14) (size 15 to 20)
#    0.000    1.182    4.545    2.182    0.000    4.000 
#    0.000    2.727    2.000    0.000    0.000    0.000 
#    0.000    0.000    0.000    0.000    0.000    0.000 
#
# Total GULP energy -490744.192576 kJ/mol
# GULP energy per Si atom -5576.638552 kJ/mol
# Density = 1.832399 g / cm^3
# Si number density = 18.365789 Si / 1000 Ang^3
#
#
#
# Elastic Constant Matrix: (Units=GPa)
#
#
# Indices 1 2 3 4 5 6 
#
# 1 95.2512 38.4686 38.0960 0.0000 0.0000 0.0000
# 2 38.4686 95.2512 38.0960 0.0000 0.0000 0.0000
# 3 38.0960 38.0960 105.8052 0.0000 0.0000 0.0000
# 4 0.0000 0.0000 0.0000 27.5884 0.0000 0.0000
# 5 0.0000 0.0000 0.0000 0.0000 27.5884 0.0000
# 6 0.0000 0.0000 0.0000 0.0000 0.0000 24.4043
#
#
#
# Elastic Compliance Matrix: (Units=1/GPa)
#
#
# Indices 1 2 3 4 5 6 
#
# 1 0.013510 -0.004101 -0.003388 0.000000 0.000000 0.000000
# 2 -0.004101 0.013510 -0.003388 0.000000 0.000000 0.000000
# 3 -0.003388 -0.003388 0.011891 0.000000 0.000000 0.000000
# 4 0.000000 0.000000 0.000000 0.036247 0.000000 0.000000
# 5 0.000000 0.000000 0.000000 0.000000 0.036247 0.000000
# 6 0.000000 0.000000 0.000000 0.000000 0.000000 0.040976
#
#
# Mechanical properties :
#
#
# Convention : Reuss Voigt Hill
#
# Bulk Modulus (GPa) = 58.28380 58.40319 58.34349
# Shear Modulus (GPa) = 27.80049 28.02605 27.91327
#
# Velocity S-wave (km/s) = 3.89486 3.91063 3.90276
# Velocity P-wave (km/s) = 7.21322 7.22909 7.22116
#
# Compressibility (1/GPa) = 0.01715743
#
# Stress axis : x y z
#
# Youngs Moduli (GPa) = 74.02046 74.02046 84.09855
#
# Poissons Ratio (x) = 0.30358 0.28489
# Poissons Ratio (y) = 0.30358 0.28489
# Poissons Ratio (z) = 0.25075 0.25075
#
# Static dielectric constant tensor:
#      x y z
#    x 1.662240 0.000000 0.000000 
#    y 0.000000 1.662240 0.000000 
#    z 0.000000 0.000000 1.614660 
# 
# From -- ./inp_files/5679.got.cif
#   From: 2010.05.17/outbox.cif.g08.bks.cpg/sg127_3_cif.got.tgz:5679.got - 2010.05.20 12:03:00.
