data_PCOD9564890
_publ_section_title
;
Structure prediction by ZEFSAII (Michael W. Deem and Ramdas Pophale) SiO2 
 PCOD9564890
Probable space group: P 4/M N C
;
_chemical_formula_sum "Si O2"
_cell_formula_units_Z 96
_cell_length_a 23.671670
_cell_length_b 23.671670
_cell_length_c 9.550225
_cell_angle_alpha 90.000000
_cell_angle_beta 90.000000
_cell_angle_gamma 90.000000
_cell_volume 5351.449102
_symmetry_space_group_name_H-M "P 4/M N C"
_symmetry_group_IT_number 128
_symmetry_cell_setting 'tetragonal'
loop_
_space_group_symop_operation_xyz
x,y,z
-y,x,z
-x,-y,z
y,-x,z
1/2+x,1/2-y,1/2-z
1/2-x,1/2+y,1/2-z
1/2+y,1/2+x,1/2-z
1/2-y,1/2-x,1/2-z
-x,-y,-z
y,-x,-z
x,y,-z
-y,x,-z
1/2-x,1/2+y,1/2+z
1/2+x,1/2-y,1/2+z
1/2-y,1/2-x,1/2+z
1/2+y,1/2+x,1/2+z
loop_
_atom_site_type_symbol
_atom_site_label
_atom_site_fract_x
_atom_site_fract_y
_atom_site_fract_z
Si Si1 0.951577 0.918505 0.500000
Si Si2 0.436009 0.144640 0.836432
Si Si3 0.555609 0.724746 0.835192
Si Si4 0.079431 0.051010 0.000000
Si Si5 0.377035 0.379948 0.750179
Si Si6 0.848011 0.568758 0.831745
Si Si7 0.441688 0.731941 0.333400
O O1 0.927440 0.887040 0.633196
O O2 0.018466 0.925440 0.500000
O O3 0.397010 0.102991 0.750000
O O4 0.426307 0.210902 0.803994
O O5 0.502919 0.135050 0.814460
O O6 0.424164 0.136388 0.000000
O O7 0.606601 0.680881 0.811934
O O8 0.501369 0.712908 0.736648
O O9 0.538322 0.722402 0.000000
O O10 0.109567 0.075735 0.866129
O O11 0.015881 0.075161 0.000000
O O12 0.316016 0.393944 0.687347
O O13 0.891564 0.608437 0.750000
O O14 0.787553 0.574703 0.754898
O O15 0.844699 0.579977 0.000000
O O16 0.448869 0.742520 0.500000
#
# Coordination Sequence:
#
# PCOD9564890 Si02
#       7
#     8  16  16   8  16  16  16
#     4  11  22  34  52  78 105 148 202 254 313 364
#     4   9  20  39  62  92 122 153 188 234 288 348
#     4  10  22  39  59  82 115 158 205 249 297 353
#     4  11  22  36  50  74 113 148 190 258 317 358
#     4  12  23  35  55  79 114 156 203 250 302 359
#     4  10  22  41  66  94 126 155 191 236 289 352
#     4  11  23  38  59  85 117 158 205 249 301 357
#
# _framework density 17.939066
#
# number of rings (size 3 to 8) (size 9 to 14) (size 15 to 20)
#    0.000    1.500    1.667    5.000    3.500    5.000 
#    0.000    2.500    0.000    2.000    0.000    0.000 
#    0.000    0.000    0.000    0.000    0.000    0.000 
#
# Total GULP energy -535914.932351 kJ/mol
# GULP energy per Si atom -5582.447212 kJ/mol
# Density = 1.789824 g / cm^3
# Si number density = 17.939066 Si / 1000 Ang^3
#
#
#
# Elastic Constant Matrix: (Units=GPa)
#
#
# Indices 1 2 3 4 5 6 
#
# 1 102.9173 58.5825 50.3377 0.0000 0.0000 0.0000
# 2 58.5825 102.9317 50.3369 0.0000 0.0000 0.0000
# 3 50.3377 50.3369 124.0010 0.0000 0.0000 0.0000
# 4 0.0000 0.0000 0.0000 31.9252 0.0000 0.0000
# 5 0.0000 0.0000 0.0000 0.0000 31.9253 0.0000
# 6 0.0000 0.0000 0.0000 0.0000 0.0000 27.9755
#
#
#
# Elastic Compliance Matrix: (Units=1/GPa)
#
#
# Indices 1 2 3 4 5 6 
#
# 1 0.015422 -0.007131 -0.003366 0.000000 0.000000 0.000000
# 2 -0.007131 0.015419 -0.003364 0.000000 0.000000 0.000000
# 3 -0.003366 -0.003364 0.010796 0.000000 0.000000 0.000000
# 4 0.000000 0.000000 0.000000 0.031323 0.000000 0.000000
# 5 0.000000 0.000000 0.000000 0.000000 0.031323 0.000000
# 6 0.000000 0.000000 0.000000 0.000000 0.000000 0.035746
#
#
# Mechanical properties :
#
#
# Convention : Reuss Voigt Hill
#
# Bulk Modulus (GPa) = 71.86467 72.04044 71.95256
# Shear Modulus (GPa) = 29.00394 29.73806 29.37100
#
# Velocity S-wave (km/s) = 4.02531 4.07594 4.05070
# Velocity P-wave (km/s) = 7.85822 7.89915 7.87871
#
# Compressibility (1/GPa) = 0.01391504
#
# Stress axis : x y z
#
# Youngs Moduli (GPa) = 64.84250 64.85427 92.62352
#
# Poissons Ratio (x) = 0.46250 0.31173
# Poissons Ratio (y) = 0.46242 0.31161
# Poissons Ratio (z) = 0.21823 0.21819
#
# Static dielectric constant tensor:
#      x y z
#    x 1.608290 0.000000 0.000000 
#    y 0.000000 1.608290 0.000000 
#    z 0.000000 0.000000 1.610680 
# 
# From -- ./inp_files/1539.got.cif
#   From: 2010.05.17/outbox.cif.g08.bks.cpg/sg128_1_cif.got.tgz:1539.got - 2010.05.20 12:07:25.
