data_PCOD9564670
_publ_section_title
;
Structure prediction by ZEFSAII (Michael W. Deem and Ramdas Pophale) SiO2 
 PCOD9564670
Probable space group: P 4/M N C
;
_chemical_formula_sum "Si O2"
_cell_formula_units_Z 64
_cell_length_a 13.013979
_cell_length_b 13.013979
_cell_length_c 18.233710
_cell_angle_alpha 90.000000
_cell_angle_beta 90.000000
_cell_angle_gamma 90.000000
_cell_volume 3088.127668
_symmetry_space_group_name_H-M "P 4/M N C"
_symmetry_group_IT_number 128
_symmetry_cell_setting 'tetragonal'
loop_
_space_group_symop_operation_xyz
x,y,z
-y,x,z
-x,-y,z
y,-x,z
1/2+x,1/2-y,1/2-z
1/2-x,1/2+y,1/2-z
1/2+y,1/2+x,1/2-z
1/2-y,1/2-x,1/2-z
-x,-y,-z
y,-x,-z
x,y,-z
-y,x,-z
1/2-x,1/2+y,1/2+z
1/2+x,1/2-y,1/2+z
1/2-y,1/2-x,1/2+z
1/2+y,1/2+x,1/2+z
loop_
_atom_site_type_symbol
_atom_site_label
_atom_site_fract_x
_atom_site_fract_y
_atom_site_fract_z
Si Si1 0.759607 0.304535 0.583873
Si Si2 0.128704 0.896384 0.630498
Si Si3 0.952055 0.386224 0.173582
Si Si4 0.718593 0.623266 0.713773
O O1 0.731992 0.319980 0.500000
O O2 0.792045 0.185809 0.597741
O O3 0.854015 0.376598 0.608768
O O4 0.670021 0.331930 0.641318
O O5 0.143396 0.901629 0.719016
O O6 0.014844 0.859985 0.607970
O O7 0.890033 0.390033 0.250000
O O8 0.000000 0.500000 0.163614
O O9 0.036836 0.299029 0.188087
O O10 0.788458 0.711543 0.750000
#
# Coordination Sequence:
#
# PCOD9564670 Si02
#       4
#    16  16  16  16
#     4  11  25  38  55  89 130 166 201 245 314 387
#     4  10  21  38  62  86 112 156 206 251 300 358
#     4  11  21  39  67  96 119 157 216 273 318 362
#     4  10  19  38  63  86 117 152 203 262 303 358
#
# _framework density 20.724532
#
# number of rings (size 3 to 8) (size 9 to 14) (size 15 to 20)
#    0.000    1.500    2.500    5.250    3.500    2.500 
#    0.000    1.250    0.000    0.000    0.000    5.250 
#    0.000    0.000    0.000    0.000    0.000    0.000 
#
# Total GULP energy -357295.863576 kJ/mol
# GULP energy per Si atom -5582.747868 kJ/mol
# Density = 2.067736 g / cm^3
# Si number density = 20.724532 Si / 1000 Ang^3
#
#
#
# Elastic Constant Matrix: (Units=GPa)
#
#
# Indices 1 2 3 4 5 6 
#
# 1 36.5182 13.8165 -0.9380 0.0000 0.0000 0.0000
# 2 13.8165 36.5169 -0.9382 0.0000 0.0000 0.0000
# 3 -0.9380 -0.9382 101.8003 0.0000 0.0000 0.0000
# 4 0.0000 0.0000 0.0000 7.0711 0.0000 0.0000
# 5 0.0000 0.0000 0.0000 0.0000 7.0712 0.0000
# 6 0.0000 0.0000 0.0000 0.0000 0.0000 39.5534
#
#
#
# Elastic Compliance Matrix: (Units=1/GPa)
#
#
# Indices 1 2 3 4 5 6 
#
# 1 0.031962 -0.012088 0.000183 0.000000 0.000000 0.000000
# 2 -0.012088 0.031963 0.000183 0.000000 0.000000 0.000000
# 3 0.000183 0.000183 0.009827 0.000000 0.000000 0.000000
# 4 0.000000 0.000000 0.000000 0.141420 0.000000 0.000000
# 5 0.000000 0.000000 0.000000 0.000000 0.141418 0.000000
# 6 0.000000 0.000000 0.000000 0.000000 0.000000 0.025282
#
#
# Mechanical properties :
#
#
# Convention : Reuss Voigt Hill
#
# Bulk Modulus (GPa) = 19.87783 22.07955 20.97869
# Shear Modulus (GPa) = 11.84596 21.59882 16.72239
#
# Velocity S-wave (km/s) = 2.39339 3.23179 2.84366
# Velocity P-wave (km/s) = 4.15332 4.96013 4.57455
#
# Compressibility (1/GPa) = 0.05030731
#
# Stress axis : x y z
#
# Youngs Moduli (GPa) = 31.28723 31.28619 101.76534
#
# Poissons Ratio (x) = 0.37820 -0.01863
# Poissons Ratio (y) = 0.37821 -0.01864
# Poissons Ratio (z) = -0.00573 -0.00573
#
# Static dielectric constant tensor:
#      x y z
#    x 1.778040 0.000000 0.000000 
#    y 0.000000 1.778040 0.000000 
#    z 0.000000 0.000000 1.742970 
# 
# From -- ./inp_files/3496.got.cif
#   From: 2010.05.17/outbox.cif.g08.bks.cpg/sg128_2_cif.got.tgz:3496.got - 2010.05.20 12:07:25.
