data_PCOD9564233
_publ_section_title
;
Structure prediction by ZEFSAII (Michael W. Deem and Ramdas Pophale) SiO2 
 PCOD9564233
Probable space group: P 4/M B M
;
_chemical_formula_sum "Si O2"
_cell_formula_units_Z 96
_cell_length_a 14.828721
_cell_length_b 14.828721
_cell_length_c 24.610948
_cell_angle_alpha 90.000000
_cell_angle_beta 90.000000
_cell_angle_gamma 90.000000
_cell_volume 5411.725142
_symmetry_space_group_name_H-M "P 4/M B M"
_symmetry_group_IT_number 127
_symmetry_cell_setting 'tetragonal'
loop_
_space_group_symop_operation_xyz
x,y,z
-y,x,z
-x,-y,z
y,-x,z
1/2+x,1/2-y,-z
1/2-x,1/2+y,-z
1/2+y,1/2+x,-z
1/2-y,1/2-x,-z
-x,-y,-z
y,-x,-z
x,y,-z
-y,x,-z
1/2-x,1/2+y,z
1/2+x,1/2-y,z
1/2-y,1/2-x,z
1/2+y,1/2+x,z
loop_
_atom_site_type_symbol
_atom_site_label
_atom_site_fract_x
_atom_site_fract_y
_atom_site_fract_z
Si Si1 0.402195 0.383053 0.938445
Si Si2 0.237012 0.996996 0.770227
Si Si3 0.423818 0.076182 0.730536
Si Si4 0.674816 0.676070 0.172232
Si Si5 0.560747 0.214227 0.561946
Si Si6 0.458593 0.645545 0.657158
Si Si7 0.422856 0.077145 0.605200
O O1 0.510738 0.378263 0.932706
O O2 0.354542 0.329166 0.890539
O O3 0.378875 0.355181 0.000000
O O4 0.336655 0.034951 0.759576
O O5 0.180904 0.082693 0.792540
O O6 0.227882 0.914876 0.812080
O O7 0.199792 0.957025 0.713577
O O8 0.399869 0.100132 0.667679
O O9 0.500000 0.000000 0.728735
O O10 0.738342 0.761659 0.183290
O O11 0.561616 0.247314 0.500000
O O12 0.642662 0.142662 0.568172
O O13 0.565245 0.290678 0.607018
O O14 0.468735 0.159544 0.574191
O O15 0.392946 0.560059 0.655072
O O16 0.500000 0.000000 0.607167
#
# Coordination Sequence:
#
# PCOD9564233 Si02
#       7
#    16  16   8  16  16  16   8
#     4   9  18  35  61  89 118 157 204 254 304 353
#     4  12  23  39  60  90 124 157 202 249 301 364
#     4  11  22  39  60  89 125 163 194 243 304 363
#     4  12  24  37  61  92 122 164 208 249 303 366
#     4  10  21  39  61  87 115 145 191 245 294 352
#     4  11  24  41  61  84 115 156 194 236 297 357
#     4   9  17  32  61  86 108 147 187 228 291 348
#
# _framework density 17.739260999999999
#
# number of rings (size 3 to 8) (size 9 to 14) (size 15 to 20)
#    0.000    1.333    5.833    1.250    0.000    3.000 
#    3.000    0.833    0.000    0.000    0.000    0.000 
#    0.000    5.333    0.000    0.000    0.000    0.000 
#
# Total GULP energy -535854.459670 kJ/mol
# GULP energy per Si atom -5581.817288 kJ/mol
# Density = 1.769889 g / cm^3
# Si number density = 17.739261 Si / 1000 Ang^3
#
#
#
# Elastic Constant Matrix: (Units=GPa)
#
#
# Indices 1 2 3 4 5 6 
#
# 1 38.7860 8.7588 21.7300 0.0000 0.0000 0.0000
# 2 8.7588 38.7860 21.7300 0.0000 0.0000 0.0000
# 3 21.7300 21.7300 100.5653 0.0000 0.0000 0.0000
# 4 0.0000 0.0000 0.0000 24.5003 0.0000 0.0000
# 5 0.0000 0.0000 0.0000 0.0000 24.5003 0.0000
# 6 0.0000 0.0000 0.0000 0.0000 0.0000 14.2916
#
#
#
# Elastic Compliance Matrix: (Units=1/GPa)
#
#
# Indices 1 2 3 4 5 6 
#
# 1 0.029756 -0.003547 -0.005663 0.000000 0.000000 0.000000
# 2 -0.003547 0.029756 -0.005663 0.000000 0.000000 0.000000
# 3 -0.005663 -0.005663 0.012391 0.000000 0.000000 0.000000
# 4 0.000000 0.000000 0.000000 0.040816 0.000000 0.000000
# 5 0.000000 0.000000 0.000000 0.000000 0.040816 0.000000
# 6 0.000000 0.000000 0.000000 0.000000 0.000000 0.069971
#
#
# Mechanical properties :
#
#
# Convention : Reuss Voigt Hill
#
# Bulk Modulus (GPa) = 23.72084 31.39721 27.55903
# Shear Modulus (GPa) = 18.70518 21.05303 19.87910
#
# Velocity S-wave (km/s) = 3.25075 3.44874 3.35121
# Velocity P-wave (km/s) = 5.24317 5.79622 5.52662
#
# Compressibility (1/GPa) = 0.04215702
#
# Stress axis : x y z
#
# Youngs Moduli (GPa) = 33.60629 33.60629 80.70229
#
# Poissons Ratio (x) = 0.11920 0.45704
# Poissons Ratio (y) = 0.11920 0.45704
# Poissons Ratio (z) = 0.19032 0.19032
#
# Static dielectric constant tensor:
#      x y z
#    x 1.592540 0.000000 0.000000 
#    y 0.000000 1.592540 0.000000 
#    z 0.000000 0.000000 1.603860 
# 
# From -- ./inp_files/5809.got.cif
#   From: 2010.05.17/outbox.cif.g08.bks.cpg/sg127_3_cif.got.tgz:5809.got - 2010.05.20 12:03:00.
