data_PCOD9564641
_publ_section_title
;
Structure prediction by ZEFSAII (Michael W. Deem and Ramdas Pophale) SiO2 
 PCOD9564641
Probable space group: P 4/M N C
;
_chemical_formula_sum "Si O2"
_cell_formula_units_Z 72
_cell_length_a 11.043521
_cell_length_b 11.043521
_cell_length_c 30.319891
_cell_angle_alpha 90.000000
_cell_angle_beta 90.000000
_cell_angle_gamma 90.000000
_cell_volume 3697.794383
_symmetry_space_group_name_H-M "P 4/M N C"
_symmetry_group_IT_number 128
_symmetry_cell_setting 'tetragonal'
loop_
_space_group_symop_operation_xyz
x,y,z
-y,x,z
-x,-y,z
y,-x,z
1/2+x,1/2-y,1/2-z
1/2-x,1/2+y,1/2-z
1/2+y,1/2+x,1/2-z
1/2-y,1/2-x,1/2-z
-x,-y,-z
y,-x,-z
x,y,-z
-y,x,-z
1/2-x,1/2+y,1/2+z
1/2+x,1/2-y,1/2+z
1/2-y,1/2-x,1/2+z
1/2+y,1/2+x,1/2+z
loop_
_atom_site_type_symbol
_atom_site_label
_atom_site_fract_x
_atom_site_fract_y
_atom_site_fract_z
Si Si1 0.436425 0.685106 0.316851
Si Si2 0.283200 0.292572 0.596810
Si Si3 0.786962 0.713039 0.750000
Si Si4 0.157404 0.127353 0.330461
Si Si5 0.641794 0.003464 0.947549
O O1 0.351887 0.570854 0.305929
O O2 0.403131 0.696740 0.368023
O O3 0.396013 0.790585 0.284865
O O4 0.222821 0.192020 0.628549
O O5 0.197084 0.363084 0.562576
O O6 0.398090 0.226492 0.574259
O O7 0.792001 0.825053 0.716198
O O8 0.016627 0.164392 0.332430
O O9 0.500000 0.000000 0.932455
O O10 0.642919 0.982709 0.000000
#
# Coordination Sequence:
#
# PCOD9564641 Si02
#       5
#    16  16   8  16  16
#     4  10  19  34  55  80 112 150 199 248 298 358
#     4  11  21  39  63  89 122 164 204 257 317 377
#     4  10  20  30  54  80 116 152 194 256 314 362
#     4  10  21  38  60  85 118 164 216 264 316 379
#     4  11  24  41  63  95 131 164 207 263 321 387
#
# _framework density 19.471066
#
# number of rings (size 3 to 8) (size 9 to 14) (size 15 to 20)
#    0.000    1.556    2.222    3.333    0.000    2.222 
#    0.000    1.111    0.000    5.333    0.000    9.333 
#    0.000    0.000    0.000    0.000    0.000    0.000 
#
# Total GULP energy -400888.564562 kJ/mol
# GULP energy per Si atom -5567.896730 kJ/mol
# Density = 1.942675 g / cm^3
# Si number density = 19.471066 Si / 1000 Ang^3
#
#
#
# Elastic Constant Matrix: (Units=GPa)
#
#
# Indices 1 2 3 4 5 6 
#
# 1 154.3981 -26.2187 45.8351 0.0000 0.0000 0.0000
# 2 -26.2187 154.3970 45.8349 0.0000 0.0000 0.0000
# 3 45.8351 45.8349 99.6072 0.0000 0.0000 0.0000
# 4 0.0000 0.0000 0.0000 19.1525 0.0000 0.0000
# 5 0.0000 0.0000 0.0000 0.0000 19.1527 0.0000
# 6 0.0000 0.0000 0.0000 0.0000 0.0000 29.1071
#
#
#
# Elastic Compliance Matrix: (Units=1/GPa)
#
#
# Indices 1 2 3 4 5 6 
#
# 1 0.008582 0.003046 -0.005351 0.000000 0.000000 0.000000
# 2 0.003046 0.008583 -0.005351 0.000000 0.000000 0.000000
# 3 -0.005351 -0.005351 0.014964 0.000000 0.000000 0.000000
# 4 0.000000 0.000000 0.000000 0.052212 0.000000 0.000000
# 5 0.000000 0.000000 0.000000 0.000000 0.052212 0.000000
# 6 0.000000 0.000000 0.000000 0.000000 0.000000 0.034356
#
#
# Mechanical properties :
#
#
# Convention : Reuss Voigt Hill
#
# Bulk Modulus (GPa) = 59.46302 59.92276 59.69289
# Shear Modulus (GPa) = 26.06518 36.34586 31.20552
#
# Velocity S-wave (km/s) = 3.66274 4.32517 4.00767
# Velocity P-wave (km/s) = 6.96369 7.46893 7.22073
#
# Compressibility (1/GPa) = 0.01681717
#
# Stress axis : x y z
#
# Youngs Moduli (GPa) = 116.51639 116.51558 66.82720
#
# Poissons Ratio (x) = -0.35490 0.35759
# Poissons Ratio (y) = -0.35490 0.35759
# Poissons Ratio (z) = 0.62347 0.62347
#
# Static dielectric constant tensor:
#      x y z
#    x 1.717400 0.000000 0.000000 
#    y 0.000000 1.717400 0.000000 
#    z 0.000000 0.000000 1.728790 
# 
# From -- ./inp_files/7114.got.cif
#   From: 2010.05.17/outbox.cif.g08.bks.cpg/sg128_4_cif.got.tgz:7114.got - 2010.05.20 12:07:25.
