data_PCOD9564486
_publ_section_title
;
Structure prediction by ZEFSAII (Michael W. Deem and Ramdas Pophale) SiO2 
 PCOD9564486
Probable space group: P 4/M B M
;
_chemical_formula_sum "Si O2"
_cell_formula_units_Z 88
_cell_length_a 27.000000
_cell_length_b 27.000000
_cell_length_c 9.000000
_cell_angle_alpha 90.000000
_cell_angle_beta 90.000000
_cell_angle_gamma 90.000000
_cell_volume 6561.000000
_symmetry_space_group_name_H-M "P 4/M B M"
_symmetry_group_IT_number 127
_symmetry_cell_setting 'tetragonal'
loop_
_space_group_symop_operation_xyz
x,y,z
-y,x,z
-x,-y,z
y,-x,z
1/2+x,1/2-y,-z
1/2-x,1/2+y,-z
1/2+y,1/2+x,-z
1/2-y,1/2-x,-z
-x,-y,-z
y,-x,-z
x,y,-z
-y,x,-z
1/2-x,1/2+y,z
1/2+x,1/2-y,z
1/2-y,1/2-x,z
1/2+y,1/2+x,z
loop_
_atom_site_type_symbol
_atom_site_label
_atom_site_fract_x
_atom_site_fract_y
_atom_site_fract_z
Si Si1 0.745330 0.839735 0.332044
Si Si2 0.270414 0.314934 0.830059
Si Si3 0.197565 0.385148 0.322632
Si Si4 0.960055 0.539946 0.318965
Si Si5 0.512715 0.150718 0.320827
Si Si6 0.672282 0.908980 0.823435
O O1 0.751747 0.857276 0.500000
O O2 0.704401 0.795600 0.334419
O O3 0.794393 0.815479 0.266087
O O4 0.721670 0.881422 0.229578
O O5 0.228100 0.271901 0.827009
O O6 0.243995 0.362277 0.760961
O O7 0.284886 0.322222 0.000000
O O8 0.205488 0.382640 0.500000
O O9 0.149908 0.350093 0.291750
O O10 0.184578 0.440768 0.279712
O O11 0.959945 0.540056 0.500000
O O12 0.905181 0.525148 0.272053
O O13 0.000000 0.500000 0.268462
O O14 0.509012 0.150574 0.500000
O O15 0.461740 0.167453 0.251430
O O16 0.626217 0.873784 0.776583
O O17 0.671270 0.912851 0.000000
#
# Coordination Sequence:
#
# PCOD9564486 Si02
#       6
#    16  16  16   8  16  16
#     4   9  16  27  43  60  75  94 122 156 193 235
#     4   9  16  25  39  59  80  99 119 147 191 241
#     4   9  16  27  41  57  77  99 128 164 200 237
#     4   9  16  26  41  57  71  93 133 181 219 245
#     4  10  18  29  43  58  74  99 135 174 209 242
#     4  10  20  31  41  55  77 102 129 165 208 249
#
# _framework density 13.41259
#
# number of rings (size 3 to 8) (size 9 to 14) (size 15 to 20)
#    0.000    2.636    0.909    2.182    0.000    6.909 
#    0.000    0.455    0.000    1.636    0.000    0.000 
#    0.000    0.000    0.000    0.000    0.000    0.909 
#
# Total GULP energy -490201.944439 kJ/mol
# GULP energy per Si atom -5570.476641 kJ/mol
# Density = 1.338206 g / cm^3
# Si number density = 13.412590 Si / 1000 Ang^3
#
#
#
# Elastic Constant Matrix: (Units=GPa)
#
#
# Indices 1 2 3 4 5 6 
#
# 1 113.8378 -17.6268 21.6349 0.0000 0.0000 0.0000
# 2 -17.6268 113.8380 21.6355 0.0000 0.0000 0.0000
# 3 21.6349 21.6355 17.1525 0.0000 0.0000 0.0000
# 4 0.0000 0.0000 0.0000 4.3255 0.0000 0.0000
# 5 0.0000 0.0000 0.0000 0.0000 4.3255 0.0000
# 6 0.0000 0.0000 0.0000 0.0000 0.0000 14.1581
#
#
#
# Elastic Compliance Matrix: (Units=1/GPa)
#
#
# Indices 1 2 3 4 5 6 
#
# 1 0.015813 0.008207 -0.030297 0.000000 0.000000 0.000000
# 2 0.008207 0.015813 -0.030297 0.000000 0.000000 0.000000
# 3 -0.030297 -0.030297 0.134730 0.000000 0.000000 0.000000
# 4 0.000000 0.000000 0.000000 0.231185 0.000000 0.000000
# 5 0.000000 0.000000 0.000000 0.000000 0.231188 0.000000
# 6 0.000000 0.000000 0.000000 0.000000 0.000000 0.070631
#
#
# Mechanical properties :
#
#
# Convention : Reuss Voigt Hill
#
# Bulk Modulus (GPa) = 16.23865 32.90173 24.57019
# Shear Modulus (GPa) = 6.06308 19.17413 12.61861
#
# Velocity S-wave (km/s) = 2.12844 3.78506 3.07058
# Velocity P-wave (km/s) = 4.26306 6.60953 5.56146
#
# Compressibility (1/GPa) = 0.06158149
#
# Stress axis : x y z
#
# Youngs Moduli (GPa) = 63.23893 63.23808 7.42224
#
# Poissons Ratio (x) = -0.51897 0.22487
# Poissons Ratio (y) = -0.51897 0.22487
# Poissons Ratio (z) = 1.91593 1.91594
#
# Static dielectric constant tensor:
#      x y z
#    x 1.421900 0.000000 0.000000 
#    y 0.000000 1.421900 0.000000 
#    z 0.000000 0.000000 1.447830 
# 
# From -- ./inp_files/2177.got.cif
#   From: 2010.05.17/outbox.ucp.g08.bks.cvg/sg127_2_cif.got.tgz:2177.got - 2010.06.11 11:37:05.
