data_PCOD9564686
_publ_section_title
;
Structure prediction by ZEFSAII (Michael W. Deem and Ramdas Pophale) SiO2 
 PCOD9564686
Probable space group: P 4/M N C
;
_chemical_formula_sum "Si O2"
_cell_formula_units_Z 96
_cell_length_a 25.752788
_cell_length_b 25.752788
_cell_length_c 8.776123
_cell_angle_alpha 90.000000
_cell_angle_beta 90.000000
_cell_angle_gamma 90.000000
_cell_volume 5820.378218
_symmetry_space_group_name_H-M "P 4/M N C"
_symmetry_group_IT_number 128
_symmetry_cell_setting 'tetragonal'
loop_
_space_group_symop_operation_xyz
x,y,z
-y,x,z
-x,-y,z
y,-x,z
1/2+x,1/2-y,1/2-z
1/2-x,1/2+y,1/2-z
1/2+y,1/2+x,1/2-z
1/2-y,1/2-x,1/2-z
-x,-y,-z
y,-x,-z
x,y,-z
-y,x,-z
1/2-x,1/2+y,1/2+z
1/2+x,1/2-y,1/2+z
1/2-y,1/2-x,1/2+z
1/2+y,1/2+x,1/2+z
loop_
_atom_site_type_symbol
_atom_site_label
_atom_site_fract_x
_atom_site_fract_y
_atom_site_fract_z
Si Si1 0.252034 0.458747 0.815792
Si Si2 0.733544 0.315036 0.318201
Si Si3 0.850022 0.732111 0.183864
Si Si4 0.450442 0.380231 0.170860
Si Si5 0.072566 0.757640 0.673071
Si Si6 0.052351 0.133557 0.177374
O O1 0.224138 0.406976 0.755526
O O2 0.233208 0.517345 0.772357
O O3 0.308590 0.451766 0.741242
O O4 0.255256 0.458092 0.000000
O O5 0.777321 0.277321 0.250000
O O6 0.735937 0.313625 0.500000
O O7 0.678046 0.287686 0.275720
O O8 0.744344 0.373678 0.264085
O O9 0.811130 0.688871 0.250000
O O10 0.852892 0.729447 0.000000
O O11 0.440800 0.318800 0.167802
O O12 0.496218 0.391572 0.289136
O O13 0.398449 0.406998 0.225294
O O14 0.465611 0.396501 0.000000
O O15 0.082316 0.739462 0.500000
O O16 0.065365 0.133731 0.000000
#
# Coordination Sequence:
#
# PCOD9564686 Si02
#       6
#    16  16  16  16  16  16
#     4  10  20  34  50  69  95 128 160 194 238 289
#     4  10  20  32  49  72  99 129 162 200 244 290
#     4  10  20  33  50  74 101 131 166 206 249 295
#     4  10  20  34  48  62  83 115 151 190 238 287
#     4   9  19  33  49  68  92 122 157 194 235 283
#     4  11  21  32  46  65  86 111 149 196 239 282
#
# _framework density 16.493773999999998
#
# number of rings (size 3 to 8) (size 9 to 14) (size 15 to 20)
#    0.000    2.000    0.000    5.500    0.000    9.000 
#    0.000    1.667    0.000    0.000    0.000    0.000 
#    0.000    0.667    0.000    7.000    0.000    3.000 
#
# Total GULP energy -534933.384411 kJ/mol
# GULP energy per Si atom -5572.222754 kJ/mol
# Density = 1.645623 g / cm^3
# Si number density = 16.493774 Si / 1000 Ang^3
#
#
#
# Elastic Constant Matrix: (Units=GPa)
#
#
# Indices 1 2 3 4 5 6 
#
# 1 58.9031 13.0166 17.8268 0.0000 0.0000 0.0000
# 2 13.0166 58.9026 17.8261 0.0000 0.0000 0.0000
# 3 17.8268 17.8261 50.8336 0.0000 0.0000 0.0000
# 4 0.0000 0.0000 0.0000 -42.8511 0.0000 0.0000
# 5 0.0000 0.0000 0.0000 0.0000 -42.8215 0.0000
# 6 0.0000 0.0000 0.0000 0.0000 0.0000 18.5198
#
#
#
# Elastic Compliance Matrix: (Units=1/GPa)
#
#
# Indices 1 2 3 4 5 6 
#
# 1 0.019312 -0.002481 -0.005902 0.000000 0.000000 0.000000
# 2 -0.002481 0.019312 -0.005902 0.000000 0.000000 0.000000
# 3 -0.005902 -0.005902 0.023812 0.000000 0.000000 0.000000
# 4 0.000000 0.000000 0.000000 -0.023337 0.000000 0.000000
# 5 0.000000 0.000000 0.000000 0.000000 -0.023353 0.000000
# 6 0.000000 0.000000 0.000000 0.000000 0.000000 0.053996
#
#
# Mechanical properties :
#
#
# Convention : Reuss Voigt Hill
#
# Bulk Modulus (GPa) = 29.53005 29.55314 29.54159
# Shear Modulus (GPa) = 45.62009 -5.43259 20.09375
#
# Velocity S-wave (km/s) = 5.26489 -1.81683 3.49415
# Velocity P-wave (km/s) = 7.40954 3.68178 5.85050
#
# Compressibility (1/GPa) = 0.03386381
#
# Stress axis : x y z
#
# Youngs Moduli (GPa) = 51.78222 51.78215 41.99642
#
# Poissons Ratio (x) = 0.12849 0.24787
# Poissons Ratio (y) = 0.12849 0.24786
# Poissons Ratio (z) = 0.30563 0.30562
#
# Static dielectric constant tensor:
#      x y z
#    x 1.602100 0.000000 0.000000 
#    y 0.000000 1.602100 0.000000 
#    z 0.000000 0.000000 1.553330 
# 
# From -- ./inp_files/1426.got.cif
#   From: 2010.05.17/outbox.cif.g08.bks.cpg/sg128_1_cif.got.tgz:1426.got - 2010.05.20 12:07:25.
