data_PCOD9564630
_publ_section_title
;
Structure prediction by ZEFSAII (Michael W. Deem and Ramdas Pophale) SiO2 
 PCOD9564630
Probable space group: P 4/M N C
;
_chemical_formula_sum "Si O2"
_cell_formula_units_Z 112
_cell_length_a 14.846406
_cell_length_b 14.846406
_cell_length_c 23.150666
_cell_angle_alpha 90.000000
_cell_angle_beta 90.000000
_cell_angle_gamma 90.000000
_cell_volume 5102.771898
_symmetry_space_group_name_H-M "P 4/M N C"
_symmetry_group_IT_number 128
_symmetry_cell_setting 'tetragonal'
loop_
_space_group_symop_operation_xyz
x,y,z
-y,x,z
-x,-y,z
y,-x,z
1/2+x,1/2-y,1/2-z
1/2-x,1/2+y,1/2-z
1/2+y,1/2+x,1/2-z
1/2-y,1/2-x,1/2-z
-x,-y,-z
y,-x,-z
x,y,-z
-y,x,-z
1/2-x,1/2+y,1/2+z
1/2+x,1/2-y,1/2+z
1/2-y,1/2-x,1/2+z
1/2+y,1/2+x,1/2+z
loop_
_atom_site_type_symbol
_atom_site_label
_atom_site_fract_x
_atom_site_fract_y
_atom_site_fract_z
Si Si1 0.539440 0.640852 0.570398
Si Si2 0.659682 0.189126 0.065552
Si Si3 0.432572 0.915957 0.657487
Si Si4 0.295671 0.162934 0.069550
Si Si5 0.962517 0.230996 0.433754
Si Si6 0.680876 0.970044 0.256463
Si Si7 0.950081 0.138582 0.314083
O O1 0.439660 0.608560 0.587738
O O2 0.537597 0.642166 0.500000
O O3 0.579665 0.736023 0.591227
O O4 0.632517 0.102138 0.101018
O O5 0.744869 0.245132 0.088194
O O6 0.568075 0.247340 0.065727
O O7 0.681790 0.163861 0.000000
O O8 0.474203 0.840083 0.698960
O O9 0.500000 0.000000 0.648251
O O10 0.349916 0.962949 0.691897
O O11 0.401016 0.180756 0.081298
O O12 0.290791 0.158127 0.000000
O O13 0.937376 0.203193 0.500000
O O14 0.942760 0.163160 0.381973
O O15 0.611175 0.888826 0.250000
O O16 0.777025 0.931758 0.273297
O O17 0.053058 0.111103 0.302481
#
# Coordination Sequence:
#
# PCOD9564630 Si02
#       7
#    16  16  16  16  16  16  16
#     4   8  14  28  50  72  99 143 202 262 312 359
#     4  10  19  33  54  86 126 162 203 251 299 364
#     4   9  18  36  62  84 117 157 199 256 308 366
#     4   9  18  32  50  77 116 164 211 251 294 361
#     4  10  20  35  55  82 126 174 210 248 301 367
#     4   9  19  40  64  87 116 157 205 254 313 373
#     4  11  23  39  61  93 129 157 201 264 312 368
#
# _framework density 21.948855999999999
#
# number of rings (size 3 to 8) (size 9 to 14) (size 15 to 20)
#    0.000    2.571    1.429    2.143    0.000    2.000 
#    5.143    0.714    0.000    0.000    0.000    2.000 
#    0.000    0.000    0.000    0.000    0.000    0.000 
#
# Total GULP energy -625170.001032 kJ/mol
# GULP energy per Si atom -5581.875009 kJ/mol
# Density = 2.189890 g / cm^3
# Si number density = 21.948856 Si / 1000 Ang^3
#
#
#
# Elastic Constant Matrix: (Units=GPa)
#
#
# Indices 1 2 3 4 5 6 
#
# 1 49.1073 17.9607 13.6520 0.0000 0.0000 0.0000
# 2 17.9607 49.1106 13.6525 0.0000 0.0000 0.0000
# 3 13.6520 13.6525 50.7024 0.0000 0.0000 0.0000
# 4 0.0000 0.0000 0.0000 13.8419 0.0000 0.0000
# 5 0.0000 0.0000 0.0000 0.0000 13.8422 0.0000
# 6 0.0000 0.0000 0.0000 0.0000 0.0000 7.9434
#
#
#
# Elastic Compliance Matrix: (Units=1/GPa)
#
#
# Indices 1 2 3 4 5 6 
#
# 1 0.024426 -0.007680 -0.004509 0.000000 0.000000 0.000000
# 2 -0.007680 0.024424 -0.004509 0.000000 0.000000 0.000000
# 3 -0.004509 -0.004509 0.022151 0.000000 0.000000 0.000000
# 4 0.000000 0.000000 0.000000 0.072245 0.000000 0.000000
# 5 0.000000 0.000000 0.000000 0.000000 0.072243 0.000000
# 6 0.000000 0.000000 0.000000 0.000000 0.000000 0.125891
#
#
# Mechanical properties :
#
#
# Convention : Reuss Voigt Hill
#
# Bulk Modulus (GPa) = 26.59126 26.60565 26.59845
# Shear Modulus (GPa) = 12.90958 14.03584 13.47271
#
# Velocity S-wave (km/s) = 2.42785 2.53154 2.48023
# Velocity P-wave (km/s) = 4.47221 4.54894 4.51074
#
# Compressibility (1/GPa) = 0.03760634
#
# Stress axis : x y z
#
# Youngs Moduli (GPa) = 40.94031 40.94297 45.14451
#
# Poissons Ratio (x) = 0.31442 0.20356
# Poissons Ratio (y) = 0.31440 0.20355
# Poissons Ratio (z) = 0.18460 0.18461
#
# Static dielectric constant tensor:
#      x y z
#    x 1.815860 0.000000 0.000000 
#    y 0.000000 1.815860 0.000000 
#    z 0.000000 0.000000 1.815600 
# 
# From -- ./inp_files/6882.got.cif
#   From: 2010.05.17/outbox.cif.g08.bks.cpg/sg128_4_cif.got.tgz:6882.got - 2010.05.20 12:07:25.
