data_PCOD9564746
_publ_section_title
;
Structure prediction by ZEFSAII (Michael W. Deem and Ramdas Pophale) SiO2 
 PCOD9564746
Probable space group: P 4/M N C
;
_chemical_formula_sum "Si O2"
_cell_formula_units_Z 72
_cell_length_a 14.463859
_cell_length_b 14.463859
_cell_length_c 17.269049
_cell_angle_alpha 90.000000
_cell_angle_beta 90.000000
_cell_angle_gamma 90.000000
_cell_volume 3612.740608
_symmetry_space_group_name_H-M "P 4/M N C"
_symmetry_group_IT_number 128
_symmetry_cell_setting 'tetragonal'
loop_
_space_group_symop_operation_xyz
x,y,z
-y,x,z
-x,-y,z
y,-x,z
1/2+x,1/2-y,1/2-z
1/2-x,1/2+y,1/2-z
1/2+y,1/2+x,1/2-z
1/2-y,1/2-x,1/2-z
-x,-y,-z
y,-x,-z
x,y,-z
-y,x,-z
1/2-x,1/2+y,1/2+z
1/2+x,1/2-y,1/2+z
1/2-y,1/2-x,1/2+z
1/2+y,1/2+x,1/2+z
loop_
_atom_site_type_symbol
_atom_site_label
_atom_site_fract_x
_atom_site_fract_y
_atom_site_fract_z
Si Si1 0.806466 0.442874 0.199242
Si Si2 0.976108 0.850190 0.000000
Si Si3 0.234207 0.529157 0.358836
Si Si4 0.116419 0.398681 0.091502
Si Si5 0.743921 0.752086 0.841961
O O1 0.881526 0.381526 0.250000
O O2 0.751202 0.492920 0.268509
O O3 0.852449 0.514175 0.141987
O O4 0.743772 0.367833 0.154831
O O5 0.899012 0.925737 0.000000
O O6 0.975081 0.794611 0.079163
O O7 0.134842 0.485449 0.381248
O O8 0.253825 0.639158 0.366088
O O9 0.191951 0.318047 0.111423
O O10 0.115417 0.415985 0.000000
O O11 0.762880 0.737121 0.750000
#
# Coordination Sequence:
#
# PCOD9564746 Si02
#       5
#    16   8  16  16  16
#     4   9  22  43  61  86 120 164 208 258 299 371
#     4  11  22  34  52  85 120 152 194 249 308 369
#     4  10  20  36  58  83 117 158 199 246 299 362
#     4  12  23  36  62  93 124 164 201 256 322 368
#     4   9  21  39  60  84 119 165 209 253 300 366
#
# _framework density 19.929468
#
# number of rings (size 3 to 8) (size 9 to 14) (size 15 to 20)
#    0.000    2.333    1.111    3.333    1.556    9.778 
#    6.000    4.444    0.000    0.667    0.000    1.556 
#    0.000    0.000    0.000    0.000    0.000    0.000 
#
# Total GULP energy -401010.890729 kJ/mol
# GULP energy per Si atom -5569.595705 kJ/mol
# Density = 1.988411 g / cm^3
# Si number density = 19.929468 Si / 1000 Ang^3
#
#
#
# Elastic Constant Matrix: (Units=GPa)
#
#
# Indices 1 2 3 4 5 6 
#
# 1 77.4342 27.9778 37.2464 0.0000 0.0000 0.0000
# 2 27.9778 77.4339 37.2465 0.0000 0.0000 0.0000
# 3 37.2464 37.2465 98.3008 0.0000 0.0000 0.0000
# 4 0.0000 0.0000 0.0000 36.4137 0.0000 0.0000
# 5 0.0000 0.0000 0.0000 0.0000 36.4137 0.0000
# 6 0.0000 0.0000 0.0000 0.0000 0.0000 36.8654
#
#
#
# Elastic Compliance Matrix: (Units=1/GPa)
#
#
# Indices 1 2 3 4 5 6 
#
# 1 0.016588 -0.003632 -0.004909 0.000000 0.000000 0.000000
# 2 -0.003632 0.016588 -0.004909 0.000000 0.000000 0.000000
# 3 -0.004909 -0.004909 0.013893 0.000000 0.000000 0.000000
# 4 0.000000 0.000000 0.000000 0.027462 0.000000 0.000000
# 5 0.000000 0.000000 0.000000 0.000000 0.027462 0.000000
# 6 0.000000 0.000000 0.000000 0.000000 0.000000 0.027126
#
#
# Mechanical properties :
#
#
# Convention : Reuss Voigt Hill
#
# Bulk Modulus (GPa) = 49.58235 50.90113 50.24174
# Shear Modulus (GPa) = 30.72361 31.98512 31.35436
#
# Velocity S-wave (km/s) = 3.93060 4.01049 3.97075
# Velocity P-wave (km/s) = 6.74777 6.85867 6.80345
#
# Compressibility (1/GPa) = 0.02016847
#
# Stress axis : x y z
#
# Youngs Moduli (GPa) = 60.28552 60.28519 71.97925
#
# Poissons Ratio (x) = 0.21896 0.35334
# Poissons Ratio (y) = 0.21896 0.35334
# Poissons Ratio (z) = 0.29594 0.29594
#
# Static dielectric constant tensor:
#      x y z
#    x 1.775140 0.000000 0.000000 
#    y 0.000000 1.775140 0.000000 
#    z 0.000000 0.000000 1.421360 
# 
# From -- ./inp_files/4582.got.cif
#   From: 2010.05.17/outbox.cif.g08.bks.cpg/sg128_3_cif.got.tgz:4582.got - 2010.05.20 12:07:25.
