data_PCOD9564907
_publ_section_title
;
Structure prediction by ZEFSAII (Michael W. Deem and Ramdas Pophale) SiO2 
 PCOD9564907
Probable space group: P 4/M N C
;
_chemical_formula_sum "Si O2"
_cell_formula_units_Z 96
_cell_length_a 14.342970
_cell_length_b 14.342970
_cell_length_c 23.572714
_cell_angle_alpha 90.000000
_cell_angle_beta 90.000000
_cell_angle_gamma 90.000000
_cell_volume 4849.397309
_symmetry_space_group_name_H-M "P 4/M N C"
_symmetry_group_IT_number 128
_symmetry_cell_setting 'tetragonal'
loop_
_space_group_symop_operation_xyz
x,y,z
-y,x,z
-x,-y,z
y,-x,z
1/2+x,1/2-y,1/2-z
1/2-x,1/2+y,1/2-z
1/2+y,1/2+x,1/2-z
1/2-y,1/2-x,1/2-z
-x,-y,-z
y,-x,-z
x,y,-z
-y,x,-z
1/2-x,1/2+y,1/2+z
1/2+x,1/2-y,1/2+z
1/2-y,1/2-x,1/2+z
1/2+y,1/2+x,1/2+z
loop_
_atom_site_type_symbol
_atom_site_label
_atom_site_fract_x
_atom_site_fract_y
_atom_site_fract_z
Si Si1 0.522453 0.736038 0.115572
Si Si2 0.430619 0.913391 0.065383
Si Si3 0.737109 0.630908 0.609918
Si Si4 0.162772 0.192286 0.332573
Si Si5 0.362093 0.426796 0.277040
Si Si6 0.106119 0.118027 0.000000
Si Si7 0.054595 0.853598 0.500000
O O1 0.478812 0.836274 0.104575
O O2 0.433740 0.673345 0.132961
O O3 0.601780 0.727330 0.162242
O O4 0.568763 0.704540 0.056722
O O5 0.326262 0.928925 0.088422
O O6 0.500000 0.000000 0.065062
O O7 0.422051 0.878812 0.000000
O O8 0.782650 0.723809 0.637364
O O9 0.677834 0.585716 0.660144
O O10 0.670213 0.644947 0.555776
O O11 0.123969 0.204327 0.268939
O O12 0.463319 0.379268 0.268953
O O13 0.992644 0.127288 0.000000
O O14 0.115381 0.946502 0.500000
#
# Coordination Sequence:
#
# PCOD9564907 Si02
#       7
#    16  16  16  16  16   8   8
#     4  11  21  35  60  89 126 163 206 257 313 391
#     4  10  22  41  62  90 131 177 214 258 320 388
#     4  11  24  42  65  94 131 171 221 270 326 398
#     4  11  23  39  62  92 130 165 209 261 322 388
#     4  11  23  42  69  95 124 165 214 276 337 383
#     4  11  24  44  69 100 132 167 219 289 343 379
#     4  11  20  28  49  86 128 156 187 243 313 374
#
# _framework density 19.796275000000001
#
# number of rings (size 3 to 8) (size 9 to 14) (size 15 to 20)
#    0.000    1.167    5.000    1.500    0.000    5.000 
#    0.000    0.000    0.000    4.000    0.000    0.000 
#    0.000    0.000    0.000    0.000    0.000    0.000 
#
# Total GULP energy -535679.826943 kJ/mol
# GULP energy per Si atom -5579.998197 kJ/mol
# Density = 1.975122 g / cm^3
# Si number density = 19.796275 Si / 1000 Ang^3
#
#
#
# Elastic Constant Matrix: (Units=GPa)
#
#
# Indices 1 2 3 4 5 6 
#
# 1 59.6188 25.3038 21.0086 0.0000 0.0000 0.0000
# 2 25.3038 59.6188 21.0086 0.0000 0.0000 0.0000
# 3 21.0086 21.0086 117.5730 0.0000 0.0000 0.0000
# 4 0.0000 0.0000 0.0000 27.9850 0.0000 0.0000
# 5 0.0000 0.0000 0.0000 0.0000 27.9850 0.0000
# 6 0.0000 0.0000 0.0000 0.0000 0.0000 19.9899
#
#
#
# Elastic Compliance Matrix: (Units=1/GPa)
#
#
# Indices 1 2 3 4 5 6 
#
# 1 0.021030 -0.008112 -0.002308 0.000000 0.000000 0.000000
# 2 -0.008112 0.021030 -0.002308 0.000000 0.000000 0.000000
# 3 -0.002308 -0.002308 0.009330 0.000000 0.000000 0.000000
# 4 0.000000 0.000000 0.000000 0.035733 0.000000 0.000000
# 5 0.000000 0.000000 0.000000 0.000000 0.035733 0.000000
# 6 0.000000 0.000000 0.000000 0.000000 0.000000 0.050025
#
#
# Mechanical properties :
#
#
# Convention : Reuss Voigt Hill
#
# Bulk Modulus (GPa) = 38.56168 41.27249 39.91709
# Shear Modulus (GPa) = 24.15662 26.49129 25.32396
#
# Velocity S-wave (km/s) = 3.49701 3.66210 3.58051
# Velocity P-wave (km/s) = 5.98557 6.22698 6.10746
#
# Compressibility (1/GPa) = 0.02593248
#
# Stress axis : x y z
#
# Youngs Moduli (GPa) = 47.55202 47.55202 107.17857
#
# Poissons Ratio (x) = 0.38575 0.24739
# Poissons Ratio (y) = 0.38575 0.24739
# Poissons Ratio (z) = 0.10976 0.10976
#
# Static dielectric constant tensor:
#      x y z
#    x 1.695780 0.000000 0.000000 
#    y 0.000000 1.695780 0.000000 
#    z 0.000000 0.000000 1.726480 
# 
# From -- ./inp_files/5784.got.cif
#   From: 2010.05.17/outbox.cif.g08.bks.cpg/sg128_3_cif.got.tgz:5784.got - 2010.05.20 12:07:25.
