data_PCOD9564464
_publ_section_title
;
Structure prediction by ZEFSAII (Michael W. Deem and Ramdas Pophale) SiO2 
 PCOD9564464
Probable space group: P 4/M B M
;
_chemical_formula_sum "Si O2"
_cell_formula_units_Z 64
_cell_length_a 19.666577
_cell_length_b 19.666577
_cell_length_c 9.076769
_cell_angle_alpha 90.000000
_cell_angle_beta 90.000000
_cell_angle_gamma 90.000000
_cell_volume 3510.660531
_symmetry_space_group_name_H-M "P 4/M B M"
_symmetry_group_IT_number 127
_symmetry_cell_setting 'tetragonal'
loop_
_space_group_symop_operation_xyz
x,y,z
-y,x,z
-x,-y,z
y,-x,z
1/2+x,1/2-y,-z
1/2-x,1/2+y,-z
1/2+y,1/2+x,-z
1/2-y,1/2-x,-z
-x,-y,-z
y,-x,-z
x,y,-z
-y,x,-z
1/2-x,1/2+y,z
1/2+x,1/2-y,z
1/2-y,1/2-x,z
1/2+y,1/2+x,z
loop_
_atom_site_type_symbol
_atom_site_label
_atom_site_fract_x
_atom_site_fract_y
_atom_site_fract_z
Si Si1 0.239584 0.976290 0.671159
Si Si2 0.167614 0.217073 0.172823
Si Si3 0.113348 0.008508 0.837492
Si Si4 0.719584 0.891674 0.822399
O O1 0.255639 0.972450 0.500000
O O2 0.284481 0.033616 0.752628
O O3 0.235231 0.901075 0.741329
O O4 0.164723 0.006010 0.704479
O O5 0.221130 0.278871 0.185592
O O6 0.210937 0.149954 0.218035
O O7 0.150627 0.208477 0.000000
O O8 0.069469 0.939785 0.832752
O O9 0.147784 0.011320 0.000000
O O10 0.657181 0.842819 0.777921
O O11 0.719035 0.895690 0.000000
#
# Coordination Sequence:
#
# PCOD9564464 Si02
#       4
#    16  16  16  16
#     4  12  23  31  47  77 109 138 165 202 260 320
#     4   9  19  37  59  79 100 133 179 224 260 299
#     4   9  18  32  48  66  93 133 177 214 245 285
#     4   9  19  37  59  79 100 133 179 224 260 299
#
# _framework density 18.230187999999998
#
# number of rings (size 3 to 8) (size 9 to 14) (size 15 to 20)
#    0.000    2.250    0.000    6.000    0.000    9.000 
#    0.000    3.750    0.000    0.750    0.000    5.250 
#    0.000    0.000    0.000    0.000    0.000    0.000 
#
# Total GULP energy -356945.404441 kJ/mol
# GULP energy per Si atom -5577.271944 kJ/mol
# Density = 1.818869 g / cm^3
# Si number density = 18.230188 Si / 1000 Ang^3
#
#
#
# Elastic Constant Matrix: (Units=GPa)
#
#
# Indices 1 2 3 4 5 6 
#
# 1 66.0584 -3.2738 20.0555 0.0000 0.0000 0.0000
# 2 -3.2738 66.0584 20.0555 0.0000 0.0000 0.0000
# 3 20.0555 20.0555 57.2813 0.0000 0.0000 0.0000
# 4 0.0000 0.0000 0.0000 -37.5655 0.0000 0.0000
# 5 0.0000 0.0000 0.0000 0.0000 -37.5655 0.0000
# 6 0.0000 0.0000 0.0000 0.0000 0.0000 18.4647
#
#
#
# Elastic Compliance Matrix: (Units=1/GPa)
#
#
# Indices 1 2 3 4 5 6 
#
# 1 0.017470 0.003047 -0.007183 0.000000 0.000000 0.000000
# 2 0.003047 0.017470 -0.007183 0.000000 0.000000 0.000000
# 3 -0.007183 -0.007183 0.022488 0.000000 0.000000 0.000000
# 4 0.000000 0.000000 0.000000 -0.026620 0.000000 0.000000
# 5 0.000000 0.000000 0.000000 0.000000 -0.026620 0.000000
# 6 0.000000 0.000000 0.000000 0.000000 0.000000 0.054157
#
#
# Mechanical properties :
#
#
# Convention : Reuss Voigt Hill
#
# Bulk Modulus (GPa) = 28.74576 29.23028 28.98802
# Shear Modulus (GPa) = 54.00685 -1.16253 26.42216
#
# Velocity S-wave (km/s) = 5.44879 -0.79942 3.81118
# Velocity P-wave (km/s) = 7.44232 3.90086 5.94158
#
# Compressibility (1/GPa) = 0.03478774
#
# Stress axis : x y z
#
# Youngs Moduli (GPa) = 57.24095 57.24095 44.46852
#
# Poissons Ratio (x) = -0.17440 0.31943
# Poissons Ratio (y) = -0.17440 0.31943
# Poissons Ratio (z) = 0.41118 0.41118
#
# Static dielectric constant tensor:
#      x y z
#    x 1.659530 0.000000 0.000000 
#    y 0.000000 1.659530 0.000000 
#    z 0.000000 0.000000 1.616650 
# 
# From -- ./inp_files/1365.got.cif
#   From: 2010.05.17/outbox.cif.g08.bks.cpg/sg127_1_cif.got.tgz:1365.got - 2010.05.20 12:03:00.
