data_PCOD9564244
_publ_section_title
;
Structure prediction by ZEFSAII (Michael W. Deem and Ramdas Pophale) SiO2 
 PCOD9564244
Probable space group: P 4/M B M
;
_chemical_formula_sum "Si O2"
_cell_formula_units_Z 52
_cell_length_a 18.184499
_cell_length_b 18.184499
_cell_length_c 7.629019
_cell_angle_alpha 90.000000
_cell_angle_beta 90.000000
_cell_angle_gamma 90.000000
_cell_volume 2522.733516
_symmetry_space_group_name_H-M "P 4/M B M"
_symmetry_group_IT_number 127
_symmetry_cell_setting 'tetragonal'
loop_
_space_group_symop_operation_xyz
x,y,z
-y,x,z
-x,-y,z
y,-x,z
1/2+x,1/2-y,-z
1/2-x,1/2+y,-z
1/2+y,1/2+x,-z
1/2-y,1/2-x,-z
-x,-y,-z
y,-x,-z
x,y,-z
-y,x,-z
1/2-x,1/2+y,z
1/2+x,1/2-y,z
1/2-y,1/2-x,z
1/2+y,1/2+x,z
loop_
_atom_site_type_symbol
_atom_site_label
_atom_site_fract_x
_atom_site_fract_y
_atom_site_fract_z
Si Si1 0.549659 0.223656 0.201600
Si Si2 0.314528 0.185473 0.500000
Si Si3 0.712825 0.212825 0.300122
Si Si4 0.023669 0.640610 0.500000
Si Si5 0.882442 0.003834 0.786485
O O1 0.637247 0.237566 0.211948
O O2 0.523770 0.159492 0.329586
O O3 0.511582 0.298699 0.266251
O O4 0.530002 0.208935 0.000000
O O5 0.274891 0.225110 0.333782
O O6 0.307326 0.097311 0.500000
O O7 0.692400 0.192400 0.500000
O O8 0.060612 0.560612 0.500000
O O9 0.931393 0.073671 0.729791
O O10 0.882650 0.004187 0.000000
#
# Coordination Sequence:
#
# PCOD9564244 Si02
#       5
#    16   4   8   8  16
#     4  11  22  39  64  89 123 167 212 261 320 383
#     4   8  22  40  66  89 129 168 202 272 318 380
#     4  10  21  41  62  91 126 169 209 258 318 381
#     4  10  23  42  62  90 124 159 206 269 312 368
#     4   8  16  30  51  84 120 153 193 244 303 372
#
# _framework density 20.612562
#
# number of rings (size 3 to 8) (size 9 to 14) (size 15 to 20)
#    0.923    1.538    1.538    1.385    4.308    0.615 
#    0.000    3.077    0.000    3.692    0.000    0.000 
#    0.000    0.000    0.000    0.000    0.000    0.000 
#
# Total GULP energy -289817.661597 kJ/mol
# GULP energy per Si atom -5573.416569 kJ/mol
# Density = 2.056565 g / cm^3
# Si number density = 20.612562 Si / 1000 Ang^3
#
#
#
# Elastic Constant Matrix: (Units=GPa)
#
#
# Indices 1 2 3 4 5 6 
#
# 1 61.9862 20.0728 19.2546 0.0000 0.0000 0.0000
# 2 20.0728 61.9855 19.2545 0.0000 0.0000 0.0000
# 3 19.2546 19.2545 82.5806 0.0000 0.0000 0.0000
# 4 0.0000 0.0000 0.0000 16.0074 0.0000 0.0000
# 5 0.0000 0.0000 0.0000 0.0000 16.0072 0.0000
# 6 0.0000 0.0000 0.0000 0.0000 0.0000 28.9067
#
#
#
# Elastic Compliance Matrix: (Units=1/GPa)
#
#
# Indices 1 2 3 4 5 6 
#
# 1 0.018771 -0.005088 -0.003190 0.000000 0.000000 0.000000
# 2 -0.005088 0.018771 -0.003191 0.000000 0.000000 0.000000
# 3 -0.003190 -0.003191 0.013597 0.000000 0.000000 0.000000
# 4 0.000000 0.000000 0.000000 0.062471 0.000000 0.000000
# 5 0.000000 0.000000 0.000000 0.000000 0.062472 0.000000
# 6 0.000000 0.000000 0.000000 0.000000 0.000000 0.034594
#
#
# Mechanical properties :
#
#
# Convention : Reuss Voigt Hill
#
# Bulk Modulus (GPa) = 35.45781 35.96846 35.71313
# Shear Modulus (GPa) = 20.57490 22.04897 21.31193
#
# Velocity S-wave (km/s) = 3.16281 3.27415 3.21897
# Velocity P-wave (km/s) = 5.52967 5.63747 5.58383
#
# Compressibility (1/GPa) = 0.02820253
#
# Stress axis : x y z
#
# Youngs Moduli (GPa) = 53.27318 53.27259 73.54464
#
# Poissons Ratio (x) = 0.27103 0.23464
# Poissons Ratio (y) = 0.27103 0.23465
# Poissons Ratio (z) = 0.16997 0.16997
#
# Static dielectric constant tensor:
#      x y z
#    x 1.744710 0.000000 0.000000 
#    y 0.000000 1.744720 0.000000 
#    z 0.000000 0.000000 1.734110 
# 
# From -- ./inp_files/1017.got.cif
#   From: 2010.05.17/outbox.cif.g08.bks.cpg/sg127_1_cif.got.tgz:1017.got - 2010.05.20 12:03:00.
