data_PCOD9564809
_publ_section_title
;
Structure prediction by ZEFSAII (Michael W. Deem and Ramdas Pophale) SiO2 
 PCOD9564809
Probable space group: P 4/M N C
;
_chemical_formula_sum "Si O2"
_cell_formula_units_Z 96
_cell_length_a 23.126284
_cell_length_b 23.126284
_cell_length_c 9.403634
_cell_angle_alpha 90.000000
_cell_angle_beta 90.000000
_cell_angle_gamma 90.000000
_cell_volume 5029.298664
_symmetry_space_group_name_H-M "P 4/M N C"
_symmetry_group_IT_number 128
_symmetry_cell_setting 'tetragonal'
loop_
_space_group_symop_operation_xyz
x,y,z
-y,x,z
-x,-y,z
y,-x,z
1/2+x,1/2-y,1/2-z
1/2-x,1/2+y,1/2-z
1/2+y,1/2+x,1/2-z
1/2-y,1/2-x,1/2-z
-x,-y,-z
y,-x,-z
x,y,-z
-y,x,-z
1/2-x,1/2+y,1/2+z
1/2+x,1/2-y,1/2+z
1/2-y,1/2-x,1/2+z
1/2+y,1/2+x,1/2+z
loop_
_atom_site_type_symbol
_atom_site_label
_atom_site_fract_x
_atom_site_fract_y
_atom_site_fract_z
Si Si1 0.097106 0.987198 0.500000
Si Si2 0.513030 0.793898 0.665523
Si Si3 0.601516 0.188494 0.172469
Si Si4 0.645099 0.768820 0.671201
Si Si5 0.303273 0.356302 0.663752
Si Si6 0.589474 0.464639 0.500000
Si Si7 0.480568 0.661960 0.290022
O O1 0.062001 0.047560 0.500000
O O2 0.138906 0.981534 0.367406
O O3 0.508063 0.813766 0.500000
O O4 0.464341 0.820502 0.769320
O O5 0.580498 0.791291 0.709311
O O6 0.494755 0.727141 0.672449
O O7 0.640561 0.140561 0.250000
O O8 0.627610 0.249853 0.231831
O O9 0.603772 0.186983 0.000000
O O10 0.691463 0.808538 0.750000
O O11 0.649188 0.774034 0.500000
O O12 0.661817 0.701796 0.703932
O O13 0.281682 0.348610 0.500000
O O14 0.342909 0.413604 0.662695
O O15 0.569356 0.531716 0.500000
O O16 0.628209 0.466477 0.362861
#
# Coordination Sequence:
#
# PCOD9564809 Si02
#       7
#     8  16  16  16  16   8  16
#     4  11  26  40  48  70 116 164 206 259 307 341
#     4  10  22  40  61  87 117 150 191 242 296 351
#     4  11  22  38  61  90 122 156 196 239 289 348
#     4  10  23  41  62  89 120 154 191 238 295 352
#     4  10  21  37  58  87 120 157 197 248 295 346
#     4  11  22  32  54  80 104 152 210 259 291 339
#     4  11  21  37  56  79 112 152 205 246 301 345
#
# _framework density 19.088148
#
# number of rings (size 3 to 8) (size 9 to 14) (size 15 to 20)
#    0.000    1.500    1.667    4.000    9.333    4.000 
#    0.000    0.000    0.000    0.500    0.000    3.500 
#    0.000    0.000    0.000    0.000    0.000    0.000 
#
# Total GULP energy -534727.891836 kJ/mol
# GULP energy per Si atom -5570.082207 kJ/mol
# Density = 1.904470 g / cm^3
# Si number density = 19.088148 Si / 1000 Ang^3
#
#
#
# Elastic Constant Matrix: (Units=GPa)
#
#
# Indices 1 2 3 4 5 6 
#
# 1 76.3537 17.4892 19.2506 0.0000 0.0000 0.0000
# 2 17.4892 76.3612 19.2539 0.0000 0.0000 0.0000
# 3 19.2506 19.2539 110.1193 0.0000 0.0000 0.0000
# 4 0.0000 0.0000 0.0000 9.8918 0.0000 0.0000
# 5 0.0000 0.0000 0.0000 0.0000 9.8899 0.0000
# 6 0.0000 0.0000 0.0000 0.0000 0.0000 21.9687
#
#
#
# Elastic Compliance Matrix: (Units=1/GPa)
#
#
# Indices 1 2 3 4 5 6 
#
# 1 0.014234 -0.002754 -0.002007 0.000000 0.000000 0.000000
# 2 -0.002754 0.014232 -0.002007 0.000000 0.000000 0.000000
# 3 -0.002007 -0.002007 0.009783 0.000000 0.000000 0.000000
# 4 0.000000 0.000000 0.000000 0.101094 0.000000 0.000000
# 5 0.000000 0.000000 0.000000 0.000000 0.101114 0.000000
# 6 0.000000 0.000000 0.000000 0.000000 0.000000 0.045519
#
#
# Mechanical properties :
#
#
# Convention : Reuss Voigt Hill
#
# Bulk Modulus (GPa) = 40.46389 41.64683 41.05536
# Shear Modulus (GPa) = 16.24698 22.13943 19.19321
#
# Velocity S-wave (km/s) = 2.92062 3.40936 3.17441
# Velocity P-wave (km/s) = 5.71120 6.11259 5.91530
#
# Compressibility (1/GPa) = 0.02471339
#
# Stress axis : x y z
#
# Youngs Moduli (GPa) = 70.25572 70.26188 102.22023
#
# Poissons Ratio (x) = 0.19350 0.20513
# Poissons Ratio (y) = 0.19348 0.20516
# Poissons Ratio (z) = 0.14099 0.14102
#
# Static dielectric constant tensor:
#      x y z
#    x 1.701290 0.000000 0.000000 
#    y 0.000000 1.701290 0.000000 
#    z 0.000000 0.000000 1.644690 
# 
# From -- ./inp_files/1548.got.cif
#   From: 2010.05.17/outbox.cif.g08.bks.cpg/sg128_1_cif.got.tgz:1548.got - 2010.05.20 12:07:25.
