data_PCOD9564627
_publ_section_title
;
Structure prediction by ZEFSAII (Michael W. Deem and Ramdas Pophale) SiO2 
 PCOD9564627
Probable space group: P 4/M N C
;
_chemical_formula_sum "Si O2"
_cell_formula_units_Z 80
_cell_length_a 12.240490
_cell_length_b 12.240490
_cell_length_c 30.411347
_cell_angle_alpha 90.000000
_cell_angle_beta 90.000000
_cell_angle_gamma 90.000000
_cell_volume 4556.519818
_symmetry_space_group_name_H-M "P 4/M N C"
_symmetry_group_IT_number 128
_symmetry_cell_setting 'tetragonal'
loop_
_space_group_symop_operation_xyz
x,y,z
-y,x,z
-x,-y,z
y,-x,z
1/2+x,1/2-y,1/2-z
1/2-x,1/2+y,1/2-z
1/2+y,1/2+x,1/2-z
1/2-y,1/2-x,1/2-z
-x,-y,-z
y,-x,-z
x,y,-z
-y,x,-z
1/2-x,1/2+y,1/2+z
1/2+x,1/2-y,1/2+z
1/2-y,1/2-x,1/2+z
1/2+y,1/2+x,1/2+z
loop_
_atom_site_type_symbol
_atom_site_label
_atom_site_fract_x
_atom_site_fract_y
_atom_site_fract_z
Si Si1 0.373067 0.194606 0.298416
Si Si2 0.173002 0.038612 0.053439
Si Si3 0.395589 0.079718 0.450724
Si Si4 0.366155 0.001302 0.361934
Si Si5 0.127902 0.306291 0.200800
O O1 0.354389 0.145612 0.250000
O O2 0.333313 0.104272 0.332709
O O3 0.500379 0.214256 0.305560
O O4 0.302935 0.302956 0.302420
O O5 0.298248 0.067413 0.064845
O O6 0.080984 0.127517 0.067533
O O7 0.171602 0.036960 0.000000
O O8 0.347379 0.089283 0.500000
O O9 0.328272 0.022776 0.411675
O O10 0.500000 0.000000 0.455036
O O11 0.500000 0.000000 0.362445
O O12 0.333632 0.892585 0.336071
O O13 0.145577 0.354424 0.250000
#
# Coordination Sequence:
#
# PCOD9564627 Si02
#       5
#    16  16  16  16  16
#     4  10  19  33  54  78 104 140 173 212 264 314
#     4   8  14  27  48  73 104 137 167 210 271 326
#     4   9  17  31  49  70 101 141 183 219 253 304
#     4   9  18  33  52  72 101 138 176 214 253 308
#     4  10  19  33  56  79 107 137 173 216 264 318
#
# _framework density 17.557258000000001
#
# number of rings (size 3 to 8) (size 9 to 14) (size 15 to 20)
#    0.000    2.800    2.000    0.600    0.000    0.400 
#   10.800    0.000    0.000    0.600    0.000    0.000 
#    0.000    0.800    0.000   13.000    0.000    0.000 
#
# Total GULP energy -445405.590880 kJ/mol
# GULP energy per Si atom -5567.569886 kJ/mol
# Density = 1.751730 g / cm^3
# Si number density = 17.557258 Si / 1000 Ang^3
#
#
#
# Elastic Constant Matrix: (Units=GPa)
#
#
# Indices 1 2 3 4 5 6 
#
# 1 71.6217 37.0589 29.0410 0.0000 0.0000 0.0000
# 2 37.0589 71.6217 29.0409 0.0000 0.0000 0.0000
# 3 29.0410 29.0409 111.5338 0.0000 0.0000 0.0000
# 4 0.0000 0.0000 0.0000 -93.7679 0.0000 0.0000
# 5 0.0000 0.0000 0.0000 0.0000 -93.7061 0.0000
# 6 0.0000 0.0000 0.0000 0.0000 0.0000 -9.0726
#
#
#
# Elastic Compliance Matrix: (Units=1/GPa)
#
#
# Indices 1 2 3 4 5 6 
#
# 1 0.019811 -0.009122 -0.002783 0.000000 0.000000 0.000000
# 2 -0.009122 0.019811 -0.002783 0.000000 0.000000 0.000000
# 3 -0.002783 -0.002783 0.010415 0.000000 0.000000 0.000000
# 4 0.000000 0.000000 0.000000 -0.010665 0.000000 0.000000
# 5 0.000000 0.000000 0.000000 0.000000 -0.010672 0.000000
# 6 0.000000 0.000000 0.000000 0.000000 0.000000 -0.110222
#
#
# Mechanical properties :
#
#
# Convention : Reuss Voigt Hill
#
# Bulk Modulus (GPa) = 48.40243 49.45099 48.92671
# Shear Modulus (GPa) = -110.47723 -28.66691 -69.57207
#
# Velocity S-wave (km/s) = -7.94107 -4.04513 -6.30173
# Velocity P-wave (km/s) = 7.51349 2.53164 5.00217
#
# Compressibility (1/GPa) = 0.02066012
#
# Stress axis : x y z
#
# Youngs Moduli (GPa) = 50.47760 50.47762 96.01357
#
# Poissons Ratio (x) = 0.46046 0.26721
# Poissons Ratio (y) = 0.46046 0.26721
# Poissons Ratio (z) = 0.14048 0.14048
#
# Static dielectric constant tensor:
#      x y z
#    x 1.571350 0.000000 0.000000 
#    y 0.000000 1.571340 0.000000 
#    z 0.000000 0.000000 1.682890 
# 
# From -- ./inp_files/7162.got.cif
#   From: 2010.05.17/outbox.cif.g08.bks.cpg/sg128_4_cif.got.tgz:7162.got - 2010.05.20 12:07:25.
