data_PCOD9564655
_publ_section_title
;
Structure prediction by ZEFSAII (Michael W. Deem and Ramdas Pophale) SiO2 
 PCOD9564655
Probable space group: P 4/M N C
;
_chemical_formula_sum "Si O2"
_cell_formula_units_Z 120
_cell_length_a 25.440624
_cell_length_b 25.440624
_cell_length_c 9.970319
_cell_angle_alpha 90.000000
_cell_angle_beta 90.000000
_cell_angle_gamma 90.000000
_cell_volume 6453.043199
_symmetry_space_group_name_H-M "P 4/M N C"
_symmetry_group_IT_number 128
_symmetry_cell_setting 'tetragonal'
loop_
_space_group_symop_operation_xyz
x,y,z
-y,x,z
-x,-y,z
y,-x,z
1/2+x,1/2-y,1/2-z
1/2-x,1/2+y,1/2-z
1/2+y,1/2+x,1/2-z
1/2-y,1/2-x,1/2-z
-x,-y,-z
y,-x,-z
x,y,-z
-y,x,-z
1/2-x,1/2+y,1/2+z
1/2+x,1/2-y,1/2+z
1/2-y,1/2-x,1/2+z
1/2+y,1/2+x,1/2+z
loop_
_atom_site_type_symbol
_atom_site_label
_atom_site_fract_x
_atom_site_fract_y
_atom_site_fract_z
Si Si1 0.465500 0.201299 0.348154
Si Si2 0.621950 0.059919 0.850887
Si Si3 0.510765 0.410625 0.500000
Si Si4 0.365414 0.207539 0.160069
Si Si5 0.114270 0.825134 0.650146
Si Si6 0.207349 0.906561 0.352236
Si Si7 0.319459 0.506885 0.709373
Si Si8 0.147475 0.287477 0.846584
O O1 0.445061 0.190550 0.500000
O O2 0.510363 0.158651 0.316506
O O3 0.421700 0.198985 0.232672
O O4 0.488780 0.260633 0.352694
O O5 0.576331 0.076331 0.750000
O O6 0.662346 0.108942 0.856533
O O7 0.600626 0.051419 0.000000
O O8 0.556461 0.455332 0.500000
O O9 0.513035 0.368862 0.622632
O O10 0.324540 0.175461 0.250000
O O11 0.356360 0.270044 0.174358
O O12 0.364983 0.194857 0.000000
O O13 0.091747 0.821033 0.500000
O O14 0.155391 0.871579 0.654016
O O15 0.066102 0.832321 0.748859
O O16 0.232380 0.899681 0.500000
O O17 0.243940 0.885799 0.232885
O O18 0.190477 0.966319 0.329232
O O19 0.195458 0.304543 0.750000
O O20 0.161893 0.272667 0.000000
#
# Coordination Sequence:
#
# PCOD9564655 Si02
#       8
#    16  16   8  16  16  16  16  16
#     4  10  19  35  58  85 114 148 194 238 284 342
#     4   9  18  32  50  78 114 150 182 230 279 338
#     4  11  24  38  56  84 118 154 196 253 318 376
#     4  10  21  38  60  84 116 151 193 239 288 346
#     4   9  21  39  56  83 112 146 195 242 293 356
#     4  11  22  36  58  82 112 152 194 243 297 354
#     4  11  20  37  58  80 111 149 193 244 297 357
#     4  10  20  35  53  80 117 152 190 232 286 351
#
# _framework density 18.595876000000001
#
# number of rings (size 3 to 8) (size 9 to 14) (size 15 to 20)
#    0.000    1.933    2.000    2.000    0.933    2.133 
#    1.200    1.333    0.000    0.400    0.000    8.400 
#    0.000    0.000    0.000    0.000    0.000    0.000 
#
# Total GULP energy -668492.024427 kJ/mol
# GULP energy per Si atom -5570.766870 kJ/mol
# Density = 1.855355 g / cm^3
# Si number density = 18.595876 Si / 1000 Ang^3
#
#
#
# Elastic Constant Matrix: (Units=GPa)
#
#
# Indices 1 2 3 4 5 6 
#
# 1 43.9990 21.8841 32.7854 0.0000 0.0000 0.0000
# 2 21.8841 43.9920 32.7844 0.0000 0.0000 0.0000
# 3 32.7854 32.7844 110.1538 0.0000 0.0000 0.0000
# 4 0.0000 0.0000 0.0000 20.6292 0.0000 0.0000
# 5 0.0000 0.0000 0.0000 0.0000 20.6283 0.0000
# 6 0.0000 0.0000 0.0000 0.0000 0.0000 29.4148
#
#
#
# Elastic Compliance Matrix: (Units=1/GPa)
#
#
# Indices 1 2 3 4 5 6 
#
# 1 0.033394 -0.011829 -0.006419 0.000000 0.000000 0.000000
# 2 -0.011829 0.033400 -0.006420 0.000000 0.000000 0.000000
# 3 -0.006419 -0.006420 0.012899 0.000000 0.000000 0.000000
# 4 0.000000 0.000000 0.000000 0.048475 0.000000 0.000000
# 5 0.000000 0.000000 0.000000 0.000000 0.048477 0.000000
# 6 0.000000 0.000000 0.000000 0.000000 0.000000 0.033996
#
#
# Mechanical properties :
#
#
# Convention : Reuss Voigt Hill
#
# Bulk Modulus (GPa) = 32.93951 41.45030 37.19490
# Shear Modulus (GPa) = 18.51192 21.51385 20.01288
#
# Velocity S-wave (km/s) = 3.15855 3.40504 3.28411
# Velocity P-wave (km/s) = 5.57259 6.14796 5.86733
#
# Compressibility (1/GPa) = 0.03035868
#
# Stress axis : x y z
#
# Youngs Moduli (GPa) = 29.94557 29.94003 77.52309
#
# Poissons Ratio (x) = 0.35415 0.49759
# Poissons Ratio (y) = 0.35422 0.49770
# Poissons Ratio (z) = 0.19221 0.19222
#
# Static dielectric constant tensor:
#      x y z
#    x 1.634760 0.000000 0.000000 
#    y 0.000000 1.634760 0.000000 
#    z 0.000000 0.000000 1.682160 
# 
# From -- ./inp_files/1807.got.cif
#   From: 2010.05.17/outbox.cif.g08.bks.cpg/sg128_1_cif.got.tgz:1807.got - 2010.05.20 12:07:25.
