data_PCOD9564473
_publ_section_title
;
Structure prediction by ZEFSAII (Michael W. Deem and Ramdas Pophale) SiO2 
 PCOD9564473
Probable space group: P 4/M B M
;
_chemical_formula_sum "Si O2"
_cell_formula_units_Z 64
_cell_length_a 17.975149
_cell_length_b 17.975149
_cell_length_c 7.792108
_cell_angle_alpha 90.000000
_cell_angle_beta 90.000000
_cell_angle_gamma 90.000000
_cell_volume 2517.676704
_symmetry_space_group_name_H-M "P 4/M B M"
_symmetry_group_IT_number 127
_symmetry_cell_setting 'tetragonal'
loop_
_space_group_symop_operation_xyz
x,y,z
-y,x,z
-x,-y,z
y,-x,z
1/2+x,1/2-y,-z
1/2-x,1/2+y,-z
1/2+y,1/2+x,-z
1/2-y,1/2-x,-z
-x,-y,-z
y,-x,-z
x,y,-z
-y,x,-z
1/2-x,1/2+y,z
1/2+x,1/2-y,z
1/2-y,1/2-x,z
1/2+y,1/2+x,z
loop_
_atom_site_type_symbol
_atom_site_label
_atom_site_fract_x
_atom_site_fract_y
_atom_site_fract_z
Si Si1 0.606258 0.767586 0.310342
Si Si2 0.340955 0.723492 0.194772
Si Si3 0.452131 0.610670 0.210216
Si Si4 0.994169 0.617994 0.794091
O O1 0.604849 0.734559 0.500000
O O2 0.662215 0.837786 0.313768
O O3 0.649969 0.711757 0.188092
O O4 0.527736 0.804171 0.264665
O O5 0.289212 0.789212 0.271495
O O6 0.413871 0.686151 0.275196
O O7 0.359146 0.747036 0.000000
O O8 0.405658 0.536939 0.260870
O O9 0.451641 0.613768 0.000000
O O10 0.054525 0.554525 0.745552
O O11 0.914590 0.585411 0.734951
O O12 0.992910 0.620308 0.000000
#
# Coordination Sequence:
#
# PCOD9564473 Si02
#       4
#    16  16  16  16
#     4   9  16  24  35  54  81 113 148 183 220 268
#     4   9  16  26  43  67  92 116 144 183 232 283
#     4   8  14  26  46  71  95 119 151 193 238 280
#     4   8  13  21  33  49  71 102 142 189 237 278
#
# _framework density 25.420262999999998
#
# number of rings (size 3 to 8) (size 9 to 14) (size 15 to 20)
#    0.000    3.500    0.000    2.250    0.000    3.500 
#    0.000    2.500    0.000    3.000    0.000    8.750 
#    0.000    0.000    0.000    0.000    0.000    0.000 
#
# Total GULP energy -356792.672762 kJ/mol
# GULP energy per Si atom -5574.885512 kJ/mol
# Density = 2.536241 g / cm^3
# Si number density = 25.420263 Si / 1000 Ang^3
#
#
#
# Elastic Constant Matrix: (Units=GPa)
#
#
# Indices 1 2 3 4 5 6 
#
# 1 83.9617 125.0777 1.3643 0.0000 0.0000 0.0000
# 2 125.0777 83.9617 1.3643 0.0000 0.0000 0.0000
# 3 1.3643 1.3643 36.4394 0.0000 0.0000 0.0000
# 4 0.0000 0.0000 0.0000 -5.8854 0.0000 0.0000
# 5 0.0000 0.0000 0.0000 0.0000 -5.8854 0.0000
# 6 0.0000 0.0000 0.0000 0.0000 0.0000 80.7152
#
#
#
# Elastic Compliance Matrix: (Units=1/GPa)
#
#
# Indices 1 2 3 4 5 6 
#
# 1 -0.009768 0.014554 -0.000179 0.000000 0.000000 0.000000
# 2 0.014554 -0.009768 -0.000179 0.000000 0.000000 0.000000
# 3 -0.000179 -0.000179 0.027456 0.000000 0.000000 0.000000
# 4 0.000000 0.000000 0.000000 -0.169913 0.000000 0.000000
# 5 0.000000 0.000000 0.000000 0.000000 -0.169913 0.000000
# 6 0.000000 0.000000 0.000000 0.000000 0.000000 0.012389
#
#
# Mechanical properties :
#
#
# Convention : Reuss Voigt Hill
#
# Bulk Modulus (GPa) = 27.53933 51.10838 39.32385
# Shear Modulus (GPa) = -14.88973 18.89267 2.00147
#
# Velocity S-wave (km/s) = -2.42284 2.72915 0.88829
# Velocity P-wave (km/s) = 1.74077 5.48453 4.06880
#
# Compressibility (1/GPa) = 0.03631170
#
# Stress axis : x y z
#
# Youngs Moduli (GPa) = -102.37874 -102.37874 36.42164
#
# Poissons Ratio (x) = 1.49000 0.00653
# Poissons Ratio (y) = 1.49000 0.00653
# Poissons Ratio (z) = -0.01834 -0.01834
#
# Static dielectric constant tensor:
#      x y z
#    x 2.048970 0.000000 0.000000 
#    y 0.000000 2.048970 0.000000 
#    z 0.000000 0.000000 1.965600 
# 
# From -- ./inp_files/1390.got.cif
#   From: 2010.05.17/outbox.cif.g08.bks.cpg/sg127_1_cif.got.tgz:1390.got - 2010.05.20 12:03:00.
