data_PCOD9564248
_publ_section_title
;
Structure prediction by ZEFSAII (Michael W. Deem and Ramdas Pophale) SiO2 
 PCOD9564248
Probable space group: P 4/M B M
;
_chemical_formula_sum "Si O2"
_cell_formula_units_Z 88
_cell_length_a 15.411817
_cell_length_b 15.411817
_cell_length_c 21.349877
_cell_angle_alpha 90.000000
_cell_angle_beta 90.000000
_cell_angle_gamma 90.000000
_cell_volume 5071.110389
_symmetry_space_group_name_H-M "P 4/M B M"
_symmetry_group_IT_number 127
_symmetry_cell_setting 'tetragonal'
loop_
_space_group_symop_operation_xyz
x,y,z
-y,x,z
-x,-y,z
y,-x,z
1/2+x,1/2-y,-z
1/2-x,1/2+y,-z
1/2+y,1/2+x,-z
1/2-y,1/2-x,-z
-x,-y,-z
y,-x,-z
x,y,-z
-y,x,-z
1/2-x,1/2+y,z
1/2+x,1/2-y,z
1/2-y,1/2-x,z
1/2+y,1/2+x,z
loop_
_atom_site_type_symbol
_atom_site_label
_atom_site_fract_x
_atom_site_fract_y
_atom_site_fract_z
Si Si1 0.146172 0.006230 0.427291
Si Si2 0.006541 0.638786 0.196780
Si Si3 0.681781 0.326740 0.249213
Si Si4 0.935920 0.868622 0.000000
Si Si5 0.496163 0.743884 0.304755
Si Si6 0.385779 0.740302 0.121598
O O1 0.172923 0.007420 0.500000
O O2 0.079857 0.086853 0.417276
O O3 0.224215 0.008220 0.377893
O O4 0.935891 0.564110 0.187279
O O5 0.004292 0.664116 0.270084
O O6 0.970814 0.717094 0.154554
O O7 0.100020 0.600020 0.179995
O O8 0.765777 0.265777 0.262220
O O9 0.598887 0.289122 0.285780
O O10 0.693730 0.425110 0.270492
O O11 0.659148 0.316616 0.176056
O O12 0.909868 0.814400 0.061287
O O13 0.038540 0.888183 0.000000
O O14 0.318222 0.818222 0.106797
#
# Coordination Sequence:
#
# PCOD9564248 Si02
#       6
#    16  16  16   8  16  16
#     4   9  17  30  48  75 110 145 182 218 265 333
#     4   9  19  36  58  81 105 141 187 233 278 320
#     4  10  22  34  53  85 111 139 186 232 278 334
#     4  11  25  40  54  79 115 151 180 209 270 349
#     4  11  18  32  55  80 114 140 176 230 286 328
#     4   9  20  40  59  78 108 142 181 233 274 318
#
# _framework density 17.353200999999999
#
# number of rings (size 3 to 8) (size 9 to 14) (size 15 to 20)
#    0.000    2.273    1.818    3.000    5.091    0.364 
#    0.000    1.364    0.000    7.636    0.000    1.273 
#    0.000    0.000    0.000    0.000    0.000    0.000 
#
# Total GULP energy -490158.083594 kJ/mol
# GULP energy per Si atom -5569.978223 kJ/mol
# Density = 1.731370 g / cm^3
# Si number density = 17.353201 Si / 1000 Ang^3
#
#
#
# Elastic Constant Matrix: (Units=GPa)
#
#
# Indices 1 2 3 4 5 6 
#
# 1 44.9717 21.4043 35.5140 0.0000 0.0000 0.0000
# 2 21.4043 44.9717 35.5140 0.0000 0.0000 0.0000
# 3 35.5140 35.5140 129.3457 0.0000 0.0000 0.0000
# 4 0.0000 0.0000 0.0000 17.7504 0.0000 0.0000
# 5 0.0000 0.0000 0.0000 0.0000 17.7504 0.0000
# 6 0.0000 0.0000 0.0000 0.0000 0.0000 17.2895
#
#
#
# Elastic Compliance Matrix: (Units=1/GPa)
#
#
# Indices 1 2 3 4 5 6 
#
# 1 0.031883 -0.010549 -0.005858 0.000000 0.000000 0.000000
# 2 -0.010549 0.031883 -0.005858 0.000000 0.000000 0.000000
# 3 -0.005858 -0.005858 0.010948 0.000000 0.000000 0.000000
# 4 0.000000 0.000000 0.000000 0.056337 0.000000 0.000000
# 5 0.000000 0.000000 0.000000 0.000000 0.056337 0.000000
# 6 0.000000 0.000000 0.000000 0.000000 0.000000 0.057839
#
#
# Mechanical properties :
#
#
# Convention : Reuss Voigt Hill
#
# Bulk Modulus (GPa) = 33.12890 44.90598 39.01744
# Shear Modulus (GPa) = 16.67696 19.01518 17.84607
#
# Velocity S-wave (km/s) = 3.10341 3.31384 3.21035
# Velocity P-wave (km/s) = 5.65455 6.36992 6.02286
#
# Compressibility (1/GPa) = 0.03018513
#
# Stress axis : x y z
#
# Youngs Moduli (GPa) = 31.36501 31.36501 91.34269
#
# Poissons Ratio (x) = 0.33087 0.53504
# Poissons Ratio (y) = 0.33087 0.53504
# Poissons Ratio (z) = 0.18372 0.18372
#
# Static dielectric constant tensor:
#      x y z
#    x 1.623680 0.000000 0.000000 
#    y 0.000000 1.623680 0.000000 
#    z 0.000000 0.000000 1.572160 
# 
# From -- ./inp_files/5697.got.cif
#   From: 2010.05.17/outbox.cif.g08.bks.cpg/sg127_3_cif.got.tgz:5697.got - 2010.05.20 12:03:00.
