data_PCOD9564689
_publ_section_title
;
Structure prediction by ZEFSAII (Michael W. Deem and Ramdas Pophale) SiO2 
 PCOD9564689
Probable space group: P 4/M N C
;
_chemical_formula_sum "Si O2"
_cell_formula_units_Z 64
_cell_length_a 13.277188
_cell_length_b 13.277188
_cell_length_c 15.996046
_cell_angle_alpha 90.000000
_cell_angle_beta 90.000000
_cell_angle_gamma 90.000000
_cell_volume 2819.842513
_symmetry_space_group_name_H-M "P 4/M N C"
_symmetry_group_IT_number 128
_symmetry_cell_setting 'tetragonal'
loop_
_space_group_symop_operation_xyz
x,y,z
-y,x,z
-x,-y,z
y,-x,z
1/2+x,1/2-y,1/2-z
1/2-x,1/2+y,1/2-z
1/2+y,1/2+x,1/2-z
1/2-y,1/2-x,1/2-z
-x,-y,-z
y,-x,-z
x,y,-z
-y,x,-z
1/2-x,1/2+y,1/2+z
1/2+x,1/2-y,1/2+z
1/2-y,1/2-x,1/2+z
1/2+y,1/2+x,1/2+z
loop_
_atom_site_type_symbol
_atom_site_label
_atom_site_fract_x
_atom_site_fract_y
_atom_site_fract_z
Si Si1 0.953357 0.718496 0.908254
Si Si2 0.069770 0.626734 0.594283
Si Si3 0.689122 0.286858 0.089302
Si Si4 0.734817 0.067413 0.729115
O O1 0.833860 0.701255 0.913310
O O2 0.973231 0.771299 0.818789
O O3 0.014359 0.613347 0.898893
O O4 0.984729 0.760400 0.000000
O O5 0.025236 0.638919 0.500000
O O6 0.166514 0.700608 0.596489
O O7 0.007109 0.668959 0.671811
O O8 0.617781 0.314746 0.166491
O O9 0.646260 0.320438 0.000000
O O10 0.658621 0.158621 0.750000
#
# Coordination Sequence:
#
# PCOD9564689 Si02
#       4
#    16  16  16  16
#     4   9  19  32  47  72 105 139 175 216 266 322
#     4  10  20  35  56  79 109 147 184 229 282 330
#     4   9  19  35  53  76 105 139 182 230 277 327
#     4  10  20  32  51  79 108 139 178 226 273 327
#
# _framework density 22.696303
#
# number of rings (size 3 to 8) (size 9 to 14) (size 15 to 20)
#    0.000    2.500    0.000    1.500    0.000   14.000 
#    0.000   11.250    0.000    1.500    0.000   15.750 
#    0.000    0.000    0.000    0.000    0.000    0.000 
#
# Total GULP energy -356543.779614 kJ/mol
# GULP energy per Si atom -5570.996556 kJ/mol
# Density = 2.264465 g / cm^3
# Si number density = 22.696303 Si / 1000 Ang^3
#
#
#
# Elastic Constant Matrix: (Units=GPa)
#
#
# Indices 1 2 3 4 5 6 
#
# 1 26.7119 9.9611 22.6106 0.0000 0.0000 0.0000
# 2 9.9611 26.7119 22.6106 0.0000 0.0000 0.0000
# 3 22.6106 22.6106 234.2941 0.0000 0.0000 0.0000
# 4 0.0000 0.0000 0.0000 -16.7566 0.0000 0.0000
# 5 0.0000 0.0000 0.0000 0.0000 -16.7566 0.0000
# 6 0.0000 0.0000 0.0000 0.0000 0.0000 11.6351
#
#
#
# Elastic Compliance Matrix: (Units=1/GPa)
#
#
# Indices 1 2 3 4 5 6 
#
# 1 0.045325 -0.014374 -0.002987 0.000000 0.000000 0.000000
# 2 -0.014374 0.045325 -0.002987 0.000000 0.000000 0.000000
# 3 -0.002987 -0.002987 0.004845 0.000000 0.000000 0.000000
# 4 0.000000 0.000000 0.000000 -0.059678 0.000000 0.000000
# 5 0.000000 0.000000 0.000000 0.000000 -0.059678 0.000000
# 6 0.000000 0.000000 0.000000 0.000000 0.000000 0.085946
#
#
# Mechanical properties :
#
#
# Convention : Reuss Voigt Hill
#
# Bulk Modulus (GPa) = 18.24840 44.23140 31.23990
# Shear Modulus (GPa) = 41.30615 11.12673 26.21644
#
# Velocity S-wave (km/s) = 4.27072 2.21655 3.40236
# Velocity P-wave (km/s) = 5.69003 5.10700 5.40638
#
# Compressibility (1/GPa) = 0.05479933
#
# Stress axis : x y z
#
# Youngs Moduli (GPa) = 22.06287 22.06287 206.41297
#
# Poissons Ratio (x) = 0.31713 0.61655
# Poissons Ratio (y) = 0.31713 0.61655
# Poissons Ratio (z) = 0.06590 0.06590
#
# Static dielectric constant tensor:
#      x y z
#    x 1.863300 0.000000 0.000000 
#    y 0.000000 1.863300 0.000000 
#    z 0.000000 0.000000 2.011280 
# 
# From -- ./inp_files/3506.got.cif
#   From: 2010.05.17/outbox.cif.g08.bks.cpg/sg128_2_cif.got.tgz:3506.got - 2010.05.20 12:07:25.
