data_PCOD9564443
_publ_section_title
;
Structure prediction by ZEFSAII (Michael W. Deem and Ramdas Pophale) SiO2 
 PCOD9564443
Probable space group: P 4/M B M
;
_chemical_formula_sum "Si O2"
_cell_formula_units_Z 56
_cell_length_a 11.517135
_cell_length_b 11.517135
_cell_length_c 22.691212
_cell_angle_alpha 90.000000
_cell_angle_beta 90.000000
_cell_angle_gamma 90.000000
_cell_volume 3009.862169
_symmetry_space_group_name_H-M "P 4/M B M"
_symmetry_group_IT_number 127
_symmetry_cell_setting 'tetragonal'
loop_
_space_group_symop_operation_xyz
x,y,z
-y,x,z
-x,-y,z
y,-x,z
1/2+x,1/2-y,-z
1/2-x,1/2+y,-z
1/2+y,1/2+x,-z
1/2-y,1/2-x,-z
-x,-y,-z
y,-x,-z
x,y,-z
-y,x,-z
1/2-x,1/2+y,z
1/2+x,1/2-y,z
1/2-y,1/2-x,z
1/2+y,1/2+x,z
loop_
_atom_site_type_symbol
_atom_site_label
_atom_site_fract_x
_atom_site_fract_y
_atom_site_fract_z
Si Si1 0.532463 0.692363 0.567138
Si Si2 0.305934 0.532300 0.129544
Si Si3 0.969270 0.194111 0.000000
Si Si4 0.598198 0.901803 0.349944
Si Si5 0.401514 0.098487 0.213496
O O1 0.408554 0.628879 0.573112
O O2 0.540106 0.738508 0.500000
O O3 0.552545 0.789987 0.615093
O O4 0.371349 0.408288 0.133670
O O5 0.248774 0.540215 0.064046
O O6 0.211795 0.552991 0.179380
O O7 0.092425 0.127229 0.000000
O O8 0.624415 0.875585 0.281773
O O9 0.500000 0.000000 0.351574
O O10 0.500000 0.000000 0.211076
#
# Coordination Sequence:
#
# PCOD9564443 Si02
#       5
#    16  16   8   8   8
#     4   9  20  40  65  92 118 145 185 239 292 340
#     4   9  19  38  63  85 110 150 193 239 297 351
#     4   7  12  29  58  87 109 135 184 242 295 350
#     4  11  25  40  56  85 121 161 196 230 278 336
#     4  11  26  40  54  81 123 158 196 240 273 328
#
# _framework density 18.605502000000001
#
# number of rings (size 3 to 8) (size 9 to 14) (size 15 to 20)
#    0.000    2.714    0.000    3.000    4.000    4.000 
#    0.000    4.286    0.000    0.000    0.000    0.000 
#    0.000    0.000    0.000    0.000    0.000    0.000 
#
# Total GULP energy -312376.050658 kJ/mol
# GULP energy per Si atom -5578.143762 kJ/mol
# Density = 1.856316 g / cm^3
# Si number density = 18.605502 Si / 1000 Ang^3
#
#
#
# Elastic Constant Matrix: (Units=GPa)
#
#
# Indices 1 2 3 4 5 6 
#
# 1 64.4033 25.0908 72.3629 0.0000 0.0000 0.0000
# 2 25.0908 64.4033 72.3629 0.0000 0.0000 0.0000
# 3 72.3629 72.3629 216.4459 0.0000 0.0000 0.0000
# 4 0.0000 0.0000 0.0000 25.2195 0.0000 0.0000
# 5 0.0000 0.0000 0.0000 0.0000 25.2195 0.0000
# 6 0.0000 0.0000 0.0000 0.0000 0.0000 9.0332
#
#
#
# Elastic Compliance Matrix: (Units=1/GPa)
#
#
# Indices 1 2 3 4 5 6 
#
# 1 0.024881 -0.000556 -0.008133 0.000000 0.000000 0.000000
# 2 -0.000556 0.024881 -0.008133 0.000000 0.000000 0.000000
# 3 -0.008133 -0.008133 0.010058 0.000000 0.000000 0.000000
# 4 0.000000 0.000000 0.000000 0.039652 0.000000 0.000000
# 5 0.000000 0.000000 0.000000 0.000000 0.039652 0.000000
# 6 0.000000 0.000000 0.000000 0.000000 0.000000 0.110702
#
#
# Mechanical properties :
#
#
# Convention : Reuss Voigt Hill
#
# Bulk Modulus (GPa) = 38.19898 76.09842 57.14870
# Shear Modulus (GPa) = 17.11186 23.59019 20.35103
#
# Velocity S-wave (km/s) = 3.03598 3.56464 3.31088
# Velocity P-wave (km/s) = 5.73281 7.61131 6.73785
#
# Compressibility (1/GPa) = 0.02617871
#
# Stress axis : x y z
#
# Youngs Moduli (GPa) = 40.19063 40.19063 99.42383
#
# Poissons Ratio (x) = 0.02234 0.80858
# Poissons Ratio (y) = 0.02234 0.80858
# Poissons Ratio (z) = 0.32686 0.32686
#
# Static dielectric constant tensor:
#      x y z
#    x 1.630440 0.000000 0.000000 
#    y 0.000000 1.630440 0.000000 
#    z 0.000000 0.000000 1.643690 
# 
# From -- ./inp_files/5487.got.cif
#   From: 2010.05.17/outbox.cif.g08.bks.cpg/sg127_3_cif.got.tgz:5487.got - 2010.05.20 12:03:00.
