data_PCOD9564859
_publ_section_title
;
Structure prediction by ZEFSAII (Michael W. Deem and Ramdas Pophale) SiO2 
 PCOD9564859
Probable space group: P 4/M N C
;
_chemical_formula_sum "Si O2"
_cell_formula_units_Z 96
_cell_length_a 24.271898
_cell_length_b 24.271898
_cell_length_c 8.505471
_cell_angle_alpha 90.000000
_cell_angle_beta 90.000000
_cell_angle_gamma 90.000000
_cell_volume 5010.785879
_symmetry_space_group_name_H-M "P 4/M N C"
_symmetry_group_IT_number 128
_symmetry_cell_setting 'tetragonal'
loop_
_space_group_symop_operation_xyz
x,y,z
-y,x,z
-x,-y,z
y,-x,z
1/2+x,1/2-y,1/2-z
1/2-x,1/2+y,1/2-z
1/2+y,1/2+x,1/2-z
1/2-y,1/2-x,1/2-z
-x,-y,-z
y,-x,-z
x,y,-z
-y,x,-z
1/2-x,1/2+y,1/2+z
1/2+x,1/2-y,1/2+z
1/2-y,1/2-x,1/2+z
1/2+y,1/2+x,1/2+z
loop_
_atom_site_type_symbol
_atom_site_label
_atom_site_fract_x
_atom_site_fract_y
_atom_site_fract_z
Si Si1 0.986724 0.271042 0.817523
Si Si2 0.174453 0.207534 0.817171
Si Si3 0.362441 0.221965 0.186267
Si Si4 0.119451 0.902372 0.682068
Si Si5 0.858011 0.986737 0.181724
Si Si6 0.104860 0.312362 0.191041
O O1 0.001409 0.206342 0.813487
O O2 0.041860 0.301280 0.754854
O O3 0.926116 0.276023 0.741645
O O4 0.979966 0.287314 0.000000
O O5 0.226687 0.176400 0.741126
O O6 0.124819 0.165006 0.792456
O O7 0.147826 0.264313 0.754291
O O8 0.188121 0.215379 0.000000
O O9 0.332459 0.167542 0.250000
O O10 0.361895 0.222418 0.000000
O O11 0.136546 0.902829 0.500000
O O12 0.108366 0.962957 0.746976
O O13 0.065386 0.866731 0.708324
O O14 0.872456 0.974586 0.000000
O O15 0.130735 0.369266 0.250000
O O16 0.104253 0.309857 0.000000
#
# Coordination Sequence:
#
# PCOD9564859 Si02
#       6
#    16  16  16  16  16  16
#     4  10  21  40  63  86 118 159 199 241 293 359
#     4  11  21  38  60  87 124 164 201 242 298 359
#     4  12  25  40  61  92 124 159 201 248 302 356
#     4  12  24  37  57  87 119 152 203 259 302 350
#     4  11  22  40  62  81 113 161 207 247 301 359
#     4  10  22  39  61  90 122 157 197 240 292 351
#
# _framework density 19.158670000000001
#
# number of rings (size 3 to 8) (size 9 to 14) (size 15 to 20)
#    0.000    1.000    3.333    4.500    0.000    4.333 
#    0.000    1.667    0.000    0.500    0.000    3.500 
#    0.000    0.000    0.000    0.000    0.000    0.000 
#
# Total GULP energy -535772.972694 kJ/mol
# GULP energy per Si atom -5580.968466 kJ/mol
# Density = 1.911506 g / cm^3
# Si number density = 19.158670 Si / 1000 Ang^3
#
#
#
# Elastic Constant Matrix: (Units=GPa)
#
#
# Indices 1 2 3 4 5 6 
#
# 1 125.8440 3.3326 25.8132 0.0000 0.0000 0.0000
# 2 3.3326 125.8482 25.8120 0.0000 0.0000 0.0000
# 3 25.8132 25.8120 66.0168 0.0000 0.0000 0.0000
# 4 0.0000 0.0000 0.0000 25.5494 0.0000 0.0000
# 5 0.0000 0.0000 0.0000 0.0000 25.5495 0.0000
# 6 0.0000 0.0000 0.0000 0.0000 0.0000 28.3446
#
#
#
# Elastic Compliance Matrix: (Units=1/GPa)
#
#
# Indices 1 2 3 4 5 6 
#
# 1 0.008669 0.000506 -0.003588 0.000000 0.000000 0.000000
# 2 0.000506 0.008668 -0.003587 0.000000 0.000000 0.000000
# 3 -0.003588 -0.003587 0.017953 0.000000 0.000000 0.000000
# 4 0.000000 0.000000 0.000000 0.039140 0.000000 0.000000
# 5 0.000000 0.000000 0.000000 0.000000 0.039140 0.000000
# 6 0.000000 0.000000 0.000000 0.000000 0.000000 0.035280
#
#
# Mechanical properties :
#
#
# Convention : Reuss Voigt Hill
#
# Bulk Modulus (GPa) = 45.55140 47.51385 46.53262
# Shear Modulus (GPa) = 29.49775 33.40547 31.45161
#
# Velocity S-wave (km/s) = 3.92810 4.18020 4.05611
# Velocity P-wave (km/s) = 6.66339 6.93922 6.80270
#
# Compressibility (1/GPa) = 0.02195322
#
# Stress axis : x y z
#
# Youngs Moduli (GPa) = 115.35600 115.36118 55.70103
#
# Poissons Ratio (x) = -0.05840 0.19983
# Poissons Ratio (y) = -0.05840 0.19981
# Poissons Ratio (z) = 0.41384 0.41383
#
# Static dielectric constant tensor:
#      x y z
#    x 1.703490 0.000000 0.000000 
#    y 0.000000 1.703490 0.000000 
#    z 0.000000 0.000000 1.656280 
# 
# From -- ./inp_files/1444.got.cif
#   From: 2010.05.17/outbox.cif.g08.bks.cpg/sg128_1_cif.got.tgz:1444.got - 2010.05.20 12:07:25.
