data_PCOD9564469
_publ_section_title
;
Structure prediction by ZEFSAII (Michael W. Deem and Ramdas Pophale) SiO2 
 PCOD9564469
Probable space group: P 4/M B M
;
_chemical_formula_sum "Si O2"
_cell_formula_units_Z 96
_cell_length_a 25.035159
_cell_length_b 25.035159
_cell_length_c 7.360888
_cell_angle_alpha 90.000000
_cell_angle_beta 90.000000
_cell_angle_gamma 90.000000
_cell_volume 4613.504172
_symmetry_space_group_name_H-M "P 4/M B M"
_symmetry_group_IT_number 127
_symmetry_cell_setting 'tetragonal'
loop_
_space_group_symop_operation_xyz
x,y,z
-y,x,z
-x,-y,z
y,-x,z
1/2+x,1/2-y,-z
1/2-x,1/2+y,-z
1/2+y,1/2+x,-z
1/2-y,1/2-x,-z
-x,-y,-z
y,-x,-z
x,y,-z
-y,x,-z
1/2-x,1/2+y,z
1/2+x,1/2-y,z
1/2-y,1/2-x,z
1/2+y,1/2+x,z
loop_
_atom_site_type_symbol
_atom_site_label
_atom_site_fract_x
_atom_site_fract_y
_atom_site_fract_z
Si Si1 0.864246 0.553009 0.279264
Si Si2 0.487162 0.705089 0.286061
Si Si3 0.193138 0.551925 0.721842
Si Si4 0.257352 0.882198 0.720726
Si Si5 0.415715 0.506920 0.217889
Si Si6 0.326965 0.173036 0.722083
Si Si7 0.739491 0.239491 0.277876
O O1 0.864691 0.552352 0.500000
O O2 0.918579 0.581421 0.218619
O O3 0.850512 0.492689 0.222256
O O4 0.814538 0.591741 0.228575
O O5 0.483555 0.715755 0.500000
O O6 0.526998 0.750479 0.216329
O O7 0.426727 0.714598 0.217852
O O8 0.508132 0.645867 0.263713
O O9 0.192235 0.553286 0.500000
O O10 0.185824 0.612588 0.780750
O O11 0.257208 0.879313 0.500000
O O12 0.248879 0.821556 0.781252
O O13 0.444260 0.452471 0.282632
O O14 0.418821 0.507038 0.000000
O O15 0.326284 0.173717 0.500000
O O16 0.283140 0.216861 0.780401
O O17 0.740055 0.240055 0.500000
#
# Coordination Sequence:
#
# PCOD9564469 Si02
#       7
#    16  16  16  16  16   8   8
#     4   8  11  18  33  48  68 101 138 178 215 247
#     4   9  17  28  45  69  92 111 140 188 232 258
#     4   8  15  25  35  53  83 114 141 173 218 262
#     4   8  13  21  34  57  83 104 135 177 218 259
#     4   9  19  35  50  63  84 116 150 180 214 264
#     4   9  16  24  31  44  78 123 148 164 205 269
#     4   9  14  20  32  49  75 111 145 172 207 263
#
# _framework density 20.808475999999999
#
# number of rings (size 3 to 8) (size 9 to 14) (size 15 to 20)
#    0.000    3.500    0.833    2.500    0.000    2.000 
#    0.000    4.583    0.000    2.500    0.000    1.167 
#    0.000    4.000    0.000    0.000    0.000    5.667 
#
# Total GULP energy -535104.746594 kJ/mol
# GULP energy per Si atom -5574.007777 kJ/mol
# Density = 2.076112 g / cm^3
# Si number density = 20.808476 Si / 1000 Ang^3
#
#
#
# Elastic Constant Matrix: (Units=GPa)
#
#
# Indices 1 2 3 4 5 6 
#
# 1 153.0614 83.5420 5.1124 0.0000 0.0000 0.0000
# 2 83.5420 153.0611 5.1123 0.0000 0.0000 0.0000
# 3 5.1124 5.1123 70.8327 0.0000 0.0000 0.0000
# 4 0.0000 0.0000 0.0000 19.1641 0.0000 0.0000
# 5 0.0000 0.0000 0.0000 0.0000 19.1641 0.0000
# 6 0.0000 0.0000 0.0000 0.0000 0.0000 20.9606
#
#
#
# Elastic Compliance Matrix: (Units=1/GPa)
#
#
# Indices 1 2 3 4 5 6 
#
# 1 0.009312 -0.005072 -0.000306 0.000000 0.000000 0.000000
# 2 -0.005072 0.009312 -0.000306 0.000000 0.000000 0.000000
# 3 -0.000306 -0.000306 0.014162 0.000000 0.000000 0.000000
# 4 0.000000 0.000000 0.000000 0.052181 0.000000 0.000000
# 5 0.000000 0.000000 0.000000 0.000000 0.052181 0.000000
# 6 0.000000 0.000000 0.000000 0.000000 0.000000 0.047709
#
#
# Mechanical properties :
#
#
# Convention : Reuss Voigt Hill
#
# Bulk Modulus (GPa) = 46.69108 62.72094 54.70601
# Shear Modulus (GPa) = 24.58638 30.73698 27.66168
#
# Velocity S-wave (km/s) = 3.44111 3.84752 3.64998
# Velocity P-wave (km/s) = 6.18672 7.06720 6.64157
#
# Compressibility (1/GPa) = 0.02141737
#
# Stress axis : x y z
#
# Youngs Moduli (GPa) = 107.38718 107.38699 70.61174
#
# Poissons Ratio (x) = 0.54471 0.02161
# Poissons Ratio (y) = 0.54471 0.02161
# Poissons Ratio (z) = 0.03286 0.03286
#
# Static dielectric constant tensor:
#      x y z
#    x 1.729430 0.000000 0.000000 
#    y 0.000000 1.729430 0.000000 
#    z 0.000000 0.000000 1.807360 
# 
# From -- ./inp_files/3697.got.cif
#   From: 2010.05.17/outbox.cif.g08.bks.cpg/sg127_2_cif.got.tgz:3697.got - 2010.05.20 12:03:00.
