data_PCOD9564757
_publ_section_title
;
Structure prediction by ZEFSAII (Michael W. Deem and Ramdas Pophale) SiO2 
 PCOD9564757
Probable space group: P 4/M N C
;
_chemical_formula_sum "Si O2"
_cell_formula_units_Z 96
_cell_length_a 24.314338
_cell_length_b 24.314338
_cell_length_c 8.732303
_cell_angle_alpha 90.000000
_cell_angle_beta 90.000000
_cell_angle_gamma 90.000000
_cell_volume 5162.424296
_symmetry_space_group_name_H-M "P 4/M N C"
_symmetry_group_IT_number 128
_symmetry_cell_setting 'tetragonal'
loop_
_space_group_symop_operation_xyz
x,y,z
-y,x,z
-x,-y,z
y,-x,z
1/2+x,1/2-y,1/2-z
1/2-x,1/2+y,1/2-z
1/2+y,1/2+x,1/2-z
1/2-y,1/2-x,1/2-z
-x,-y,-z
y,-x,-z
x,y,-z
-y,x,-z
1/2-x,1/2+y,1/2+z
1/2+x,1/2-y,1/2+z
1/2-y,1/2-x,1/2+z
1/2+y,1/2+x,1/2+z
loop_
_atom_site_type_symbol
_atom_site_label
_atom_site_fract_x
_atom_site_fract_y
_atom_site_fract_z
Si Si1 0.305526 0.278142 0.182732
Si Si2 0.636738 0.219081 0.316765
Si Si3 0.498721 0.915329 0.182491
Si Si4 0.704661 0.009854 0.816455
Si Si5 0.415820 0.532359 0.184621
Si Si6 0.301129 0.574883 0.316512
O O1 0.276176 0.223825 0.250000
O O2 0.268518 0.328838 0.242765
O O3 0.366907 0.286497 0.241844
O O4 0.303680 0.276241 0.000000
O O5 0.663726 0.163726 0.250000
O O6 0.644331 0.220284 0.500000
O O7 0.572491 0.221524 0.281529
O O8 0.548838 0.951163 0.250000
O O9 0.502944 0.852442 0.233551
O O10 0.443771 0.943771 0.250000
O O11 0.498023 0.920301 0.000000
O O12 0.753700 0.968758 0.775042
O O13 0.695679 0.006195 0.000000
O O14 0.431116 0.469371 0.225931
O O15 0.360280 0.553593 0.260206
O O16 0.410421 0.534574 0.000000
O O17 0.302080 0.580609 0.500000
#
# Coordination Sequence:
#
# PCOD9564757 Si02
#       6
#    16  16  16  16  16  16
#     4  11  23  41  63  87 116 156 199 246 298 356
#     4  10  20  37  61  89 119 153 194 243 295 349
#     4  11  22  38  62  88 119 158 199 244 295 352
#     4  10  23  40  58  86 122 156 195 243 294 350
#     4   9  20  40  63  89 122 159 200 249 304 361
#     4  11  24  40  60  89 123 161 203 249 299 357
#
# _framework density 18.595915000000002
#
# number of rings (size 3 to 8) (size 9 to 14) (size 15 to 20)
#    0.000    1.667    0.000    6.500    2.333    5.333 
#    0.000    0.833    0.000    0.000    0.000    0.000 
#    0.000    0.000    0.000    0.000    0.000    0.000 
#
# Total GULP energy -536646.374239 kJ/mol
# GULP energy per Si atom -5590.066398 kJ/mol
# Density = 1.855359 g / cm^3
# Si number density = 18.595915 Si / 1000 Ang^3
#
#
#
# Elastic Constant Matrix: (Units=GPa)
#
#
# Indices 1 2 3 4 5 6 
#
# 1 216.5143 48.8548 79.6098 0.0000 0.0000 0.0000
# 2 48.8548 216.5821 79.6286 0.0000 0.0000 0.0000
# 3 79.6098 79.6286 101.9535 0.0000 0.0000 0.0000
# 4 0.0000 0.0000 0.0000 29.1839 0.0000 0.0000
# 5 0.0000 0.0000 0.0000 0.0000 29.1834 0.0000
# 6 0.0000 0.0000 0.0000 0.0000 0.0000 14.6432
#
#
#
# Elastic Compliance Matrix: (Units=1/GPa)
#
#
# Indices 1 2 3 4 5 6 
#
# 1 0.006527 0.000563 -0.005537 0.000000 0.000000 0.000000
# 2 0.000563 0.006526 -0.005537 0.000000 0.000000 0.000000
# 3 -0.005537 -0.005537 0.018456 0.000000 0.000000 0.000000
# 4 0.000000 0.000000 0.000000 0.034265 0.000000 0.000000
# 5 0.000000 0.000000 0.000000 0.000000 0.034266 0.000000
# 6 0.000000 0.000000 0.000000 0.000000 0.000000 0.068291
#
#
# Mechanical properties :
#
#
# Convention : Reuss Voigt Hill
#
# Bulk Modulus (GPa) = 95.33928 105.69292 100.51610
# Shear Modulus (GPa) = 25.92715 36.39922 31.16318
#
# Velocity S-wave (km/s) = 3.73800 4.42903 4.09810
# Velocity P-wave (km/s) = 8.36722 9.11675 8.75001
#
# Compressibility (1/GPa) = 0.01048886
#
# Stress axis : x y z
#
# Youngs Moduli (GPa) = 153.20166 153.23996 54.18295
#
# Poissons Ratio (x) = -0.08631 0.30000
# Poissons Ratio (y) = -0.08629 0.29999
# Poissons Ratio (z) = 0.84824 0.84843
#
# Static dielectric constant tensor:
#      x y z
#    x 1.620190 0.000000 0.000000 
#    y 0.000000 1.620180 0.000000 
#    z 0.000000 0.000000 1.624830 
# 
# From -- ./inp_files/1505.got.cif
#   From: 2010.05.17/outbox.cif.g08.bks.cpg/sg128_1_cif.got.tgz:1505.got - 2010.05.20 12:07:25.
