data_PCOD9564721
_publ_section_title
;
Structure prediction by ZEFSAII (Michael W. Deem and Ramdas Pophale) SiO2 
 PCOD9564721
Probable space group: P 4/M N C
;
_chemical_formula_sum "Si O2"
_cell_formula_units_Z 88
_cell_length_a 16.933615
_cell_length_b 16.933615
_cell_length_c 16.141973
_cell_angle_alpha 90.000000
_cell_angle_beta 90.000000
_cell_angle_gamma 90.000000
_cell_volume 4628.667448
_symmetry_space_group_name_H-M "P 4/M N C"
_symmetry_group_IT_number 128
_symmetry_cell_setting 'tetragonal'
loop_
_space_group_symop_operation_xyz
x,y,z
-y,x,z
-x,-y,z
y,-x,z
1/2+x,1/2-y,1/2-z
1/2-x,1/2+y,1/2-z
1/2+y,1/2+x,1/2-z
1/2-y,1/2-x,1/2-z
-x,-y,-z
y,-x,-z
x,y,-z
-y,x,-z
1/2-x,1/2+y,1/2+z
1/2+x,1/2-y,1/2+z
1/2-y,1/2-x,1/2+z
1/2+y,1/2+x,1/2+z
loop_
_atom_site_type_symbol
_atom_site_label
_atom_site_fract_x
_atom_site_fract_y
_atom_site_fract_z
Si Si1 0.396009 0.582192 0.000000
Si Si2 0.810332 0.893617 0.329582
Si Si3 0.115559 0.641291 0.401714
Si Si4 0.797810 0.519370 0.406283
Si Si5 0.108310 0.442948 0.837272
Si Si6 0.065393 0.219974 0.739017
O O1 0.393018 0.487120 0.000000
O O2 0.353346 0.611710 0.081909
O O3 0.719107 0.872124 0.346434
O O4 0.859751 0.835988 0.271395
O O5 0.814949 0.983781 0.297544
O O6 0.115158 0.660871 0.500000
O O7 0.177858 0.571341 0.388045
O O8 0.029313 0.608568 0.376615
O O9 0.768138 0.525285 0.500000
O O10 0.878172 0.570060 0.396632
O O11 0.741506 0.550030 0.334310
O O12 0.062484 0.437517 0.750000
O O13 0.198347 0.422141 0.811678
#
# Coordination Sequence:
#
# PCOD9564721 Si02
#       6
#     8  16  16  16  16  16
#     4  11  20  34  62  94 125 159 195 245 325 401
#     4  11  21  38  61  93 127 155 198 257 322 381
#     4  10  20  34  61  92 121 154 198 256 312 377
#     4  10  21  41  58  83 121 166 212 249 299 364
#     4   9  19  35  58  88 121 160 200 247 308 374
#     4  10  23  39  59  88 123 163 208 260 311 371
#
# _framework density 19.011951
#
# number of rings (size 3 to 8) (size 9 to 14) (size 15 to 20)
#    0.000    1.909    2.727    1.091    0.000   10.545 
#   11.455    0.909    0.000    0.000    0.000    1.273 
#    0.000    0.000    0.000    0.000    0.000    0.000 
#
# Total GULP energy -491643.557488 kJ/mol
# GULP energy per Si atom -5586.858608 kJ/mol
# Density = 1.896868 g / cm^3
# Si number density = 19.011951 Si / 1000 Ang^3
#
#
#
# Elastic Constant Matrix: (Units=GPa)
#
#
# Indices 1 2 3 4 5 6 
#
# 1 55.1712 65.3780 39.3946 0.0000 0.0000 0.0000
# 2 65.3780 55.1705 39.3949 0.0000 0.0000 0.0000
# 3 39.3946 39.3949 104.3208 0.0000 0.0000 0.0000
# 4 0.0000 0.0000 0.0000 24.8673 0.0000 0.0000
# 5 0.0000 0.0000 0.0000 0.0000 24.8671 0.0000
# 6 0.0000 0.0000 0.0000 0.0000 0.0000 31.3444
#
#
#
# Elastic Compliance Matrix: (Units=1/GPa)
#
#
# Indices 1 2 3 4 5 6 
#
# 1 -0.043478 0.054492 -0.004159 0.000000 0.000000 0.000000
# 2 0.054492 -0.043479 -0.004159 0.000000 0.000000 0.000000
# 3 -0.004159 -0.004159 0.012727 0.000000 0.000000 0.000000
# 4 0.000000 0.000000 0.000000 0.040213 0.000000 0.000000
# 5 0.000000 0.000000 0.000000 0.000000 0.040214 0.000000
# 6 0.000000 0.000000 0.000000 0.000000 0.000000 0.031904
#
#
# Mechanical properties :
#
#
# Convention : Reuss Voigt Hill
#
# Bulk Modulus (GPa) = 55.19364 55.88861 55.54113
# Shear Modulus (GPa) = -103.72015 20.91543 -41.40236
#
# Velocity S-wave (km/s) = -7.39416 3.32040 -4.67165
# Velocity P-wave (km/s) = 6.61847 6.64534 0.42209
#
# Compressibility (1/GPa) = 0.01811803
#
# Stress axis : x y z
#
# Youngs Moduli (GPa) = -23.00028 -22.99977 78.57279
#
# Poissons Ratio (x) = 1.25330 0.32682
# Poissons Ratio (y) = 1.25333 0.32677
# Poissons Ratio (z) = -0.09567 -0.09565
#
# Static dielectric constant tensor:
#      x y z
#    x 1.657100 0.000000 0.000000 
#    y 0.000000 1.657100 0.000000 
#    z 0.000000 0.000000 1.661760 
# 
# From -- ./inp_files/3836.got.cif
#   From: 2010.05.17/outbox.cif.g08.bks.cpg/sg128_2_cif.got.tgz:3836.got - 2010.05.20 12:07:25.
