data_PCOD9564970
_publ_section_title
;
Structure prediction by ZEFSAII (Michael W. Deem and Ramdas Pophale) SiO2 
 PCOD9564970
Probable space group: P 4/M N C
;
_chemical_formula_sum "Si O2"
_cell_formula_units_Z 80
_cell_length_a 12.297208
_cell_length_b 12.297208
_cell_length_c 29.586621
_cell_angle_alpha 90.000000
_cell_angle_beta 90.000000
_cell_angle_gamma 90.000000
_cell_volume 4474.128018
_symmetry_space_group_name_H-M "P 4/M N C"
_symmetry_group_IT_number 128
_symmetry_cell_setting 'tetragonal'
loop_
_space_group_symop_operation_xyz
x,y,z
-y,x,z
-x,-y,z
y,-x,z
1/2+x,1/2-y,1/2-z
1/2-x,1/2+y,1/2-z
1/2+y,1/2+x,1/2-z
1/2-y,1/2-x,1/2-z
-x,-y,-z
y,-x,-z
x,y,-z
-y,x,-z
1/2-x,1/2+y,1/2+z
1/2+x,1/2-y,1/2+z
1/2-y,1/2-x,1/2+z
1/2+y,1/2+x,1/2+z
loop_
_atom_site_type_symbol
_atom_site_label
_atom_site_fract_x
_atom_site_fract_y
_atom_site_fract_z
Si Si1 0.973091 0.819664 0.553819
Si Si2 0.891617 0.227743 0.227206
Si Si3 0.306860 0.894914 0.201335
Si Si4 0.631518 0.018990 0.374626
Si Si5 0.671129 0.455482 0.825072
O O1 0.969502 0.800451 0.500000
O O2 0.963054 0.705936 0.580791
O O3 0.088794 0.880319 0.563713
O O4 0.805978 0.305978 0.250000
O O5 0.817052 0.146155 0.199479
O O6 0.952779 0.177944 0.270612
O O7 0.976441 0.298504 0.200416
O O8 0.357862 0.857862 0.250000
O O9 0.379795 0.860146 0.159878
O O10 0.500000 0.000000 0.381157
O O11 0.711438 0.934014 0.347364
O O12 0.627467 0.575301 0.837719
#
# Coordination Sequence:
#
# PCOD9564970 Si02
#       5
#    16  16  16  16  16
#     4   9  20  42  72  98 117 143 189 250 305 359
#     4  11  20  34  51  70 108 148 197 249 291 336
#     4  11  23  35  49  76 109 156 202 242 288 339
#     4  12  24  36  54  85 125 161 191 234 300 367
#     4  11  20  35  58  80 105 153 216 260 296 335
#
# _framework density 17.880579000000001
#
# number of rings (size 3 to 8) (size 9 to 14) (size 15 to 20)
#    0.000    1.200    4.000    4.200    0.000    4.000 
#    0.000    0.000    0.000    0.000    0.000    0.000 
#    0.000    0.000    0.000   25.400    0.000    0.000 
#
# Total GULP energy -445596.314881 kJ/mol
# GULP energy per Si atom -5569.953936 kJ/mol
# Density = 1.783988 g / cm^3
# Si number density = 17.880579 Si / 1000 Ang^3
#
#
#
# Elastic Constant Matrix: (Units=GPa)
#
#
# Indices 1 2 3 4 5 6 
#
# 1 93.9374 35.3918 42.8380 0.0000 0.0000 0.0000
# 2 35.3918 93.9374 42.8380 0.0000 0.0000 0.0000
# 3 42.8380 42.8380 111.8690 0.0000 0.0000 0.0000
# 4 0.0000 0.0000 0.0000 26.6371 0.0000 0.0000
# 5 0.0000 0.0000 0.0000 0.0000 26.6371 0.0000
# 6 0.0000 0.0000 0.0000 0.0000 0.0000 28.1926
#
#
#
# Elastic Compliance Matrix: (Units=1/GPa)
#
#
# Indices 1 2 3 4 5 6 
#
# 1 0.013721 -0.003360 -0.003967 0.000000 0.000000 0.000000
# 2 -0.003360 0.013721 -0.003967 0.000000 0.000000 0.000000
# 3 -0.003967 -0.003967 0.011977 0.000000 0.000000 0.000000
# 4 0.000000 0.000000 0.000000 0.037542 0.000000 0.000000
# 5 0.000000 0.000000 0.000000 0.000000 0.037542 0.000000
# 6 0.000000 0.000000 0.000000 0.000000 0.000000 0.035470
#
#
# Mechanical properties :
#
#
# Convention : Reuss Voigt Hill
#
# Bulk Modulus (GPa) = 59.42123 60.20883 59.81503
# Shear Modulus (GPa) = 28.06286 28.20508 28.13397
#
# Velocity S-wave (km/s) = 3.96594 3.97598 3.97096
# Velocity P-wave (km/s) = 7.36722 7.40430 7.38579
#
# Compressibility (1/GPa) = 0.01682900
#
# Stress axis : x y z
#
# Youngs Moduli (GPa) = 72.88331 72.88331 83.49035
#
# Poissons Ratio (x) = 0.24490 0.33123
# Poissons Ratio (y) = 0.24490 0.33123
# Poissons Ratio (z) = 0.28915 0.28915
#
# Static dielectric constant tensor:
#      x y z
#    x 1.754370 0.000000 0.000000 
#    y 0.000000 1.754370 0.000000 
#    z 0.000000 0.000000 1.678590 
# 
# From -- ./inp_files/7174.got.cif
#   From: 2010.05.17/outbox.cif.g08.bks.cpg/sg128_4_cif.got.tgz:7174.got - 2010.05.20 12:07:25.
