data_PCOD9564867
_publ_section_title
;
Structure prediction by ZEFSAII (Michael W. Deem and Ramdas Pophale) SiO2 
 PCOD9564867
Probable space group: P 4/M N C
;
_chemical_formula_sum "Si O2"
_cell_formula_units_Z 88
_cell_length_a 17.351220
_cell_length_b 17.351220
_cell_length_c 15.204120
_cell_angle_alpha 90.000000
_cell_angle_beta 90.000000
_cell_angle_gamma 90.000000
_cell_volume 4577.425887
_symmetry_space_group_name_H-M "P 4/M N C"
_symmetry_group_IT_number 128
_symmetry_cell_setting 'tetragonal'
loop_
_space_group_symop_operation_xyz
x,y,z
-y,x,z
-x,-y,z
y,-x,z
1/2+x,1/2-y,1/2-z
1/2-x,1/2+y,1/2-z
1/2+y,1/2+x,1/2-z
1/2-y,1/2-x,1/2-z
-x,-y,-z
y,-x,-z
x,y,-z
-y,x,-z
1/2-x,1/2+y,1/2+z
1/2+x,1/2-y,1/2+z
1/2-y,1/2-x,1/2+z
1/2+y,1/2+x,1/2+z
loop_
_atom_site_type_symbol
_atom_site_label
_atom_site_fract_x
_atom_site_fract_y
_atom_site_fract_z
Si Si1 0.398954 0.580933 0.000000
Si Si2 0.814564 0.893442 0.319252
Si Si3 0.122542 0.653951 0.396421
Si Si4 0.822353 0.513667 0.396520
Si Si5 0.149227 0.438361 0.899272
Si Si6 0.065692 0.220462 0.742144
O O1 0.395454 0.488031 0.000000
O O2 0.357135 0.609720 0.913242
O O3 0.728571 0.862689 0.337231
O O4 0.867169 0.842164 0.256607
O O5 0.811606 0.982756 0.290205
O O6 0.140938 0.668601 0.500000
O O7 0.162252 0.574415 0.368653
O O8 0.030315 0.641275 0.392454
O O9 0.804182 0.513507 0.500000
O O10 0.897496 0.567416 0.384798
O O11 0.757780 0.550957 0.336360
O O12 0.212277 0.413214 0.827968
O O13 0.174280 0.420826 0.000000
#
# Coordination Sequence:
#
# PCOD9564867 Si02
#       6
#     8  16  16  16  16  16
#     4  11  20  34  62  94 125 163 193 243 329 411
#     4  11  22  36  61  94 129 154 202 256 324 381
#     4   9  18  34  63  93 121 154 197 254 313 382
#     4  10  21  42  60  83 121 171 215 249 299 363
#     4   9  19  35  61  91 121 155 198 252 317 380
#     4  11  24  39  58  90 127 164 208 264 309 372
#
# _framework density 19.224779999999999
#
# number of rings (size 3 to 8) (size 9 to 14) (size 15 to 20)
#    0.000    1.909    2.727    1.091    2.545    5.455 
#    6.545    4.545    0.000    0.000    0.000    1.273 
#    0.000    0.000    0.000    0.000    0.000    0.000 
#
# Total GULP energy -491672.809036 kJ/mol
# GULP energy per Si atom -5587.191012 kJ/mol
# Density = 1.918102 g / cm^3
# Si number density = 19.224780 Si / 1000 Ang^3
#
#
#
# Elastic Constant Matrix: (Units=GPa)
#
#
# Indices 1 2 3 4 5 6 
#
# 1 82.3297 69.1132 39.5994 0.0000 0.0000 0.0000
# 2 69.1132 82.3297 39.5994 0.0000 0.0000 0.0000
# 3 39.5994 39.5994 44.7518 0.0000 0.0000 0.0000
# 4 0.0000 0.0000 0.0000 26.2875 0.0000 0.0000
# 5 0.0000 0.0000 0.0000 0.0000 26.2875 0.0000
# 6 0.0000 0.0000 0.0000 0.0000 0.0000 13.8023
#
#
#
# Elastic Compliance Matrix: (Units=1/GPa)
#
#
# Indices 1 2 3 4 5 6 
#
# 1 0.043977 -0.031686 -0.010876 0.000000 0.000000 0.000000
# 2 -0.031686 0.043977 -0.010876 0.000000 0.000000 0.000000
# 3 -0.010876 -0.010876 0.041592 0.000000 0.000000 0.000000
# 4 0.000000 0.000000 0.000000 0.038041 0.000000 0.000000
# 5 0.000000 0.000000 0.000000 0.000000 0.038041 0.000000
# 6 0.000000 0.000000 0.000000 0.000000 0.000000 0.072452
#
#
# Mechanical properties :
#
#
# Convention : Reuss Voigt Hill
#
# Bulk Modulus (GPa) = 44.10862 56.22612 50.16737
# Shear Modulus (GPa) = 12.73846 17.34871 15.04359
#
# Velocity S-wave (km/s) = 2.57691 3.00728 2.80037
# Velocity P-wave (km/s) = 5.64335 6.43183 6.05045
#
# Compressibility (1/GPa) = 0.02267131
#
# Stress axis : x y z
#
# Youngs Moduli (GPa) = 22.73917 22.73917 24.04289
#
# Poissons Ratio (x) = 0.72052 0.26148
# Poissons Ratio (y) = 0.72052 0.26148
# Poissons Ratio (z) = 0.24730 0.24730
#
# Static dielectric constant tensor:
#      x y z
#    x 1.663160 0.000000 0.000000 
#    y 0.000000 1.663160 0.000000 
#    z 0.000000 0.000000 1.672820 
# 
# From -- ./inp_files/3835.got.cif
#   From: 2010.05.17/outbox.cif.g08.bks.cpg/sg128_2_cif.got.tgz:3835.got - 2010.05.20 12:07:25.
