data_PCOD9564452
_publ_section_title
;
Structure prediction by ZEFSAII (Michael W. Deem and Ramdas Pophale) SiO2 
 PCOD9564452
Probable space group: P 4/M B M
;
_chemical_formula_sum "Si O2"
_cell_formula_units_Z 96
_cell_length_a 14.868942
_cell_length_b 14.868942
_cell_length_c 19.049499
_cell_angle_alpha 90.000000
_cell_angle_beta 90.000000
_cell_angle_gamma 90.000000
_cell_volume 4211.566796
_symmetry_space_group_name_H-M "P 4/M B M"
_symmetry_group_IT_number 127
_symmetry_cell_setting 'tetragonal'
loop_
_space_group_symop_operation_xyz
x,y,z
-y,x,z
-x,-y,z
y,-x,z
1/2+x,1/2-y,-z
1/2-x,1/2+y,-z
1/2+y,1/2+x,-z
1/2-y,1/2-x,-z
-x,-y,-z
y,-x,-z
x,y,-z
-y,x,-z
1/2-x,1/2+y,z
1/2+x,1/2-y,z
1/2-y,1/2-x,z
1/2+y,1/2+x,z
loop_
_atom_site_type_symbol
_atom_site_label
_atom_site_fract_x
_atom_site_fract_y
_atom_site_fract_z
Si Si1 0.983287 0.269276 0.231979
Si Si2 0.500034 0.144859 0.371133
Si Si3 0.000849 0.146204 0.415304
Si Si4 0.849862 0.502752 0.077626
Si Si5 0.191907 0.835385 0.782419
Si Si6 0.396604 0.610467 0.920931
O O1 0.063446 0.198540 0.244152
O O2 0.997687 0.349223 0.286313
O O3 0.989656 0.299030 0.150871
O O4 0.888255 0.223868 0.247359
O O5 0.413085 0.086916 0.394503
O O6 0.500395 0.249056 0.393980
O O7 0.588004 0.088004 0.393035
O O8 0.001149 0.145171 0.500000
O O9 0.912689 0.088356 0.392865
O O10 0.924512 0.424512 0.076321
O O11 0.903151 0.596850 0.081074
O O12 0.804177 0.498862 0.000000
O O13 0.285359 0.785359 0.770756
O O14 0.168763 0.844155 0.864834
O O15 0.379827 0.504048 0.911287
O O16 0.372762 0.634699 0.000000
#
# Coordination Sequence:
#
# PCOD9564452 Si02
#       6
#    16  16  16  16  16  16
#     4  12  26  43  61  90 135 168 217 287 347 408
#     4  11  25  44  69 101 142 193 239 287 349 411
#     4   9  21  45  76 112 153 193 233 278 332 396
#     4   9  18  36  62  85 112 161 219 275 340 408
#     4  12  25  40  64  90 114 161 214 263 332 407
#     4   9  18  37  61  83 113 151 193 255 335 409
#
# _framework density 22.794366
#
# number of rings (size 3 to 8) (size 9 to 14) (size 15 to 20)
#    0.000    1.667    1.667    4.500    2.333    4.667 
#    0.000    2.500    0.000    0.000    0.000    0.000 
#    0.000    0.000    0.000    0.000    0.000    0.000 
#
# Total GULP energy -536669.540452 kJ/mol
# GULP energy per Si atom -5590.307713 kJ/mol
# Density = 2.274249 g / cm^3
# Si number density = 22.794366 Si / 1000 Ang^3
#
#
#
# Elastic Constant Matrix: (Units=GPa)
#
#
# Indices 1 2 3 4 5 6 
#
# 1 133.6713 56.7750 23.9612 0.0000 0.0000 0.0000
# 2 56.7750 133.6713 23.9612 0.0000 0.0000 0.0000
# 3 23.9612 23.9612 62.1597 0.0000 0.0000 0.0000
# 4 0.0000 0.0000 0.0000 28.5468 0.0000 0.0000
# 5 0.0000 0.0000 0.0000 0.0000 28.5468 0.0000
# 6 0.0000 0.0000 0.0000 0.0000 0.0000 30.9089
#
#
#
# Elastic Compliance Matrix: (Units=1/GPa)
#
#
# Indices 1 2 3 4 5 6 
#
# 1 0.009410 -0.003595 -0.002241 0.000000 0.000000 0.000000
# 2 -0.003595 0.009410 -0.002241 0.000000 0.000000 0.000000
# 3 -0.002241 -0.002241 0.017816 0.000000 0.000000 0.000000
# 4 0.000000 0.000000 0.000000 0.035030 0.000000 0.000000
# 5 0.000000 0.000000 0.000000 0.000000 0.035030 0.000000
# 6 0.000000 0.000000 0.000000 0.000000 0.000000 0.032353
#
#
# Mechanical properties :
#
#
# Convention : Reuss Voigt Hill
#
# Bulk Modulus (GPa) = 48.82951 59.87744 54.35347
# Shear Modulus (GPa) = 30.85832 32.58748 31.72290
#
# Velocity S-wave (km/s) = 3.68335 3.78514 3.73460
# Velocity P-wave (km/s) = 6.28949 6.74008 6.51868
#
# Compressibility (1/GPa) = 0.02047942
#
# Stress axis : x y z
#
# Youngs Moduli (GPa) = 106.27336 106.27336 56.13027
#
# Poissons Ratio (x) = 0.38204 0.12582
# Poissons Ratio (y) = 0.38204 0.12582
# Poissons Ratio (z) = 0.23821 0.23821
#
# Static dielectric constant tensor:
#      x y z
#    x 1.851520 0.000000 0.000000 
#    y 0.000000 1.851520 0.000000 
#    z 0.000000 0.000000 1.877400 
# 
# From -- ./inp_files/5785.got.cif
#   From: 2010.05.17/outbox.cif.g08.bks.cpg/sg127_3_cif.got.tgz:5785.got - 2010.05.20 12:03:00.
