data_PCOD9564253
_publ_section_title
;
Structure prediction by ZEFSAII (Michael W. Deem and Ramdas Pophale) SiO2 
 PCOD9564253
Probable space group: P 4/M B M
;
_chemical_formula_sum "Si O2"
_cell_formula_units_Z 58
_cell_length_a 19.864813
_cell_length_b 19.864813
_cell_length_c 7.996581
_cell_angle_alpha 90.000000
_cell_angle_beta 90.000000
_cell_angle_gamma 90.000000
_cell_volume 3155.537190
_symmetry_space_group_name_H-M "P 4/M B M"
_symmetry_group_IT_number 127
_symmetry_cell_setting 'tetragonal'
loop_
_space_group_symop_operation_xyz
x,y,z
-y,x,z
-x,-y,z
y,-x,z
1/2+x,1/2-y,-z
1/2-x,1/2+y,-z
1/2+y,1/2+x,-z
1/2-y,1/2-x,-z
-x,-y,-z
y,-x,-z
x,y,-z
-y,x,-z
1/2-x,1/2+y,z
1/2+x,1/2-y,z
1/2-y,1/2-x,z
1/2+y,1/2+x,z
loop_
_atom_site_type_symbol
_atom_site_label
_atom_site_fract_x
_atom_site_fract_y
_atom_site_fract_z
Si Si1 0.500000 0.000000 0.500000
Si Si2 0.073011 0.573011 0.814572
Si Si3 0.280959 0.889138 0.804291
Si Si4 0.281729 0.039947 0.303375
Si Si5 0.327160 0.282855 0.699557
O O1 0.540198 0.959803 0.650519
O O2 0.151582 0.557355 0.797724
O O3 0.051019 0.551019 0.000000
O O4 0.345375 0.845375 0.738656
O O5 0.216320 0.841222 0.783732
O O6 0.268913 0.960860 0.719634
O O7 0.293153 0.901287 0.000000
O O8 0.294313 0.052841 0.500000
O O9 0.225644 0.094901 0.252317
O O10 0.323119 0.294588 0.500000
O O11 0.286820 0.213181 0.733611
#
# Coordination Sequence:
#
# PCOD9564253 Si02
#       5
#     2   8  16  16  16
#     4  12  26  44  52  78 124 164 198 240 296 340
#     4  12  25  39  59  85 118 165 207 240 288 358
#     4  10  22  36  53  83 117 150 194 242 293 353
#     4  11  21  38  59  84 117 154 199 243 294 353
#     4   9  18  36  59  80 108 148 195 242 293 350
#
# _framework density 18.380388
#
# number of rings (size 3 to 8) (size 9 to 14) (size 15 to 20)
#    0.000    1.655    2.759    1.862    1.931    3.862 
#    0.000    0.000    0.000    0.828    0.000    5.793 
#    0.000    0.000    0.000    0.000    0.000    0.000 
#
# Total GULP energy -323003.603504 kJ/mol
# GULP energy per Si atom -5569.027647 kJ/mol
# Density = 1.833855 g / cm^3
# Si number density = 18.380388 Si / 1000 Ang^3
#
#
#
# Elastic Constant Matrix: (Units=GPa)
#
#
# Indices 1 2 3 4 5 6 
#
# 1 71.4151 46.6225 10.3679 0.0000 0.0000 0.0000
# 2 46.6225 71.4151 10.3679 0.0000 0.0000 0.0000
# 3 10.3679 10.3679 79.5056 0.0000 0.0000 0.0000
# 4 0.0000 0.0000 0.0000 -26.0197 0.0000 0.0000
# 5 0.0000 0.0000 0.0000 0.0000 -26.0197 0.0000
# 6 0.0000 0.0000 0.0000 0.0000 0.0000 19.7034
#
#
#
# Elastic Compliance Matrix: (Units=1/GPa)
#
#
# Indices 1 2 3 4 5 6 
#
# 1 0.024503 -0.015832 -0.001131 0.000000 0.000000 0.000000
# 2 -0.015832 0.024503 -0.001131 0.000000 0.000000 0.000000
# 3 -0.001131 -0.001131 0.012873 0.000000 0.000000 0.000000
# 4 0.000000 0.000000 0.000000 -0.038432 0.000000 0.000000
# 5 0.000000 0.000000 0.000000 0.000000 -0.038432 0.000000
# 6 0.000000 0.000000 0.000000 0.000000 0.000000 0.050753
#
#
# Mechanical properties :
#
#
# Convention : Reuss Voigt Hill
#
# Bulk Modulus (GPa) = 38.92423 39.67248 39.29836
# Shear Modulus (GPa) = 62.09942 3.86462 32.98202
#
# Velocity S-wave (km/s) = 5.81885 1.45160 4.24065
# Velocity P-wave (km/s) = 8.14668 4.94374 6.73828
#
# Compressibility (1/GPa) = 0.02569094
#
# Stress axis : x y z
#
# Youngs Moduli (GPa) = 40.81210 40.81210 77.68430
#
# Poissons Ratio (x) = 0.64614 0.08784
# Poissons Ratio (y) = 0.64614 0.08784
# Poissons Ratio (z) = 0.04615 0.04615
#
# Static dielectric constant tensor:
#      x y z
#    x 1.636970 0.000000 0.000000 
#    y 0.000000 1.636970 0.000000 
#    z 0.000000 0.000000 1.655040 
# 
# From -- ./inp_files/1119.got.cif
#   From: 2010.05.17/outbox.cif.g08.bks.cpg/sg127_1_cif.got.tgz:1119.got - 2010.05.20 12:03:00.
