data_PCOD9564372
_publ_section_title
;
Structure prediction by ZEFSAII (Michael W. Deem and Ramdas Pophale) SiO2 
 PCOD9564372
Probable space group: P 4/M B M
;
_chemical_formula_sum "Si O2"
_cell_formula_units_Z 96
_cell_length_a 14.587083
_cell_length_b 14.587083
_cell_length_c 21.729681
_cell_angle_alpha 90.000000
_cell_angle_beta 90.000000
_cell_angle_gamma 90.000000
_cell_volume 4623.706505
_symmetry_space_group_name_H-M "P 4/M B M"
_symmetry_group_IT_number 127
_symmetry_cell_setting 'tetragonal'
loop_
_space_group_symop_operation_xyz
x,y,z
-y,x,z
-x,-y,z
y,-x,z
1/2+x,1/2-y,-z
1/2-x,1/2+y,-z
1/2+y,1/2+x,-z
1/2-y,1/2-x,-z
-x,-y,-z
y,-x,-z
x,y,-z
-y,x,-z
1/2-x,1/2+y,z
1/2+x,1/2-y,z
1/2-y,1/2-x,z
1/2+y,1/2+x,z
loop_
_atom_site_type_symbol
_atom_site_label
_atom_site_fract_x
_atom_site_fract_y
_atom_site_fract_z
Si Si1 0.605207 0.613925 0.500000
Si Si2 0.489485 0.146259 0.429538
Si Si3 0.214930 0.870171 0.377429
Si Si4 0.296234 0.945487 0.852450
Si Si5 0.855972 0.049000 0.249914
Si Si6 0.579102 0.920899 0.072706
Si Si7 0.369531 0.429053 0.073238
O O1 0.495926 0.623274 0.500000
O O2 0.651347 0.651187 0.562975
O O3 0.469402 0.171416 0.500000
O O4 0.565655 0.065655 0.432014
O O5 0.541152 0.225793 0.396188
O O6 0.398464 0.101537 0.401297
O O7 0.284588 0.784588 0.366404
O O8 0.164816 0.909479 0.317597
O O9 0.383811 0.883811 0.839800
O O10 0.236217 0.948643 0.790526
O O11 0.336371 0.034680 0.888760
O O12 0.224469 0.896067 0.898306
O O13 0.945826 0.109662 0.236706
O O14 0.500000 0.000000 0.070168
O O15 0.600561 0.899440 0.000000
O O16 0.463901 0.380620 0.091953
O O17 0.366022 0.425252 0.000000
#
# Coordination Sequence:
#
# PCOD9564372 Si02
#       7
#     8  16  16  16  16   8  16
#     4  11  23  40  62  87 123 175 224 271 346 426
#     4   8  14  28  52  82 118 158 192 234 310 394
#     4  11  21  39  64  94 126 160 215 287 342 396
#     4  11  22  40  64  93 128 166 210 263 320 384
#     4  11  25  47  68  87 123 176 225 270 332 403
#     4   9  20  40  66  96 136 179 207 246 322 396
#     4   9  18  35  59  88 125 168 210 250 300 363
#
# _framework density 20.762563
#
# number of rings (size 3 to 8) (size 9 to 14) (size 15 to 20)
#    0.000    2.000    0.833    4.250    0.000    3.667 
#    9.000    3.333    0.000    0.000    0.000    0.000 
#    0.000    0.000    0.000    0.000    0.000    0.000 
#
# Total GULP energy -534773.188666 kJ/mol
# GULP energy per Si atom -5570.554049 kJ/mol
# Density = 2.071531 g / cm^3
# Si number density = 20.762563 Si / 1000 Ang^3
#
#
#
# Elastic Constant Matrix: (Units=GPa)
#
#
# Indices 1 2 3 4 5 6 
#
# 1 69.4171 14.2015 25.1615 0.0000 0.0000 0.0000
# 2 14.2015 69.4173 25.1615 0.0000 0.0000 0.0000
# 3 25.1615 25.1615 115.6901 0.0000 0.0000 0.0000
# 4 0.0000 0.0000 0.0000 72.9460 0.0000 0.0000
# 5 0.0000 0.0000 0.0000 0.0000 72.9494 0.0000
# 6 0.0000 0.0000 0.0000 0.0000 0.0000 16.9253
#
#
#
# Elastic Compliance Matrix: (Units=1/GPa)
#
#
# Indices 1 2 3 4 5 6 
#
# 1 0.015935 -0.002175 -0.002993 0.000000 0.000000 0.000000
# 2 -0.002175 0.015935 -0.002993 0.000000 0.000000 0.000000
# 3 -0.002993 -0.002993 0.009946 0.000000 0.000000 0.000000
# 4 0.000000 0.000000 0.000000 0.013709 0.000000 0.000000
# 5 0.000000 0.000000 0.000000 0.000000 0.013708 0.000000
# 6 0.000000 0.000000 0.000000 0.000000 0.000000 0.059083
#
#
# Mechanical properties :
#
#
# Convention : Reuss Voigt Hill
#
# Bulk Modulus (GPa) = 39.22340 42.61926 40.92133
# Shear Modulus (GPa) = 32.65070 45.23082 38.94076
#
# Velocity S-wave (km/s) = 3.96987 4.67248 4.33543
# Velocity P-wave (km/s) = 6.32025 7.04847 6.69427
#
# Compressibility (1/GPa) = 0.02549498
#
# Stress axis : x y z
#
# Youngs Moduli (GPa) = 62.75316 62.75328 100.54755
#
# Poissons Ratio (x) = 0.13651 0.30091
# Poissons Ratio (y) = 0.13651 0.30091
# Poissons Ratio (z) = 0.18780 0.18780
#
# Static dielectric constant tensor:
#      x y z
#    x 1.772740 0.000000 0.000000 
#    y 0.000000 1.772740 0.000000 
#    z 0.000000 0.000000 1.801570 
# 
# From -- ./inp_files/5830.got.cif
#   From: 2010.05.17/outbox.cif.g08.bks.cpg/sg127_3_cif.got.tgz:5830.got - 2010.05.20 12:03:00.
