data_PCOD9564027
_publ_section_title
;
Structure prediction by ZEFSAII (Michael W. Deem and Ramdas Pophale) SiO2 
 PCOD9564027
Probable space group: P 4/M B M
;
_chemical_formula_sum "Si O2"
_cell_formula_units_Z 116
_cell_length_a 18.080435
_cell_length_b 18.080435
_cell_length_c 15.287758
_cell_angle_alpha 90.000000
_cell_angle_beta 90.000000
_cell_angle_gamma 90.000000
_cell_volume 4997.600650
_symmetry_space_group_name_H-M "P 4/M B M"
_symmetry_group_IT_number 127
_symmetry_cell_setting 'tetragonal'
loop_
_space_group_symop_operation_xyz
x,y,z
-y,x,z
-x,-y,z
y,-x,z
1/2+x,1/2-y,-z
1/2-x,1/2+y,-z
1/2+y,1/2+x,-z
1/2-y,1/2-x,-z
-x,-y,-z
y,-x,-z
x,y,-z
-y,x,-z
1/2-x,1/2+y,z
1/2+x,1/2-y,z
1/2-y,1/2-x,z
1/2+y,1/2+x,z
loop_
_atom_site_type_symbol
_atom_site_label
_atom_site_fract_x
_atom_site_fract_y
_atom_site_fract_z
Si Si1 0.395588 0.226735 0.170329
Si Si2 0.198629 0.484767 0.402505
Si Si3 0.063704 0.835807 0.326457
Si Si4 0.500000 0.500000 0.314335
Si Si5 0.119314 0.495253 0.217113
Si Si6 0.780594 0.166178 0.100618
Si Si7 0.610554 0.549788 0.894220
Si Si8 0.167428 0.221532 0.601536
O O1 0.335431 0.164570 0.200813
O O2 0.421523 0.284900 0.242285
O O3 0.470432 0.180741 0.151660
O O4 0.349313 0.275370 0.101774
O O5 0.167052 0.499091 0.500000
O O6 0.276554 0.527875 0.393149
O O7 0.149460 0.500724 0.316953
O O8 0.220681 0.399063 0.395438
O O9 0.146011 0.855864 0.355721
O O10 0.016173 0.909599 0.317377
O O11 0.052136 0.552136 0.210255
O O12 0.085744 0.414257 0.199633
O O13 0.711148 0.211148 0.140411
O O14 0.817486 0.092433 0.141312
O O15 0.761843 0.149965 0.000000
O O16 0.534836 0.593053 0.870956
O O17 0.615621 0.551242 0.000000
O O18 0.182462 0.205995 0.500000
O O19 0.240401 0.259600 0.641020
#
# Coordination Sequence:
#
# PCOD9564027 Si02
#       8
#    16  16  16   4  16  16  16  16
#     4   9  19  36  58  80 107 143 181 225 274 330
#     4  10  20  34  52  76 105 137 177 224 273 316
#     4  11  21  39  54  77 107 145 183 226 271 325
#     4  12  24  40  57  80 117 148 188 234 276 336
#     4   9  18  33  54  78 105 139 178 222 273 325
#     4   9  17  32  55  82 109 140 181 226 274 332
#     4   8  14  27  47  74 107 140 172 207 256 318
#     4  10  20  34  53  76 103 140 183 222 261 312
#
# _framework density 23.211138999999999
#
# number of rings (size 3 to 8) (size 9 to 14) (size 15 to 20)
#    0.000    2.483    1.379    1.655    0.000    1.655 
#    2.483    2.069    0.000    1.241    0.000    4.828 
#    0.000    0.000    0.000    0.000    0.000    0.000 
#
# Total GULP energy -645838.045853 kJ/mol
# GULP energy per Si atom -5567.569361 kJ/mol
# Density = 2.315831 g / cm^3
# Si number density = 23.211139 Si / 1000 Ang^3
#
#
#
# Elastic Constant Matrix: (Units=GPa)
#
#
# Indices 1 2 3 4 5 6 
#
# 1 87.8462 48.5293 -0.7892 0.0000 0.0000 0.0000
# 2 48.5293 87.8462 -0.7892 0.0000 0.0000 0.0000
# 3 -0.7892 -0.7892 18.9291 0.0000 0.0000 0.0000
# 4 0.0000 0.0000 0.0000 -6.3121 0.0000 0.0000
# 5 0.0000 0.0000 0.0000 0.0000 -6.3121 0.0000
# 6 0.0000 0.0000 0.0000 0.0000 0.0000 60.2545
#
#
#
# Elastic Compliance Matrix: (Units=1/GPa)
#
#
# Indices 1 2 3 4 5 6 
#
# 1 0.016385 -0.009049 0.000306 0.000000 0.000000 0.000000
# 2 -0.009049 0.016385 0.000306 0.000000 0.000000 0.000000
# 3 0.000306 0.000306 0.052854 0.000000 0.000000 0.000000
# 4 0.000000 0.000000 0.000000 -0.158426 0.000000 0.000000
# 5 0.000000 0.000000 0.000000 0.000000 -0.158426 0.000000
# 6 0.000000 0.000000 0.000000 0.000000 0.000000 0.016596
#
#
# Mechanical properties :
#
#
# Convention : Reuss Voigt Hill
#
# Bulk Modulus (GPa) = 14.54545 32.05816 23.30181
# Shear Modulus (GPa) = -28.59758 19.37078 -4.61340
#
# Velocity S-wave (km/s) = -3.51388 2.89199 -1.41134
# Velocity P-wave (km/s) = 3.19108 4.99930 2.72121
#
# Compressibility (1/GPa) = 0.06875004
#
# Stress axis : x y z
#
# Youngs Moduli (GPa) = 61.03038 61.03038 18.91999
#
# Poissons Ratio (x) = 0.55227 -0.00579
# Poissons Ratio (y) = 0.55227 -0.00579
# Poissons Ratio (z) = -0.01867 -0.01867
#
# Static dielectric constant tensor:
#      x y z
#    x 1.912110 0.000000 0.000000 
#    y 0.000000 1.912110 0.000000 
#    z 0.000000 0.000000 1.868960 
# 
# From -- ./inp_files/5270.got.cif
#   From: 2010.05.17/outbox.cif.g08.bks.cpg/sg127_3_cif.got.tgz:5270.got - 2010.05.20 12:03:00.
