data_PCOD9564167
_publ_section_title
;
Structure prediction by ZEFSAII (Michael W. Deem and Ramdas Pophale) SiO2 
 PCOD9564167
Probable space group: P 4/M B M
;
_chemical_formula_sum "Si O2"
_cell_formula_units_Z 96
_cell_length_a 24.567388
_cell_length_b 24.567388
_cell_length_c 7.360037
_cell_angle_alpha 90.000000
_cell_angle_beta 90.000000
_cell_angle_gamma 90.000000
_cell_volume 4442.198563
_symmetry_space_group_name_H-M "P 4/M B M"
_symmetry_group_IT_number 127
_symmetry_cell_setting 'tetragonal'
loop_
_space_group_symop_operation_xyz
x,y,z
-y,x,z
-x,-y,z
y,-x,z
1/2+x,1/2-y,-z
1/2-x,1/2+y,-z
1/2+y,1/2+x,-z
1/2-y,1/2-x,-z
-x,-y,-z
y,-x,-z
x,y,-z
-y,x,-z
1/2-x,1/2+y,z
1/2+x,1/2-y,z
1/2-y,1/2-x,z
1/2+y,1/2+x,z
loop_
_atom_site_type_symbol
_atom_site_label
_atom_site_fract_x
_atom_site_fract_y
_atom_site_fract_z
Si Si1 0.952141 0.364908 0.219088
Si Si2 0.717722 0.553158 0.794491
Si Si3 0.258621 0.567657 0.222790
Si Si4 0.428604 0.547489 0.219879
Si Si5 0.159213 0.427016 0.712311
Si Si6 0.642115 0.650257 0.780684
O O1 0.912039 0.412039 0.284132
O O2 0.933703 0.304475 0.277808
O O3 0.015124 0.370945 0.271153
O O4 0.950436 0.364847 0.000000
O O5 0.716096 0.491334 0.717442
O O6 0.781773 0.566621 0.800640
O O7 0.687673 0.606847 0.715684
O O8 0.694984 0.547745 0.000000
O O9 0.289367 0.623375 0.278542
O O10 0.260721 0.565712 0.000000
O O11 0.427015 0.485648 0.281670
O O12 0.380588 0.586471 0.267618
O O13 0.429625 0.545808 0.000000
O O14 0.169627 0.417007 0.500000
O O15 0.121319 0.378682 0.783152
O O16 0.649999 0.653947 0.000000
#
# Coordination Sequence:
#
# PCOD9564167 Si02
#       6
#    16  16  16  16  16  16
#     4   9  18  33  53  76 101 127 153 185 230 284
#     4   9  17  29  47  71  97 127 163 200 237 277
#     4   8  14  25  41  64  96 129 159 193 232 273
#     4   8  12  16  24  45  81 120 152 186 232 278
#     4  10  21  36  53  72  95 123 153 189 236 287
#     4   9  14  21  37  62  91 124 161 196 229 268
#
# _framework density 21.61092
#
# number of rings (size 3 to 8) (size 9 to 14) (size 15 to 20)
#    0.000    3.167    0.000    3.000    0.000    6.000 
#    0.000    2.500    0.000    7.000    0.000    0.000 
#    0.000    0.000    0.000   14.833    0.000   15.000 
#
# Total GULP energy -534722.440831 kJ/mol
# GULP energy per Si atom -5570.025425 kJ/mol
# Density = 2.156173 g / cm^3
# Si number density = 21.610920 Si / 1000 Ang^3
#
#
#
# Elastic Constant Matrix: (Units=GPa)
#
#
# Indices 1 2 3 4 5 6 
#
# 1 69.8952 61.2807 -3.5407 0.0000 0.0000 0.0000
# 2 61.2807 69.8952 -3.5407 0.0000 0.0000 0.0000
# 3 -3.5407 -3.5407 77.8869 0.0000 0.0000 0.0000
# 4 0.0000 0.0000 0.0000 45.9138 0.0000 0.0000
# 5 0.0000 0.0000 0.0000 0.0000 45.9138 0.0000
# 6 0.0000 0.0000 0.0000 0.0000 0.0000 48.0638
#
#
#
# Elastic Compliance Matrix: (Units=1/GPa)
#
#
# Indices 1 2 3 4 5 6 
#
# 1 0.061863 -0.054221 0.000347 0.000000 0.000000 0.000000
# 2 -0.054221 0.061863 0.000347 0.000000 0.000000 0.000000
# 3 0.000347 0.000347 0.012871 0.000000 0.000000 0.000000
# 4 0.000000 0.000000 0.000000 0.021780 0.000000 0.000000
# 5 0.000000 0.000000 0.000000 0.000000 0.021780 0.000000
# 6 0.000000 0.000000 0.000000 0.000000 0.000000 0.020806
#
#
# Mechanical properties :
#
#
# Convention : Reuss Voigt Hill
#
# Bulk Modulus (GPa) = 33.84720 36.23067 35.03893
# Shear Modulus (GPa) = 15.73007 38.87679 27.30343
#
# Velocity S-wave (km/s) = 2.70084 4.24599 3.55830
# Velocity P-wave (km/s) = 5.04204 6.39057 5.75593
#
# Compressibility (1/GPa) = 0.02954454
#
# Stress axis : x y z
#
# Youngs Moduli (GPa) = 16.16476 16.16476 77.69572
#
# Poissons Ratio (x) = 0.87647 -0.02699
# Poissons Ratio (y) = 0.87647 -0.02699
# Poissons Ratio (z) = -0.00562 -0.00562
#
# Static dielectric constant tensor:
#      x y z
#    x 1.784230 0.000000 0.000000 
#    y 0.000000 1.784230 0.000000 
#    z 0.000000 0.000000 1.934370 
# 
# From -- ./inp_files/2211.got.cif
#   From: 2010.05.17/outbox.cif.g08.bks.cpg/sg127_2_cif.got.tgz:2211.got - 2010.05.20 12:03:00.
