data_PCOD9564949
_publ_section_title
;
Structure prediction by ZEFSAII (Michael W. Deem and Ramdas Pophale) SiO2 
 PCOD9564949
Probable space group: P 4/M N C
;
_chemical_formula_sum "Si O2"
_cell_formula_units_Z 88
_cell_length_a 12.464304
_cell_length_b 12.464304
_cell_length_c 30.892320
_cell_angle_alpha 90.000000
_cell_angle_beta 90.000000
_cell_angle_gamma 90.000000
_cell_volume 4799.396057
_symmetry_space_group_name_H-M "P 4/M N C"
_symmetry_group_IT_number 128
_symmetry_cell_setting 'tetragonal'
loop_
_space_group_symop_operation_xyz
x,y,z
-y,x,z
-x,-y,z
y,-x,z
1/2+x,1/2-y,1/2-z
1/2-x,1/2+y,1/2-z
1/2+y,1/2+x,1/2-z
1/2-y,1/2-x,1/2-z
-x,-y,-z
y,-x,-z
x,y,-z
-y,x,-z
1/2-x,1/2+y,1/2+z
1/2+x,1/2-y,1/2+z
1/2-y,1/2-x,1/2+z
1/2+y,1/2+x,1/2+z
loop_
_atom_site_type_symbol
_atom_site_label
_atom_site_fract_x
_atom_site_fract_y
_atom_site_fract_z
Si Si1 0.771173 0.308371 0.000000
Si Si2 0.000000 0.500000 0.071397
Si Si3 0.947450 0.674595 0.500000
Si Si4 0.158591 0.088931 0.736941
Si Si5 0.184503 0.649458 0.406734
Si Si6 0.413847 0.341458 0.858580
Si Si7 0.908461 0.156376 0.168726
O O1 0.656721 0.249239 0.000000
O O2 0.763094 0.438642 0.000000
O O3 0.837697 0.280179 0.956580
O O4 0.055421 0.596309 0.097017
O O5 0.094130 0.452000 0.041004
O O6 0.204391 0.112416 0.689488
O O7 0.206090 0.117929 0.783715
O O8 0.039326 0.139654 0.736996
O O9 0.128033 0.761046 0.394283
O O10 0.276822 0.629836 0.372125
O O11 0.541339 0.360414 0.862149
O O12 0.037030 0.140969 0.167075
#
# Coordination Sequence:
#
# PCOD9564949 Si02
#       7
#     8   8   8  16  16  16  16
#     4  10  24  37  58  84 107 156 181 235 279 340
#     4   9  22  40  56  75 112 154 172 225 280 349
#     4   9  20  43  60  77 110 142 194 218 293 335
#     4   7  12  29  53  76 109 146 176 225 287 328
#     4  11  23  36  57  84 109 151 189 222 290 328
#     4   9  19  34  55  84 114 144 185 230 277 340
#     4   9  19  35  56  82 109 143 193 239 273 323
#
# _framework density 18.335640000000001
#
# number of rings (size 3 to 8) (size 9 to 14) (size 15 to 20)
#    0.000    2.909    0.000    2.727    7.636    0.909 
#    0.000    0.000    0.000    5.455    0.000    0.000 
#    0.000    0.000    0.000    0.000    0.000    0.000 
#
# Total GULP energy -490179.682433 kJ/mol
# GULP energy per Si atom -5570.223664 kJ/mol
# Density = 1.829391 g / cm^3
# Si number density = 18.335640 Si / 1000 Ang^3
#
#
#
# Elastic Constant Matrix: (Units=GPa)
#
#
# Indices 1 2 3 4 5 6 
#
# 1 48.8539 23.7459 17.1634 0.0000 0.0000 0.0000
# 2 23.7459 48.8539 17.1634 0.0000 0.0000 0.0000
# 3 17.1634 17.1634 123.1842 0.0000 0.0000 0.0000
# 4 0.0000 0.0000 0.0000 18.3604 0.0000 0.0000
# 5 0.0000 0.0000 0.0000 0.0000 18.3604 0.0000
# 6 0.0000 0.0000 0.0000 0.0000 0.0000 24.0028
#
#
#
# Elastic Compliance Matrix: (Units=1/GPa)
#
#
# Indices 1 2 3 4 5 6 
#
# 1 0.027287 -0.012541 -0.002055 0.000000 0.000000 0.000000
# 2 -0.012541 0.027287 -0.002055 0.000000 0.000000 0.000000
# 3 -0.002055 -0.002055 0.008690 0.000000 0.000000 0.000000
# 4 0.000000 0.000000 0.000000 0.054465 0.000000 0.000000
# 5 0.000000 0.000000 0.000000 0.000000 0.054465 0.000000
# 6 0.000000 0.000000 0.000000 0.000000 0.000000 0.041662
#
#
# Mechanical properties :
#
#
# Convention : Reuss Voigt Hill
#
# Bulk Modulus (GPa) = 33.37395 37.44861 35.41128
# Shear Modulus (GPa) = 19.44434 22.99933 21.22183
#
# Velocity S-wave (km/s) = 3.26001 3.54552 3.40576
# Velocity P-wave (km/s) = 5.69311 6.10158 5.90088
#
# Compressibility (1/GPa) = 0.02996349
#
# Stress axis : x y z
#
# Youngs Moduli (GPa) = 36.64780 36.64780 115.06891
#
# Poissons Ratio (x) = 0.45961 0.23641
# Poissons Ratio (y) = 0.45961 0.23641
# Poissons Ratio (z) = 0.07529 0.07529
#
# Static dielectric constant tensor:
#      x y z
#    x 1.612140 0.000000 0.000000 
#    y 0.000000 1.612140 0.000000 
#    z 0.000000 0.000000 1.694010 
# 
# From -- ./inp_files/7316.got.cif
#   From: 2010.05.17/outbox.cif.g08.bks.cpg/sg128_4_cif.got.tgz:7316.got - 2010.05.20 12:07:25.
