data_PCOD9564683
_publ_section_title
;
Structure prediction by ZEFSAII (Michael W. Deem and Ramdas Pophale) SiO2 
 PCOD9564683
Probable space group: P 4/M N C
;
_chemical_formula_sum "Si O2"
_cell_formula_units_Z 96
_cell_length_a 26.613249
_cell_length_b 26.613249
_cell_length_c 7.625344
_cell_angle_alpha 90.000000
_cell_angle_beta 90.000000
_cell_angle_gamma 90.000000
_cell_volume 5400.764438
_symmetry_space_group_name_H-M "P 4/M N C"
_symmetry_group_IT_number 128
_symmetry_cell_setting 'tetragonal'
loop_
_space_group_symop_operation_xyz
x,y,z
-y,x,z
-x,-y,z
y,-x,z
1/2+x,1/2-y,1/2-z
1/2-x,1/2+y,1/2-z
1/2+y,1/2+x,1/2-z
1/2-y,1/2-x,1/2-z
-x,-y,-z
y,-x,-z
x,y,-z
-y,x,-z
1/2-x,1/2+y,1/2+z
1/2+x,1/2-y,1/2+z
1/2-y,1/2-x,1/2+z
1/2+y,1/2+x,1/2+z
loop_
_atom_site_type_symbol
_atom_site_label
_atom_site_fract_x
_atom_site_fract_y
_atom_site_fract_z
Si Si1 0.819929 0.602624 0.209426
Si Si2 0.567497 0.284942 0.202664
Si Si3 0.400606 0.979477 0.710556
Si Si4 0.363799 0.436514 0.500000
Si Si5 0.156495 0.577544 0.790101
Si Si6 0.851162 0.944249 0.000000
Si Si7 0.947839 0.230651 0.704534
O O1 0.844365 0.655636 0.250000
O O2 0.763840 0.596114 0.273436
O O3 0.858911 0.560554 0.276985
O O4 0.817639 0.595210 0.000000
O O5 0.576003 0.331588 0.327430
O O6 0.508672 0.269424 0.207215
O O7 0.580539 0.295229 0.000000
O O8 0.454861 0.954861 0.750000
O O9 0.398324 0.981106 0.500000
O O10 0.381359 0.033501 0.776645
O O11 0.367219 0.497087 0.500000
O O12 0.412345 0.401835 0.500000
O O13 0.130418 0.630418 0.750000
O O14 0.214181 0.570199 0.731448
O O15 0.159034 0.571768 0.000000
O O16 0.815123 0.933410 0.167756
O O17 0.932596 0.223492 0.500000
#
# Coordination Sequence:
#
# PCOD9564683 Si02
#       7
#    16  16  16   8  16   8  16
#     4   9  16  26  44  71 100 136 179 231 281 319
#     4   9  17  33  55  79 110 144 184 226 264 313
#     4   9  17  30  42  63 100 139 180 231 291 330
#     4  10  22  37  60  92 116 141 174 207 254 333
#     4  10  20  32  48  71 101 140 195 244 281 323
#     4  10  22  39  62  92 116 140 173 206 265 328
#     4   9  18  36  57  78 109 144 184 231 267 309
#
# _framework density 17.775262000000001
#
# number of rings (size 3 to 8) (size 9 to 14) (size 15 to 20)
#    0.000    2.667    1.667    0.000    2.333    1.833 
#    0.000    1.667    0.000    1.000    0.000    4.667 
#    0.000    0.000    0.000    0.000    0.000    0.000 
#
# Total GULP energy -534945.375692 kJ/mol
# GULP energy per Si atom -5572.347663 kJ/mol
# Density = 1.773480 g / cm^3
# Si number density = 17.775262 Si / 1000 Ang^3
#
#
#
# Elastic Constant Matrix: (Units=GPa)
#
#
# Indices 1 2 3 4 5 6 
#
# 1 79.6069 62.4057 29.9540 0.0000 0.0000 0.0000
# 2 62.4057 79.6061 29.9574 0.0000 0.0000 0.0000
# 3 29.9540 29.9574 65.6159 0.0000 0.0000 0.0000
# 4 0.0000 0.0000 0.0000 16.2045 0.0000 0.0000
# 5 0.0000 0.0000 0.0000 0.0000 16.2055 0.0000
# 6 0.0000 0.0000 0.0000 0.0000 0.0000 27.6922
#
#
#
# Elastic Compliance Matrix: (Units=1/GPa)
#
#
# Indices 1 2 3 4 5 6 
#
# 1 0.033428 -0.024708 -0.003980 0.000000 0.000000 0.000000
# 2 -0.024708 0.033430 -0.003984 0.000000 0.000000 0.000000
# 3 -0.003980 -0.003984 0.018876 0.000000 0.000000 0.000000
# 4 0.000000 0.000000 0.000000 0.061711 0.000000 0.000000
# 5 0.000000 0.000000 0.000000 0.000000 0.061707 0.000000
# 6 0.000000 0.000000 0.000000 0.000000 0.000000 0.036111
#
#
# Mechanical properties :
#
#
# Convention : Reuss Voigt Hill
#
# Bulk Modulus (GPa) = 49.03865 52.16256 50.60060
# Shear Modulus (GPa) = 15.75285 18.85457 17.30371
#
# Velocity S-wave (km/s) = 2.98018 3.26040 3.12344
# Velocity P-wave (km/s) = 6.28411 6.60174 6.44488
#
# Compressibility (1/GPa) = 0.02039208
#
# Stress axis : x y z
#
# Youngs Moduli (GPa) = 29.91497 29.91316 52.97833
#
# Poissons Ratio (x) = 0.73909 0.21083
# Poissons Ratio (y) = 0.73913 0.21104
# Poissons Ratio (z) = 0.11905 0.11916
#
# Static dielectric constant tensor:
#      x y z
#    x 1.600310 0.000000 0.000000 
#    y 0.000000 1.600320 0.000000 
#    z 0.000000 0.000000 1.642940 
# 
# From -- ./inp_files/1551.got.cif
#   From: 2010.05.17/outbox.cif.g08.bks.cpg/sg128_1_cif.got.tgz:1551.got - 2010.05.20 12:07:25.
