data_PCOD9564583
_publ_section_title
;
Structure prediction by ZEFSAII (Michael W. Deem and Ramdas Pophale) SiO2 
 PCOD9564583
Probable space group: P 4/M N C
;
_chemical_formula_sum "Si O2"
_cell_formula_units_Z 80
_cell_length_a 25.908976
_cell_length_b 25.908976
_cell_length_c 7.964171
_cell_angle_alpha 90.000000
_cell_angle_beta 90.000000
_cell_angle_gamma 90.000000
_cell_volume 5346.149186
_symmetry_space_group_name_H-M "P 4/M N C"
_symmetry_group_IT_number 128
_symmetry_cell_setting 'tetragonal'
loop_
_space_group_symop_operation_xyz
x,y,z
-y,x,z
-x,-y,z
y,-x,z
1/2+x,1/2-y,1/2-z
1/2-x,1/2+y,1/2-z
1/2+y,1/2+x,1/2-z
1/2-y,1/2-x,1/2-z
-x,-y,-z
y,-x,-z
x,y,-z
-y,x,-z
1/2-x,1/2+y,1/2+z
1/2+x,1/2-y,1/2+z
1/2-y,1/2-x,1/2+z
1/2+y,1/2+x,1/2+z
loop_
_atom_site_type_symbol
_atom_site_label
_atom_site_fract_x
_atom_site_fract_y
_atom_site_fract_z
Si Si1 0.749671 0.333945 0.201238
Si Si2 0.720670 0.557591 0.690526
Si Si3 0.142269 0.056770 0.500000
Si Si4 0.642269 0.556770 0.000000
Si Si5 0.666055 0.250329 0.201238
Si Si6 0.220670 0.057592 0.190526
O O1 0.796867 0.296867 0.250000
O O2 0.697529 0.302470 0.253219
O O3 0.753529 0.390592 0.280906
O O4 0.747864 0.339151 0.000000
O O5 0.700188 0.559661 0.500000
O O6 0.677650 0.560833 0.834719
O O7 0.753529 0.609408 0.719094
O O8 0.745129 0.500000 0.709814
O O9 0.101301 0.101301 0.500000
O O10 0.177649 0.060834 0.334719
O O11 0.118061 0.000000 0.500000
O O12 0.703133 0.203133 0.250000
O O13 0.660848 0.252135 0.000000
O O14 0.200188 0.059661 0.000000
#
# Coordination Sequence:
#
# PCOD9564583 Si02
#       6
#    16  16   8   8  16  16
#     4  10  19  30  46  70  98 125 154 192 237 285
#     4  10  20  33  49  68  92 124 159 195 236 283
#     4  10  20  33  48  66  88 118 157 199 241 283
#     4  10  20  33  48  66  88 118 157 199 241 283
#     4  10  19  30  46  70  98 125 154 192 237 285
#     4  10  20  33  49  68  92 124 159 195 236 283
#
# _framework density 14.964041
#
# number of rings (size 3 to 8) (size 9 to 14) (size 15 to 20)
#    0.000    2.000    2.000    2.400    0.000    5.000 
#    0.000    0.000    0.000    0.000    0.000    5.600 
#    0.000    0.800    0.000    8.400    0.000    3.600 
#
# Total GULP energy -445524.168995 kJ/mol
# GULP energy per Si atom -5569.052112 kJ/mol
# Density = 1.492998 g / cm^3
# Si number density = 14.964041 Si / 1000 Ang^3
#
#
#
# Elastic Constant Matrix: (Units=GPa)
#
#
# Indices 1 2 3 4 5 6 
#
# 1 93.5557 41.2684 27.6147 0.0000 0.0000 0.0000
# 2 41.2684 93.5557 27.6147 0.0000 0.0000 0.0000
# 3 27.6147 27.6147 92.8479 0.0000 0.0000 0.0000
# 4 0.0000 0.0000 0.0000 6.2810 0.0000 0.0000
# 5 0.0000 0.0000 0.0000 0.0000 6.2810 0.0000
# 6 0.0000 0.0000 0.0000 0.0000 0.0000 21.3809
#
#
#
# Elastic Compliance Matrix: (Units=1/GPa)
#
#
# Indices 1 2 3 4 5 6 
#
# 1 0.013786 -0.005340 -0.002512 0.000000 0.000000 0.000000
# 2 -0.005340 0.013786 -0.002512 0.000000 0.000000 0.000000
# 3 -0.002512 -0.002512 0.012265 0.000000 0.000000 0.000000
# 4 0.000000 0.000000 0.000000 0.159211 0.000000 0.000000
# 5 0.000000 0.000000 0.000000 0.000000 0.159211 0.000000
# 6 0.000000 0.000000 0.000000 0.000000 0.000000 0.046771
#
#
# Mechanical properties :
#
#
# Convention : Reuss Voigt Hill
#
# Bulk Modulus (GPa) = 52.33235 52.55054 52.44144
# Shear Modulus (GPa) = 11.57075 19.01935 15.29505
#
# Velocity S-wave (km/s) = 2.78373 3.56898 3.20053
# Velocity P-wave (km/s) = 6.73648 7.22341 6.98419
#
# Compressibility (1/GPa) = 0.01910864
#
# Stress axis : x y z
#
# Youngs Moduli (GPa) = 72.53943 72.53943 81.53584
#
# Poissons Ratio (x) = 0.38732 0.20482
# Poissons Ratio (y) = 0.38732 0.20482
# Poissons Ratio (z) = 0.18222 0.18222
#
# Static dielectric constant tensor:
#      x y z
#    x 1.506920 0.000000 0.000000 
#    y 0.000000 1.506920 0.000000 
#    z 0.000000 0.000000 1.522920 
# 
# From -- ./inp_files/1382.got.cif
#   From: 2010.05.17/outbox.cif.g08.bks.cpg/sg128_1_cif.got.tgz:1382.got - 2010.05.20 12:07:25.
