data_PCOD9564223
_publ_section_title
;
Structure prediction by ZEFSAII (Michael W. Deem and Ramdas Pophale) SiO2 
 PCOD9564223
Probable space group: P 4/M B M
;
_chemical_formula_sum "Si O2"
_cell_formula_units_Z 120
_cell_length_a 19.503552
_cell_length_b 19.503552
_cell_length_c 16.199555
_cell_angle_alpha 90.000000
_cell_angle_beta 90.000000
_cell_angle_gamma 90.000000
_cell_volume 6162.125085
_symmetry_space_group_name_H-M "P 4/M B M"
_symmetry_group_IT_number 127
_symmetry_cell_setting 'tetragonal'
loop_
_space_group_symop_operation_xyz
x,y,z
-y,x,z
-x,-y,z
y,-x,z
1/2+x,1/2-y,-z
1/2-x,1/2+y,-z
1/2+y,1/2+x,-z
1/2-y,1/2-x,-z
-x,-y,-z
y,-x,-z
x,y,-z
-y,x,-z
1/2-x,1/2+y,z
1/2+x,1/2-y,z
1/2-y,1/2-x,z
1/2+y,1/2+x,z
loop_
_atom_site_type_symbol
_atom_site_label
_atom_site_fract_x
_atom_site_fract_y
_atom_site_fract_z
Si Si1 0.731029 0.655080 0.802016
Si Si2 0.092736 0.843718 0.905626
Si Si3 0.429412 0.181990 0.090381
Si Si4 0.588110 0.313862 0.645558
Si Si5 0.539249 0.151895 0.773872
Si Si6 0.087076 0.924423 0.500000
Si Si7 0.550600 0.167071 0.410604
Si Si8 0.494310 0.386747 0.756093
O O1 0.775470 0.724531 0.815660
O O2 0.667933 0.641905 0.865118
O O3 0.695836 0.648735 0.712034
O O4 0.786805 0.593340 0.796256
O O5 0.085921 0.761999 0.905190
O O6 0.027972 0.867052 0.848965
O O7 0.089147 0.869214 0.000000
O O8 0.359059 0.140942 0.094923
O O9 0.478122 0.158219 0.162906
O O10 0.461194 0.167703 0.000000
O O11 0.600630 0.374363 0.581272
O O12 0.579663 0.243726 0.595725
O O13 0.515988 0.325017 0.696667
O O14 0.582267 0.082267 0.783494
O O15 0.515332 0.156410 0.678387
O O16 0.007220 0.907006 0.500000
O O17 0.515101 0.158274 0.500000
O O18 0.613582 0.113582 0.408884
O O19 0.561683 0.432411 0.739465
#
# Coordination Sequence:
#
# PCOD9564223 Si02
#       8
#    16  16  16  16  16   8  16  16
#     4  10  21  38  60  87 115 152 202 250 301 359
#     4  11  23  39  61  85 114 156 201 248 302 357
#     4  10  22  39  59  86 119 152 190 241 303 367
#     4  11  19  37  57  81 115 158 198 247 302 347
#     4   9  19  36  59  86 115 149 193 241 294 358
#     4  11  24  36  51  80 118 160 205 245 294 367
#     4   9  17  32  57  88 118 150 195 253 307 357
#     4  11  23  39  58  83 120 161 200 246 295 353
#
# _framework density 19.473801000000002
#
# number of rings (size 3 to 8) (size 9 to 14) (size 15 to 20)
#    0.000    1.800    2.000    4.000    0.000    3.467 
#    0.000    2.667    0.000    0.400    0.000    1.867 
#    0.000    0.000    0.000    0.000    0.000    0.000 
#
# Total GULP energy -668333.419315 kJ/mol
# GULP energy per Si atom -5569.445161 kJ/mol
# Density = 1.942948 g / cm^3
# Si number density = 19.473801 Si / 1000 Ang^3
#
#
#
# Elastic Constant Matrix: (Units=GPa)
#
#
# Indices 1 2 3 4 5 6 
#
# 1 22.3090 -13.0223 3.0197 0.0000 0.0000 0.0000
# 2 -13.0223 22.3090 3.0197 0.0000 0.0000 0.0000
# 3 3.0197 3.0197 116.8272 0.0000 0.0000 0.0000
# 4 0.0000 0.0000 0.0000 29.4239 0.0000 0.0000
# 5 0.0000 0.0000 0.0000 0.0000 29.4239 0.0000
# 6 0.0000 0.0000 0.0000 0.0000 0.0000 15.6176
#
#
#
# Elastic Compliance Matrix: (Units=1/GPa)
#
#
# Indices 1 2 3 4 5 6 
#
# 1 0.068912 0.040609 -0.002831 0.000000 0.000000 0.000000
# 2 0.040609 0.068912 -0.002831 0.000000 0.000000 0.000000
# 3 -0.002831 -0.002831 0.008706 0.000000 0.000000 0.000000
# 4 0.000000 0.000000 0.000000 0.033986 0.000000 0.000000
# 5 0.000000 0.000000 0.000000 0.000000 0.033986 0.000000
# 6 0.000000 0.000000 0.000000 0.000000 0.000000 0.064030
#
#
# Mechanical properties :
#
#
# Convention : Reuss Voigt Hill
#
# Bulk Modulus (GPa) = 4.62054 16.38660 10.50357
# Shear Modulus (GPa) = 17.80752 26.12162 21.96457
#
# Velocity S-wave (km/s) = 3.02724 3.66645 3.36207
# Velocity P-wave (km/s) = 3.82057 5.13388 4.52513
#
# Compressibility (1/GPa) = 0.21642476
#
# Stress axis : x y z
#
# Youngs Moduli (GPa) = 14.51121 14.51121 114.86352
#
# Poissons Ratio (x) = -0.58928 0.32516
# Poissons Ratio (y) = -0.58928 0.32516
# Poissons Ratio (z) = 0.04108 0.04108
#
# Static dielectric constant tensor:
#      x y z
#    x 1.686440 0.000000 0.000000 
#    y 0.000000 1.686440 0.000000 
#    z 0.000000 0.000000 1.757080 
# 
# From -- ./inp_files/4669.got.cif
#   From: 2010.05.17/outbox.cif.g08.bks.cpg/sg127_3_cif.got.tgz:4669.got - 2010.05.20 12:03:00.
