data_PCOD9564023
_publ_section_title
;
Structure prediction by ZEFSAII (Michael W. Deem and Ramdas Pophale) SiO2 
 PCOD9564023
Probable space group: P 4/M B M
;
_chemical_formula_sum "Si O2"
_cell_formula_units_Z 120
_cell_length_a 27.881108
_cell_length_b 27.881108
_cell_length_c 9.032672
_cell_angle_alpha 90.000000
_cell_angle_beta 90.000000
_cell_angle_gamma 90.000000
_cell_volume 7021.603431
_symmetry_space_group_name_H-M "P 4/M B M"
_symmetry_group_IT_number 127
_symmetry_cell_setting 'tetragonal'
loop_
_space_group_symop_operation_xyz
x,y,z
-y,x,z
-x,-y,z
y,-x,z
1/2+x,1/2-y,-z
1/2-x,1/2+y,-z
1/2+y,1/2+x,-z
1/2-y,1/2-x,-z
-x,-y,-z
y,-x,-z
x,y,-z
-y,x,-z
1/2-x,1/2+y,z
1/2+x,1/2-y,z
1/2-y,1/2-x,z
1/2+y,1/2+x,z
loop_
_atom_site_type_symbol
_atom_site_label
_atom_site_fract_x
_atom_site_fract_y
_atom_site_fract_z
Si Si1 0.948874 0.876284 0.175203
Si Si2 0.130216 0.499882 0.327251
Si Si3 0.905742 0.326355 0.822289
Si Si4 0.552261 0.737879 0.676062
Si Si5 0.125309 0.051962 0.676333
Si Si6 0.460557 0.960557 0.162942
Si Si7 0.763277 0.051673 0.173867
Si Si8 0.603127 0.182394 0.326633
O O1 0.908664 0.908606 0.250980
O O2 0.938243 0.819677 0.194031
O O3 0.000362 0.885099 0.250738
O O4 0.951659 0.886265 0.000000
O O5 0.127542 0.512830 0.500000
O O6 0.149970 0.545122 0.237581
O O7 0.080330 0.485238 0.257143
O O8 0.158796 0.449714 0.316072
O O9 0.860521 0.360521 0.781680
O O10 0.909515 0.273452 0.751101
O O11 0.907009 0.323173 0.000000
O O12 0.550339 0.746972 0.500000
O O13 0.562833 0.681747 0.701824
O O14 0.498910 0.746569 0.742827
O O15 0.117740 0.049507 0.500000
O O16 0.500000 0.000000 0.140252
O O17 0.443352 0.943352 0.000000
O O18 0.730859 0.094950 0.235216
O O19 0.753491 0.044417 0.000000
O O20 0.611847 0.192907 0.500000
O O21 0.644011 0.144011 0.279007
#
# Coordination Sequence:
#
# PCOD9564023 Si02
#       8
#    16  16  16  16  16   8  16  16
#     4  10  21  37  58  87 121 153 183 217 261 314
#     4  11  21  34  50  69  95 130 172 220 275 332
#     4  11  23  36  51  74 103 135 176 227 280 330
#     4  10  20  35  56  80 107 141 182 226 270 320
#     4  10  21  37  59  88 119 151 186 221 258 308
#     4  11  23  35  45  61  91 131 173 217 271 335
#     4  10  20  34  55  81 108 141 181 224 270 322
#     4  10  20  34  51  73 102 135 176 227 279 327
#
# _framework density 17.090112999999999
#
# number of rings (size 3 to 8) (size 9 to 14) (size 15 to 20)
#    0.000    1.667    2.000    3.000    0.000    7.467 
#    0.000    1.333    0.000    0.800    0.000    0.000 
#    0.000    0.000    0.000    0.000    0.000    0.000 
#
# Total GULP energy -669440.503609 kJ/mol
# GULP energy per Si atom -5578.670863 kJ/mol
# Density = 1.705122 g / cm^3
# Si number density = 17.090113 Si / 1000 Ang^3
#
#
#
# Elastic Constant Matrix: (Units=GPa)
#
#
# Indices 1 2 3 4 5 6 
#
# 1 96.9180 69.9730 70.7922 0.0000 0.0000 0.0000
# 2 69.9730 96.9180 70.7922 0.0000 0.0000 0.0000
# 3 70.7922 70.7922 92.9600 0.0000 0.0000 0.0000
# 4 0.0000 0.0000 0.0000 28.9180 0.0000 0.0000
# 5 0.0000 0.0000 0.0000 0.0000 28.9180 0.0000
# 6 0.0000 0.0000 0.0000 0.0000 0.0000 27.7939
#
#
#
# Elastic Compliance Matrix: (Units=1/GPa)
#
#
# Indices 1 2 3 4 5 6 
#
# 1 0.027021 -0.010092 -0.012892 0.000000 0.000000 0.000000
# 2 -0.010092 0.027021 -0.012892 0.000000 0.000000 0.000000
# 3 -0.012892 -0.012892 0.030393 0.000000 0.000000 0.000000
# 4 0.000000 0.000000 0.000000 0.034581 0.000000 0.000000
# 5 0.000000 0.000000 0.000000 0.000000 0.034581 0.000000
# 6 0.000000 0.000000 0.000000 0.000000 0.000000 0.035979
#
#
# Mechanical properties :
#
#
# Convention : Reuss Voigt Hill
#
# Bulk Modulus (GPa) = 78.84751 78.87895 78.86323
# Shear Modulus (GPa) = 18.82852 22.14189 20.48521
#
# Velocity S-wave (km/s) = 3.32282 3.60334 3.46592
# Velocity P-wave (km/s) = 7.80756 7.97289 7.89066
#
# Compressibility (1/GPa) = 0.01268271
#
# Stress axis : x y z
#
# Youngs Moduli (GPa) = 37.00838 37.00838 32.90238
#
# Poissons Ratio (x) = 0.37348 0.42418
# Poissons Ratio (y) = 0.37348 0.42418
# Poissons Ratio (z) = 0.47712 0.47712
#
# Static dielectric constant tensor:
#      x y z
#    x 1.572470 0.000000 0.000000 
#    y 0.000000 1.572470 0.000000 
#    z 0.000000 0.000000 1.585160 
# 
# From -- ./inp_files/2422.got.cif
#   From: 2010.05.17/outbox.cif.g08.bks.cpg/sg127_2_cif.got.tgz:2422.got - 2010.05.20 12:03:00.
