data_PCOD9564767
_publ_section_title
;
Structure prediction by ZEFSAII (Michael W. Deem and Ramdas Pophale) SiO2 
 PCOD9564767
Probable space group: P 4/M N C
;
_chemical_formula_sum "Si O2"
_cell_formula_units_Z 104
_cell_length_a 18.003252
_cell_length_b 18.003252
_cell_length_c 17.284229
_cell_angle_alpha 90.000000
_cell_angle_beta 90.000000
_cell_angle_gamma 90.000000
_cell_volume 5602.113878
_symmetry_space_group_name_H-M "P 4/M N C"
_symmetry_group_IT_number 128
_symmetry_cell_setting 'tetragonal'
loop_
_space_group_symop_operation_xyz
x,y,z
-y,x,z
-x,-y,z
y,-x,z
1/2+x,1/2-y,1/2-z
1/2-x,1/2+y,1/2-z
1/2+y,1/2+x,1/2-z
1/2-y,1/2-x,1/2-z
-x,-y,-z
y,-x,-z
x,y,-z
-y,x,-z
1/2-x,1/2+y,1/2+z
1/2+x,1/2-y,1/2+z
1/2-y,1/2-x,1/2+z
1/2+y,1/2+x,1/2+z
loop_
_atom_site_type_symbol
_atom_site_label
_atom_site_fract_x
_atom_site_fract_y
_atom_site_fract_z
Si Si1 0.751213 0.332762 0.686232
Si Si2 0.253380 0.026203 0.710614
Si Si3 0.144964 0.597309 0.088562
Si Si4 0.392734 0.716619 0.408355
Si Si5 0.926175 0.645196 0.812257
Si Si6 0.500000 0.000000 0.623259
Si Si7 0.121933 0.975488 0.212860
O O1 0.770610 0.270610 0.750000
O O2 0.730434 0.401162 0.741410
O O3 0.826243 0.354749 0.638600
O O4 0.685126 0.309756 0.629240
O O5 0.291543 0.047388 0.630163
O O6 0.316796 0.991218 0.764047
O O7 0.181746 0.972946 0.717048
O O8 0.066272 0.552389 0.088336
O O9 0.163528 0.614264 0.000000
O O10 0.394314 0.706830 0.500000
O O11 0.406132 0.802240 0.383690
O O12 0.456486 0.669377 0.364086
O O13 0.860302 0.639699 0.750000
O O14 0.951623 0.563099 0.834732
O O15 0.054956 0.917605 0.214540
#
# Coordination Sequence:
#
# PCOD9564767 Si02
#       7
#    16  16  16  16  16   8  16
#     4  10  20  39  63  84 116 163 210 241 290 365
#     4  10  20  38  61  85 114 156 205 241 292 363
#     4  11  23  36  58  90 124 160 199 252 306 353
#     4  11  24  40  59  90 126 158 198 253 310 364
#     4  11  22  38  61  84 118 164 207 242 288 357
#     4  12  22  38  60  88 130 160 198 242 302 364
#     4  10  21  40  64  89 114 152 201 248 305 367
#
# _framework density 18.564422
#
# number of rings (size 3 to 8) (size 9 to 14) (size 15 to 20)
#    0.000    1.385    4.615    1.385    0.000    1.846 
#    0.000    0.769    0.000    0.923    0.000    1.077 
#    0.000    0.000    0.000    0.000    0.000    0.000 
#
# Total GULP energy -579105.620015 kJ/mol
# GULP energy per Si atom -5568.323269 kJ/mol
# Density = 1.852217 g / cm^3
# Si number density = 18.564422 Si / 1000 Ang^3
#
#
#
# Elastic Constant Matrix: (Units=GPa)
#
#
# Indices 1 2 3 4 5 6 
#
# 1 85.3572 38.8138 32.9413 0.0000 0.0000 0.0000
# 2 38.8138 85.3548 32.9420 0.0000 0.0000 0.0000
# 3 32.9413 32.9420 100.5053 0.0000 0.0000 0.0000
# 4 0.0000 0.0000 0.0000 13.6999 0.0000 0.0000
# 5 0.0000 0.0000 0.0000 0.0000 13.7001 0.0000
# 6 0.0000 0.0000 0.0000 0.0000 0.0000 30.2860
#
#
#
# Elastic Compliance Matrix: (Units=1/GPa)
#
#
# Indices 1 2 3 4 5 6 
#
# 1 0.015617 -0.005869 -0.003195 0.000000 0.000000 0.000000
# 2 -0.005869 0.015618 -0.003195 0.000000 0.000000 0.000000
# 3 -0.003195 -0.003195 0.012044 0.000000 0.000000 0.000000
# 4 0.000000 0.000000 0.000000 0.072993 0.000000 0.000000
# 5 0.000000 0.000000 0.000000 0.000000 0.072992 0.000000
# 6 0.000000 0.000000 0.000000 0.000000 0.000000 0.033019
#
#
# Mechanical properties :
#
#
# Convention : Reuss Voigt Hill
#
# Bulk Modulus (GPa) = 53.30239 53.40127 53.35183
# Shear Modulus (GPa) = 19.75859 22.63856 21.19857
#
# Velocity S-wave (km/s) = 3.26594 3.49586 3.38286
# Velocity P-wave (km/s) = 6.55715 6.71733 6.63773
#
# Compressibility (1/GPa) = 0.01876089
#
# Stress axis : x y z
#
# Youngs Moduli (GPa) = 64.03244 64.02997 83.02676
#
# Poissons Ratio (x) = 0.37576 0.26528
# Poissons Ratio (y) = 0.37577 0.26531
# Poissons Ratio (z) = 0.20459 0.20461
#
# Static dielectric constant tensor:
#      x y z
#    x 1.731500 0.000000 0.000000 
#    y 0.000000 1.731500 0.000000 
#    z 0.000000 0.000000 1.618600 
# 
# From -- ./inp_files/4899.got.cif
#   From: 2010.05.17/outbox.cif.g08.bks.cpg/sg128_3_cif.got.tgz:4899.got - 2010.05.20 12:07:25.
