data_PCOD9564342
_publ_section_title
;
Structure prediction by ZEFSAII (Michael W. Deem and Ramdas Pophale) SiO2 
 PCOD9564342
Probable space group: P 4/M B M
;
_chemical_formula_sum "Si O2"
_cell_formula_units_Z 108
_cell_length_a 15.351335
_cell_length_b 15.351335
_cell_length_c 24.486186
_cell_angle_alpha 90.000000
_cell_angle_beta 90.000000
_cell_angle_gamma 90.000000
_cell_volume 5770.499959
_symmetry_space_group_name_H-M "P 4/M B M"
_symmetry_group_IT_number 127
_symmetry_cell_setting 'tetragonal'
loop_
_space_group_symop_operation_xyz
x,y,z
-y,x,z
-x,-y,z
y,-x,z
1/2+x,1/2-y,-z
1/2-x,1/2+y,-z
1/2+y,1/2+x,-z
1/2-y,1/2-x,-z
-x,-y,-z
y,-x,-z
x,y,-z
-y,x,-z
1/2-x,1/2+y,z
1/2+x,1/2-y,z
1/2-y,1/2-x,z
1/2+y,1/2+x,z
loop_
_atom_site_type_symbol
_atom_site_label
_atom_site_fract_x
_atom_site_fract_y
_atom_site_fract_z
Si Si1 0.872654 0.841157 0.281139
Si Si2 0.426229 0.926229 0.936840
Si Si3 0.313271 0.664214 0.838937
Si Si4 0.166526 0.472796 0.740415
Si Si5 0.011373 0.269213 0.861943
Si Si6 0.511471 0.645145 0.564245
Si Si7 0.500000 0.500000 0.706307
Si Si8 0.773997 0.407646 0.356260
O O1 0.828921 0.866897 0.223438
O O2 0.903803 0.743126 0.272581
O O3 0.803141 0.852208 0.328594
O O4 0.956487 0.901686 0.291827
O O5 0.462702 0.841525 0.905856
O O6 0.500000 0.000000 0.934590
O O7 0.406667 0.906667 0.000000
O O8 0.240821 0.740821 0.840266
O O9 0.406307 0.703664 0.857130
O O10 0.280453 0.579599 0.871629
O O11 0.075020 0.424981 0.736500
O O12 0.183172 0.499829 0.803052
O O13 0.180341 0.544364 0.694334
O O14 0.424080 0.589655 0.574855
O O15 0.512993 0.666647 0.500000
O O16 0.526052 0.727773 0.602295
O O17 0.843248 0.343248 0.383567
#
# Coordination Sequence:
#
# PCOD9564342 Si02
#       8
#    16   8  16  16  16  16   4  16
#     4  11  20  33  52  83 120 151 197 241 301 369
#     4  11  24  44  68  94 124 169 234 276 306 369
#     4  11  21  36  59  90 130 166 206 254 322 384
#     4  11  22  37  55  83 121 164 200 240 301 363
#     4  11  21  40  63  92 129 170 206 266 321 379
#     4   9  20  39  63  86 110 146 195 251 309 365
#     4  12  20  32  52  80 113 160 185 244 308 376
#     4  12  23  34  53  84 118 158 195 248 294 356
#
# _framework density 18.715883000000002
#
# number of rings (size 3 to 8) (size 9 to 14) (size 15 to 20)
#    0.000    1.111    4.444    4.889    0.000    1.481 
#    0.000    0.741    0.000    1.333    0.000    2.074 
#    0.000    0.000    0.000    0.000    0.000    0.000 
#
# Total GULP energy -602454.193959 kJ/mol
# GULP energy per Si atom -5578.279574 kJ/mol
# Density = 1.867329 g / cm^3
# Si number density = 18.715883 Si / 1000 Ang^3
#
#
#
# Elastic Constant Matrix: (Units=GPa)
#
#
# Indices 1 2 3 4 5 6 
#
# 1 63.5270 38.2699 35.2499 0.0000 0.0000 0.0000
# 2 38.2699 63.5270 35.2499 0.0000 0.0000 0.0000
# 3 35.2499 35.2499 91.8642 0.0000 0.0000 0.0000
# 4 0.0000 0.0000 0.0000 20.2782 0.0000 0.0000
# 5 0.0000 0.0000 0.0000 0.0000 20.2782 0.0000
# 6 0.0000 0.0000 0.0000 0.0000 0.0000 36.2825
#
#
#
# Elastic Compliance Matrix: (Units=1/GPa)
#
#
# Indices 1 2 3 4 5 6 
#
# 1 0.026486 -0.013107 -0.005134 0.000000 0.000000 0.000000
# 2 -0.013107 0.026486 -0.005134 0.000000 0.000000 0.000000
# 3 -0.005134 -0.005134 0.014825 0.000000 0.000000 0.000000
# 4 0.000000 0.000000 0.000000 0.049314 0.000000 0.000000
# 5 0.000000 0.000000 0.000000 0.000000 0.049314 0.000000
# 6 0.000000 0.000000 0.000000 0.000000 0.000000 0.027562
#
#
# Mechanical properties :
#
#
# Convention : Reuss Voigt Hill
#
# Bulk Modulus (GPa) = 47.50975 48.49529 48.00252
# Shear Modulus (GPa) = 20.18148 22.71099 21.44623
#
# Velocity S-wave (km/s) = 3.28732 3.48726 3.38876
# Velocity P-wave (km/s) = 6.31257 6.49478 6.40432
#
# Compressibility (1/GPa) = 0.02104831
#
# Stress axis : x y z
#
# Youngs Moduli (GPa) = 37.75599 37.75599 67.45172
#
# Poissons Ratio (x) = 0.49487 0.34628
# Poissons Ratio (y) = 0.49487 0.34628
# Poissons Ratio (z) = 0.19383 0.19383
#
# Static dielectric constant tensor:
#      x y z
#    x 1.662880 0.000000 0.000000 
#    y 0.000000 1.662880 0.000000 
#    z 0.000000 0.000000 1.646230 
# 
# From -- ./inp_files/6225.got.cif
#   From: 2010.05.17/outbox.cif.g08.bks.cpg/sg127_4_cif.got.tgz:6225.got - 2010.05.20 12:03:00.
