data_PCOD9564150
_publ_section_title
;
Structure prediction by ZEFSAII (Michael W. Deem and Ramdas Pophale) SiO2 
 PCOD9564150
Probable space group: P 4/M B M
;
_chemical_formula_sum "Si O2"
_cell_formula_units_Z 88
_cell_length_a 16.312574
_cell_length_b 16.312574
_cell_length_c 15.209085
_cell_angle_alpha 90.000000
_cell_angle_beta 90.000000
_cell_angle_gamma 90.000000
_cell_volume 4047.138591
_symmetry_space_group_name_H-M "P 4/M B M"
_symmetry_group_IT_number 127
_symmetry_cell_setting 'tetragonal'
loop_
_space_group_symop_operation_xyz
x,y,z
-y,x,z
-x,-y,z
y,-x,z
1/2+x,1/2-y,-z
1/2-x,1/2+y,-z
1/2+y,1/2+x,-z
1/2-y,1/2-x,-z
-x,-y,-z
y,-x,-z
x,y,-z
-y,x,-z
1/2-x,1/2+y,z
1/2+x,1/2-y,z
1/2-y,1/2-x,z
1/2+y,1/2+x,z
loop_
_atom_site_type_symbol
_atom_site_label
_atom_site_fract_x
_atom_site_fract_y
_atom_site_fract_z
Si Si1 0.501755 0.138965 0.902341
Si Si2 0.417566 0.612482 0.907082
Si Si3 0.113370 0.921414 0.718419
Si Si4 0.460055 0.178406 0.283971
Si Si5 0.928728 0.571273 0.601344
Si Si6 0.708526 0.342278 0.601044
O O1 0.427326 0.072675 0.905026
O O2 0.487719 0.194989 0.816550
O O3 0.583562 0.083562 0.890605
O O4 0.504088 0.178129 0.000000
O O5 0.391105 0.516717 0.906979
O O6 0.392431 0.647618 0.813065
O O7 0.389022 0.649008 0.000000
O O8 0.162143 0.882325 0.638783
O O9 0.018887 0.892435 0.714111
O O10 0.399708 0.100293 0.276156
O O11 0.533854 0.146841 0.344633
O O12 0.406258 0.244426 0.335692
O O13 0.909496 0.590505 0.500000
O O14 0.000000 0.500000 0.599277
O O15 0.711365 0.369660 0.500000
O O16 0.757605 0.257605 0.606895
#
# Coordination Sequence:
#
# PCOD9564150 Si02
#       6
#    16  16  16  16   8  16
#     4   8  12  19  34  57  85 119 161 209 258 304
#     4   7  10  20  43  77 111 134 157 200 257 308
#     4   9  18  34  59  87 108 132 175 226 266 305
#     4   9  15  25  40  60  87 123 165 206 247 297
#     4   9  14  20  35  57  79 109 158 212 245 273
#     4  10  21  35  50  70 103 144 177 213 272 334
#
# _framework density 21.743756999999999
#
# number of rings (size 3 to 8) (size 9 to 14) (size 15 to 20)
#    0.000    3.364    0.909    2.727    0.000    2.909 
#    0.000    1.818    2.000    1.636    0.000    0.000 
#    0.000    0.000    0.000    0.000    0.000    0.000 
#
# Total GULP energy -490569.145934 kJ/mol
# GULP energy per Si atom -5574.649386 kJ/mol
# Density = 2.169427 g / cm^3
# Si number density = 21.743757 Si / 1000 Ang^3
#
#
#
# Elastic Constant Matrix: (Units=GPa)
#
#
# Indices 1 2 3 4 5 6 
#
# 1 26.2515 29.6719 39.5188 0.0000 0.0000 0.0000
# 2 29.6719 26.2514 39.5188 0.0000 0.0000 0.0000
# 3 39.5188 39.5188 192.2196 0.0000 0.0000 0.0000
# 4 0.0000 0.0000 0.0000 10.9405 0.0000 0.0000
# 5 0.0000 0.0000 0.0000 0.0000 10.9405 0.0000
# 6 0.0000 0.0000 0.0000 0.0000 0.0000 -7.4745
#
#
#
# Elastic Compliance Matrix: (Units=1/GPa)
#
#
# Indices 1 2 3 4 5 6 
#
# 1 -0.133575 0.158781 -0.005182 0.000000 0.000000 0.000000
# 2 0.158781 -0.133575 -0.005182 0.000000 0.000000 0.000000
# 3 -0.005182 -0.005182 0.007333 0.000000 0.000000 0.000000
# 4 0.000000 0.000000 0.000000 0.091403 0.000000 0.000000
# 5 0.000000 0.000000 0.000000 0.000000 0.091404 0.000000
# 6 0.000000 0.000000 0.000000 0.000000 0.000000 -0.133789
#
#
# Mechanical properties :
#
#
# Convention : Reuss Voigt Hill
#
# Bulk Modulus (GPa) = 27.01537 51.34906 39.18221
# Shear Modulus (GPa) = -10.09501 11.94885 0.92692
#
# Velocity S-wave (km/s) = -2.15703 2.34675 0.65362
# Velocity P-wave (km/s) = 2.49953 5.56864 4.31610
#
# Compressibility (1/GPa) = 0.03701596
#
# Stress axis : x y z
#
# Youngs Moduli (GPa) = -7.48642 -7.48641 136.36699
#
# Poissons Ratio (x) = 1.18870 0.70666
# Poissons Ratio (y) = 1.18870 0.70666
# Poissons Ratio (z) = -0.03879 -0.03880
#
# Static dielectric constant tensor:
#      x y z
#    x 1.852980 0.000000 0.000000 
#    y 0.000000 1.852980 0.000000 
#    z 0.000000 0.000000 1.841480 
# 
# From -- ./inp_files/4379.got.cif
#   From: 2010.05.17/outbox.cif.g08.bks.cpg/sg127_3_cif.got.tgz:4379.got - 2010.05.20 12:03:00.
