data_PCOD9564129
_publ_section_title
;
Structure prediction by ZEFSAII (Michael W. Deem and Ramdas Pophale) SiO2 
 PCOD9564129
Probable space group: P 4/M B M
;
_chemical_formula_sum "Si O2"
_cell_formula_units_Z 88
_cell_length_a 18.476806
_cell_length_b 18.476806
_cell_length_c 13.881733
_cell_angle_alpha 90.000000
_cell_angle_beta 90.000000
_cell_angle_gamma 90.000000
_cell_volume 4739.117589
_symmetry_space_group_name_H-M "P 4/M B M"
_symmetry_group_IT_number 127
_symmetry_cell_setting 'tetragonal'
loop_
_space_group_symop_operation_xyz
x,y,z
-y,x,z
-x,-y,z
y,-x,z
1/2+x,1/2-y,-z
1/2-x,1/2+y,-z
1/2+y,1/2+x,-z
1/2-y,1/2-x,-z
-x,-y,-z
y,-x,-z
x,y,-z
-y,x,-z
1/2-x,1/2+y,z
1/2+x,1/2-y,z
1/2-y,1/2-x,z
1/2+y,1/2+x,z
loop_
_atom_site_type_symbol
_atom_site_label
_atom_site_fract_x
_atom_site_fract_y
_atom_site_fract_z
Si Si1 0.405098 0.905098 0.614215
Si Si2 0.029975 0.804794 0.202945
Si Si3 0.297647 0.797647 0.284626
Si Si4 0.123901 0.376100 0.112843
Si Si5 0.157437 0.883486 0.698635
Si Si6 0.029713 0.880407 0.000000
Si Si7 0.859051 0.479921 0.770770
Si Si8 0.943868 0.891440 0.500000
O O1 0.414711 0.914711 0.500000
O O2 0.344709 0.844709 0.639180
O O3 0.476765 0.878102 0.671738
O O4 0.079264 0.856851 0.267708
O O5 0.049834 0.722104 0.225438
O O6 0.946294 0.814552 0.230909
O O7 0.040239 0.831507 0.094156
O O8 0.325861 0.825861 0.180391
O O9 0.318712 0.714740 0.297724
O O10 0.138051 0.458409 0.146729
O O11 0.134612 0.365389 0.000000
O O12 0.151014 0.918513 0.593991
O O13 0.949041 0.915664 0.000000
O O14 0.918893 0.418893 0.785615
O O15 0.029525 0.906168 0.500000
#
# Coordination Sequence:
#
# PCOD9564129 Si02
#       8
#     8  16   8   8  16   8  16   8
#     4  10  20  40  71  94 122 170 213 260 318 382
#     4  12  24  42  65  91 130 167 210 265 318 373
#     4  10  24  42  63  96 128 167 206 260 322 378
#     4  10  20  40  67  90 122 166 209 256 312 372
#     4  12  24  43  66  91 128 169 208 260 316 378
#     4  11  24  40  65  93 122 169 222 262 314 379
#     4  10  23  41  62  94 127 163 211 266 314 372
#     4  11  24  39  66  98 124 164 215 262 313 372
#
# _framework density 18.568857999999999
#
# number of rings (size 3 to 8) (size 9 to 14) (size 15 to 20)
#    0.000    1.273    7.273    1.091    3.818    1.818 
#    3.273    0.000    0.000    0.000    0.000    0.000 
#    0.000    0.000    0.000    0.000    0.000    0.000 
#
# Total GULP energy -491448.094079 kJ/mol
# GULP energy per Si atom -5584.637433 kJ/mol
# Density = 1.852659 g / cm^3
# Si number density = 18.568858 Si / 1000 Ang^3
#
#
#
# Elastic Constant Matrix: (Units=GPa)
#
#
# Indices 1 2 3 4 5 6 
#
# 1 48.3249 8.1059 10.1448 0.0000 0.0000 0.0000
# 2 8.1059 48.3250 10.1449 0.0000 0.0000 0.0000
# 3 10.1448 10.1449 118.7055 0.0000 0.0000 0.0000
# 4 0.0000 0.0000 0.0000 6.4094 0.0000 0.0000
# 5 0.0000 0.0000 0.0000 0.0000 6.4094 0.0000
# 6 0.0000 0.0000 0.0000 0.0000 0.0000 31.2688
#
#
#
# Elastic Compliance Matrix: (Units=1/GPa)
#
#
# Indices 1 2 3 4 5 6 
#
# 1 0.021573 -0.003291 -0.001562 0.000000 0.000000 0.000000
# 2 -0.003291 0.021573 -0.001562 0.000000 0.000000 0.000000
# 3 -0.001562 -0.001562 0.008691 0.000000 0.000000 0.000000
# 4 0.000000 0.000000 0.000000 0.156021 0.000000 0.000000
# 5 0.000000 0.000000 0.000000 0.000000 0.156022 0.000000
# 6 0.000000 0.000000 0.000000 0.000000 0.000000 0.031981
#
#
# Mechanical properties :
#
#
# Convention : Reuss Voigt Hill
#
# Bulk Modulus (GPa) = 25.63672 30.23851 27.93761
# Shear Modulus (GPa) = 11.85692 21.28150 16.56921
#
# Velocity S-wave (km/s) = 2.52967 3.38906 2.99040
# Velocity P-wave (km/s) = 4.72954 5.62443 5.19629
#
# Compressibility (1/GPa) = 0.03900656
#
# Stress axis : x y z
#
# Youngs Moduli (GPa) = 46.35373 46.35380 115.05793
#
# Poissons Ratio (x) = 0.15253 0.17977
# Poissons Ratio (y) = 0.15253 0.17978
# Poissons Ratio (z) = 0.07243 0.07243
#
# Static dielectric constant tensor:
#      x y z
#    x 1.644110 0.000000 0.000000 
#    y 0.000000 1.644110 0.000000 
#    z 0.000000 0.000000 1.615510 
# 
# From -- ./inp_files/4484.got.cif
#   From: 2010.05.17/outbox.cif.g08.bks.cpg/sg127_3_cif.got.tgz:4484.got - 2010.05.20 12:03:00.
