data_PCOD9564994
_publ_section_title
;
Structure prediction by ZEFSAII (Michael W. Deem and Ramdas Pophale) SiO2 
 PCOD9564994
Probable space group: P 4/M N C
;
_chemical_formula_sum "Si O2"
_cell_formula_units_Z 88
_cell_length_a 14.646656
_cell_length_b 14.646656
_cell_length_c 22.065241
_cell_angle_alpha 90.000000
_cell_angle_beta 90.000000
_cell_angle_gamma 90.000000
_cell_volume 4733.535499
_symmetry_space_group_name_H-M "P 4/M N C"
_symmetry_group_IT_number 128
_symmetry_cell_setting 'tetragonal'
loop_
_space_group_symop_operation_xyz
x,y,z
-y,x,z
-x,-y,z
y,-x,z
1/2+x,1/2-y,1/2-z
1/2-x,1/2+y,1/2-z
1/2+y,1/2+x,1/2-z
1/2-y,1/2-x,1/2-z
-x,-y,-z
y,-x,-z
x,y,-z
-y,x,-z
1/2-x,1/2+y,1/2+z
1/2+x,1/2-y,1/2+z
1/2-y,1/2-x,1/2+z
1/2+y,1/2+x,1/2+z
loop_
_atom_site_type_symbol
_atom_site_label
_atom_site_fract_x
_atom_site_fract_y
_atom_site_fract_z
Si Si1 0.276278 0.384992 0.308972
Si Si2 0.941026 0.143737 0.000000
Si Si3 0.903620 0.729839 0.673353
Si Si4 0.131250 0.920469 0.569383
Si Si5 0.562170 0.910043 0.178654
Si Si6 0.239297 0.076445 0.871971
O O1 0.175046 0.346359 0.321599
O O2 0.282602 0.402041 0.237258
O O3 0.288639 0.478454 0.344898
O O4 0.346919 0.310531 0.332254
O O5 0.918882 0.202319 0.059755
O O6 0.048274 0.114934 0.000000
O O7 0.885360 0.797479 0.618203
O O8 0.999315 0.677539 0.666598
O O9 0.159922 0.902895 0.500000
O O10 0.029895 0.879724 0.577168
O O11 0.589577 0.910424 0.250000
O O12 0.652405 0.913214 0.137917
O O13 0.500000 0.000000 0.169254
#
# Coordination Sequence:
#
# PCOD9564994 Si02
#       6
#    16   8  16  16  16  16
#     4  11  25  39  65  97 131 160 223 268 320 387
#     4  11  24  46  67  88 132 180 216 269 332 379
#     4  11  23  41  62  99 128 166 208 266 325 380
#     4   9  21  42  63  87 123 166 209 256 318 385
#     4  11  21  41  66  89 132 172 202 258 331 383
#     4  12  24  44  66  94 125 175 218 269 318 390
#
# _framework density 18.590754
#
# number of rings (size 3 to 8) (size 9 to 14) (size 15 to 20)
#    0.000    1.182    5.455    1.636    7.636    0.364 
#    4.909    0.455    0.000    0.000    0.000    0.000 
#    0.000    0.000    0.000    0.000    0.000    0.000 
#
# Total GULP energy -491817.591916 kJ/mol
# GULP energy per Si atom -5588.836272 kJ/mol
# Density = 1.854844 g / cm^3
# Si number density = 18.590754 Si / 1000 Ang^3
#
#
#
# Elastic Constant Matrix: (Units=GPa)
#
#
# Indices 1 2 3 4 5 6 
#
# 1 73.8769 20.3318 37.0921 0.0000 0.0000 0.0000
# 2 20.3318 73.8770 37.0919 0.0000 0.0000 0.0000
# 3 37.0921 37.0919 105.8756 0.0000 0.0000 0.0000
# 4 0.0000 0.0000 0.0000 22.4646 0.0000 0.0000
# 5 0.0000 0.0000 0.0000 0.0000 22.4646 0.0000
# 6 0.0000 0.0000 0.0000 0.0000 0.0000 27.8635
#
#
#
# Elastic Compliance Matrix: (Units=1/GPa)
#
#
# Indices 1 2 3 4 5 6 
#
# 1 0.016667 -0.002009 -0.005135 0.000000 0.000000 0.000000
# 2 -0.002009 0.016667 -0.005135 0.000000 0.000000 0.000000
# 3 -0.005135 -0.005135 0.013043 0.000000 0.000000 0.000000
# 4 0.000000 0.000000 0.000000 0.044515 0.000000 0.000000
# 5 0.000000 0.000000 0.000000 0.000000 0.044514 0.000000
# 6 0.000000 0.000000 0.000000 0.000000 0.000000 0.035889
#
#
# Mechanical properties :
#
#
# Convention : Reuss Voigt Hill
#
# Bulk Modulus (GPa) = 45.83214 49.18458 47.50836
# Shear Modulus (GPa) = 24.61504 25.16611 24.89058
#
# Velocity S-wave (km/s) = 3.64269 3.68324 3.66303
# Velocity P-wave (km/s) = 6.51145 6.67849 6.59550
#
# Compressibility (1/GPa) = 0.02181875
#
# Stress axis : x y z
#
# Youngs Moduli (GPa) = 59.99793 59.99812 76.66776
#
# Poissons Ratio (x) = 0.12051 0.39372
# Poissons Ratio (y) = 0.12051 0.39372
# Poissons Ratio (z) = 0.30812 0.30811
#
# Static dielectric constant tensor:
#      x y z
#    x 1.635290 0.000000 0.000000 
#    y 0.000000 1.635290 0.000000 
#    z 0.000000 0.000000 1.613250 
# 
# From -- ./inp_files/5622.got.cif
#   From: 2010.05.17/outbox.cif.g08.bks.cpg/sg128_3_cif.got.tgz:5622.got - 2010.05.20 12:07:25.
