data_PCOD9564863
_publ_section_title
;
Structure prediction by ZEFSAII (Michael W. Deem and Ramdas Pophale) SiO2 
 PCOD9564863
Probable space group: P 4/M N C
;
_chemical_formula_sum "Si O2"
_cell_formula_units_Z 80
_cell_length_a 13.316203
_cell_length_b 13.316203
_cell_length_c 17.005584
_cell_angle_alpha 90.000000
_cell_angle_beta 90.000000
_cell_angle_gamma 90.000000
_cell_volume 3015.451622
_symmetry_space_group_name_H-M "P 4/M N C"
_symmetry_group_IT_number 128
_symmetry_cell_setting 'tetragonal'
loop_
_space_group_symop_operation_xyz
x,y,z
-y,x,z
-x,-y,z
y,-x,z
1/2+x,1/2-y,1/2-z
1/2-x,1/2+y,1/2-z
1/2+y,1/2+x,1/2-z
1/2-y,1/2-x,1/2-z
-x,-y,-z
y,-x,-z
x,y,-z
-y,x,-z
1/2-x,1/2+y,1/2+z
1/2+x,1/2-y,1/2+z
1/2-y,1/2-x,1/2+z
1/2+y,1/2+x,1/2+z
loop_
_atom_site_type_symbol
_atom_site_label
_atom_site_fract_x
_atom_site_fract_y
_atom_site_fract_z
Si Si1 0.882749 0.573784 0.588412
Si Si2 0.918763 0.852696 0.583327
Si Si3 0.314823 0.655333 0.757138
Si Si4 0.142298 0.591015 0.138793
Si Si5 0.813240 0.828660 0.086622
O O1 0.888291 0.530162 0.500000
O O2 0.893442 0.830496 0.673822
O O3 0.779402 0.633523 0.592491
O O4 0.889238 0.477853 0.645871
O O5 0.887329 0.801212 0.500000
O O6 0.037177 0.868286 0.578656
O O7 0.980680 0.642502 0.600903
O O8 0.265415 0.765415 0.750000
O O9 0.220244 0.591089 0.789449
O O10 0.343557 0.619620 0.669607
O O11 0.178346 0.691571 0.092679
O O12 0.837237 0.872247 0.000000
#
# Coordination Sequence:
#
# PCOD9564863 Si02
#       5
#    16  16  16  16  16
#     4  10  21  40  73 106 134 179 230 289 359 425
#     4   9  20  41  69  99 130 169 221 284 357 428
#     4  10  23  37  56  93 134 176 219 270 333 398
#     4  10  21  42  67 101 138 172 228 294 354 416
#     4  10  22  42  67  98 139 185 234 286 344 411
#
# _framework density 26.530021000000001
#
# number of rings (size 3 to 8) (size 9 to 14) (size 15 to 20)
#    0.000    2.200    0.000    3.000    0.000   11.200 
#    0.000   36.000    0.000    1.200    0.000   11.200 
#    0.000    0.000    0.000    0.000    0.000    0.000 
#
# Total GULP energy -446586.669465 kJ/mol
# GULP energy per Si atom -5582.333368 kJ/mol
# Density = 2.646964 g / cm^3
# Si number density = 26.530021 Si / 1000 Ang^3
#
#
#
# Elastic Constant Matrix: (Units=GPa)
#
#
# Indices 1 2 3 4 5 6 
#
# 1 87.7182 40.7855 39.7023 0.0000 0.0000 0.0000
# 2 40.7855 87.7182 39.7023 0.0000 0.0000 0.0000
# 3 39.7023 39.7023 257.8428 0.0000 0.0000 0.0000
# 4 0.0000 0.0000 0.0000 37.1770 0.0000 0.0000
# 5 0.0000 0.0000 0.0000 0.0000 37.1770 0.0000
# 6 0.0000 0.0000 0.0000 0.0000 0.0000 51.8914
#
#
#
# Elastic Compliance Matrix: (Units=1/GPa)
#
#
# Indices 1 2 3 4 5 6 
#
# 1 0.014954 -0.006353 -0.001324 0.000000 0.000000 0.000000
# 2 -0.006353 0.014954 -0.001324 0.000000 0.000000 0.000000
# 3 -0.001324 -0.001324 0.004286 0.000000 0.000000 0.000000
# 4 0.000000 0.000000 0.000000 0.026898 0.000000 0.000000
# 5 0.000000 0.000000 0.000000 0.000000 0.026898 0.000000
# 6 0.000000 0.000000 0.000000 0.000000 0.000000 0.019271
#
#
# Mechanical properties :
#
#
# Convention : Reuss Voigt Hill
#
# Bulk Modulus (GPa) = 61.76853 74.85106 68.30979
# Shear Modulus (GPa) = 38.26683 46.12170 42.19427
#
# Velocity S-wave (km/s) = 3.80201 4.17402 3.99235
# Velocity P-wave (km/s) = 6.52739 7.17669 6.85973
#
# Compressibility (1/GPa) = 0.01618947
#
# Stress axis : x y z
#
# Youngs Moduli (GPa) = 66.87341 66.87341 233.31002
#
# Poissons Ratio (x) = 0.42488 0.30896
# Poissons Ratio (y) = 0.42488 0.30896
# Poissons Ratio (z) = 0.08856 0.08856
#
# Static dielectric constant tensor:
#      x y z
#    x 2.135570 0.000000 0.000000 
#    y 0.000000 2.135570 0.000000 
#    z 0.000000 0.000000 2.217870 
# 
# From -- ./inp_files/3935.got.cif
#   From: 2010.05.17/outbox.cif.g08.bks.cpg/sg128_2_cif.got.tgz:3935.got - 2010.05.20 12:07:25.
