data_PCOD9564744
_publ_section_title
;
Structure prediction by ZEFSAII (Michael W. Deem and Ramdas Pophale) SiO2 
 PCOD9564744
Probable space group: P 4/M N C
;
_chemical_formula_sum "Si O2"
_cell_formula_units_Z 88
_cell_length_a 15.117239
_cell_length_b 15.117239
_cell_length_c 22.252600
_cell_angle_alpha 90.000000
_cell_angle_beta 90.000000
_cell_angle_gamma 90.000000
_cell_volume 5085.407039
_symmetry_space_group_name_H-M "P 4/M N C"
_symmetry_group_IT_number 128
_symmetry_cell_setting 'tetragonal'
loop_
_space_group_symop_operation_xyz
x,y,z
-y,x,z
-x,-y,z
y,-x,z
1/2+x,1/2-y,1/2-z
1/2-x,1/2+y,1/2-z
1/2+y,1/2+x,1/2-z
1/2-y,1/2-x,1/2-z
-x,-y,-z
y,-x,-z
x,y,-z
-y,x,-z
1/2-x,1/2+y,1/2+z
1/2+x,1/2-y,1/2+z
1/2-y,1/2-x,1/2+z
1/2+y,1/2+x,1/2+z
loop_
_atom_site_type_symbol
_atom_site_label
_atom_site_fract_x
_atom_site_fract_y
_atom_site_fract_z
Si Si1 0.576602 0.075244 0.069355
Si Si2 0.453839 0.359337 0.286924
Si Si3 0.972802 0.146631 0.000000
Si Si4 0.864966 0.942499 0.354036
Si Si5 0.305023 0.079348 0.427729
Si Si6 0.779805 0.452683 0.611095
O O1 0.519856 0.160181 0.087990
O O2 0.500000 0.000000 0.068728
O O3 0.657521 0.039964 0.108853
O O4 0.607433 0.084274 0.000000
O O5 0.554493 0.392779 0.298985
O O6 0.439409 0.339975 0.216499
O O7 0.437512 0.275177 0.328515
O O8 0.900687 0.068239 0.000000
O O9 0.961517 0.208132 0.058100
O O10 0.788665 0.908913 0.396967
O O11 0.954940 0.888806 0.364662
O O12 0.303217 0.084758 0.500000
O O13 0.373123 0.153072 0.404084
#
# Coordination Sequence:
#
# PCOD9564744 Si02
#       6
#    16  16   8  16  16  16
#     4   8  15  31  52  73 107 150 179 214 270 325
#     4   9  19  37  59  79 107 151 190 225 277 336
#     4  11  22  34  49  78 120 157 188 219 263 329
#     4   9  20  41  61  77 104 143 189 238 290 336
#     4  10  20  36  57  84 113 146 186 231 286 333
#     4  11  18  34  55  81 114 148 187 226 271 329
#
# _framework density 17.304417000000001
#
# number of rings (size 3 to 8) (size 9 to 14) (size 15 to 20)
#    0.000    2.455    1.818    3.273    0.000    2.909 
#    6.545    1.818    0.000    3.273    0.000    0.000 
#    0.000    0.000    0.000    0.000    0.000    0.000 
#
# Total GULP energy -490489.299795 kJ/mol
# GULP energy per Si atom -5573.742043 kJ/mol
# Density = 1.726503 g / cm^3
# Si number density = 17.304417 Si / 1000 Ang^3
#
#
#
# Elastic Constant Matrix: (Units=GPa)
#
#
# Indices 1 2 3 4 5 6 
#
# 1 86.0227 34.9443 43.8271 0.0000 0.0000 0.0000
# 2 34.9443 86.0227 43.8271 0.0000 0.0000 0.0000
# 3 43.8271 43.8271 42.7304 0.0000 0.0000 0.0000
# 4 0.0000 0.0000 0.0000 26.0433 0.0000 0.0000
# 5 0.0000 0.0000 0.0000 0.0000 26.0433 0.0000
# 6 0.0000 0.0000 0.0000 0.0000 0.0000 7.0640
#
#
#
# Elastic Compliance Matrix: (Units=1/GPa)
#
#
# Indices 1 2 3 4 5 6 
#
# 1 0.025885 0.006307 -0.033019 0.000000 0.000000 0.000000
# 2 0.006307 0.025885 -0.033019 0.000000 0.000000 0.000000
# 3 -0.033019 -0.033019 0.091135 0.000000 0.000000 0.000000
# 4 0.000000 0.000000 0.000000 0.038398 0.000000 0.000000
# 5 0.000000 0.000000 0.000000 0.000000 0.038398 0.000000
# 6 0.000000 0.000000 0.000000 0.000000 0.000000 0.141563
#
#
# Mechanical properties :
#
#
# Convention : Reuss Voigt Hill
#
# Bulk Modulus (GPa) = 42.65309 51.10810 46.88059
# Shear Modulus (GPa) = 10.23459 17.97528 14.10494
#
# Velocity S-wave (km/s) = 2.43460 3.22649 2.85810
# Velocity P-wave (km/s) = 5.71010 6.59387 6.16783
#
# Compressibility (1/GPa) = 0.02344496
#
# Stress axis : x y z
#
# Youngs Moduli (GPa) = 38.63217 38.63217 10.97271
#
# Poissons Ratio (x) = -0.24367 0.36231
# Poissons Ratio (y) = -0.24367 0.36231
# Poissons Ratio (z) = 1.27559 1.27559
#
# Static dielectric constant tensor:
#      x y z
#    x 1.594280 0.000000 0.000000 
#    y 0.000000 1.594280 0.000000 
#    z 0.000000 0.000000 1.571690 
# 
# From -- ./inp_files/5630.got.cif
#   From: 2010.05.17/outbox.cif.g08.bks.cpg/sg128_3_cif.got.tgz:5630.got - 2010.05.20 12:07:25.
