data_PCOD9564505
_publ_section_title
;
Structure prediction by ZEFSAII (Michael W. Deem and Ramdas Pophale) SiO2 
 PCOD9564505
Probable space group: P 4/M B M
;
_chemical_formula_sum "Si O2"
_cell_formula_units_Z 120
_cell_length_a 27.000000
_cell_length_b 27.000000
_cell_length_c 9.000000
_cell_angle_alpha 90.000000
_cell_angle_beta 90.000000
_cell_angle_gamma 90.000000
_cell_volume 6561.000000
_symmetry_space_group_name_H-M "P 4/M B M"
_symmetry_group_IT_number 127
_symmetry_cell_setting 'tetragonal'
loop_
_space_group_symop_operation_xyz
x,y,z
-y,x,z
-x,-y,z
y,-x,z
1/2+x,1/2-y,-z
1/2-x,1/2+y,-z
1/2+y,1/2+x,-z
1/2-y,1/2-x,-z
-x,-y,-z
y,-x,-z
x,y,-z
-y,x,-z
1/2-x,1/2+y,z
1/2+x,1/2-y,z
1/2-y,1/2-x,z
1/2+y,1/2+x,z
loop_
_atom_site_type_symbol
_atom_site_label
_atom_site_fract_x
_atom_site_fract_y
_atom_site_fract_z
Si Si1 0.600108 0.606709 0.677133
Si Si2 0.195893 0.848026 0.822302
Si Si3 0.837484 0.254578 0.830966
Si Si4 0.348414 0.494480 0.323433
Si Si5 0.540861 0.040861 0.181538
Si Si6 0.945313 0.752815 0.819751
Si Si7 0.993075 0.649800 0.821288
Si Si8 0.822290 0.406824 0.331940
O O1 0.607341 0.615911 0.500000
O O2 0.642441 0.632768 0.772190
O O3 0.610666 0.548521 0.700751
O O4 0.546902 0.628149 0.719476
O O5 0.194654 0.791331 0.772120
O O6 0.234718 0.889176 0.768746
O O7 0.201068 0.847301 0.000000
O O8 0.800882 0.300882 0.839157
O O9 0.883122 0.271842 0.731269
O O10 0.854541 0.243709 0.000000
O O11 0.337855 0.495575 0.500000
O O12 0.297705 0.479144 0.241347
O O13 0.526467 0.096318 0.230613
O O14 0.500000 0.000000 0.228076
O O15 0.540693 0.040693 0.000000
O O16 0.962660 0.698412 0.771923
O O17 0.947157 0.754534 0.000000
O O18 0.048846 0.658604 0.768642
O O19 0.991482 0.648914 0.000000
O O20 0.814979 0.424235 0.500000
O O21 0.863920 0.363920 0.333077
#
# Coordination Sequence:
#
# PCOD9564505 Si02
#       8
#    16  16  16  16   8  16  16  16
#     4   9  18  31  48  70  96 129 169 210 256 303
#     4   9  18  33  50  70  98 132 166 207 254 302
#     4   9  18  33  52  75 101 132 168 204 250 304
#     4   9  18  32  49  71  98 131 171 214 259 305
#     4   9  18  34  57  83 109 137 173 213 257 311
#     4   9  19  34  50  73 104 133 170 213 256 302
#     4  10  20  35  56  81 106 139 175 212 257 310
#     4  10  21  35  52  78 109 136 167 210 258 306
#
# _framework density 18.289895000000001
#
# number of rings (size 3 to 8) (size 9 to 14) (size 15 to 20)
#    0.000    2.733    0.000    0.800    1.867    3.200 
#    1.200    1.667    0.000    1.200    0.000    3.733 
#    0.000    0.000    0.000    0.000    0.000    0.000 
#
# Total GULP energy -668309.693223 kJ/mol
# GULP energy per Si atom -5569.247444 kJ/mol
# Density = 1.824827 g / cm^3
# Si number density = 18.289895 Si / 1000 Ang^3
#
#
#
# Elastic Constant Matrix: (Units=GPa)
#
#
# Indices 1 2 3 4 5 6 
#
# 1 94.5512 54.0110 17.2165 0.0000 0.0000 0.0000
# 2 54.0110 94.5512 17.2165 0.0000 0.0000 0.0000
# 3 17.2165 17.2165 -4.4249 0.0000 0.0000 0.0000
# 4 0.0000 0.0000 0.0000 11.7991 0.0000 0.0000
# 5 0.0000 0.0000 0.0000 0.0000 11.7991 0.0000
# 6 0.0000 0.0000 0.0000 0.0000 0.0000 12.6716
#
#
#
# Elastic Compliance Matrix: (Units=1/GPa)
#
#
# Indices 1 2 3 4 5 6 
#
# 1 0.014103 -0.010564 0.013771 0.000000 0.000000 0.000000
# 2 -0.010564 0.014103 0.013771 0.000000 0.000000 0.000000
# 3 0.013771 0.013771 -0.118831 0.000000 0.000000 0.000000
# 4 0.000000 0.000000 0.000000 0.084752 0.000000 0.000000
# 5 0.000000 0.000000 0.000000 0.000000 0.084752 0.000000
# 6 0.000000 0.000000 0.000000 0.000000 0.000000 0.078916
#
#
# Mechanical properties :
#
#
# Convention : Reuss Voigt Hill
#
# Bulk Modulus (GPa) = -17.64655 40.17394 11.26370
# Shear Modulus (GPa) = 47.64203 13.66953 30.65578
#
# Velocity S-wave (km/s) = 5.10929 2.73679 4.09847
# Velocity P-wave (km/s) = 5.01371 5.65681 5.34494
#
# Compressibility (1/GPa) = -0.05666830
#
# Stress axis : x y z
#
# Youngs Moduli (GPa) = 70.90613 70.90613 -8.41529
#
# Poissons Ratio (x) = 0.74904 0.11589
# Poissons Ratio (y) = 0.74904 0.11589
# Poissons Ratio (z) = -0.97645 -0.97645
#
# Static dielectric constant tensor:
#      x y z
#    x 1.639470 0.000000 0.000000 
#    y 0.000000 1.639470 0.000000 
#    z 0.000000 0.000000 1.625590 
# 
# From -- ./inp_files/2414.got.cif
#   From: 2010.05.17/outbox.ucp.g08.bks.cvg/sg127_2_cif.got.tgz:2414.got - 2010.06.11 11:37:05.
