data_PCOD9564525
_publ_section_title
;
Structure prediction by ZEFSAII (Michael W. Deem and Ramdas Pophale) SiO2 
 PCOD9564525
Probable space group: P 4/M N C
;
_chemical_formula_sum "Si O2"
_cell_formula_units_Z 88
_cell_length_a 11.876618
_cell_length_b 11.876618
_cell_length_c 30.565681
_cell_angle_alpha 90.000000
_cell_angle_beta 90.000000
_cell_angle_gamma 90.000000
_cell_volume 4311.413252
_symmetry_space_group_name_H-M "P 4/M N C"
_symmetry_group_IT_number 128
_symmetry_cell_setting 'tetragonal'
loop_
_space_group_symop_operation_xyz
x,y,z
-y,x,z
-x,-y,z
y,-x,z
1/2+x,1/2-y,1/2-z
1/2-x,1/2+y,1/2-z
1/2+y,1/2+x,1/2-z
1/2-y,1/2-x,1/2-z
-x,-y,-z
y,-x,-z
x,y,-z
-y,x,-z
1/2-x,1/2+y,1/2+z
1/2+x,1/2-y,1/2+z
1/2-y,1/2-x,1/2+z
1/2+y,1/2+x,1/2+z
loop_
_atom_site_type_symbol
_atom_site_label
_atom_site_fract_x
_atom_site_fract_y
_atom_site_fract_z
Si Si1 0.684170 0.537487 0.742035
Si Si2 0.218251 0.797798 0.094417
Si Si3 0.149747 0.115335 0.634637
Si Si4 0.586410 0.826508 0.203577
Si Si5 0.141788 0.875404 0.000000
Si Si6 0.287744 0.004453 0.148764
O O1 0.584386 0.624868 0.747611
O O2 0.782625 0.534394 0.778612
O O3 0.726136 0.539199 0.692531
O O4 0.285717 0.680825 0.096772
O O5 0.292384 0.896140 0.117459
O O6 0.101185 0.780820 0.121798
O O7 0.192790 0.829627 0.044870
O O8 0.225567 0.144695 0.676796
O O9 0.020014 0.150728 0.634357
O O10 0.642169 0.857832 0.250000
O O11 0.604911 0.929878 0.169995
O O12 0.009794 0.847050 0.000000
#
# Coordination Sequence:
#
# PCOD9564525 Si02
#       6
#    16  16  16  16   8  16
#     4  10  17  26  49  81 115 164 217 262 298 355
#     4  11  21  38  62  94 130 164 202 257 326 387
#     4  10  22  43  68  89 116 168 227 269 308 375
#     4   9  19  32  51  87 126 159 208 265 314 360
#     4  11  22  36  66 105 138 162 198 255 312 396
#     4  10  19  32  53  82 128 166 199 247 315 385
#
# _framework density 20.41094
#
# number of rings (size 3 to 8) (size 9 to 14) (size 15 to 20)
#    0.000    1.909    3.636    1.091    0.000    1.818 
#    0.000    4.545    0.000    5.455    0.000    0.000 
#    0.000    0.000    0.000    0.000    0.000    0.000 
#
# Total GULP energy -490432.889666 kJ/mol
# GULP energy per Si atom -5573.101019 kJ/mol
# Density = 2.036448 g / cm^3
# Si number density = 20.410940 Si / 1000 Ang^3
#
#
#
# Elastic Constant Matrix: (Units=GPa)
#
#
# Indices 1 2 3 4 5 6 
#
# 1 54.4215 47.4890 40.9196 0.0000 0.0000 0.0000
# 2 47.4890 54.4214 40.9193 0.0000 0.0000 0.0000
# 3 40.9196 40.9193 153.4341 0.0000 0.0000 0.0000
# 4 0.0000 0.0000 0.0000 18.8905 0.0000 0.0000
# 5 0.0000 0.0000 0.0000 0.0000 18.8908 0.0000
# 6 0.0000 0.0000 0.0000 0.0000 0.0000 41.8259
#
#
#
# Elastic Compliance Matrix: (Units=1/GPa)
#
#
# Indices 1 2 3 4 5 6 
#
# 1 0.078368 -0.065882 -0.003330 0.000000 0.000000 0.000000
# 2 -0.065882 0.078368 -0.003330 0.000000 0.000000 0.000000
# 3 -0.003330 -0.003330 0.008294 0.000000 0.000000 0.000000
# 4 0.000000 0.000000 0.000000 0.052937 0.000000 0.000000
# 5 0.000000 0.000000 0.000000 0.000000 0.052936 0.000000
# 6 0.000000 0.000000 0.000000 0.000000 0.000000 0.023909
#
#
# Mechanical properties :
#
#
# Convention : Reuss Voigt Hill
#
# Bulk Modulus (GPa) = 50.13341 57.88144 54.00742
# Shear Modulus (GPa) = 11.19711 24.78471 17.99091
#
# Velocity S-wave (km/s) = 2.34473 3.48844 2.97212
# Velocity P-wave (km/s) = 5.65205 6.68171 6.18833
#
# Compressibility (1/GPa) = 0.01994678
#
# Stress axis : x y z
#
# Youngs Moduli (GPa) = 12.76025 12.76026 120.57388
#
# Poissons Ratio (x) = 0.84067 0.40154
# Poissons Ratio (y) = 0.84067 0.40151
# Poissons Ratio (z) = 0.04249 0.04249
#
# Static dielectric constant tensor:
#      x y z
#    x 1.800550 0.000000 0.000000 
#    y 0.000000 1.800550 0.000000 
#    z 0.000000 0.000000 1.702990 
# 
# From -- ./inp_files/7265.got.cif
#   From: 2010.05.17/outbox.cif.g08.bks.cpg/sg128_4_cif.got.tgz:7265.got - 2010.05.20 12:07:25.
