data_PCOD9564382
_publ_section_title
;
Structure prediction by ZEFSAII (Michael W. Deem and Ramdas Pophale) SiO2 
 PCOD9564382
Probable space group: P 4/M B M
;
_chemical_formula_sum "Si O2"
_cell_formula_units_Z 72
_cell_length_a 14.953903
_cell_length_b 14.953903
_cell_length_c 19.759171
_cell_angle_alpha 90.000000
_cell_angle_beta 90.000000
_cell_angle_gamma 90.000000
_cell_volume 4418.530307
_symmetry_space_group_name_H-M "P 4/M B M"
_symmetry_group_IT_number 127
_symmetry_cell_setting 'tetragonal'
loop_
_space_group_symop_operation_xyz
x,y,z
-y,x,z
-x,-y,z
y,-x,z
1/2+x,1/2-y,-z
1/2-x,1/2+y,-z
1/2+y,1/2+x,-z
1/2-y,1/2-x,-z
-x,-y,-z
y,-x,-z
x,y,-z
-y,x,-z
1/2-x,1/2+y,z
1/2+x,1/2-y,z
1/2-y,1/2-x,z
1/2+y,1/2+x,z
loop_
_atom_site_type_symbol
_atom_site_label
_atom_site_fract_x
_atom_site_fract_y
_atom_site_fract_z
Si Si1 0.974896 0.853057 0.000000
Si Si2 0.575551 0.924450 0.920473
Si Si3 0.005696 0.759319 0.861049
Si Si4 0.888673 0.897289 0.500000
Si Si5 0.819147 0.169343 0.788173
Si Si6 0.611777 0.396872 0.351711
O O1 0.970063 0.797352 0.931989
O O2 0.900946 0.929260 0.000000
O O3 0.660421 0.961673 0.879660
O O4 0.500000 0.000000 0.922837
O O5 0.598133 0.901868 0.000000
O O6 0.091084 0.813728 0.832330
O O7 0.922970 0.771606 0.810230
O O8 0.855476 0.866646 0.573575
O O9 0.995145 0.879376 0.500000
O O10 0.750987 0.250987 0.798084
O O11 0.850151 0.160150 0.710558
O O12 0.621103 0.504783 0.346849
#
# Coordination Sequence:
#
# PCOD9564382 Si02
#       6
#     8   8  16   8  16  16
#     4  11  22  35  56  83 107 132 172 225 289 336
#     4  11  24  42  60  76 106 148 188 224 278 343
#     4  12  23  39  57  81 109 139 180 234 278 324
#     4   7  12  24  47  80 108 134 169 211 262 324
#     4  12  24  36  55  81 111 142 184 230 276 328
#     4   9  16  30  54  80 108 139 173 216 271 326
#
# _framework density 16.295010000000001
#
# number of rings (size 3 to 8) (size 9 to 14) (size 15 to 20)
#    0.000    1.444    6.667    2.000    0.000    0.444 
#    0.000    1.667    0.000    0.000    0.000    0.000 
#    0.000    0.000    0.000   12.222    0.000    0.000 
#
# Total GULP energy -401322.925710 kJ/mol
# GULP energy per Si atom -5573.929524 kJ/mol
# Density = 1.625792 g / cm^3
# Si number density = 16.295010 Si / 1000 Ang^3
#
#
#
# Elastic Constant Matrix: (Units=GPa)
#
#
# Indices 1 2 3 4 5 6 
#
# 1 36.6447 -4.3530 5.0157 0.0000 0.0000 0.0000
# 2 -4.3530 36.6449 5.0158 0.0000 0.0000 0.0000
# 3 5.0157 5.0158 102.0216 0.0000 0.0000 0.0000
# 4 0.0000 0.0000 0.0000 13.5558 0.0000 0.0000
# 5 0.0000 0.0000 0.0000 0.0000 13.5523 0.0000
# 6 0.0000 0.0000 0.0000 0.0000 0.0000 31.7047
#
#
#
# Elastic Compliance Matrix: (Units=1/GPa)
#
#
# Indices 1 2 3 4 5 6 
#
# 1 0.027920 0.003528 -0.001546 0.000000 0.000000 0.000000
# 2 0.003528 0.027920 -0.001546 0.000000 0.000000 0.000000
# 3 -0.001546 -0.001546 0.009954 0.000000 0.000000 0.000000
# 4 0.000000 0.000000 0.000000 0.073769 0.000000 0.000000
# 5 0.000000 0.000000 0.000000 0.000000 0.073788 0.000000
# 6 0.000000 0.000000 0.000000 0.000000 0.000000 0.031541
#
#
# Mechanical properties :
#
#
# Convention : Reuss Voigt Hill
#
# Bulk Modulus (GPa) = 15.00033 20.74093 17.87063
# Shear Modulus (GPa) = 18.77994 23.07140 20.92567
#
# Velocity S-wave (km/s) = 3.39853 3.76687 3.58743
# Velocity P-wave (km/s) = 4.96240 5.62806 5.30568
#
# Compressibility (1/GPa) = 0.06666522
#
# Stress axis : x y z
#
# Youngs Moduli (GPa) = 35.81692 35.81703 100.46347
#
# Poissons Ratio (x) = -0.12637 0.15533
# Poissons Ratio (y) = -0.12637 0.15533
# Poissons Ratio (z) = 0.05538 0.05538
#
# Static dielectric constant tensor:
#      x y z
#    x 1.530940 0.000000 0.000000 
#    y 0.000000 1.530940 0.000000 
#    z 0.000000 0.000000 1.571610 
# 
# From -- ./inp_files/4974.got.cif
#   From: 2010.05.17/outbox.cif.g08.bks.cpg/sg127_3_cif.got.tgz:4974.got - 2010.05.20 12:03:00.
