data_PCOD9564626
_publ_section_title
;
Structure prediction by ZEFSAII (Michael W. Deem and Ramdas Pophale) SiO2 
 PCOD9564626
Probable space group: P 4/M N C
;
_chemical_formula_sum "Si O2"
_cell_formula_units_Z 72
_cell_length_a 14.695145
_cell_length_b 14.695145
_cell_length_c 17.886830
_cell_angle_alpha 90.000000
_cell_angle_beta 90.000000
_cell_angle_gamma 90.000000
_cell_volume 3862.612404
_symmetry_space_group_name_H-M "P 4/M N C"
_symmetry_group_IT_number 128
_symmetry_cell_setting 'tetragonal'
loop_
_space_group_symop_operation_xyz
x,y,z
-y,x,z
-x,-y,z
y,-x,z
1/2+x,1/2-y,1/2-z
1/2-x,1/2+y,1/2-z
1/2+y,1/2+x,1/2-z
1/2-y,1/2-x,1/2-z
-x,-y,-z
y,-x,-z
x,y,-z
-y,x,-z
1/2-x,1/2+y,1/2+z
1/2+x,1/2-y,1/2+z
1/2-y,1/2-x,1/2+z
1/2+y,1/2+x,1/2+z
loop_
_atom_site_type_symbol
_atom_site_label
_atom_site_fract_x
_atom_site_fract_y
_atom_site_fract_z
Si Si1 0.591084 0.270147 0.338926
Si Si2 0.615675 0.757660 0.698027
Si Si3 0.903584 0.577222 0.163539
Si Si4 0.855238 0.050531 0.000000
Si Si5 0.098179 0.600043 0.587419
O O1 0.494355 0.253397 0.296504
O O2 0.657969 0.341290 0.299905
O O3 0.644541 0.174117 0.341322
O O4 0.569055 0.301878 0.423181
O O5 0.669308 0.830693 0.750000
O O6 0.631824 0.804413 0.616907
O O7 0.932138 0.567863 0.250000
O O8 0.856870 0.487665 0.131212
O O9 0.994367 0.592250 0.113482
O O10 0.946132 0.111660 0.000000
O O11 0.087652 0.608742 0.500000
#
# Coordination Sequence:
#
# PCOD9564626 Si02
#       5
#    16  16  16   8  16
#     4  11  23  36  63  87 123 163 203 255 316 372
#     4  11  24  40  58  85 120 156 206 252 310 379
#     4  10  19  33  53  77 112 158 200 240 297 361
#     4  11  22  38  60  93 129 163 203 262 322 389
#     4  10  20  33  52  80 110 151 198 250 298 359
#
# _framework density 18.640235000000001
#
# number of rings (size 3 to 8) (size 9 to 14) (size 15 to 20)
#    0.000    1.444    2.222    6.000    9.333    0.444 
#    0.000    0.000    0.000    0.000    0.000    0.000 
#    0.000    0.000    0.000    9.333    0.000    0.000 
#
# Total GULP energy -401075.861051 kJ/mol
# GULP energy per Si atom -5570.498070 kJ/mol
# Density = 1.859781 g / cm^3
# Si number density = 18.640235 Si / 1000 Ang^3
#
#
#
# Elastic Constant Matrix: (Units=GPa)
#
#
# Indices 1 2 3 4 5 6 
#
# 1 90.6050 29.9882 22.9446 0.0000 0.0000 0.0000
# 2 29.9882 90.6041 22.9446 0.0000 0.0000 0.0000
# 3 22.9446 22.9446 121.5899 0.0000 0.0000 0.0000
# 4 0.0000 0.0000 0.0000 23.1742 0.0000 0.0000
# 5 0.0000 0.0000 0.0000 0.0000 23.1747 0.0000
# 6 0.0000 0.0000 0.0000 0.0000 0.0000 22.0098
#
#
#
# Elastic Compliance Matrix: (Units=1/GPa)
#
#
# Indices 1 2 3 4 5 6 
#
# 1 0.012715 -0.003782 -0.001686 0.000000 0.000000 0.000000
# 2 -0.003782 0.012716 -0.001686 0.000000 0.000000 0.000000
# 3 -0.001686 -0.001686 0.008861 0.000000 0.000000 0.000000
# 4 0.000000 0.000000 0.000000 0.043151 0.000000 0.000000
# 5 0.000000 0.000000 0.000000 0.000000 0.043150 0.000000
# 6 0.000000 0.000000 0.000000 0.000000 0.000000 0.045434
#
#
# Mechanical properties :
#
#
# Convention : Reuss Voigt Hill
#
# Bulk Modulus (GPa) = 50.03766 50.50598 50.27182
# Shear Modulus (GPa) = 26.73847 28.79984 27.76916
#
# Velocity S-wave (km/s) = 3.79152 3.93496 3.86391
# Velocity P-wave (km/s) = 6.78747 6.91369 6.85087
#
# Compressibility (1/GPa) = 0.01998495
#
# Stress axis : x y z
#
# Youngs Moduli (GPa) = 78.64427 78.64349 112.85878
#
# Poissons Ratio (x) = 0.29740 0.19026
# Poissons Ratio (y) = 0.29741 0.19027
# Poissons Ratio (z) = 0.13258 0.13258
#
# Static dielectric constant tensor:
#      x y z
#    x 1.718620 0.000000 0.000000 
#    y 0.000000 1.718630 0.000000 
#    z 0.000000 0.000000 1.652910 
# 
# From -- ./inp_files/4559.got.cif
#   From: 2010.05.17/outbox.cif.g08.bks.cpg/sg128_3_cif.got.tgz:4559.got - 2010.05.20 12:07:25.
