data_PCOD9564126
_publ_section_title
;
Structure prediction by ZEFSAII (Michael W. Deem and Ramdas Pophale) SiO2 
 PCOD9564126
Probable space group: P 4/M B M
;
_chemical_formula_sum "Si O2"
_cell_formula_units_Z 96
_cell_length_a 14.363007
_cell_length_b 14.363007
_cell_length_c 23.446559
_cell_angle_alpha 90.000000
_cell_angle_beta 90.000000
_cell_angle_gamma 90.000000
_cell_volume 4836.930634
_symmetry_space_group_name_H-M "P 4/M B M"
_symmetry_group_IT_number 127
_symmetry_cell_setting 'tetragonal'
loop_
_space_group_symop_operation_xyz
x,y,z
-y,x,z
-x,-y,z
y,-x,z
1/2+x,1/2-y,-z
1/2-x,1/2+y,-z
1/2+y,1/2+x,-z
1/2-y,1/2-x,-z
-x,-y,-z
y,-x,-z
x,y,-z
-y,x,-z
1/2-x,1/2+y,z
1/2+x,1/2-y,z
1/2-y,1/2-x,z
1/2+y,1/2+x,z
loop_
_atom_site_type_symbol
_atom_site_label
_atom_site_fract_x
_atom_site_fract_y
_atom_site_fract_z
Si Si1 0.225765 0.501844 0.155413
Si Si2 0.682690 0.667617 0.121859
Si Si3 0.884282 0.230013 0.565873
Si Si4 0.494658 0.150381 0.717697
Si Si5 0.244803 0.414092 0.615333
Si Si6 0.421468 0.921468 0.065543
Si Si7 0.618407 0.603155 0.000000
O O1 0.265820 0.602023 0.142584
O O2 0.309964 0.428179 0.155840
O O3 0.175681 0.503284 0.215873
O O4 0.160372 0.467488 0.103356
O O5 0.778904 0.721097 0.129426
O O6 0.663844 0.644276 0.056285
O O7 0.870296 0.200988 0.500000
O O8 0.824596 0.324596 0.574293
O O9 0.835032 0.151071 0.605080
O O10 0.993422 0.247971 0.576537
O O11 0.393029 0.106971 0.702811
O O12 0.537378 0.230116 0.677326
O O13 0.567230 0.067230 0.709623
O O14 0.155960 0.344041 0.604461
O O15 0.500000 0.000000 0.060970
O O16 0.394998 0.894998 0.000000
O O17 0.508563 0.626568 0.000000
#
# Coordination Sequence:
#
# PCOD9564126 Si02
#       7
#    16  16  16  16  16   8   8
#     4  12  25  42  63  93 125 165 212 267 333 396
#     4  12  25  41  63  89 121 161 209 261 328 405
#     4  10  21  38  62  94 134 176 217 270 327 383
#     4  10  20  39  66  92 125 167 216 272 326 385
#     4  10  22  39  62  94 130 174 225 272 326 387
#     4  11  24  42  62  88 122 157 208 274 336 386
#     4  11  23  42  64  82 117 165 202 254 330 404
#
# _framework density 19.847297999999999
#
# number of rings (size 3 to 8) (size 9 to 14) (size 15 to 20)
#    0.000    1.167    3.333    2.750    2.333    4.000 
#    0.000    5.000    0.000    2.000    0.000    0.000 
#    0.000    0.000    0.000    0.000    0.000    0.000 
#
# Total GULP energy -535731.008183 kJ/mol
# GULP energy per Si atom -5580.531335 kJ/mol
# Density = 1.980212 g / cm^3
# Si number density = 19.847298 Si / 1000 Ang^3
#
#
#
# Elastic Constant Matrix: (Units=GPa)
#
#
# Indices 1 2 3 4 5 6 
#
# 1 80.0749 20.5119 17.7130 0.0000 0.0000 0.0000
# 2 20.5119 80.0749 17.7130 0.0000 0.0000 0.0000
# 3 17.7130 17.7130 95.8539 0.0000 0.0000 0.0000
# 4 0.0000 0.0000 0.0000 14.5625 0.0000 0.0000
# 5 0.0000 0.0000 0.0000 0.0000 14.5625 0.0000
# 6 0.0000 0.0000 0.0000 0.0000 0.0000 27.9294
#
#
#
# Elastic Compliance Matrix: (Units=1/GPa)
#
#
# Indices 1 2 3 4 5 6 
#
# 1 0.013711 -0.003078 -0.001965 0.000000 0.000000 0.000000
# 2 -0.003078 0.013711 -0.001965 0.000000 0.000000 0.000000
# 3 -0.001965 -0.001965 0.011159 0.000000 0.000000 0.000000
# 4 0.000000 0.000000 0.000000 0.068670 0.000000 0.000000
# 5 0.000000 0.000000 0.000000 0.000000 0.068670 0.000000
# 6 0.000000 0.000000 0.000000 0.000000 0.000000 0.035805
#
#
# Mechanical properties :
#
#
# Convention : Reuss Voigt Hill
#
# Bulk Modulus (GPa) = 40.70639 40.87547 40.79093
# Shear Modulus (GPa) = 21.37400 24.74860 23.06130
#
# Velocity S-wave (km/s) = 3.28521 3.53505 3.41242
# Velocity P-wave (km/s) = 5.91138 6.10752 6.01025
#
# Compressibility (1/GPa) = 0.02456617
#
# Stress axis : x y z
#
# Youngs Moduli (GPa) = 72.93233 72.93233 89.61552
#
# Poissons Ratio (x) = 0.22446 0.17610
# Poissons Ratio (y) = 0.22446 0.17610
# Poissons Ratio (z) = 0.14331 0.14331
#
# Static dielectric constant tensor:
#      x y z
#    x 1.699620 0.000000 0.000000 
#    y 0.000000 1.699620 0.000000 
#    z 0.000000 0.000000 1.708350 
# 
# From -- ./inp_files/5812.got.cif
#   From: 2010.05.17/outbox.cif.g08.bks.cpg/sg127_3_cif.got.tgz:5812.got - 2010.05.20 12:03:00.
