data_PCOD9564307
_publ_section_title
;
Structure prediction by ZEFSAII (Michael W. Deem and Ramdas Pophale) SiO2 
 PCOD9564307
Probable space group: P 4/M B M
;
_chemical_formula_sum "Si O2"
_cell_formula_units_Z 84
_cell_length_a 11.750993
_cell_length_b 11.750993
_cell_length_c 31.530738
_cell_angle_alpha 90.000000
_cell_angle_beta 90.000000
_cell_angle_gamma 90.000000
_cell_volume 4353.948332
_symmetry_space_group_name_H-M "P 4/M B M"
_symmetry_group_IT_number 127
_symmetry_cell_setting 'tetragonal'
loop_
_space_group_symop_operation_xyz
x,y,z
-y,x,z
-x,-y,z
y,-x,z
1/2+x,1/2-y,-z
1/2-x,1/2+y,-z
1/2+y,1/2+x,-z
1/2-y,1/2-x,-z
-x,-y,-z
y,-x,-z
x,y,-z
-y,x,-z
1/2-x,1/2+y,z
1/2+x,1/2-y,z
1/2-y,1/2-x,z
1/2+y,1/2+x,z
loop_
_atom_site_type_symbol
_atom_site_label
_atom_site_fract_x
_atom_site_fract_y
_atom_site_fract_z
Si Si1 0.902961 0.402961 0.241411
Si Si2 0.596329 0.903672 0.450535
Si Si3 0.936392 0.756185 0.908711
Si Si4 0.031214 0.811949 0.296772
Si Si5 0.500000 0.500000 0.109957
Si Si6 0.532145 0.687696 0.604456
Si Si7 0.595142 0.904859 0.145915
Si Si8 0.505055 0.810130 0.000000
O O1 0.948828 0.292582 0.265964
O O2 0.869721 0.369721 0.193215
O O3 0.000000 0.500000 0.242606
O O4 0.619205 0.880795 0.500000
O O5 0.708769 0.946784 0.426685
O O6 0.500000 0.000000 0.447645
O O7 0.821372 0.678629 0.907540
O O8 0.922896 0.883016 0.892082
O O9 0.029955 0.688586 0.881420
O O10 0.980777 0.758740 0.957350
O O11 0.037949 0.775928 0.346165
O O12 0.909899 0.873745 0.290351
O O13 0.410514 0.626732 0.598209
O O14 0.500000 0.000000 0.153540
O O15 0.628086 0.871915 0.000000
O O16 0.412933 0.912933 0.000000
#
# Coordination Sequence:
#
# PCOD9564307 Si02
#       8
#     8   8  16  16   4  16   8   8
#     4  11  23  38  62  93 124 160 199 243 313 372
#     4  11  25  39  55  88 126 160 206 259 303 359
#     4  10  22  42  65  93 127 161 214 264 309 379
#     4   9  20  40  62  92 123 153 197 255 308 363
#     4  12  28  41  64 100 124 168 208 252 332 376
#     4   9  20  40  64  86 117 159 204 252 308 363
#     4   9  20  44  66  86 124 167 204 255 300 362
#     4   9  16  33  68  96 118 167 215 260 322 368
#
# _framework density 19.292832000000001
#
# number of rings (size 3 to 8) (size 9 to 14) (size 15 to 20)
#    0.000    2.286    0.952    1.714    4.000    3.429 
#    3.429    1.905    0.000    0.000    0.000    0.000 
#    0.000    0.000    0.000    0.000    0.000    0.000 
#
# Total GULP energy -468056.391477 kJ/mol
# GULP energy per Si atom -5572.099899 kJ/mol
# Density = 1.924892 g / cm^3
# Si number density = 19.292832 Si / 1000 Ang^3
#
#
#
# Elastic Constant Matrix: (Units=GPa)
#
#
# Indices 1 2 3 4 5 6 
#
# 1 109.5816 9.5440 55.9915 0.0000 0.0000 0.0000
# 2 9.5440 109.5815 55.9914 0.0000 0.0000 0.0000
# 3 55.9915 55.9914 133.3091 0.0000 0.0000 0.0000
# 4 0.0000 0.0000 0.0000 7.8991 0.0000 0.0000
# 5 0.0000 0.0000 0.0000 0.0000 7.8982 0.0000
# 6 0.0000 0.0000 0.0000 0.0000 0.0000 10.2936
#
#
#
# Elastic Compliance Matrix: (Units=1/GPa)
#
#
# Indices 1 2 3 4 5 6 
#
# 1 0.011934 0.001938 -0.005826 0.000000 0.000000 0.000000
# 2 0.001938 0.011934 -0.005826 0.000000 0.000000 0.000000
# 3 -0.005826 -0.005826 0.012395 0.000000 0.000000 0.000000
# 4 0.000000 0.000000 0.000000 0.126597 0.000000 0.000000
# 5 0.000000 0.000000 0.000000 0.000000 0.126611 0.000000
# 6 0.000000 0.000000 0.000000 0.000000 0.000000 0.097148
#
#
# Mechanical properties :
#
#
# Convention : Reuss Voigt Hill
#
# Bulk Modulus (GPa) = 59.40510 66.16956 62.78733
# Shear Modulus (GPa) = 12.14598 20.61453 16.38026
#
# Velocity S-wave (km/s) = 2.51182 3.27235 2.91698
# Velocity P-wave (km/s) = 6.26662 6.97493 6.63024
#
# Compressibility (1/GPa) = 0.01683357
#
# Stress axis : x y z
#
# Youngs Moduli (GPa) = 83.79586 83.79579 80.67484
#
# Poissons Ratio (x) = -0.16236 0.47002
# Poissons Ratio (y) = -0.16236 0.47002
# Poissons Ratio (z) = 0.48820 0.48820
#
# Static dielectric constant tensor:
#      x y z
#    x 1.668900 0.000000 0.000000 
#    y 0.000000 1.668900 0.000000 
#    z 0.000000 0.000000 1.669970 
# 
# From -- ./inp_files/6609.got.cif
#   From: 2010.05.17/outbox.cif.g08.bks.cpg/sg127_4_cif.got.tgz:6609.got - 2010.05.20 12:03:00.
