data_PCOD9564134
_publ_section_title
;
Structure prediction by ZEFSAII (Michael W. Deem and Ramdas Pophale) SiO2 
 PCOD9564134
Probable space group: P 4/M B M
;
_chemical_formula_sum "Si O2"
_cell_formula_units_Z 116
_cell_length_a 29.094452
_cell_length_b 29.094452
_cell_length_c 7.898131
_cell_angle_alpha 90.000000
_cell_angle_beta 90.000000
_cell_angle_gamma 90.000000
_cell_volume 6685.666299
_symmetry_space_group_name_H-M "P 4/M B M"
_symmetry_group_IT_number 127
_symmetry_cell_setting 'tetragonal'
loop_
_space_group_symop_operation_xyz
x,y,z
-y,x,z
-x,-y,z
y,-x,z
1/2+x,1/2-y,-z
1/2-x,1/2+y,-z
1/2+y,1/2+x,-z
1/2-y,1/2-x,-z
-x,-y,-z
y,-x,-z
x,y,-z
-y,x,-z
1/2-x,1/2+y,z
1/2+x,1/2-y,z
1/2-y,1/2-x,z
1/2+y,1/2+x,z
loop_
_atom_site_type_symbol
_atom_site_label
_atom_site_fract_x
_atom_site_fract_y
_atom_site_fract_z
Si Si1 0.703242 0.900251 0.697584
Si Si2 0.757444 0.668642 0.195635
Si Si3 0.927019 0.885762 0.302885
Si Si4 0.685420 0.738971 0.300353
Si Si5 0.131225 0.027867 0.198209
Si Si6 0.637676 0.862325 0.000000
Si Si7 0.765231 0.976540 0.195999
Si Si8 0.924153 0.782328 0.302787
O O1 0.689139 0.890600 0.500000
O O2 0.746476 0.866172 0.735647
O O3 0.667064 0.889389 0.846224
O O4 0.724525 0.950794 0.708973
O O5 0.797291 0.702710 0.264111
O O6 0.710210 0.697736 0.206628
O O7 0.748595 0.620771 0.285483
O O8 0.767662 0.659473 0.000000
O O9 0.914447 0.887673 0.500000
O O10 0.899977 0.927383 0.218185
O O11 0.914958 0.834407 0.238146
O O12 0.982170 0.889394 0.283431
O O13 0.689902 0.729201 0.500000
O O14 0.715538 0.784463 0.261161
O O15 0.183398 0.035452 0.262409
O O16 0.135493 0.016426 0.000000
O O17 0.762508 0.031479 0.210429
O O18 0.762645 0.962442 0.000000
O O19 0.936526 0.787064 0.500000
#
# Coordination Sequence:
#
# PCOD9564134 Si02
#       8
#    16  16  16  16  16   4  16  16
#     4  11  22  35  54  79 109 146 183 222 266 321
#     4  10  21  33  51  75 102 136 175 219 269 321
#     4  10  21  36  53  73  97 127 165 216 274 330
#     4   9  18  31  46  69 101 134 171 213 259 313
#     4  10  21  36  54  74  98 125 170 220 273 330
#     4  12  22  36  56  78 112 144 179 220 264 316
#     4  10  21  37  55  77 104 140 181 222 268 325
#     4  10  21  37  54  74 102 137 176 222 269 320
#
# _framework density 17.350552
#
# number of rings (size 3 to 8) (size 9 to 14) (size 15 to 20)
#    0.000    1.931    1.379    2.276    2.897    4.414 
#    0.000    1.379    0.000    0.000    0.000    0.000 
#    0.000    0.000    0.000    1.241    0.000    5.310 
#
# Total GULP energy -645887.510306 kJ/mol
# GULP energy per Si atom -5567.995778 kJ/mol
# Density = 1.731106 g / cm^3
# Si number density = 17.350552 Si / 1000 Ang^3
#
#
#
# Elastic Constant Matrix: (Units=GPa)
#
#
# Indices 1 2 3 4 5 6 
#
# 1 57.6080 31.7364 6.8107 0.0000 0.0000 0.0000
# 2 31.7364 57.6079 6.8106 0.0000 0.0000 0.0000
# 3 6.8107 6.8106 54.0048 0.0000 0.0000 0.0000
# 4 0.0000 0.0000 0.0000 19.3985 0.0000 0.0000
# 5 0.0000 0.0000 0.0000 0.0000 19.3984 0.0000
# 6 0.0000 0.0000 0.0000 0.0000 0.0000 26.8658
#
#
#
# Elastic Compliance Matrix: (Units=1/GPa)
#
#
# Indices 1 2 3 4 5 6 
#
# 1 0.025032 -0.013620 -0.001439 0.000000 0.000000 0.000000
# 2 -0.013620 0.025032 -0.001439 0.000000 0.000000 0.000000
# 3 -0.001439 -0.001439 0.018880 0.000000 0.000000 0.000000
# 4 0.000000 0.000000 0.000000 0.051550 0.000000 0.000000
# 5 0.000000 0.000000 0.000000 0.000000 0.051551 0.000000
# 6 0.000000 0.000000 0.000000 0.000000 0.000000 0.037222
#
#
# Mechanical properties :
#
#
# Convention : Reuss Voigt Hill
#
# Bulk Modulus (GPa) = 27.81857 28.88179 28.35018
# Shear Modulus (GPa) = 19.66590 21.39007 20.52799
#
# Velocity S-wave (km/s) = 3.37032 3.51496 3.44340
# Velocity P-wave (km/s) = 5.58690 5.75808 5.67313
#
# Compressibility (1/GPa) = 0.03594721
#
# Stress axis : x y z
#
# Youngs Moduli (GPa) = 39.94841 39.94832 52.96650
#
# Poissons Ratio (x) = 0.54411 0.07623
# Poissons Ratio (y) = 0.54411 0.07623
# Poissons Ratio (z) = 0.05749 0.05749
#
# Static dielectric constant tensor:
#      x y z
#    x 1.591040 0.000000 0.000000 
#    y 0.000000 1.591040 0.000000 
#    z 0.000000 0.000000 1.633250 
# 
# From -- ./inp_files/2362.got.cif
#   From: 2010.05.17/outbox.cif.g08.bks.cpg/sg127_2_cif.got.tgz:2362.got - 2010.05.20 12:03:00.
