data_PCOD9564822
_publ_section_title
;
Structure prediction by ZEFSAII (Michael W. Deem and Ramdas Pophale) SiO2 
 PCOD9564822
Probable space group: P 4/M N C
;
_chemical_formula_sum "Si O2"
_cell_formula_units_Z 96
_cell_length_a 24.089613
_cell_length_b 24.089613
_cell_length_c 8.900348
_cell_angle_alpha 90.000000
_cell_angle_beta 90.000000
_cell_angle_gamma 90.000000
_cell_volume 5164.956093
_symmetry_space_group_name_H-M "P 4/M N C"
_symmetry_group_IT_number 128
_symmetry_cell_setting 'tetragonal'
loop_
_space_group_symop_operation_xyz
x,y,z
-y,x,z
-x,-y,z
y,-x,z
1/2+x,1/2-y,1/2-z
1/2-x,1/2+y,1/2-z
1/2+y,1/2+x,1/2-z
1/2-y,1/2-x,1/2-z
-x,-y,-z
y,-x,-z
x,y,-z
-y,x,-z
1/2-x,1/2+y,1/2+z
1/2+x,1/2-y,1/2+z
1/2-y,1/2-x,1/2+z
1/2+y,1/2+x,1/2+z
loop_
_atom_site_type_symbol
_atom_site_label
_atom_site_fract_x
_atom_site_fract_y
_atom_site_fract_z
Si Si1 0.928907 0.656813 0.320650
Si Si2 0.578201 0.450035 0.665111
Si Si3 0.929697 0.237775 0.820618
Si Si4 0.365644 0.357589 0.826721
Si Si5 0.942154 0.777848 0.820085
Si Si6 0.141600 0.556606 0.821383
O O1 0.883340 0.616661 0.250000
O O2 0.921186 0.662315 0.500000
O O3 0.927631 0.717188 0.244023
O O4 0.990946 0.633387 0.293628
O O5 0.573316 0.515851 0.668335
O O6 0.602697 0.434405 0.500000
O O7 0.610108 0.423554 0.801863
O O8 0.880247 0.199948 0.755780
O O9 0.928198 0.298857 0.749445
O O10 0.991946 0.213534 0.784959
O O11 0.925927 0.241618 0.000000
O O12 0.321237 0.398742 0.750220
O O13 0.352085 0.349014 0.000000
O O14 0.937188 0.779481 0.000000
O O15 0.093786 0.593786 0.750000
O O16 0.143733 0.565278 0.000000
#
# Coordination Sequence:
#
# PCOD9564822 Si02
#       6
#    16  16  16  16  16  16
#     4  10  21  38  61  89 120 151 184 224 272 328
#     4   9  18  32  48  67  95 133 178 229 283 335
#     4  10  21  38  59  81 109 148 192 236 283 334
#     4  12  23  33  50  77 108 143 186 233 281 334
#     4  10  21  38  59  81 109 148 192 236 283 334
#     4  10  21  38  61  89 120 151 184 224 272 328
#
# _framework density 18.586798999999999
#
# number of rings (size 3 to 8) (size 9 to 14) (size 15 to 20)
#    0.000    1.833    0.000    5.000    0.000    9.000 
#    0.000    3.333    0.000    0.000    0.000    0.000 
#    0.000    0.000    0.000    0.000    0.000    0.000 
#
# Total GULP energy -535970.430480 kJ/mol
# GULP energy per Si atom -5583.025318 kJ/mol
# Density = 1.854449 g / cm^3
# Si number density = 18.586799 Si / 1000 Ang^3
#
#
#
# Elastic Constant Matrix: (Units=GPa)
#
#
# Indices 1 2 3 4 5 6 
#
# 1 81.4665 62.8508 55.7815 0.0000 0.0000 0.0000
# 2 62.8508 81.4622 55.7773 0.0000 0.0000 0.0000
# 3 55.7815 55.7773 101.7752 0.0000 0.0000 0.0000
# 4 0.0000 0.0000 0.0000 29.1987 0.0000 0.0000
# 5 0.0000 0.0000 0.0000 0.0000 29.1982 0.0000
# 6 0.0000 0.0000 0.0000 0.0000 0.0000 39.4712
#
#
#
# Elastic Compliance Matrix: (Units=1/GPa)
#
#
# Indices 1 2 3 4 5 6 
#
# 1 0.032874 -0.020851 -0.006591 0.000000 0.000000 0.000000
# 2 -0.020851 0.032874 -0.006588 0.000000 0.000000 0.000000
# 3 -0.006591 -0.006588 0.017048 0.000000 0.000000 0.000000
# 4 0.000000 0.000000 0.000000 0.034248 0.000000 0.000000
# 5 0.000000 0.000000 0.000000 0.000000 0.034249 0.000000
# 6 0.000000 0.000000 0.000000 0.000000 0.000000 0.025335
#
#
# Mechanical properties :
#
#
# Convention : Reuss Voigt Hill
#
# Bulk Modulus (GPa) = 67.85698 68.16922 68.01310
# Shear Modulus (GPa) = 20.03216 25.59325 22.81271
#
# Velocity S-wave (km/s) = 3.28649 3.71476 3.50717
# Velocity P-wave (km/s) = 7.14064 7.42665 7.28505
#
# Compressibility (1/GPa) = 0.01473688
#
# Stress axis : x y z
#
# Youngs Moduli (GPa) = 30.41935 30.41960 58.65651
#
# Poissons Ratio (x) = 0.63427 0.38658
# Poissons Ratio (y) = 0.63426 0.38644
# Poissons Ratio (z) = 0.20048 0.20041
#
# Static dielectric constant tensor:
#      x y z
#    x 1.643400 0.000000 0.000000 
#    y 0.000000 1.643410 0.000000 
#    z 0.000000 0.000000 1.633560 
# 
# From -- ./inp_files/1482.got.cif
#   From: 2010.05.17/outbox.cif.g08.bks.cpg/sg128_1_cif.got.tgz:1482.got - 2010.05.20 12:07:25.
