data_PCOD9564423
_publ_section_title
;
Structure prediction by ZEFSAII (Michael W. Deem and Ramdas Pophale) SiO2 
 PCOD9564423
Probable space group: P 4/M B M
;
_chemical_formula_sum "Si O2"
_cell_formula_units_Z 88
_cell_length_a 12.126370
_cell_length_b 12.126370
_cell_length_c 29.779038
_cell_angle_alpha 90.000000
_cell_angle_beta 90.000000
_cell_angle_gamma 90.000000
_cell_volume 4378.973273
_symmetry_space_group_name_H-M "P 4/M B M"
_symmetry_group_IT_number 127
_symmetry_cell_setting 'tetragonal'
loop_
_space_group_symop_operation_xyz
x,y,z
-y,x,z
-x,-y,z
y,-x,z
1/2+x,1/2-y,-z
1/2-x,1/2+y,-z
1/2+y,1/2+x,-z
1/2-y,1/2-x,-z
-x,-y,-z
y,-x,-z
x,y,-z
-y,x,-z
1/2-x,1/2+y,z
1/2+x,1/2-y,z
1/2-y,1/2-x,z
1/2+y,1/2+x,z
loop_
_atom_site_type_symbol
_atom_site_label
_atom_site_fract_x
_atom_site_fract_y
_atom_site_fract_z
Si Si1 0.319620 0.529225 0.399077
Si Si2 0.970690 0.183937 0.049904
Si Si3 0.478685 0.682305 0.226152
Si Si4 0.908909 0.408909 0.553723
Si Si5 0.819029 0.505674 0.686083
Si Si6 0.003286 0.679952 0.861725
O O1 0.377856 0.411774 0.408051
O O2 0.209227 0.554642 0.426771
O O3 0.279983 0.524515 0.347311
O O4 0.878886 0.088181 0.052877
O O5 0.962924 0.264614 0.091586
O O6 0.962561 0.234612 0.000000
O O7 0.382113 0.593639 0.231866
O O8 0.472121 0.774457 0.264257
O O9 0.474968 0.732359 0.176456
O O10 0.903998 0.403998 0.500000
O O11 0.000000 0.500000 0.567069
O O12 0.905276 0.405276 0.686513
O O13 0.886792 0.613209 0.669780
O O14 0.103283 0.603283 0.845000
O O15 0.899286 0.600715 0.869363
#
# Coordination Sequence:
#
# PCOD9564423 Si02
#       6
#    16  16  16   8  16  16
#     4  11  25  44  70 103 139 181 231 283 338 403
#     4   9  19  37  60  84 109 141 185 236 290 353
#     4  11  24  40  59  86 119 157 204 255 308 370
#     4  11  26  46  72 103 139 183 231 284 345 405
#     4  11  23  39  64  96 132 170 215 263 321 385
#     4  11  24  39  55  80 115 151 192 241 298 360
#
# _framework density 20.096035000000001
#
# number of rings (size 3 to 8) (size 9 to 14) (size 15 to 20)
#    0.000    1.364    0.909    4.364    2.545   12.364 
#    0.000    3.636    0.000    0.000    0.000    0.000 
#    0.000    0.000    0.000    0.000    0.000    0.000 
#
# Total GULP energy -492102.590054 kJ/mol
# GULP energy per Si atom -5592.074887 kJ/mol
# Density = 2.005030 g / cm^3
# Si number density = 20.096035 Si / 1000 Ang^3
#
#
#
# Elastic Constant Matrix: (Units=GPa)
#
#
# Indices 1 2 3 4 5 6 
#
# 1 93.5502 38.4828 25.7804 0.0000 0.0000 0.0000
# 2 38.4828 93.5502 25.7804 0.0000 0.0000 0.0000
# 3 25.7804 25.7804 85.4037 0.0000 0.0000 0.0000
# 4 0.0000 0.0000 0.0000 106.0755 0.0000 0.0000
# 5 0.0000 0.0000 0.0000 0.0000 106.0755 0.0000
# 6 0.0000 0.0000 0.0000 0.0000 0.0000 4.0174
#
#
#
# Elastic Compliance Matrix: (Units=1/GPa)
#
#
# Indices 1 2 3 4 5 6 
#
# 1 0.013373 -0.004787 -0.002592 0.000000 0.000000 0.000000
# 2 -0.004787 0.013373 -0.002592 0.000000 0.000000 0.000000
# 3 -0.002592 -0.002592 0.013274 0.000000 0.000000 0.000000
# 4 0.000000 0.000000 0.000000 0.009427 0.000000 0.000000
# 5 0.000000 0.000000 0.000000 0.000000 0.009427 0.000000
# 6 0.000000 0.000000 0.000000 0.000000 0.000000 0.248918
#
#
# Mechanical properties :
#
#
# Convention : Reuss Voigt Hill
#
# Bulk Modulus (GPa) = 49.80426 50.28792 50.04609
# Shear Modulus (GPa) = 14.95103 55.39771 35.17437
#
# Velocity S-wave (km/s) = 2.73056 5.25608 4.18821
# Velocity P-wave (km/s) = 5.89730 7.86850 6.95311
#
# Compressibility (1/GPa) = 0.02007860
#
# Stress axis : x y z
#
# Youngs Moduli (GPa) = 74.77874 74.77874 75.33604
#
# Poissons Ratio (x) = 0.35795 0.19526
# Poissons Ratio (y) = 0.35795 0.19526
# Poissons Ratio (z) = 0.19381 0.19381
#
# Static dielectric constant tensor:
#      x y z
#    x 1.691990 0.000000 0.000000 
#    y 0.000000 1.691990 0.000000 
#    z 0.000000 0.000000 1.683580 
# 
# From -- ./inp_files/6520.got.cif
#   From: 2010.05.17/outbox.cif.g08.bks.cpg/sg127_4_cif.got.tgz:6520.got - 2010.05.20 12:03:00.
