data_PCOD9564911
_publ_section_title
;
Structure prediction by ZEFSAII (Michael W. Deem and Ramdas Pophale) SiO2 
 PCOD9564911
Probable space group: P 4/M N C
;
_chemical_formula_sum "Si O2"
_cell_formula_units_Z 80
_cell_length_a 10.352293
_cell_length_b 10.352293
_cell_length_c 28.585610
_cell_angle_alpha 90.000000
_cell_angle_beta 90.000000
_cell_angle_gamma 90.000000
_cell_volume 3063.518976
_symmetry_space_group_name_H-M "P 4/M N C"
_symmetry_group_IT_number 128
_symmetry_cell_setting 'tetragonal'
loop_
_space_group_symop_operation_xyz
x,y,z
-y,x,z
-x,-y,z
y,-x,z
1/2+x,1/2-y,1/2-z
1/2-x,1/2+y,1/2-z
1/2+y,1/2+x,1/2-z
1/2-y,1/2-x,1/2-z
-x,-y,-z
y,-x,-z
x,y,-z
-y,x,-z
1/2-x,1/2+y,1/2+z
1/2+x,1/2-y,1/2+z
1/2-y,1/2-x,1/2+z
1/2+y,1/2+x,1/2+z
loop_
_atom_site_type_symbol
_atom_site_label
_atom_site_fract_x
_atom_site_fract_y
_atom_site_fract_z
Si Si1 0.634819 0.080012 0.827430
Si Si2 0.532422 0.706597 0.392622
Si Si3 0.079054 0.193352 0.603501
Si Si4 0.855915 0.732905 0.500000
Si Si5 0.984033 0.783766 0.264806
Si Si6 0.720609 0.946280 0.000000
O O1 0.657099 0.963020 0.865343
O O2 0.632328 0.193812 0.865416
O O3 0.740599 0.039330 0.788749
O O4 0.526243 0.148982 0.793815
O O5 0.397681 0.638569 0.379258
O O6 0.535360 0.716187 0.448769
O O7 0.084634 0.221572 0.548415
O O8 0.932696 0.160944 0.614552
O O9 0.866581 0.576193 0.500000
O O10 0.709457 0.791267 0.500000
O O11 0.115376 0.864703 0.273695
#
# Coordination Sequence:
#
# PCOD9564911 Si02
#       6
#    16  16  16   8  16   8
#     4  11  21  36  64  95 121 152 211 273 318 366
#     4  11  20  34  60  92 127 166 211 261 317 387
#     4  11  24  45  69  91 123 176 231 265 300 378
#     4  12  24  40  66  96 136 170 222 262 324 372
#     4  10  22  41  65  91 121 161 211 265 323 395
#     4  12  20  37  63  96 132 168 205 269 316 380
#
# _framework density 26.113762000000001
#
# number of rings (size 3 to 8) (size 9 to 14) (size 15 to 20)
#    0.000    1.000    4.000    3.000    0.000    5.000 
#    0.000    2.000    0.000   44.400    0.000    0.000 
#    0.000    0.000    0.000    0.000    0.000    0.000 
#
# Total GULP energy -445900.876703 kJ/mol
# GULP energy per Si atom -5573.760959 kJ/mol
# Density = 2.605433 g / cm^3
# Si number density = 26.113762 Si / 1000 Ang^3
#
#
#
# Elastic Constant Matrix: (Units=GPa)
#
#
# Indices 1 2 3 4 5 6 
#
# 1 56.1304 52.3272 37.1693 0.0000 0.0000 0.0000
# 2 52.3272 56.1304 37.1693 0.0000 0.0000 0.0000
# 3 37.1693 37.1693 176.0479 0.0000 0.0000 0.0000
# 4 0.0000 0.0000 0.0000 -2.6116 0.0000 0.0000
# 5 0.0000 0.0000 0.0000 0.0000 -2.6116 0.0000
# 6 0.0000 0.0000 0.0000 0.0000 0.0000 49.4565
#
#
#
# Elastic Compliance Matrix: (Units=1/GPa)
#
#
# Indices 1 2 3 4 5 6 
#
# 1 0.136858 -0.126077 -0.002276 0.000000 0.000000 0.000000
# 2 -0.126077 0.136858 -0.002276 0.000000 0.000000 0.000000
# 3 -0.002276 -0.002276 0.006641 0.000000 0.000000 0.000000
# 4 0.000000 0.000000 0.000000 -0.382902 0.000000 0.000000
# 5 0.000000 0.000000 0.000000 0.000000 -0.382902 0.000000
# 6 0.000000 0.000000 0.000000 0.000000 0.000000 0.020220
#
#
# Mechanical properties :
#
#
# Convention : Reuss Voigt Hill
#
# Bulk Modulus (GPa) = 52.36253 60.18229 56.27241
# Shear Modulus (GPa) = -25.30331 19.62284 -2.84023
#
# Velocity S-wave (km/s) = -3.11620 2.74421 -1.04403
# Velocity P-wave (km/s) = 2.67351 5.75649 4.48803
#
# Compressibility (1/GPa) = 0.01909762
#
# Stress axis : x y z
#
# Youngs Moduli (GPa) = 7.30687 7.30687 150.57142
#
# Poissons Ratio (x) = 0.92123 0.34271
# Poissons Ratio (y) = 0.92123 0.34271
# Poissons Ratio (z) = 0.01663 0.01663
#
# Static dielectric constant tensor:
#      x y z
#    x 2.191210 0.000000 0.000000 
#    y 0.000000 2.191210 0.000000 
#    z 0.000000 0.000000 2.013720 
# 
# From -- ./inp_files/7218.got.cif
#   From: 2010.05.17/outbox.cif.g08.bks.cpg/sg128_4_cif.got.tgz:7218.got - 2010.05.20 12:07:25.
