data_PCOD9564325
_publ_section_title
;
Structure prediction by ZEFSAII (Michael W. Deem and Ramdas Pophale) SiO2 
 PCOD9564325
Probable space group: P 4/M B M
;
_chemical_formula_sum "Si O2"
_cell_formula_units_Z 58
_cell_length_a 12.332372
_cell_length_b 12.332372
_cell_length_c 19.683070
_cell_angle_alpha 90.000000
_cell_angle_beta 90.000000
_cell_angle_gamma 90.000000
_cell_volume 2993.546924
_symmetry_space_group_name_H-M "P 4/M B M"
_symmetry_group_IT_number 127
_symmetry_cell_setting 'tetragonal'
loop_
_space_group_symop_operation_xyz
x,y,z
-y,x,z
-x,-y,z
y,-x,z
1/2+x,1/2-y,-z
1/2-x,1/2+y,-z
1/2+y,1/2+x,-z
1/2-y,1/2-x,-z
-x,-y,-z
y,-x,-z
x,y,-z
-y,x,-z
1/2-x,1/2+y,z
1/2+x,1/2-y,z
1/2-y,1/2-x,z
1/2+y,1/2+x,z
loop_
_atom_site_type_symbol
_atom_site_label
_atom_site_fract_x
_atom_site_fract_y
_atom_site_fract_z
Si Si1 0.656794 0.843207 0.074737
Si Si2 0.327095 0.997386 0.700548
Si Si3 0.500000 0.000000 0.000000
Si Si4 0.444648 0.325840 0.178068
Si Si5 0.178769 0.960586 0.576079
O O1 0.567386 0.932615 0.057700
O O2 0.598498 0.749653 0.117614
O O3 0.696514 0.803487 0.000000
O O4 0.411288 0.088713 0.676446
O O5 0.245886 0.053784 0.753629
O O6 0.261447 0.950111 0.637269
O O7 0.400704 0.900704 0.732253
O O8 0.567840 0.369497 0.175757
O O9 0.225400 0.950061 0.500000
O O10 0.123819 0.079593 0.581688
#
# Coordination Sequence:
#
# PCOD9564325 Si02
#       5
#     8  16   2  16  16
#     4  10  24  45  70  98 129 176 202 260 321 379
#     4  11  24  38  59  89 125 167 215 264 323 387
#     4   8  24  44  68 104 132 166 216 248 308 388
#     4  11  25  43  67 100 131 166 218 266 313 380
#     4   9  19  37  59  84 118 161 210 266 325 383
#
# _framework density 19.375008999999999
#
# number of rings (size 3 to 8) (size 9 to 14) (size 15 to 20)
#    0.414    1.379    1.379    2.483    3.862    7.724 
#    2.483    5.517    0.000    0.000    0.000    0.000 
#    0.000    0.000    0.000    0.000    0.000    0.000 
#
# Total GULP energy -322958.418686 kJ/mol
# GULP energy per Si atom -5568.248598 kJ/mol
# Density = 1.933091 g / cm^3
# Si number density = 19.375009 Si / 1000 Ang^3
#
#
#
# Elastic Constant Matrix: (Units=GPa)
#
#
# Indices 1 2 3 4 5 6 
#
# 1 64.8721 26.5368 23.4076 0.0000 0.0000 0.0000
# 2 26.5368 64.8721 23.4076 0.0000 0.0000 0.0000
# 3 23.4076 23.4076 95.0527 0.0000 0.0000 0.0000
# 4 0.0000 0.0000 0.0000 64.9736 0.0000 0.0000
# 5 0.0000 0.0000 0.0000 0.0000 64.9767 0.0000
# 6 0.0000 0.0000 0.0000 0.0000 0.0000 17.0331
#
#
#
# Elastic Compliance Matrix: (Units=1/GPa)
#
#
# Indices 1 2 3 4 5 6 
#
# 1 0.019302 -0.006783 -0.003083 0.000000 0.000000 0.000000
# 2 -0.006783 0.019302 -0.003083 0.000000 0.000000 0.000000
# 3 -0.003083 -0.003083 0.012039 0.000000 0.000000 0.000000
# 4 0.000000 0.000000 0.000000 0.015391 0.000000 0.000000
# 5 0.000000 0.000000 0.000000 0.000000 0.015390 0.000000
# 6 0.000000 0.000000 0.000000 0.000000 0.000000 0.058709
#
#
# Mechanical properties :
#
#
# Convention : Reuss Voigt Hill
#
# Bulk Modulus (GPa) = 40.41236 41.27788 40.84512
# Shear Modulus (GPa) = 28.68948 39.49302 34.09125
#
# Velocity S-wave (km/s) = 3.85222 4.51971 4.19925
# Velocity P-wave (km/s) = 6.37883 6.97050 6.68122
#
# Compressibility (1/GPa) = 0.02474490
#
# Stress axis : x y z
#
# Youngs Moduli (GPa) = 51.80757 51.80760 83.06452
#
# Poissons Ratio (x) = 0.35143 0.25608
# Poissons Ratio (y) = 0.35143 0.25608
# Poissons Ratio (z) = 0.15972 0.15971
#
# Static dielectric constant tensor:
#      x y z
#    x 1.700170 0.000000 0.000000 
#    y 0.000000 1.700170 0.000000 
#    z 0.000000 0.000000 1.688110 
# 
# From -- ./inp_files/5528.got.cif
#   From: 2010.05.17/outbox.cif.g08.bks.cpg/sg127_3_cif.got.tgz:5528.got - 2010.05.20 12:03:00.
