data_PCOD9564543
_publ_section_title
;
Structure prediction by ZEFSAII (Michael W. Deem and Ramdas Pophale) SiO2 
 PCOD9564543
Probable space group: P 4/M N C
;
_chemical_formula_sum "Si O2"
_cell_formula_units_Z 120
_cell_length_a 27.039976
_cell_length_b 27.039976
_cell_length_c 9.738596
_cell_angle_alpha 90.000000
_cell_angle_beta 90.000000
_cell_angle_gamma 90.000000
_cell_volume 7120.474793
_symmetry_space_group_name_H-M "P 4/M N C"
_symmetry_group_IT_number 128
_symmetry_cell_setting 'tetragonal'
loop_
_space_group_symop_operation_xyz
x,y,z
-y,x,z
-x,-y,z
y,-x,z
1/2+x,1/2-y,1/2-z
1/2-x,1/2+y,1/2-z
1/2+y,1/2+x,1/2-z
1/2-y,1/2-x,1/2-z
-x,-y,-z
y,-x,-z
x,y,-z
-y,x,-z
1/2-x,1/2+y,1/2+z
1/2+x,1/2-y,1/2+z
1/2-y,1/2-x,1/2+z
1/2+y,1/2+x,1/2+z
loop_
_atom_site_type_symbol
_atom_site_label
_atom_site_fract_x
_atom_site_fract_y
_atom_site_fract_z
Si Si1 0.822736 0.609931 0.841659
Si Si2 0.921063 0.985926 0.166788
Si Si3 0.191919 0.238761 0.340746
Si Si4 0.175756 0.675756 0.750000
Si Si5 0.846820 0.213409 0.842415
Si Si6 0.191727 0.036697 0.836696
Si Si7 0.502332 0.217157 0.166064
Si Si8 0.921895 0.363161 0.348186
O O1 0.864361 0.635640 0.750000
O O2 0.774092 0.644505 0.835828
O O3 0.805832 0.555501 0.800419
O O4 0.839354 0.608615 0.000000
O O5 0.864569 0.975641 0.207457
O O6 0.961029 0.944064 0.209561
O O7 0.921122 0.985474 0.000000
O O8 0.232773 0.267228 0.250000
O O9 0.207225 0.233072 0.500000
O O10 0.184205 0.186642 0.266499
O O11 0.166355 0.728931 0.816500
O O12 0.130212 0.666325 0.647177
O O13 0.904718 0.202818 0.822201
O O14 0.834130 0.200652 0.000000
O O15 0.232494 0.008295 0.747139
O O16 0.196624 0.025066 0.000000
O O17 0.461562 0.176016 0.205086
O O18 0.499395 0.224785 0.000000
O O19 0.908900 0.408900 0.250000
O O20 0.936587 0.379141 0.500000
#
# Coordination Sequence:
#
# PCOD9564543 Si02
#       8
#    16  16  16   8  16  16  16  16
#     4   9  20  38  56  75 100 132 175 216 251 301
#     4   8  15  30  52  75 100 133 172 215 263 308
#     4  10  20  33  50  70  96 132 170 208 250 298
#     4  10  18  28  48  68 101 134 164 198 249 298
#     4  11  21  31  46  73 108 136 169 212 251 306
#     4  10  20  33  50  78 107 132 170 217 257 300
#     4  10  20  35  54  77 105 136 166 205 257 308
#     4   9  18  31  50  73  99 130 164 198 243 297
#
# _framework density 16.852808
#
# number of rings (size 3 to 8) (size 9 to 14) (size 15 to 20)
#    0.400    2.000    2.000    1.200    0.000    3.733 
#    0.000    1.333    0.000    1.200    0.000    3.733 
#    0.000    0.000    0.000    0.000    0.000    0.000 
#
# Total GULP energy -668126.950457 kJ/mol
# GULP energy per Si atom -5567.724587 kJ/mol
# Density = 1.681445 g / cm^3
# Si number density = 16.852808 Si / 1000 Ang^3
#
#
#
# Elastic Constant Matrix: (Units=GPa)
#
#
# Indices 1 2 3 4 5 6 
#
# 1 103.9260 76.7655 48.9368 0.0000 0.0000 0.0000
# 2 76.7655 103.9258 48.9372 0.0000 0.0000 0.0000
# 3 48.9368 48.9372 72.2307 0.0000 0.0000 0.0000
# 4 0.0000 0.0000 0.0000 16.9519 0.0000 0.0000
# 5 0.0000 0.0000 0.0000 0.0000 16.9509 0.0000
# 6 0.0000 0.0000 0.0000 0.0000 0.0000 15.8915
#
#
#
# Elastic Compliance Matrix: (Units=1/GPa)
#
#
# Indices 1 2 3 4 5 6 
#
# 1 0.022780 -0.014038 -0.005923 0.000000 0.000000 0.000000
# 2 -0.014038 0.022781 -0.005923 0.000000 0.000000 0.000000
# 3 -0.005923 -0.005923 0.021871 0.000000 0.000000 0.000000
# 4 0.000000 0.000000 0.000000 0.058991 0.000000 0.000000
# 5 0.000000 0.000000 0.000000 0.000000 0.058994 0.000000
# 6 0.000000 0.000000 0.000000 0.000000 0.000000 0.062927
#
#
# Mechanical properties :
#
#
# Convention : Reuss Voigt Hill
#
# Bulk Modulus (GPa) = 63.84467 69.92906 66.88686
# Shear Modulus (GPa) = 16.37558 16.98839 16.68198
#
# Velocity S-wave (km/s) = 3.12056 3.17842 3.14962
# Velocity P-wave (km/s) = 7.13792 7.41983 7.28024
#
# Compressibility (1/GPa) = 0.01566301
#
# Stress axis : x y z
#
# Youngs Moduli (GPa) = 43.89742 43.89687 45.72334
#
# Poissons Ratio (x) = 0.61622 0.27082
# Poissons Ratio (y) = 0.61622 0.27084
# Poissons Ratio (z) = 0.26001 0.26002
#
# Static dielectric constant tensor:
#      x y z
#    x 1.567570 0.000000 0.000000 
#    y 0.000000 1.567570 0.000000 
#    z 0.000000 0.000000 1.586680 
# 
# From -- ./inp_files/1804.got.cif
#   From: 2010.05.17/outbox.cif.g08.bks.cpg/sg128_1_cif.got.tgz:1804.got - 2010.05.20 12:07:25.
