data_PCOD9564679
_publ_section_title
;
Structure prediction by ZEFSAII (Michael W. Deem and Ramdas Pophale) SiO2 
 PCOD9564679
Probable space group: P 4/M N C
;
_chemical_formula_sum "Si O2"
_cell_formula_units_Z 104
_cell_length_a 18.368807
_cell_length_b 18.368807
_cell_length_c 16.566574
_cell_angle_alpha 90.000000
_cell_angle_beta 90.000000
_cell_angle_gamma 90.000000
_cell_volume 5589.778603
_symmetry_space_group_name_H-M "P 4/M N C"
_symmetry_group_IT_number 128
_symmetry_cell_setting 'tetragonal'
loop_
_space_group_symop_operation_xyz
x,y,z
-y,x,z
-x,-y,z
y,-x,z
1/2+x,1/2-y,1/2-z
1/2-x,1/2+y,1/2-z
1/2+y,1/2+x,1/2-z
1/2-y,1/2-x,1/2-z
-x,-y,-z
y,-x,-z
x,y,-z
-y,x,-z
1/2-x,1/2+y,1/2+z
1/2+x,1/2-y,1/2+z
1/2-y,1/2-x,1/2+z
1/2+y,1/2+x,1/2+z
loop_
_atom_site_type_symbol
_atom_site_label
_atom_site_fract_x
_atom_site_fract_y
_atom_site_fract_z
Si Si1 0.759095 0.736499 0.157545
Si Si2 0.884237 0.841374 0.906552
Si Si3 0.193851 0.197565 0.500000
Si Si4 0.122709 0.994485 0.336405
Si Si5 0.306171 0.530072 0.327839
Si Si6 0.660332 0.874647 0.166929
Si Si7 0.661681 0.887897 0.500000
Si Si8 0.695054 0.467930 0.000000
O O1 0.781949 0.718051 0.250000
O O2 0.824459 0.783011 0.120331
O O3 0.736761 0.680209 0.086075
O O4 0.689273 0.790392 0.167530
O O5 0.868657 0.912812 0.853438
O O6 0.963359 0.809852 0.889092
O O7 0.874455 0.859722 0.000000
O O8 0.282369 0.182151 0.500000
O O9 0.164617 0.115456 0.500000
O O10 0.176345 0.999041 0.260483
O O11 0.166549 0.994997 0.419580
O O12 0.072788 0.067221 0.333068
O O13 0.230724 0.573693 0.331654
O O14 0.616612 0.883388 0.250000
O O15 0.617925 0.882265 0.082879
O O16 0.718181 0.954828 0.500000
#
# Coordination Sequence:
#
# PCOD9564679 Si02
#       8
#    16  16   8  16  16  16   8   8
#     4   9  17  30  49  70  96 121 156 207 258 297
#     4  11  22  34  49  71 100 138 173 207 238 285
#     4   8  16  28  46  71  85 110 152 208 254 313
#     4  11  22  37  46  63  94 136 182 213 232 273
#     4  11  22  33  50  67  98 138 172 205 240 284
#     4   9  17  29  47  69  91 117 156 206 253 295
#     4   8  16  28  46  69  85 102 150 206 254 311
#     4  10  20  31  52  66  82 118 165 220 266 298
#
# _framework density 18.605388000000001
#
# number of rings (size 3 to 8) (size 9 to 14) (size 15 to 20)
#    0.462    1.692    2.308    1.846    8.615    0.923 
#    0.000    0.769    0.000    0.000    0.000    0.000 
#    0.000    0.615    0.000    1.385    0.000    0.615 
#
# Total GULP energy -579485.103797 kJ/mol
# GULP energy per Si atom -5571.972152 kJ/mol
# Density = 1.856304 g / cm^3
# Si number density = 18.605388 Si / 1000 Ang^3
#
#
#
# Elastic Constant Matrix: (Units=GPa)
#
#
# Indices 1 2 3 4 5 6 
#
# 1 7.9730 9.1121 1.0755 0.0000 0.0000 0.0000
# 2 9.1121 7.9723 1.0756 0.0000 0.0000 0.0000
# 3 1.0755 1.0756 144.9533 0.0000 0.0000 0.0000
# 4 0.0000 0.0000 0.0000 18.7944 0.0000 0.0000
# 5 0.0000 0.0000 0.0000 0.0000 18.7945 0.0000
# 6 0.0000 0.0000 0.0000 0.0000 0.0000 10.5846
#
#
#
# Elastic Compliance Matrix: (Units=1/GPa)
#
#
# Indices 1 2 3 4 5 6 
#
# 1 -0.409484 0.468087 -0.000435 0.000000 0.000000 0.000000
# 2 0.468087 -0.409517 -0.000434 0.000000 0.000000 0.000000
# 3 -0.000435 -0.000434 0.006905 0.000000 0.000000 0.000000
# 4 0.000000 0.000000 0.000000 0.053207 0.000000 0.000000
# 5 0.000000 0.000000 0.000000 0.000000 0.053207 0.000000
# 6 0.000000 0.000000 0.000000 0.000000 0.000000 0.094477
#
#
# Mechanical properties :
#
#
# Convention : Reuss Voigt Hill
#
# Bulk Modulus (GPa) = 8.17400 20.38055 14.27727
# Shear Modulus (GPa) = -3.32257 19.61042 8.14392
#
# Velocity S-wave (km/s) = -1.33779 3.25009 2.09444
# Velocity P-wave (km/s) = 1.42008 5.00619 3.67958
#
# Compressibility (1/GPa) = 0.12233910
#
# Stress axis : x y z
#
# Youngs Moduli (GPa) = -2.44210 -2.44190 144.81791
#
# Poissons Ratio (x) = 1.14302 0.06301
# Poissons Ratio (y) = 1.14311 0.06289
# Poissons Ratio (z) = -0.00106 -0.00106
#
# Static dielectric constant tensor:
#      x y z
#    x 1.634000 0.000000 0.000000 
#    y 0.000000 1.634000 0.000000 
#    z 0.000000 0.000000 1.704000 
# 
# From -- ./inp_files/4087.got.cif
#   From: 2010.05.17/outbox.cif.g08.bks.cpg/sg128_3_cif.got.tgz:4087.got - 2010.05.20 12:07:25.
