data_PCOD9564782
_publ_section_title
;
Structure prediction by ZEFSAII (Michael W. Deem and Ramdas Pophale) SiO2 
 PCOD9564782
Probable space group: P 4/M N C
;
_chemical_formula_sum "Si O2"
_cell_formula_units_Z 72
_cell_length_a 12.305235
_cell_length_b 12.305235
_cell_length_c 24.621427
_cell_angle_alpha 90.000000
_cell_angle_beta 90.000000
_cell_angle_gamma 90.000000
_cell_volume 3728.147138
_symmetry_space_group_name_H-M "P 4/M N C"
_symmetry_group_IT_number 128
_symmetry_cell_setting 'tetragonal'
loop_
_space_group_symop_operation_xyz
x,y,z
-y,x,z
-x,-y,z
y,-x,z
1/2+x,1/2-y,1/2-z
1/2-x,1/2+y,1/2-z
1/2+y,1/2+x,1/2-z
1/2-y,1/2-x,1/2-z
-x,-y,-z
y,-x,-z
x,y,-z
-y,x,-z
1/2-x,1/2+y,1/2+z
1/2+x,1/2-y,1/2+z
1/2-y,1/2-x,1/2+z
1/2+y,1/2+x,1/2+z
loop_
_atom_site_type_symbol
_atom_site_label
_atom_site_fract_x
_atom_site_fract_y
_atom_site_fract_z
Si Si1 0.406174 0.345744 0.227624
Si Si2 0.197815 0.639209 0.326807
Si Si3 0.500000 0.000000 0.649242
Si Si4 0.724364 0.811232 0.560741
Si Si5 0.675277 0.058332 0.561173
O O1 0.535348 0.355803 0.219247
O O2 0.387076 0.298317 0.288162
O O3 0.349267 0.257258 0.189428
O O4 0.223293 0.645084 0.390619
O O5 0.097522 0.556283 0.318177
O O6 0.412291 0.945868 0.608844
O O7 0.683560 0.785468 0.500000
O O8 0.840358 0.754640 0.567634
O O9 0.734287 0.941743 0.564012
O O10 0.626721 0.065872 0.500000
#
# Coordination Sequence:
#
# PCOD9564782 Si02
#       5
#    16  16   8  16  16
#     4  10  24  42  60  85 115 154 198 246 295 337
#     4  10  23  38  63  86 116 155 190 247 284 359
#     4  10  21  33  54  88 108 152 189 233 290 346
#     4   9  19  34  55  88 119 153 192 236 292 348
#     4   9  18  33  52  80 119 153 191 234 284 344
#
# _framework density 19.312541
#
# number of rings (size 3 to 8) (size 9 to 14) (size 15 to 20)
#    0.000    2.444    0.000    0.333    9.333    4.889 
#    0.000    2.222    0.000    0.000    0.000    1.556 
#    0.000    0.000    0.000    0.000    0.000    0.000 
#
# Total GULP energy -401759.181783 kJ/mol
# GULP energy per Si atom -5579.988636 kJ/mol
# Density = 1.926858 g / cm^3
# Si number density = 19.312541 Si / 1000 Ang^3
#
#
#
# Elastic Constant Matrix: (Units=GPa)
#
#
# Indices 1 2 3 4 5 6 
#
# 1 48.2166 29.2829 0.7888 0.0000 0.0000 0.0000
# 2 29.2829 48.2166 0.7888 0.0000 0.0000 0.0000
# 3 0.7888 0.7888 66.3427 0.0000 0.0000 0.0000
# 4 0.0000 0.0000 0.0000 17.7465 0.0000 0.0000
# 5 0.0000 0.0000 0.0000 0.0000 17.7465 0.0000
# 6 0.0000 0.0000 0.0000 0.0000 0.0000 24.1369
#
#
#
# Elastic Compliance Matrix: (Units=1/GPa)
#
#
# Indices 1 2 3 4 5 6 
#
# 1 0.032861 -0.019955 -0.000153 0.000000 0.000000 0.000000
# 2 -0.019955 0.032861 -0.000153 0.000000 0.000000 0.000000
# 3 -0.000153 -0.000153 0.015077 0.000000 0.000000 0.000000
# 4 0.000000 0.000000 0.000000 0.056349 0.000000 0.000000
# 5 0.000000 0.000000 0.000000 0.000000 0.056349 0.000000
# 6 0.000000 0.000000 0.000000 0.000000 0.000000 0.041430
#
#
# Mechanical properties :
#
#
# Convention : Reuss Voigt Hill
#
# Bulk Modulus (GPa) = 24.82870 24.94409 24.88639
# Shear Modulus (GPa) = 17.30847 20.72037 19.01442
#
# Velocity S-wave (km/s) = 2.99696 3.27906 3.14118
# Velocity P-wave (km/s) = 4.98596 5.22306 5.10589
#
# Compressibility (1/GPa) = 0.04027597
#
# Stress axis : x y z
#
# Youngs Moduli (GPa) = 30.43111 30.43111 66.32663
#
# Poissons Ratio (x) = 0.60724 0.01018
# Poissons Ratio (y) = 0.60724 0.01018
# Poissons Ratio (z) = 0.00467 0.00467
#
# Static dielectric constant tensor:
#      x y z
#    x 1.649920 0.000000 0.000000 
#    y 0.000000 1.649920 0.000000 
#    z 0.000000 0.000000 1.740230 
# 
# From -- ./inp_files/6752.got.cif
#   From: 2010.05.17/outbox.cif.g08.bks.cpg/sg128_4_cif.got.tgz:6752.got - 2010.05.20 12:07:25.
