data_PCOD9564950
_publ_section_title
;
Structure prediction by ZEFSAII (Michael W. Deem and Ramdas Pophale) SiO2 
 PCOD9564950
Probable space group: P 4/M N C
;
_chemical_formula_sum "Si O2"
_cell_formula_units_Z 72
_cell_length_a 16.620821
_cell_length_b 16.620821
_cell_length_c 13.325205
_cell_angle_alpha 90.000000
_cell_angle_beta 90.000000
_cell_angle_gamma 90.000000
_cell_volume 3681.110410
_symmetry_space_group_name_H-M "P 4/M N C"
_symmetry_group_IT_number 128
_symmetry_cell_setting 'tetragonal'
loop_
_space_group_symop_operation_xyz
x,y,z
-y,x,z
-x,-y,z
y,-x,z
1/2+x,1/2-y,1/2-z
1/2-x,1/2+y,1/2-z
1/2+y,1/2+x,1/2-z
1/2-y,1/2-x,1/2-z
-x,-y,-z
y,-x,-z
x,y,-z
-y,x,-z
1/2-x,1/2+y,1/2+z
1/2+x,1/2-y,1/2+z
1/2-y,1/2-x,1/2+z
1/2+y,1/2+x,1/2+z
loop_
_atom_site_type_symbol
_atom_site_label
_atom_site_fract_x
_atom_site_fract_y
_atom_site_fract_z
Si Si1 0.061836 0.374311 0.500000
Si Si2 0.633174 0.288675 0.617057
Si Si3 0.017647 0.131669 0.000000
Si Si4 0.393811 0.221537 0.692205
Si Si5 0.062072 0.324359 0.280841
Si Si6 0.445040 0.119125 0.500000
O O1 0.077096 0.323639 0.399614
O O2 0.112427 0.457704 0.500000
O O3 0.969529 0.406093 0.500000
O O4 0.657796 0.266317 0.500000
O O5 0.541016 0.317619 0.596575
O O6 0.692652 0.358053 0.656633
O O7 0.619848 0.224408 0.704428
O O8 0.935466 0.087201 0.000000
O O9 0.320583 0.179418 0.750000
O O10 0.472781 0.209212 0.761212
O O11 0.415852 0.168521 0.595505
O O12 0.082272 0.417729 0.250000
#
# Coordination Sequence:
#
# PCOD9564950 Si02
#       6
#     8  16   8  16  16   8
#     4  11  24  39  63  94 132 169 218 265 319 390
#     4  10  24  39  62  93 129 171 209 267 336 389
#     4   9  17  35  65  95 119 158 218 273 314 368
#     4  12  23  41  64  92 132 169 216 268 329 396
#     4  12  25  40  62  95 128 174 215 268 327 390
#     4  11  21  40  62  91 127 171 218 271 311 380
#
# _framework density 19.559315000000002
#
# number of rings (size 3 to 8) (size 9 to 14) (size 15 to 20)
#    0.667    0.333    5.556    2.000    3.111    0.444 
#    0.000    1.111    0.000    0.000    0.000    0.000 
#    0.000    5.333    0.000    0.000    0.000    0.000 
#
# Total GULP energy -401125.540865 kJ/mol
# GULP energy per Si atom -5571.188068 kJ/mol
# Density = 1.951480 g / cm^3
# Si number density = 19.559315 Si / 1000 Ang^3
#
#
#
# Elastic Constant Matrix: (Units=GPa)
#
#
# Indices 1 2 3 4 5 6 
#
# 1 77.7137 25.8611 38.5802 0.0000 0.0000 0.0000
# 2 25.8611 77.7106 38.5800 0.0000 0.0000 0.0000
# 3 38.5802 38.5800 166.2856 0.0000 0.0000 0.0000
# 4 0.0000 0.0000 0.0000 33.4197 0.0000 0.0000
# 5 0.0000 0.0000 0.0000 0.0000 33.4208 0.0000
# 6 0.0000 0.0000 0.0000 0.0000 0.0000 38.9274
#
#
#
# Elastic Compliance Matrix: (Units=1/GPa)
#
#
# Indices 1 2 3 4 5 6 
#
# 1 0.015479 -0.003807 -0.002708 0.000000 0.000000 0.000000
# 2 -0.003807 0.015480 -0.002708 0.000000 0.000000 0.000000
# 3 -0.002708 -0.002708 0.007270 0.000000 0.000000 0.000000
# 4 0.000000 0.000000 0.000000 0.029922 0.000000 0.000000
# 5 0.000000 0.000000 0.000000 0.000000 0.029922 0.000000
# 6 0.000000 0.000000 0.000000 0.000000 0.000000 0.025689
#
#
# Mechanical properties :
#
#
# Convention : Reuss Voigt Hill
#
# Bulk Modulus (GPa) = 50.54887 58.63916 54.59402
# Shear Modulus (GPa) = 33.60168 35.73283 34.66726
#
# Velocity S-wave (km/s) = 4.14930 4.27886 4.21458
# Velocity P-wave (km/s) = 6.98967 7.37948 7.18722
#
# Compressibility (1/GPa) = 0.01978284
#
# Stress axis : x y z
#
# Youngs Moduli (GPa) = 64.60397 64.60110 137.54415
#
# Poissons Ratio (x) = 0.24592 0.37248
# Poissons Ratio (y) = 0.24593 0.37250
# Poissons Ratio (z) = 0.17495 0.17495
#
# Static dielectric constant tensor:
#      x y z
#    x 1.723200 0.000000 0.000000 
#    y 0.000000 1.723200 0.000000 
#    z 0.000000 0.000000 1.749320 
# 
# From -- ./inp_files/2673.got.cif
#   From: 2010.05.17/outbox.cif.g08.bks.cpg/sg128_2_cif.got.tgz:2673.got - 2010.05.20 12:07:25.
