data_PCOD9564657
_publ_section_title
;
Structure prediction by ZEFSAII (Michael W. Deem and Ramdas Pophale) SiO2 
 PCOD9564657
Probable space group: P 4/M N C
;
_chemical_formula_sum "Si O2"
_cell_formula_units_Z 104
_cell_length_a 17.838325
_cell_length_b 17.838325
_cell_length_c 17.698559
_cell_angle_alpha 90.000000
_cell_angle_beta 90.000000
_cell_angle_gamma 90.000000
_cell_volume 5631.784812
_symmetry_space_group_name_H-M "P 4/M N C"
_symmetry_group_IT_number 128
_symmetry_cell_setting 'tetragonal'
loop_
_space_group_symop_operation_xyz
x,y,z
-y,x,z
-x,-y,z
y,-x,z
1/2+x,1/2-y,1/2-z
1/2-x,1/2+y,1/2-z
1/2+y,1/2+x,1/2-z
1/2-y,1/2-x,1/2-z
-x,-y,-z
y,-x,-z
x,y,-z
-y,x,-z
1/2-x,1/2+y,1/2+z
1/2+x,1/2-y,1/2+z
1/2-y,1/2-x,1/2+z
1/2+y,1/2+x,1/2+z
loop_
_atom_site_type_symbol
_atom_site_label
_atom_site_fract_x
_atom_site_fract_y
_atom_site_fract_z
Si Si1 0.043775 0.119631 0.832159
Si Si2 0.077923 0.357118 0.674064
Si Si3 0.688819 0.575806 0.830581
Si Si4 0.091160 0.497418 0.584258
Si Si5 0.413642 0.300361 0.909117
Si Si6 0.119800 0.956791 0.000000
Si Si7 0.896428 0.353960 0.329756
O O1 0.062050 0.167188 0.757355
O O2 0.055998 0.154831 0.916352
O O3 0.957011 0.092666 0.828077
O O4 0.106804 0.393197 0.750000
O O5 0.105256 0.273290 0.664787
O O6 0.106755 0.413496 0.610296
O O7 0.987179 0.355441 0.679380
O O8 0.688911 0.497331 0.875893
O O9 0.634360 0.633996 0.871085
O O10 0.116580 0.510837 0.500000
O O11 0.121711 0.565412 0.633862
O O12 0.000000 0.500000 0.586946
O O13 0.383463 0.219227 0.880664
O O14 0.413668 0.303519 0.000000
O O15 0.043206 0.907995 0.000000
O O16 0.853996 0.353996 0.250000
#
# Coordination Sequence:
#
# PCOD9564657 Si02
#       7
#    16  16  16  16  16   8  16
#     4   9  15  29  52  80 110 147 200 241 287 334
#     4  10  20  34  57  85 113 146 186 235 293 360
#     4  11  22  36  57  82 122 164 204 241 282 346
#     4   9  17  30  55  86 112 139 182 243 298 347
#     4  11  24  39  56  87 122 161 204 244 286 338
#     4   7  12  22  46  80 104 132 185 251 287 323
#     4  10  19  35  63  87 110 142 194 242 296 359
#
# _framework density 18.466615000000001
#
# number of rings (size 3 to 8) (size 9 to 14) (size 15 to 20)
#    0.000    2.231    3.077    1.846    0.000    5.231 
#    0.000    0.769    1.692    0.000    4.000    0.000 
#    0.000    0.000    0.000    0.000    0.000    0.000 
#
# Total GULP energy -579435.962323 kJ/mol
# GULP energy per Si atom -5571.499638 kJ/mol
# Density = 1.842458 g / cm^3
# Si number density = 18.466615 Si / 1000 Ang^3
#
#
#
# Elastic Constant Matrix: (Units=GPa)
#
#
# Indices 1 2 3 4 5 6 
#
# 1 220.9126 -167.4384 32.9860 0.0000 0.0000 0.0000
# 2 -167.4384 220.9052 32.9445 0.0000 0.0000 0.0000
# 3 32.9860 32.9445 167.5938 0.0000 0.0000 0.0000
# 4 0.0000 0.0000 0.0000 10.7536 0.0000 0.0000
# 5 0.0000 0.0000 0.0000 0.0000 10.7535 0.0000
# 6 0.0000 0.0000 0.0000 0.0000 0.0000 13.5993
#
#
#
# Elastic Compliance Matrix: (Units=1/GPa)
#
#
# Indices 1 2 3 4 5 6 
#
# 1 0.013633 0.011058 -0.004857 0.000000 0.000000 0.000000
# 2 0.011058 0.013632 -0.004856 0.000000 0.000000 0.000000
# 3 -0.004857 -0.004856 0.007877 0.000000 0.000000 0.000000
# 4 0.000000 0.000000 0.000000 0.092992 0.000000 0.000000
# 5 0.000000 0.000000 0.000000 0.000000 0.092993 0.000000
# 6 0.000000 0.000000 0.000000 0.000000 0.000000 0.073533
#
#
# Mechanical properties :
#
#
# Convention : Reuss Voigt Hill
#
# Bulk Modulus (GPa) = 26.43296 45.15508 35.79402
# Shear Modulus (GPa) = 16.41592 54.41591 35.41591
#
# Velocity S-wave (km/s) = 2.98476 5.43426 4.38406
# Velocity P-wave (km/s) = 5.12088 7.99251 6.71207
#
# Compressibility (1/GPa) = 0.03783155
#
# Stress axis : x y z
#
# Youngs Moduli (GPa) = 73.35242 73.35546 126.94679
#
# Poissons Ratio (x) = -0.81113 0.61656
# Poissons Ratio (y) = -0.81110 0.61647
# Poissons Ratio (z) = 0.35626 0.35622
#
# Static dielectric constant tensor:
#      x y z
#    x 1.640740 0.000000 0.000000 
#    y 0.000000 1.640720 0.000000 
#    z 0.000000 0.000000 1.683260 
# 
# From -- ./inp_files/4886.got.cif
#   From: 2010.05.17/outbox.cif.g08.bks.cpg/sg128_3_cif.got.tgz:4886.got - 2010.05.20 12:07:25.
