data_PCOD9564183
_publ_section_title
;
Structure prediction by ZEFSAII (Michael W. Deem and Ramdas Pophale) SiO2 
 PCOD9564183
Probable space group: P 4/M B M
;
_chemical_formula_sum "Si O2"
_cell_formula_units_Z 64
_cell_length_a 19.679712
_cell_length_b 19.679712
_cell_length_c 7.954554
_cell_angle_alpha 90.000000
_cell_angle_beta 90.000000
_cell_angle_gamma 90.000000
_cell_volume 3080.727686
_symmetry_space_group_name_H-M "P 4/M B M"
_symmetry_group_IT_number 127
_symmetry_cell_setting 'tetragonal'
loop_
_space_group_symop_operation_xyz
x,y,z
-y,x,z
-x,-y,z
y,-x,z
1/2+x,1/2-y,-z
1/2-x,1/2+y,-z
1/2+y,1/2+x,-z
1/2-y,1/2-x,-z
-x,-y,-z
y,-x,-z
x,y,-z
-y,x,-z
1/2-x,1/2+y,z
1/2+x,1/2-y,z
1/2-y,1/2-x,z
1/2+y,1/2+x,z
loop_
_atom_site_type_symbol
_atom_site_label
_atom_site_fract_x
_atom_site_fract_y
_atom_site_fract_z
Si Si1 0.012636 0.890633 0.295825
Si Si2 0.236301 0.488668 0.696205
Si Si3 0.219971 0.835569 0.680760
Si Si4 0.166394 0.778716 0.000000
Si Si5 0.052643 0.663326 0.000000
O O1 0.011923 0.890099 0.500000
O O2 0.072467 0.942078 0.242944
O O3 0.013939 0.811596 0.246936
O O4 0.224511 0.509135 0.500000
O O5 0.243038 0.407224 0.699744
O O6 0.179757 0.512018 0.828922
O O7 0.183523 0.836065 0.500000
O O8 0.276034 0.776034 0.676412
O O9 0.169438 0.822022 0.831988
O O10 0.110047 0.721706 0.000000
O O11 0.237302 0.737302 0.000000
O O12 0.091485 0.591485 0.000000
#
# Coordination Sequence:
#
# PCOD9564183 Si02
#       5
#    16  16  16   8   8
#     4   8  15  29  49  76 111 147 183 222 263 317
#     4  10  21  36  58  82 108 149 188 230 282 331
#     4   9  18  34  58  86 111 140 185 235 284 335
#     4   9  19  34  52  76 111 147 176 223 277 324
#     4  11  25  40  53  78 114 148 190 234 274 333
#
# _framework density 20.774312999999999
#
# number of rings (size 3 to 8) (size 9 to 14) (size 15 to 20)
#    0.000    2.750    0.000    1.500    3.500    1.500 
#    0.000    2.500    0.000    3.000    0.000    3.500 
#    0.000    0.000    0.000    0.000    0.000    0.000 
#
# Total GULP energy -357161.929903 kJ/mol
# GULP energy per Si atom -5580.655155 kJ/mol
# Density = 2.072703 g / cm^3
# Si number density = 20.774313 Si / 1000 Ang^3
#
#
#
# Elastic Constant Matrix: (Units=GPa)
#
#
# Indices 1 2 3 4 5 6 
#
# 1 34.1432 -10.7236 11.6749 0.0000 0.0000 0.0000
# 2 -10.7236 34.1432 11.6749 0.0000 0.0000 0.0000
# 3 11.6749 11.6749 96.9696 0.0000 0.0000 0.0000
# 4 0.0000 0.0000 0.0000 -54.2777 0.0000 0.0000
# 5 0.0000 0.0000 0.0000 0.0000 -54.2777 0.0000
# 6 0.0000 0.0000 0.0000 0.0000 0.0000 32.0676
#
#
#
# Elastic Compliance Matrix: (Units=1/GPa)
#
#
# Indices 1 2 3 4 5 6 
#
# 1 0.035406 0.013118 -0.005842 0.000000 0.000000 0.000000
# 2 0.013118 0.035406 -0.005842 0.000000 0.000000 0.000000
# 3 -0.005842 -0.005842 0.011719 0.000000 0.000000 0.000000
# 4 0.000000 0.000000 0.000000 -0.018424 0.000000 0.000000
# 5 0.000000 0.000000 0.000000 0.000000 -0.018424 0.000000
# 6 0.000000 0.000000 0.000000 0.000000 0.000000 0.031184
#
#
# Mechanical properties :
#
#
# Convention : Reuss Voigt Hill
#
# Bulk Modulus (GPa) = 11.70976 21.16760 16.43868
# Shear Modulus (GPa) = 48.79607 -5.12223 21.83692
#
# Velocity S-wave (km/s) = 4.85177 -1.57194 3.24566
# Velocity P-wave (km/s) = 6.08565 2.62997 4.68785
#
# Compressibility (1/GPa) = 0.08539885
#
# Stress axis : x y z
#
# Youngs Moduli (GPa) = 28.24366 28.24366 85.32946
#
# Poissons Ratio (x) = -0.37050 0.49851
# Poissons Ratio (y) = -0.37050 0.49851
# Poissons Ratio (z) = 0.16501 0.16501
#
# Static dielectric constant tensor:
#      x y z
#    x 1.746630 0.000000 0.000000 
#    y 0.000000 1.746630 0.000000 
#    z 0.000000 0.000000 1.784530 
# 
# From -- ./inp_files/1446.got.cif
#   From: 2010.05.17/outbox.cif.g08.bks.cpg/sg127_1_cif.got.tgz:1446.got - 2010.05.20 12:03:00.
