data_PCOD9564884
_publ_section_title
;
Structure prediction by ZEFSAII (Michael W. Deem and Ramdas Pophale) SiO2 
 PCOD9564884
Probable space group: P 4/M N C
;
_chemical_formula_sum "Si O2"
_cell_formula_units_Z 104
_cell_length_a 17.883032
_cell_length_b 17.883032
_cell_length_c 14.839271
_cell_angle_alpha 90.000000
_cell_angle_beta 90.000000
_cell_angle_gamma 90.000000
_cell_volume 4745.640913
_symmetry_space_group_name_H-M "P 4/M N C"
_symmetry_group_IT_number 128
_symmetry_cell_setting 'tetragonal'
loop_
_space_group_symop_operation_xyz
x,y,z
-y,x,z
-x,-y,z
y,-x,z
1/2+x,1/2-y,1/2-z
1/2-x,1/2+y,1/2-z
1/2+y,1/2+x,1/2-z
1/2-y,1/2-x,1/2-z
-x,-y,-z
y,-x,-z
x,y,-z
-y,x,-z
1/2-x,1/2+y,1/2+z
1/2+x,1/2-y,1/2+z
1/2-y,1/2-x,1/2+z
1/2+y,1/2+x,1/2+z
loop_
_atom_site_type_symbol
_atom_site_label
_atom_site_fract_x
_atom_site_fract_y
_atom_site_fract_z
Si Si1 0.120224 0.415700 0.896265
Si Si2 0.085436 0.793285 0.355643
Si Si3 0.120225 0.584301 0.896264
Si Si4 0.416893 0.758209 0.651366
Si Si5 0.083107 0.741792 0.151366
Si Si6 0.414564 0.706716 0.855643
Si Si7 0.807594 0.192405 0.000000
O O1 0.103743 0.500000 0.865244
O O2 0.087137 0.347710 0.840158
O O3 0.210514 0.406850 0.896203
O O4 0.094379 0.408845 0.000000
O O5 0.093151 0.710514 0.396203
O O6 0.094386 0.779510 0.248341
O O7 0.147818 0.852183 0.386115
O O8 0.000000 0.818892 0.372790
O O9 0.087137 0.652291 0.840158
O O10 0.094380 0.591156 0.000000
O O11 0.500000 0.736592 0.619928
O O12 0.405614 0.720491 0.748341
O O13 0.356163 0.735137 0.578869
O O14 0.143837 0.764864 0.078869
#
# Coordination Sequence:
#
# PCOD9564884 Si02
#       7
#    16  16  16  16  16  16   8
#     4  10  22  38  58  87 118 150 191 240 291 343
#     4  10  22  39  59  84 116 153 195 240 291 345
#     4  10  22  38  58  87 118 150 191 240 291 343
#     4  11  23  39  60  87 118 154 194 236 288 348
#     4  11  23  39  60  87 118 154 194 236 288 348
#     4  10  22  39  59  84 116 153 195 240 291 345
#     4  12  22  36  60  91 114 152 193 242 274 336
#
# _framework density 21.914847999999999
#
# number of rings (size 3 to 8) (size 9 to 14) (size 15 to 20)
#    0.000    1.538    3.077    1.385    2.154    2.769 
#    0.000    1.538    0.000    9.231    0.000    4.308 
#    0.000    0.000    0.000    0.000    0.000    0.000 
#
# Total GULP energy -579558.983321 kJ/mol
# GULP energy per Si atom -5572.682532 kJ/mol
# Density = 2.186497 g / cm^3
# Si number density = 21.914848 Si / 1000 Ang^3
#
#
#
# Elastic Constant Matrix: (Units=GPa)
#
#
# Indices 1 2 3 4 5 6 
#
# 1 64.1817 57.0803 2.2259 0.0000 0.0000 0.0000
# 2 57.0803 64.1817 2.2259 0.0000 0.0000 0.0000
# 3 2.2259 2.2259 63.8386 0.0000 0.0000 0.0000
# 4 0.0000 0.0000 0.0000 16.1972 0.0000 0.0000
# 5 0.0000 0.0000 0.0000 0.0000 16.1972 0.0000
# 6 0.0000 0.0000 0.0000 0.0000 0.0000 13.0683
#
#
#
# Elastic Compliance Matrix: (Units=1/GPa)
#
#
# Indices 1 2 3 4 5 6 
#
# 1 0.074536 -0.066279 -0.000288 0.000000 0.000000 0.000000
# 2 -0.066279 0.074536 -0.000288 0.000000 0.000000 0.000000
# 3 -0.000288 -0.000288 0.015685 0.000000 0.000000 0.000000
# 4 0.000000 0.000000 0.000000 0.061739 0.000000 0.000000
# 5 0.000000 0.000000 0.000000 0.000000 0.061739 0.000000
# 6 0.000000 0.000000 0.000000 0.000000 0.000000 0.076521
#
#
# Mechanical properties :
#
#
# Convention : Reuss Voigt Hill
#
# Bulk Modulus (GPa) = 32.20889 35.02956 33.61922
# Shear Modulus (GPa) = 9.82675 17.80390 13.81532
#
# Velocity S-wave (km/s) = 2.11986 2.85338 2.51352
# Velocity P-wave (km/s) = 4.55202 5.18409 4.87830
#
# Compressibility (1/GPa) = 0.03104733
#
# Stress axis : x y z
#
# Youngs Moduli (GPa) = 13.41626 13.41626 63.75685
#
# Poissons Ratio (x) = 0.88922 0.01836
# Poissons Ratio (y) = 0.88922 0.01836
# Poissons Ratio (z) = 0.00386 0.00386
#
# Static dielectric constant tensor:
#      x y z
#    x 1.802810 0.000000 0.000000 
#    y 0.000000 1.802810 0.000000 
#    z 0.000000 0.000000 1.808490 
# 
# From -- ./inp_files/4904.got.cif
#   From: 2010.05.17/outbox.cif.g08.bks.cpg/sg128_3_cif.got.tgz:4904.got - 2010.05.20 12:07:25.
