data_PCOD9564435
_publ_section_title
;
Structure prediction by ZEFSAII (Michael W. Deem and Ramdas Pophale) SiO2 
 PCOD9564435
Probable space group: P 4/M B M
;
_chemical_formula_sum "Si O2"
_cell_formula_units_Z 72
_cell_length_a 22.964791
_cell_length_b 22.964791
_cell_length_c 7.260707
_cell_angle_alpha 90.000000
_cell_angle_beta 90.000000
_cell_angle_gamma 90.000000
_cell_volume 3829.163461
_symmetry_space_group_name_H-M "P 4/M B M"
_symmetry_group_IT_number 127
_symmetry_cell_setting 'tetragonal'
loop_
_space_group_symop_operation_xyz
x,y,z
-y,x,z
-x,-y,z
y,-x,z
1/2+x,1/2-y,-z
1/2-x,1/2+y,-z
1/2+y,1/2+x,-z
1/2-y,1/2-x,-z
-x,-y,-z
y,-x,-z
x,y,-z
-y,x,-z
1/2-x,1/2+y,z
1/2+x,1/2-y,z
1/2-y,1/2-x,z
1/2+y,1/2+x,z
loop_
_atom_site_type_symbol
_atom_site_label
_atom_site_fract_x
_atom_site_fract_y
_atom_site_fract_z
Si Si1 0.743592 0.848030 0.723334
Si Si2 0.174166 0.986104 0.276298
Si Si3 0.887782 0.131443 0.724526
Si Si4 0.024525 0.697899 0.279102
Si Si5 0.901896 0.500659 0.000000
O O1 0.744575 0.846603 0.500000
O O2 0.707234 0.792767 0.787569
O O3 0.810366 0.853557 0.782345
O O4 0.710550 0.907964 0.770587
O O5 0.173429 0.986221 0.500000
O O6 0.142117 0.927911 0.213775
O O7 0.242237 0.991411 0.226330
O O8 0.141404 0.045265 0.219030
O O9 0.887738 0.130547 0.500000
O O10 0.020955 0.691089 0.500000
O O11 0.002474 0.641395 0.174040
O O12 0.942506 0.557495 0.000000
O O13 0.945285 0.445285 0.000000
#
# Coordination Sequence:
#
# PCOD9564435 Si02
#       5
#    16  16  16  16   8
#     4   8  13  23  42  66  91 123 165 212 255 292
#     4   8  14  25  43  68  99 135 171 207 249 297
#     4   8  13  21  36  64  99 132 169 208 248 298
#     4   9  18  34  54  74 100 134 168 204 250 300
#     4  11  24  38  54  78 102 127 164 208 254 305
#
# _framework density 18.803061
#
# number of rings (size 3 to 8) (size 9 to 14) (size 15 to 20)
#    0.000    3.444    0.000    3.333    0.000    2.222 
#    0.000    4.444    0.000    9.333    0.000    6.222 
#    0.000    7.111    0.000    0.889    0.000    0.000 
#
# Total GULP energy -401584.134901 kJ/mol
# GULP energy per Si atom -5577.557429 kJ/mol
# Density = 1.876026 g / cm^3
# Si number density = 18.803061 Si / 1000 Ang^3
#
#
#
# Elastic Constant Matrix: (Units=GPa)
#
#
# Indices 1 2 3 4 5 6 
#
# 1 166.5301 137.0985 30.3762 0.0000 0.0000 0.0000
# 2 137.0985 166.5300 30.3763 0.0000 0.0000 0.0000
# 3 30.3762 30.3763 90.9758 0.0000 0.0000 0.0000
# 4 0.0000 0.0000 0.0000 -82.8945 0.0000 0.0000
# 5 0.0000 0.0000 0.0000 0.0000 -82.8923 0.0000
# 6 0.0000 0.0000 0.0000 0.0000 0.0000 32.3129
#
#
#
# Elastic Compliance Matrix: (Units=1/GPa)
#
#
# Indices 1 2 3 4 5 6 
#
# 1 0.018753 -0.015224 -0.001178 0.000000 0.000000 0.000000
# 2 -0.015224 0.018753 -0.001178 0.000000 0.000000 0.000000
# 3 -0.001178 -0.001178 0.011779 0.000000 0.000000 0.000000
# 4 0.000000 0.000000 0.000000 -0.012064 0.000000 0.000000
# 5 0.000000 0.000000 0.000000 0.000000 -0.012064 0.000000
# 6 0.000000 0.000000 0.000000 0.000000 0.000000 0.030947
#
#
# Mechanical properties :
#
#
# Convention : Reuss Voigt Hill
#
# Bulk Modulus (GPa) = 70.80247 91.08199 80.94223
# Shear Modulus (GPa) = 52.09701 -11.61580 20.24060
#
# Velocity S-wave (km/s) = 5.26942 -2.48818 3.28449
# Velocity P-wave (km/s) = 8.64632 6.34748 7.58450
#
# Compressibility (1/GPa) = 0.01412380
#
# Stress axis : x y z
#
# Youngs Moduli (GPa) = 53.32420 53.32413 84.89790
#
# Poissons Ratio (x) = 0.81180 0.10004
# Poissons Ratio (y) = 0.81180 0.10005
# Poissons Ratio (z) = 0.06284 0.06284
#
# Static dielectric constant tensor:
#      x y z
#    x 1.621240 0.000000 0.000000 
#    y 0.000000 1.621240 0.000000 
#    z 0.000000 0.000000 1.713130 
# 
# From -- ./inp_files/1528.got.cif
#   From: 2010.05.17/outbox.cif.g08.bks.cpg/sg127_1_cif.got.tgz:1528.got - 2010.05.20 12:03:00.
