data_PCOD9564016
_publ_section_title
;
Structure prediction by ZEFSAII (Michael W. Deem and Ramdas Pophale) SiO2 
 PCOD9564016
Probable space group: P 4/M B M
;
_chemical_formula_sum "Si O2"
_cell_formula_units_Z 112
_cell_length_a 15.442425
_cell_length_b 15.442425
_cell_length_c 24.310084
_cell_angle_alpha 90.000000
_cell_angle_beta 90.000000
_cell_angle_gamma 90.000000
_cell_volume 5797.189020
_symmetry_space_group_name_H-M "P 4/M B M"
_symmetry_group_IT_number 127
_symmetry_cell_setting 'tetragonal'
loop_
_space_group_symop_operation_xyz
x,y,z
-y,x,z
-x,-y,z
y,-x,z
1/2+x,1/2-y,-z
1/2-x,1/2+y,-z
1/2+y,1/2+x,-z
1/2-y,1/2-x,-z
-x,-y,-z
y,-x,-z
x,y,-z
-y,x,-z
1/2-x,1/2+y,z
1/2+x,1/2-y,z
1/2-y,1/2-x,z
1/2+y,1/2+x,z
loop_
_atom_site_type_symbol
_atom_site_label
_atom_site_fract_x
_atom_site_fract_y
_atom_site_fract_z
Si Si1 0.244211 0.110071 0.230854
Si Si2 0.754266 0.108608 0.062809
Si Si3 0.102826 0.897716 0.853666
Si Si4 0.857136 0.500063 0.147578
Si Si5 0.395174 0.251861 0.643600
Si Si6 0.144088 0.495312 0.437786
Si Si7 0.607705 0.401634 0.560535
O O1 0.306781 0.193220 0.231391
O O2 0.156304 0.133728 0.198981
O O3 0.228377 0.081894 0.293460
O O4 0.296911 0.037548 0.196070
O O5 0.691621 0.191621 0.062741
O O6 0.843127 0.132589 0.093544
O O7 0.702707 0.036644 0.098610
O O8 0.768515 0.080726 0.000000
O O9 0.000315 0.883761 0.853591
O O10 0.920779 0.579222 0.164853
O O11 0.921510 0.421510 0.130525
O O12 0.319326 0.180675 0.643798
O O13 0.473688 0.209467 0.608829
O O14 0.364986 0.335562 0.609687
O O15 0.181287 0.493105 0.500000
O O16 0.094850 0.405151 0.427212
O O17 0.068795 0.568795 0.438743
O O18 0.615818 0.505906 0.563802
O O19 0.639032 0.373297 0.500000
#
# Coordination Sequence:
#
# PCOD9564016 Si02
#       7
#    16  16  16  16  16  16  16
#     4  10  21  38  57  81 116 152 192 240 290 343
#     4  10  21  39  64  92 120 151 188 233 291 351
#     4  11  23  40  61  83 110 150 196 238 286 343
#     4   9  18  36  62  88 117 154 192 234 285 340
#     4  10  20  33  55  85 113 144 185 236 289 341
#     4   8  14  26  46  75 113 152 183 216 270 339
#     4   9  19  37  58  77 103 144 190 233 277 328
#
# _framework density 19.319707999999999
#
# number of rings (size 3 to 8) (size 9 to 14) (size 15 to 20)
#    0.000    2.429    1.429    1.714    0.000    3.429 
#    0.000    7.143    0.000    0.857    0.000    0.000 
#    0.000    0.000    0.000    0.000    0.000    0.000 
#
# Total GULP energy -624477.064614 kJ/mol
# GULP energy per Si atom -5575.688077 kJ/mol
# Density = 1.927574 g / cm^3
# Si number density = 19.319708 Si / 1000 Ang^3
#
#
#
# Elastic Constant Matrix: (Units=GPa)
#
#
# Indices 1 2 3 4 5 6 
#
# 1 81.2069 7.3416 50.6794 0.0000 0.0000 0.0000
# 2 7.3416 81.2069 50.6794 0.0000 0.0000 0.0000
# 3 50.6794 50.6794 166.9036 0.0000 0.0000 0.0000
# 4 0.0000 0.0000 0.0000 18.0661 0.0000 0.0000
# 5 0.0000 0.0000 0.0000 0.0000 18.0661 0.0000
# 6 0.0000 0.0000 0.0000 0.0000 0.0000 -1.2139
#
#
#
# Elastic Compliance Matrix: (Units=1/GPa)
#
#
# Indices 1 2 3 4 5 6 
#
# 1 0.015424 0.001886 -0.005256 0.000000 0.000000 0.000000
# 2 0.001886 0.015424 -0.005256 0.000000 0.000000 0.000000
# 3 -0.005256 -0.005256 0.009183 0.000000 0.000000 0.000000
# 4 0.000000 0.000000 0.000000 0.055352 0.000000 0.000000
# 5 0.000000 0.000000 0.000000 0.000000 0.055352 0.000000
# 6 0.000000 0.000000 0.000000 0.000000 0.000000 -0.823806
#
#
# Mechanical properties :
#
#
# Convention : Reuss Voigt Hill
#
# Bulk Modulus (GPa) = 43.90065 60.74646 52.32356
# Shear Modulus (GPa) = -7.71338 21.69144 6.98903
#
# Velocity S-wave (km/s) = -2.00029 3.35440 1.90405
# Velocity P-wave (km/s) = 4.17585 6.82009 5.65470
#
# Compressibility (1/GPa) = 0.02277870
#
# Stress axis : x y z
#
# Youngs Moduli (GPa) = 64.83452 64.83452 108.89242
#
# Poissons Ratio (x) = -0.12226 0.57234
# Poissons Ratio (y) = -0.12226 0.57234
# Poissons Ratio (z) = 0.34077 0.34077
#
# Static dielectric constant tensor:
#      x y z
#    x 1.693250 0.000000 0.000000 
#    y 0.000000 1.693250 0.000000 
#    z 0.000000 0.000000 1.660650 
# 
# From -- ./inp_files/6189.got.cif
#   From: 2010.05.17/outbox.cif.g08.bks.cpg/sg127_4_cif.got.tgz:6189.got - 2010.05.20 12:03:00.
