data_PCOD9564492
_publ_section_title
;
Structure prediction by ZEFSAII (Michael W. Deem and Ramdas Pophale) SiO2 
 PCOD9564492
Probable space group: P 4/M B M
;
_chemical_formula_sum "Si O2"
_cell_formula_units_Z 104
_cell_length_a 18.000000
_cell_length_b 18.000000
_cell_length_c 18.000000
_cell_angle_alpha 90.000000
_cell_angle_beta 90.000000
_cell_angle_gamma 90.000000
_cell_volume 5832.000000
_symmetry_space_group_name_H-M "P 4/M B M"
_symmetry_group_IT_number 127
_symmetry_cell_setting 'tetragonal'
loop_
_space_group_symop_operation_xyz
x,y,z
-y,x,z
-x,-y,z
y,-x,z
1/2+x,1/2-y,-z
1/2-x,1/2+y,-z
1/2+y,1/2+x,-z
1/2-y,1/2-x,-z
-x,-y,-z
y,-x,-z
x,y,-z
-y,x,-z
1/2-x,1/2+y,z
1/2+x,1/2-y,z
1/2-y,1/2-x,z
1/2+y,1/2+x,z
loop_
_atom_site_type_symbol
_atom_site_label
_atom_site_fract_x
_atom_site_fract_y
_atom_site_fract_z
Si Si1 0.089254 0.713858 0.839126
Si Si2 0.017166 0.727837 0.587433
Si Si3 0.238263 0.380884 0.689277
Si Si4 0.440389 0.059612 0.409994
Si Si5 0.195190 0.424862 0.853528
Si Si6 0.139587 0.763304 0.316313
Si Si7 0.183606 0.195506 0.912305
O O1 0.149355 0.649355 0.850392
O O2 0.090376 0.735048 0.752369
O O3 0.119081 0.787537 0.879490
O O4 0.010914 0.686594 0.867682
O O5 0.007110 0.729026 0.500000
O O6 0.944237 0.752057 0.630215
O O7 0.036942 0.642850 0.611112
O O8 0.086989 0.775782 0.614076
O O9 0.176993 0.323008 0.659381
O O10 0.206370 0.413108 0.765619
O O11 0.311862 0.333846 0.706426
O O12 0.442157 0.057844 0.500000
O O13 0.500000 0.000000 0.381621
O O14 0.126475 0.373526 0.878600
O O15 0.270942 0.394737 0.889857
O O16 0.198747 0.698747 0.333395
O O17 0.241718 0.258283 0.882256
O O18 0.189986 0.193137 0.000000
#
# Coordination Sequence:
#
# PCOD9564492 Si02
#       7
#    16  16  16   8  16  16  16
#     4  10  19  33  55  82 113 145 178 217 267 324
#     4  11  21  33  50  76 105 138 178 222 274 323
#     4  10  20  34  53  76 105 139 180 225 268 316
#     4   9  18  32  48  70 108 144 167 204 268 338
#     4  10  19  33  54  83 114 144 178 218 266 322
#     4  10  19  34  54  75 102 141 182 224 268 316
#     4   9  18  34  56  81 109 144 183 218 255 310
#
# _framework density 17.832647000000001
#
# number of rings (size 3 to 8) (size 9 to 14) (size 15 to 20)
#    0.000    2.077    3.846    0.462    0.000    2.462 
#    0.000    1.538    0.000    0.923    0.000    6.462 
#    0.000    0.000    0.000    0.000    0.000    0.000 
#
# Total GULP energy -579273.419223 kJ/mol
# GULP energy per Si atom -5569.936723 kJ/mol
# Density = 1.779206 g / cm^3
# Si number density = 17.832647 Si / 1000 Ang^3
#
#
#
# Elastic Constant Matrix: (Units=GPa)
#
#
# Indices 1 2 3 4 5 6 
#
# 1 23.0882 34.7056 8.0560 0.0000 0.0000 0.0000
# 2 34.7056 23.0884 8.0561 0.0000 0.0000 0.0000
# 3 8.0560 8.0561 36.0621 0.0000 0.0000 0.0000
# 4 0.0000 0.0000 0.0000 4.7221 0.0000 0.0000
# 5 0.0000 0.0000 0.0000 0.0000 4.7221 0.0000
# 6 0.0000 0.0000 0.0000 0.0000 0.0000 5.2777
#
#
#
# Elastic Compliance Matrix: (Units=1/GPa)
#
#
# Indices 1 2 3 4 5 6 
#
# 1 -0.033813 0.052265 -0.004122 0.000000 0.000000 0.000000
# 2 0.052265 -0.033813 -0.004122 0.000000 0.000000 0.000000
# 3 -0.004122 -0.004122 0.029572 0.000000 0.000000 0.000000
# 4 0.000000 0.000000 0.000000 0.211771 0.000000 0.000000
# 5 0.000000 0.000000 0.000000 0.000000 0.211771 0.000000
# 6 0.000000 0.000000 0.000000 0.000000 0.000000 0.189477
#
#
# Mechanical properties :
#
#
# Convention : Reuss Voigt Hill
#
# Bulk Modulus (GPa) = 20.00505 20.43047 20.21776
# Shear Modulus (GPa) = 9.92880 5.03910 7.48395
#
# Velocity S-wave (km/s) = 2.36217 1.68283 2.05082
# Velocity P-wave (km/s) = 4.32231 3.90609 4.11946
#
# Compressibility (1/GPa) = 0.04998738
#
# Stress axis : x y z
#
# Youngs Moduli (GPa) = -29.57416 -29.57438 33.81623
#
# Poissons Ratio (x) = 1.54571 0.13940
# Poissons Ratio (y) = 1.54570 0.13939
# Poissons Ratio (z) = -0.12191 -0.12190
#
# Static dielectric constant tensor:
#      x y z
#    x 1.624880 0.000000 0.000000 
#    y 0.000000 1.624880 0.000000 
#    z 0.000000 0.000000 1.613260 
# 
# From -- ./inp_files/5231.got.cif
#   From: 2010.05.17/outbox.ucp.g08.bks.cvg/sg127_3_cif.got.tgz:5231.got - 2010.06.11 11:37:05.
