data_PCOD9564924
_publ_section_title
;
Structure prediction by ZEFSAII (Michael W. Deem and Ramdas Pophale) SiO2 
 PCOD9564924
Probable space group: P 4/M N C
;
_chemical_formula_sum "Si O2"
_cell_formula_units_Z 72
_cell_length_a 17.528120
_cell_length_b 17.528120
_cell_length_c 11.046759
_cell_angle_alpha 90.000000
_cell_angle_beta 90.000000
_cell_angle_gamma 90.000000
_cell_volume 3393.950899
_symmetry_space_group_name_H-M "P 4/M N C"
_symmetry_group_IT_number 128
_symmetry_cell_setting 'tetragonal'
loop_
_space_group_symop_operation_xyz
x,y,z
-y,x,z
-x,-y,z
y,-x,z
1/2+x,1/2-y,1/2-z
1/2-x,1/2+y,1/2-z
1/2+y,1/2+x,1/2-z
1/2-y,1/2-x,1/2-z
-x,-y,-z
y,-x,-z
x,y,-z
-y,x,-z
1/2-x,1/2+y,1/2+z
1/2+x,1/2-y,1/2+z
1/2-y,1/2-x,1/2+z
1/2+y,1/2+x,1/2+z
loop_
_atom_site_type_symbol
_atom_site_label
_atom_site_fract_x
_atom_site_fract_y
_atom_site_fract_z
Si Si1 0.743509 0.460101 0.691631
Si Si2 0.254389 0.670244 0.863252
Si Si3 0.962615 0.621741 0.500000
Si Si4 0.959347 0.376012 0.000000
Si Si5 0.890107 0.729029 0.696639
Si Si6 0.882650 0.947068 0.000000
O O1 0.743928 0.416611 0.819009
O O2 0.821514 0.447627 0.616109
O O3 0.736783 0.550765 0.708204
O O4 0.671869 0.430440 0.614276
O O5 0.210646 0.710646 0.750000
O O6 0.339334 0.705585 0.863612
O O7 0.223158 0.680911 0.000000
O O8 0.909584 0.545710 0.500000
O O9 0.940255 0.674420 0.612192
O O10 0.049603 0.593733 0.500000
O O11 0.827968 0.672033 0.750000
O O12 0.962651 0.903296 0.000000
#
# Coordination Sequence:
#
# PCOD9564924 Si02
#       6
#    16  16   8   8  16   8
#     4  11  24  41  67 100 137 176 229 289 342 408
#     4  11  27  44  66  98 136 182 232 281 345 411
#     4  11  22  42  63  93 138 182 228 269 329 425
#     4  10  24  40  65 101 137 181 225 276 342 406
#     4  11  23  43  66  92 133 185 225 274 343 413
#     4  10  22  44  72 100 133 182 236 292 351 414
#
# _framework density 21.214214999999999
#
# number of rings (size 3 to 8) (size 9 to 14) (size 15 to 20)
#    0.000    1.222    3.333    1.333    7.778    0.000 
#    2.000    0.000    0.000    0.000    0.000    4.667 
#    0.000    0.000    0.000    0.000    0.000    0.000 
#
# Total GULP energy -402172.161136 kJ/mol
# GULP energy per Si atom -5585.724460 kJ/mol
# Density = 2.116593 g / cm^3
# Si number density = 21.214215 Si / 1000 Ang^3
#
#
#
# Elastic Constant Matrix: (Units=GPa)
#
#
# Indices 1 2 3 4 5 6 
#
# 1 99.4343 50.3337 34.0819 0.0000 0.0000 0.0000
# 2 50.3337 99.4339 34.0854 0.0000 0.0000 0.0000
# 3 34.0819 34.0854 112.5059 0.0000 0.0000 0.0000
# 4 0.0000 0.0000 0.0000 30.2581 0.0000 0.0000
# 5 0.0000 0.0000 0.0000 0.0000 30.2575 0.0000
# 6 0.0000 0.0000 0.0000 0.0000 0.0000 42.7858
#
#
#
# Elastic Compliance Matrix: (Units=1/GPa)
#
#
# Indices 1 2 3 4 5 6 
#
# 1 0.014055 -0.006311 -0.002346 0.000000 0.000000 0.000000
# 2 -0.006311 0.014056 -0.002347 0.000000 0.000000 0.000000
# 3 -0.002346 -0.002347 0.010310 0.000000 0.000000 0.000000
# 4 0.000000 0.000000 0.000000 0.033049 0.000000 0.000000
# 5 0.000000 0.000000 0.000000 0.000000 0.033050 0.000000
# 6 0.000000 0.000000 0.000000 0.000000 0.000000 0.023372
#
#
# Mechanical properties :
#
#
# Convention : Reuss Voigt Hill
#
# Bulk Modulus (GPa) = 60.92126 60.93067 60.92597
# Shear Modulus (GPa) = 32.18112 33.51850 32.84981
#
# Velocity S-wave (km/s) = 3.89904 3.97924 3.93934
# Velocity P-wave (km/s) = 7.00354 7.06374 7.03370
#
# Compressibility (1/GPa) = 0.01641463
#
# Stress axis : x y z
#
# Youngs Moduli (GPa) = 71.14659 71.14458 96.99266
#
# Poissons Ratio (x) = 0.44898 0.22754
# Poissons Ratio (y) = 0.44899 0.22761
# Poissons Ratio (z) = 0.16691 0.16696
#
# Static dielectric constant tensor:
#      x y z
#    x 1.776480 0.000000 0.000000 
#    y 0.000000 1.776480 0.000000 
#    z 0.000000 0.000000 1.764510 
# 
# From -- ./inp_files/2668.got.cif
#   From: 2010.05.17/outbox.cif.g08.bks.cpg/sg128_2_cif.got.tgz:2668.got - 2010.05.20 12:07:25.
