data_PCOD9564561
_publ_section_title
;
Structure prediction by ZEFSAII (Michael W. Deem and Ramdas Pophale) SiO2 
 PCOD9564561
Probable space group: P 4/M N C
;
_chemical_formula_sum "Si O2"
_cell_formula_units_Z 96
_cell_length_a 18.937828
_cell_length_b 18.937828
_cell_length_c 10.400192
_cell_angle_alpha 90.000000
_cell_angle_beta 90.000000
_cell_angle_gamma 90.000000
_cell_volume 3729.938684
_symmetry_space_group_name_H-M "P 4/M N C"
_symmetry_group_IT_number 128
_symmetry_cell_setting 'tetragonal'
loop_
_space_group_symop_operation_xyz
x,y,z
-y,x,z
-x,-y,z
y,-x,z
1/2+x,1/2-y,1/2-z
1/2-x,1/2+y,1/2-z
1/2+y,1/2+x,1/2-z
1/2-y,1/2-x,1/2-z
-x,-y,-z
y,-x,-z
x,y,-z
-y,x,-z
1/2-x,1/2+y,1/2+z
1/2+x,1/2-y,1/2+z
1/2-y,1/2-x,1/2+z
1/2+y,1/2+x,1/2+z
loop_
_atom_site_type_symbol
_atom_site_label
_atom_site_fract_x
_atom_site_fract_y
_atom_site_fract_z
Si Si1 0.225313 0.357297 0.500000
Si Si2 0.416044 0.941129 0.500000
Si Si3 0.112765 0.784697 0.277224
Si Si4 0.319304 0.005625 0.298360
Si Si5 0.633976 0.254522 0.227015
Si Si6 0.852553 0.459359 0.500000
Si Si7 0.116115 0.021553 0.141491
Si Si8 0.671017 0.763093 0.500000
O O1 0.141449 0.379823 0.500000
O O2 0.265110 0.387756 0.375945
O O3 0.249479 0.273428 0.500000
O O4 0.389423 0.983442 0.374307
O O5 0.498729 0.925526 0.500000
O O6 0.176913 0.829784 0.333239
O O7 0.144587 0.765620 0.137641
O O8 0.079654 0.715818 0.340550
O O9 0.043995 0.831557 0.251627
O O10 0.272070 0.937449 0.335305
O O11 0.325139 0.014403 0.142822
O O12 0.690568 0.190568 0.250000
O O13 0.835130 0.376440 0.500000
O O14 0.078667 0.946838 0.149669
O O15 0.149346 0.028606 0.000000
#
# Coordination Sequence:
#
# PCOD9564561 Si02
#       8
#     8   8  16  16  16   8  16   8
#     4  10  18  32  51  76 108 143 180 237 282 344
#     4  12  20  34  55  80 114 150 188 236 291 339
#     4  10  19  30  46  73 109 141 185 231 283 340
#     4  11  21  34  52  81 112 150 191 237 286 346
#     4  11  19  33  53  77 105 150 192 235 290 342
#     4  10  18  34  54  79 109 142 185 239 280 347
#     4   9  16  26  41  66 101 142 181 222 277 334
#     4   8  18  28  46  74 103 135 174 225 290 331
#
# _framework density 25.737687999999999
#
# number of rings (size 3 to 8) (size 9 to 14) (size 15 to 20)
#    0.000    1.833    4.167    2.000    0.000    0.000 
#    0.000    1.667    0.000    0.000    0.000    0.000 
#    0.000   48.667    0.000    0.000    0.000    0.000 
#
# Total GULP energy -534728.226189 kJ/mol
# GULP energy per Si atom -5570.085689 kJ/mol
# Density = 2.567911 g / cm^3
# Si number density = 25.737688 Si / 1000 Ang^3
#
#
#
# Elastic Constant Matrix: (Units=GPa)
#
#
# Indices 1 2 3 4 5 6 
#
# 1 84.7080 75.9282 25.7328 0.0000 0.0000 0.0000
# 2 75.9282 84.7080 25.7328 0.0000 0.0000 0.0000
# 3 25.7328 25.7328 73.8626 0.0000 0.0000 0.0000
# 4 0.0000 0.0000 0.0000 17.2207 0.0000 0.0000
# 5 0.0000 0.0000 0.0000 0.0000 17.2207 0.0000
# 6 0.0000 0.0000 0.0000 0.0000 0.0000 59.0696
#
#
#
# Elastic Compliance Matrix: (Units=1/GPa)
#
#
# Indices 1 2 3 4 5 6 
#
# 1 0.060453 -0.053445 -0.002441 0.000000 0.000000 0.000000
# 2 -0.053445 0.060453 -0.002441 0.000000 0.000000 0.000000
# 3 -0.002441 -0.002441 0.015240 0.000000 0.000000 0.000000
# 4 0.000000 0.000000 0.000000 0.058070 0.000000 0.000000
# 5 0.000000 0.000000 0.000000 0.000000 0.058070 0.000000
# 6 0.000000 0.000000 0.000000 0.000000 0.000000 0.016929
#
#
# Mechanical properties :
#
#
# Convention : Reuss Voigt Hill
#
# Bulk Modulus (GPa) = 51.31016 55.34070 53.32543
# Shear Modulus (GPa) = 12.74319 26.42783 19.58551
#
# Velocity S-wave (km/s) = 2.22754 3.20787 2.76155
# Velocity P-wave (km/s) = 5.15703 5.93878 5.56166
#
# Compressibility (1/GPa) = 0.01948932
#
# Stress axis : x y z
#
# Youngs Moduli (GPa) = 16.54182 16.54182 65.61814
#
# Poissons Ratio (x) = 0.88408 0.16019
# Poissons Ratio (y) = 0.88408 0.16019
# Poissons Ratio (z) = 0.04038 0.04038
#
# Static dielectric constant tensor:
#      x y z
#    x 2.101920 0.000000 0.000000 
#    y 0.000000 2.101920 0.000000 
#    z 0.000000 0.000000 2.070150 
# 
# From -- ./inp_files/2910.got.cif
#   From: 2010.05.17/outbox.cif.g08.bks.cpg/sg128_2_cif.got.tgz:2910.got - 2010.05.20 12:07:25.
