data_PCOD9564018
_publ_section_title
;
Structure prediction by ZEFSAII (Michael W. Deem and Ramdas Pophale) SiO2 
 PCOD9564018
Probable space group: P 4/M B M
;
_chemical_formula_sum "Si O2"
_cell_formula_units_Z 80
_cell_length_a 25.883346
_cell_length_b 25.883346
_cell_length_c 8.962223
_cell_angle_alpha 90.000000
_cell_angle_beta 90.000000
_cell_angle_gamma 90.000000
_cell_volume 6004.219791
_symmetry_space_group_name_H-M "P 4/M B M"
_symmetry_group_IT_number 127
_symmetry_cell_setting 'tetragonal'
loop_
_space_group_symop_operation_xyz
x,y,z
-y,x,z
-x,-y,z
y,-x,z
1/2+x,1/2-y,-z
1/2-x,1/2+y,-z
1/2+y,1/2+x,-z
1/2-y,1/2-x,-z
-x,-y,-z
y,-x,-z
x,y,-z
-y,x,-z
1/2-x,1/2+y,z
1/2+x,1/2-y,z
1/2-y,1/2-x,z
1/2+y,1/2+x,z
loop_
_atom_site_type_symbol
_atom_site_label
_atom_site_fract_x
_atom_site_fract_y
_atom_site_fract_z
Si Si1 0.050767 0.860397 0.818384
Si Si2 0.363462 0.713446 0.172244
Si Si3 0.437523 0.635077 0.320678
Si Si4 0.288786 0.788786 0.673696
Si Si5 0.726560 0.374180 0.170325
Si Si6 0.800289 0.300289 0.670544
O O1 0.088381 0.903882 0.749630
O O2 0.075812 0.804826 0.775266
O O3 0.994173 0.866202 0.750888
O O4 0.051102 0.863890 0.000000
O O5 0.408603 0.687462 0.268368
O O6 0.337965 0.764118 0.243925
O O7 0.317579 0.670512 0.171475
O O8 0.378982 0.721166 0.000000
O O9 0.438797 0.631320 0.500000
O O10 0.299126 0.799126 0.500000
O O11 0.244229 0.744229 0.678970
O O12 0.774928 0.350623 0.256123
O O13 0.741930 0.382967 0.000000
O O14 0.810959 0.310959 0.500000
#
# Coordination Sequence:
#
# PCOD9564018 Si02
#       6
#    16  16  16   8  16   8
#     4  10  20  34  47  58  74 101 134 168 205 246
#     4   9  16  27  41  57  77 102 127 153 190 239
#     4  11  21  32  45  61  78  98 129 172 212 243
#     4   9  15  23  37  59  81  99 121 154 191 228
#     4   8  15  26  40  55  73  96 123 152 185 228
#     4   9  15  21  35  57  79  97 115 144 185 228
#
# _framework density 13.323962
#
# number of rings (size 3 to 8) (size 9 to 14) (size 15 to 20)
#    0.000    2.600    0.000    4.800    0.000    8.400 
#    0.000    2.000    0.000    0.000    0.000    0.000 
#    0.000    0.000    0.000    0.000    0.000    1.000 
#
# Total GULP energy -445426.007858 kJ/mol
# GULP energy per Si atom -5567.825098 kJ/mol
# Density = 1.329364 g / cm^3
# Si number density = 13.323962 Si / 1000 Ang^3
#
#
#
# Elastic Constant Matrix: (Units=GPa)
#
#
# Indices 1 2 3 4 5 6 
#
# 1 59.3904 60.7951 44.7478 0.0000 0.0000 0.0000
# 2 60.7951 59.3904 44.7478 0.0000 0.0000 0.0000
# 3 44.7478 44.7478 97.8205 0.0000 0.0000 0.0000
# 4 0.0000 0.0000 0.0000 16.4226 0.0000 0.0000
# 5 0.0000 0.0000 0.0000 0.0000 16.4226 0.0000
# 6 0.0000 0.0000 0.0000 0.0000 0.0000 14.8286
#
#
#
# Elastic Compliance Matrix: (Units=1/GPa)
#
#
# Indices 1 2 3 4 5 6 
#
# 1 -0.349637 0.362256 -0.005773 0.000000 0.000000 0.000000
# 2 0.362256 -0.349637 -0.005773 0.000000 0.000000 0.000000
# 3 -0.005773 -0.005773 0.015504 0.000000 0.000000 0.000000
# 4 0.000000 0.000000 0.000000 0.060892 0.000000 0.000000
# 5 0.000000 0.000000 0.000000 0.000000 0.060892 0.000000
# 6 0.000000 0.000000 0.000000 0.000000 0.000000 0.067437
#
#
# Mechanical properties :
#
#
# Convention : Reuss Voigt Hill
#
# Bulk Modulus (GPa) = 56.65117 57.46478 57.05797
# Shear Modulus (GPa) = -4.20137 13.95547 4.87705
#
# Velocity S-wave (km/s) = -1.77766 3.23986 1.91528
# Velocity P-wave (km/s) = 6.19654 7.56427 6.91431
#
# Compressibility (1/GPa) = 0.01765189
#
# Stress axis : x y z
#
# Youngs Moduli (GPa) = -2.86011 -2.86011 64.49925
#
# Poissons Ratio (x) = 1.03609 0.37232
# Poissons Ratio (y) = 1.03609 0.37232
# Poissons Ratio (z) = -0.01651 -0.01651
#
# Static dielectric constant tensor:
#      x y z
#    x 1.428620 0.000000 0.000000 
#    y 0.000000 1.428620 0.000000 
#    z 0.000000 0.000000 1.447460 
# 
# From -- ./inp_files/1852.got.cif
#   From: 2010.05.17/outbox.cif.g08.bks.cpg/sg127_1_cif.got.tgz:1852.got - 2010.05.20 12:03:00.
