data_PCOD9564243
_publ_section_title
;
Structure prediction by ZEFSAII (Michael W. Deem and Ramdas Pophale) SiO2 
 PCOD9564243
Probable space group: P 4/M B M
;
_chemical_formula_sum "Si O2"
_cell_formula_units_Z 72
_cell_length_a 14.053835
_cell_length_b 14.053835
_cell_length_c 19.709746
_cell_angle_alpha 90.000000
_cell_angle_beta 90.000000
_cell_angle_gamma 90.000000
_cell_volume 3892.877416
_symmetry_space_group_name_H-M "P 4/M B M"
_symmetry_group_IT_number 127
_symmetry_cell_setting 'tetragonal'
loop_
_space_group_symop_operation_xyz
x,y,z
-y,x,z
-x,-y,z
y,-x,z
1/2+x,1/2-y,-z
1/2-x,1/2+y,-z
1/2+y,1/2+x,-z
1/2-y,1/2-x,-z
-x,-y,-z
y,-x,-z
x,y,-z
-y,x,-z
1/2-x,1/2+y,z
1/2+x,1/2-y,z
1/2-y,1/2-x,z
1/2+y,1/2+x,z
loop_
_atom_site_type_symbol
_atom_site_label
_atom_site_fract_x
_atom_site_fract_y
_atom_site_fract_z
Si Si1 0.899408 0.759628 0.855399
Si Si2 0.564328 0.773908 0.629732
Si Si3 0.417973 0.917973 0.420874
Si Si4 0.740683 0.401693 0.781727
Si Si5 0.646451 0.566681 0.000000
Si Si6 0.565010 0.645142 0.500000
O O1 0.833507 0.666494 0.851384
O O2 0.846724 0.841932 0.812138
O O3 0.003481 0.743281 0.824927
O O4 0.907644 0.796060 0.932406
O O5 0.644118 0.855883 0.628749
O O6 0.464127 0.827192 0.615552
O O7 0.569539 0.726408 0.703284
O O8 0.585220 0.704455 0.567592
O O9 0.397223 0.897223 0.500000
O O10 0.500000 0.000000 0.420731
O O11 0.832187 0.332187 0.785458
O O12 0.545522 0.621473 0.000000
O O13 0.453245 0.620938 0.500000
#
# Coordination Sequence:
#
# PCOD9564243 Si02
#       6
#    16  16   8  16   8   8
#     4  11  23  42  66  94 129 166 203 254 316 370
#     4  10  21  41  62  87 118 153 203 255 302 360
#     4   9  16  32  60  86 112 147 193 251 299 343
#     4  10  24  41  62  95 128 161 209 259 310 377
#     4  11  21  40  68  95 124 166 212 255 302 366
#     4  11  25  41  54  81 120 161 202 249 309 364
#
# _framework density 18.495315999999999
#
# number of rings (size 3 to 8) (size 9 to 14) (size 15 to 20)
#    0.000    1.667    3.333    0.667    4.667    0.889 
#    4.000    0.556    0.000    1.333    0.000    0.000 
#    0.000    0.000    0.000    0.000    0.000    0.000 
#
# Total GULP energy -402244.196522 kJ/mol
# GULP energy per Si atom -5586.724952 kJ/mol
# Density = 1.845322 g / cm^3
# Si number density = 18.495316 Si / 1000 Ang^3
#
#
#
# Elastic Constant Matrix: (Units=GPa)
#
#
# Indices 1 2 3 4 5 6 
#
# 1 61.4508 9.6067 37.6245 0.0000 0.0000 0.0000
# 2 9.6067 61.4508 37.6245 0.0000 0.0000 0.0000
# 3 37.6245 37.6245 164.3467 0.0000 0.0000 0.0000
# 4 0.0000 0.0000 0.0000 49.8912 0.0000 0.0000
# 5 0.0000 0.0000 0.0000 0.0000 49.8912 0.0000
# 6 0.0000 0.0000 0.0000 0.0000 0.0000 1.2483
#
#
#
# Elastic Compliance Matrix: (Units=1/GPa)
#
#
# Indices 1 2 3 4 5 6 
#
# 1 0.018933 -0.000356 -0.004253 0.000000 0.000000 0.000000
# 2 -0.000356 0.018933 -0.004253 0.000000 0.000000 0.000000
# 3 -0.004253 -0.004253 0.008032 0.000000 0.000000 0.000000
# 4 0.000000 0.000000 0.000000 0.020044 0.000000 0.000000
# 5 0.000000 0.000000 0.000000 0.000000 0.020044 0.000000
# 6 0.000000 0.000000 0.000000 0.000000 0.000000 0.801081
#
#
# Mechanical properties :
#
#
# Convention : Reuss Voigt Hill
#
# Bulk Modulus (GPa) = 35.49353 50.77332 43.13343
# Shear Modulus (GPa) = 5.46938 33.69899 19.58418
#
# Velocity S-wave (km/s) = 1.72151 4.27315 3.25756
# Velocity P-wave (km/s) = 4.81494 7.20125 6.12543
#
# Compressibility (1/GPa) = 0.02817415
#
# Stress axis : x y z
#
# Youngs Moduli (GPa) = 52.81860 52.81860 124.50276
#
# Poissons Ratio (x) = 0.01880 0.52949
# Poissons Ratio (y) = 0.01880 0.52949
# Poissons Ratio (z) = 0.22463 0.22463
#
# Static dielectric constant tensor:
#      x y z
#    x 1.622530 0.000000 0.000000 
#    y 0.000000 1.622530 0.000000 
#    z 0.000000 0.000000 1.616500 
# 
# From -- ./inp_files/4983.got.cif
#   From: 2010.05.17/outbox.cif.g08.bks.cpg/sg127_3_cif.got.tgz:4983.got - 2010.05.20 12:03:00.
