data_PCOD9564034
_publ_section_title
;
Structure prediction by ZEFSAII (Michael W. Deem and Ramdas Pophale) SiO2 
 PCOD9564034
Probable space group: P 4/M B M
;
_chemical_formula_sum "Si O2"
_cell_formula_units_Z 96
_cell_length_a 23.367618
_cell_length_b 23.367618
_cell_length_c 8.706895
_cell_angle_alpha 90.000000
_cell_angle_beta 90.000000
_cell_angle_gamma 90.000000
_cell_volume 4754.361452
_symmetry_space_group_name_H-M "P 4/M B M"
_symmetry_group_IT_number 127
_symmetry_cell_setting 'tetragonal'
loop_
_space_group_symop_operation_xyz
x,y,z
-y,x,z
-x,-y,z
y,-x,z
1/2+x,1/2-y,-z
1/2-x,1/2+y,-z
1/2+y,1/2+x,-z
1/2-y,1/2-x,-z
-x,-y,-z
y,-x,-z
x,y,-z
-y,x,-z
1/2-x,1/2+y,z
1/2+x,1/2-y,z
1/2-y,1/2-x,z
1/2+y,1/2+x,z
loop_
_atom_site_type_symbol
_atom_site_label
_atom_site_fract_x
_atom_site_fract_y
_atom_site_fract_z
Si Si1 0.608508 0.794075 0.673827
Si Si2 0.790314 0.805493 0.816427
Si Si3 0.024733 0.617122 0.817386
Si Si4 0.416682 0.829945 0.315597
Si Si5 0.474426 0.589777 0.185290
Si Si6 0.297722 0.416975 0.683756
O O1 0.589113 0.780392 0.500000
O O2 0.659552 0.840449 0.661781
O O3 0.636957 0.741210 0.760041
O O4 0.560729 0.826761 0.769960
O O5 0.748100 0.751901 0.778380
O O6 0.850886 0.803236 0.733346
O O7 0.797588 0.806236 0.000000
O O8 0.062269 0.562269 0.767310
O O9 0.964548 0.625828 0.737685
O O10 0.018151 0.613967 0.000000
O O11 0.415855 0.827498 0.500000
O O12 0.355275 0.855275 0.264144
O O13 0.432094 0.766419 0.260031
O O14 0.431170 0.538141 0.231446
O O15 0.454125 0.650504 0.249008
O O16 0.473687 0.592264 0.000000
O O17 0.299642 0.421672 0.500000
#
# Coordination Sequence:
#
# PCOD9564034 Si02
#       6
#    16  16  16  16  16  16
#     4   9  17  31  53  80 110 145 186 233 284 339
#     4  10  20  34  54  81 115 156 200 245 295 350
#     4  10  21  37  58  85 116 149 189 241 299 354
#     4  10  23  42  60  80 112 155 200 244 290 345
#     4   9  20  41  66  90 119 155 193 235 285 342
#     4  11  23  38  59  87 118 153 193 238 289 345
#
# _framework density 20.191986
#
# number of rings (size 3 to 8) (size 9 to 14) (size 15 to 20)
#    0.000    2.167    0.000    3.000    0.000    8.667 
#    0.000    5.833    0.000    0.000    0.000    0.000 
#    0.000    0.000    0.000    0.000    0.000    0.000 
#
# Total GULP energy -535843.608594 kJ/mol
# GULP energy per Si atom -5581.704256 kJ/mol
# Density = 2.014603 g / cm^3
# Si number density = 20.191986 Si / 1000 Ang^3
#
#
#
# Elastic Constant Matrix: (Units=GPa)
#
#
# Indices 1 2 3 4 5 6 
#
# 1 70.3369 101.9389 16.1064 0.0000 0.0000 0.0000
# 2 101.9389 70.3369 16.1064 0.0000 0.0000 0.0000
# 3 16.1064 16.1064 15.2330 0.0000 0.0000 0.0000
# 4 0.0000 0.0000 0.0000 26.9164 0.0000 0.0000
# 5 0.0000 0.0000 0.0000 0.0000 26.9164 0.0000
# 6 0.0000 0.0000 0.0000 0.0000 0.0000 28.9763
#
#
#
# Elastic Compliance Matrix: (Units=1/GPa)
#
#
# Indices 1 2 3 4 5 6 
#
# 1 -0.012204 0.019439 -0.007650 0.000000 0.000000 0.000000
# 2 0.019439 -0.012204 -0.007650 0.000000 0.000000 0.000000
# 3 -0.007650 -0.007650 0.081824 0.000000 0.000000 0.000000
# 4 0.000000 0.000000 0.000000 0.037152 0.000000 0.000000
# 5 0.000000 0.000000 0.000000 0.000000 0.037152 0.000000
# 6 0.000000 0.000000 0.000000 0.000000 0.000000 0.034511
#
#
# Mechanical properties :
#
#
# Convention : Reuss Voigt Hill
#
# Bulk Modulus (GPa) = 15.22192 47.13447 31.17820
# Shear Modulus (GPa) = 27.80088 18.01215 22.90652
#
# Velocity S-wave (km/s) = 3.71459 2.98995 3.37179
# Velocity P-wave (km/s) = 5.09436 5.94252 5.53471
#
# Compressibility (1/GPa) = 0.06569474
#
# Stress axis : x y z
#
# Youngs Moduli (GPa) = -81.93882 -81.93882 12.22130
#
# Poissons Ratio (x) = 1.59283 0.09349
# Poissons Ratio (y) = 1.59283 0.09349
# Poissons Ratio (z) = -0.62683 -0.62683
#
# Static dielectric constant tensor:
#      x y z
#    x 1.736120 0.000000 0.000000 
#    y 0.000000 1.736120 0.000000 
#    z 0.000000 0.000000 1.684390 
# 
# From -- ./inp_files/2012.got.cif
#   From: 2010.05.17/outbox.cif.g08.bks.cpg/sg127_2_cif.got.tgz:2012.got - 2010.05.20 12:03:00.
