data_PCOD9564226
_publ_section_title
;
Structure prediction by ZEFSAII (Michael W. Deem and Ramdas Pophale) SiO2 
 PCOD9564226
Probable space group: P 4/M B M
;
_chemical_formula_sum "Si O2"
_cell_formula_units_Z 96
_cell_length_a 24.331170
_cell_length_b 24.331170
_cell_length_c 8.664354
_cell_angle_alpha 90.000000
_cell_angle_beta 90.000000
_cell_angle_gamma 90.000000
_cell_volume 5129.348112
_symmetry_space_group_name_H-M "P 4/M B M"
_symmetry_group_IT_number 127
_symmetry_cell_setting 'tetragonal'
loop_
_space_group_symop_operation_xyz
x,y,z
-y,x,z
-x,-y,z
y,-x,z
1/2+x,1/2-y,-z
1/2-x,1/2+y,-z
1/2+y,1/2+x,-z
1/2-y,1/2-x,-z
-x,-y,-z
y,-x,-z
x,y,-z
-y,x,-z
1/2-x,1/2+y,z
1/2+x,1/2-y,z
1/2-y,1/2-x,z
1/2+y,1/2+x,z
loop_
_atom_site_type_symbol
_atom_site_label
_atom_site_fract_x
_atom_site_fract_y
_atom_site_fract_z
Si Si1 0.999895 0.411366 0.812117
Si Si2 0.365151 0.225382 0.683333
Si Si3 0.189663 0.221225 0.815793
Si Si4 0.034548 0.083199 0.186114
Si Si5 0.299936 0.429187 0.683124
Si Si6 0.014843 0.713578 0.184384
O O1 0.052804 0.447197 0.764432
O O2 0.945971 0.445971 0.763296
O O3 0.999534 0.348430 0.761977
O O4 0.999366 0.411023 0.000000
O O5 0.374855 0.228045 0.500000
O O6 0.328995 0.171006 0.716817
O O7 0.327650 0.276255 0.736018
O O8 0.422007 0.224045 0.773130
O O9 0.222584 0.277416 0.779545
O O10 0.127700 0.219773 0.758473
O O11 0.191447 0.213558 0.000000
O O12 0.056373 0.138615 0.260917
O O13 0.971172 0.069622 0.227639
O O14 0.036788 0.088554 0.000000
O O15 0.299461 0.423895 0.500000
O O16 0.258722 0.476834 0.736620
O O17 0.007293 0.716608 0.000000
#
# Coordination Sequence:
#
# PCOD9564226 Si02
#       6
#    16  16  16  16  16  16
#     4   8  15  30  54  84 115 147 189 244 298 343
#     4  10  21  38  61  89 121 155 193 244 306 361
#     4  10  22  42  66  88 113 152 202 249 296 355
#     4   9  20  41  67  91 116 150 196 248 301 357
#     4  12  26  40  58  87 125 163 199 245 304 362
#     4  11  22  36  57  86 119 157 203 247 291 350
#
# _framework density 18.71583
#
# number of rings (size 3 to 8) (size 9 to 14) (size 15 to 20)
#    0.000    2.000    0.000    4.500    2.333    4.000 
#    0.000    2.500    0.000    1.500    0.000    5.833 
#    0.000    0.000    0.000    0.000    0.000    0.000 
#
# Total GULP energy -536319.635748 kJ/mol
# GULP energy per Si atom -5586.662872 kJ/mol
# Density = 1.867323 g / cm^3
# Si number density = 18.715830 Si / 1000 Ang^3
#
#
#
# Elastic Constant Matrix: (Units=GPa)
#
#
# Indices 1 2 3 4 5 6 
#
# 1 427.8472 -319.0558 10.9503 0.0000 0.0000 0.0000
# 2 -319.0558 427.8472 10.9503 0.0000 0.0000 0.0000
# 3 10.9503 10.9503 27.0185 0.0000 0.0000 0.0000
# 4 0.0000 0.0000 0.0000 12.3544 0.0000 0.0000
# 5 0.0000 0.0000 0.0000 0.0000 12.3544 0.0000
# 6 0.0000 0.0000 0.0000 0.0000 0.0000 10.8741
#
#
#
# Elastic Compliance Matrix: (Units=1/GPa)
#
#
# Indices 1 2 3 4 5 6 
#
# 1 0.005674 0.004335 -0.004056 0.000000 0.000000 0.000000
# 2 0.004335 0.005674 -0.004056 0.000000 0.000000 0.000000
# 3 -0.004056 -0.004056 0.040300 0.000000 0.000000 0.000000
# 4 0.000000 0.000000 0.000000 0.080943 0.000000 0.000000
# 5 0.000000 0.000000 0.000000 0.000000 0.080943 0.000000
# 6 0.000000 0.000000 0.000000 0.000000 0.000000 0.091962
#
#
# Mechanical properties :
#
#
# Convention : Reuss Voigt Hill
#
# Bulk Modulus (GPa) = 22.68020 32.04470 27.36245
# Shear Modulus (GPa) = 15.25563 85.77443 50.51503
#
# Velocity S-wave (km/s) = 2.85813 6.77712 5.20088
# Velocity P-wave (km/s) = 4.79962 8.85427 7.12160
#
# Compressibility (1/GPa) = 0.04409131
#
# Stress axis : x y z
#
# Youngs Moduli (GPa) = 176.25289 176.25289 24.81416
#
# Poissons Ratio (x) = -0.76402 0.10065
# Poissons Ratio (y) = -0.76402 0.10065
# Poissons Ratio (z) = 0.71493 0.71493
#
# Static dielectric constant tensor:
#      x y z
#    x 1.625230 0.000000 0.000000 
#    y 0.000000 1.625230 0.000000 
#    z 0.000000 0.000000 1.626890 
# 
# From -- ./inp_files/1950.got.cif
#   From: 2010.05.17/outbox.cif.g08.bks.cpg/sg127_1_cif.got.tgz:1950.got - 2010.05.20 12:03:00.
