data_PCOD9564552
_publ_section_title
;
Structure prediction by ZEFSAII (Michael W. Deem and Ramdas Pophale) SiO2 
 PCOD9564552
Probable space group: P 4/M N C
;
_chemical_formula_sum "Si O2"
_cell_formula_units_Z 80
_cell_length_a 12.960804
_cell_length_b 12.960804
_cell_length_c 27.998831
_cell_angle_alpha 90.000000
_cell_angle_beta 90.000000
_cell_angle_gamma 90.000000
_cell_volume 4703.311958
_symmetry_space_group_name_H-M "P 4/M N C"
_symmetry_group_IT_number 128
_symmetry_cell_setting 'tetragonal'
loop_
_space_group_symop_operation_xyz
x,y,z
-y,x,z
-x,-y,z
y,-x,z
1/2+x,1/2-y,1/2-z
1/2-x,1/2+y,1/2-z
1/2+y,1/2+x,1/2-z
1/2-y,1/2-x,1/2-z
-x,-y,-z
y,-x,-z
x,y,-z
-y,x,-z
1/2-x,1/2+y,1/2+z
1/2+x,1/2-y,1/2+z
1/2-y,1/2-x,1/2+z
1/2+y,1/2+x,1/2+z
loop_
_atom_site_type_symbol
_atom_site_label
_atom_site_fract_x
_atom_site_fract_y
_atom_site_fract_z
Si Si1 0.240449 0.305500 0.140718
Si Si2 0.281916 0.623182 0.226409
Si Si3 0.885778 0.548824 0.799854
Si Si4 0.606138 0.364917 0.943515
Si Si5 0.629157 0.395321 0.671830
O O1 0.328677 0.333282 0.179734
O O2 0.144960 0.376666 0.157106
O O3 0.285472 0.332956 0.089521
O O4 0.208620 0.186572 0.149418
O O5 0.209815 0.709815 0.250000
O O6 0.202688 0.535588 0.209092
O O7 0.356898 0.599844 0.270494
O O8 0.888799 0.611202 0.750000
O O9 0.000000 0.500000 0.805589
O O10 0.639949 0.483165 0.933598
O O11 0.620583 0.346703 0.000000
O O12 0.640989 0.514515 0.657681
#
# Coordination Sequence:
#
# PCOD9564552 Si02
#       5
#    16  16  16  16  16
#     4  11  21  31  54  80 105 142 186 220 271 323
#     4  10  18  31  48  72 107 142 184 220 256 310
#     4  11  20  32  49  75 113 152 182 222 269 319
#     4   9  19  38  61  84 109 134 167 220 285 341
#     4  10  21  34  49  72 109 152 187 221 258 304
#
# _framework density 17.009291000000001
#
# number of rings (size 3 to 8) (size 9 to 14) (size 15 to 20)
#    0.000    1.800    2.000    6.000    2.800    0.000 
#    0.000    2.000    0.000    1.800    0.000    1.400 
#    0.000    0.000    0.000    0.000    0.000    0.000 
#
# Total GULP energy -446074.052112 kJ/mol
# GULP energy per Si atom -5575.925651 kJ/mol
# Density = 1.697058 g / cm^3
# Si number density = 17.009291 Si / 1000 Ang^3
#
#
#
# Elastic Constant Matrix: (Units=GPa)
#
#
# Indices 1 2 3 4 5 6 
#
# 1 61.9876 47.2045 34.7497 0.0000 0.0000 0.0000
# 2 47.2045 61.9865 34.7493 0.0000 0.0000 0.0000
# 3 34.7497 34.7493 60.6997 0.0000 0.0000 0.0000
# 4 0.0000 0.0000 0.0000 22.0085 0.0000 0.0000
# 5 0.0000 0.0000 0.0000 0.0000 22.0084 0.0000
# 6 0.0000 0.0000 0.0000 0.0000 0.0000 33.7150
#
#
#
# Elastic Compliance Matrix: (Units=1/GPa)
#
#
# Indices 1 2 3 4 5 6 
#
# 1 0.041028 -0.026620 -0.008249 0.000000 0.000000 0.000000
# 2 -0.026620 0.041028 -0.008248 0.000000 0.000000 0.000000
# 3 -0.008249 -0.008248 0.025919 0.000000 0.000000 0.000000
# 4 0.000000 0.000000 0.000000 0.045437 0.000000 0.000000
# 5 0.000000 0.000000 0.000000 0.000000 0.045437 0.000000
# 6 0.000000 0.000000 0.000000 0.000000 0.000000 0.029660
#
#
# Mechanical properties :
#
#
# Convention : Reuss Voigt Hill
#
# Bulk Modulus (GPa) = 45.99525 46.45344 46.22435
# Shear Modulus (GPa) = 15.52847 20.07773 17.80310
#
# Velocity S-wave (km/s) = 3.02477 3.43942 3.23874
# Velocity P-wave (km/s) = 6.26889 6.56831 6.42034
#
# Compressibility (1/GPa) = 0.02174138
#
# Stress axis : x y z
#
# Youngs Moduli (GPa) = 24.37389 24.37350 38.58209
#
# Poissons Ratio (x) = 0.64881 0.31824
# Poissons Ratio (y) = 0.64882 0.31824
# Poissons Ratio (z) = 0.20105 0.20104
#
# Static dielectric constant tensor:
#      x y z
#    x 1.621370 0.000000 0.000000 
#    y 0.000000 1.621370 0.000000 
#    z 0.000000 0.000000 1.558360 
# 
# From -- ./inp_files/6300.got.cif
#   From: 2010.05.17/outbox.cif.g08.bks.cpg/sg128_4_cif.got.tgz:6300.got - 2010.05.20 12:07:25.
