data_PCOD9564176
_publ_section_title
;
Structure prediction by ZEFSAII (Michael W. Deem and Ramdas Pophale) SiO2 
 PCOD9564176
Probable space group: P 4/M B M
;
_chemical_formula_sum "Si O2"
_cell_formula_units_Z 96
_cell_length_a 24.571408
_cell_length_b 24.571408
_cell_length_c 8.935838
_cell_angle_alpha 90.000000
_cell_angle_beta 90.000000
_cell_angle_gamma 90.000000
_cell_volume 5395.048750
_symmetry_space_group_name_H-M "P 4/M B M"
_symmetry_group_IT_number 127
_symmetry_cell_setting 'tetragonal'
loop_
_space_group_symop_operation_xyz
x,y,z
-y,x,z
-x,-y,z
y,-x,z
1/2+x,1/2-y,-z
1/2-x,1/2+y,-z
1/2+y,1/2+x,-z
1/2-y,1/2-x,-z
-x,-y,-z
y,-x,-z
x,y,-z
-y,x,-z
1/2-x,1/2+y,z
1/2+x,1/2-y,z
1/2-y,1/2-x,z
1/2+y,1/2+x,z
loop_
_atom_site_type_symbol
_atom_site_label
_atom_site_fract_x
_atom_site_fract_y
_atom_site_fract_z
Si Si1 0.936308 0.062980 0.819579
Si Si2 0.860076 0.272443 0.321120
Si Si3 0.055903 0.645300 0.176677
Si Si4 0.146121 0.150060 0.679373
Si Si5 0.560546 0.149317 0.674997
Si Si6 0.231757 0.356238 0.821137
O O1 0.894094 0.104503 0.745846
O O2 0.999569 0.074689 0.779451
O O3 0.932184 0.066970 0.000000
O O4 0.868853 0.277530 0.500000
O O5 0.802304 0.302304 0.288524
O O6 0.905608 0.306290 0.234549
O O7 0.862385 0.209132 0.281977
O O8 0.090289 0.590289 0.201783
O O9 0.000101 0.645270 0.265719
O O10 0.045927 0.651002 0.000000
O O11 0.141180 0.150811 0.500000
O O12 0.136768 0.210182 0.744320
O O13 0.561927 0.164419 0.500000
O O14 0.592422 0.092422 0.691511
O O15 0.594780 0.193070 0.768743
O O16 0.199152 0.300849 0.777284
O O17 0.237668 0.356128 0.000000
#
# Coordination Sequence:
#
# PCOD9564176 Si02
#       6
#    16  16  16  16  16  16
#     4   9  20  40  61  79 105 143 184 227 274 320
#     4   9  19  36  55  76 108 148 185 223 268 320
#     4  10  21  36  55  80 110 145 185 230 278 326
#     4  11  22  35  57  87 114 143 179 219 268 327
#     4  10  21  37  57  80 108 144 185 229 276 326
#     4  10  21  37  57  81 111 146 182 223 270 319
#
# _framework density 17.794094000000001
#
# number of rings (size 3 to 8) (size 9 to 14) (size 15 to 20)
#    0.000    2.167    0.000    3.000    0.000    7.333 
#    0.000    7.500    0.000    0.000    0.000    0.000 
#    0.000    0.000    0.000    0.000    0.000    0.000 
#
# Total GULP energy -535897.500885 kJ/mol
# GULP energy per Si atom -5582.265634 kJ/mol
# Density = 1.775359 g / cm^3
# Si number density = 17.794094 Si / 1000 Ang^3
#
#
#
# Elastic Constant Matrix: (Units=GPa)
#
#
# Indices 1 2 3 4 5 6 
#
# 1 153.8346 42.8302 51.4875 0.0000 0.0000 0.0000
# 2 42.8302 153.8346 51.4875 0.0000 0.0000 0.0000
# 3 51.4875 51.4875 42.8491 0.0000 0.0000 0.0000
# 4 0.0000 0.0000 0.0000 29.8136 0.0000 0.0000
# 5 0.0000 0.0000 0.0000 0.0000 29.8136 0.0000
# 6 0.0000 0.0000 0.0000 0.0000 0.0000 20.1563
#
#
#
# Elastic Compliance Matrix: (Units=1/GPa)
#
#
# Indices 1 2 3 4 5 6 
#
# 1 0.011360 0.002352 -0.016476 0.000000 0.000000 0.000000
# 2 0.002352 0.011360 -0.016476 0.000000 0.000000 0.000000
# 3 -0.016476 -0.016476 0.062933 0.000000 0.000000 0.000000
# 4 0.000000 0.000000 0.000000 0.033542 0.000000 0.000000
# 5 0.000000 0.000000 0.000000 0.000000 0.033542 0.000000
# 6 0.000000 0.000000 0.000000 0.000000 0.000000 0.049612
#
#
# Mechanical properties :
#
#
# Convention : Reuss Voigt Hill
#
# Bulk Modulus (GPa) = 40.89589 71.34763 56.12176
# Shear Modulus (GPa) = 18.40251 29.60424 24.00337
#
# Velocity S-wave (km/s) = 3.21937 4.08329 3.67679
# Velocity P-wave (km/s) = 6.07058 7.90027 7.04508
#
# Compressibility (1/GPa) = 0.02445233
#
# Stress axis : x y z
#
# Youngs Moduli (GPa) = 88.02624 88.02624 15.88981
#
# Poissons Ratio (x) = -0.20700 0.26180
# Poissons Ratio (y) = -0.20700 0.26180
# Poissons Ratio (z) = 1.45034 1.45034
#
# Static dielectric constant tensor:
#      x y z
#    x 1.585760 0.000000 0.000000 
#    y 0.000000 1.585760 0.000000 
#    z 0.000000 0.000000 1.593980 
# 
# From -- ./inp_files/1934.got.cif
#   From: 2010.05.17/outbox.cif.g08.bks.cpg/sg127_1_cif.got.tgz:1934.got - 2010.05.20 12:03:00.
