data_PCOD9564506
_publ_section_title
;
Structure prediction by ZEFSAII (Michael W. Deem and Ramdas Pophale) SiO2 
 PCOD9564506
Probable space group: P 4/M B M
;
_chemical_formula_sum "Si O2"
_cell_formula_units_Z 96
_cell_length_a 24.000000
_cell_length_b 24.000000
_cell_length_c 9.000000
_cell_angle_alpha 90.000000
_cell_angle_beta 90.000000
_cell_angle_gamma 90.000000
_cell_volume 5184.000000
_symmetry_space_group_name_H-M "P 4/M B M"
_symmetry_group_IT_number 127
_symmetry_cell_setting 'tetragonal'
loop_
_space_group_symop_operation_xyz
x,y,z
-y,x,z
-x,-y,z
y,-x,z
1/2+x,1/2-y,-z
1/2-x,1/2+y,-z
1/2+y,1/2+x,-z
1/2-y,1/2-x,-z
-x,-y,-z
y,-x,-z
x,y,-z
-y,x,-z
1/2-x,1/2+y,z
1/2+x,1/2-y,z
1/2-y,1/2-x,z
1/2+y,1/2+x,z
loop_
_atom_site_type_symbol
_atom_site_label
_atom_site_fract_x
_atom_site_fract_y
_atom_site_fract_z
Si Si1 0.072723 0.947679 0.819080
Si Si2 0.845210 0.252450 0.323452
Si Si3 0.073926 0.668496 0.167418
Si Si4 0.132792 0.171050 0.822620
Si Si5 0.620186 0.032344 0.673170
Si Si6 0.215063 0.373234 0.672898
O O1 0.123533 0.909711 0.768829
O O2 0.012269 0.924499 0.772830
O O3 0.073225 0.947615 0.000000
O O4 0.845714 0.245837 0.500000
O O5 0.793775 0.293775 0.285126
O O6 0.901439 0.282632 0.268852
O O7 0.838343 0.193647 0.244987
O O8 0.121684 0.621684 0.163891
O O9 0.019527 0.639486 0.232070
O O10 0.064495 0.689013 0.000000
O O11 0.113798 0.231824 0.770486
O O12 0.135861 0.168565 0.000000
O O13 0.613398 0.016323 0.500000
O O14 0.563797 0.063797 0.721757
O O15 0.669027 0.078451 0.679741
O O16 0.231577 0.366676 0.500000
O O17 0.183643 0.316358 0.718879
#
# Coordination Sequence:
#
# PCOD9564506 Si02
#       6
#    16  16  16  16  16  16
#     4   8  16  33  53  72 100 136 168 201 246 301
#     4  10  21  37  55  74 102 142 180 212 255 314
#     4  10  21  36  54  78 108 139 174 222 274 317
#     4  11  21  31  52  85 109 130 170 219 265 313
#     4   9  19  36  56  77 104 142 185 223 261 313
#     4   9  19  36  54  73 103 142 179 214 256 309
#
# _framework density 18.518519000000001
#
# number of rings (size 3 to 8) (size 9 to 14) (size 15 to 20)
#    0.000    2.500    0.000    3.500    0.000    7.000 
#    0.000    5.000    0.000    3.000    0.000    4.667 
#    0.000    0.000    0.000    0.000    0.000    0.000 
#
# Total GULP energy -535527.905740 kJ/mol
# GULP energy per Si atom -5578.415685 kJ/mol
# Density = 1.847637 g / cm^3
# Si number density = 18.518519 Si / 1000 Ang^3
#
#
#
# Elastic Constant Matrix: (Units=GPa)
#
#
# Indices 1 2 3 4 5 6 
#
# 1 45.9786 -15.6746 22.4459 0.0000 0.0000 0.0000
# 2 -15.6746 45.9786 22.4459 0.0000 0.0000 0.0000
# 3 22.4459 22.4459 35.5510 0.0000 0.0000 0.0000
# 4 0.0000 0.0000 0.0000 25.9426 0.0000 0.0000
# 5 0.0000 0.0000 0.0000 0.0000 25.9426 0.0000
# 6 0.0000 0.0000 0.0000 0.0000 0.0000 18.5200
#
#
#
# Elastic Compliance Matrix: (Units=1/GPa)
#
#
# Indices 1 2 3 4 5 6 
#
# 1 0.263158 0.246938 -0.322061 0.000000 0.000000 0.000000
# 2 0.246938 0.263158 -0.322061 0.000000 0.000000 0.000000
# 3 -0.322061 -0.322061 0.434811 0.000000 0.000000 0.000000
# 4 0.000000 0.000000 0.000000 0.038547 0.000000 0.000000
# 5 0.000000 0.000000 0.000000 0.000000 0.038547 0.000000
# 6 0.000000 0.000000 0.000000 0.000000 0.000000 0.053996
#
#
# Mechanical properties :
#
#
# Convention : Reuss Voigt Hill
#
# Bulk Modulus (GPa) = 5.99673 20.66030 13.32852
# Shear Modulus (GPa) = 2.57444 20.63375 11.60410
#
# Velocity S-wave (km/s) = 1.18035 3.34162 2.50596
# Velocity P-wave (km/s) = 2.25896 5.10581 3.94793
#
# Compressibility (1/GPa) = 0.16675745
#
# Stress axis : x y z
#
# Youngs Moduli (GPa) = 3.80000 3.80000 2.29985
#
# Poissons Ratio (x) = -0.93836 0.74069
# Poissons Ratio (y) = -0.93836 0.74069
# Poissons Ratio (z) = 1.22383 1.22383
#
# Static dielectric constant tensor:
#      x y z
#    x 1.631840 0.000000 0.000000 
#    y 0.000000 1.631840 0.000000 
#    z 0.000000 0.000000 1.630660 
# 
# From -- ./inp_files/1932.got.cif
#   From: 2010.05.17/outbox.ucp.g08.bks.cvg/sg127_1_cif.got.tgz:1932.got - 2010.06.11 11:37:05.
