data_PCOD9564197
_publ_section_title
;
Structure prediction by ZEFSAII (Michael W. Deem and Ramdas Pophale) SiO2 
 PCOD9564197
Probable space group: P 4/M B M
;
_chemical_formula_sum "Si O2"
_cell_formula_units_Z 80
_cell_length_a 14.283791
_cell_length_b 14.283791
_cell_length_c 23.315228
_cell_angle_alpha 90.000000
_cell_angle_beta 90.000000
_cell_angle_gamma 90.000000
_cell_volume 4756.928687
_symmetry_space_group_name_H-M "P 4/M B M"
_symmetry_group_IT_number 127
_symmetry_cell_setting 'tetragonal'
loop_
_space_group_symop_operation_xyz
x,y,z
-y,x,z
-x,-y,z
y,-x,z
1/2+x,1/2-y,-z
1/2-x,1/2+y,-z
1/2+y,1/2+x,-z
1/2-y,1/2-x,-z
-x,-y,-z
y,-x,-z
x,y,-z
-y,x,-z
1/2-x,1/2+y,z
1/2+x,1/2-y,z
1/2-y,1/2-x,z
1/2+y,1/2+x,z
loop_
_atom_site_type_symbol
_atom_site_label
_atom_site_fract_x
_atom_site_fract_y
_atom_site_fract_z
Si Si1 0.757070 0.101258 0.068282
Si Si2 0.243177 0.898564 0.681650
Si Si3 0.743699 0.399428 0.260842
Si Si4 0.743082 0.399188 0.124397
Si Si5 0.060076 0.146295 0.565200
O O1 0.665884 0.165884 0.078767
O O2 0.843539 0.156290 0.096743
O O3 0.746153 0.999821 0.095777
O O4 0.770887 0.094420 0.000000
O O5 0.335092 0.835092 0.688693
O O6 0.158242 0.842158 0.711712
O O7 0.216428 0.911148 0.615042
O O8 0.252886 0.999558 0.710565
O O9 0.835707 0.335707 0.270580
O O10 0.729848 0.408130 0.192623
O O11 0.834002 0.334002 0.114269
O O12 0.074242 0.180328 0.500000
O O13 0.950985 0.117348 0.571506
#
# Coordination Sequence:
#
# PCOD9564197 Si02
#       5
#    16  16  16  16  16
#     4  10  21  37  57  81 108 140 180 224 270 323
#     4  11  21  35  57  81 110 147 185 226 276 326
#     4  10  22  37  55  82 110 142 184 224 269 329
#     4  10  21  38  57  79 111 145 178 221 273 324
#     4   9  17  32  55  82 111 142 183 233 276 318
#
# _framework density 16.817574
#
# number of rings (size 3 to 8) (size 9 to 14) (size 15 to 20)
#    0.000    2.000    2.000    2.400    0.000    5.600 
#    0.000    6.000    0.000    0.600    0.000    1.400 
#    0.000    0.000    0.000    0.000    0.000    0.000 
#
# Total GULP energy -446588.814280 kJ/mol
# GULP energy per Si atom -5582.360178 kJ/mol
# Density = 1.677930 g / cm^3
# Si number density = 16.817574 Si / 1000 Ang^3
#
#
#
# Elastic Constant Matrix: (Units=GPa)
#
#
# Indices 1 2 3 4 5 6 
#
# 1 121.4318 52.9377 77.6368 0.0000 0.0000 0.0000
# 2 52.9377 121.4318 77.6368 0.0000 0.0000 0.0000
# 3 77.6368 77.6368 125.2874 0.0000 0.0000 0.0000
# 4 0.0000 0.0000 0.0000 25.3613 0.0000 0.0000
# 5 0.0000 0.0000 0.0000 0.0000 25.3613 0.0000
# 6 0.0000 0.0000 0.0000 0.0000 0.0000 5.5355
#
#
#
# Elastic Compliance Matrix: (Units=1/GPa)
#
#
# Indices 1 2 3 4 5 6 
#
# 1 0.013698 -0.000902 -0.007929 0.000000 0.000000 0.000000
# 2 -0.000902 0.013698 -0.007929 0.000000 0.000000 0.000000
# 3 -0.007929 -0.007929 0.017808 0.000000 0.000000 0.000000
# 4 0.000000 0.000000 0.000000 0.039430 0.000000 0.000000
# 5 0.000000 0.000000 0.000000 0.000000 0.039430 0.000000
# 6 0.000000 0.000000 0.000000 0.000000 0.000000 0.180651
#
#
# Mechanical properties :
#
#
# Convention : Reuss Voigt Hill
#
# Bulk Modulus (GPa) = 85.59093 87.17482 86.38288
# Shear Modulus (GPa) = 14.61433 21.91430 18.26431
#
# Velocity S-wave (km/s) = 2.95106 3.61371 3.29907
# Velocity P-wave (km/s) = 7.91302 8.32826 8.12330
#
# Compressibility (1/GPa) = 0.01168348
#
# Stress axis : x y z
#
# Youngs Moduli (GPa) = 73.00470 73.00470 56.15299
#
# Poissons Ratio (x) = 0.06585 0.44524
# Poissons Ratio (y) = 0.06585 0.44524
# Poissons Ratio (z) = 0.57886 0.57886
#
# Static dielectric constant tensor:
#      x y z
#    x 1.540940 0.000000 0.000000 
#    y 0.000000 1.540940 0.000000 
#    z 0.000000 0.000000 1.559890 
# 
# From -- ./inp_files/5612.got.cif
#   From: 2010.05.17/outbox.cif.g08.bks.cpg/sg127_3_cif.got.tgz:5612.got - 2010.05.20 12:03:00.
