data_PCOD9564106
_publ_section_title
;
Structure prediction by ZEFSAII (Michael W. Deem and Ramdas Pophale) SiO2 
 PCOD9564106
Probable space group: P 4/M B M
;
_chemical_formula_sum "Si O2"
_cell_formula_units_Z 128
_cell_length_a 23.790135
_cell_length_b 23.790135
_cell_length_c 13.045919
_cell_angle_alpha 90.000000
_cell_angle_beta 90.000000
_cell_angle_gamma 90.000000
_cell_volume 7383.605604
_symmetry_space_group_name_H-M "P 4/M B M"
_symmetry_group_IT_number 127
_symmetry_cell_setting 'tetragonal'
loop_
_space_group_symop_operation_xyz
x,y,z
-y,x,z
-x,-y,z
y,-x,z
1/2+x,1/2-y,-z
1/2-x,1/2+y,-z
1/2+y,1/2+x,-z
1/2-y,1/2-x,-z
-x,-y,-z
y,-x,-z
x,y,-z
-y,x,-z
1/2-x,1/2+y,z
1/2+x,1/2-y,z
1/2-y,1/2-x,z
1/2+y,1/2+x,z
loop_
_atom_site_type_symbol
_atom_site_label
_atom_site_fract_x
_atom_site_fract_y
_atom_site_fract_z
Si Si1 0.041644 0.190253 0.119876
Si Si2 0.279750 0.020546 0.745773
Si Si3 0.850999 0.742751 0.387862
Si Si4 0.131731 0.726645 0.879080
Si Si5 0.554202 0.673657 0.619905
Si Si6 0.646663 0.054328 0.619144
Si Si7 0.656382 0.341374 0.227152
Si Si8 0.406258 0.503668 0.761499
O O1 0.101210 0.165608 0.157479
O O2 0.023544 0.245504 0.182967
O O3 0.997279 0.141492 0.151308
O O4 0.041452 0.201018 0.000000
O O5 0.288013 0.076475 0.812962
O O6 0.235846 0.034994 0.654177
O O7 0.335757 0.994632 0.696605
O O8 0.856841 0.770482 0.500000
O O9 0.796137 0.703864 0.389120
O O10 0.902757 0.699723 0.376102
O O11 0.845137 0.786692 0.298311
O O12 0.180245 0.680245 0.863795
O O13 0.152900 0.787397 0.839969
O O14 0.118281 0.729333 0.000000
O O15 0.565848 0.670546 0.500000
O O16 0.606526 0.657857 0.693280
O O17 0.506777 0.629197 0.656202
O O18 0.641721 0.036136 0.500000
O O19 0.591556 0.091556 0.644206
O O20 0.444718 0.448836 0.768459
#
# Coordination Sequence:
#
# PCOD9564106 Si02
#       8
#    16  16  16  16  16  16  16  16
#     4  11  22  35  53  75 102 142 185 234 284 324
#     4  10  20  37  57  81 112 142 181 230 274 336
#     4   9  17  29  49  78 111 145 174 206 257 322
#     4  10  22  39  60  82 106 146 193 234 281 334
#     4  10  21  34  52  76 105 142 181 226 276 327
#     4   9  17  31  55  86 117 147 176 210 262 331
#     4  11  19  35  53  78 112 140 181 229 272 331
#     4  10  21  38  49  67  97 131 187 233 279 325
#
# _framework density 17.335702999999999
#
# number of rings (size 3 to 8) (size 9 to 14) (size 15 to 20)
#    0.000    2.000    2.500    2.625    0.000    1.000 
#    0.000    1.250    0.000   10.125    0.000    1.750 
#    0.000    0.000    0.000    0.000    0.000    0.000 
#
# Total GULP energy -713854.224930 kJ/mol
# GULP energy per Si atom -5576.986132 kJ/mol
# Density = 1.729625 g / cm^3
# Si number density = 17.335703 Si / 1000 Ang^3
#
#
#
# Elastic Constant Matrix: (Units=GPa)
#
#
# Indices 1 2 3 4 5 6 
#
# 1 54.2934 16.5961 30.6663 0.0000 0.0000 0.0000
# 2 16.5961 54.2934 30.6663 0.0000 0.0000 0.0000
# 3 30.6663 30.6663 101.7753 0.0000 0.0000 0.0000
# 4 0.0000 0.0000 0.0000 20.4912 0.0000 0.0000
# 5 0.0000 0.0000 0.0000 0.0000 20.4912 0.0000
# 6 0.0000 0.0000 0.0000 0.0000 0.0000 23.1710
#
#
#
# Elastic Compliance Matrix: (Units=1/GPa)
#
#
# Indices 1 2 3 4 5 6 
#
# 1 0.022804 -0.003723 -0.005749 0.000000 0.000000 0.000000
# 2 -0.003723 0.022804 -0.005749 0.000000 0.000000 0.000000
# 3 -0.005749 -0.005749 0.013290 0.000000 0.000000 0.000000
# 4 0.000000 0.000000 0.000000 0.048801 0.000000 0.000000
# 5 0.000000 0.000000 0.000000 0.000000 0.048801 0.000000
# 6 0.000000 0.000000 0.000000 0.000000 0.000000 0.043157
#
#
# Mechanical properties :
#
#
# Convention : Reuss Voigt Hill
#
# Bulk Modulus (GPa) = 35.14389 40.69107 37.91748
# Shear Modulus (GPa) = 20.86930 21.65959 21.26444
#
# Velocity S-wave (km/s) = 3.47339 3.53855 3.50612
# Velocity P-wave (km/s) = 6.03345 6.34180 6.18955
#
# Compressibility (1/GPa) = 0.02845445
#
# Stress axis : x y z
#
# Youngs Moduli (GPa) = 43.85222 43.85222 75.24324
#
# Poissons Ratio (x) = 0.16327 0.43259
# Poissons Ratio (y) = 0.16327 0.43259
# Poissons Ratio (z) = 0.25212 0.25212
#
# Static dielectric constant tensor:
#      x y z
#    x 1.606230 0.000000 0.000000 
#    y 0.000000 1.606230 0.000000 
#    z 0.000000 0.000000 1.574020 
# 
# From -- ./inp_files/3870.got.cif
#   From: 2010.05.17/outbox.cif.g08.bks.cpg/sg127_2_cif.got.tgz:3870.got - 2010.05.20 12:03:00.
