data_PCOD9564645
_publ_section_title
;
Structure prediction by ZEFSAII (Michael W. Deem and Ramdas Pophale) SiO2 
 PCOD9564645
Probable space group: P 4/M N C
;
_chemical_formula_sum "Si O2"
_cell_formula_units_Z 64
_cell_length_a 15.680143
_cell_length_b 15.680143
_cell_length_c 14.014555
_cell_angle_alpha 90.000000
_cell_angle_beta 90.000000
_cell_angle_gamma 90.000000
_cell_volume 3445.714976
_symmetry_space_group_name_H-M "P 4/M N C"
_symmetry_group_IT_number 128
_symmetry_cell_setting 'tetragonal'
loop_
_space_group_symop_operation_xyz
x,y,z
-y,x,z
-x,-y,z
y,-x,z
1/2+x,1/2-y,1/2-z
1/2-x,1/2+y,1/2-z
1/2+y,1/2+x,1/2-z
1/2-y,1/2-x,1/2-z
-x,-y,-z
y,-x,-z
x,y,-z
-y,x,-z
1/2-x,1/2+y,1/2+z
1/2+x,1/2-y,1/2+z
1/2-y,1/2-x,1/2+z
1/2+y,1/2+x,1/2+z
loop_
_atom_site_type_symbol
_atom_site_label
_atom_site_fract_x
_atom_site_fract_y
_atom_site_fract_z
Si Si1 0.320067 0.351619 0.806111
Si Si2 0.920212 0.555615 0.862424
Si Si3 0.232074 0.021848 0.390526
Si Si4 0.264130 0.848750 0.107287
O O1 0.324814 0.440515 0.862170
O O2 0.402035 0.293366 0.820722
O O3 0.241576 0.302675 0.857205
O O4 0.297123 0.371435 0.695782
O O5 0.932923 0.567078 0.750000
O O6 0.830639 0.507862 0.880976
O O7 0.910005 0.652883 0.897000
O O8 0.000000 0.500000 0.897249
O O9 0.217459 0.047493 0.500000
O O10 0.228085 0.843082 0.000000
#
# Coordination Sequence:
#
# PCOD9564645 Si02
#       4
#    16  16  16  16
#     4  10  21  38  56  84 116 151 197 250 286 350
#     4  10  19  34  58  89 122 151 187 243 299 357
#     4  11  21  37  60  85 116 155 197 246 298 343
#     4  10  19  37  58  78 117 162 191 233 299 359
#
# _framework density 18.573793999999999
#
# number of rings (size 3 to 8) (size 9 to 14) (size 15 to 20)
#    0.000    1.750    5.000    4.500    0.000    6.500 
#    0.000    2.500    0.000    0.000    0.000    1.750 
#    0.000    0.000    0.000    0.000    0.000    0.000 
#
# Total GULP energy -356711.672632 kJ/mol
# GULP energy per Si atom -5573.619885 kJ/mol
# Density = 1.853152 g / cm^3
# Si number density = 18.573794 Si / 1000 Ang^3
#
#
#
# Elastic Constant Matrix: (Units=GPa)
#
#
# Indices 1 2 3 4 5 6 
#
# 1 52.8743 31.5889 22.7303 0.0000 0.0000 0.0000
# 2 31.5889 52.8745 22.7302 0.0000 0.0000 0.0000
# 3 22.7303 22.7302 158.9614 0.0000 0.0000 0.0000
# 4 0.0000 0.0000 0.0000 4.3514 0.0000 0.0000
# 5 0.0000 0.0000 0.0000 0.0000 4.3514 0.0000
# 6 0.0000 0.0000 0.0000 0.0000 0.0000 20.1952
#
#
#
# Elastic Compliance Matrix: (Units=1/GPa)
#
#
# Indices 1 2 3 4 5 6 
#
# 1 0.029904 -0.017077 -0.001834 0.000000 0.000000 0.000000
# 2 -0.017077 0.029903 -0.001834 0.000000 0.000000 0.000000
# 3 -0.001834 -0.001834 0.006815 0.000000 0.000000 0.000000
# 4 0.000000 0.000000 0.000000 0.229811 0.000000 0.000000
# 5 0.000000 0.000000 0.000000 0.000000 0.229812 0.000000
# 6 0.000000 0.000000 0.000000 0.000000 0.000000 0.049517
#
#
# Mechanical properties :
#
#
# Convention : Reuss Voigt Hill
#
# Bulk Modulus (GPa) = 39.78961 46.53432 43.16197
# Shear Modulus (GPa) = 7.99195 18.29032 13.14114
#
# Velocity S-wave (km/s) = 2.07657 3.14146 2.66279
# Velocity P-wave (km/s) = 5.21713 6.18599 5.72211
#
# Compressibility (1/GPa) = 0.02513219
#
# Stress axis : x y z
#
# Youngs Moduli (GPa) = 33.44079 33.44091 146.72736
#
# Poissons Ratio (x) = 0.57107 0.26912
# Poissons Ratio (y) = 0.57107 0.26911
# Poissons Ratio (z) = 0.06133 0.06133
#
# Static dielectric constant tensor:
#      x y z
#    x 1.652560 0.000000 0.000000 
#    y 0.000000 1.652560 0.000000 
#    z 0.000000 0.000000 1.662180 
# 
# From -- ./inp_files/3533.got.cif
#   From: 2010.05.17/outbox.cif.g08.bks.cpg/sg128_2_cif.got.tgz:3533.got - 2010.05.20 12:07:25.
