data_PCOD9564748
_publ_section_title
;
Structure prediction by ZEFSAII (Michael W. Deem and Ramdas Pophale) SiO2 
 PCOD9564748
Probable space group: P 4/M N C
;
_chemical_formula_sum "Si O2"
_cell_formula_units_Z 96
_cell_length_a 23.702114
_cell_length_b 23.702114
_cell_length_c 9.310879
_cell_angle_alpha 90.000000
_cell_angle_beta 90.000000
_cell_angle_gamma 90.000000
_cell_volume 5230.760651
_symmetry_space_group_name_H-M "P 4/M N C"
_symmetry_group_IT_number 128
_symmetry_cell_setting 'tetragonal'
loop_
_space_group_symop_operation_xyz
x,y,z
-y,x,z
-x,-y,z
y,-x,z
1/2+x,1/2-y,1/2-z
1/2-x,1/2+y,1/2-z
1/2+y,1/2+x,1/2-z
1/2-y,1/2-x,1/2-z
-x,-y,-z
y,-x,-z
x,y,-z
-y,x,-z
1/2-x,1/2+y,1/2+z
1/2+x,1/2-y,1/2+z
1/2-y,1/2-x,1/2+z
1/2+y,1/2+x,1/2+z
loop_
_atom_site_type_symbol
_atom_site_label
_atom_site_fract_x
_atom_site_fract_y
_atom_site_fract_z
Si Si1 0.921867 0.054507 0.500000
Si Si2 0.446707 0.138632 0.673652
Si Si3 0.569983 0.730167 0.669833
Si Si4 0.919489 0.952328 0.000000
Si Si5 0.377019 0.375285 0.742246
Si Si6 0.848272 0.566584 0.826431
Si Si7 0.438109 0.734133 0.334634
O O1 0.889187 0.081774 0.631171
O O2 0.986957 0.075377 0.500000
O O3 0.404642 0.095359 0.750000
O O4 0.451537 0.129995 0.500000
O O5 0.425995 0.203031 0.697524
O O6 0.507061 0.134627 0.753073
O O7 0.582933 0.722359 0.500000
O O8 0.611962 0.691183 0.763286
O O9 0.503326 0.716104 0.692420
O O10 0.888457 0.928363 0.864305
O O11 0.981514 0.925730 0.000000
O O12 0.317564 0.394685 0.677989
O O13 0.886213 0.613788 0.750000
O O14 0.783541 0.575781 0.776675
O O15 0.853796 0.565937 0.000000
O O16 0.437487 0.755636 0.500000
#
# Coordination Sequence:
#
# PCOD9564748 Si02
#       7
#     8  16  16   8  16  16  16
#     4  11  24  36  46  72 115 154 196 262 325 362
#     4  10  21  40  65  95 128 157 195 240 294 356
#     4   9  18  35  57  83 114 156 203 250 295 352
#     4  11  20  30  52  80 105 146 206 260 307 358
#     4  12  21  35  55  78 115 160 206 252 304 358
#     4  11  23  41  66  94 125 157 193 237 295 356
#     4  10  20  36  59  85 118 157 205 254 299 354
#
# _framework density 18.352972000000001
#
# number of rings (size 3 to 8) (size 9 to 14) (size 15 to 20)
#    0.000    1.500    1.667    6.000    1.167    1.667 
#    7.500    2.500    0.000    2.000    0.000    0.000 
#    0.000    0.000    0.000    0.000    0.000    0.000 
#
# Total GULP energy -535398.528316 kJ/mol
# GULP energy per Si atom -5577.068003 kJ/mol
# Density = 1.831120 g / cm^3
# Si number density = 18.352972 Si / 1000 Ang^3
#
#
#
# Elastic Constant Matrix: (Units=GPa)
#
#
# Indices 1 2 3 4 5 6 
#
# 1 84.6587 48.0398 29.6942 0.0000 0.0000 0.0000
# 2 48.0398 84.6565 29.6946 0.0000 0.0000 0.0000
# 3 29.6942 29.6946 102.0021 0.0000 0.0000 0.0000
# 4 0.0000 0.0000 0.0000 42.0556 0.0000 0.0000
# 5 0.0000 0.0000 0.0000 0.0000 42.0490 0.0000
# 6 0.0000 0.0000 0.0000 0.0000 0.0000 33.6726
#
#
#
# Elastic Compliance Matrix: (Units=1/GPa)
#
#
# Indices 1 2 3 4 5 6 
#
# 1 0.017987 -0.009322 -0.002522 0.000000 0.000000 0.000000
# 2 -0.009322 0.017987 -0.002523 0.000000 0.000000 0.000000
# 3 -0.002522 -0.002523 0.011272 0.000000 0.000000 0.000000
# 4 0.000000 0.000000 0.000000 0.023778 0.000000 0.000000
# 5 0.000000 0.000000 0.000000 0.000000 0.023782 0.000000
# 6 0.000000 0.000000 0.000000 0.000000 0.000000 0.029698
#
#
# Mechanical properties :
#
#
# Convention : Reuss Voigt Hill
#
# Bulk Modulus (GPa) = 54.01836 54.01938 54.01887
# Shear Modulus (GPa) = 31.36588 34.48133 32.92361
#
# Velocity S-wave (km/s) = 4.13853 4.33920 4.24005
# Velocity P-wave (km/s) = 7.23419 7.38934 7.31218
#
# Compressibility (1/GPa) = 0.01851222
#
# Stress axis : x y z
#
# Youngs Moduli (GPa) = 55.59664 55.59484 88.71237
#
# Poissons Ratio (x) = 0.51826 0.22376
# Poissons Ratio (y) = 0.51828 0.22379
# Poissons Ratio (z) = 0.14023 0.14024
#
# Static dielectric constant tensor:
#      x y z
#    x 1.644590 0.000000 0.000000 
#    y 0.000000 1.644590 0.000000 
#    z 0.000000 0.000000 1.625540 
# 
# From -- ./inp_files/1542.got.cif
#   From: 2010.05.17/outbox.cif.g08.bks.cpg/sg128_1_cif.got.tgz:1542.got - 2010.05.20 12:07:25.
