data_PCOD9564019
_publ_section_title
;
Structure prediction by ZEFSAII (Michael W. Deem and Ramdas Pophale) SiO2 
 PCOD9564019
Probable space group: P 4/M B M
;
_chemical_formula_sum "Si O2"
_cell_formula_units_Z 72
_cell_length_a 17.451348
_cell_length_b 17.451348
_cell_length_c 12.336129
_cell_angle_alpha 90.000000
_cell_angle_beta 90.000000
_cell_angle_gamma 90.000000
_cell_volume 3756.962499
_symmetry_space_group_name_H-M "P 4/M B M"
_symmetry_group_IT_number 127
_symmetry_cell_setting 'tetragonal'
loop_
_space_group_symop_operation_xyz
x,y,z
-y,x,z
-x,-y,z
y,-x,z
1/2+x,1/2-y,-z
1/2-x,1/2+y,-z
1/2+y,1/2+x,-z
1/2-y,1/2-x,-z
-x,-y,-z
y,-x,-z
x,y,-z
-y,x,-z
1/2-x,1/2+y,z
1/2+x,1/2-y,z
1/2-y,1/2-x,z
1/2+y,1/2+x,z
loop_
_atom_site_type_symbol
_atom_site_label
_atom_site_fract_x
_atom_site_fract_y
_atom_site_fract_z
Si Si1 0.939983 0.885735 0.376840
Si Si2 0.465520 0.731212 0.794721
Si Si3 0.114725 0.385276 0.127280
Si Si4 0.938557 0.561444 0.657052
Si Si5 0.371171 0.499291 0.000000
Si Si6 0.685266 0.945511 0.380228
O O1 0.926158 0.859485 0.500000
O O2 0.919144 0.823395 0.287862
O O3 0.031241 0.901600 0.363976
O O4 0.411923 0.799343 0.840964
O O5 0.537751 0.762726 0.723750
O O6 0.495489 0.681170 0.894038
O O7 0.065188 0.434813 0.212514
O O8 0.101988 0.398013 0.000000
O O9 0.859537 0.527183 0.616436
O O10 0.000000 0.500000 0.621413
O O11 0.427019 0.425719 0.000000
O O12 0.720894 0.933170 0.500000
O O13 0.622468 0.877533 0.364136
#
# Coordination Sequence:
#
# PCOD9564019 Si02
#       6
#    16  16   8   8   8  16
#     4   9  18  34  59  88 111 136 180 240 297 334
#     4  11  20  35  58  81 114 150 189 229 278 334
#     4  10  20  34  49  76 112 159 188 219 275 340
#     4   8  15  27  48  77 107 145 194 243 267 296
#     4  11  24  41  65  87 102 134 192 253 296 325
#     4   9  17  30  51  81 117 153 187 223 268 324
#
# _framework density 19.164418999999999
#
# number of rings (size 3 to 8) (size 9 to 14) (size 15 to 20)
#    0.000    2.333    1.111    3.000    0.000    3.333 
#    0.000    2.222   12.222    0.000    0.000    0.000 
#    0.000    0.000    0.000    0.000    0.000    0.000 
#
# Total GULP energy -401057.275573 kJ/mol
# GULP energy per Si atom -5570.239939 kJ/mol
# Density = 1.912080 g / cm^3
# Si number density = 19.164419 Si / 1000 Ang^3
#
#
#
# Elastic Constant Matrix: (Units=GPa)
#
#
# Indices 1 2 3 4 5 6 
#
# 1 70.7580 21.5044 53.6799 0.0000 0.0000 0.0000
# 2 21.5044 70.7577 53.6796 0.0000 0.0000 0.0000
# 3 53.6799 53.6796 184.2554 0.0000 0.0000 0.0000
# 4 0.0000 0.0000 0.0000 20.7978 0.0000 0.0000
# 5 0.0000 0.0000 0.0000 0.0000 20.7978 0.0000
# 6 0.0000 0.0000 0.0000 0.0000 0.0000 10.6646
#
#
#
# Elastic Compliance Matrix: (Units=1/GPa)
#
#
# Indices 1 2 3 4 5 6 
#
# 1 0.018350 -0.001953 -0.004777 0.000000 0.000000 0.000000
# 2 -0.001953 0.018350 -0.004777 0.000000 0.000000 0.000000
# 3 -0.004777 -0.004777 0.008211 0.000000 0.000000 0.000000
# 4 0.000000 0.000000 0.000000 0.048082 0.000000 0.000000
# 5 0.000000 0.000000 0.000000 0.000000 0.048082 0.000000
# 6 0.000000 0.000000 0.000000 0.000000 0.000000 0.093769
#
#
# Mechanical properties :
#
#
# Convention : Reuss Voigt Hill
#
# Bulk Modulus (GPa) = 45.66794 64.83320 55.25057
# Shear Modulus (GPa) = 18.85673 23.57917 21.21795
#
# Velocity S-wave (km/s) = 3.14019 3.51146 3.33100
# Velocity P-wave (km/s) = 6.08515 7.09534 6.60957
#
# Compressibility (1/GPa) = 0.02189720
#
# Stress axis : x y z
#
# Youngs Moduli (GPa) = 54.49501 54.49484 121.79179
#
# Poissons Ratio (x) = 0.10642 0.58182
# Poissons Ratio (y) = 0.10642 0.58182
# Poissons Ratio (z) = 0.26033 0.26033
#
# Static dielectric constant tensor:
#      x y z
#    x 1.696080 0.000000 0.000000 
#    y 0.000000 1.696080 0.000000 
#    z 0.000000 0.000000 1.695320 
# 
# From -- ./inp_files/3254.got.cif
#   From: 2010.05.17/outbox.cif.g08.bks.cpg/sg127_2_cif.got.tgz:3254.got - 2010.05.20 12:03:00.
