data_PCOD9564691
_publ_section_title
;
Structure prediction by ZEFSAII (Michael W. Deem and Ramdas Pophale) SiO2 
 PCOD9564691
Probable space group: P 4/M N C
;
_chemical_formula_sum "Si O2"
_cell_formula_units_Z 112
_cell_length_a 17.859305
_cell_length_b 17.859305
_cell_length_c 19.946138
_cell_angle_alpha 90.000000
_cell_angle_beta 90.000000
_cell_angle_gamma 90.000000
_cell_volume 6361.915960
_symmetry_space_group_name_H-M "P 4/M N C"
_symmetry_group_IT_number 128
_symmetry_cell_setting 'tetragonal'
loop_
_space_group_symop_operation_xyz
x,y,z
-y,x,z
-x,-y,z
y,-x,z
1/2+x,1/2-y,1/2-z
1/2-x,1/2+y,1/2-z
1/2+y,1/2+x,1/2-z
1/2-y,1/2-x,1/2-z
-x,-y,-z
y,-x,-z
x,y,-z
-y,x,-z
1/2-x,1/2+y,1/2+z
1/2+x,1/2-y,1/2+z
1/2-y,1/2-x,1/2+z
1/2+y,1/2+x,1/2+z
loop_
_atom_site_type_symbol
_atom_site_label
_atom_site_fract_x
_atom_site_fract_y
_atom_site_fract_z
Si Si1 0.668187 0.101176 0.684985
Si Si2 0.297597 0.694646 0.422618
Si Si3 0.427759 0.201889 0.813880
Si Si4 0.807653 0.574924 0.580273
Si Si5 0.817213 0.803022 0.358932
Si Si6 0.603004 0.559920 0.919769
Si Si7 0.693242 0.915566 0.846424
O O1 0.615385 0.115385 0.750000
O O2 0.623635 0.130947 0.620112
O O3 0.741133 0.154648 0.693961
O O4 0.694118 0.016057 0.672709
O O5 0.295119 0.670312 0.500000
O O6 0.379366 0.729613 0.408113
O O7 0.240263 0.763370 0.410391
O O8 0.263894 0.631470 0.374461
O O9 0.375764 0.272992 0.832910
O O10 0.382686 0.134221 0.850677
O O11 0.425364 0.199310 0.733179
O O12 0.819411 0.572388 0.500000
O O13 0.808748 0.493102 0.613416
O O14 0.892515 0.829213 0.394063
O O15 0.525600 0.598657 0.897450
O O16 0.603230 0.559528 0.000000
#
# Coordination Sequence:
#
# PCOD9564691 Si02
#       7
#    16  16  16  16  16  16  16
#     4  11  22  38  57  81 114 151 189 234 286 340
#     4   9  19  34  55  81 107 140 184 235 286 334
#     4  10  22  35  54  84 111 151 188 233 281 339
#     4  10  21  38  60  85 114 150 191 239 290 341
#     4  10  20  32  55  76 108 139 189 231 276 329
#     4   9  17  30  48  72 105 144 178 216 275 338
#     4  10  20  36  56  80 113 145 191 230 284 344
#
# _framework density 17.604758
#
# number of rings (size 3 to 8) (size 9 to 14) (size 15 to 20)
#    0.000    2.143    1.429    2.143    6.000    1.143 
#    0.000    5.000    0.000    0.429    0.000    4.000 
#    0.000    0.000    0.000    0.000    0.000    0.000 
#
# Total GULP energy -623530.398061 kJ/mol
# GULP energy per Si atom -5567.235697 kJ/mol
# Density = 1.756469 g / cm^3
# Si number density = 17.604758 Si / 1000 Ang^3
#
#
#
# Elastic Constant Matrix: (Units=GPa)
#
#
# Indices 1 2 3 4 5 6 
#
# 1 76.5594 83.4171 44.8161 0.0000 0.0000 0.0000
# 2 83.4171 76.5594 44.8161 0.0000 0.0000 0.0000
# 3 44.8161 44.8161 68.4652 0.0000 0.0000 0.0000
# 4 0.0000 0.0000 0.0000 25.2290 0.0000 0.0000
# 5 0.0000 0.0000 0.0000 0.0000 25.2290 0.0000
# 6 0.0000 0.0000 0.0000 0.0000 0.0000 12.1001
#
#
#
# Elastic Compliance Matrix: (Units=1/GPa)
#
#
# Indices 1 2 3 4 5 6 
#
# 1 -0.067976 0.077847 -0.006462 0.000000 0.000000 0.000000
# 2 0.077847 -0.067976 -0.006462 0.000000 0.000000 0.000000
# 3 -0.006462 -0.006462 0.023065 0.000000 0.000000 0.000000
# 4 0.000000 0.000000 0.000000 0.039637 0.000000 0.000000
# 5 0.000000 0.000000 0.000000 0.000000 0.039637 0.000000
# 6 0.000000 0.000000 0.000000 0.000000 0.000000 0.082644
#
#
# Mechanical properties :
#
#
# Convention : Reuss Voigt Hill
#
# Bulk Modulus (GPa) = 58.95708 63.07586 61.01647
# Shear Modulus (GPa) = -66.52116 15.74726 -25.38695
#
# Velocity S-wave (km/s) = -6.15369 2.99405 -3.80155
# Velocity P-wave (km/s) = 4.11444 6.91802 3.93259
#
# Compressibility (1/GPa) = 0.01696149
#
# Stress axis : x y z
#
# Youngs Moduli (GPa) = -14.71104 -14.71104 43.35544
#
# Poissons Ratio (x) = 1.14522 0.28014
# Poissons Ratio (y) = 1.14522 0.28014
# Poissons Ratio (z) = -0.09506 -0.09506
#
# Static dielectric constant tensor:
#      x y z
#    x 1.612720 0.000000 0.000000 
#    y 0.000000 1.612720 0.000000 
#    z 0.000000 0.000000 1.582470 
# 
# From -- ./inp_files/5970.got.cif
#   From: 2010.05.17/outbox.cif.g08.bks.cpg/sg128_3_cif.got.tgz:5970.got - 2010.05.20 12:07:25.
