data_PCOD9564851
_publ_section_title
;
Structure prediction by ZEFSAII (Michael W. Deem and Ramdas Pophale) SiO2 
 PCOD9564851
Probable space group: P 4/M N C
;
_chemical_formula_sum "Si O2"
_cell_formula_units_Z 96
_cell_length_a 15.113158
_cell_length_b 15.113158
_cell_length_c 20.469376
_cell_angle_alpha 90.000000
_cell_angle_beta 90.000000
_cell_angle_gamma 90.000000
_cell_volume 4675.359914
_symmetry_space_group_name_H-M "P 4/M N C"
_symmetry_group_IT_number 128
_symmetry_cell_setting 'tetragonal'
loop_
_space_group_symop_operation_xyz
x,y,z
-y,x,z
-x,-y,z
y,-x,z
1/2+x,1/2-y,1/2-z
1/2-x,1/2+y,1/2-z
1/2+y,1/2+x,1/2-z
1/2-y,1/2-x,1/2-z
-x,-y,-z
y,-x,-z
x,y,-z
-y,x,-z
1/2-x,1/2+y,1/2+z
1/2+x,1/2-y,1/2+z
1/2-y,1/2-x,1/2+z
1/2+y,1/2+x,1/2+z
loop_
_atom_site_type_symbol
_atom_site_label
_atom_site_fract_x
_atom_site_fract_y
_atom_site_fract_z
Si Si1 0.770182 0.486509 0.000000
Si Si2 0.937351 0.871296 0.921484
Si Si3 0.146997 0.984963 0.374853
Si Si4 0.228862 0.728862 0.750000
Si Si5 0.523591 0.785841 0.235094
Si Si6 0.896539 0.506512 0.115400
Si Si7 0.797118 0.627266 0.654877
O O1 0.700914 0.516342 0.941935
O O2 0.842312 0.460890 0.942098
O O3 0.897263 0.784055 0.891293
O O4 0.039563 0.885722 0.901339
O O5 0.935289 0.867487 0.000000
O O6 0.209970 0.984009 0.311899
O O7 0.093477 0.076782 0.372783
O O8 0.241744 0.622912 0.745410
O O9 0.279670 0.774338 0.689371
O O10 0.531295 0.869351 0.186081
O O11 0.452258 0.803525 0.291661
O O12 0.870249 0.610374 0.117139
O O13 0.000000 0.500000 0.104684
#
# Coordination Sequence:
#
# PCOD9564851 Si02
#       7
#     8  16  16   8  16  16  16
#     4  10  23  39  62  90 120 167 220 266 313 386
#     4   9  20  40  65  93 128 168 213 272 335 392
#     4  10  21  39  65  93 128 169 209 264 336 396
#     4  12  24  40  66  98 132 168 220 270 324 396
#     4  11  23  40  63  93 132 165 216 272 323 388
#     4  11  24  43  64  87 129 177 217 266 323 389
#     4  12  23  41  64  98 127 172 217 265 335 387
#
# _framework density 20.533176999999998
#
# number of rings (size 3 to 8) (size 9 to 14) (size 15 to 20)
#    0.000    1.333    1.667    4.250    3.500    1.333 
#    0.000    1.667    5.500    0.000    0.000    0.000 
#    0.000    0.000    0.000    0.000    0.000    0.000 
#
# Total GULP energy -534537.303004 kJ/mol
# GULP energy per Si atom -5568.096906 kJ/mol
# Density = 2.048644 g / cm^3
# Si number density = 20.533177 Si / 1000 Ang^3
#
#
#
# Elastic Constant Matrix: (Units=GPa)
#
#
# Indices 1 2 3 4 5 6 
#
# 1 92.5798 -26.0569 -3.8855 0.0000 0.0000 0.0000
# 2 -26.0569 92.5798 -3.8855 0.0000 0.0000 0.0000
# 3 -3.8855 -3.8855 31.9418 0.0000 0.0000 0.0000
# 4 0.0000 0.0000 0.0000 11.4521 0.0000 0.0000
# 5 0.0000 0.0000 0.0000 0.0000 11.4521 0.0000
# 6 0.0000 0.0000 0.0000 0.0000 0.0000 31.0826
#
#
#
# Elastic Compliance Matrix: (Units=1/GPa)
#
#
# Indices 1 2 3 4 5 6 
#
# 1 0.011839 0.003410 0.001855 0.000000 0.000000 0.000000
# 2 0.003410 0.011839 0.001855 0.000000 0.000000 0.000000
# 3 0.001855 0.001855 0.031758 0.000000 0.000000 0.000000
# 4 0.000000 0.000000 0.000000 0.087320 0.000000 0.000000
# 5 0.000000 0.000000 0.000000 0.000000 0.087320 0.000000
# 6 0.000000 0.000000 0.000000 0.000000 0.000000 0.032172
#
#
# Mechanical properties :
#
#
# Convention : Reuss Voigt Hill
#
# Bulk Modulus (GPa) = 14.35211 16.60508 15.47860
# Shear Modulus (GPa) = 18.43418 27.52597 22.98008
#
# Velocity S-wave (km/s) = 2.99954 3.66534 3.34903
# Velocity P-wave (km/s) = 4.35904 5.10073 4.74440
#
# Compressibility (1/GPa) = 0.06967615
#
# Stress axis : x y z
#
# Youngs Moduli (GPa) = 84.46591 84.46591 31.48790
#
# Poissons Ratio (x) = -0.28803 -0.05841
# Poissons Ratio (y) = -0.28803 -0.05841
# Poissons Ratio (z) = -0.15668 -0.15668
#
# Static dielectric constant tensor:
#      x y z
#    x 1.745350 0.000000 0.000000 
#    y 0.000000 1.745350 0.000000 
#    z 0.000000 0.000000 1.688390 
# 
# From -- ./inp_files/5778.got.cif
#   From: 2010.05.17/outbox.cif.g08.bks.cpg/sg128_3_cif.got.tgz:5778.got - 2010.05.20 12:07:25.
