data_PCOD9564318
_publ_section_title
;
Structure prediction by ZEFSAII (Michael W. Deem and Ramdas Pophale) SiO2 
 PCOD9564318
Probable space group: P 4/M B M
;
_chemical_formula_sum "Si O2"
_cell_formula_units_Z 72
_cell_length_a 20.869827
_cell_length_b 20.869827
_cell_length_c 8.168829
_cell_angle_alpha 90.000000
_cell_angle_beta 90.000000
_cell_angle_gamma 90.000000
_cell_volume 3557.930849
_symmetry_space_group_name_H-M "P 4/M B M"
_symmetry_group_IT_number 127
_symmetry_cell_setting 'tetragonal'
loop_
_space_group_symop_operation_xyz
x,y,z
-y,x,z
-x,-y,z
y,-x,z
1/2+x,1/2-y,-z
1/2-x,1/2+y,-z
1/2+y,1/2+x,-z
1/2-y,1/2-x,-z
-x,-y,-z
y,-x,-z
x,y,-z
-y,x,-z
1/2-x,1/2+y,z
1/2+x,1/2-y,z
1/2-y,1/2-x,z
1/2+y,1/2+x,z
loop_
_atom_site_type_symbol
_atom_site_label
_atom_site_fract_x
_atom_site_fract_y
_atom_site_fract_z
Si Si1 0.599696 0.337641 0.185089
Si Si2 0.568928 0.418880 0.500000
Si Si3 0.344603 0.257633 0.193304
Si Si4 0.752120 0.489947 0.311139
Si Si5 0.395386 0.000926 0.802788
O O1 0.592740 0.387419 0.332600
O O2 0.672355 0.311738 0.205876
O O3 0.541772 0.287680 0.207100
O O4 0.596585 0.364876 0.000000
O O5 0.586722 0.492684 0.500000
O O6 0.298572 0.201429 0.258878
O O7 0.415482 0.260424 0.269116
O O8 0.354368 0.245165 0.000000
O O9 0.736235 0.501616 0.500000
O O10 0.827092 0.501147 0.280087
O O11 0.440750 0.940750 0.762668
O O12 0.435468 0.064532 0.758264
O O13 0.387123 0.001856 0.000000
#
# Coordination Sequence:
#
# PCOD9564318 Si02
#       5
#    16   8  16  16  16
#     4  11  24  43  66  93 129 171 215 268 328 388
#     4  11  24  42  65  94 126 159 205 262 320 388
#     4  10  23  43  67  95 128 172 225 275 328 394
#     4  12  24  38  61  94 130 170 217 270 330 399
#     4   9  19  37  60  86 120 165 216 268 323 389
#
# _framework density 20.236481000000001
#
# number of rings (size 3 to 8) (size 9 to 14) (size 15 to 20)
#    0.000    1.444    1.111    4.667    1.556    7.556 
#    0.000    4.444    0.000    0.000    0.000    0.000 
#    0.000    0.000    0.000    0.000    0.000    0.000 
#
# Total GULP energy -402232.866501 kJ/mol
# GULP energy per Si atom -5586.567590 kJ/mol
# Density = 2.019042 g / cm^3
# Si number density = 20.236481 Si / 1000 Ang^3
#
#
#
# Elastic Constant Matrix: (Units=GPa)
#
#
# Indices 1 2 3 4 5 6 
#
# 1 104.6742 21.6505 27.1433 0.0000 0.0000 0.0000
# 2 21.6505 104.6742 27.1433 0.0000 0.0000 0.0000
# 3 27.1433 27.1433 95.0533 0.0000 0.0000 0.0000
# 4 0.0000 0.0000 0.0000 41.2412 0.0000 0.0000
# 5 0.0000 0.0000 0.0000 0.0000 41.2412 0.0000
# 6 0.0000 0.0000 0.0000 0.0000 0.0000 -19.4747
#
#
#
# Elastic Compliance Matrix: (Units=1/GPa)
#
#
# Indices 1 2 3 4 5 6 
#
# 1 0.010534 -0.001511 -0.002577 0.000000 0.000000 0.000000
# 2 -0.001511 0.010534 -0.002577 0.000000 0.000000 0.000000
# 3 -0.002577 -0.002577 0.011992 0.000000 0.000000 0.000000
# 4 0.000000 0.000000 0.000000 0.024248 0.000000 0.000000
# 5 0.000000 0.000000 0.000000 0.000000 0.024248 0.000000
# 6 0.000000 0.000000 0.000000 0.000000 0.000000 -0.051349
#
#
# Mechanical properties :
#
#
# Convention : Reuss Voigt Hill
#
# Bulk Modulus (GPa) = 50.67910 50.69732 50.68821
# Shear Modulus (GPa) = 99.77574 27.83250 63.80412
#
# Velocity S-wave (km/s) = 7.02936 3.71261 5.62118
# Velocity P-wave (km/s) = 9.53836 6.59430 8.19955
#
# Compressibility (1/GPa) = 0.01973200
#
# Stress axis : x y z
#
# Youngs Moduli (GPa) = 94.92992 94.92992 83.38883
#
# Poissons Ratio (x) = 0.14341 0.21487
# Poissons Ratio (y) = 0.14341 0.21487
# Poissons Ratio (z) = 0.24461 0.24461
#
# Static dielectric constant tensor:
#      x y z
#    x 1.720410 0.000000 0.000000 
#    y 0.000000 1.720410 0.000000 
#    z 0.000000 0.000000 1.750010 
# 
# From -- ./inp_files/1581.got.cif
#   From: 2010.05.17/outbox.cif.g08.bks.cpg/sg127_1_cif.got.tgz:1581.got - 2010.05.20 12:03:00.
