data_PCOD9564958
_publ_section_title
;
Structure prediction by ZEFSAII (Michael W. Deem and Ramdas Pophale) SiO2 
 PCOD9564958
Probable space group: P 4/M N C
;
_chemical_formula_sum "Si O2"
_cell_formula_units_Z 108
_cell_length_a 13.796865
_cell_length_b 13.796865
_cell_length_c 26.195911
_cell_angle_alpha 90.000000
_cell_angle_beta 90.000000
_cell_angle_gamma 90.000000
_cell_volume 4986.482921
_symmetry_space_group_name_H-M "P 4/M N C"
_symmetry_group_IT_number 128
_symmetry_cell_setting 'tetragonal'
loop_
_space_group_symop_operation_xyz
x,y,z
-y,x,z
-x,-y,z
y,-x,z
1/2+x,1/2-y,1/2-z
1/2-x,1/2+y,1/2-z
1/2+y,1/2+x,1/2-z
1/2-y,1/2-x,1/2-z
-x,-y,-z
y,-x,-z
x,y,-z
-y,x,-z
1/2-x,1/2+y,1/2+z
1/2+x,1/2-y,1/2+z
1/2-y,1/2-x,1/2+z
1/2+y,1/2+x,1/2+z
loop_
_atom_site_type_symbol
_atom_site_label
_atom_site_fract_x
_atom_site_fract_y
_atom_site_fract_z
Si Si1 0.000000 0.000000 0.331850
Si Si2 0.884328 0.490457 0.560264
Si Si3 0.651802 0.234262 0.622687
Si Si4 0.621490 0.393540 0.552953
Si Si5 0.654385 0.443289 0.000000
Si Si6 0.640863 0.771221 0.903949
Si Si7 0.797663 0.909276 0.700495
Si Si8 0.595075 0.237966 0.739493
O O1 0.047673 0.891882 0.327110
O O2 0.864642 0.503952 0.500000
O O3 0.828816 0.574175 0.591499
O O4 0.852107 0.382045 0.576057
O O5 0.000000 0.500000 0.568247
O O6 0.657310 0.344145 0.602774
O O7 0.761853 0.206592 0.607890
O O8 0.616649 0.245319 0.679954
O O9 0.629777 0.507559 0.552438
O O10 0.664336 0.353201 0.500000
O O11 0.620248 0.555310 0.000000
O O12 0.715256 0.417797 0.948700
O O13 0.599942 0.777421 0.846069
O O14 0.834211 0.811714 0.728973
O O15 0.762423 0.987208 0.742356
O O16 0.628583 0.128583 0.750000
#
# Coordination Sequence:
#
# PCOD9564958 Si02
#       8
#     4  16  16  16   8  16  16  16
#     4   8  20  40  68 101 120 188 225 292 372 424
#     4  11  28  48  71 107 149 193 245 300 375 452
#     4  12  26  41  71  99 141 189 240 295 357 439
#     4   9  19  36  60  92 131 171 219 281 348 416
#     4  11  30  46  77 117 149 182 261 319 375 451
#     4  12  27  47  77 106 147 200 244 308 385 448
#     4  10  24  44  72  97 146 181 239 303 368 430
#     4  11  25  45  68 105 136 185 240 297 360 438
#
# _framework density 21.658552
#
# number of rings (size 3 to 8) (size 9 to 14) (size 15 to 20)
#    0.000    1.259    2.222    1.778   14.519    1.185 
#    0.000    0.000    0.000    0.000    0.000    0.000 
#    0.000    0.000    0.000    0.000    0.000    0.000 
#
# Total GULP energy -601303.790902 kJ/mol
# GULP energy per Si atom -5567.627694 kJ/mol
# Density = 2.160926 g / cm^3
# Si number density = 21.658552 Si / 1000 Ang^3
#
#
#
# Elastic Constant Matrix: (Units=GPa)
#
#
# Indices 1 2 3 4 5 6 
#
# 1 88.3273 14.7977 29.6774 0.0000 0.0000 0.0000
# 2 14.7977 88.3273 29.6774 0.0000 0.0000 0.0000
# 3 29.6774 29.6774 144.2382 0.0000 0.0000 0.0000
# 4 0.0000 0.0000 0.0000 21.1515 0.0000 0.0000
# 5 0.0000 0.0000 0.0000 0.0000 21.1515 0.0000
# 6 0.0000 0.0000 0.0000 0.0000 0.0000 30.3804
#
#
#
# Elastic Compliance Matrix: (Units=1/GPa)
#
#
# Indices 1 2 3 4 5 6 
#
# 1 0.012300 -0.001300 -0.002263 0.000000 0.000000 0.000000
# 2 -0.001300 0.012300 -0.002263 0.000000 0.000000 0.000000
# 3 -0.002263 -0.002263 0.007864 0.000000 0.000000 0.000000
# 4 0.000000 0.000000 0.000000 0.047278 0.000000 0.000000
# 5 0.000000 0.000000 0.000000 0.000000 0.047278 0.000000
# 6 0.000000 0.000000 0.000000 0.000000 0.000000 0.032916
#
#
# Mechanical properties :
#
#
# Convention : Reuss Voigt Hill
#
# Bulk Modulus (GPa) = 48.05228 52.13310 50.09269
# Shear Modulus (GPa) = 28.00713 30.98602 29.49657
#
# Velocity S-wave (km/s) = 3.59990 3.78651 3.69438
# Velocity P-wave (km/s) = 6.28598 6.57568 6.43246
#
# Compressibility (1/GPa) = 0.02081067
#
# Stress axis : x y z
#
# Youngs Moduli (GPa) = 81.30233 81.30233 127.15698
#
# Poissons Ratio (x) = 0.10571 0.28778
# Poissons Ratio (y) = 0.10571 0.28778
# Poissons Ratio (z) = 0.18400 0.18400
#
# Static dielectric constant tensor:
#      x y z
#    x 1.837940 0.000000 0.000000 
#    y 0.000000 1.837940 0.000000 
#    z 0.000000 0.000000 1.732370 
# 
# From -- ./inp_files/6504.got.cif
#   From: 2010.05.17/outbox.cif.g08.bks.cpg/sg128_4_cif.got.tgz:6504.got - 2010.05.20 12:07:25.
