data_PCOD9564172
_publ_section_title
;
Structure prediction by ZEFSAII (Michael W. Deem and Ramdas Pophale) SiO2 
 PCOD9564172
Probable space group: P 4/M B M
;
_chemical_formula_sum "Si O2"
_cell_formula_units_Z 64
_cell_length_a 15.456197
_cell_length_b 15.456197
_cell_length_c 14.649717
_cell_angle_alpha 90.000000
_cell_angle_beta 90.000000
_cell_angle_gamma 90.000000
_cell_volume 3499.729870
_symmetry_space_group_name_H-M "P 4/M B M"
_symmetry_group_IT_number 127
_symmetry_cell_setting 'tetragonal'
loop_
_space_group_symop_operation_xyz
x,y,z
-y,x,z
-x,-y,z
y,-x,z
1/2+x,1/2-y,-z
1/2-x,1/2+y,-z
1/2+y,1/2+x,-z
1/2-y,1/2-x,-z
-x,-y,-z
y,-x,-z
x,y,-z
-y,x,-z
1/2-x,1/2+y,z
1/2+x,1/2-y,z
1/2-y,1/2-x,z
1/2+y,1/2+x,z
loop_
_atom_site_type_symbol
_atom_site_label
_atom_site_fract_x
_atom_site_fract_y
_atom_site_fract_z
Si Si1 0.244876 0.402170 0.394189
Si Si2 0.902180 0.744866 0.105811
Si Si3 0.005099 0.642868 0.749991
Si Si4 0.588379 0.384959 0.750007
O O1 0.259531 0.421968 0.500000
O O2 0.178381 0.321620 0.387945
O O3 0.199084 0.480467 0.338781
O O4 0.331795 0.381606 0.338663
O O5 0.821630 0.678371 0.112051
O O6 0.980470 0.699078 0.161232
O O7 0.881608 0.831790 0.161325
O O8 0.921987 0.759514 0.000000
O O9 0.935178 0.564823 0.749989
O O10 0.098728 0.598728 0.749988
O O11 0.615939 0.483892 0.750008
#
# Coordination Sequence:
#
# PCOD9564172 Si02
#       4
#    16  16  16  16
#     4   9  18  34  55  76 101 134 168 206 255 306
#     4   9  18  34  55  76 101 134 168 206 255 306
#     4   8  14  26  46  73 103 132 163 200 242 293
#     4  10  21  36  54  75 100 133 172 213 252 292
#
# _framework density 18.287126000000001
#
# number of rings (size 3 to 8) (size 9 to 14) (size 15 to 20)
#    0.000    3.000    0.000    2.250    0.000    3.000 
#    0.000   17.500    0.000    0.000    0.000    0.000 
#    0.000    0.000    0.000    0.000    0.000    0.000 
#
# Total GULP energy -356656.061412 kJ/mol
# GULP energy per Si atom -5572.750960 kJ/mol
# Density = 1.824550 g / cm^3
# Si number density = 18.287126 Si / 1000 Ang^3
#
#
#
# Elastic Constant Matrix: (Units=GPa)
#
#
# Indices 1 2 3 4 5 6 
#
# 1 57.8811 3.3730 36.6198 0.0000 0.0000 0.0000
# 2 3.3730 57.8811 36.6198 0.0000 0.0000 0.0000
# 3 36.6198 36.6198 177.9361 0.0000 0.0000 0.0000
# 4 0.0000 0.0000 0.0000 6.9683 0.0000 0.0000
# 5 0.0000 0.0000 0.0000 0.0000 6.9683 0.0000
# 6 0.0000 0.0000 0.0000 0.0000 0.0000 5.9889
#
#
#
# Elastic Compliance Matrix: (Units=1/GPa)
#
#
# Indices 1 2 3 4 5 6 
#
# 1 0.020000 0.001654 -0.004456 0.000000 0.000000 0.000000
# 2 0.001654 0.020000 -0.004456 0.000000 0.000000 0.000000
# 3 -0.004456 -0.004456 0.007454 0.000000 0.000000 0.000000
# 4 0.000000 0.000000 0.000000 0.143507 0.000000 0.000000
# 5 0.000000 0.000000 0.000000 0.000000 0.143507 0.000000
# 6 0.000000 0.000000 0.000000 0.000000 0.000000 0.166974
#
#
# Mechanical properties :
#
#
# Convention : Reuss Voigt Hill
#
# Bulk Modulus (GPa) = 30.36167 49.65817 40.00992
# Shear Modulus (GPa) = 9.48879 18.45750 13.97314
#
# Velocity S-wave (km/s) = 2.28036 3.18042 2.76723
# Velocity P-wave (km/s) = 4.85512 6.37969 5.66889
#
# Compressibility (1/GPa) = 0.03293627
#
# Stress axis : x y z
#
# Youngs Moduli (GPa) = 50.00032 50.00032 134.15090
#
# Poissons Ratio (x) = -0.08270 0.59783
# Poissons Ratio (y) = -0.08270 0.59783
# Poissons Ratio (z) = 0.22282 0.22282
#
# Static dielectric constant tensor:
#      x y z
#    x 1.642580 0.000000 0.000000 
#    y 0.000000 1.642580 0.000000 
#    z 0.000000 0.000000 1.606310 
# 
# From -- ./inp_files/4076.got.cif
#   From: 2010.05.17/outbox.cif.g08.bks.cpg/sg127_3_cif.got.tgz:4076.got - 2010.05.20 12:03:00.
