data_PCOD9564105
_publ_section_title
;
Structure prediction by ZEFSAII (Michael W. Deem and Ramdas Pophale) SiO2 
 PCOD9564105
Probable space group: P 4/M B M
;
_chemical_formula_sum "Si O2"
_cell_formula_units_Z 112
_cell_length_a 14.212319
_cell_length_b 14.212319
_cell_length_c 28.418720
_cell_angle_alpha 90.000000
_cell_angle_beta 90.000000
_cell_angle_gamma 90.000000
_cell_volume 5740.297576
_symmetry_space_group_name_H-M "P 4/M B M"
_symmetry_group_IT_number 127
_symmetry_cell_setting 'tetragonal'
loop_
_space_group_symop_operation_xyz
x,y,z
-y,x,z
-x,-y,z
y,-x,z
1/2+x,1/2-y,-z
1/2-x,1/2+y,-z
1/2+y,1/2+x,-z
1/2-y,1/2-x,-z
-x,-y,-z
y,-x,-z
x,y,-z
-y,x,-z
1/2-x,1/2+y,z
1/2+x,1/2-y,z
1/2-y,1/2-x,z
1/2+y,1/2+x,z
loop_
_atom_site_type_symbol
_atom_site_label
_atom_site_fract_x
_atom_site_fract_y
_atom_site_fract_z
Si Si1 0.996651 0.654024 0.176863
Si Si2 0.158322 0.501709 0.616927
Si Si3 0.125834 0.909129 0.242770
Si Si4 0.358416 0.297528 0.148215
Si Si5 0.615236 0.609810 0.051825
Si Si6 0.045924 0.301082 0.718061
Si Si7 0.154574 0.996923 0.556544
O O1 0.892891 0.607110 0.168492
O O2 0.003769 0.685359 0.231426
O O3 0.069639 0.569639 0.168876
O O4 0.041557 0.741432 0.148751
O O5 0.091044 0.408957 0.613749
O O6 0.201841 0.510148 0.669702
O O7 0.245419 0.495502 0.581661
O O8 0.090109 0.590109 0.608072
O O9 0.142512 0.876023 0.189147
O O10 0.213843 0.882216 0.274744
O O11 0.021042 0.875709 0.252266
O O12 0.278841 0.221160 0.159870
O O13 0.341646 0.340851 0.097101
O O14 0.502718 0.627038 0.054215
O O15 0.648400 0.641552 0.000000
O O16 0.103724 0.396277 0.713991
O O17 0.165306 0.996709 0.500000
O O18 0.092847 0.089274 0.569138
#
# Coordination Sequence:
#
# PCOD9564105 Si02
#       7
#    16  16  16  16  16  16  16
#     4   9  18  34  55  76 103 144 188 227 270 325
#     4  10  22  39  61  92 127 163 203 254 315 372
#     4  11  22  36  51  74 109 147 184 226 278 329
#     4  11  21  34  55  83 110 139 183 233 278 330
#     4   9  19  37  58  77 102 139 177 217 275 340
#     4  10  20  37  56  77 109 148 191 233 277 335
#     4   9  20  41  66  90 121 164 212 260 311 369
#
# _framework density 19.511184
#
# number of rings (size 3 to 8) (size 9 to 14) (size 15 to 20)
#    0.000    2.143    1.429    2.571    0.000    5.429 
#    0.000    5.000    0.000    1.286    0.000    2.000 
#    0.000    0.000    0.000    0.000    0.000    0.000 
#
# Total GULP energy -623964.517503 kJ/mol
# GULP energy per Si atom -5571.111763 kJ/mol
# Density = 1.946678 g / cm^3
# Si number density = 19.511184 Si / 1000 Ang^3
#
#
#
# Elastic Constant Matrix: (Units=GPa)
#
#
# Indices 1 2 3 4 5 6 
#
# 1 67.7093 2.3117 23.2249 0.0000 0.0000 0.0000
# 2 2.3117 67.7093 23.2249 0.0000 0.0000 0.0000
# 3 23.2249 23.2249 60.9105 0.0000 0.0000 0.0000
# 4 0.0000 0.0000 0.0000 26.7395 0.0000 0.0000
# 5 0.0000 0.0000 0.0000 0.0000 26.7395 0.0000
# 6 0.0000 0.0000 0.0000 0.0000 0.0000 16.7585
#
#
#
# Elastic Compliance Matrix: (Units=1/GPa)
#
#
# Indices 1 2 3 4 5 6 
#
# 1 0.017204 0.001913 -0.007289 0.000000 0.000000 0.000000
# 2 0.001913 0.017204 -0.007289 0.000000 0.000000 0.000000
# 3 -0.007289 -0.007289 0.021976 0.000000 0.000000 0.000000
# 4 0.000000 0.000000 0.000000 0.037398 0.000000 0.000000
# 5 0.000000 0.000000 0.000000 0.000000 0.037398 0.000000
# 6 0.000000 0.000000 0.000000 0.000000 0.000000 0.059671
#
#
# Mechanical properties :
#
#
# Convention : Reuss Voigt Hill
#
# Bulk Modulus (GPa) = 32.20280 32.65023 32.42652
# Shear Modulus (GPa) = 22.07183 23.88533 22.97858
#
# Velocity S-wave (km/s) = 3.36704 3.50263 3.43551
# Velocity P-wave (km/s) = 5.62642 5.75572 5.69144
#
# Compressibility (1/GPa) = 0.03105320
#
# Stress axis : x y z
#
# Youngs Moduli (GPa) = 58.12615 58.12615 45.50385
#
# Poissons Ratio (x) = -0.11119 0.33168
# Poissons Ratio (y) = -0.11119 0.33168
# Poissons Ratio (z) = 0.42369 0.42369
#
# Static dielectric constant tensor:
#      x y z
#    x 1.725470 0.000000 0.000000 
#    y 0.000000 1.725470 0.000000 
#    z 0.000000 0.000000 1.695950 
# 
# From -- ./inp_files/6191.got.cif
#   From: 2010.05.17/outbox.cif.g08.bks.cpg/sg127_4_cif.got.tgz:6191.got - 2010.05.20 12:03:00.
