data_PCOD9564818
_publ_section_title
;
Structure prediction by ZEFSAII (Michael W. Deem and Ramdas Pophale) SiO2 
 PCOD9564818
Probable space group: P 4/M N C
;
_chemical_formula_sum "Si O2"
_cell_formula_units_Z 64
_cell_length_a 20.470634
_cell_length_b 20.470634
_cell_length_c 8.666368
_cell_angle_alpha 90.000000
_cell_angle_beta 90.000000
_cell_angle_gamma 90.000000
_cell_volume 3631.614266
_symmetry_space_group_name_H-M "P 4/M N C"
_symmetry_group_IT_number 128
_symmetry_cell_setting 'tetragonal'
loop_
_space_group_symop_operation_xyz
x,y,z
-y,x,z
-x,-y,z
y,-x,z
1/2+x,1/2-y,1/2-z
1/2-x,1/2+y,1/2-z
1/2+y,1/2+x,1/2-z
1/2-y,1/2-x,1/2-z
-x,-y,-z
y,-x,-z
x,y,-z
-y,x,-z
1/2-x,1/2+y,1/2+z
1/2+x,1/2-y,1/2+z
1/2-y,1/2-x,1/2+z
1/2+y,1/2+x,1/2+z
loop_
_atom_site_type_symbol
_atom_site_label
_atom_site_fract_x
_atom_site_fract_y
_atom_site_fract_z
Si Si1 0.175783 0.426671 0.685032
Si Si2 0.320425 0.076580 0.814163
Si Si3 0.825934 0.072132 0.814068
Si Si4 0.323585 0.572314 0.815383
O O1 0.124270 0.375731 0.750000
O O2 0.173027 0.424195 0.500000
O O3 0.162249 0.501835 0.731037
O O4 0.250780 0.411904 0.730248
O O5 0.372783 0.127218 0.750000
O O6 0.248457 0.089976 0.747240
O O7 0.317630 0.079747 0.000000
O O8 0.875712 0.123977 0.744478
O O9 0.839473 0.999421 0.751723
O O10 0.830124 0.071807 0.000000
O O11 0.323048 0.570144 0.000000
#
# Coordination Sequence:
#
# PCOD9564818 Si02
#       4
#    16  16  16  16
#     4   9  20  36  56  80 109 143 182 224 272 325
#     4  10  21  38  57  81 111 147 186 228 277 330
#     4  10  21  39  58  80 112 149 184 225 275 330
#     4  11  22  37  58  85 112 143 184 231 277 329
#
# _framework density 17.623017999999998
#
# number of rings (size 3 to 8) (size 9 to 14) (size 15 to 20)
#    0.000    2.000    0.000    5.250    0.000    8.000 
#    0.000    7.500    0.000    0.000    0.000    0.000 
#    0.000    0.000    0.000    0.000    0.000    0.000 
#
# Total GULP energy -357413.383599 kJ/mol
# GULP energy per Si atom -5584.584119 kJ/mol
# Density = 1.758291 g / cm^3
# Si number density = 17.623018 Si / 1000 Ang^3
#
#
#
# Elastic Constant Matrix: (Units=GPa)
#
#
# Indices 1 2 3 4 5 6 
#
# 1 151.1595 141.5124 58.5756 0.0000 0.0000 0.0000
# 2 141.5124 151.1591 58.5753 0.0000 0.0000 0.0000
# 3 58.5756 58.5753 92.7082 0.0000 0.0000 0.0000
# 4 0.0000 0.0000 0.0000 34.8149 0.0000 0.0000
# 5 0.0000 0.0000 0.0000 0.0000 34.8144 0.0000
# 6 0.0000 0.0000 0.0000 0.0000 0.0000 46.0588
#
#
#
# Elastic Compliance Matrix: (Units=1/GPa)
#
#
# Indices 1 2 3 4 5 6 
#
# 1 0.054117 -0.049543 -0.002890 0.000000 0.000000 0.000000
# 2 -0.049543 0.054117 -0.002890 0.000000 0.000000 0.000000
# 3 -0.002890 -0.002890 0.014438 0.000000 0.000000 0.000000
# 4 0.000000 0.000000 0.000000 0.028723 0.000000 0.000000
# 5 0.000000 0.000000 0.000000 0.000000 0.028724 0.000000
# 6 0.000000 0.000000 0.000000 0.000000 0.000000 0.021711
#
#
# Mechanical properties :
#
#
# Convention : Reuss Voigt Hill
#
# Bulk Modulus (GPa) = 83.15030 101.37260 92.26145
# Shear Modulus (GPa) = 15.79856 32.22850 24.01353
#
# Velocity S-wave (km/s) = 2.99736 4.28106 3.69538
# Velocity P-wave (km/s) = 7.69832 9.06004 8.40680
#
# Compressibility (1/GPa) = 0.01202641
#
# Stress axis : x y z
#
# Youngs Moduli (GPa) = 18.47852 18.47851 69.26158
#
# Poissons Ratio (x) = 0.91549 0.20015
# Poissons Ratio (y) = 0.91549 0.20013
# Poissons Ratio (z) = 0.05340 0.05339
#
# Static dielectric constant tensor:
#      x y z
#    x 1.578050 0.000000 0.000000 
#    y 0.000000 1.578050 0.000000 
#    z 0.000000 0.000000 1.591900 
# 
# From -- ./inp_files/1016.got.cif
#   From: 2010.05.17/outbox.cif.g08.bks.cpg/sg128_1_cif.got.tgz:1016.got - 2010.05.20 12:07:25.
