data_PCOD9564094
_publ_section_title
;
Structure prediction by ZEFSAII (Michael W. Deem and Ramdas Pophale) SiO2 
 PCOD9564094
Probable space group: P 4/M B M
;
_chemical_formula_sum "Si O2"
_cell_formula_units_Z 56
_cell_length_a 16.664252
_cell_length_b 16.664252
_cell_length_c 10.651851
_cell_angle_alpha 90.000000
_cell_angle_beta 90.000000
_cell_angle_gamma 90.000000
_cell_volume 2957.990206
_symmetry_space_group_name_H-M "P 4/M B M"
_symmetry_group_IT_number 127
_symmetry_cell_setting 'tetragonal'
loop_
_space_group_symop_operation_xyz
x,y,z
-y,x,z
-x,-y,z
y,-x,z
1/2+x,1/2-y,-z
1/2-x,1/2+y,-z
1/2+y,1/2+x,-z
1/2-y,1/2-x,-z
-x,-y,-z
y,-x,-z
x,y,-z
-y,x,-z
1/2-x,1/2+y,z
1/2+x,1/2-y,z
1/2-y,1/2-x,z
1/2+y,1/2+x,z
loop_
_atom_site_type_symbol
_atom_site_label
_atom_site_fract_x
_atom_site_fract_y
_atom_site_fract_z
Si Si1 0.937241 0.880009 0.500000
Si Si2 0.701670 0.068466 0.138436
Si Si3 0.670988 0.300356 0.300288
Si Si4 0.064687 0.697219 0.647678
O O1 0.903070 0.830138 0.616334
O O2 0.031720 0.896329 0.500000
O O3 0.620714 0.120714 0.137915
O O4 0.772640 0.131891 0.169961
O O5 0.696783 0.006627 0.252784
O O6 0.712707 0.032184 0.000000
O O7 0.722245 0.222245 0.346132
O O8 0.733931 0.372775 0.308763
O O9 0.043148 0.709790 0.500000
O O10 0.114303 0.614303 0.653234
#
# Coordination Sequence:
#
# PCOD9564094 Si02
#       4
#     8  16  16  16
#     4  11  21  32  52  84 115 143 178 226 286 343
#     4  10  23  40  58  83 116 157 199 237 285 344
#     4  10  20  36  58  82 113 148 189 238 283 336
#     4  10  21  37  60  90 119 148 190 242 295 347
#
# _framework density 18.931774999999998
#
# number of rings (size 3 to 8) (size 9 to 14) (size 15 to 20)
#    0.000    1.857    1.429    2.143    2.000    2.857 
#    0.000    5.714    0.000    0.000    0.000    6.000 
#    0.000    0.000    0.000    0.000    0.000    0.000 
#
# Total GULP energy -312097.385118 kJ/mol
# GULP energy per Si atom -5573.167591 kJ/mol
# Density = 1.888868 g / cm^3
# Si number density = 18.931775 Si / 1000 Ang^3
#
#
#
# Elastic Constant Matrix: (Units=GPa)
#
#
# Indices 1 2 3 4 5 6 
#
# 1 92.6346 24.9457 64.2526 0.0000 0.0000 0.0000
# 2 24.9457 92.6346 64.2526 0.0000 0.0000 0.0000
# 3 64.2526 64.2526 146.5733 0.0000 0.0000 0.0000
# 4 0.0000 0.0000 0.0000 16.4468 0.0000 0.0000
# 5 0.0000 0.0000 0.0000 0.0000 16.4468 0.0000
# 6 0.0000 0.0000 0.0000 0.0000 0.0000 24.6867
#
#
#
# Elastic Compliance Matrix: (Units=1/GPa)
#
#
# Indices 1 2 3 4 5 6 
#
# 1 0.015550 0.000777 -0.007157 0.000000 0.000000 0.000000
# 2 0.000777 0.015550 -0.007157 0.000000 0.000000 0.000000
# 3 -0.007157 -0.007157 0.013097 0.000000 0.000000 0.000000
# 4 0.000000 0.000000 0.000000 0.060802 0.000000 0.000000
# 5 0.000000 0.000000 0.000000 0.000000 0.060802 0.000000
# 6 0.000000 0.000000 0.000000 0.000000 0.000000 0.040508
#
#
# Mechanical properties :
#
#
# Convention : Reuss Voigt Hill
#
# Bulk Modulus (GPa) = 58.40196 70.97160 64.68678
# Shear Modulus (GPa) = 20.91241 23.40884 22.16062
#
# Velocity S-wave (km/s) = 3.32719 3.52018 3.42504
# Velocity P-wave (km/s) = 6.75839 7.35471 7.06285
#
# Compressibility (1/GPa) = 0.01712271
#
# Stress axis : x y z
#
# Youngs Moduli (GPa) = 64.30771 64.30771 76.35079
#
# Poissons Ratio (x) = -0.04995 0.54646
# Poissons Ratio (y) = -0.04995 0.54646
# Poissons Ratio (z) = 0.46026 0.46026
#
# Static dielectric constant tensor:
#      x y z
#    x 1.678720 0.000000 0.000000 
#    y 0.000000 1.678720 0.000000 
#    z 0.000000 0.000000 1.654280 
# 
# From -- ./inp_files/1092.got.cif
#   From: 2010.05.17/outbox.cif.g08.bks.cpg/sg127_1_cif.got.tgz:1092.got - 2010.05.20 12:03:00.
