data_PCOD9564864
_publ_section_title
;
Structure prediction by ZEFSAII (Michael W. Deem and Ramdas Pophale) SiO2 
 PCOD9564864
Probable space group: P 4/M N C
;
_chemical_formula_sum "Si O2"
_cell_formula_units_Z 56
_cell_length_a 14.584564
_cell_length_b 14.584564
_cell_length_c 13.290538
_cell_angle_alpha 90.000000
_cell_angle_beta 90.000000
_cell_angle_gamma 90.000000
_cell_volume 2827.023787
_symmetry_space_group_name_H-M "P 4/M N C"
_symmetry_group_IT_number 128
_symmetry_cell_setting 'tetragonal'
loop_
_space_group_symop_operation_xyz
x,y,z
-y,x,z
-x,-y,z
y,-x,z
1/2+x,1/2-y,1/2-z
1/2-x,1/2+y,1/2-z
1/2+y,1/2+x,1/2-z
1/2-y,1/2-x,1/2-z
-x,-y,-z
y,-x,-z
x,y,-z
-y,x,-z
1/2-x,1/2+y,1/2+z
1/2+x,1/2-y,1/2+z
1/2-y,1/2-x,1/2+z
1/2+y,1/2+x,1/2+z
loop_
_atom_site_type_symbol
_atom_site_label
_atom_site_fract_x
_atom_site_fract_y
_atom_site_fract_z
Si Si1 0.520583 0.767025 0.217640
Si Si2 0.433576 0.086349 0.611378
Si Si3 0.601986 0.379764 0.500000
Si Si4 0.166163 0.185356 0.220199
O O1 0.543859 0.834240 0.311010
O O2 0.549166 0.830621 0.124923
O O3 0.416406 0.738970 0.227564
O O4 0.585694 0.680276 0.231270
O O5 0.448990 0.121710 0.500000
O O6 0.500000 0.000000 0.629181
O O7 0.625500 0.489730 0.500000
O O8 0.642625 0.332267 0.398184
O O9 0.257278 0.242723 0.250000
#
# Coordination Sequence:
#
# PCOD9564864 Si02
#       4
#    16  16   8  16
#     4  11  23  40  60  96 131 168 219 269 334 393
#     4  10  21  41  65  88 124 169 221 277 330 389
#     4  11  24  44  72 100 130 175 230 284 340 399
#     4  12  24  41  66  96 137 173 215 280 333 396
#
# _framework density 19.808817000000001
#
# number of rings (size 3 to 8) (size 9 to 14) (size 15 to 20)
#    0.000    1.000    5.714    3.429    4.000    0.571 
#    2.571    0.000    0.000    0.000    0.000    2.000 
#    0.000    0.000    0.000    0.000    0.000    0.000 
#
# Total GULP energy -312653.488083 kJ/mol
# GULP energy per Si atom -5583.098001 kJ/mol
# Density = 1.976373 g / cm^3
# Si number density = 19.808817 Si / 1000 Ang^3
#
#
#
# Elastic Constant Matrix: (Units=GPa)
#
#
# Indices 1 2 3 4 5 6 
#
# 1 74.0437 -0.8648 10.7660 0.0000 0.0000 0.0000
# 2 -0.8648 74.0420 10.7653 0.0000 0.0000 0.0000
# 3 10.7660 10.7653 52.8586 0.0000 0.0000 0.0000
# 4 0.0000 0.0000 0.0000 21.4511 0.0000 0.0000
# 5 0.0000 0.0000 0.0000 0.0000 21.4506 0.0000
# 6 0.0000 0.0000 0.0000 0.0000 0.0000 47.6830
#
#
#
# Elastic Compliance Matrix: (Units=1/GPa)
#
#
# Indices 1 2 3 4 5 6 
#
# 1 0.013943 0.000593 -0.002961 0.000000 0.000000 0.000000
# 2 0.000593 0.013943 -0.002961 0.000000 0.000000 0.000000
# 3 -0.002961 -0.002961 0.020124 0.000000 0.000000 0.000000
# 4 0.000000 0.000000 0.000000 0.046618 0.000000 0.000000
# 5 0.000000 0.000000 0.000000 0.000000 0.046619 0.000000
# 6 0.000000 0.000000 0.000000 0.000000 0.000000 0.020972
#
#
# Mechanical properties :
#
#
# Convention : Reuss Voigt Hill
#
# Bulk Modulus (GPa) = 26.77036 26.91969 26.84503
# Shear Modulus (GPa) = 26.97944 30.13544 28.55744
#
# Velocity S-wave (km/s) = 3.69452 3.90463 3.80103
# Velocity P-wave (km/s) = 5.63409 5.82645 5.73108
#
# Compressibility (1/GPa) = 0.03735474
#
# Stress axis : x y z
#
# Youngs Moduli (GPa) = 71.72081 71.71937 49.69099
#
# Poissons Ratio (x) = -0.04255 0.14712
# Poissons Ratio (y) = -0.04255 0.14711
# Poissons Ratio (z) = 0.21234 0.21233
#
# Static dielectric constant tensor:
#      x y z
#    x 1.710500 0.000000 0.000000 
#    y 0.000000 1.710500 0.000000 
#    z 0.000000 0.000000 1.688670 
# 
# From -- ./inp_files/3422.got.cif
#   From: 2010.05.17/outbox.cif.g08.bks.cpg/sg128_2_cif.got.tgz:3422.got - 2010.05.20 12:07:25.
