data_PCOD9564501
_publ_section_title
;
Structure prediction by ZEFSAII (Michael W. Deem and Ramdas Pophale) SiO2 
 PCOD9564501
Probable space group: P 4/M B M
;
_chemical_formula_sum "Si O2"
_cell_formula_units_Z 96
_cell_length_a 24.000000
_cell_length_b 24.000000
_cell_length_c 9.000000
_cell_angle_alpha 90.000000
_cell_angle_beta 90.000000
_cell_angle_gamma 90.000000
_cell_volume 5184.000000
_symmetry_space_group_name_H-M "P 4/M B M"
_symmetry_group_IT_number 127
_symmetry_cell_setting 'tetragonal'
loop_
_space_group_symop_operation_xyz
x,y,z
-y,x,z
-x,-y,z
y,-x,z
1/2+x,1/2-y,-z
1/2-x,1/2+y,-z
1/2+y,1/2+x,-z
1/2-y,1/2-x,-z
-x,-y,-z
y,-x,-z
x,y,-z
-y,x,-z
1/2-x,1/2+y,z
1/2+x,1/2-y,z
1/2-y,1/2-x,z
1/2+y,1/2+x,z
loop_
_atom_site_type_symbol
_atom_site_label
_atom_site_fract_x
_atom_site_fract_y
_atom_site_fract_z
Si Si1 0.165518 0.214146 0.328896
Si Si2 0.099065 0.313555 0.821009
Si Si3 0.729517 0.981908 0.826888
Si Si4 0.360850 0.230065 0.323213
Si Si5 0.640340 0.492316 0.832013
Si Si6 0.105474 0.905701 0.666247
O O1 0.177219 0.230710 0.500000
O O2 0.140707 0.266020 0.240447
O O3 0.219868 0.180472 0.270684
O O4 0.117479 0.167735 0.331709
O O5 0.127491 0.372510 0.783654
O O6 0.035365 0.304799 0.767776
O O7 0.097536 0.307921 0.000000
O O8 0.727074 0.922184 0.746713
O O9 0.793831 0.001487 0.821518
O O10 0.714825 0.972886 0.000000
O O11 0.367672 0.240074 0.500000
O O12 0.326888 0.173113 0.300625
O O13 0.607353 0.531111 0.718876
O O14 0.628690 0.429643 0.784402
O O15 0.622397 0.503771 0.000000
O O16 0.083351 0.898151 0.500000
#
# Coordination Sequence:
#
# PCOD9564501 Si02
#       6
#    16  16  16  16  16  16
#     4  10  20  34  55  82 114 145 178 222 272 326
#     4  10  21  37  57  83 114 146 182 224 272 327
#     4  10  21  36  56  81 110 144 181 223 271 327
#     4  10  21  37  57  83 114 146 182 224 272 327
#     4  11  22  37  56  78 108 146 189 234 277 321
#     4  11  22  36  56  80 107 145 190 232 273 326
#
# _framework density 18.518519000000001
#
# number of rings (size 3 to 8) (size 9 to 14) (size 15 to 20)
#    0.000    1.667    3.333    1.500    0.000    4.333 
#    0.000    1.667    0.000    0.500    0.000    3.500 
#    0.000    0.000    0.000    0.000    0.000    0.000 
#
# Total GULP energy -535283.884642 kJ/mol
# GULP energy per Si atom -5575.873798 kJ/mol
# Density = 1.847637 g / cm^3
# Si number density = 18.518519 Si / 1000 Ang^3
#
#
#
# Elastic Constant Matrix: (Units=GPa)
#
#
# Indices 1 2 3 4 5 6 
#
# 1 43.9486 43.6828 25.4440 0.0000 0.0000 0.0000
# 2 43.6828 43.9486 25.4440 0.0000 0.0000 0.0000
# 3 25.4440 25.4440 24.3322 0.0000 0.0000 0.0000
# 4 0.0000 0.0000 0.0000 19.9188 0.0000 0.0000
# 5 0.0000 0.0000 0.0000 0.0000 19.9188 0.0000
# 6 0.0000 0.0000 0.0000 0.0000 0.0000 24.6603
#
#
#
# Elastic Compliance Matrix: (Units=1/GPa)
#
#
# Indices 1 2 3 4 5 6 
#
# 1 1.895640 -1.866586 -0.030382 0.000000 0.000000 0.000000
# 2 -1.866586 1.895640 -0.030382 0.000000 0.000000 0.000000
# 3 -0.030382 -0.030382 0.104638 0.000000 0.000000 0.000000
# 4 0.000000 0.000000 0.000000 0.050204 0.000000 0.000000
# 5 0.000000 0.000000 0.000000 0.000000 0.050204 0.000000
# 6 0.000000 0.000000 0.000000 0.000000 0.000000 0.040551
#
#
# Mechanical properties :
#
#
# Convention : Reuss Voigt Hill
#
# Bulk Modulus (GPa) = 24.26062 33.48566 28.87314
# Shear Modulus (GPa) = 0.63249 14.07683 7.35466
#
# Velocity S-wave (km/s) = 0.58505 2.76007 1.99503
# Velocity P-wave (km/s) = 3.68586 5.31778 4.57517
#
# Compressibility (1/GPa) = 0.04121906
#
# Stress axis : x y z
#
# Youngs Moduli (GPa) = 0.52753 0.52753 9.55673
#
# Poissons Ratio (x) = 0.98467 0.29035
# Poissons Ratio (y) = 0.98467 0.29035
# Poissons Ratio (z) = 0.01603 0.01603
#
# Static dielectric constant tensor:
#      x y z
#    x 1.653040 0.000000 0.000000 
#    y 0.000000 1.653040 0.000000 
#    z 0.000000 0.000000 1.639490 
# 
# From -- ./inp_files/2011.got.cif
#   From: 2010.05.17/outbox.ucp.g08.bks.cvg/sg127_2_cif.got.tgz:2011.got - 2010.06.11 11:37:05.
