data_PCOD9564500
_publ_section_title
;
Structure prediction by ZEFSAII (Michael W. Deem and Ramdas Pophale) SiO2 
 PCOD9564500
Probable space group: P 4/M B M
;
_chemical_formula_sum "Si O2"
_cell_formula_units_Z 96
_cell_length_a 15.000000
_cell_length_b 15.000000
_cell_length_c 21.000000
_cell_angle_alpha 90.000000
_cell_angle_beta 90.000000
_cell_angle_gamma 90.000000
_cell_volume 4725.000000
_symmetry_space_group_name_H-M "P 4/M B M"
_symmetry_group_IT_number 127
_symmetry_cell_setting 'tetragonal'
loop_
_space_group_symop_operation_xyz
x,y,z
-y,x,z
-x,-y,z
y,-x,z
1/2+x,1/2-y,-z
1/2-x,1/2+y,-z
1/2+y,1/2+x,-z
1/2-y,1/2-x,-z
-x,-y,-z
y,-x,-z
x,y,-z
-y,x,-z
1/2-x,1/2+y,z
1/2+x,1/2-y,z
1/2-y,1/2-x,z
1/2+y,1/2+x,z
loop_
_atom_site_type_symbol
_atom_site_label
_atom_site_fract_x
_atom_site_fract_y
_atom_site_fract_z
Si Si1 0.147946 0.502997 0.069109
Si Si2 0.829157 0.471834 0.208503
Si Si3 0.389226 0.398560 0.930984
Si Si4 0.319239 0.675804 0.200185
Si Si5 0.404062 0.760221 0.688244
Si Si6 0.469731 0.646939 0.426559
O O1 0.100129 0.600129 0.071021
O O2 0.190826 0.488464 0.138143
O O3 0.070023 0.429978 0.066606
O O4 0.194923 0.497281 0.000000
O O5 0.924330 0.424330 0.204241
O O6 0.754711 0.396733 0.216967
O O7 0.823903 0.534978 0.268671
O O8 0.494924 0.380224 0.928788
O O9 0.347273 0.356854 0.868621
O O10 0.355657 0.365433 0.000000
O O11 0.271141 0.771141 0.195991
O O12 0.385223 0.682175 0.259849
O O13 0.313430 0.813430 0.671789
O O14 0.449797 0.721112 0.625891
O O15 0.398370 0.566624 0.418409
O O16 0.463335 0.678186 0.500000
#
# Coordination Sequence:
#
# PCOD9564500 Si02
#       6
#    16  16  16  16  16  16
#     4   8  14  26  45  67  89 120 171 227 266 300
#     4  10  20  34  52  74 104 144 186 224 267 324
#     4   9  18  33  52  71  93 128 175 224 274 329
#     4  10  21  34  49  73 104 137 175 221 270 319
#     4  11  22  35  54  82 115 145 174 215 270 324
#     4   9  19  38  64  90 113 141 180 220 256 304
#
# _framework density 20.317460000000001
#
# number of rings (size 3 to 8) (size 9 to 14) (size 15 to 20)
#    0.000    2.500    0.000    4.000    0.000    2.333 
#    0.000    4.167    0.000    2.500    0.000    1.167 
#    0.000    0.000    0.000    0.000    0.000    0.000 
#
# Total GULP energy -535439.310226 kJ/mol
# GULP energy per Si atom -5577.492815 kJ/mol
# Density = 2.027122 g / cm^3
# Si number density = 20.317460 Si / 1000 Ang^3
#
#
#
# Elastic Constant Matrix: (Units=GPa)
#
#
# Indices 1 2 3 4 5 6 
#
# 1 23.4716 46.2632 40.0856 0.0000 0.0000 0.0000
# 2 46.2632 23.4716 40.0856 0.0000 0.0000 0.0000
# 3 40.0856 40.0856 165.3759 0.0000 0.0000 0.0000
# 4 0.0000 0.0000 0.0000 27.6423 0.0000 0.0000
# 5 0.0000 0.0000 0.0000 0.0000 27.6423 0.0000
# 6 0.0000 0.0000 0.0000 0.0000 0.0000 25.6621
#
#
#
# Elastic Compliance Matrix: (Units=1/GPa)
#
#
# Indices 1 2 3 4 5 6 
#
# 1 -0.011998 0.031878 -0.004819 0.000000 0.000000 0.000000
# 2 0.031878 -0.011998 -0.004819 0.000000 0.000000 0.000000
# 3 -0.004819 -0.004819 0.008383 0.000000 0.000000 0.000000
# 4 0.000000 0.000000 0.000000 0.036176 0.000000 0.000000
# 5 0.000000 0.000000 0.000000 0.000000 0.036176 0.000000
# 6 0.000000 0.000000 0.000000 0.000000 0.000000 0.038968
#
#
# Mechanical properties :
#
#
# Convention : Reuss Voigt Hill
#
# Bulk Modulus (GPa) = 34.64062 51.68756 43.16409
# Shear Modulus (GPa) = 82.17042 21.91500 52.04271
#
# Velocity S-wave (km/s) = 6.36640 3.28781 5.06659
# Velocity P-wave (km/s) = 8.43375 6.31729 7.45105
#
# Compressibility (1/GPa) = 0.02886785
#
# Stress axis : x y z
#
# Youngs Moduli (GPa) = -83.34709 -83.34709 119.29105
#
# Poissons Ratio (x) = 2.65693 0.57483
# Poissons Ratio (y) = 2.65693 0.57483
# Poissons Ratio (z) = -0.40163 -0.40163
#
# Static dielectric constant tensor:
#      x y z
#    x 1.775890 0.000000 0.000000 
#    y 0.000000 1.775890 0.000000 
#    z 0.000000 0.000000 1.700850 
# 
# From -- ./inp_files/5792.got.cif
#   From: 2010.05.17/outbox.ucp.g08.bks.cvg/sg127_3_cif.got.tgz:5792.got - 2010.06.11 11:37:05.
