data_PCOD9564227
_publ_section_title
;
Structure prediction by ZEFSAII (Michael W. Deem and Ramdas Pophale) SiO2 
 PCOD9564227
Probable space group: P 4/M B M
;
_chemical_formula_sum "Si O2"
_cell_formula_units_Z 116
_cell_length_a 17.791676
_cell_length_b 17.791676
_cell_length_c 18.028314
_cell_angle_alpha 90.000000
_cell_angle_beta 90.000000
_cell_angle_gamma 90.000000
_cell_volume 5706.749847
_symmetry_space_group_name_H-M "P 4/M B M"
_symmetry_group_IT_number 127
_symmetry_cell_setting 'tetragonal'
loop_
_space_group_symop_operation_xyz
x,y,z
-y,x,z
-x,-y,z
y,-x,z
1/2+x,1/2-y,-z
1/2-x,1/2+y,-z
1/2+y,1/2+x,-z
1/2-y,1/2-x,-z
-x,-y,-z
y,-x,-z
x,y,-z
-y,x,-z
1/2-x,1/2+y,z
1/2+x,1/2-y,z
1/2-y,1/2-x,z
1/2+y,1/2+x,z
loop_
_atom_site_type_symbol
_atom_site_label
_atom_site_fract_x
_atom_site_fract_y
_atom_site_fract_z
Si Si1 0.414995 0.414082 0.340834
Si Si2 0.430028 0.675495 0.914485
Si Si3 0.523448 0.149270 0.380412
Si Si4 0.347804 0.974482 0.917100
Si Si5 0.097469 0.597469 0.500000
Si Si6 0.319991 0.061555 0.769683
Si Si7 0.426428 0.350071 0.183689
Si Si8 0.228096 0.848670 0.587748
O O1 0.500362 0.396947 0.364484
O O2 0.417000 0.407409 0.251698
O O3 0.350675 0.360609 0.371905
O O4 0.436622 0.765397 0.912320
O O5 0.502036 0.642192 0.870620
O O6 0.358909 0.644926 0.869805
O O7 0.429472 0.651677 0.000000
O O8 0.574167 0.074167 0.388929
O O9 0.453560 0.140150 0.435392
O O10 0.494285 0.158828 0.296862
O O11 0.578907 0.218386 0.399235
O O12 0.412697 0.912697 0.910973
O O13 0.350147 0.029874 0.847914
O O14 0.352979 0.008885 0.000000
O O15 0.359441 0.140560 0.754477
O O16 0.230908 0.067286 0.778272
O O17 0.215302 0.841100 0.500000
O O18 0.276415 0.776415 0.613078
#
# Coordination Sequence:
#
# PCOD9564227 Si02
#       8
#    16  16  16  16   4  16  16  16
#     4  11  23  42  68  94 128 173 221 270 322 395
#     4  10  21  38  62  91 121 155 205 267 325 384
#     4  11  21  37  62  95 131 171 219 275 334 397
#     4   9  20  39  60  85 122 170 218 259 310 382
#     4  12  21  36  68 100 130 172 228 286 342 390
#     4  11  24  38  58  92 131 166 212 263 324 395
#     4  11  22  40  61  88 124 159 204 261 326 387
#     4  10  23  43  67  97 133 171 218 277 343 406
#
# _framework density 20.326805
#
# number of rings (size 3 to 8) (size 9 to 14) (size 15 to 20)
#    0.000    1.517    2.759    2.276    1.931    3.586 
#    0.000    2.069    0.000    0.000    0.000    0.000 
#    0.000    0.000    0.000    0.000    0.000    0.000 
#
# Total GULP energy -646817.210718 kJ/mol
# GULP energy per Si atom -5576.010437 kJ/mol
# Density = 2.028054 g / cm^3
# Si number density = 20.326805 Si / 1000 Ang^3
#
#
#
# Elastic Constant Matrix: (Units=GPa)
#
#
# Indices 1 2 3 4 5 6 
#
# 1 44.4513 39.9730 25.3668 0.0000 0.0000 0.0000
# 2 39.9730 44.4513 25.3668 0.0000 0.0000 0.0000
# 3 25.3668 25.3668 87.8672 0.0000 0.0000 0.0000
# 4 0.0000 0.0000 0.0000 22.1105 0.0000 0.0000
# 5 0.0000 0.0000 0.0000 0.0000 22.1105 0.0000
# 6 0.0000 0.0000 0.0000 0.0000 0.0000 12.4904
#
#
#
# Elastic Compliance Matrix: (Units=1/GPa)
#
#
# Indices 1 2 3 4 5 6 
#
# 1 0.118815 -0.104484 -0.004137 0.000000 0.000000 0.000000
# 2 -0.104484 0.118815 -0.004137 0.000000 0.000000 0.000000
# 3 -0.004137 -0.004137 0.013770 0.000000 0.000000 0.000000
# 4 0.000000 0.000000 0.000000 0.045227 0.000000 0.000000
# 5 0.000000 0.000000 0.000000 0.000000 0.045227 0.000000
# 6 0.000000 0.000000 0.000000 0.000000 0.000000 0.080061
#
#
# Mechanical properties :
#
#
# Convention : Reuss Voigt Hill
#
# Bulk Modulus (GPa) = 38.63586 39.79813 39.21699
# Shear Modulus (GPa) = 7.62124 17.07983 12.35054
#
# Velocity S-wave (km/s) = 1.93843 2.90187 2.46763
# Velocity P-wave (km/s) = 4.90496 5.55423 5.23966
#
# Compressibility (1/GPa) = 0.02588269
#
# Stress axis : x y z
#
# Youngs Moduli (GPa) = 8.41643 8.41643 72.62342
#
# Poissons Ratio (x) = 0.87938 0.30047
# Poissons Ratio (y) = 0.87938 0.30047
# Poissons Ratio (z) = 0.03482 0.03482
#
# Static dielectric constant tensor:
#      x y z
#    x 1.725750 0.000000 0.000000 
#    y 0.000000 1.725750 0.000000 
#    z 0.000000 0.000000 1.707920 
# 
# From -- ./inp_files/5277.got.cif
#   From: 2010.05.17/outbox.cif.g08.bks.cpg/sg127_3_cif.got.tgz:5277.got - 2010.05.20 12:03:00.
