data_PCOD9564010
_publ_section_title
;
Structure prediction by ZEFSAII (Michael W. Deem and Ramdas Pophale) SiO2 
 PCOD9564010
Probable space group: P 4/M B M
;
_chemical_formula_sum "Si O2"
_cell_formula_units_Z 56
_cell_length_a 16.980134
_cell_length_b 16.980134
_cell_length_c 9.358053
_cell_angle_alpha 90.000000
_cell_angle_beta 90.000000
_cell_angle_gamma 90.000000
_cell_volume 2698.160169
_symmetry_space_group_name_H-M "P 4/M B M"
_symmetry_group_IT_number 127
_symmetry_cell_setting 'tetragonal'
loop_
_space_group_symop_operation_xyz
x,y,z
-y,x,z
-x,-y,z
y,-x,z
1/2+x,1/2-y,-z
1/2-x,1/2+y,-z
1/2+y,1/2+x,-z
1/2-y,1/2-x,-z
-x,-y,-z
y,-x,-z
x,y,-z
-y,x,-z
1/2-x,1/2+y,z
1/2+x,1/2-y,z
1/2-y,1/2-x,z
1/2+y,1/2+x,z
loop_
_atom_site_type_symbol
_atom_site_label
_atom_site_fract_x
_atom_site_fract_y
_atom_site_fract_z
Si Si1 0.711231 0.340163 0.331759
Si Si2 0.568332 0.068332 0.334571
Si Si3 0.074757 0.108144 0.835182
Si Si4 0.542217 0.823524 0.162782
O O1 0.711480 0.356793 0.500000
O O2 0.760809 0.260809 0.307249
O O3 0.623781 0.337332 0.269540
O O4 0.757681 0.409190 0.247904
O O5 0.586294 0.086294 0.500000
O O6 0.531286 0.142053 0.250355
O O7 0.500000 0.000000 0.336157
O O8 0.981618 0.104181 0.813334
O O9 0.090408 0.129081 0.000000
O O10 0.603485 0.896516 0.152849
O O11 0.522861 0.799174 0.000000
#
# Coordination Sequence:
#
# PCOD9564010 Si02
#       4
#    16   8  16  16
#     4  10  20  33  52  81 115 148 183 227 280 336
#     4   9  15  23  37  59  91 129 171 221 271 319
#     4   9  19  37  61  87 113 143 184 235 285 335
#     4   9  16  26  42  65  94 133 179 221 263 317
#
# _framework density 20.754881999999998
#
# number of rings (size 3 to 8) (size 9 to 14) (size 15 to 20)
#    0.000    2.714    0.000    3.000    0.000    8.000 
#    0.000    1.429    3.143    0.000    0.000    0.000 
#    0.000    0.000    0.000    0.000    0.000    0.000 
#
# Total GULP energy -312710.434820 kJ/mol
# GULP energy per Si atom -5584.114907 kJ/mol
# Density = 2.070764 g / cm^3
# Si number density = 20.754882 Si / 1000 Ang^3
#
#
#
# Elastic Constant Matrix: (Units=GPa)
#
#
# Indices 1 2 3 4 5 6 
#
# 1 40.8773 24.5457 42.0719 0.0000 0.0000 0.0000
# 2 24.5457 40.8773 42.0719 0.0000 0.0000 0.0000
# 3 42.0719 42.0719 122.1170 0.0000 0.0000 0.0000
# 4 0.0000 0.0000 0.0000 15.6570 0.0000 0.0000
# 5 0.0000 0.0000 0.0000 0.0000 15.6570 0.0000
# 6 0.0000 0.0000 0.0000 0.0000 0.0000 -1.1195
#
#
#
# Elastic Compliance Matrix: (Units=1/GPa)
#
#
# Indices 1 2 3 4 5 6 
#
# 1 0.044339 -0.016892 -0.009456 0.000000 0.000000 0.000000
# 2 -0.016892 0.044339 -0.009456 0.000000 0.000000 0.000000
# 3 -0.009456 -0.009456 0.014705 0.000000 0.000000 0.000000
# 4 0.000000 0.000000 0.000000 0.063869 0.000000 0.000000
# 5 0.000000 0.000000 0.000000 0.000000 0.063869 0.000000
# 6 0.000000 0.000000 0.000000 0.000000 0.000000 -0.893243
#
#
# Mechanical properties :
#
#
# Convention : Reuss Voigt Hill
#
# Bulk Modulus (GPa) = 31.47199 46.80562 39.13881
# Shear Modulus (GPa) = -8.62184 12.38438 1.88127
#
# Velocity S-wave (km/s) = -2.04038 2.44539 0.95310
# Velocity P-wave (km/s) = 3.10576 5.52936 4.48439
#
# Compressibility (1/GPa) = 0.03177428
#
# Stress axis : x y z
#
# Youngs Moduli (GPa) = 22.55349 22.55349 68.00633
#
# Poissons Ratio (x) = 0.38097 0.64307
# Poissons Ratio (y) = 0.38097 0.64307
# Poissons Ratio (z) = 0.21327 0.21327
#
# Static dielectric constant tensor:
#      x y z
#    x 1.520640 0.000000 0.000000 
#    y 0.000000 1.520640 0.000000 
#    z 0.000000 0.000000 1.703750 
# 
# From -- ./inp_files/1070.got.cif
#   From: 2010.05.17/outbox.cif.g08.bks.cpg/sg127_1_cif.got.tgz:1070.got - 2010.05.20 12:03:00.
