data_PCOD9564043
_publ_section_title
;
Structure prediction by ZEFSAII (Michael W. Deem and Ramdas Pophale) SiO2 
 PCOD9564043
Probable space group: P 4/M B M
;
_chemical_formula_sum "Si O2"
_cell_formula_units_Z 120
_cell_length_a 26.888779
_cell_length_b 26.888779
_cell_length_c 8.700024
_cell_angle_alpha 90.000000
_cell_angle_beta 90.000000
_cell_angle_gamma 90.000000
_cell_volume 6290.173346
_symmetry_space_group_name_H-M "P 4/M B M"
_symmetry_group_IT_number 127
_symmetry_cell_setting 'tetragonal'
loop_
_space_group_symop_operation_xyz
x,y,z
-y,x,z
-x,-y,z
y,-x,z
1/2+x,1/2-y,-z
1/2-x,1/2+y,-z
1/2+y,1/2+x,-z
1/2-y,1/2-x,-z
-x,-y,-z
y,-x,-z
x,y,-z
-y,x,-z
1/2-x,1/2+y,z
1/2+x,1/2-y,z
1/2-y,1/2-x,z
1/2+y,1/2+x,z
loop_
_atom_site_type_symbol
_atom_site_label
_atom_site_fract_x
_atom_site_fract_y
_atom_site_fract_z
Si Si1 0.532099 0.116210 0.819158
Si Si2 0.460617 0.776465 0.315921
Si Si3 0.575044 0.373872 0.176524
Si Si4 0.289717 0.366557 0.320724
Si Si5 0.738459 0.430347 0.320868
Si Si6 0.320967 0.260770 0.183735
Si Si7 0.141201 0.039889 0.176447
Si Si8 0.042775 0.542775 0.677358
O O1 0.576283 0.076283 0.797162
O O2 0.543393 0.166028 0.727348
O O3 0.481808 0.089794 0.760133
O O4 0.528142 0.126933 0.000000
O O5 0.461314 0.768952 0.500000
O O6 0.410578 0.747570 0.259944
O O7 0.516011 0.759376 0.259684
O O8 0.607515 0.342656 0.293660
O O9 0.589699 0.431136 0.187203
O O10 0.517845 0.364324 0.203743
O O11 0.587123 0.357917 0.000000
O O12 0.278467 0.358735 0.500000
O O13 0.296355 0.312537 0.243383
O O14 0.751662 0.427162 0.500000
O O15 0.749625 0.376977 0.244466
O O16 0.679875 0.436975 0.293521
O O17 0.284268 0.215733 0.226682
O O18 0.323790 0.264394 0.000000
O O19 0.159730 0.047490 0.000000
O O20 0.053922 0.553922 0.500000
O O21 0.000000 0.500000 0.680513
#
# Coordination Sequence:
#
# PCOD9564043 Si02
#       8
#    16  16  16  16  16  16  16   8
#     4  10  21  37  59  88 120 154 194 241 292 349
#     4  10  23  40  59  89 123 158 199 247 304 364
#     4  10  20  34  55  84 117 155 196 237 288 349
#     4  11  22  38  61  87 117 154 199 247 298 356
#     4  11  22  39  62  87 118 156 201 249 298 357
#     4  11  25  44  64  89 122 159 204 255 309 370
#     4  10  20  34  56  85 118 158 198 239 292 351
#     4   9  17  33  59  85 113 153 191 225 277 345
#
# _framework density 19.077373999999999
#
# number of rings (size 3 to 8) (size 9 to 14) (size 15 to 20)
#    0.000    1.667    2.667    1.800    0.000    5.600 
#    1.200    4.000    0.000    0.000    0.000    1.867 
#    0.000    0.000    0.000    0.000    0.000    0.000 
#
# Total GULP energy -668861.977989 kJ/mol
# GULP energy per Si atom -5573.849817 kJ/mol
# Density = 1.903395 g / cm^3
# Si number density = 19.077374 Si / 1000 Ang^3
#
#
#
# Elastic Constant Matrix: (Units=GPa)
#
#
# Indices 1 2 3 4 5 6 
#
# 1 57.5000 19.3531 17.7952 0.0000 0.0000 0.0000
# 2 19.3531 57.5000 17.7952 0.0000 0.0000 0.0000
# 3 17.7952 17.7952 17.4466 0.0000 0.0000 0.0000
# 4 0.0000 0.0000 0.0000 21.9560 0.0000 0.0000
# 5 0.0000 0.0000 0.0000 0.0000 21.9560 0.0000
# 6 0.0000 0.0000 0.0000 0.0000 0.0000 34.8741
#
#
#
# Elastic Compliance Matrix: (Units=1/GPa)
#
#
# Indices 1 2 3 4 5 6 
#
# 1 0.025437 -0.000777 -0.025153 0.000000 0.000000 0.000000
# 2 -0.000777 0.025437 -0.025153 0.000000 0.000000 0.000000
# 3 -0.025153 -0.025153 0.108629 0.000000 0.000000 0.000000
# 4 0.000000 0.000000 0.000000 0.045546 0.000000 0.000000
# 5 0.000000 0.000000 0.000000 0.000000 0.045546 0.000000
# 6 0.000000 0.000000 0.000000 0.000000 0.000000 0.028675
#
#
# Mechanical properties :
#
#
# Convention : Reuss Voigt Hill
#
# Bulk Modulus (GPa) = 17.44056 26.92595 22.18326
# Shear Modulus (GPa) = 12.48291 20.92410 16.70351
#
# Velocity S-wave (km/s) = 2.56076 3.31539 2.96221
# Velocity P-wave (km/s) = 4.23145 5.36661 4.83248
#
# Compressibility (1/GPa) = 0.05733759
#
# Stress axis : x y z
#
# Youngs Moduli (GPa) = 39.31239 39.31239 9.20565
#
# Poissons Ratio (x) = 0.03055 0.23155
# Poissons Ratio (y) = 0.03055 0.23155
# Poissons Ratio (z) = 0.98882 0.98882
#
# Static dielectric constant tensor:
#      x y z
#    x 1.670720 0.000000 0.000000 
#    y 0.000000 1.670720 0.000000 
#    z 0.000000 0.000000 1.683370 
# 
# From -- ./inp_files/2368.got.cif
#   From: 2010.05.17/outbox.cif.g08.bks.cpg/sg127_2_cif.got.tgz:2368.got - 2010.05.20 12:03:00.
