data_PCOD9564115
_publ_section_title
;
Structure prediction by ZEFSAII (Michael W. Deem and Ramdas Pophale) SiO2 
 PCOD9564115
Probable space group: P 4/M B M
;
_chemical_formula_sum "Si O2"
_cell_formula_units_Z 88
_cell_length_a 18.630682
_cell_length_b 18.630682
_cell_length_c 14.768182
_cell_angle_alpha 90.000000
_cell_angle_beta 90.000000
_cell_angle_gamma 90.000000
_cell_volume 5126.070113
_symmetry_space_group_name_H-M "P 4/M B M"
_symmetry_group_IT_number 127
_symmetry_cell_setting 'tetragonal'
loop_
_space_group_symop_operation_xyz
x,y,z
-y,x,z
-x,-y,z
y,-x,z
1/2+x,1/2-y,-z
1/2-x,1/2+y,-z
1/2+y,1/2+x,-z
1/2-y,1/2-x,-z
-x,-y,-z
y,-x,-z
x,y,-z
-y,x,-z
1/2-x,1/2+y,z
1/2+x,1/2-y,z
1/2-y,1/2-x,z
1/2+y,1/2+x,z
loop_
_atom_site_type_symbol
_atom_site_label
_atom_site_fract_x
_atom_site_fract_y
_atom_site_fract_z
Si Si1 0.139762 0.832697 0.000000
Si Si2 0.389852 0.450825 0.500000
Si Si3 0.560653 0.060653 0.739232
Si Si4 0.302979 0.402162 0.677669
Si Si5 0.288796 0.001879 0.192378
Si Si6 0.719689 0.518148 0.000000
Si Si7 0.842676 0.227124 0.198949
Si Si8 0.151645 0.348356 0.393852
O O1 0.170746 0.912099 0.000000
O O2 0.163732 0.795159 0.906631
O O3 0.053644 0.828139 0.000000
O O4 0.464944 0.408198 0.500000
O O5 0.347562 0.431161 0.592191
O O6 0.525897 0.130777 0.787706
O O7 0.595600 0.095600 0.649700
O O8 0.500000 0.000000 0.726460
O O9 0.269957 0.462403 0.744145
O O10 0.345133 0.343674 0.738440
O O11 0.231396 0.366145 0.638131
O O12 0.275838 0.086356 0.207516
O O13 0.268140 0.983968 0.089433
O O14 0.773712 0.273712 0.224687
O O15 0.146879 0.353122 0.500000
#
# Coordination Sequence:
#
# PCOD9564115 Si02
#       8
#     8   8   8  16  16   8  16   8
#     4  10  21  35  57  80 119 152 190 238 282 352
#     4  11  24  39  56  80 113 151 190 235 295 360
#     4  10  22  40  60  86 119 161 197 241 300 356
#     4  11  20  37  61  83 112 151 187 242 295 341
#     4  10  22  37  59  86 119 155 196 241 290 357
#     4  10  20  38  55  85 116 155 195 235 296 340
#     4  11  21  36  58  87 115 151 193 244 288 341
#     4  10  20  37  61  87 110 147 195 239 294 343
#
# _framework density 17.167147
#
# number of rings (size 3 to 8) (size 9 to 14) (size 15 to 20)
#    0.000    1.545    3.636    1.909    0.000    0.727 
#    1.636    1.818    0.000    0.000    0.000    0.000 
#    0.000    0.000    0.000    0.000    0.000    0.000 
#
# Total GULP energy -490875.333146 kJ/mol
# GULP energy per Si atom -5578.128786 kJ/mol
# Density = 1.712807 g / cm^3
# Si number density = 17.167147 Si / 1000 Ang^3
#
#
#
# Elastic Constant Matrix: (Units=GPa)
#
#
# Indices 1 2 3 4 5 6 
#
# 1 83.5918 49.9665 43.9798 0.0000 0.0000 0.0000
# 2 49.9665 83.5911 43.9792 0.0000 0.0000 0.0000
# 3 43.9798 43.9792 131.1680 0.0000 0.0000 0.0000
# 4 0.0000 0.0000 0.0000 20.1181 0.0000 0.0000
# 5 0.0000 0.0000 0.0000 0.0000 20.1181 0.0000
# 6 0.0000 0.0000 0.0000 0.0000 0.0000 1.4945
#
#
#
# Elastic Compliance Matrix: (Units=1/GPa)
#
#
# Indices 1 2 3 4 5 6 
#
# 1 0.019675 -0.010065 -0.003222 0.000000 0.000000 0.000000
# 2 -0.010065 0.019675 -0.003222 0.000000 0.000000 0.000000
# 3 -0.003222 -0.003222 0.009784 0.000000 0.000000 0.000000
# 4 0.000000 0.000000 0.000000 0.049706 0.000000 0.000000
# 5 0.000000 0.000000 0.000000 0.000000 0.049707 0.000000
# 6 0.000000 0.000000 0.000000 0.000000 0.000000 0.669127
#
#
# Mechanical properties :
#
#
# Convention : Reuss Voigt Hill
#
# Bulk Modulus (GPa) = 62.05285 63.80020 62.92653
# Shear Modulus (GPa) = 5.84069 19.04116 12.44093
#
# Velocity S-wave (km/s) = 1.84652 3.33402 2.69493
# Velocity P-wave (km/s) = 6.38521 7.21566 6.81310
#
# Compressibility (1/GPa) = 0.01611530
#
# Stress axis : x y z
#
# Youngs Moduli (GPa) = 50.82715 50.82693 102.20383
#
# Poissons Ratio (x) = 0.51159 0.32930
# Poissons Ratio (y) = 0.51159 0.32929
# Poissons Ratio (z) = 0.16376 0.16376
#
# Static dielectric constant tensor:
#      x y z
#    x 1.563850 0.000000 0.000000 
#    y 0.000000 1.563850 0.000000 
#    z 0.000000 0.000000 1.565780 
# 
# From -- ./inp_files/4480.got.cif
#   From: 2010.05.17/outbox.cif.g08.bks.cpg/sg127_3_cif.got.tgz:4480.got - 2010.05.20 12:03:00.
