data_PCOD9564946
_publ_section_title
;
Structure prediction by ZEFSAII (Michael W. Deem and Ramdas Pophale) SiO2 
 PCOD9564946
Probable space group: P 4/M N C
;
_chemical_formula_sum "Si O2"
_cell_formula_units_Z 108
_cell_length_a 14.621799
_cell_length_b 14.621799
_cell_length_c 24.529888
_cell_angle_alpha 90.000000
_cell_angle_beta 90.000000
_cell_angle_gamma 90.000000
_cell_volume 5244.416612
_symmetry_space_group_name_H-M "P 4/M N C"
_symmetry_group_IT_number 128
_symmetry_cell_setting 'tetragonal'
loop_
_space_group_symop_operation_xyz
x,y,z
-y,x,z
-x,-y,z
y,-x,z
1/2+x,1/2-y,1/2-z
1/2-x,1/2+y,1/2-z
1/2+y,1/2+x,1/2-z
1/2-y,1/2-x,1/2-z
-x,-y,-z
y,-x,-z
x,y,-z
-y,x,-z
1/2-x,1/2+y,1/2+z
1/2+x,1/2-y,1/2+z
1/2-y,1/2-x,1/2+z
1/2+y,1/2+x,1/2+z
loop_
_atom_site_type_symbol
_atom_site_label
_atom_site_fract_x
_atom_site_fract_y
_atom_site_fract_z
Si Si1 0.500000 0.500000 0.704603
Si Si2 0.782416 0.898088 0.611759
Si Si3 0.848915 0.965342 0.500000
Si Si4 0.919875 0.772353 0.660448
Si Si5 0.861961 0.830032 0.219353
Si Si6 0.699347 0.899575 0.849907
Si Si7 0.648145 0.460580 0.435741
Si Si8 0.083260 0.371243 0.188607
O O1 0.564215 0.407268 0.706354
O O2 0.789784 0.945874 0.553526
O O3 0.857358 0.818895 0.615432
O O4 0.686101 0.854939 0.626609
O O5 0.807799 0.977160 0.655334
O O6 0.934994 0.895153 0.500000
O O7 0.874049 0.800969 0.717643
O O8 0.921849 0.662978 0.655738
O O9 0.763051 0.866452 0.200634
O O10 0.885020 0.735426 0.188714
O O11 0.769869 0.935987 0.895833
O O12 0.631672 0.980605 0.832399
O O13 0.607367 0.562081 0.425963
O O14 0.672121 0.454166 0.500000
O O15 0.090842 0.409159 0.250000
#
# Coordination Sequence:
#
# PCOD9564946 Si02
#       8
#     4  16   8  16  16  16  16  16
#     4  12  20  32  64 104 129 181 236 284 344 400
#     4  12  26  44  75  99 136 179 235 296 356 418
#     4  11  24  50  78 105 133 172 233 314 378 408
#     4  11  25  45  65  99 138 179 230 290 350 418
#     4  11  22  38  63 101 142 178 227 291 347 417
#     4  12  24  40  70 101 138 189 236 273 352 429
#     4   9  20  38  63  98 138 176 230 297 350 403
#     4  10  23  44  62  93 145 186 226 273 340 428
#
# _framework density 20.593329000000001
#
# number of rings (size 3 to 8) (size 9 to 14) (size 15 to 20)
#    0.000    1.111    4.444    2.222    3.111    0.889 
#    0.000    2.222    1.630    0.889    0.000    0.000 
#    0.000    0.000    0.000    0.000    0.000    0.000 
#
# Total GULP energy -602985.853570 kJ/mol
# GULP energy per Si atom -5583.202348 kJ/mol
# Density = 2.054646 g / cm^3
# Si number density = 20.593329 Si / 1000 Ang^3
#
#
#
# Elastic Constant Matrix: (Units=GPa)
#
#
# Indices 1 2 3 4 5 6 
#
# 1 100.6219 33.5466 35.3322 0.0000 0.0000 0.0000
# 2 33.5466 100.6216 35.3325 0.0000 0.0000 0.0000
# 3 35.3322 35.3325 80.3437 0.0000 0.0000 0.0000
# 4 0.0000 0.0000 0.0000 21.8855 0.0000 0.0000
# 5 0.0000 0.0000 0.0000 0.0000 21.8855 0.0000
# 6 0.0000 0.0000 0.0000 0.0000 0.0000 39.8941
#
#
#
# Elastic Compliance Matrix: (Units=1/GPa)
#
#
# Indices 1 2 3 4 5 6 
#
# 1 0.012304 -0.002604 -0.004266 0.000000 0.000000 0.000000
# 2 -0.002604 0.012304 -0.004266 0.000000 0.000000 0.000000
# 3 -0.004266 -0.004266 0.016198 0.000000 0.000000 0.000000
# 4 0.000000 0.000000 0.000000 0.045692 0.000000 0.000000
# 5 0.000000 0.000000 0.000000 0.000000 0.045692 0.000000
# 6 0.000000 0.000000 0.000000 0.000000 0.000000 0.025066
#
#
# Mechanical properties :
#
#
# Convention : Reuss Voigt Hill
#
# Bulk Modulus (GPa) = 53.95055 54.44553 54.19804
# Shear Modulus (GPa) = 26.92398 28.55809 27.74104
#
# Velocity S-wave (km/s) = 3.61974 3.72797 3.67425
# Velocity P-wave (km/s) = 6.61248 6.71015 6.66150
#
# Compressibility (1/GPa) = 0.01853549
#
# Stress axis : x y z
#
# Youngs Moduli (GPa) = 81.27240 81.27181 61.73460
#
# Poissons Ratio (x) = 0.21166 0.26334
# Poissons Ratio (y) = 0.21166 0.26335
# Poissons Ratio (z) = 0.34668 0.34669
#
# Static dielectric constant tensor:
#      x y z
#    x 1.727100 0.000000 0.000000 
#    y 0.000000 1.727100 0.000000 
#    z 0.000000 0.000000 1.763190 
# 
# From -- ./inp_files/6512.got.cif
#   From: 2010.05.17/outbox.cif.g08.bks.cpg/sg128_4_cif.got.tgz:6512.got - 2010.05.20 12:07:25.
