data_PCOD9564719
_publ_section_title
;
Structure prediction by ZEFSAII (Michael W. Deem and Ramdas Pophale) SiO2 
 PCOD9564719
Probable space group: P 4/M N C
;
_chemical_formula_sum "Si O2"
_cell_formula_units_Z 112
_cell_length_a 15.480398
_cell_length_b 15.480398
_cell_length_c 22.090751
_cell_angle_alpha 90.000000
_cell_angle_beta 90.000000
_cell_angle_gamma 90.000000
_cell_volume 5293.887706
_symmetry_space_group_name_H-M "P 4/M N C"
_symmetry_group_IT_number 128
_symmetry_cell_setting 'tetragonal'
loop_
_space_group_symop_operation_xyz
x,y,z
-y,x,z
-x,-y,z
y,-x,z
1/2+x,1/2-y,1/2-z
1/2-x,1/2+y,1/2-z
1/2+y,1/2+x,1/2-z
1/2-y,1/2-x,1/2-z
-x,-y,-z
y,-x,-z
x,y,-z
-y,x,-z
1/2-x,1/2+y,1/2+z
1/2+x,1/2-y,1/2+z
1/2-y,1/2-x,1/2+z
1/2+y,1/2+x,1/2+z
loop_
_atom_site_type_symbol
_atom_site_label
_atom_site_fract_x
_atom_site_fract_y
_atom_site_fract_z
Si Si1 0.435544 0.842849 0.935166
Si Si2 0.755225 0.110423 0.183501
Si Si3 0.401541 0.988244 0.163269
Si Si4 0.722296 0.694073 0.120255
Si Si5 0.138224 0.952609 0.930573
Si Si6 0.141110 0.632956 0.069291
Si Si7 0.403451 0.608168 0.213288
O O1 0.373014 0.762838 0.926716
O O2 0.536010 0.820140 0.931113
O O3 0.414218 0.910721 0.883898
O O4 0.421741 0.885860 0.000000
O O5 0.715475 0.203369 0.169050
O O6 0.793413 0.072672 0.120361
O O7 0.834858 0.122344 0.228706
O O8 0.678161 0.045101 0.204632
O O9 0.370885 0.068785 0.121833
O O10 0.500000 0.000000 0.186917
O O11 0.696362 0.782688 0.088313
O O12 0.647116 0.645540 0.155865
O O13 0.051671 0.894114 0.923477
O O14 0.169134 0.941607 0.000000
O O15 0.110338 0.650860 0.000000
O O16 0.383025 0.507079 0.214175
#
# Coordination Sequence:
#
# PCOD9564719 Si02
#       7
#    16  16  16  16  16  16  16
#     4   9  18  36  58  83 123 164 195 238 299 369
#     4  11  23  38  62  90 123 160 204 258 313 382
#     4   9  20  37  58  87 125 164 200 239 305 377
#     4  11  23  38  59  88 122 152 202 260 312 362
#     4   9  19  35  55  86 130 172 208 256 318 382
#     4  10  20  34  59  91 123 162 205 245 299 375
#     4  11  25  45  68  86 112 157 209 265 323 377
#
# _framework density 21.156473999999999
#
# number of rings (size 3 to 8) (size 9 to 14) (size 15 to 20)
#    0.000    2.000    0.000    3.429    4.000    6.286 
#    0.000    0.000    0.000    6.857    0.000    6.000 
#    0.000    0.000    0.000    0.000    0.000    0.000 
#
# Total GULP energy -625361.086793 kJ/mol
# GULP energy per Si atom -5583.581132 kJ/mol
# Density = 2.110832 g / cm^3
# Si number density = 21.156474 Si / 1000 Ang^3
#
#
#
# Elastic Constant Matrix: (Units=GPa)
#
#
# Indices 1 2 3 4 5 6 
#
# 1 41.4962 7.0138 -0.5757 0.0000 0.0000 0.0000
# 2 7.0138 41.4962 -0.5757 0.0000 0.0000 0.0000
# 3 -0.5757 -0.5757 45.9039 0.0000 0.0000 0.0000
# 4 0.0000 0.0000 0.0000 12.9628 0.0000 0.0000
# 5 0.0000 0.0000 0.0000 0.0000 12.9628 0.0000
# 6 0.0000 0.0000 0.0000 0.0000 0.0000 35.9834
#
#
#
# Elastic Compliance Matrix: (Units=1/GPa)
#
#
# Indices 1 2 3 4 5 6 
#
# 1 0.024810 -0.004190 0.000259 0.000000 0.000000 0.000000
# 2 -0.004190 0.024810 0.000259 0.000000 0.000000 0.000000
# 3 0.000259 0.000259 0.021791 0.000000 0.000000 0.000000
# 4 0.000000 0.000000 0.000000 0.077144 0.000000 0.000000
# 5 0.000000 0.000000 0.000000 0.000000 0.077144 0.000000
# 6 0.000000 0.000000 0.000000 0.000000 0.000000 0.027791
#
#
# Mechanical properties :
#
#
# Convention : Reuss Voigt Hill
#
# Bulk Modulus (GPa) = 15.60881 15.62458 15.61670
# Shear Modulus (GPa) = 17.71848 20.58405 19.15127
#
# Velocity S-wave (km/s) = 2.89709 3.12259 3.01195
# Velocity P-wave (km/s) = 4.31099 4.51686 4.41513
#
# Compressibility (1/GPa) = 0.06406639
#
# Stress axis : x y z
#
# Youngs Moduli (GPa) = 40.30573 40.30573 45.89026
#
# Poissons Ratio (x) = 0.16888 -0.01187
# Poissons Ratio (y) = 0.16888 -0.01187
# Poissons Ratio (z) = -0.01042 -0.01042
#
# Static dielectric constant tensor:
#      x y z
#    x 1.776790 0.000000 0.000000 
#    y 0.000000 1.776790 0.000000 
#    z 0.000000 0.000000 1.806270 
# 
# From -- ./inp_files/6442.got.cif
#   From: 2010.05.17/outbox.cif.g08.bks.cpg/sg128_4_cif.got.tgz:6442.got - 2010.05.20 12:07:25.
