data_PCOD9564309
_publ_section_title
;
Structure prediction by ZEFSAII (Michael W. Deem and Ramdas Pophale) SiO2 
 PCOD9564309
Probable space group: P 4/M B M
;
_chemical_formula_sum "Si O2"
_cell_formula_units_Z 58
_cell_length_a 12.012736
_cell_length_b 12.012736
_cell_length_c 21.773658
_cell_angle_alpha 90.000000
_cell_angle_beta 90.000000
_cell_angle_gamma 90.000000
_cell_volume 3142.065707
_symmetry_space_group_name_H-M "P 4/M B M"
_symmetry_group_IT_number 127
_symmetry_cell_setting 'tetragonal'
loop_
_space_group_symop_operation_xyz
x,y,z
-y,x,z
-x,-y,z
y,-x,z
1/2+x,1/2-y,-z
1/2-x,1/2+y,-z
1/2+y,1/2+x,-z
1/2-y,1/2-x,-z
-x,-y,-z
y,-x,-z
x,y,-z
-y,x,-z
1/2-x,1/2+y,z
1/2+x,1/2-y,z
1/2-y,1/2-x,z
1/2+y,1/2+x,z
loop_
_atom_site_type_symbol
_atom_site_label
_atom_site_fract_x
_atom_site_fract_y
_atom_site_fract_z
Si Si1 0.913382 0.586619 0.127167
Si Si2 0.018205 0.812804 0.431477
Si Si3 0.682459 0.994041 0.307178
Si Si4 0.030177 0.181388 0.811301
Si Si5 0.500000 0.000000 0.000000
O O1 0.790437 0.554549 0.148827
O O2 0.000000 0.500000 0.158497
O O3 0.932764 0.567237 0.055108
O O4 0.023137 0.762539 0.500000
O O5 0.023561 0.729486 0.375152
O O6 0.903694 0.883201 0.426979
O O7 0.617724 0.882277 0.286854
O O8 0.593017 0.093017 0.307591
O O9 0.778480 0.026551 0.259426
O O10 0.911490 0.123617 0.823087
#
# Coordination Sequence:
#
# PCOD9564309 Si02
#       5
#     8  16  16  16   2
#     4  10  22  43  71  99 132 177 214 253 312 379
#     4   9  19  36  55  75 106 151 204 264 328 392
#     4  11  23  36  54  84 120 161 209 267 329 388
#     4  11  24  40  65 100 134 173 220 273 325 379
#     4   8  24  44  72 108 132 178 216 240 316 360
#
# _framework density 18.459192999999999
#
# number of rings (size 3 to 8) (size 9 to 14) (size 15 to 20)
#    0.414    1.379    1.379    3.310    3.862    6.621 
#    0.000    6.897    0.000    1.655    0.000    0.000 
#    0.000    0.000    0.000    0.000    0.000    0.000 
#
# Total GULP energy -323268.848589 kJ/mol
# GULP energy per Si atom -5573.600838 kJ/mol
# Density = 1.841718 g / cm^3
# Si number density = 18.459193 Si / 1000 Ang^3
#
#
#
# Elastic Constant Matrix: (Units=GPa)
#
#
# Indices 1 2 3 4 5 6 
#
# 1 108.5267 58.7736 48.6678 0.0000 0.0000 0.0000
# 2 58.7736 108.5267 48.6678 0.0000 0.0000 0.0000
# 3 48.6678 48.6678 125.8803 0.0000 0.0000 0.0000
# 4 0.0000 0.0000 0.0000 -314.7511 0.0000 0.0000
# 5 0.0000 0.0000 0.0000 0.0000 -314.7511 0.0000
# 6 0.0000 0.0000 0.0000 0.0000 0.0000 10.4172
#
#
#
# Elastic Compliance Matrix: (Units=1/GPa)
#
#
# Indices 1 2 3 4 5 6 
#
# 1 0.013906 -0.006194 -0.002982 0.000000 0.000000 0.000000
# 2 -0.006194 0.013906 -0.002982 0.000000 0.000000 0.000000
# 3 -0.002982 -0.002982 0.010250 0.000000 0.000000 0.000000
# 4 0.000000 0.000000 0.000000 -0.003177 0.000000 0.000000
# 5 0.000000 0.000000 0.000000 0.000000 -0.003177 0.000000
# 6 0.000000 0.000000 0.000000 0.000000 0.000000 0.095995
#
#
# Mechanical properties :
#
#
# Convention : Reuss Voigt Hill
#
# Bulk Modulus (GPa) = 72.74268 72.79470 72.76869
# Shear Modulus (GPa) = 31.92903 -111.36202 -39.71649
#
# Velocity S-wave (km/s) = 4.16349 -7.77559 -4.64355
# Velocity P-wave (km/s) = 7.91238 6.41030 3.27977
#
# Compressibility (1/GPa) = 0.01374709
#
# Stress axis : x y z
#
# Youngs Moduli (GPa) = 71.91340 71.91340 97.56521
#
# Poissons Ratio (x) = 0.44541 0.29090
# Poissons Ratio (y) = 0.44541 0.29090
# Poissons Ratio (z) = 0.21442 0.21442
#
# Static dielectric constant tensor:
#      x y z
#    x 1.635590 0.000000 0.000000 
#    y 0.000000 1.635590 0.000000 
#    z 0.000000 0.000000 1.612020 
# 
# From -- ./inp_files/5529.got.cif
#   From: 2010.05.17/outbox.cif.g08.bks.cpg/sg127_3_cif.got.tgz:5529.got - 2010.05.20 12:03:00.
