data_PCOD9564116
_publ_section_title
;
Structure prediction by ZEFSAII (Michael W. Deem and Ramdas Pophale) SiO2 
 PCOD9564116
Probable space group: P 4/M B M
;
_chemical_formula_sum "Si O2"
_cell_formula_units_Z 72
_cell_length_a 14.118940
_cell_length_b 14.118940
_cell_length_c 18.512218
_cell_angle_alpha 90.000000
_cell_angle_beta 90.000000
_cell_angle_gamma 90.000000
_cell_volume 3690.308225
_symmetry_space_group_name_H-M "P 4/M B M"
_symmetry_group_IT_number 127
_symmetry_cell_setting 'tetragonal'
loop_
_space_group_symop_operation_xyz
x,y,z
-y,x,z
-x,-y,z
y,-x,z
1/2+x,1/2-y,-z
1/2-x,1/2+y,-z
1/2+y,1/2+x,-z
1/2-y,1/2-x,-z
-x,-y,-z
y,-x,-z
x,y,-z
-y,x,-z
1/2-x,1/2+y,z
1/2+x,1/2-y,z
1/2-y,1/2-x,z
1/2+y,1/2+x,z
loop_
_atom_site_type_symbol
_atom_site_label
_atom_site_fract_x
_atom_site_fract_y
_atom_site_fract_z
Si Si1 0.564472 0.354819 0.219990
Si Si2 0.418514 0.081487 0.700334
Si Si3 0.776061 0.564439 0.356628
Si Si4 0.772278 0.565863 0.919068
Si Si5 0.418551 0.081450 0.132721
Si Si6 0.540789 0.346422 0.500000
O O1 0.620176 0.453130 0.224630
O O2 0.588588 0.287295 0.286937
O O3 0.581445 0.302267 0.144382
O O4 0.466035 0.170043 0.661061
O O5 0.396144 0.103857 0.783805
O O6 0.500000 0.000000 0.702517
O O7 0.855641 0.644360 0.365871
O O8 0.714344 0.556120 0.428146
O O9 0.851326 0.648675 0.914998
O O10 0.828787 0.467527 0.904548
O O11 0.732138 0.565576 0.000000
O O12 0.500000 0.000000 0.132326
O O13 0.611388 0.435267 0.500000
#
# Coordination Sequence:
#
# PCOD9564116 Si02
#       6
#    16   8  16  16   8   8
#     4  11  24  42  61  84 123 172 208 242 306 376
#     4   9  18  34  64  94 125 157 187 251 319 362
#     4  11  22  43  68  97 126 155 204 260 308 357
#     4  10  20  37  61  90 122 156 205 264 312 360
#     4   9  15  32  60  90 122 157 193 243 320 371
#     4  11  25  47  66  89 134 175 202 239 297 368
#
# _framework density 19.510566000000001
#
# number of rings (size 3 to 8) (size 9 to 14) (size 15 to 20)
#    0.000    1.667    2.222    2.667    0.000    4.444 
#   16.000    2.778    0.000    0.000    0.000    0.000 
#    0.000    0.000    0.000    0.000    0.000    0.000 
#
# Total GULP energy -402447.881713 kJ/mol
# GULP energy per Si atom -5589.553913 kJ/mol
# Density = 1.946616 g / cm^3
# Si number density = 19.510566 Si / 1000 Ang^3
#
#
#
# Elastic Constant Matrix: (Units=GPa)
#
#
# Indices 1 2 3 4 5 6 
#
# 1 63.5054 21.8068 53.5061 0.0000 0.0000 0.0000
# 2 21.8068 63.5054 53.5061 0.0000 0.0000 0.0000
# 3 53.5061 53.5061 181.8646 0.0000 0.0000 0.0000
# 4 0.0000 0.0000 0.0000 61.5825 0.0000 0.0000
# 5 0.0000 0.0000 0.0000 0.0000 61.5825 0.0000
# 6 0.0000 0.0000 0.0000 0.0000 0.0000 4.9771
#
#
#
# Elastic Compliance Matrix: (Units=1/GPa)
#
#
# Indices 1 2 3 4 5 6 
#
# 1 0.021280 -0.002702 -0.005466 0.000000 0.000000 0.000000
# 2 -0.002702 0.021280 -0.005466 0.000000 0.000000 0.000000
# 3 -0.005466 -0.005466 0.008715 0.000000 0.000000 0.000000
# 4 0.000000 0.000000 0.000000 0.016238 0.000000 0.000000
# 5 0.000000 0.000000 0.000000 0.000000 0.016238 0.000000
# 6 0.000000 0.000000 0.000000 0.000000 0.000000 0.200918
#
#
# Mechanical properties :
#
#
# Convention : Reuss Voigt Hill
#
# Bulk Modulus (GPa) = 41.65431 62.94593 52.30012
# Shear Modulus (GPa) = 15.62802 37.63221 26.63012
#
# Velocity S-wave (km/s) = 2.83327 4.39659 3.69847
# Velocity P-wave (km/s) = 5.66561 7.62272 6.71584
#
# Compressibility (1/GPa) = 0.02400712
#
# Stress axis : x y z
#
# Youngs Moduli (GPa) = 46.99341 46.99341 114.74877
#
# Poissons Ratio (x) = 0.12698 0.62718
# Poissons Ratio (y) = 0.12698 0.62718
# Poissons Ratio (z) = 0.25685 0.25685
#
# Static dielectric constant tensor:
#      x y z
#    x 1.678950 0.000000 0.000000 
#    y 0.000000 1.678950 0.000000 
#    z 0.000000 0.000000 1.644570 
# 
# From -- ./inp_files/5002.got.cif
#   From: 2010.05.17/outbox.cif.g08.bks.cpg/sg127_3_cif.got.tgz:5002.got - 2010.05.20 12:03:00.
