data_PCOD9564694
_publ_section_title
;
Structure prediction by ZEFSAII (Michael W. Deem and Ramdas Pophale) SiO2 
 PCOD9564694
Probable space group: P 4/M N C
;
_chemical_formula_sum "Si O2"
_cell_formula_units_Z 72
_cell_length_a 20.829197
_cell_length_b 20.829197
_cell_length_c 9.359884
_cell_angle_alpha 90.000000
_cell_angle_beta 90.000000
_cell_angle_gamma 90.000000
_cell_volume 4060.836663
_symmetry_space_group_name_H-M "P 4/M N C"
_symmetry_group_IT_number 128
_symmetry_cell_setting 'tetragonal'
loop_
_space_group_symop_operation_xyz
x,y,z
-y,x,z
-x,-y,z
y,-x,z
1/2+x,1/2-y,1/2-z
1/2-x,1/2+y,1/2-z
1/2+y,1/2+x,1/2-z
1/2-y,1/2-x,1/2-z
-x,-y,-z
y,-x,-z
x,y,-z
-y,x,-z
1/2-x,1/2+y,1/2+z
1/2+x,1/2-y,1/2+z
1/2-y,1/2-x,1/2+z
1/2+y,1/2+x,1/2+z
loop_
_atom_site_type_symbol
_atom_site_label
_atom_site_fract_x
_atom_site_fract_y
_atom_site_fract_z
Si Si1 0.408180 0.738840 0.166329
Si Si2 0.604767 0.977939 0.843635
Si Si3 0.460746 0.247894 0.671369
Si Si4 0.616692 0.116692 0.250000
Si Si5 0.284105 0.686327 0.671814
O O1 0.477727 0.727301 0.240155
O O2 0.391440 0.814946 0.174994
O O3 0.351670 0.706876 0.258689
O O4 0.408053 0.719340 0.000000
O O5 0.548167 0.951834 0.750000
O O6 0.673133 0.954524 0.786574
O O7 0.610108 0.054364 0.848422
O O8 0.595686 0.950713 0.000000
O O9 0.475185 0.250307 0.500000
O O10 0.390380 0.277077 0.693911
O O11 0.228259 0.728259 0.750000
O O12 0.282263 0.698769 0.500000
#
# Coordination Sequence:
#
# PCOD9564694 Si02
#       5
#    16  16  16   8  16
#     4  11  22  36  58  84 112 148 189 238 289 342
#     4  10  20  33  49  71 104 145 187 226 269 323
#     4   9  21  39  56  78 112 150 187 234 289 345
#     4  10  21  34  50  74 110 146 188 227 274 332
#     4  11  22  37  60  87 117 152 193 240 290 346
#
# _framework density 17.730336999999999
#
# number of rings (size 3 to 8) (size 9 to 14) (size 15 to 20)
#    0.000    1.778    1.111    3.000    0.000    8.889 
#    0.000    0.000    0.000    0.667    0.000    4.667 
#    0.000    0.000    0.000    0.000    0.000    0.000 
#
# Total GULP energy -401373.756657 kJ/mol
# GULP energy per Si atom -5574.635509 kJ/mol
# Density = 1.768998 g / cm^3
# Si number density = 17.730337 Si / 1000 Ang^3
#
#
#
# Elastic Constant Matrix: (Units=GPa)
#
#
# Indices 1 2 3 4 5 6 
#
# 1 132.7125 43.6858 57.4706 0.0000 0.0000 0.0000
# 2 43.6858 132.7071 57.5001 0.0000 0.0000 0.0000
# 3 57.4706 57.5001 102.6639 0.0000 0.0000 0.0000
# 4 0.0000 0.0000 0.0000 20.5054 0.0000 0.0000
# 5 0.0000 0.0000 0.0000 0.0000 20.5048 0.0000
# 6 0.0000 0.0000 0.0000 0.0000 0.0000 32.4793
#
#
#
# Elastic Compliance Matrix: (Units=1/GPa)
#
#
# Indices 1 2 3 4 5 6 
#
# 1 0.010078 -0.001153 -0.004996 0.000000 0.000000 0.000000
# 2 -0.001153 0.010082 -0.005001 0.000000 0.000000 0.000000
# 3 -0.004996 -0.005001 0.015338 0.000000 0.000000 0.000000
# 4 0.000000 0.000000 0.000000 0.048768 0.000000 0.000000
# 5 0.000000 0.000000 0.000000 0.000000 0.048769 0.000000
# 6 0.000000 0.000000 0.000000 0.000000 0.000000 0.030789
#
#
# Mechanical properties :
#
#
# Convention : Reuss Voigt Hill
#
# Bulk Modulus (GPa) = 75.76873 76.15517 75.96195
# Shear Modulus (GPa) = 26.24348 28.65970 27.45159
#
# Velocity S-wave (km/s) = 3.85144 4.02484 3.93909
# Velocity P-wave (km/s) = 7.91232 8.04016 7.97650
#
# Compressibility (1/GPa) = 0.01319806
#
# Stress axis : x y z
#
# Youngs Moduli (GPa) = 99.22553 99.18757 65.19625
#
# Poissons Ratio (x) = 0.11436 0.32571
# Poissons Ratio (y) = 0.11440 0.32606
# Poissons Ratio (z) = 0.49572 0.49606
#
# Static dielectric constant tensor:
#      x y z
#    x 1.598500 0.000000 0.000000 
#    y 0.000000 1.598500 0.000000 
#    z 0.000000 0.000000 1.627700 
# 
# From -- ./inp_files/1164.got.cif
#   From: 2010.05.17/outbox.cif.g08.bks.cpg/sg128_1_cif.got.tgz:1164.got - 2010.05.20 12:07:25.
