data_PCOD9564180
_publ_section_title
;
Structure prediction by ZEFSAII (Michael W. Deem and Ramdas Pophale) SiO2 
 PCOD9564180
Probable space group: P 4/M B M
;
_chemical_formula_sum "Si O2"
_cell_formula_units_Z 72
_cell_length_a 13.908934
_cell_length_b 13.908934
_cell_length_c 18.403168
_cell_angle_alpha 90.000000
_cell_angle_beta 90.000000
_cell_angle_gamma 90.000000
_cell_volume 3560.248265
_symmetry_space_group_name_H-M "P 4/M B M"
_symmetry_group_IT_number 127
_symmetry_cell_setting 'tetragonal'
loop_
_space_group_symop_operation_xyz
x,y,z
-y,x,z
-x,-y,z
y,-x,z
1/2+x,1/2-y,-z
1/2-x,1/2+y,-z
1/2+y,1/2+x,-z
1/2-y,1/2-x,-z
-x,-y,-z
y,-x,-z
x,y,-z
-y,x,-z
1/2-x,1/2+y,z
1/2+x,1/2-y,z
1/2-y,1/2-x,z
1/2+y,1/2+x,z
loop_
_atom_site_type_symbol
_atom_site_label
_atom_site_fract_x
_atom_site_fract_y
_atom_site_fract_z
Si Si1 0.918649 0.254410 0.654670
Si Si2 0.860722 0.917829 0.080617
Si Si3 0.794750 0.452784 0.184200
Si Si4 0.083066 0.416935 0.084701
Si Si5 0.884429 0.776322 0.417278
O O1 0.845170 0.345170 0.647093
O O2 0.967331 0.257104 0.734511
O O3 0.854581 0.160370 0.637730
O O4 0.007034 0.252685 0.599570
O O5 0.785377 0.891856 0.141595
O O6 0.966947 0.875481 0.086917
O O7 0.823132 0.896055 0.000000
O O8 0.889499 0.389499 0.193263
O O9 0.829260 0.539250 0.131721
O O10 0.000000 0.500000 0.080793
O O11 0.106648 0.393353 0.000000
O O12 0.875335 0.813082 0.500000
O O13 0.816973 0.683028 0.410950
#
# Coordination Sequence:
#
# PCOD9564180 Si02
#       5
#    16  16  16   8  16
#     4  10  23  40  60  90 126 159 201 257 311 370
#     4   9  19  36  55  76 109 151 192 237 290 346
#     4  10  21  36  57  85 116 152 193 244 297 348
#     4   9  18  34  56  82 117 157 195 240 295 350
#     4  10  22  41  65  91 122 159 199 249 309 376
#
# _framework density 20.223307999999999
#
# number of rings (size 3 to 8) (size 9 to 14) (size 15 to 20)
#    0.000    2.333    0.000    2.000    4.667    3.556 
#    2.000    2.222    0.000    0.000    0.000    0.000 
#    0.000    0.000    0.000    0.000    0.000    0.000 
#
# Total GULP energy -401334.109908 kJ/mol
# GULP energy per Si atom -5574.084860 kJ/mol
# Density = 2.017728 g / cm^3
# Si number density = 20.223308 Si / 1000 Ang^3
#
#
#
# Elastic Constant Matrix: (Units=GPa)
#
#
# Indices 1 2 3 4 5 6 
#
# 1 64.8063 3.1737 34.9232 0.0000 0.0000 0.0000
# 2 3.1737 64.8065 34.9233 0.0000 0.0000 0.0000
# 3 34.9232 34.9233 88.9622 0.0000 0.0000 0.0000
# 4 0.0000 0.0000 0.0000 17.8819 0.0000 0.0000
# 5 0.0000 0.0000 0.0000 0.0000 17.8819 0.0000
# 6 0.0000 0.0000 0.0000 0.0000 0.0000 2.2357
#
#
#
# Elastic Compliance Matrix: (Units=1/GPa)
#
#
# Indices 1 2 3 4 5 6 
#
# 1 0.020440 0.004215 -0.009678 0.000000 0.000000 0.000000
# 2 0.004215 0.020440 -0.009678 0.000000 0.000000 0.000000
# 3 -0.009678 -0.009678 0.018839 0.000000 0.000000 0.000000
# 4 0.000000 0.000000 0.000000 0.055923 0.000000 0.000000
# 5 0.000000 0.000000 0.000000 0.000000 0.055923 0.000000
# 6 0.000000 0.000000 0.000000 0.000000 0.000000 0.447286
#
#
# Mechanical properties :
#
#
# Convention : Reuss Voigt Hill
#
# Bulk Modulus (GPa) = 33.97366 40.51283 37.24324
# Shear Modulus (GPa) = 7.58788 17.30354 12.44571
#
# Velocity S-wave (km/s) = 1.93912 2.92828 2.48345
# Velocity P-wave (km/s) = 4.67433 5.61332 5.16520
#
# Compressibility (1/GPa) = 0.02943457
#
# Stress axis : x y z
#
# Youngs Moduli (GPa) = 48.92436 48.92443 53.08010
#
# Poissons Ratio (x) = -0.20619 0.51373
# Poissons Ratio (y) = -0.20619 0.51373
# Poissons Ratio (z) = 0.47351 0.47351
#
# Static dielectric constant tensor:
#      x y z
#    x 1.730080 0.000000 0.000000 
#    y 0.000000 1.730080 0.000000 
#    z 0.000000 0.000000 1.761150 
# 
# From -- ./inp_files/4965.got.cif
#   From: 2010.05.17/outbox.cif.g08.bks.cpg/sg127_3_cif.got.tgz:4965.got - 2010.05.20 12:03:00.
