data_PCOD9564182
_publ_section_title
;
Structure prediction by ZEFSAII (Michael W. Deem and Ramdas Pophale) SiO2 
 PCOD9564182
Probable space group: P 4/M B M
;
_chemical_formula_sum "Si O2"
_cell_formula_units_Z 108
_cell_length_a 14.751381
_cell_length_b 14.751381
_cell_length_c 24.419309
_cell_angle_alpha 90.000000
_cell_angle_beta 90.000000
_cell_angle_gamma 90.000000
_cell_volume 5313.720791
_symmetry_space_group_name_H-M "P 4/M B M"
_symmetry_group_IT_number 127
_symmetry_cell_setting 'tetragonal'
loop_
_space_group_symop_operation_xyz
x,y,z
-y,x,z
-x,-y,z
y,-x,z
1/2+x,1/2-y,-z
1/2-x,1/2+y,-z
1/2+y,1/2+x,-z
1/2-y,1/2-x,-z
-x,-y,-z
y,-x,-z
x,y,-z
-y,x,-z
1/2-x,1/2+y,z
1/2+x,1/2-y,z
1/2-y,1/2-x,z
1/2+y,1/2+x,z
loop_
_atom_site_type_symbol
_atom_site_label
_atom_site_fract_x
_atom_site_fract_y
_atom_site_fract_z
Si Si1 0.063400 0.708801 0.723449
Si Si2 0.149392 0.795928 0.436067
Si Si3 0.536384 0.295844 0.630357
Si Si4 0.597000 0.382010 0.000000
Si Si5 0.093139 0.878705 0.780751
Si Si6 0.134841 0.212010 0.886374
Si Si7 0.000000 0.000000 0.339169
Si Si8 0.993857 0.351735 0.155283
O O1 0.132488 0.632488 0.703939
O O2 0.985754 0.727216 0.679321
O O3 0.118800 0.801641 0.737093
O O4 0.024567 0.678605 0.782389
O O5 0.143937 0.821640 0.500000
O O6 0.200984 0.700984 0.431430
O O7 0.049323 0.791294 0.410697
O O8 0.207377 0.871226 0.403500
O O9 0.535770 0.395607 0.656478
O O10 0.622490 0.487688 0.000000
O O11 0.632087 0.334088 0.054694
O O12 0.136623 0.853170 0.839085
O O13 0.983911 0.880231 0.775841
O O14 0.215780 0.284221 0.882015
O O15 0.040953 0.268154 0.876134
O O16 0.900979 0.400979 0.134853
O O17 0.070039 0.429962 0.155279
#
# Coordination Sequence:
#
# PCOD9564182 Si02
#       8
#    16  16  16   8  16  16   4  16
#     4  11  23  38  58  89 121 158 204 248 301 364
#     4  10  21  38  61  86 118 162 207 254 313 374
#     4  10  21  36  57  88 122 156 200 259 306 363
#     4  11  25  44  64  87 125 161 200 249 312 371
#     4  11  23  37  58  86 124 164 198 237 300 361
#     4  11  22  41  65  92 119 158 209 256 301 358
#     4   8  20  32  53  76 116 148 188 225 304 360
#     4   9  20  40  62  84 118 161 204 250 305 367
#
# _framework density 20.324741
#
# number of rings (size 3 to 8) (size 9 to 14) (size 15 to 20)
#    0.000    1.704    1.481    2.444    4.148    1.778 
#    0.000    3.333    0.000    3.111    0.000    5.185 
#    0.000    0.000    0.000    0.000    0.000    0.000 
#
# Total GULP energy -602042.626006 kJ/mol
# GULP energy per Si atom -5574.468759 kJ/mol
# Density = 2.027848 g / cm^3
# Si number density = 20.324741 Si / 1000 Ang^3
#
#
#
# Elastic Constant Matrix: (Units=GPa)
#
#
# Indices 1 2 3 4 5 6 
#
# 1 40.9492 -14.4075 0.2071 0.0000 0.0000 0.0000
# 2 -14.4075 40.9492 0.2071 0.0000 0.0000 0.0000
# 3 0.2071 0.2071 80.1101 0.0000 0.0000 0.0000
# 4 0.0000 0.0000 0.0000 23.4906 0.0000 0.0000
# 5 0.0000 0.0000 0.0000 0.0000 23.4906 0.0000
# 6 0.0000 0.0000 0.0000 0.0000 0.0000 31.3906
#
#
#
# Elastic Compliance Matrix: (Units=1/GPa)
#
#
# Indices 1 2 3 4 5 6 
#
# 1 0.027871 0.009807 -0.000097 0.000000 0.000000 0.000000
# 2 0.009807 0.027871 -0.000097 0.000000 0.000000 0.000000
# 3 -0.000097 -0.000097 0.012483 0.000000 0.000000 0.000000
# 4 0.000000 0.000000 0.000000 0.042570 0.000000 0.000000
# 5 0.000000 0.000000 0.000000 0.000000 0.042570 0.000000
# 6 0.000000 0.000000 0.000000 0.000000 0.000000 0.031857
#
#
# Mechanical properties :
#
#
# Convention : Reuss Voigt Hill
#
# Bulk Modulus (GPa) = 11.43513 14.89132 13.16323
# Shear Modulus (GPa) = 25.62142 27.40783 26.51463
#
# Velocity S-wave (km/s) = 3.55435 3.67617 3.61577
# Velocity P-wave (km/s) = 4.74162 5.03603 4.89104
#
# Compressibility (1/GPa) = 0.08744985
#
# Stress axis : x y z
#
# Youngs Moduli (GPa) = 35.87912 35.87912 80.10686
#
# Poissons Ratio (x) = -0.35186 0.00780
# Poissons Ratio (y) = -0.35186 0.00780
# Poissons Ratio (z) = 0.00349 0.00349
#
# Static dielectric constant tensor:
#      x y z
#    x 1.736640 0.000000 0.000000 
#    y 0.000000 1.736640 0.000000 
#    z 0.000000 0.000000 1.736320 
# 
# From -- ./inp_files/6222.got.cif
#   From: 2010.05.17/outbox.cif.g08.bks.cpg/sg127_4_cif.got.tgz:6222.got - 2010.05.20 12:03:00.
