data_PCOD9564920
_publ_section_title
;
Structure prediction by ZEFSAII (Michael W. Deem and Ramdas Pophale) SiO2 
 PCOD9564920
Probable space group: P 4/M N C
;
_chemical_formula_sum "Si O2"
_cell_formula_units_Z 96
_cell_length_a 14.340798
_cell_length_b 14.340798
_cell_length_c 23.172018
_cell_angle_alpha 90.000000
_cell_angle_beta 90.000000
_cell_angle_gamma 90.000000
_cell_volume 4765.522169
_symmetry_space_group_name_H-M "P 4/M N C"
_symmetry_group_IT_number 128
_symmetry_cell_setting 'tetragonal'
loop_
_space_group_symop_operation_xyz
x,y,z
-y,x,z
-x,-y,z
y,-x,z
1/2+x,1/2-y,1/2-z
1/2-x,1/2+y,1/2-z
1/2+y,1/2+x,1/2-z
1/2-y,1/2-x,1/2-z
-x,-y,-z
y,-x,-z
x,y,-z
-y,x,-z
1/2-x,1/2+y,1/2+z
1/2+x,1/2-y,1/2+z
1/2-y,1/2-x,1/2+z
1/2+y,1/2+x,1/2+z
loop_
_atom_site_type_symbol
_atom_site_label
_atom_site_fract_x
_atom_site_fract_y
_atom_site_fract_z
Si Si1 0.532046 0.892011 0.066584
Si Si2 0.218589 0.391435 0.147473
Si Si3 0.041812 0.146932 0.742554
Si Si4 0.250402 0.588626 0.568135
Si Si5 0.713315 0.598459 0.366100
Si Si6 0.599961 0.380200 0.933097
O O1 0.471185 0.832089 0.110321
O O2 0.642221 0.885336 0.078314
O O3 0.500000 0.000000 0.070542
O O4 0.515275 0.861708 0.000000
O O5 0.263389 0.430999 0.205568
O O6 0.147157 0.307736 0.155508
O O7 0.305615 0.355309 0.108856
O O8 0.052272 0.165302 0.810476
O O9 0.938462 0.111152 0.728039
O O10 0.268540 0.598667 0.500000
O O11 0.263534 0.481828 0.587971
O O12 0.322742 0.649792 0.604535
O O13 0.625561 0.487974 0.923556
O O14 0.619639 0.358947 0.000000
#
# Coordination Sequence:
#
# PCOD9564920 Si02
#       6
#    16  16  16  16  16  16
#     4  10  22  43  67  97 141 180 213 268 343 412
#     4  12  24  39  67  99 131 179 225 271 332 422
#     4  11  25  47  70  92 130 180 225 286 349 397
#     4  11  25  44  72 104 133 178 227 282 347 407
#     4  12  25  46  69  97 137 173 234 293 336 400
#     4   9  19  35  55  87 131 172 216 273 329 393
#
# _framework density 20.144697000000001
#
# number of rings (size 3 to 8) (size 9 to 14) (size 15 to 20)
#    0.000    1.167    3.333    3.000    4.667    3.667 
#    0.000    1.667    0.000    0.000    0.000    0.000 
#    0.000    0.000    0.000    0.000    0.000    0.000 
#
# Total GULP energy -537110.347781 kJ/mol
# GULP energy per Si atom -5594.899456 kJ/mol
# Density = 2.009885 g / cm^3
# Si number density = 20.144697 Si / 1000 Ang^3
#
#
#
# Elastic Constant Matrix: (Units=GPa)
#
#
# Indices 1 2 3 4 5 6 
#
# 1 76.7487 35.8366 37.2011 0.0000 0.0000 0.0000
# 2 35.8366 76.7487 37.2011 0.0000 0.0000 0.0000
# 3 37.2011 37.2011 81.5824 0.0000 0.0000 0.0000
# 4 0.0000 0.0000 0.0000 37.4796 0.0000 0.0000
# 5 0.0000 0.0000 0.0000 0.0000 37.4796 0.0000
# 6 0.0000 0.0000 0.0000 0.0000 0.0000 29.0986
#
#
#
# Elastic Compliance Matrix: (Units=1/GPa)
#
#
# Indices 1 2 3 4 5 6 
#
# 1 0.018578 -0.005865 -0.005797 0.000000 0.000000 0.000000
# 2 -0.005865 0.018578 -0.005797 0.000000 0.000000 0.000000
# 3 -0.005797 -0.005797 0.017545 0.000000 0.000000 0.000000
# 4 0.000000 0.000000 0.000000 0.026681 0.000000 0.000000
# 5 0.000000 0.000000 0.000000 0.000000 0.026681 0.000000
# 6 0.000000 0.000000 0.000000 0.000000 0.000000 0.034366
#
#
# Mechanical properties :
#
#
# Convention : Reuss Voigt Hill
#
# Bulk Modulus (GPa) = 50.55025 50.61751 50.58388
# Shear Modulus (GPa) = 27.18264 29.13426 28.15845
#
# Velocity S-wave (km/s) = 3.67736 3.80708 3.74279
# Velocity P-wave (km/s) = 6.57105 6.67133 6.62138
#
# Compressibility (1/GPa) = 0.01978229
#
# Stress axis : x y z
#
# Youngs Moduli (GPa) = 53.82728 53.82728 56.99792
#
# Poissons Ratio (x) = 0.31568 0.33043
# Poissons Ratio (y) = 0.31568 0.33043
# Poissons Ratio (z) = 0.31205 0.31205
#
# Static dielectric constant tensor:
#      x y z
#    x 1.703220 0.000000 0.000000 
#    y 0.000000 1.703220 0.000000 
#    z 0.000000 0.000000 1.686210 
# 
# From -- ./inp_files/5720.got.cif
#   From: 2010.05.17/outbox.cif.g08.bks.cpg/sg128_3_cif.got.tgz:5720.got - 2010.05.20 12:07:25.
