data_PCOD9564743
_publ_section_title
;
Structure prediction by ZEFSAII (Michael W. Deem and Ramdas Pophale) SiO2 
 PCOD9564743
Probable space group: P 4/M N C
;
_chemical_formula_sum "Si O2"
_cell_formula_units_Z 112
_cell_length_a 14.555776
_cell_length_b 14.555776
_cell_length_c 27.642003
_cell_angle_alpha 90.000000
_cell_angle_beta 90.000000
_cell_angle_gamma 90.000000
_cell_volume 5856.528174
_symmetry_space_group_name_H-M "P 4/M N C"
_symmetry_group_IT_number 128
_symmetry_cell_setting 'tetragonal'
loop_
_space_group_symop_operation_xyz
x,y,z
-y,x,z
-x,-y,z
y,-x,z
1/2+x,1/2-y,1/2-z
1/2-x,1/2+y,1/2-z
1/2+y,1/2+x,1/2-z
1/2-y,1/2-x,1/2-z
-x,-y,-z
y,-x,-z
x,y,-z
-y,x,-z
1/2-x,1/2+y,1/2+z
1/2+x,1/2-y,1/2+z
1/2-y,1/2-x,1/2+z
1/2+y,1/2+x,1/2+z
loop_
_atom_site_type_symbol
_atom_site_label
_atom_site_fract_x
_atom_site_fract_y
_atom_site_fract_z
Si Si1 0.969460 0.733885 0.445203
Si Si2 0.529681 0.350021 0.148622
Si Si3 0.584669 0.192383 0.444936
Si Si4 0.344718 0.752419 0.210003
Si Si5 0.339457 0.127280 0.944460
Si Si6 0.379405 0.594700 0.278509
Si Si7 0.188287 0.196010 0.869269
O O1 0.967874 0.770309 0.500000
O O2 0.962573 0.812376 0.405489
O O3 0.886452 0.661609 0.440446
O O4 0.064026 0.678416 0.437950
O O5 0.603820 0.431200 0.156350
O O6 0.558299 0.267438 0.184187
O O7 0.590701 0.229958 0.500000
O O8 0.482600 0.151920 0.439530
O O9 0.607602 0.264880 0.403292
O O10 0.332662 0.832662 0.250000
O O11 0.324112 0.660788 0.241853
O O12 0.275573 0.772851 0.166115
O O13 0.266986 0.162943 0.905611
O O14 0.308863 0.145998 0.000000
O O15 0.376176 0.485959 0.271392
O O16 0.347565 0.618894 0.332565
#
# Coordination Sequence:
#
# PCOD9564743 Si02
#       7
#    16  16  16  16  16  16  16
#     4  10  21  36  57  83 117 158 202 240 283 349
#     4  11  22  37  58  88 123 158 194 240 301 360
#     4  10  20  36  57  82 115 154 193 237 288 345
#     4  10  21  36  56  80 111 147 192 237 292 348
#     4  10  21  36  57  85 118 156 195 237 289 351
#     4  10  21  37  58  82 110 144 183 234 293 353
#     4  11  20  36  57  86 113 144 192 240 291 342
#
# _framework density 19.123957999999998
#
# number of rings (size 3 to 8) (size 9 to 14) (size 15 to 20)
#    0.000    1.714    1.429    3.429    0.000    3.429 
#    0.000    0.714    0.000    0.000    0.000    9.000 
#    0.000    0.000    0.000    0.000    0.000    0.000 
#
# Total GULP energy -625063.471133 kJ/mol
# GULP energy per Si atom -5580.923849 kJ/mol
# Density = 1.908043 g / cm^3
# Si number density = 19.123958 Si / 1000 Ang^3
#
#
#
# Elastic Constant Matrix: (Units=GPa)
#
#
# Indices 1 2 3 4 5 6 
#
# 1 46.2115 14.8323 33.4906 0.0000 0.0000 0.0000
# 2 14.8323 46.2115 33.4906 0.0000 0.0000 0.0000
# 3 33.4906 33.4906 117.6911 0.0000 0.0000 0.0000
# 4 0.0000 0.0000 0.0000 34.5042 0.0000 0.0000
# 5 0.0000 0.0000 0.0000 0.0000 34.5042 0.0000
# 6 0.0000 0.0000 0.0000 0.0000 0.0000 19.8183
#
#
#
# Elastic Compliance Matrix: (Units=1/GPa)
#
#
# Indices 1 2 3 4 5 6 
#
# 1 0.027844 -0.004025 -0.006778 0.000000 0.000000 0.000000
# 2 -0.004025 0.027844 -0.006778 0.000000 0.000000 0.000000
# 3 -0.006778 -0.006778 0.012354 0.000000 0.000000 0.000000
# 4 0.000000 0.000000 0.000000 0.028982 0.000000 0.000000
# 5 0.000000 0.000000 0.000000 0.000000 0.028982 0.000000
# 6 0.000000 0.000000 0.000000 0.000000 0.000000 0.050458
#
#
# Mechanical properties :
#
#
# Convention : Reuss Voigt Hill
#
# Bulk Modulus (GPa) = 30.41341 41.52677 35.97009
# Shear Modulus (GPa) = 22.46331 26.31871 24.39101
#
# Velocity S-wave (km/s) = 3.43099 3.71376 3.57517
# Velocity P-wave (km/s) = 5.62436 6.33649 5.99101
#
# Compressibility (1/GPa) = 0.03288023
#
# Stress axis : x y z
#
# Youngs Moduli (GPa) = 35.91498 35.91498 80.94310
#
# Poissons Ratio (x) = 0.14454 0.54863
# Poissons Ratio (y) = 0.14454 0.54863
# Poissons Ratio (z) = 0.24343 0.24343
#
# Static dielectric constant tensor:
#      x y z
#    x 1.660310 0.000000 0.000000 
#    y 0.000000 1.660310 0.000000 
#    z 0.000000 0.000000 1.688010 
# 
# From -- ./inp_files/6914.got.cif
#   From: 2010.05.17/outbox.cif.g08.bks.cpg/sg128_4_cif.got.tgz:6914.got - 2010.05.20 12:07:25.
