data_PCOD9564024
_publ_section_title
;
Structure prediction by ZEFSAII (Michael W. Deem and Ramdas Pophale) SiO2 
 PCOD9564024
Probable space group: P 4/M B M
;
_chemical_formula_sum "Si O2"
_cell_formula_units_Z 96
_cell_length_a 24.930933
_cell_length_b 24.930933
_cell_length_c 7.609732
_cell_angle_alpha 90.000000
_cell_angle_beta 90.000000
_cell_angle_gamma 90.000000
_cell_volume 4729.839732
_symmetry_space_group_name_H-M "P 4/M B M"
_symmetry_group_IT_number 127
_symmetry_cell_setting 'tetragonal'
loop_
_space_group_symop_operation_xyz
x,y,z
-y,x,z
-x,-y,z
y,-x,z
1/2+x,1/2-y,-z
1/2-x,1/2+y,-z
1/2+y,1/2+x,-z
1/2-y,1/2-x,-z
-x,-y,-z
y,-x,-z
x,y,-z
-y,x,-z
1/2-x,1/2+y,z
1/2+x,1/2-y,z
1/2-y,1/2-x,z
1/2+y,1/2+x,z
loop_
_atom_site_type_symbol
_atom_site_label
_atom_site_fract_x
_atom_site_fract_y
_atom_site_fract_z
Si Si1 0.296788 0.487767 0.788621
Si Si2 0.671627 0.828374 0.789465
Si Si3 0.238929 0.261072 0.712178
Si Si4 0.414391 0.506964 0.214578
Si Si5 0.305749 0.052379 0.790644
Si Si6 0.882539 0.739821 0.290168
Si Si7 0.865043 0.551566 0.288058
O O1 0.353819 0.507807 0.722689
O O2 0.247101 0.522520 0.718670
O O3 0.285916 0.425528 0.747990
O O4 0.296732 0.492397 0.000000
O O5 0.716823 0.783178 0.760121
O O6 0.686571 0.887700 0.720857
O O7 0.666605 0.833396 0.000000
O O8 0.238478 0.261523 0.500000
O O9 0.250210 0.322244 0.774199
O O10 0.444207 0.452323 0.268794
O O11 0.413771 0.507348 0.000000
O O12 0.353528 0.009627 0.763185
O O13 0.298624 0.057138 0.000000
O O14 0.878324 0.733514 0.500000
O O15 0.911028 0.684880 0.224577
O O16 0.863955 0.552954 0.500000
O O17 0.919638 0.580363 0.229339
#
# Coordination Sequence:
#
# PCOD9564024 Si02
#       7
#    16   8   8  16  16  16  16
#     4   9  17  29  48  73  96 122 162 205 242 289
#     4  10  22  38  51  67 102 145 175 203 246 296
#     4  10  20  34  52  73  99 131 167 205 247 296
#     4   8  14  25  42  65  92 121 154 196 244 286
#     4   9  19  34  49  69  98 132 167 203 247 298
#     4   9  17  31  49  72 101 127 154 195 248 300
#     4   9  16  30  54  78  98 123 156 200 254 300
#
# _framework density 20.296669999999999
#
# number of rings (size 3 to 8) (size 9 to 14) (size 15 to 20)
#    0.000    3.000    0.833    0.500    0.000    3.000 
#    0.000    3.750    0.000    3.500    0.000    1.167 
#    0.000    0.000    0.000    0.000    0.000    0.000 
#
# Total GULP energy -535173.768478 kJ/mol
# GULP energy per Si atom -5574.726755 kJ/mol
# Density = 2.025047 g / cm^3
# Si number density = 20.296670 Si / 1000 Ang^3
#
#
#
# Elastic Constant Matrix: (Units=GPa)
#
#
# Indices 1 2 3 4 5 6 
#
# 1 125.7486 69.5805 6.4642 0.0000 0.0000 0.0000
# 2 69.5805 125.7487 6.4637 0.0000 0.0000 0.0000
# 3 6.4642 6.4637 38.3687 0.0000 0.0000 0.0000
# 4 0.0000 0.0000 0.0000 17.0925 0.0000 0.0000
# 5 0.0000 0.0000 0.0000 0.0000 17.0928 0.0000
# 6 0.0000 0.0000 0.0000 0.0000 0.0000 17.4169
#
#
#
# Elastic Compliance Matrix: (Units=1/GPa)
#
#
# Indices 1 2 3 4 5 6 
#
# 1 0.011490 -0.006313 -0.000872 0.000000 0.000000 0.000000
# 2 -0.006313 0.011490 -0.000872 0.000000 0.000000 0.000000
# 3 -0.000872 -0.000872 0.026357 0.000000 0.000000 0.000000
# 4 0.000000 0.000000 0.000000 0.058505 0.000000 0.000000
# 5 0.000000 0.000000 0.000000 0.000000 0.058504 0.000000
# 6 0.000000 0.000000 0.000000 0.000000 0.000000 0.057415
#
#
# Mechanical properties :
#
#
# Convention : Reuss Voigt Hill
#
# Bulk Modulus (GPa) = 30.10008 50.54253 40.32130
# Shear Modulus (GPa) = 19.92411 24.14427 22.03419
#
# Velocity S-wave (km/s) = 3.13652 3.45275 3.29843
# Velocity P-wave (km/s) = 5.28954 6.39150 5.86645
#
# Compressibility (1/GPa) = 0.03322251
#
# Stress axis : x y z
#
# Youngs Moduli (GPa) = 87.02845 87.02861 37.94089
#
# Poissons Ratio (x) = 0.54943 0.03310
# Poissons Ratio (y) = 0.54943 0.03309
# Poissons Ratio (z) = 0.07592 0.07590
#
# Static dielectric constant tensor:
#      x y z
#    x 1.714620 0.000000 0.000000 
#    y 0.000000 1.714620 0.000000 
#    z 0.000000 0.000000 1.758410 
# 
# From -- ./inp_files/2083.got.cif
#   From: 2010.05.17/outbox.cif.g08.bks.cpg/sg127_2_cif.got.tgz:2083.got - 2010.05.20 12:03:00.
