data_PCOD9564951
_publ_section_title
;
Structure prediction by ZEFSAII (Michael W. Deem and Ramdas Pophale) SiO2 
 PCOD9564951
Probable space group: P 4/M N C
;
_chemical_formula_sum "Si O2"
_cell_formula_units_Z 64
_cell_length_a 11.930725
_cell_length_b 11.930725
_cell_length_c 22.394563
_cell_angle_alpha 90.000000
_cell_angle_beta 90.000000
_cell_angle_gamma 90.000000
_cell_volume 3187.691344
_symmetry_space_group_name_H-M "P 4/M N C"
_symmetry_group_IT_number 128
_symmetry_cell_setting 'tetragonal'
loop_
_space_group_symop_operation_xyz
x,y,z
-y,x,z
-x,-y,z
y,-x,z
1/2+x,1/2-y,1/2-z
1/2-x,1/2+y,1/2-z
1/2+y,1/2+x,1/2-z
1/2-y,1/2-x,1/2-z
-x,-y,-z
y,-x,-z
x,y,-z
-y,x,-z
1/2-x,1/2+y,1/2+z
1/2+x,1/2-y,1/2+z
1/2-y,1/2-x,1/2+z
1/2+y,1/2+x,1/2+z
loop_
_atom_site_type_symbol
_atom_site_label
_atom_site_fract_x
_atom_site_fract_y
_atom_site_fract_z
Si Si1 0.185188 0.990333 0.235679
Si Si2 0.638128 0.811677 0.433791
Si Si3 0.001808 0.365868 0.336635
Si Si4 0.596790 0.232026 0.609366
O O1 0.294781 0.997993 0.276276
O O2 0.217642 0.968443 0.166973
O O3 0.102305 0.886166 0.247974
O O4 0.677036 0.846141 0.500000
O O5 0.503533 0.801500 0.434022
O O6 0.687355 0.689990 0.417578
O O7 0.664735 0.900239 0.381223
O O8 0.119456 0.342343 0.368912
O O9 0.000000 0.500000 0.326630
#
# Coordination Sequence:
#
# PCOD9564951 Si02
#       4
#    16  16  16  16
#     4  11  22  40  64  91 129 163 208 265 320 383
#     4  11  24  41  64  92 126 169 216 261 312 378
#     4  10  24  40  62  93 126 166 208 258 321 377
#     4  11  22  41  62  90 126 165 211 263 321 371
#
# _framework density 20.077226
#
# number of rings (size 3 to 8) (size 9 to 14) (size 15 to 20)
#    0.000    1.250    2.500    3.000    0.000   13.000 
#    0.000    1.250    0.000    0.000    0.000    5.250 
#    0.000    0.000    0.000    0.000    0.000    0.000 
#
# Total GULP energy -357595.026412 kJ/mol
# GULP energy per Si atom -5587.422288 kJ/mol
# Density = 2.003153 g / cm^3
# Si number density = 20.077226 Si / 1000 Ang^3
#
#
#
# Elastic Constant Matrix: (Units=GPa)
#
#
# Indices 1 2 3 4 5 6 
#
# 1 54.4418 3.1312 25.6934 0.0000 0.0000 0.0000
# 2 3.1312 54.4418 25.6934 0.0000 0.0000 0.0000
# 3 25.6934 25.6934 116.8508 0.0000 0.0000 0.0000
# 4 0.0000 0.0000 0.0000 11.5840 0.0000 0.0000
# 5 0.0000 0.0000 0.0000 0.0000 11.5840 0.0000
# 6 0.0000 0.0000 0.0000 0.0000 0.0000 7.5823
#
#
#
# Elastic Compliance Matrix: (Units=1/GPa)
#
#
# Indices 1 2 3 4 5 6 
#
# 1 0.020550 0.001061 -0.004752 0.000000 0.000000 0.000000
# 2 0.001061 0.020550 -0.004752 0.000000 0.000000 0.000000
# 3 -0.004752 -0.004752 0.010648 0.000000 0.000000 0.000000
# 4 0.000000 0.000000 0.000000 0.086326 0.000000 0.000000
# 5 0.000000 0.000000 0.000000 0.000000 0.086326 0.000000
# 6 0.000000 0.000000 0.000000 0.000000 0.000000 0.131885
#
#
# Mechanical properties :
#
#
# Convention : Reuss Voigt Hill
#
# Bulk Modulus (GPa) = 28.68500 37.19670 32.94085
# Shear Modulus (GPa) = 12.99406 17.56448 15.27927
#
# Velocity S-wave (km/s) = 2.54678 2.96099 2.76166
# Velocity P-wave (km/s) = 4.79233 5.50063 5.15865
#
# Compressibility (1/GPa) = 0.03486143
#
# Stress axis : x y z
#
# Youngs Moduli (GPa) = 48.66231 48.66231 93.91815
#
# Poissons Ratio (x) = -0.05161 0.44627
# Poissons Ratio (y) = -0.05161 0.44627
# Poissons Ratio (z) = 0.23123 0.23123
#
# Static dielectric constant tensor:
#      x y z
#    x 1.706200 0.000000 0.000000 
#    y 0.000000 1.706200 0.000000 
#    z 0.000000 0.000000 1.758320 
# 
# From -- ./inp_files/5394.got.cif
#   From: 2010.05.17/outbox.cif.g08.bks.cpg/sg128_3_cif.got.tgz:5394.got - 2010.05.20 12:07:25.
