data_PCOD9564104
_publ_section_title
;
Structure prediction by ZEFSAII (Michael W. Deem and Ramdas Pophale) SiO2 
 PCOD9564104
Probable space group: P 4/M B M
;
_chemical_formula_sum "Si O2"
_cell_formula_units_Z 72
_cell_length_a 21.711551
_cell_length_b 21.711551
_cell_length_c 8.272421
_cell_angle_alpha 90.000000
_cell_angle_beta 90.000000
_cell_angle_gamma 90.000000
_cell_volume 3899.548504
_symmetry_space_group_name_H-M "P 4/M B M"
_symmetry_group_IT_number 127
_symmetry_cell_setting 'tetragonal'
loop_
_space_group_symop_operation_xyz
x,y,z
-y,x,z
-x,-y,z
y,-x,z
1/2+x,1/2-y,-z
1/2-x,1/2+y,-z
1/2+y,1/2+x,-z
1/2-y,1/2-x,-z
-x,-y,-z
y,-x,-z
x,y,-z
-y,x,-z
1/2-x,1/2+y,z
1/2+x,1/2-y,z
1/2-y,1/2-x,z
1/2+y,1/2+x,z
loop_
_atom_site_type_symbol
_atom_site_label
_atom_site_fract_x
_atom_site_fract_y
_atom_site_fract_z
Si Si1 0.186292 0.492180 0.696390
Si Si2 0.227822 0.628347 0.305068
Si Si3 0.909378 0.145008 0.814784
Si Si4 0.540332 0.321600 0.689051
Si Si5 0.051109 0.448892 0.698032
O O1 0.186277 0.488518 0.500000
O O2 0.194413 0.564096 0.737990
O O3 0.250454 0.460286 0.749837
O O4 0.120423 0.466473 0.751167
O O5 0.236328 0.627928 0.500000
O O6 0.184906 0.684906 0.261283
O O7 0.293586 0.629282 0.221432
O O8 0.867298 0.086859 0.775952
O O9 0.971040 0.152730 0.709253
O O10 0.929480 0.143648 0.000000
O O11 0.556497 0.320493 0.500000
O O12 0.050896 0.449105 0.500000
O O13 0.000000 0.500000 0.746834
#
# Coordination Sequence:
#
# PCOD9564104 Si02
#       5
#    16  16  16  16   8
#     4   8  15  27  46  73 106 138 171 216 264 308
#     4   9  17  32  53  76 103 141 186 225 263 313
#     4  11  22  36  55  80 108 137 174 222 277 326
#     4  10  20  37  56  76 105 141 180 218 265 323
#     4   9  14  22  42  76 111 139 169 211 263 310
#
# _framework density 18.463676
#
# number of rings (size 3 to 8) (size 9 to 14) (size 15 to 20)
#    0.000    2.556    0.000    4.667    0.000    3.556 
#    2.000    2.222    0.000    0.000    0.000    7.000 
#    0.000   29.333    0.000    0.000    0.000    0.000 
#
# Total GULP energy -401492.551591 kJ/mol
# GULP energy per Si atom -5576.285439 kJ/mol
# Density = 1.842165 g / cm^3
# Si number density = 18.463676 Si / 1000 Ang^3
#
#
#
# Elastic Constant Matrix: (Units=GPa)
#
#
# Indices 1 2 3 4 5 6 
#
# 1 84.5029 66.6206 -4.8257 0.0000 0.0000 0.0000
# 2 66.6206 84.5028 -4.8257 0.0000 0.0000 0.0000
# 3 -4.8257 -4.8257 12.7499 0.0000 0.0000 0.0000
# 4 0.0000 0.0000 0.0000 -3.9737 0.0000 0.0000
# 5 0.0000 0.0000 0.0000 0.0000 -3.9738 0.0000
# 6 0.0000 0.0000 0.0000 0.0000 0.0000 30.4586
#
#
#
# Elastic Compliance Matrix: (Units=1/GPa)
#
#
# Indices 1 2 3 4 5 6 
#
# 1 0.031351 -0.024570 0.002567 0.000000 0.000000 0.000000
# 2 -0.024570 0.031351 0.002567 0.000000 0.000000 0.000000
# 3 0.002567 0.002567 0.080375 0.000000 0.000000 0.000000
# 4 0.000000 0.000000 0.000000 -0.251656 0.000000 0.000000
# 5 0.000000 0.000000 0.000000 0.000000 -0.251651 0.000000
# 6 0.000000 0.000000 0.000000 0.000000 0.000000 0.032831
#
#
# Mechanical properties :
#
#
# Convention : Reuss Voigt Hill
#
# Bulk Modulus (GPa) = 9.59664 32.85487 21.22575
# Shear Modulus (GPa) = -19.70132 12.82133 -3.43999
#
# Velocity S-wave (km/s) = -3.27009 2.63802 -1.36644
# Velocity P-wave (km/s) = 3.00817 5.20690 3.00522
#
# Compressibility (1/GPa) = 0.10420313
#
# Stress axis : x y z
#
# Youngs Moduli (GPa) = 31.89671 31.89668 12.44170
#
# Poissons Ratio (x) = 0.78371 -0.03193
# Poissons Ratio (y) = 0.78371 -0.03193
# Poissons Ratio (z) = -0.08186 -0.08186
#
# Static dielectric constant tensor:
#      x y z
#    x 1.620960 0.000000 0.000000 
#    y 0.000000 1.620960 0.000000 
#    z 0.000000 0.000000 1.637070 
# 
# From -- ./inp_files/1570.got.cif
#   From: 2010.05.17/outbox.cif.g08.bks.cpg/sg127_1_cif.got.tgz:1570.got - 2010.05.20 12:03:00.
