data_PCOD9564680
_publ_section_title
;
Structure prediction by ZEFSAII (Michael W. Deem and Ramdas Pophale) SiO2 
 PCOD9564680
Probable space group: P 4/M N C
;
_chemical_formula_sum "Si O2"
_cell_formula_units_Z 96
_cell_length_a 25.191672
_cell_length_b 25.191672
_cell_length_c 8.853424
_cell_angle_alpha 90.000000
_cell_angle_beta 90.000000
_cell_angle_gamma 90.000000
_cell_volume 5618.562933
_symmetry_space_group_name_H-M "P 4/M N C"
_symmetry_group_IT_number 128
_symmetry_cell_setting 'tetragonal'
loop_
_space_group_symop_operation_xyz
x,y,z
-y,x,z
-x,-y,z
y,-x,z
1/2+x,1/2-y,1/2-z
1/2-x,1/2+y,1/2-z
1/2+y,1/2+x,1/2-z
1/2-y,1/2-x,1/2-z
-x,-y,-z
y,-x,-z
x,y,-z
-y,x,-z
1/2-x,1/2+y,1/2+z
1/2+x,1/2-y,1/2+z
1/2-y,1/2-x,1/2+z
1/2+y,1/2+x,1/2+z
loop_
_atom_site_type_symbol
_atom_site_label
_atom_site_fract_x
_atom_site_fract_y
_atom_site_fract_z
Si Si1 0.759717 0.823763 0.318538
Si Si2 0.874126 0.053517 0.667093
Si Si3 0.746113 0.438148 0.326819
Si Si4 0.952163 0.746684 0.325970
Si Si5 0.380667 0.548260 0.666576
Si Si6 0.660998 0.244432 0.681328
O O1 0.714290 0.785710 0.250000
O O2 0.761393 0.820357 0.500000
O O3 0.747796 0.883590 0.265236
O O4 0.814455 0.798936 0.251408
O O5 0.890108 0.070526 0.500000
O O6 0.810895 0.049045 0.670875
O O7 0.896355 0.093820 0.789106
O O8 0.896274 0.995963 0.712088
O O9 0.764964 0.432429 0.500000
O O10 0.768761 0.491609 0.249544
O O11 0.682583 0.446638 0.332786
O O12 0.949028 0.728229 0.500000
O O13 0.899098 0.733105 0.233462
O O14 0.397571 0.531055 0.500000
O O15 0.698792 0.198792 0.750000
O O16 0.665124 0.246422 0.500000
#
# Coordination Sequence:
#
# PCOD9564680 Si02
#       6
#    16  16  16  16  16  16
#     4  11  21  34  52  75 103 135 170 210 254 303
#     4  10  20  32  46  62  83 111 148 191 236 282
#     4  10  20  34  51  72  97 127 161 199 243 294
#     4  10  20  34  51  72  97 127 161 199 243 294
#     4  10  20  32  46  62  83 111 148 191 236 282
#     4  11  21  34  52  75 103 135 170 210 254 303
#
# _framework density 17.086217999999999
#
# number of rings (size 3 to 8) (size 9 to 14) (size 15 to 20)
#    0.000    1.667    0.000    7.000    0.000    7.000 
#    0.000    1.667    0.000    0.000    0.000    0.000 
#    0.000    0.667    0.000    6.667    0.000    4.000 
#
# Total GULP energy -535572.498560 kJ/mol
# GULP energy per Si atom -5578.880193 kJ/mol
# Density = 1.704733 g / cm^3
# Si number density = 17.086218 Si / 1000 Ang^3
#
#
#
# Elastic Constant Matrix: (Units=GPa)
#
#
# Indices 1 2 3 4 5 6 
#
# 1 69.4622 9.9503 33.9302 0.0000 0.0000 0.0000
# 2 9.9503 69.4622 33.9302 0.0000 0.0000 0.0000
# 3 33.9302 33.9302 139.0006 0.0000 0.0000 0.0000
# 4 0.0000 0.0000 0.0000 22.6591 0.0000 0.0000
# 5 0.0000 0.0000 0.0000 0.0000 22.6591 0.0000
# 6 0.0000 0.0000 0.0000 0.0000 0.0000 16.6328
#
#
#
# Elastic Compliance Matrix: (Units=1/GPa)
#
#
# Indices 1 2 3 4 5 6 
#
# 1 0.016357 -0.000446 -0.003884 0.000000 0.000000 0.000000
# 2 -0.000446 0.016357 -0.003884 0.000000 0.000000 0.000000
# 3 -0.003884 -0.003884 0.009090 0.000000 0.000000 0.000000
# 4 0.000000 0.000000 0.000000 0.044132 0.000000 0.000000
# 5 0.000000 0.000000 0.000000 0.000000 0.044132 0.000000
# 6 0.000000 0.000000 0.000000 0.000000 0.000000 0.060122
#
#
# Mechanical properties :
#
#
# Convention : Reuss Voigt Hill
#
# Bulk Modulus (GPa) = 39.40526 48.17181 43.78853
# Shear Modulus (GPa) = 23.24728 25.73118 24.48923
#
# Velocity S-wave (km/s) = 3.69262 3.88488 3.78997
# Velocity P-wave (km/s) = 6.42598 6.95540 6.69593
#
# Compressibility (1/GPa) = 0.02537732
#
# Stress axis : x y z
#
# Youngs Moduli (GPa) = 61.13435 61.13435 110.00625
#
# Poissons Ratio (x) = 0.02726 0.42727
# Poissons Ratio (y) = 0.02726 0.42727
# Poissons Ratio (z) = 0.23745 0.23745
#
# Static dielectric constant tensor:
#      x y z
#    x 1.584560 0.000000 0.000000 
#    y 0.000000 1.584560 0.000000 
#    z 0.000000 0.000000 1.587690 
# 
# From -- ./inp_files/1471.got.cif
#   From: 2010.05.17/outbox.cif.g08.bks.cpg/sg128_1_cif.got.tgz:1471.got - 2010.05.20 12:07:25.
