data_PCOD9564434
_publ_section_title
;
Structure prediction by ZEFSAII (Michael W. Deem and Ramdas Pophale) SiO2 
 PCOD9564434
Probable space group: P 4/M B M
;
_chemical_formula_sum "Si O2"
_cell_formula_units_Z 88
_cell_length_a 11.984423
_cell_length_b 11.984423
_cell_length_c 31.141918
_cell_angle_alpha 90.000000
_cell_angle_beta 90.000000
_cell_angle_gamma 90.000000
_cell_volume 4472.801405
_symmetry_space_group_name_H-M "P 4/M B M"
_symmetry_group_IT_number 127
_symmetry_cell_setting 'tetragonal'
loop_
_space_group_symop_operation_xyz
x,y,z
-y,x,z
-x,-y,z
y,-x,z
1/2+x,1/2-y,-z
1/2-x,1/2+y,-z
1/2+y,1/2+x,-z
1/2-y,1/2-x,-z
-x,-y,-z
y,-x,-z
x,y,-z
-y,x,-z
1/2-x,1/2+y,z
1/2+x,1/2-y,z
1/2-y,1/2-x,z
1/2+y,1/2+x,z
loop_
_atom_site_type_symbol
_atom_site_label
_atom_site_fract_x
_atom_site_fract_y
_atom_site_fract_z
Si Si1 0.406622 0.093379 0.551407
Si Si2 0.825516 0.500024 0.872592
Si Si3 0.541802 0.683646 0.208378
Si Si4 0.960198 0.184760 0.698900
Si Si5 0.186167 0.038265 0.603313
Si Si6 0.682892 0.543897 0.953082
O O1 0.400133 0.099868 0.500000
O O2 0.286292 0.058980 0.570624
O O3 0.500000 0.000000 0.562583
O O4 0.905509 0.594492 0.853217
O O5 0.755063 0.448026 0.834203
O O6 0.755811 0.553620 0.910887
O O7 0.904496 0.404496 0.891886
O O8 0.418959 0.627987 0.206946
O O9 0.553574 0.742780 0.254910
O O10 0.950011 0.236163 0.651780
O O11 0.081896 0.126862 0.699362
O O12 0.083675 0.127088 0.599048
O O13 0.579493 0.628826 0.951473
O O14 0.738076 0.557005 0.000000
#
# Coordination Sequence:
#
# PCOD9564434 Si02
#       6
#     8  16  16  16  16  16
#     4  11  26  42  58  87 129 165 201 254 309 361
#     4  11  24  37  47  68 109 149 177 211 257 311
#     4   9  17  32  57  83 105 135 177 223 271 321
#     4   7  12  28  56  86 110 136 178 231 279 331
#     4   9  19  39  67  92 118 158 206 254 307 368
#     4   9  19  37  60  82  99 120 162 219 271 321
#
# _framework density 19.674471
#
# number of rings (size 3 to 8) (size 9 to 14) (size 15 to 20)
#    0.000    2.818    0.000    3.818    1.273    5.818 
#    1.636    4.545    6.000    0.000    0.000    0.000 
#    0.000    0.000    0.000    0.000    0.000    0.000 
#
# Total GULP energy -490270.710460 kJ/mol
# GULP energy per Si atom -5571.258073 kJ/mol
# Density = 1.962969 g / cm^3
# Si number density = 19.674471 Si / 1000 Ang^3
#
#
#
# Elastic Constant Matrix: (Units=GPa)
#
#
# Indices 1 2 3 4 5 6 
#
# 1 -55.0709 133.5972 33.5930 0.0000 0.0000 0.0000
# 2 133.5972 -55.0711 33.5898 0.0000 0.0000 0.0000
# 3 33.5930 33.5898 113.4812 0.0000 0.0000 0.0000
# 4 0.0000 0.0000 0.0000 -57.7346 0.0000 0.0000
# 5 0.0000 0.0000 0.0000 0.0000 -57.7343 0.0000
# 6 0.0000 0.0000 0.0000 0.0000 0.0000 4.4249
#
#
#
# Elastic Compliance Matrix: (Units=1/GPa)
#
#
# Indices 1 2 3 4 5 6 
#
# 1 0.005876 0.011177 -0.005048 0.000000 0.000000 0.000000
# 2 0.011177 0.005877 -0.005048 0.000000 0.000000 0.000000
# 3 -0.005048 -0.005048 0.011800 0.000000 0.000000 0.000000
# 4 0.000000 0.000000 0.000000 -0.017321 0.000000 0.000000
# 5 0.000000 0.000000 0.000000 0.000000 -0.017321 0.000000
# 6 0.000000 0.000000 0.000000 0.000000 0.000000 0.225991
#
#
# Mechanical properties :
#
#
# Convention : Reuss Voigt Hill
#
# Bulk Modulus (GPa) = 38.88715 44.98881 41.93798
# Shear Modulus (GPa) = 22.59238 -35.37151 -6.38956
#
# Velocity S-wave (km/s) = 3.39235 -4.24469 -1.80408
# Velocity P-wave (km/s) = 5.92893 1.05213 4.12585
#
# Compressibility (1/GPa) = 0.02571544
#
# Stress axis : x y z
#
# Youngs Moduli (GPa) = 170.17114 170.16658 84.74220
#
# Poissons Ratio (x) = -1.90192 0.42776
# Poissons Ratio (y) = -1.90197 0.42778
# Poissons Ratio (z) = 0.85900 0.85901
#
# Static dielectric constant tensor:
#      x y z
#    x 1.681060 0.000000 0.000000 
#    y 0.000000 1.681060 0.000000 
#    z 0.000000 0.000000 1.712560 
# 
# From -- ./inp_files/6493.got.cif
#   From: 2010.05.17/outbox.cif.g08.bks.cpg/sg127_4_cif.got.tgz:6493.got - 2010.05.20 12:03:00.
