data_PCOD9564146
_publ_section_title
;
Structure prediction by ZEFSAII (Michael W. Deem and Ramdas Pophale) SiO2 
 PCOD9564146
Probable space group: P 4/M B M
;
_chemical_formula_sum "Si O2"
_cell_formula_units_Z 72
_cell_length_a 20.913209
_cell_length_b 20.913209
_cell_length_c 7.544776
_cell_angle_alpha 90.000000
_cell_angle_beta 90.000000
_cell_angle_gamma 90.000000
_cell_volume 3299.800665
_symmetry_space_group_name_H-M "P 4/M B M"
_symmetry_group_IT_number 127
_symmetry_cell_setting 'tetragonal'
loop_
_space_group_symop_operation_xyz
x,y,z
-y,x,z
-x,-y,z
y,-x,z
1/2+x,1/2-y,-z
1/2-x,1/2+y,-z
1/2+y,1/2+x,-z
1/2-y,1/2-x,-z
-x,-y,-z
y,-x,-z
x,y,-z
-y,x,-z
1/2-x,1/2+y,z
1/2+x,1/2-y,z
1/2-y,1/2-x,z
1/2+y,1/2+x,z
loop_
_atom_site_type_symbol
_atom_site_label
_atom_site_fract_x
_atom_site_fract_y
_atom_site_fract_z
Si Si1 0.699484 0.949643 0.291333
Si Si2 0.948246 0.448246 0.212842
Si Si3 0.232914 0.925959 0.710527
Si Si4 0.306836 0.193165 0.717505
Si Si5 0.410128 0.450510 0.213364
Si Si6 0.797069 0.702932 0.717364
O O1 0.714305 0.945562 0.500000
O O2 0.623891 0.963836 0.272823
O O3 0.709659 0.878335 0.219512
O O4 0.741643 0.006799 0.214706
O O5 0.000000 0.500000 0.275533
O O6 0.948387 0.448387 0.000000
O O7 0.244820 0.927319 0.500000
O O8 0.156939 0.920029 0.734035
O O9 0.273135 0.866037 0.779705
O O10 0.308447 0.191554 0.500000
O O11 0.255226 0.244775 0.770500
O O12 0.475259 0.415618 0.273822
O O13 0.411996 0.450957 0.000000
O O14 0.797939 0.702061 0.500000
#
# Coordination Sequence:
#
# PCOD9564146 Si02
#       6
#    16   8  16   8  16   8
#     4   9  19  34  54  79 104 140 183 221 270 329
#     4  10  21  35  53  77 103 137 180 229 276 316
#     4  10  21  34  56  86 112 142 183 229 276 330
#     4   8  15  31  51  71 103 140 171 213 269 321
#     4   9  20  39  59  80 111 150 186 222 273 332
#     4   9  19  33  50  78 116 144 167 217 284 333
#
# _framework density 21.819500000000001
#
# number of rings (size 3 to 8) (size 9 to 14) (size 15 to 20)
#    0.000    2.778    0.000    1.667    4.667    2.667 
#    0.000    1.667    0.000    0.000    0.000    0.000 
#    0.000    0.000    0.000    0.000    0.000    0.000 
#
# Total GULP energy -401992.357357 kJ/mol
# GULP energy per Si atom -5583.227186 kJ/mol
# Density = 2.176984 g / cm^3
# Si number density = 21.819500 Si / 1000 Ang^3
#
#
#
# Elastic Constant Matrix: (Units=GPa)
#
#
# Indices 1 2 3 4 5 6 
#
# 1 59.7656 71.1777 7.7275 0.0000 0.0000 0.0000
# 2 71.1777 59.7681 7.7260 0.0000 0.0000 0.0000
# 3 7.7275 7.7260 50.9376 0.0000 0.0000 0.0000
# 4 0.0000 0.0000 0.0000 7.8748 0.0000 0.0000
# 5 0.0000 0.0000 0.0000 0.0000 7.8747 0.0000
# 6 0.0000 0.0000 0.0000 0.0000 0.0000 37.4460
#
#
#
# Elastic Compliance Matrix: (Units=1/GPa)
#
#
# Indices 1 2 3 4 5 6 
#
# 1 -0.039931 0.047706 -0.001178 0.000000 0.000000 0.000000
# 2 0.047706 -0.039929 -0.001181 0.000000 0.000000 0.000000
# 3 -0.001178 -0.001181 0.019990 0.000000 0.000000 0.000000
# 4 0.000000 0.000000 0.000000 0.126987 0.000000 0.000000
# 5 0.000000 0.000000 0.000000 0.000000 0.126988 0.000000
# 6 0.000000 0.000000 0.000000 0.000000 0.000000 0.026705
#
#
# Mechanical properties :
#
#
# Convention : Reuss Voigt Hill
#
# Bulk Modulus (GPa) = 32.44267 38.19261 35.31764
# Shear Modulus (GPa) = 35.61484 16.22846 25.92165
#
# Velocity S-wave (km/s) = 4.04449 2.73015 3.45048
# Velocity P-wave (km/s) = 6.05900 5.24216 5.66532
#
# Compressibility (1/GPa) = 0.03082360
#
# Stress axis : x y z
#
# Youngs Moduli (GPa) = -25.04320 -25.04448 50.02570
#
# Poissons Ratio (x) = 1.19477 0.05893
# Poissons Ratio (y) = 1.19471 0.05908
# Poissons Ratio (z) = -0.02950 -0.02958
#
# Static dielectric constant tensor:
#      x y z
#    x 1.778620 0.000000 0.000000 
#    y 0.000000 1.778620 0.000000 
#    z 0.000000 0.000000 1.798740 
# 
# From -- ./inp_files/1659.got.cif
#   From: 2010.05.17/outbox.cif.g08.bks.cpg/sg127_1_cif.got.tgz:1659.got - 2010.05.20 12:03:00.
