data_PCOD9564137
_publ_section_title
;
Structure prediction by ZEFSAII (Michael W. Deem and Ramdas Pophale) SiO2 
 PCOD9564137
Probable space group: P 4/M B M
;
_chemical_formula_sum "Si O2"
_cell_formula_units_Z 96
_cell_length_a 20.892765
_cell_length_b 20.892765
_cell_length_c 13.188060
_cell_angle_alpha 90.000000
_cell_angle_beta 90.000000
_cell_angle_gamma 90.000000
_cell_volume 5756.688806
_symmetry_space_group_name_H-M "P 4/M B M"
_symmetry_group_IT_number 127
_symmetry_cell_setting 'tetragonal'
loop_
_space_group_symop_operation_xyz
x,y,z
-y,x,z
-x,-y,z
y,-x,z
1/2+x,1/2-y,-z
1/2-x,1/2+y,-z
1/2+y,1/2+x,-z
1/2-y,1/2-x,-z
-x,-y,-z
y,-x,-z
x,y,-z
-y,x,-z
1/2-x,1/2+y,z
1/2+x,1/2-y,z
1/2-y,1/2-x,z
1/2+y,1/2+x,z
loop_
_atom_site_type_symbol
_atom_site_label
_atom_site_fract_x
_atom_site_fract_y
_atom_site_fract_z
Si Si1 0.898614 0.007451 0.376971
Si Si2 0.484277 0.255008 0.620887
Si Si3 0.417937 0.813398 0.241671
Si Si4 0.362938 0.035747 0.880204
Si Si5 0.720057 0.669894 0.882307
Si Si6 0.265126 0.128448 0.225648
O O1 0.900295 0.007755 0.500000
O O2 0.825522 0.008334 0.348329
O O3 0.933738 0.942489 0.343050
O O4 0.477792 0.250577 0.500000
O O5 0.538048 0.207951 0.664693
O O6 0.416551 0.245893 0.677247
O O7 0.359861 0.859861 0.270812
O O8 0.467434 0.850796 0.169352
O O9 0.387401 0.753318 0.180520
O O10 0.426136 0.073865 0.843229
O O11 0.303357 0.082159 0.852004
O O12 0.367409 0.029089 0.000000
O O13 0.774091 0.725910 0.885692
O O14 0.659809 0.702277 0.824957
O O15 0.705961 0.653002 0.000000
O O16 0.313317 0.186684 0.250489
#
# Coordination Sequence:
#
# PCOD9564137 Si02
#       6
#    16  16  16  16  16  16
#     4   8  15  29  49  71  92 117 156 206 252 290
#     4  10  21  34  51  73 100 137 176 216 254 293
#     4  10  21  34  48  73 106 137 174 212 253 310
#     4   9  17  31  52  75  99 128 166 215 263 305
#     4   9  17  31  52  76 104 135 165 207 264 321
#     4   9  18  32  50  74 101 131 171 211 254 312
#
# _framework density 16.676254
#
# number of rings (size 3 to 8) (size 9 to 14) (size 15 to 20)
#    0.000    2.833    0.000    1.500    2.333    4.000 
#    0.000    0.833    0.000    3.000    0.000    4.667 
#    0.000    1.333    0.000    0.000    0.000    0.000 
#
# Total GULP energy -534557.327774 kJ/mol
# GULP energy per Si atom -5568.305498 kJ/mol
# Density = 1.663830 g / cm^3
# Si number density = 16.676254 Si / 1000 Ang^3
#
#
#
# Elastic Constant Matrix: (Units=GPa)
#
#
# Indices 1 2 3 4 5 6 
#
# 1 75.5181 25.3056 32.0252 0.0000 0.0000 0.0000
# 2 25.3056 75.5181 32.0252 0.0000 0.0000 0.0000
# 3 32.0252 32.0252 75.4083 0.0000 0.0000 0.0000
# 4 0.0000 0.0000 0.0000 13.7871 0.0000 0.0000
# 5 0.0000 0.0000 0.0000 0.0000 13.7871 0.0000
# 6 0.0000 0.0000 0.0000 0.0000 0.0000 19.1250
#
#
#
# Elastic Compliance Matrix: (Units=1/GPa)
#
#
# Indices 1 2 3 4 5 6 
#
# 1 0.016749 -0.003166 -0.005769 0.000000 0.000000 0.000000
# 2 -0.003166 0.016749 -0.005769 0.000000 0.000000 0.000000
# 3 -0.005769 -0.005769 0.018161 0.000000 0.000000 0.000000
# 4 0.000000 0.000000 0.000000 0.072532 0.000000 0.000000
# 5 0.000000 0.000000 0.000000 0.000000 0.072532 0.000000
# 6 0.000000 0.000000 0.000000 0.000000 0.000000 0.052288
#
#
# Mechanical properties :
#
#
# Convention : Reuss Voigt Hill
#
# Bulk Modulus (GPa) = 44.93879 45.01738 44.97809
# Shear Modulus (GPa) = 17.49267 18.47907 17.98587
#
# Velocity S-wave (km/s) = 3.24227 3.33244 3.28766
# Velocity P-wave (km/s) = 6.40490 6.46996 6.43751
#
# Compressibility (1/GPa) = 0.02225249
#
# Stress axis : x y z
#
# Youngs Moduli (GPa) = 59.70464 59.70464 55.06368
#
# Poissons Ratio (x) = 0.18904 0.31764
# Poissons Ratio (y) = 0.18904 0.31764
# Poissons Ratio (z) = 0.34441 0.34441
#
# Static dielectric constant tensor:
#      x y z
#    x 1.572300 0.000000 0.000000 
#    y 0.000000 1.572300 0.000000 
#    z 0.000000 0.000000 1.540320 
# 
# From -- ./inp_files/3513.got.cif
#   From: 2010.05.17/outbox.cif.g08.bks.cpg/sg127_2_cif.got.tgz:3513.got - 2010.05.20 12:03:00.
