data_PCOD9564239
_publ_section_title
;
Structure prediction by ZEFSAII (Michael W. Deem and Ramdas Pophale) SiO2 
 PCOD9564239
Probable space group: P 4/M B M
;
_chemical_formula_sum "Si O2"
_cell_formula_units_Z 96
_cell_length_a 14.060240
_cell_length_b 14.060240
_cell_length_c 28.413470
_cell_angle_alpha 90.000000
_cell_angle_beta 90.000000
_cell_angle_gamma 90.000000
_cell_volume 5617.068797
_symmetry_space_group_name_H-M "P 4/M B M"
_symmetry_group_IT_number 127
_symmetry_cell_setting 'tetragonal'
loop_
_space_group_symop_operation_xyz
x,y,z
-y,x,z
-x,-y,z
y,-x,z
1/2+x,1/2-y,-z
1/2-x,1/2+y,-z
1/2+y,1/2+x,-z
1/2-y,1/2-x,-z
-x,-y,-z
y,-x,-z
x,y,-z
-y,x,-z
1/2-x,1/2+y,z
1/2+x,1/2-y,z
1/2-y,1/2-x,z
1/2+y,1/2+x,z
loop_
_atom_site_type_symbol
_atom_site_label
_atom_site_fract_x
_atom_site_fract_y
_atom_site_fract_z
Si Si1 0.282141 0.365708 0.252731
Si Si2 0.443548 0.281423 0.689337
Si Si3 0.079498 0.579498 0.641964
Si Si4 0.138923 0.917610 0.846441
Si Si5 0.368085 0.582784 0.411420
Si Si6 0.671632 0.828368 0.445307
Si Si7 0.361226 0.417062 0.949391
O O1 0.178298 0.321703 0.260430
O O2 0.300896 0.461764 0.281450
O O3 0.357879 0.292434 0.274273
O O4 0.301884 0.382471 0.197889
O O5 0.451409 0.177057 0.666996
O O6 0.421346 0.350048 0.644960
O O7 0.106982 0.606982 0.588626
O O8 0.000000 0.500000 0.644570
O O9 0.180026 0.892669 0.898193
O O10 0.031899 0.875070 0.843394
O O11 0.372706 0.470498 0.424438
O O12 0.280417 0.642230 0.432767
O O13 0.655155 0.844846 0.500000
O O14 0.468610 0.375407 0.949409
O O15 0.316675 0.390318 0.000000
#
# Coordination Sequence:
#
# PCOD9564239 Si02
#       7
#    16  16   8  16  16   8  16
#     4  12  22  32  50  77 109 141 174 219 274 323
#     4  11  21  35  57  81 109 141 176 220 264 312
#     4  10  22  43  60  82 111 147 187 216 255 326
#     4   9  16  26  43  67  96 131 169 214 268 321
#     4  10  21  39  66  90 114 151 192 232 275 328
#     4  10  24  43  62  93 124 146 183 232 279 326
#     4   7  10  18  34  58  87 120 162 210 261 318
#
# _framework density 17.090765000000001
#
# number of rings (size 3 to 8) (size 9 to 14) (size 15 to 20)
#    0.000    2.167    4.167    2.000    0.000    1.167 
#    6.000    0.833    0.000    0.500    0.000    0.000 
#    0.000    0.000    0.000    0.000    0.000   19.167 
#
# Total GULP energy -534517.851062 kJ/mol
# GULP energy per Si atom -5567.894282 kJ/mol
# Density = 1.705187 g / cm^3
# Si number density = 17.090765 Si / 1000 Ang^3
#
#
#
# Elastic Constant Matrix: (Units=GPa)
#
#
# Indices 1 2 3 4 5 6 
#
# 1 61.3036 30.9190 29.0656 0.0000 0.0000 0.0000
# 2 30.9190 61.3035 29.0656 0.0000 0.0000 0.0000
# 3 29.0656 29.0656 138.4358 0.0000 0.0000 0.0000
# 4 0.0000 0.0000 0.0000 -4.5713 0.0000 0.0000
# 5 0.0000 0.0000 0.0000 0.0000 -4.5713 0.0000
# 6 0.0000 0.0000 0.0000 0.0000 0.0000 21.3822
#
#
#
# Elastic Compliance Matrix: (Units=1/GPa)
#
#
# Indices 1 2 3 4 5 6 
#
# 1 0.022704 -0.010207 -0.002624 0.000000 0.000000 0.000000
# 2 -0.010207 0.022704 -0.002624 0.000000 0.000000 0.000000
# 3 -0.002624 -0.002624 0.008325 0.000000 0.000000 0.000000
# 4 0.000000 0.000000 0.000000 -0.218755 0.000000 0.000000
# 5 0.000000 0.000000 0.000000 0.000000 -0.218755 0.000000
# 6 0.000000 0.000000 0.000000 0.000000 0.000000 0.046768
#
#
# Mechanical properties :
#
#
# Convention : Reuss Voigt Hill
#
# Bulk Modulus (GPa) = 43.81289 48.79371 46.30330
# Shear Modulus (GPa) = -16.75097 13.91408 -1.41845
#
# Velocity S-wave (km/s) = -3.13408 2.85639 -0.91200
# Velocity P-wave (km/s) = 3.54887 6.28413 5.10318
#
# Compressibility (1/GPa) = 0.02282433
#
# Stress axis : x y z
#
# Youngs Moduli (GPa) = 44.04440 44.04437 120.11468
#
# Poissons Ratio (x) = 0.44957 0.31517
# Poissons Ratio (y) = 0.44957 0.31517
# Poissons Ratio (z) = 0.11557 0.11557
#
# Static dielectric constant tensor:
#      x y z
#    x 1.572350 0.000000 0.000000 
#    y 0.000000 1.572350 0.000000 
#    z 0.000000 0.000000 1.612960 
# 
# From -- ./inp_files/6362.got.cif
#   From: 2010.05.17/outbox.cif.g08.bks.cpg/sg127_4_cif.got.tgz:6362.got - 2010.05.20 12:03:00.
