data_PCOD9564042
_publ_section_title
;
Structure prediction by ZEFSAII (Michael W. Deem and Ramdas Pophale) SiO2 
 PCOD9564042
Probable space group: P 4/M B M
;
_chemical_formula_sum "Si O2"
_cell_formula_units_Z 96
_cell_length_a 19.696767
_cell_length_b 19.696767
_cell_length_c 13.399647
_cell_angle_alpha 90.000000
_cell_angle_beta 90.000000
_cell_angle_gamma 90.000000
_cell_volume 5198.562295
_symmetry_space_group_name_H-M "P 4/M B M"
_symmetry_group_IT_number 127
_symmetry_cell_setting 'tetragonal'
loop_
_space_group_symop_operation_xyz
x,y,z
-y,x,z
-x,-y,z
y,-x,z
1/2+x,1/2-y,-z
1/2-x,1/2+y,-z
1/2+y,1/2+x,-z
1/2-y,1/2-x,-z
-x,-y,-z
y,-x,-z
x,y,-z
-y,x,-z
1/2-x,1/2+y,z
1/2+x,1/2-y,z
1/2-y,1/2-x,z
1/2+y,1/2+x,z
loop_
_atom_site_type_symbol
_atom_site_label
_atom_site_fract_x
_atom_site_fract_y
_atom_site_fract_z
Si Si1 0.241081 0.855776 0.500000
Si Si2 0.923085 0.310470 0.702907
Si Si3 0.248623 0.634177 0.500000
Si Si4 0.351370 0.736890 0.111925
Si Si5 0.996543 0.114638 0.235299
Si Si6 0.250429 0.445261 0.304634
Si Si7 0.586343 0.709838 0.888827
O O1 0.296644 0.796644 0.500000
O O2 0.166090 0.822961 0.500000
O O3 0.250645 0.898631 0.599440
O O4 0.878422 0.378422 0.704643
O O5 0.903195 0.269300 0.602556
O O6 0.909906 0.266379 0.802633
O O7 0.004118 0.313320 0.697348
O O8 0.197174 0.697174 0.500000
O O9 0.285881 0.785881 0.124011
O O10 0.402127 0.748744 0.202954
O O11 0.328413 0.658522 0.115476
O O12 0.379193 0.749932 0.000000
O O13 0.974244 0.156554 0.135868
O O14 0.062776 0.066883 0.244869
O O15 0.011491 0.178757 0.307006
O O16 0.577819 0.737916 0.000000
#
# Coordination Sequence:
#
# PCOD9564042 Si02
#       7
#     8  16   8  16  16  16  16
#     4  11  23  38  61  90 116 148 195 255 307 345
#     4  10  21  37  58  84 115 150 191 245 302 357
#     4   9  19  36  60  82 105 143 187 234 294 346
#     4  10  20  36  58  82 110 148 199 258 304 339
#     4  10  21  37  54  80 123 168 200 229 272 346
#     4  11  22  37  59  86 117 152 198 243 292 362
#     4  10  20  34  55  84 115 152 201 246 292 343
#
# _framework density 18.466643999999999
#
# number of rings (size 3 to 8) (size 9 to 14) (size 15 to 20)
#    0.000    1.833    1.667    2.500    2.333    5.667 
#    0.000    0.833    0.000    3.500    0.000    1.167 
#    0.000    0.000    0.000    0.000    0.000    0.000 
#
# Total GULP energy -534656.980424 kJ/mol
# GULP energy per Si atom -5569.343546 kJ/mol
# Density = 1.842461 g / cm^3
# Si number density = 18.466644 Si / 1000 Ang^3
#
#
#
# Elastic Constant Matrix: (Units=GPa)
#
#
# Indices 1 2 3 4 5 6 
#
# 1 55.7166 17.8445 29.0278 0.0000 0.0000 0.0000
# 2 17.8445 55.7166 29.0278 0.0000 0.0000 0.0000
# 3 29.0278 29.0278 121.6367 0.0000 0.0000 0.0000
# 4 0.0000 0.0000 0.0000 43.7042 0.0000 0.0000
# 5 0.0000 0.0000 0.0000 0.0000 43.7042 0.0000
# 6 0.0000 0.0000 0.0000 0.0000 0.0000 35.4091
#
#
#
# Elastic Compliance Matrix: (Units=1/GPa)
#
#
# Indices 1 2 3 4 5 6 
#
# 1 0.021577 -0.004828 -0.003997 0.000000 0.000000 0.000000
# 2 -0.004828 0.021577 -0.003997 0.000000 0.000000 0.000000
# 3 -0.003997 -0.003997 0.010129 0.000000 0.000000 0.000000
# 4 0.000000 0.000000 0.000000 0.022881 0.000000 0.000000
# 5 0.000000 0.000000 0.000000 0.000000 0.022881 0.000000
# 6 0.000000 0.000000 0.000000 0.000000 0.000000 0.028241
#
#
# Mechanical properties :
#
#
# Convention : Reuss Voigt Hill
#
# Bulk Modulus (GPa) = 36.18169 42.76337 39.47253
# Shear Modulus (GPa) = 30.83709 35.04146 32.93927
#
# Velocity S-wave (km/s) = 4.09085 4.36082 4.22799
# Velocity P-wave (km/s) = 6.47680 6.96872 6.72726
#
# Compressibility (1/GPa) = 0.02763829
#
# Stress axis : x y z
#
# Youngs Moduli (GPa) = 46.34641 46.34641 98.72744
#
# Poissons Ratio (x) = 0.22376 0.39461
# Poissons Ratio (y) = 0.22376 0.39461
# Poissons Ratio (z) = 0.18524 0.18524
#
# Static dielectric constant tensor:
#      x y z
#    x 1.664040 0.000000 0.000000 
#    y 0.000000 1.664040 0.000000 
#    z 0.000000 0.000000 1.648740 
# 
# From -- ./inp_files/3622.got.cif
#   From: 2010.05.17/outbox.cif.g08.bks.cpg/sg127_2_cif.got.tgz:3622.got - 2010.05.20 12:03:00.
