data_PCOD9564100
_publ_section_title
;
Structure prediction by ZEFSAII (Michael W. Deem and Ramdas Pophale) SiO2 
 PCOD9564100
Probable space group: P 4/M B M
;
_chemical_formula_sum "Si O2"
_cell_formula_units_Z 96
_cell_length_a 24.310276
_cell_length_b 24.310276
_cell_length_c 8.638872
_cell_angle_alpha 90.000000
_cell_angle_beta 90.000000
_cell_angle_gamma 90.000000
_cell_volume 5105.482810
_symmetry_space_group_name_H-M "P 4/M B M"
_symmetry_group_IT_number 127
_symmetry_cell_setting 'tetragonal'
loop_
_space_group_symop_operation_xyz
x,y,z
-y,x,z
-x,-y,z
y,-x,z
1/2+x,1/2-y,-z
1/2-x,1/2+y,-z
1/2+y,1/2+x,-z
1/2-y,1/2-x,-z
-x,-y,-z
y,-x,-z
x,y,-z
-y,x,-z
1/2-x,1/2+y,z
1/2+x,1/2-y,z
1/2-y,1/2-x,z
1/2+y,1/2+x,z
loop_
_atom_site_type_symbol
_atom_site_label
_atom_site_fract_x
_atom_site_fract_y
_atom_site_fract_z
Si Si1 0.992020 0.271124 0.681449
Si Si2 0.889171 0.087355 0.175377
Si Si3 0.892626 0.693810 0.816323
Si Si4 0.200608 0.835185 0.314013
Si Si5 0.364847 0.223097 0.311881
Si Si6 0.142582 0.015403 0.326385
O O1 0.992375 0.287072 0.500000
O O2 0.044267 0.299432 0.761840
O O3 0.002438 0.205631 0.688870
O O4 0.928729 0.277661 0.740608
O O5 0.835710 0.120050 0.226195
O O6 0.895368 0.036369 0.290718
O O7 0.938841 0.128632 0.202369
O O8 0.885728 0.067825 0.000000
O O9 0.865924 0.634077 0.786622
O O10 0.852130 0.737937 0.733640
O O11 0.890281 0.704498 0.000000
O O12 0.195528 0.840216 0.500000
O O13 0.173034 0.776263 0.270356
O O14 0.367401 0.224843 0.500000
O O15 0.330978 0.169023 0.265098
O O16 0.135702 0.037577 0.500000
#
# Coordination Sequence:
#
# PCOD9564100 Si02
#       6
#    16  16  16  16  16  16
#     4  10  20  36  60  85 112 148 191 231 279 345
#     4  12  24  37  56  83 114 152 195 242 291 338
#     4  11  24  39  56  84 120 153 191 239 289 341
#     4  11  20  35  58  86 118 153 191 232 284 347
#     4   9  18  34  58  88 117 144 181 232 284 334
#     4  11  22  39  59  81 110 151 200 244 285 335
#
# _framework density 18.803315000000001
#
# number of rings (size 3 to 8) (size 9 to 14) (size 15 to 20)
#    0.000    1.333    3.333    3.500    0.000    3.000 
#    0.000    1.667    0.000    3.000    0.000    3.500 
#    0.000    0.000    0.000    0.000    0.000    0.000 
#
# Total GULP energy -535396.352664 kJ/mol
# GULP energy per Si atom -5577.045340 kJ/mol
# Density = 1.876052 g / cm^3
# Si number density = 18.803315 Si / 1000 Ang^3
#
#
#
# Elastic Constant Matrix: (Units=GPa)
#
#
# Indices 1 2 3 4 5 6 
#
# 1 383.4383 -269.1644 18.9670 0.0000 0.0000 0.0000
# 2 -269.1644 383.4383 18.9670 0.0000 0.0000 0.0000
# 3 18.9670 18.9670 40.9715 0.0000 0.0000 0.0000
# 4 0.0000 0.0000 0.0000 15.4474 0.0000 0.0000
# 5 0.0000 0.0000 0.0000 0.0000 15.4474 0.0000
# 6 0.0000 0.0000 0.0000 0.0000 0.0000 22.5059
#
#
#
# Elastic Compliance Matrix: (Units=1/GPa)
#
#
# Indices 1 2 3 4 5 6 
#
# 1 0.005936 0.004404 -0.004787 0.000000 0.000000 0.000000
# 2 0.004404 0.005936 -0.004787 0.000000 0.000000 0.000000
# 3 -0.004787 -0.004787 0.028839 0.000000 0.000000 0.000000
# 4 0.000000 0.000000 0.000000 0.064736 0.000000 0.000000
# 5 0.000000 0.000000 0.000000 0.000000 0.064736 0.000000
# 6 0.000000 0.000000 0.000000 0.000000 0.000000 0.044433
#
#
# Mechanical properties :
#
#
# Convention : Reuss Voigt Hill
#
# Bulk Modulus (GPa) = 32.92491 38.37634 35.65062
# Shear Modulus (GPa) = 21.26950 79.95205 50.61078
#
# Velocity S-wave (km/s) = 3.36692 6.52782 5.19368
# Velocity P-wave (km/s) = 5.71516 8.79035 7.41395
#
# Compressibility (1/GPa) = 0.03037214
#
# Stress axis : x y z
#
# Youngs Moduli (GPa) = 168.46099 168.46099 34.67533
#
# Poissons Ratio (x) = -0.74186 0.16598
# Poissons Ratio (y) = -0.74186 0.16598
# Poissons Ratio (z) = 0.80636 0.80636
#
# Static dielectric constant tensor:
#      x y z
#    x 1.687200 0.000000 0.000000 
#    y 0.000000 1.687200 0.000000 
#    z 0.000000 0.000000 1.629000 
# 
# From -- ./inp_files/2010.got.cif
#   From: 2010.05.17/outbox.cif.g08.bks.cpg/sg127_2_cif.got.tgz:2010.got - 2010.05.20 12:03:00.
