data_PCOD9564184
_publ_section_title
;
Structure prediction by ZEFSAII (Michael W. Deem and Ramdas Pophale) SiO2 
 PCOD9564184
Probable space group: P 4/M B M
;
_chemical_formula_sum "Si O2"
_cell_formula_units_Z 96
_cell_length_a 24.189257
_cell_length_b 24.189257
_cell_length_c 7.859663
_cell_angle_alpha 90.000000
_cell_angle_beta 90.000000
_cell_angle_gamma 90.000000
_cell_volume 4598.847227
_symmetry_space_group_name_H-M "P 4/M B M"
_symmetry_group_IT_number 127
_symmetry_cell_setting 'tetragonal'
loop_
_space_group_symop_operation_xyz
x,y,z
-y,x,z
-x,-y,z
y,-x,z
1/2+x,1/2-y,-z
1/2-x,1/2+y,-z
1/2+y,1/2+x,-z
1/2-y,1/2-x,-z
-x,-y,-z
y,-x,-z
x,y,-z
-y,x,-z
1/2-x,1/2+y,z
1/2+x,1/2-y,z
1/2-y,1/2-x,z
1/2+y,1/2+x,z
loop_
_atom_site_type_symbol
_atom_site_label
_atom_site_fract_x
_atom_site_fract_y
_atom_site_fract_z
Si Si1 0.979671 0.162813 0.205052
Si Si2 0.271690 0.087982 0.700447
Si Si3 0.312856 0.297372 0.697897
Si Si4 0.901528 0.598473 0.204441
Si Si5 0.809991 0.690010 0.294189
Si Si6 0.472963 0.115416 0.796902
Si Si7 0.096405 0.121541 0.794517
O O1 0.952458 0.219007 0.273261
O O2 0.942342 0.108963 0.242229
O O3 0.040629 0.149343 0.267034
O O4 0.980580 0.169212 0.000000
O O5 0.280404 0.095391 0.500000
O O6 0.251652 0.148152 0.771583
O O7 0.326979 0.059423 0.768764
O O8 0.304198 0.283403 0.500000
O O9 0.253489 0.316571 0.766528
O O10 0.349261 0.351426 0.713451
O O11 0.855068 0.644933 0.240461
O O12 0.885570 0.536505 0.267469
O O13 0.904427 0.595574 0.000000
O O14 0.811886 0.688115 0.500000
O O15 0.434935 0.065066 0.729379
O O16 0.476764 0.108027 0.000000
O O17 0.098711 0.127861 0.000000
#
# Coordination Sequence:
#
# PCOD9564184 Si02
#       7
#    16  16  16   8   8  16  16
#     4   9  18  33  52  77 110 146 187 233 278 332
#     4  10  21  36  58  85 113 149 189 232 282 334
#     4   9  20  37  55  77 110 148 185 227 278 334
#     4  10  23  42  62  88 118 152 191 229 282 345
#     4  10  22  39  59  83 114 149 183 228 279 329
#     4  10  22  41  64  87 115 150 188 234 286 342
#     4   9  18  32  52  76 106 143 183 229 277 326
#
# _framework density 20.874796
#
# number of rings (size 3 to 8) (size 9 to 14) (size 15 to 20)
#    0.000    2.500    0.000    0.750    3.500    4.333 
#    0.000    1.667    0.000    1.500    0.000    4.667 
#    0.000    0.000    0.000    0.000    0.000    0.000 
#
# Total GULP energy -534776.738497 kJ/mol
# GULP energy per Si atom -5570.591026 kJ/mol
# Density = 2.082728 g / cm^3
# Si number density = 20.874796 Si / 1000 Ang^3
#
#
#
# Elastic Constant Matrix: (Units=GPa)
#
#
# Indices 1 2 3 4 5 6 
#
# 1 128.5681 115.3419 9.6297 0.0000 0.0000 0.0000
# 2 115.3419 128.5677 9.6296 0.0000 0.0000 0.0000
# 3 9.6297 9.6296 21.3987 0.0000 0.0000 0.0000
# 4 0.0000 0.0000 0.0000 -1.3384 0.0000 0.0000
# 5 0.0000 0.0000 0.0000 0.0000 -1.3405 0.0000
# 6 0.0000 0.0000 0.0000 0.0000 0.0000 22.0772
#
#
#
# Elastic Compliance Matrix: (Units=1/GPa)
#
#
# Indices 1 2 3 4 5 6 
#
# 1 0.039930 -0.035679 -0.001913 0.000000 0.000000 0.000000
# 2 -0.035679 0.039930 -0.001913 0.000000 0.000000 0.000000
# 3 -0.001913 -0.001913 0.048454 0.000000 0.000000 0.000000
# 4 0.000000 0.000000 0.000000 -0.747153 0.000000 0.000000
# 5 0.000000 0.000000 0.000000 0.000000 -0.745992 0.000000
# 6 0.000000 0.000000 0.000000 0.000000 0.000000 0.045296
#
#
# Mechanical properties :
#
#
# Convention : Reuss Voigt Hill
#
# Bulk Modulus (GPa) = 20.28252 60.85967 40.57110
# Shear Modulus (GPa) = -4.08466 13.47521 4.69527
#
# Velocity S-wave (km/s) = -1.40035 2.54348 1.50138
# Velocity P-wave (km/s) = 2.66884 6.15172 4.74164
#
# Compressibility (1/GPa) = 0.04930353
#
# Stress axis : x y z
#
# Youngs Moduli (GPa) = 25.04394 25.04389 20.63832
#
# Poissons Ratio (x) = 0.89354 0.03949
# Poissons Ratio (y) = 0.89354 0.03948
# Poissons Ratio (z) = 0.04791 0.04790
#
# Static dielectric constant tensor:
#      x y z
#    x 1.776650 0.000000 0.000000 
#    y 0.000000 1.776650 0.000000 
#    z 0.000000 0.000000 1.776440 
# 
# From -- ./inp_files/2123.got.cif
#   From: 2010.05.17/outbox.cif.g08.bks.cpg/sg127_2_cif.got.tgz:2123.got - 2010.05.20 12:03:00.
