data_PCOD9564074
_publ_section_title
;
Structure prediction by ZEFSAII (Michael W. Deem and Ramdas Pophale) SiO2 
 PCOD9564074
Probable space group: P 4/M B M
;
_chemical_formula_sum "Si O2"
_cell_formula_units_Z 128
_cell_length_a 23.560473
_cell_length_b 23.560473
_cell_length_c 12.630000
_cell_angle_alpha 90.000000
_cell_angle_beta 90.000000
_cell_angle_gamma 90.000000
_cell_volume 7010.861065
_symmetry_space_group_name_H-M "P 4/M B M"
_symmetry_group_IT_number 127
_symmetry_cell_setting 'tetragonal'
loop_
_space_group_symop_operation_xyz
x,y,z
-y,x,z
-x,-y,z
y,-x,z
1/2+x,1/2-y,-z
1/2-x,1/2+y,-z
1/2+y,1/2+x,-z
1/2-y,1/2-x,-z
-x,-y,-z
y,-x,-z
x,y,-z
-y,x,-z
1/2-x,1/2+y,z
1/2+x,1/2-y,z
1/2-y,1/2-x,z
1/2+y,1/2+x,z
loop_
_atom_site_type_symbol
_atom_site_label
_atom_site_fract_x
_atom_site_fract_y
_atom_site_fract_z
Si Si1 0.327449 0.078512 0.872272
Si Si2 0.208155 0.799984 0.622221
Si Si3 0.294419 0.597282 0.235707
Si Si4 0.861199 0.549908 0.872784
Si Si5 0.091972 0.136194 0.875622
Si Si6 0.703492 0.511337 0.618439
Si Si7 0.913073 0.032556 0.684059
Si Si8 0.900661 0.744231 0.756489
O O1 0.373446 0.126555 0.842823
O O2 0.266061 0.091521 0.822207
O O3 0.349791 0.015554 0.841850
O O4 0.321848 0.079229 0.000000
O O5 0.203920 0.819564 0.500000
O O6 0.240008 0.740008 0.622146
O O7 0.148013 0.794849 0.679408
O O8 0.245372 0.842597 0.693956
O O9 0.346625 0.610430 0.156712
O O10 0.304664 0.539854 0.300348
O O11 0.922116 0.577885 0.846094
O O12 0.812767 0.589069 0.820789
O O13 0.855367 0.552126 0.000000
O O14 0.045443 0.102444 0.806237
O O15 0.091163 0.201354 0.834194
O O16 0.082311 0.133236 0.000000
O O17 0.714788 0.492164 0.500000
O O18 0.644448 0.546668 0.622589
O O19 0.751369 0.551122 0.666646
O O20 0.968130 0.069693 0.659283
#
# Coordination Sequence:
#
# PCOD9564074 Si02
#       8
#    16  16  16  16  16  16  16  16
#     4  10  21  37  59  87 118 152 190 234 285 343
#     4  10  21  36  57  83 110 142 179 225 278 329
#     4  11  20  38  56  81 113 144 186 232 281 340
#     4  10  20  35  58  87 119 153 187 228 280 341
#     4  10  21  35  55  79 110 148 185 232 283 335
#     4  11  22  36  56  78 103 142 187 236 281 325
#     4  10  21  38  51  74 108 142 193 233 281 333
#     4  10  20  37  55  81 113 144 184 226 274 339
#
# _framework density 18.257387999999999
#
# number of rings (size 3 to 8) (size 9 to 14) (size 15 to 20)
#    0.000    1.750    2.500    2.250    0.000    1.250 
#    0.000    2.500    0.000    6.000    0.000    0.000 
#    0.000    1.000    0.000    0.000    0.000    0.000 
#
# Total GULP energy -714195.508463 kJ/mol
# GULP energy per Si atom -5579.652410 kJ/mol
# Density = 1.821583 g / cm^3
# Si number density = 18.257388 Si / 1000 Ang^3
#
#
#
# Elastic Constant Matrix: (Units=GPa)
#
#
# Indices 1 2 3 4 5 6 
#
# 1 65.8041 32.2351 6.3097 0.0000 0.0000 0.0000
# 2 32.2351 65.8041 6.3097 0.0000 0.0000 0.0000
# 3 6.3097 6.3097 51.1868 0.0000 0.0000 0.0000
# 4 0.0000 0.0000 0.0000 20.2603 0.0000 0.0000
# 5 0.0000 0.0000 0.0000 0.0000 20.2603 0.0000
# 6 0.0000 0.0000 0.0000 0.0000 0.0000 28.4157
#
#
#
# Elastic Compliance Matrix: (Units=1/GPa)
#
#
# Indices 1 2 3 4 5 6 
#
# 1 0.020077 -0.009712 -0.001278 0.000000 0.000000 0.000000
# 2 -0.009712 0.020077 -0.001278 0.000000 0.000000 0.000000
# 3 -0.001278 -0.001278 0.019851 0.000000 0.000000 0.000000
# 4 0.000000 0.000000 0.000000 0.049358 0.000000 0.000000
# 5 0.000000 0.000000 0.000000 0.000000 0.049358 0.000000
# 6 0.000000 0.000000 0.000000 0.000000 0.000000 0.035192
#
#
# Mechanical properties :
#
#
# Convention : Reuss Voigt Hill
#
# Bulk Modulus (GPa) = 28.19303 30.27820 29.23562
# Shear Modulus (GPa) = 21.71356 22.98328 22.34842
#
# Velocity S-wave (km/s) = 3.45237 3.55187 3.50247
# Velocity P-wave (km/s) = 5.60065 5.78283 5.69247
#
# Compressibility (1/GPa) = 0.03546976
#
# Stress axis : x y z
#
# Youngs Moduli (GPa) = 49.80845 49.80845 50.37465
#
# Poissons Ratio (x) = 0.48376 0.06436
# Poissons Ratio (y) = 0.48376 0.06436
# Poissons Ratio (z) = 0.06364 0.06364
#
# Static dielectric constant tensor:
#      x y z
#    x 1.637090 0.000000 0.000000 
#    y 0.000000 1.637090 0.000000 
#    z 0.000000 0.000000 1.612660 
# 
# From -- ./inp_files/3857.got.cif
#   From: 2010.05.17/outbox.cif.g08.bks.cpg/sg127_2_cif.got.tgz:3857.got - 2010.05.20 12:03:00.
