data_PCOD9564819
_publ_section_title
;
Structure prediction by ZEFSAII (Michael W. Deem and Ramdas Pophale) SiO2 
 PCOD9564819
Probable space group: P 4/M N C
;
_chemical_formula_sum "Si O2"
_cell_formula_units_Z 64
_cell_length_a 14.037160
_cell_length_b 14.037160
_cell_length_c 17.650712
_cell_angle_alpha 90.000000
_cell_angle_beta 90.000000
_cell_angle_gamma 90.000000
_cell_volume 3477.929138
_symmetry_space_group_name_H-M "P 4/M N C"
_symmetry_group_IT_number 128
_symmetry_cell_setting 'tetragonal'
loop_
_space_group_symop_operation_xyz
x,y,z
-y,x,z
-x,-y,z
y,-x,z
1/2+x,1/2-y,1/2-z
1/2-x,1/2+y,1/2-z
1/2+y,1/2+x,1/2-z
1/2-y,1/2-x,1/2-z
-x,-y,-z
y,-x,-z
x,y,-z
-y,x,-z
1/2-x,1/2+y,1/2+z
1/2+x,1/2-y,1/2+z
1/2-y,1/2-x,1/2+z
1/2+y,1/2+x,1/2+z
loop_
_atom_site_type_symbol
_atom_site_label
_atom_site_fract_x
_atom_site_fract_y
_atom_site_fract_z
Si Si1 0.736018 0.262895 0.163264
Si Si2 0.088321 0.867553 0.417569
Si Si3 0.406627 0.886389 0.909518
Si Si4 0.404162 0.110223 0.658922
O O1 0.732415 0.232415 0.250000
O O2 0.684719 0.364228 0.151643
O O3 0.674494 0.188769 0.114659
O O4 0.843303 0.294343 0.141611
O O5 0.116386 0.825464 0.500000
O O6 0.975393 0.873864 0.415834
O O7 0.512868 0.862362 0.878366
O O8 0.382898 0.988856 0.872636
O O9 0.411574 0.893298 0.000000
O O10 0.403042 0.096959 0.750000
#
# Coordination Sequence:
#
# PCOD9564819 Si02
#       4
#    16  16  16  16
#     4  11  22  34  53  78 107 144 181 217 261 312
#     4   9  18  33  55  83 109 130 159 210 276 334
#     4  11  22  36  57  82 110 143 179 223 271 320
#     4  10  21  38  58  80 110 144 181 224 267 319
#
# _framework density 18.401754
#
# number of rings (size 3 to 8) (size 9 to 14) (size 15 to 20)
#    0.000    1.750    0.000    7.500    0.000    8.000 
#    0.000    0.000    0.000    0.750    0.000    1.750 
#    0.000    0.000    0.000    0.000    0.000    0.000 
#
# Total GULP energy -356977.716157 kJ/mol
# GULP energy per Si atom -5577.776815 kJ/mol
# Density = 1.835987 g / cm^3
# Si number density = 18.401754 Si / 1000 Ang^3
#
#
#
# Elastic Constant Matrix: (Units=GPa)
#
#
# Indices 1 2 3 4 5 6 
#
# 1 67.8834 47.3014 33.0366 0.0000 0.0000 0.0000
# 2 47.3014 67.8836 33.0367 0.0000 0.0000 0.0000
# 3 33.0366 33.0367 111.2866 0.0000 0.0000 0.0000
# 4 0.0000 0.0000 0.0000 22.1122 0.0000 0.0000
# 5 0.0000 0.0000 0.0000 0.0000 22.1121 0.0000
# 6 0.0000 0.0000 0.0000 0.0000 0.0000 42.9463
#
#
#
# Elastic Compliance Matrix: (Units=1/GPa)
#
#
# Indices 1 2 3 4 5 6 
#
# 1 0.029525 -0.019061 -0.003106 0.000000 0.000000 0.000000
# 2 -0.019061 0.029525 -0.003106 0.000000 0.000000 0.000000
# 3 -0.003106 -0.003106 0.010830 0.000000 0.000000 0.000000
# 4 0.000000 0.000000 0.000000 0.045224 0.000000 0.000000
# 5 0.000000 0.000000 0.000000 0.000000 0.045224 0.000000
# 6 0.000000 0.000000 0.000000 0.000000 0.000000 0.023285
#
#
# Mechanical properties :
#
#
# Convention : Reuss Voigt Hill
#
# Bulk Modulus (GPa) = 51.72715 52.64479 52.18597
# Shear Modulus (GPa) = 20.78108 26.34606 23.56357
#
# Velocity S-wave (km/s) = 3.36415 3.78791 3.58230
# Velocity P-wave (km/s) = 6.57730 6.91387 6.74769
#
# Compressibility (1/GPa) = 0.01933221
#
# Stress axis : x y z
#
# Youngs Moduli (GPa) = 33.86994 33.87003 92.33582
#
# Poissons Ratio (x) = 0.64560 0.28681
# Poissons Ratio (y) = 0.64560 0.28682
# Poissons Ratio (z) = 0.10521 0.10521
#
# Static dielectric constant tensor:
#      x y z
#    x 1.668190 0.000000 0.000000 
#    y 0.000000 1.668190 0.000000 
#    z 0.000000 0.000000 1.563680 
# 
# From -- ./inp_files/3503.got.cif
#   From: 2010.05.17/outbox.cif.g08.bks.cpg/sg128_2_cif.got.tgz:3503.got - 2010.05.20 12:07:25.
