data_PCOD9564528
_publ_section_title
;
Structure prediction by ZEFSAII (Michael W. Deem and Ramdas Pophale) SiO2 
 PCOD9564528
Probable space group: P 4/M N C
;
_chemical_formula_sum "Si O2"
_cell_formula_units_Z 112
_cell_length_a 17.929091
_cell_length_b 17.929091
_cell_length_c 18.489134
_cell_angle_alpha 90.000000
_cell_angle_beta 90.000000
_cell_angle_gamma 90.000000
_cell_volume 5943.374725
_symmetry_space_group_name_H-M "P 4/M N C"
_symmetry_group_IT_number 128
_symmetry_cell_setting 'tetragonal'
loop_
_space_group_symop_operation_xyz
x,y,z
-y,x,z
-x,-y,z
y,-x,z
1/2+x,1/2-y,1/2-z
1/2-x,1/2+y,1/2-z
1/2+y,1/2+x,1/2-z
1/2-y,1/2-x,1/2-z
-x,-y,-z
y,-x,-z
x,y,-z
-y,x,-z
1/2-x,1/2+y,1/2+z
1/2+x,1/2-y,1/2+z
1/2-y,1/2-x,1/2+z
1/2+y,1/2+x,1/2+z
loop_
_atom_site_type_symbol
_atom_site_label
_atom_site_fract_x
_atom_site_fract_y
_atom_site_fract_z
Si Si1 0.829131 0.306207 0.080664
Si Si2 0.280078 0.584768 0.305972
Si Si3 0.374269 0.508212 0.580628
Si Si4 0.919992 0.211520 0.636011
Si Si5 0.145139 0.239121 0.780838
Si Si6 0.708242 0.587708 0.870624
Si Si7 0.676164 0.202492 0.577468
O O1 0.886161 0.288400 0.145169
O O2 0.779592 0.378632 0.096805
O O3 0.769865 0.237026 0.080581
O O4 0.861872 0.309228 0.000000
O O5 0.319558 0.519817 0.352099
O O6 0.267548 0.573113 0.221154
O O7 0.336638 0.655266 0.303164
O O8 0.423686 0.433726 0.583991
O O9 0.339331 0.511500 0.500000
O O10 0.865194 0.140121 0.627361
O O11 0.002806 0.195431 0.608100
O O12 0.221334 0.278667 0.750000
O O13 0.091557 0.236377 0.712661
O O14 0.125830 0.285847 0.852065
O O15 0.773276 0.629001 0.914772
O O16 0.637867 0.205521 0.500000
#
# Coordination Sequence:
#
# PCOD9564528 Si02
#       7
#    16  16  16  16  16  16  16
#     4   9  17  31  48  66  84 117 158 206 252 287
#     4  10  17  27  48  64  88 119 163 196 243 273
#     4   9  19  32  42  60  95 135 167 190 219 274
#     4  10  20  30  45  67  98 128 166 198 232 276
#     4   8  15  28  43  62  87 114 150 197 241 270
#     4   9  18  30  42  65  97 133 161 197 230 277
#     4   8  14  27  48  66  84 114 158 202 247 282
#
# _framework density 18.844514
#
# number of rings (size 3 to 8) (size 9 to 14) (size 15 to 20)
#    0.000    3.000    0.000    3.857    4.000    1.429 
#    0.000    0.000    0.000    0.000    0.000    4.000 
#    0.000   20.571    0.000   16.714    4.000    1.286 
#
# Total GULP energy -623940.711652 kJ/mol
# GULP energy per Si atom -5570.899211 kJ/mol
# Density = 1.880162 g / cm^3
# Si number density = 18.844514 Si / 1000 Ang^3
#
#
#
# Elastic Constant Matrix: (Units=GPa)
#
#
# Indices 1 2 3 4 5 6 
#
# 1 33.1710 19.9217 -4.2231 0.0000 0.0000 0.0000
# 2 19.9217 33.1715 -4.2238 0.0000 0.0000 0.0000
# 3 -4.2231 -4.2238 64.5634 0.0000 0.0000 0.0000
# 4 0.0000 0.0000 0.0000 8.2649 0.0000 0.0000
# 5 0.0000 0.0000 0.0000 0.0000 8.2651 0.0000
# 6 0.0000 0.0000 0.0000 0.0000 0.0000 15.3947
#
#
#
# Elastic Compliance Matrix: (Units=1/GPa)
#
#
# Indices 1 2 3 4 5 6 
#
# 1 0.047254 -0.028220 0.001245 0.000000 0.000000 0.000000
# 2 -0.028220 0.047253 0.001245 0.000000 0.000000 0.000000
# 3 0.001245 0.001245 0.015652 0.000000 0.000000 0.000000
# 4 0.000000 0.000000 0.000000 0.120994 0.000000 0.000000
# 5 0.000000 0.000000 0.000000 0.000000 0.120991 0.000000
# 6 0.000000 0.000000 0.000000 0.000000 0.000000 0.064957
#
#
# Mechanical properties :
#
#
# Convention : Reuss Voigt Hill
#
# Bulk Modulus (GPa) = 17.03645 17.09506 17.06576
# Shear Modulus (GPa) = 10.24324 14.34702 12.29513
#
# Velocity S-wave (km/s) = 2.33398 2.76223 2.55708
# Velocity P-wave (km/s) = 4.04023 4.38914 4.21829
#
# Compressibility (1/GPa) = 0.05869768
#
# Stress axis : x y z
#
# Youngs Moduli (GPa) = 21.16235 21.16259 63.89147
#
# Poissons Ratio (x) = 0.59722 -0.07952
# Poissons Ratio (y) = 0.59721 -0.07957
# Poissons Ratio (z) = -0.02634 -0.02636
#
# Static dielectric constant tensor:
#      x y z
#    x 1.654740 0.000000 0.000000 
#    y 0.000000 1.654740 0.000000 
#    z 0.000000 0.000000 1.720110 
# 
# From -- ./inp_files/5947.got.cif
#   From: 2010.05.17/outbox.cif.g08.bks.cpg/sg128_3_cif.got.tgz:5947.got - 2010.05.20 12:07:25.
