data_PCOD9564033
_publ_section_title
;
Structure prediction by ZEFSAII (Michael W. Deem and Ramdas Pophale) SiO2 
 PCOD9564033
Probable space group: P 4/M B M
;
_chemical_formula_sum "Si O2"
_cell_formula_units_Z 72
_cell_length_a 21.872549
_cell_length_b 21.872549
_cell_length_c 8.772180
_cell_angle_alpha 90.000000
_cell_angle_beta 90.000000
_cell_angle_gamma 90.000000
_cell_volume 4196.684596
_symmetry_space_group_name_H-M "P 4/M B M"
_symmetry_group_IT_number 127
_symmetry_cell_setting 'tetragonal'
loop_
_space_group_symop_operation_xyz
x,y,z
-y,x,z
-x,-y,z
y,-x,z
1/2+x,1/2-y,-z
1/2-x,1/2+y,-z
1/2+y,1/2+x,-z
1/2-y,1/2-x,-z
-x,-y,-z
y,-x,-z
x,y,-z
-y,x,-z
1/2-x,1/2+y,z
1/2+x,1/2-y,z
1/2-y,1/2-x,z
1/2+y,1/2+x,z
loop_
_atom_site_type_symbol
_atom_site_label
_atom_site_fract_x
_atom_site_fract_y
_atom_site_fract_z
Si Si1 0.650832 0.246372 0.826261
Si Si2 0.551004 0.051004 0.182964
Si Si3 0.379274 0.385992 0.821213
Si Si4 0.185972 0.463048 0.679737
Si Si5 0.506324 0.682215 0.317675
O O1 0.715941 0.215941 0.812801
O O2 0.653672 0.318026 0.804817
O O3 0.604456 0.212562 0.714229
O O4 0.627481 0.235246 0.000000
O O5 0.619318 0.033199 0.242164
O O6 0.500000 0.000000 0.227476
O O7 0.553338 0.053338 0.000000
O O8 0.433133 0.352925 0.732560
O O9 0.356254 0.450822 0.756102
O O10 0.395025 0.392122 0.000000
O O11 0.177071 0.472434 0.500000
O O12 0.245663 0.503242 0.730473
O O13 0.499223 0.681696 0.500000
#
# Coordination Sequence:
#
# PCOD9564033 Si02
#       5
#    16   8  16  16  16
#     4   9  17  31  53  79 105 134 171 220 271 318
#     4  11  23  37  55  81 111 145 185 225 271 324
#     4  10  20  34  54  80 108 142 185 226 270 325
#     4  10  20  34  55  80 106 138 176 220 268 318
#     4  10  21  37  55  78 110 144 180 224 277 326
#
# _framework density 17.156400000000001
#
# number of rings (size 3 to 8) (size 9 to 14) (size 15 to 20)
#    0.000    2.111    1.111    2.333    0.000    4.889 
#    0.000    3.333    0.000    4.000    0.000    0.000 
#    0.000    0.000    0.000    0.000    0.000    0.000 
#
# Total GULP energy -401043.932434 kJ/mol
# GULP energy per Si atom -5570.054617 kJ/mol
# Density = 1.711735 g / cm^3
# Si number density = 17.156400 Si / 1000 Ang^3
#
#
#
# Elastic Constant Matrix: (Units=GPa)
#
#
# Indices 1 2 3 4 5 6 
#
# 1 78.2834 69.2723 27.6120 0.0000 0.0000 0.0000
# 2 69.2723 78.2834 27.6120 0.0000 0.0000 0.0000
# 3 27.6120 27.6120 44.1725 0.0000 0.0000 0.0000
# 4 0.0000 0.0000 0.0000 21.0529 0.0000 0.0000
# 5 0.0000 0.0000 0.0000 0.0000 21.0529 0.0000
# 6 0.0000 0.0000 0.0000 0.0000 0.0000 27.2407
#
#
#
# Elastic Compliance Matrix: (Units=1/GPa)
#
#
# Indices 1 2 3 4 5 6 
#
# 1 0.059911 -0.051064 -0.005530 0.000000 0.000000 0.000000
# 2 -0.051064 0.059911 -0.005530 0.000000 0.000000 0.000000
# 3 -0.005530 -0.005530 0.029552 0.000000 0.000000 0.000000
# 4 0.000000 0.000000 0.000000 0.047499 0.000000 0.000000
# 5 0.000000 0.000000 0.000000 0.000000 0.047499 0.000000
# 6 0.000000 0.000000 0.000000 0.000000 0.000000 0.036710
#
#
# Mechanical properties :
#
#
# Convention : Reuss Voigt Hill
#
# Bulk Modulus (GPa) = 39.80035 49.97020 44.88527
# Shear Modulus (GPa) = 12.08590 18.95215 15.51903
#
# Velocity S-wave (km/s) = 2.65704 3.32726 3.01086
# Velocity P-wave (km/s) = 5.71507 6.62951 6.18920
#
# Compressibility (1/GPa) = 0.02512541
#
# Stress axis : x y z
#
# Youngs Moduli (GPa) = 16.69152 16.69152 33.83852
#
# Poissons Ratio (x) = 0.85233 0.18713
# Poissons Ratio (y) = 0.85233 0.18713
# Poissons Ratio (z) = 0.09231 0.09231
#
# Static dielectric constant tensor:
#      x y z
#    x 1.576470 0.000000 0.000000 
#    y 0.000000 1.576470 0.000000 
#    z 0.000000 0.000000 1.605410 
# 
# From -- ./inp_files/1599.got.cif
#   From: 2010.05.17/outbox.cif.g08.bks.cpg/sg127_1_cif.got.tgz:1599.got - 2010.05.20 12:03:00.
