data_PCOD9564433
_publ_section_title
;
Structure prediction by ZEFSAII (Michael W. Deem and Ramdas Pophale) SiO2 
 PCOD9564433
Probable space group: P 4/M B M
;
_chemical_formula_sum "Si O2"
_cell_formula_units_Z 72
_cell_length_a 12.264569
_cell_length_b 12.264569
_cell_length_c 24.770590
_cell_angle_alpha 90.000000
_cell_angle_beta 90.000000
_cell_angle_gamma 90.000000
_cell_volume 3725.983546
_symmetry_space_group_name_H-M "P 4/M B M"
_symmetry_group_IT_number 127
_symmetry_cell_setting 'tetragonal'
loop_
_space_group_symop_operation_xyz
x,y,z
-y,x,z
-x,-y,z
y,-x,z
1/2+x,1/2-y,-z
1/2-x,1/2+y,-z
1/2+y,1/2+x,-z
1/2-y,1/2-x,-z
-x,-y,-z
y,-x,-z
x,y,-z
-y,x,-z
1/2-x,1/2+y,z
1/2+x,1/2-y,z
1/2-y,1/2-x,z
1/2+y,1/2+x,z
loop_
_atom_site_type_symbol
_atom_site_label
_atom_site_fract_x
_atom_site_fract_y
_atom_site_fract_z
Si Si1 0.680762 0.462290 0.878865
Si Si2 0.040743 0.179298 0.440468
Si Si3 0.590933 0.909068 0.935227
Si Si4 0.829339 0.498843 0.657268
Si Si5 0.677522 0.460044 0.753730
O O1 0.624781 0.581641 0.887580
O O2 0.788657 0.440956 0.913503
O O3 0.714496 0.452911 0.815743
O O4 0.052681 0.230788 0.500000
O O5 0.050000 0.255944 0.389313
O O6 0.920836 0.124875 0.437481
O O7 0.500000 0.000000 0.918919
O O8 0.593551 0.906450 0.000000
O O9 0.908182 0.591819 0.680152
O O10 0.762928 0.447887 0.706376
O O11 0.905732 0.405732 0.632095
O O12 0.625020 0.579627 0.746952
#
# Coordination Sequence:
#
# PCOD9564433 Si02
#       5
#    16  16   8  16  16
#     4   9  21  43  68  94 125 167 215 262 316 375
#     4   9  19  37  59  79 100 134 184 238 287 338
#     4  11  26  42  62  97 135 169 210 261 315 366
#     4  11  24  36  48  78 118 150 184 225 282 343
#     4   9  19  38  62  86 112 144 190 241 289 344
#
# _framework density 19.323757000000001
#
# number of rings (size 3 to 8) (size 9 to 14) (size 15 to 20)
#    0.000    2.333    0.000    3.333    3.111    8.000 
#    4.000    4.444    0.000    0.000    0.000    0.000 
#    0.000    0.000    0.000    0.000    0.000    0.000 
#
# Total GULP energy -401700.996323 kJ/mol
# GULP energy per Si atom -5579.180504 kJ/mol
# Density = 1.927978 g / cm^3
# Si number density = 19.323757 Si / 1000 Ang^3
#
#
#
# Elastic Constant Matrix: (Units=GPa)
#
#
# Indices 1 2 3 4 5 6 
#
# 1 68.9933 19.1778 40.8586 0.0000 0.0000 0.0000
# 2 19.1778 68.9931 40.8585 0.0000 0.0000 0.0000
# 3 40.8586 40.8585 76.4513 0.0000 0.0000 0.0000
# 4 0.0000 0.0000 0.0000 107.7666 0.0000 0.0000
# 5 0.0000 0.0000 0.0000 0.0000 107.7673 0.0000
# 6 0.0000 0.0000 0.0000 0.0000 0.0000 -20.6310
#
#
#
# Elastic Compliance Matrix: (Units=1/GPa)
#
#
# Indices 1 2 3 4 5 6 
#
# 1 0.021273 0.001199 -0.012010 0.000000 0.000000 0.000000
# 2 0.001199 0.021274 -0.012010 0.000000 0.000000 0.000000
# 3 -0.012010 -0.012010 0.025918 0.000000 0.000000 0.000000
# 4 0.000000 0.000000 0.000000 0.009279 0.000000 0.000000
# 5 0.000000 0.000000 0.000000 0.000000 0.009279 0.000000
# 6 0.000000 0.000000 0.000000 0.000000 0.000000 -0.048471
#
#
# Mechanical properties :
#
#
# Convention : Reuss Voigt Hill
#
# Bulk Modulus (GPa) = 43.81724 46.24751 45.03238
# Shear Modulus (GPa) = 54.46453 46.55008 50.50731
#
# Velocity S-wave (km/s) = 5.31474 4.91344 5.11802
# Velocity P-wave (km/s) = 7.77087 7.49494 7.63415
#
# Compressibility (1/GPa) = 0.02282206
#
# Stress axis : x y z
#
# Youngs Moduli (GPa) = 47.00687 47.00681 38.58341
#
# Poissons Ratio (x) = -0.05638 0.46340
# Poissons Ratio (y) = -0.05638 0.46340
# Poissons Ratio (z) = 0.56457 0.56457
#
# Static dielectric constant tensor:
#      x y z
#    x 1.667180 0.000000 0.000000 
#    y 0.000000 1.667180 0.000000 
#    z 0.000000 0.000000 1.654550 
# 
# From -- ./inp_files/6297.got.cif
#   From: 2010.05.17/outbox.cif.g08.bks.cpg/sg127_4_cif.got.tgz:6297.got - 2010.05.20 12:03:00.
