data_PCOD9564241
_publ_section_title
;
Structure prediction by ZEFSAII (Michael W. Deem and Ramdas Pophale) SiO2 
 PCOD9564241
Probable space group: P 4/M B M
;
_chemical_formula_sum "Si O2"
_cell_formula_units_Z 96
_cell_length_a 14.781705
_cell_length_b 14.781705
_cell_length_c 23.572596
_cell_angle_alpha 90.000000
_cell_angle_beta 90.000000
_cell_angle_gamma 90.000000
_cell_volume 5150.584003
_symmetry_space_group_name_H-M "P 4/M B M"
_symmetry_group_IT_number 127
_symmetry_cell_setting 'tetragonal'
loop_
_space_group_symop_operation_xyz
x,y,z
-y,x,z
-x,-y,z
y,-x,z
1/2+x,1/2-y,-z
1/2-x,1/2+y,-z
1/2+y,1/2+x,-z
1/2-y,1/2-x,-z
-x,-y,-z
y,-x,-z
x,y,-z
-y,x,-z
1/2-x,1/2+y,z
1/2+x,1/2-y,z
1/2-y,1/2-x,z
1/2+y,1/2+x,z
loop_
_atom_site_type_symbol
_atom_site_label
_atom_site_fract_x
_atom_site_fract_y
_atom_site_fract_z
Si Si1 0.075256 0.575256 0.736538
Si Si2 0.242877 0.017956 0.679683
Si Si3 0.794889 0.551052 0.065899
Si Si4 0.136397 0.931251 0.147357
Si Si5 0.422012 0.077989 0.133911
Si Si6 0.969983 0.150106 0.564032
Si Si7 0.687777 0.659349 0.737434
O O1 0.035872 0.657149 0.700925
O O2 0.102039 0.602039 0.801120
O O3 0.000000 0.500000 0.743490
O O4 0.220345 0.040976 0.614799
O O5 0.184345 0.086158 0.718845
O O6 0.220620 0.914331 0.692230
O O7 0.868052 0.631949 0.069589
O O8 0.701436 0.583037 0.093783
O O9 0.837867 0.467449 0.101301
O O10 0.784603 0.526518 0.000000
O O11 0.187558 0.891916 0.202360
O O12 0.038644 0.883538 0.147921
O O13 0.500000 0.000000 0.133999
O O14 0.962552 0.186744 0.500000
O O15 0.068067 0.101781 0.569640
O O16 0.753179 0.746822 0.738018
#
# Coordination Sequence:
#
# PCOD9564241 Si02
#       7
#     8  16  16  16   8  16  16
#     4  11  24  41  61  93 135 177 210 255 327 398
#     4  12  22  38  64  93 130 165 212 269 325 388
#     4  10  21  40  65  91 120 158 209 262 311 374
#     4  11  24  41  61  86 123 164 202 255 317 379
#     4   9  19  38  65  91 120 159 204 256 307 363
#     4   9  18  34  60  93 126 163 211 270 323 372
#     4  12  24  39  62  93 128 168 211 266 326 386
#
# _framework density 18.638663000000001
#
# number of rings (size 3 to 8) (size 9 to 14) (size 15 to 20)
#    0.000    1.333    4.167    2.750    0.000    3.333 
#    1.500    1.250    0.000    3.500    0.000    0.000 
#    0.000    0.000    0.000    0.000    0.000    0.000 
#
# Total GULP energy -535898.646614 kJ/mol
# GULP energy per Si atom -5582.277569 kJ/mol
# Density = 1.859624 g / cm^3
# Si number density = 18.638663 Si / 1000 Ang^3
#
#
#
# Elastic Constant Matrix: (Units=GPa)
#
#
# Indices 1 2 3 4 5 6 
#
# 1 62.6131 -6.9477 39.8096 0.0000 0.0000 0.0000
# 2 -6.9477 62.6131 39.8096 0.0000 0.0000 0.0000
# 3 39.8096 39.8096 159.6438 0.0000 0.0000 0.0000
# 4 0.0000 0.0000 0.0000 40.1851 0.0000 0.0000
# 5 0.0000 0.0000 0.0000 0.0000 40.1851 0.0000
# 6 0.0000 0.0000 0.0000 0.0000 0.0000 17.1071
#
#
#
# Elastic Compliance Matrix: (Units=1/GPa)
#
#
# Indices 1 2 3 4 5 6 
#
# 1 0.021150 0.006774 -0.006963 0.000000 0.000000 0.000000
# 2 0.006774 0.021150 -0.006963 0.000000 0.000000 0.000000
# 3 -0.006963 -0.006963 0.009737 0.000000 0.000000 0.000000
# 4 0.000000 0.000000 0.000000 0.024885 0.000000 0.000000
# 5 0.000000 0.000000 0.000000 0.000000 0.024885 0.000000
# 6 0.000000 0.000000 0.000000 0.000000 0.000000 0.058455
#
#
# Mechanical properties :
#
#
# Convention : Reuss Voigt Hill
#
# Bulk Modulus (GPa) = 26.50271 47.80146 37.15208
# Shear Modulus (GPa) = 26.71733 33.64203 30.17968
#
# Velocity S-wave (km/s) = 3.79018 4.25309 4.02829
# Velocity P-wave (km/s) = 5.77962 7.05836 6.45076
#
# Compressibility (1/GPa) = 0.03773199
#
# Stress axis : x y z
#
# Youngs Moduli (GPa) = 47.28108 47.28108 102.70331
#
# Poissons Ratio (x) = -0.32029 0.71516
# Poissons Ratio (y) = -0.32029 0.71516
# Poissons Ratio (z) = 0.32924 0.32924
#
# Static dielectric constant tensor:
#      x y z
#    x 1.638090 0.000000 0.000000 
#    y 0.000000 1.638090 0.000000 
#    z 0.000000 0.000000 1.633190 
# 
# From -- ./inp_files/5818.got.cif
#   From: 2010.05.17/outbox.cif.g08.bks.cpg/sg127_3_cif.got.tgz:5818.got - 2010.05.20 12:03:00.
