data_PCOD9564290
_publ_section_title
;
Structure prediction by ZEFSAII (Michael W. Deem and Ramdas Pophale) SiO2 
 PCOD9564290
Probable space group: P 4/M B M
;
_chemical_formula_sum "Si O2"
_cell_formula_units_Z 72
_cell_length_a 14.232251
_cell_length_b 14.232251
_cell_length_c 19.327356
_cell_angle_alpha 90.000000
_cell_angle_beta 90.000000
_cell_angle_gamma 90.000000
_cell_volume 3914.890641
_symmetry_space_group_name_H-M "P 4/M B M"
_symmetry_group_IT_number 127
_symmetry_cell_setting 'tetragonal'
loop_
_space_group_symop_operation_xyz
x,y,z
-y,x,z
-x,-y,z
y,-x,z
1/2+x,1/2-y,-z
1/2-x,1/2+y,-z
1/2+y,1/2+x,-z
1/2-y,1/2-x,-z
-x,-y,-z
y,-x,-z
x,y,-z
-y,x,-z
1/2-x,1/2+y,z
1/2+x,1/2-y,z
1/2-y,1/2-x,z
1/2+y,1/2+x,z
loop_
_atom_site_type_symbol
_atom_site_label
_atom_site_fract_x
_atom_site_fract_y
_atom_site_fract_z
Si Si1 0.395528 0.740090 0.151700
Si Si2 0.569348 0.358453 0.705940
Si Si3 0.923672 0.423672 0.583964
Si Si4 0.402563 0.253749 0.082150
Si Si5 0.726903 0.065739 0.419631
O O1 0.333337 0.833337 0.144080
O O2 0.400957 0.708663 0.231409
O O3 0.498882 0.752368 0.120962
O O4 0.341362 0.657543 0.110617
O O5 0.620683 0.458276 0.711821
O O6 0.588431 0.309524 0.632685
O O7 0.925630 0.425630 0.500000
O O8 0.823281 0.467216 0.602732
O O9 0.000000 0.500000 0.608687
O O10 0.337958 0.162043 0.094460
O O11 0.417058 0.263232 0.000000
O O12 0.755988 0.058491 0.500000
O O13 0.646217 0.146217 0.416583
#
# Coordination Sequence:
#
# PCOD9564290 Si02
#       5
#    16  16   8  16  16
#     4  11  22  41  64  88 125 166 203 249 303 361
#     4  11  23  40  59  80 116 159 197 245 298 351
#     4   7  12  28  54  80 108 140 177 230 286 339
#     4  10  22  40  65  97 126 157 202 251 300 360
#     4   9  18  36  60  86 115 148 192 242 293 353
#
# _framework density 18.391317999999998
#
# number of rings (size 3 to 8) (size 9 to 14) (size 15 to 20)
#    0.000    2.111    2.222    2.667    0.000    3.111 
#    6.000    3.333    0.000    0.000    0.000    0.000 
#    0.000    0.000    0.000    0.000    0.000    0.000 
#
# Total GULP energy -401764.291520 kJ/mol
# GULP energy per Si atom -5580.059604 kJ/mol
# Density = 1.834946 g / cm^3
# Si number density = 18.391318 Si / 1000 Ang^3
#
#
#
# Elastic Constant Matrix: (Units=GPa)
#
#
# Indices 1 2 3 4 5 6 
#
# 1 70.5552 28.8612 32.8258 0.0000 0.0000 0.0000
# 2 28.8612 70.5552 32.8258 0.0000 0.0000 0.0000
# 3 32.8258 32.8258 85.0175 0.0000 0.0000 0.0000
# 4 0.0000 0.0000 0.0000 32.3600 0.0000 0.0000
# 5 0.0000 0.0000 0.0000 0.0000 32.3600 0.0000
# 6 0.0000 0.0000 0.0000 0.0000 0.0000 4.1988
#
#
#
# Elastic Compliance Matrix: (Units=1/GPa)
#
#
# Indices 1 2 3 4 5 6 
#
# 1 0.018743 -0.005242 -0.005213 0.000000 0.000000 0.000000
# 2 -0.005242 0.018743 -0.005213 0.000000 0.000000 0.000000
# 3 -0.005213 -0.005213 0.015788 0.000000 0.000000 0.000000
# 4 0.000000 0.000000 0.000000 0.030902 0.000000 0.000000
# 5 0.000000 0.000000 0.000000 0.000000 0.030902 0.000000
# 6 0.000000 0.000000 0.000000 0.000000 0.000000 0.238163
#
#
# Mechanical properties :
#
#
# Convention : Reuss Voigt Hill
#
# Bulk Modulus (GPa) = 45.58196 46.12815 45.85505
# Shear Modulus (GPa) = 12.75874 22.55811 17.65843
#
# Velocity S-wave (km/s) = 2.63675 3.50603 3.10199
# Velocity P-wave (km/s) = 5.84022 6.44404 6.14955
#
# Compressibility (1/GPa) = 0.02193851
#
# Stress axis : x y z
#
# Youngs Moduli (GPa) = 53.35416 53.35416 63.34040
#
# Poissons Ratio (x) = 0.27966 0.33018
# Poissons Ratio (y) = 0.27966 0.33018
# Poissons Ratio (z) = 0.27813 0.27813
#
# Static dielectric constant tensor:
#      x y z
#    x 1.639160 0.000000 0.000000 
#    y 0.000000 1.639160 0.000000 
#    z 0.000000 0.000000 1.605820 
# 
# From -- ./inp_files/4948.got.cif
#   From: 2010.05.17/outbox.cif.g08.bks.cpg/sg127_3_cif.got.tgz:4948.got - 2010.05.20 12:03:00.
