data_PCOD9564734
_publ_section_title
;
Structure prediction by ZEFSAII (Michael W. Deem and Ramdas Pophale) SiO2 
 PCOD9564734
Probable space group: P 4/M N C
;
_chemical_formula_sum "Si O2"
_cell_formula_units_Z 72
_cell_length_a 20.881015
_cell_length_b 20.881015
_cell_length_c 8.070776
_cell_angle_alpha 90.000000
_cell_angle_beta 90.000000
_cell_angle_gamma 90.000000
_cell_volume 3518.993824
_symmetry_space_group_name_H-M "P 4/M N C"
_symmetry_group_IT_number 128
_symmetry_cell_setting 'tetragonal'
loop_
_space_group_symop_operation_xyz
x,y,z
-y,x,z
-x,-y,z
y,-x,z
1/2+x,1/2-y,1/2-z
1/2-x,1/2+y,1/2-z
1/2+y,1/2+x,1/2-z
1/2-y,1/2-x,1/2-z
-x,-y,-z
y,-x,-z
x,y,-z
-y,x,-z
1/2-x,1/2+y,1/2+z
1/2+x,1/2-y,1/2+z
1/2-y,1/2-x,1/2+z
1/2+y,1/2+x,1/2+z
loop_
_atom_site_type_symbol
_atom_site_label
_atom_site_fract_x
_atom_site_fract_y
_atom_site_fract_z
Si Si1 0.404561 0.337459 0.686803
Si Si2 0.168551 0.228786 0.698750
Si Si3 0.578451 0.428378 0.000000
Si Si4 0.247243 0.480087 0.201748
Si Si5 0.397647 0.001293 0.302946
O O1 0.408443 0.362821 0.500000
O O2 0.335347 0.304636 0.714032
O O3 0.465853 0.293023 0.722304
O O4 0.403803 0.390068 0.831984
O O5 0.209792 0.290209 0.750000
O O6 0.171940 0.221664 0.500000
O O7 0.093560 0.237120 0.745513
O O8 0.587215 0.504329 0.000000
O O9 0.174690 0.494675 0.257422
O O10 0.251361 0.485012 0.000000
O O11 0.434765 0.065236 0.250000
O O12 0.395224 0.000666 0.500000
O O13 0.441724 0.941724 0.250000
#
# Coordination Sequence:
#
# PCOD9564734 Si02
#       5
#    16  16   8  16  16
#     4  12  25  42  67  97 132 175 220 273 335 403
#     4  11  23  42  67  96 134 174 222 282 340 401
#     4  11  24  44  68  94 130 169 212 274 334 390
#     4  10  22  41  64  90 127 175 220 274 337 398
#     4  10  20  35  57  86 123 164 212 266 326 391
#
# _framework density 20.460394999999998
#
# number of rings (size 3 to 8) (size 9 to 14) (size 15 to 20)
#    0.000    1.222    2.222    4.000    0.000    7.111 
#    0.000    3.333    0.000    0.000    0.000    0.000 
#    0.000    0.000    0.000    0.000    0.000    0.000 
#
# Total GULP energy -402486.882388 kJ/mol
# GULP energy per Si atom -5590.095589 kJ/mol
# Density = 2.041383 g / cm^3
# Si number density = 20.460395 Si / 1000 Ang^3
#
#
#
# Elastic Constant Matrix: (Units=GPa)
#
#
# Indices 1 2 3 4 5 6 
#
# 1 142.8725 23.6041 31.6834 0.0000 0.0000 0.0000
# 2 23.6041 142.8696 31.6834 0.0000 0.0000 0.0000
# 3 31.6834 31.6834 102.6065 0.0000 0.0000 0.0000
# 4 0.0000 0.0000 0.0000 -81.0171 0.0000 0.0000
# 5 0.0000 0.0000 0.0000 0.0000 -81.0051 0.0000
# 6 0.0000 0.0000 0.0000 0.0000 0.0000 7.0847
#
#
#
# Elastic Compliance Matrix: (Units=1/GPa)
#
#
# Indices 1 2 3 4 5 6 
#
# 1 0.007596 -0.000789 -0.002102 0.000000 0.000000 0.000000
# 2 -0.000789 0.007596 -0.002102 0.000000 0.000000 0.000000
# 3 -0.002102 -0.002102 0.011044 0.000000 0.000000 0.000000
# 4 0.000000 0.000000 0.000000 -0.012343 0.000000 0.000000
# 5 0.000000 0.000000 0.000000 0.000000 -0.012345 0.000000
# 6 0.000000 0.000000 0.000000 0.000000 0.000000 0.141150
#
#
# Mechanical properties :
#
#
# Convention : Reuss Voigt Hill
#
# Bulk Modulus (GPa) = 61.53696 62.47672 62.00684
# Shear Modulus (GPa) = 31.62567 -10.89566 10.36500
#
# Velocity S-wave (km/s) = 3.93581 -2.31015 2.25319
# Velocity P-wave (km/s) = 7.12710 4.84623 6.09432
#
# Compressibility (1/GPa) = 0.01625040
#
# Stress axis : x y z
#
# Youngs Moduli (GPa) = 131.65382 131.65097 90.54660
#
# Poissons Ratio (x) = 0.10385 0.19032
# Poissons Ratio (y) = 0.10385 0.19032
# Poissons Ratio (z) = 0.27672 0.27672
#
# Static dielectric constant tensor:
#      x y z
#    x 1.748070 0.000000 0.000000 
#    y 0.000000 1.748070 0.000000 
#    z 0.000000 0.000000 1.726770 
# 
# From -- ./inp_files/1168.got.cif
#   From: 2010.05.17/outbox.cif.g08.bks.cpg/sg128_1_cif.got.tgz:1168.got - 2010.05.20 12:07:25.
