data_PCOD9564466
_publ_section_title
;
Structure prediction by ZEFSAII (Michael W. Deem and Ramdas Pophale) SiO2 
 PCOD9564466
Probable space group: P 4/M B M
;
_chemical_formula_sum "Si O2"
_cell_formula_units_Z 56
_cell_length_a 17.760988
_cell_length_b 17.760988
_cell_length_c 7.421070
_cell_angle_alpha 90.000000
_cell_angle_beta 90.000000
_cell_angle_gamma 90.000000
_cell_volume 2340.996529
_symmetry_space_group_name_H-M "P 4/M B M"
_symmetry_group_IT_number 127
_symmetry_cell_setting 'tetragonal'
loop_
_space_group_symop_operation_xyz
x,y,z
-y,x,z
-x,-y,z
y,-x,z
1/2+x,1/2-y,-z
1/2-x,1/2+y,-z
1/2+y,1/2+x,-z
1/2-y,1/2-x,-z
-x,-y,-z
y,-x,-z
x,y,-z
-y,x,-z
1/2-x,1/2+y,z
1/2+x,1/2-y,z
1/2-y,1/2-x,z
1/2+y,1/2+x,z
loop_
_atom_site_type_symbol
_atom_site_label
_atom_site_fract_x
_atom_site_fract_y
_atom_site_fract_z
Si Si1 0.550443 0.820651 0.210670
Si Si2 0.675913 0.706547 0.708417
Si Si3 0.432520 0.599711 0.279796
Si Si4 0.062824 0.437177 0.220219
O O1 0.611268 0.888732 0.226130
O O2 0.595584 0.750609 0.291213
O O3 0.472278 0.857176 0.280184
O O4 0.540608 0.804015 0.000000
O O5 0.695857 0.696122 0.500000
O O6 0.738090 0.761911 0.791092
O O7 0.663236 0.624119 0.786923
O O8 0.399661 0.518665 0.223686
O O9 0.432721 0.601144 0.500000
O O10 0.000000 0.500000 0.269294
O O11 0.064605 0.435396 0.000000
#
# Coordination Sequence:
#
# PCOD9564466 Si02
#       4
#    16  16  16   8
#     4   8  13  22  37  56  78 109 145 171 196 240
#     4   9  16  25  40  64  89 106 128 173 224 256
#     4   8  14  26  45  64  81 108 146 179 204 243
#     4   7  10  18  33  51  71 101 145 181 191 217
#
# _framework density 23.921436
#
# number of rings (size 3 to 8) (size 9 to 14) (size 15 to 20)
#    0.000    3.857    0.000    2.571    0.000    0.000 
#    0.000    0.714    3.143    6.000    0.000    2.000 
#    0.000    0.000    0.000    0.000    0.000    0.000 
#
# Total GULP energy -311924.155671 kJ/mol
# GULP energy per Si atom -5570.074208 kJ/mol
# Density = 2.386699 g / cm^3
# Si number density = 23.921436 Si / 1000 Ang^3
#
#
#
# Elastic Constant Matrix: (Units=GPa)
#
#
# Indices 1 2 3 4 5 6 
#
# 1 41.2113 43.5976 -0.6595 0.0000 0.0000 0.0000
# 2 43.5976 41.2112 -0.6592 0.0000 0.0000 0.0000
# 3 -0.6595 -0.6592 69.5819 0.0000 0.0000 0.0000
# 4 0.0000 0.0000 0.0000 3.9876 0.0000 0.0000
# 5 0.0000 0.0000 0.0000 0.0000 3.9876 0.0000
# 6 0.0000 0.0000 0.0000 0.0000 0.0000 -5.1419
#
#
#
# Elastic Compliance Matrix: (Units=1/GPa)
#
#
# Indices 1 2 3 4 5 6 
#
# 1 -0.203625 0.215418 0.000111 0.000000 0.000000 0.000000
# 2 0.215418 -0.203625 0.000113 0.000000 0.000000 0.000000
# 3 0.000111 0.000113 0.014374 0.000000 0.000000 0.000000
# 4 0.000000 0.000000 0.000000 0.250777 0.000000 0.000000
# 5 0.000000 0.000000 0.000000 0.000000 0.250774 0.000000
# 6 0.000000 0.000000 0.000000 0.000000 0.000000 -0.194481
#
#
# Mechanical properties :
#
#
# Convention : Reuss Voigt Hill
#
# Bulk Modulus (GPa) = 26.03720 26.28469 26.16095
# Shear Modulus (GPa) = -9.91501 7.88170 -1.01665
#
# Velocity S-wave (km/s) = -2.03809 1.81714 -0.65263
# Velocity P-wave (km/s) = 2.31725 3.92612 3.22367
#
# Compressibility (1/GPa) = 0.03840658
#
# Stress axis : x y z
#
# Youngs Moduli (GPa) = -4.91099 -4.91099 69.57168
#
# Poissons Ratio (x) = 1.05791 -0.00770
# Poissons Ratio (y) = 1.05792 -0.00785
# Poissons Ratio (z) = 0.00054 0.00055
#
# Static dielectric constant tensor:
#      x y z
#    x 2.176800 0.000000 0.000000 
#    y 0.000000 2.176780 0.000000 
#    z 0.000000 0.000000 1.925390 
# 
# From -- ./inp_files/1074.got.cif
#   From: 2010.05.17/outbox.cif.g08.bks.cpg/sg127_1_cif.got.tgz:1074.got - 2010.05.20 12:03:00.
