data_PCOD9564214
_publ_section_title
;
Structure prediction by ZEFSAII (Michael W. Deem and Ramdas Pophale) SiO2 
 PCOD9564214
Probable space group: P 4/M B M
;
_chemical_formula_sum "Si O2"
_cell_formula_units_Z 112
_cell_length_a 14.318205
_cell_length_b 14.318205
_cell_length_c 28.353465
_cell_angle_alpha 90.000000
_cell_angle_beta 90.000000
_cell_angle_gamma 90.000000
_cell_volume 5812.772055
_symmetry_space_group_name_H-M "P 4/M B M"
_symmetry_group_IT_number 127
_symmetry_cell_setting 'tetragonal'
loop_
_space_group_symop_operation_xyz
x,y,z
-y,x,z
-x,-y,z
y,-x,z
1/2+x,1/2-y,-z
1/2-x,1/2+y,-z
1/2+y,1/2+x,-z
1/2-y,1/2-x,-z
-x,-y,-z
y,-x,-z
x,y,-z
-y,x,-z
1/2-x,1/2+y,z
1/2+x,1/2-y,z
1/2-y,1/2-x,z
1/2+y,1/2+x,z
loop_
_atom_site_type_symbol
_atom_site_label
_atom_site_fract_x
_atom_site_fract_y
_atom_site_fract_z
Si Si1 0.499416 0.154475 0.443599
Si Si2 0.493667 0.151306 0.904934
Si Si3 0.095452 0.877835 0.854452
Si Si4 0.133709 0.207157 0.946781
Si Si5 0.002426 0.156209 0.615052
Si Si6 0.287739 0.064808 0.198566
Si Si7 0.343811 0.495655 0.725883
O O1 0.498664 0.170418 0.500000
O O2 0.588941 0.088941 0.433019
O O3 0.502245 0.251355 0.416059
O O4 0.408155 0.091845 0.432106
O O5 0.394213 0.105788 0.919604
O O6 0.539406 0.234595 0.934617
O O7 0.484866 0.178443 0.849769
O O8 0.569276 0.069276 0.908884
O O9 0.128494 0.856095 0.907216
O O10 0.131119 0.796391 0.820785
O O11 0.984169 0.876056 0.846257
O O12 0.218696 0.281305 0.942719
O O13 0.130518 0.171423 0.000000
O O14 0.911281 0.091481 0.606387
O O15 0.004054 0.181066 0.670680
O O16 0.372422 0.127579 0.216476
O O17 0.243648 0.001750 0.239333
O O18 0.412789 0.408574 0.734304
#
# Coordination Sequence:
#
# PCOD9564214 Si02
#       7
#    16  16  16  16  16  16  16
#     4   9  19  36  57  83 119 164 210 255 304 356
#     4   9  19  37  58  78 103 132 164 210 263 315
#     4  11  22  37  55  74 101 138 172 203 254 319
#     4  10  21  38  58  79 103 129 164 213 263 314
#     4   9  19  36  57  83 118 157 198 250 305 357
#     4  11  21  35  56  82 106 133 175 221 266 319
#     4   9  19  37  57  78 109 147 183 223 275 333
#
# _framework density 19.267914999999999
#
# number of rings (size 3 to 8) (size 9 to 14) (size 15 to 20)
#    0.000    2.286    1.429    2.571    0.000    3.714 
#    0.000    7.143    0.000    1.714    0.000    0.000 
#    0.000    0.000    0.000    0.000    0.000    0.000 
#
# Total GULP energy -624751.300659 kJ/mol
# GULP energy per Si atom -5578.136613 kJ/mol
# Density = 1.922406 g / cm^3
# Si number density = 19.267915 Si / 1000 Ang^3
#
#
#
# Elastic Constant Matrix: (Units=GPa)
#
#
# Indices 1 2 3 4 5 6 
#
# 1 55.1657 -5.2510 23.5902 0.0000 0.0000 0.0000
# 2 -5.2510 55.1657 23.5902 0.0000 0.0000 0.0000
# 3 23.5902 23.5902 70.3202 0.0000 0.0000 0.0000
# 4 0.0000 0.0000 0.0000 30.7810 0.0000 0.0000
# 5 0.0000 0.0000 0.0000 0.0000 30.7810 0.0000
# 6 0.0000 0.0000 0.0000 0.0000 0.0000 13.2747
#
#
#
# Elastic Compliance Matrix: (Units=1/GPa)
#
#
# Indices 1 2 3 4 5 6 
#
# 1 0.022944 0.006392 -0.009841 0.000000 0.000000 0.000000
# 2 0.006392 0.022944 -0.009841 0.000000 0.000000 0.000000
# 3 -0.009841 -0.009841 0.020824 0.000000 0.000000 0.000000
# 4 0.000000 0.000000 0.000000 0.032488 0.000000 0.000000
# 5 0.000000 0.000000 0.000000 0.000000 0.032488 0.000000
# 6 0.000000 0.000000 0.000000 0.000000 0.000000 0.075331
#
#
# Mechanical properties :
#
#
# Convention : Reuss Voigt Hill
#
# Bulk Modulus (GPa) = 24.91850 29.39004 27.15427
# Shear Modulus (GPa) = 20.24484 24.21547 22.23015
#
# Velocity S-wave (km/s) = 3.24497 3.54895 3.40036
# Velocity P-wave (km/s) = 5.19620 5.66391 5.43509
#
# Compressibility (1/GPa) = 0.04013083
#
# Stress axis : x y z
#
# Youngs Moduli (GPa) = 43.58417 43.58417 48.02229
#
# Poissons Ratio (x) = -0.27861 0.47261
# Poissons Ratio (y) = -0.27861 0.47261
# Poissons Ratio (z) = 0.42893 0.42893
#
# Static dielectric constant tensor:
#      x y z
#    x 1.697290 0.000000 0.000000 
#    y 0.000000 1.697290 0.000000 
#    z 0.000000 0.000000 1.666980 
# 
# From -- ./inp_files/6194.got.cif
#   From: 2010.05.17/outbox.cif.g08.bks.cpg/sg127_4_cif.got.tgz:6194.got - 2010.05.20 12:03:00.
