data_PCOD9564181
_publ_section_title
;
Structure prediction by ZEFSAII (Michael W. Deem and Ramdas Pophale) SiO2 
 PCOD9564181
Probable space group: P 4/M B M
;
_chemical_formula_sum "Si O2"
_cell_formula_units_Z 96
_cell_length_a 22.353122
_cell_length_b 22.353122
_cell_length_c 11.537181
_cell_angle_alpha 90.000000
_cell_angle_beta 90.000000
_cell_angle_gamma 90.000000
_cell_volume 5764.691661
_symmetry_space_group_name_H-M "P 4/M B M"
_symmetry_group_IT_number 127
_symmetry_cell_setting 'tetragonal'
loop_
_space_group_symop_operation_xyz
x,y,z
-y,x,z
-x,-y,z
y,-x,z
1/2+x,1/2-y,-z
1/2-x,1/2+y,-z
1/2+y,1/2+x,-z
1/2-y,1/2-x,-z
-x,-y,-z
y,-x,-z
x,y,-z
-y,x,-z
1/2-x,1/2+y,z
1/2+x,1/2-y,z
1/2-y,1/2-x,z
1/2+y,1/2+x,z
loop_
_atom_site_type_symbol
_atom_site_label
_atom_site_fract_x
_atom_site_fract_y
_atom_site_fract_z
Si Si1 0.197324 0.479472 0.291835
Si Si2 0.009730 0.834234 0.248781
Si Si3 0.396940 0.000143 0.500000
Si Si4 0.499773 0.397171 0.000000
Si Si5 0.851728 0.742230 0.639296
Si Si6 0.611926 0.373753 0.361932
Si Si7 0.405526 0.001208 0.137902
O O1 0.263531 0.507195 0.280198
O O2 0.149749 0.498907 0.391711
O O3 0.209180 0.409076 0.308243
O O4 0.161422 0.494187 0.176663
O O5 0.071685 0.860106 0.293955
O O6 0.956044 0.863757 0.322195
O O7 0.000891 0.855536 0.115337
O O8 0.441210 0.941210 0.500000
O O9 0.442564 0.057437 0.500000
O O10 0.557809 0.441845 0.000000
O O11 0.858646 0.738059 0.500000
O O12 0.791699 0.708302 0.673248
O O13 0.854560 0.811848 0.668420
O O14 0.615193 0.382966 0.500000
O O15 0.446084 0.946084 0.182600
O O16 0.438854 0.061147 0.179693
O O17 0.409146 0.000565 0.000000
#
# Coordination Sequence:
#
# PCOD9564181 Si02
#       7
#    16  16   8   8  16  16  16
#     4  11  21  32  55  82 115 145 185 232 283 342
#     4  11  23  38  58  86 112 150 187 241 290 346
#     4  11  22  36  58  90 126 159 192 242 302 351
#     4  11  22  42  64  84 110 145 202 248 308 363
#     4   9  17  32  53  78 108 147 185 218 267 338
#     4  10  21  36  57  85 118 147 181 229 293 354
#     4   9  18  33  51  72 101 139 184 229 271 317
#
# _framework density 16.653102000000001
#
# number of rings (size 3 to 8) (size 9 to 14) (size 15 to 20)
#    0.000    1.833    2.500    3.000    3.500    1.667 
#    0.000    2.500    0.000    0.000    0.000    0.000 
#    0.000    0.000    0.000    0.000    0.000    0.000 
#
# Total GULP energy -534921.078418 kJ/mol
# GULP energy per Si atom -5572.094567 kJ/mol
# Density = 1.661520 g / cm^3
# Si number density = 16.653102 Si / 1000 Ang^3
#
#
#
# Elastic Constant Matrix: (Units=GPa)
#
#
# Indices 1 2 3 4 5 6 
#
# 1 81.9665 75.1732 21.3091 0.0000 0.0000 0.0000
# 2 75.1732 81.9663 21.3091 0.0000 0.0000 0.0000
# 3 21.3091 21.3091 55.6100 0.0000 0.0000 0.0000
# 4 0.0000 0.0000 0.0000 23.1999 0.0000 0.0000
# 5 0.0000 0.0000 0.0000 0.0000 23.1997 0.0000
# 6 0.0000 0.0000 0.0000 0.0000 0.0000 20.6647
#
#
#
# Elastic Compliance Matrix: (Units=1/GPa)
#
#
# Indices 1 2 3 4 5 6 
#
# 1 0.077154 -0.070052 -0.002721 0.000000 0.000000 0.000000
# 2 -0.070052 0.077154 -0.002721 0.000000 0.000000 0.000000
# 3 -0.002721 -0.002721 0.020068 0.000000 0.000000 0.000000
# 4 0.000000 0.000000 0.000000 0.043104 0.000000 0.000000
# 5 0.000000 0.000000 0.000000 0.000000 0.043104 0.000000
# 6 0.000000 0.000000 0.000000 0.000000 0.000000 0.048392
#
#
# Mechanical properties :
#
#
# Convention : Reuss Voigt Hill
#
# Bulk Modulus (GPa) = 42.76016 50.56950 46.66483
# Shear Modulus (GPa) = 10.68925 20.19630 15.44278
#
# Velocity S-wave (km/s) = 2.53628 3.48626 3.04850
# Velocity P-wave (km/s) = 5.85745 6.82918 6.36189
#
# Compressibility (1/GPa) = 0.02338625
#
# Stress axis : x y z
#
# Youngs Moduli (GPa) = 12.96113 12.96111 49.83072
#
# Poissons Ratio (x) = 0.90795 0.13561
# Poissons Ratio (y) = 0.90795 0.13560
# Poissons Ratio (z) = 0.03527 0.03527
#
# Static dielectric constant tensor:
#      x y z
#    x 1.565210 0.000000 0.000000 
#    y 0.000000 1.565210 0.000000 
#    z 0.000000 0.000000 1.592550 
# 
# From -- ./inp_files/3620.got.cif
#   From: 2010.05.17/outbox.cif.g08.bks.cpg/sg127_2_cif.got.tgz:3620.got - 2010.05.20 12:03:00.
