data_PCOD9564391
_publ_section_title
;
Structure prediction by ZEFSAII (Michael W. Deem and Ramdas Pophale) SiO2 
 PCOD9564391
Probable space group: P 4/M B M
;
_chemical_formula_sum "Si O2"
_cell_formula_units_Z 96
_cell_length_a 14.224787
_cell_length_b 14.224787
_cell_length_c 24.393923
_cell_angle_alpha 90.000000
_cell_angle_beta 90.000000
_cell_angle_gamma 90.000000
_cell_volume 4935.977743
_symmetry_space_group_name_H-M "P 4/M B M"
_symmetry_group_IT_number 127
_symmetry_cell_setting 'tetragonal'
loop_
_space_group_symop_operation_xyz
x,y,z
-y,x,z
-x,-y,z
y,-x,z
1/2+x,1/2-y,-z
1/2-x,1/2+y,-z
1/2+y,1/2+x,-z
1/2-y,1/2-x,-z
-x,-y,-z
y,-x,-z
x,y,-z
-y,x,-z
1/2-x,1/2+y,z
1/2+x,1/2-y,z
1/2-y,1/2-x,z
1/2+y,1/2+x,z
loop_
_atom_site_type_symbol
_atom_site_label
_atom_site_fract_x
_atom_site_fract_y
_atom_site_fract_z
Si Si1 0.857356 0.198586 0.563450
Si Si2 0.098480 0.754783 0.173049
Si Si3 0.150943 0.049451 0.062275
Si Si4 0.862606 0.075077 0.664514
Si Si5 0.396180 0.743369 0.771949
Si Si6 0.009046 0.347956 0.436385
O O1 0.873068 0.171396 0.500000
O O2 0.768628 0.268628 0.564718
O O3 0.840989 0.111905 0.603476
O O4 0.946395 0.260983 0.583891
O O5 0.162447 0.662447 0.178897
O O6 0.074385 0.777024 0.109913
O O7 0.160783 0.841455 0.195710
O O8 0.002084 0.749021 0.206757
O O9 0.057588 0.113917 0.068177
O O10 0.186273 0.061248 0.000000
O O11 0.786601 0.107754 0.708410
O O12 0.964952 0.121205 0.674323
O O13 0.338480 0.838480 0.781026
O O14 0.031719 0.325729 0.500000
O O15 0.102793 0.397208 0.411759
O O16 0.931370 0.431370 0.437170
#
# Coordination Sequence:
#
# PCOD9564391 Si02
#       6
#    16  16  16  16  16  16
#     4   9  18  34  56  81 112 149 187 236 305 381
#     4  11  22  37  65  97 126 172 219 263 324 380
#     4   9  17  31  56  92 133 177 225 275 318 361
#     4  11  23  39  60  84 109 146 199 256 311 375
#     4  11  23  41  65  93 124 160 210 269 321 385
#     4   7  10  20  42  71 101 135 175 216 265 339
#
# _framework density 19.449033
#
# number of rings (size 3 to 8) (size 9 to 14) (size 15 to 20)
#    0.000    2.333    3.333    2.500    0.000    1.667 
#    0.000    2.500    0.000    2.500    0.000    1.167 
#    0.000    0.000    0.000    3.333    0.000    0.000 
#
# Total GULP energy -535524.083648 kJ/mol
# GULP energy per Si atom -5578.375871 kJ/mol
# Density = 1.940477 g / cm^3
# Si number density = 19.449033 Si / 1000 Ang^3
#
#
#
# Elastic Constant Matrix: (Units=GPa)
#
#
# Indices 1 2 3 4 5 6 
#
# 1 101.8151 53.0471 43.1353 0.0000 0.0000 0.0000
# 2 53.0471 101.8151 43.1353 0.0000 0.0000 0.0000
# 3 43.1353 43.1353 93.0192 0.0000 0.0000 0.0000
# 4 0.0000 0.0000 0.0000 22.7649 0.0000 0.0000
# 5 0.0000 0.0000 0.0000 0.0000 22.7649 0.0000
# 6 0.0000 0.0000 0.0000 0.0000 0.0000 20.6493
#
#
#
# Elastic Compliance Matrix: (Units=1/GPa)
#
#
# Indices 1 2 3 4 5 6 
#
# 1 0.014606 -0.005899 -0.004037 0.000000 0.000000 0.000000
# 2 -0.005899 0.014606 -0.004037 0.000000 0.000000 0.000000
# 3 -0.004037 -0.004037 0.014495 0.000000 0.000000 0.000000
# 4 0.000000 0.000000 0.000000 0.043927 0.000000 0.000000
# 5 0.000000 0.000000 0.000000 0.000000 0.043927 0.000000
# 6 0.000000 0.000000 0.000000 0.000000 0.000000 0.048428
#
#
# Mechanical properties :
#
#
# Convention : Reuss Voigt Hill
#
# Bulk Modulus (GPa) = 63.45856 63.92051 63.68953
# Shear Modulus (GPa) = 23.45324 23.72461 23.58892
#
# Velocity S-wave (km/s) = 3.47635 3.49640 3.48639
# Velocity P-wave (km/s) = 6.98658 7.01689 7.00175
#
# Compressibility (1/GPa) = 0.01575832
#
# Stress axis : x y z
#
# Youngs Moduli (GPa) = 68.46550 68.46550 68.98938
#
# Poissons Ratio (x) = 0.40390 0.27854
# Poissons Ratio (y) = 0.40390 0.27854
# Poissons Ratio (z) = 0.27642 0.27642
#
# Static dielectric constant tensor:
#      x y z
#    x 1.701890 0.000000 0.000000 
#    y 0.000000 1.701890 0.000000 
#    z 0.000000 0.000000 1.691780 
# 
# From -- ./inp_files/5788.got.cif
#   From: 2010.05.17/outbox.cif.g08.bks.cpg/sg127_3_cif.got.tgz:5788.got - 2010.05.20 12:03:00.
