data_PCOD9564149
_publ_section_title
;
Structure prediction by ZEFSAII (Michael W. Deem and Ramdas Pophale) SiO2 
 PCOD9564149
Probable space group: P 4/M B M
;
_chemical_formula_sum "Si O2"
_cell_formula_units_Z 88
_cell_length_a 12.179403
_cell_length_b 12.179403
_cell_length_c 29.001798
_cell_angle_alpha 90.000000
_cell_angle_beta 90.000000
_cell_angle_gamma 90.000000
_cell_volume 4302.064577
_symmetry_space_group_name_H-M "P 4/M B M"
_symmetry_group_IT_number 127
_symmetry_cell_setting 'tetragonal'
loop_
_space_group_symop_operation_xyz
x,y,z
-y,x,z
-x,-y,z
y,-x,z
1/2+x,1/2-y,-z
1/2-x,1/2+y,-z
1/2+y,1/2+x,-z
1/2-y,1/2-x,-z
-x,-y,-z
y,-x,-z
x,y,-z
-y,x,-z
1/2-x,1/2+y,z
1/2+x,1/2-y,z
1/2-y,1/2-x,z
1/2+y,1/2+x,z
loop_
_atom_site_type_symbol
_atom_site_label
_atom_site_fract_x
_atom_site_fract_y
_atom_site_fract_z
Si Si1 0.235461 0.441190 0.811090
Si Si2 0.957156 0.820949 0.288764
Si Si3 0.460657 0.682654 0.393620
Si Si4 0.816264 0.504806 0.947008
Si Si5 0.408254 0.908254 0.555308
Si Si6 0.292677 0.619933 0.870255
O O1 0.134924 0.365077 0.823317
O O2 0.250335 0.438617 0.756468
O O3 0.221570 0.560237 0.831104
O O4 0.341354 0.396925 0.840132
O O5 0.948446 0.776271 0.340571
O O6 0.078064 0.872854 0.285512
O O7 0.373992 0.581287 0.399629
O O8 0.440285 0.787424 0.425652
O O9 0.908988 0.408988 0.945228
O O10 0.718696 0.463141 0.913718
O O11 0.884290 0.615711 0.934664
O O12 0.779934 0.515990 0.000000
O O13 0.404972 0.904972 0.500000
O O14 0.500000 0.000000 0.568834
O O15 0.229726 0.729726 0.885443
#
# Coordination Sequence:
#
# PCOD9564149 Si02
#       6
#    16  16  16  16   8  16
#     4  11  21  32  52  79 109 148 184 224 290 351
#     4   9  17  35  60  83 112 152 199 241 288 352
#     4   9  21  42  68  96 126 171 224 272 321 387
#     4   8  14  28  51  72  95 134 177 224 283 340
#     4  11  26  44  66 101 141 175 215 272 337 388
#     4  10  21  35  49  75 107 137 184 236 282 348
#
# _framework density 20.455293999999999
#
# number of rings (size 3 to 8) (size 9 to 14) (size 15 to 20)
#    0.000    2.455    1.818    2.182    2.545    2.182 
#    0.000    2.727    0.000    3.273    0.000    1.273 
#    0.000    0.000    0.000    0.000    0.000    0.000 
#
# Total GULP energy -489947.442176 kJ/mol
# GULP energy per Si atom -5567.584570 kJ/mol
# Density = 2.040874 g / cm^3
# Si number density = 20.455294 Si / 1000 Ang^3
#
#
#
# Elastic Constant Matrix: (Units=GPa)
#
#
# Indices 1 2 3 4 5 6 
#
# 1 65.7125 55.5596 53.5029 0.0000 0.0000 0.0000
# 2 55.5596 65.7125 53.5029 0.0000 0.0000 0.0000
# 3 53.5029 53.5029 127.9452 0.0000 0.0000 0.0000
# 4 0.0000 0.0000 0.0000 27.5552 0.0000 0.0000
# 5 0.0000 0.0000 0.0000 0.0000 27.5552 0.0000
# 6 0.0000 0.0000 0.0000 0.0000 0.0000 20.7000
#
#
#
# Elastic Compliance Matrix: (Units=1/GPa)
#
#
# Indices 1 2 3 4 5 6 
#
# 1 0.055781 -0.042713 -0.005464 0.000000 0.000000 0.000000
# 2 -0.042713 0.055781 -0.005464 0.000000 0.000000 0.000000
# 3 -0.005464 -0.005464 0.012386 0.000000 0.000000 0.000000
# 4 0.000000 0.000000 0.000000 0.036291 0.000000 0.000000
# 5 0.000000 0.000000 0.000000 0.000000 0.036291 0.000000
# 6 0.000000 0.000000 0.000000 0.000000 0.000000 0.048309
#
#
# Mechanical properties :
#
#
# Convention : Reuss Voigt Hill
#
# Bulk Modulus (GPa) = 60.01229 64.94453 62.47841
# Shear Modulus (GPa) = 13.97909 21.61575 17.79742
#
# Velocity S-wave (km/s) = 2.61702 3.25427 2.95289
# Velocity P-wave (km/s) = 6.20755 6.77781 6.49894
#
# Compressibility (1/GPa) = 0.01666325
#
# Stress axis : x y z
#
# Youngs Moduli (GPa) = 17.92732 17.92732 80.73637
#
# Poissons Ratio (x) = 0.76573 0.44118
# Poissons Ratio (y) = 0.76573 0.44118
# Poissons Ratio (z) = 0.09796 0.09796
#
# Static dielectric constant tensor:
#      x y z
#    x 1.823080 0.000000 0.000000 
#    y 0.000000 1.823080 0.000000 
#    z 0.000000 0.000000 1.738770 
# 
# From -- ./inp_files/6548.got.cif
#   From: 2010.05.17/outbox.cif.g08.bks.cpg/sg127_4_cif.got.tgz:6548.got - 2010.05.20 12:03:00.
