data_PCOD9564322
_publ_section_title
;
Structure prediction by ZEFSAII (Michael W. Deem and Ramdas Pophale) SiO2 
 PCOD9564322
Probable space group: P 4/M B M
;
_chemical_formula_sum "Si O2"
_cell_formula_units_Z 96
_cell_length_a 15.127243
_cell_length_b 15.127243
_cell_length_c 21.660630
_cell_angle_alpha 90.000000
_cell_angle_beta 90.000000
_cell_angle_gamma 90.000000
_cell_volume 4956.677359
_symmetry_space_group_name_H-M "P 4/M B M"
_symmetry_group_IT_number 127
_symmetry_cell_setting 'tetragonal'
loop_
_space_group_symop_operation_xyz
x,y,z
-y,x,z
-x,-y,z
y,-x,z
1/2+x,1/2-y,-z
1/2-x,1/2+y,-z
1/2+y,1/2+x,-z
1/2-y,1/2-x,-z
-x,-y,-z
y,-x,-z
x,y,-z
-y,x,-z
1/2-x,1/2+y,z
1/2+x,1/2-y,z
1/2-y,1/2-x,z
1/2+y,1/2+x,z
loop_
_atom_site_type_symbol
_atom_site_label
_atom_site_fract_x
_atom_site_fract_y
_atom_site_fract_z
Si Si1 0.232085 0.267916 0.073655
Si Si2 0.487192 0.355815 0.817063
Si Si3 0.743480 0.022301 0.072824
Si Si4 0.126520 0.626520 0.874136
Si Si5 0.887021 0.098462 0.500000
Si Si6 0.749541 0.489085 0.304009
Si Si7 0.817266 0.166964 0.369756
Si Si8 0.428749 0.071252 0.739260
O O1 0.127352 0.255350 0.086160
O O2 0.298477 0.201524 0.109397
O O3 0.246886 0.253115 0.000000
O O4 0.577115 0.408404 0.805940
O O5 0.482489 0.322185 0.886661
O O6 0.486575 0.278986 0.767518
O O7 0.659296 0.965938 0.096152
O O8 0.753060 0.009864 0.000000
O O9 0.113926 0.613926 0.800973
O O10 0.842396 0.137987 0.438954
O O11 0.991802 0.120166 0.500000
O O12 0.718566 0.580352 0.334364
O O13 0.702403 0.406628 0.337472
O O14 0.853845 0.474584 0.302073
O O15 0.743707 0.243707 0.368542
O O16 0.500000 0.000000 0.760489
#
# Coordination Sequence:
#
# PCOD9564322 Si02
#       8
#     8  16  16   8   8  16  16   8
#     4  10  24  43  64  91 126 169 223 284 355 434
#     4  11  23  38  61  93 126 165 221 279 345 420
#     4  11  24  41  63  90 125 172 227 287 353 421
#     4  12  24  42  70  94 129 177 227 291 353 422
#     4  11  23  42  74 110 147 185 230 294 348 400
#     4  12  24  44  70 100 139 186 231 287 347 410
#     4  12  25  44  74 105 145 194 236 282 344 415
#     4  12  28  48  66 103 141 184 238 288 352 422
#
# _framework density 19.367813000000002
#
# number of rings (size 3 to 8) (size 9 to 14) (size 15 to 20)
#    0.000    0.583    5.833    2.500    1.167    2.333 
#    1.500    2.083    0.000    0.000    0.000    3.500 
#    0.000    0.000    0.000    0.000    0.000    0.000 
#
# Total GULP energy -536519.203042 kJ/mol
# GULP energy per Si atom -5588.741698 kJ/mol
# Density = 1.932373 g / cm^3
# Si number density = 19.367813 Si / 1000 Ang^3
#
#
#
# Elastic Constant Matrix: (Units=GPa)
#
#
# Indices 1 2 3 4 5 6 
#
# 1 110.2744 49.3876 28.8282 0.0000 0.0000 0.0000
# 2 49.3876 110.2746 28.8281 0.0000 0.0000 0.0000
# 3 28.8282 28.8281 78.9786 0.0000 0.0000 0.0000
# 4 0.0000 0.0000 0.0000 27.5753 0.0000 0.0000
# 5 0.0000 0.0000 0.0000 0.0000 27.5753 0.0000
# 6 0.0000 0.0000 0.0000 0.0000 0.0000 50.8422
#
#
#
# Elastic Compliance Matrix: (Units=1/GPa)
#
#
# Indices 1 2 3 4 5 6 
#
# 1 0.011819 -0.004605 -0.002633 0.000000 0.000000 0.000000
# 2 -0.004605 0.011819 -0.002633 0.000000 0.000000 0.000000
# 3 -0.002633 -0.002633 0.014584 0.000000 0.000000 0.000000
# 4 0.000000 0.000000 0.000000 0.036264 0.000000 0.000000
# 5 0.000000 0.000000 0.000000 0.000000 0.036264 0.000000
# 6 0.000000 0.000000 0.000000 0.000000 0.000000 0.019669
#
#
# Mechanical properties :
#
#
# Convention : Reuss Voigt Hill
#
# Bulk Modulus (GPa) = 54.11468 57.06836 55.59152
# Shear Modulus (GPa) = 31.98528 34.03081 33.00805
#
# Velocity S-wave (km/s) = 4.06823 4.19630 4.13276
# Velocity P-wave (km/s) = 7.07591 7.28067 7.17902
#
# Compressibility (1/GPa) = 0.01847927
#
# Stress axis : x y z
#
# Youngs Moduli (GPa) = 84.60928 84.60953 68.56841
#
# Poissons Ratio (x) = 0.38962 0.18056
# Poissons Ratio (y) = 0.38962 0.18056
# Poissons Ratio (z) = 0.22280 0.22280
#
# Static dielectric constant tensor:
#      x y z
#    x 1.676780 0.000000 0.000000 
#    y 0.000000 1.676780 0.000000 
#    z 0.000000 0.000000 1.641760 
# 
# From -- ./inp_files/5857.got.cif
#   From: 2010.05.17/outbox.cif.g08.bks.cpg/sg127_3_cif.got.tgz:5857.got - 2010.05.20 12:03:00.
