data_PCOD9564344
_publ_section_title
;
Structure prediction by ZEFSAII (Michael W. Deem and Ramdas Pophale) SiO2 
 PCOD9564344
Probable space group: P 4/M B M
;
_chemical_formula_sum "Si O2"
_cell_formula_units_Z 112
_cell_length_a 15.416495
_cell_length_b 15.416495
_cell_length_c 27.895181
_cell_angle_alpha 90.000000
_cell_angle_beta 90.000000
_cell_angle_gamma 90.000000
_cell_volume 6629.800751
_symmetry_space_group_name_H-M "P 4/M B M"
_symmetry_group_IT_number 127
_symmetry_cell_setting 'tetragonal'
loop_
_space_group_symop_operation_xyz
x,y,z
-y,x,z
-x,-y,z
y,-x,z
1/2+x,1/2-y,-z
1/2-x,1/2+y,-z
1/2+y,1/2+x,-z
1/2-y,1/2-x,-z
-x,-y,-z
y,-x,-z
x,y,-z
-y,x,-z
1/2-x,1/2+y,z
1/2+x,1/2-y,z
1/2-y,1/2-x,z
1/2+y,1/2+x,z
loop_
_atom_site_type_symbol
_atom_site_label
_atom_site_fract_x
_atom_site_fract_y
_atom_site_fract_z
Si Si1 0.331052 0.685377 0.186318
Si Si2 0.146566 0.999424 0.445918
Si Si3 0.354298 0.998368 0.055262
Si Si4 0.314974 0.330687 0.301186
Si Si5 0.985342 0.254753 0.150245
Si Si6 0.926612 0.426612 0.205972
Si Si7 0.573083 0.926918 0.316529
Si Si8 0.741658 0.488482 0.347837
O O1 0.256026 0.756026 0.175011
O O2 0.332210 0.674740 0.243815
O O3 0.423706 0.719286 0.169060
O O4 0.308175 0.594536 0.161572
O O5 0.182933 0.999312 0.500000
O O6 0.214042 0.000160 0.402926
O O7 0.083515 0.082955 0.441422
O O8 0.420774 0.079227 0.059956
O O9 0.280553 0.007259 0.094649
O O10 0.412960 0.912960 0.064592
O O11 0.324920 0.995463 0.000000
O O12 0.245546 0.254455 0.312915
O O13 0.279802 0.422882 0.319797
O O14 0.407313 0.310811 0.325475
O O15 0.962402 0.342762 0.178998
O O16 0.904582 0.404582 0.261039
O O17 0.000000 0.500000 0.205358
O O18 0.536277 0.841559 0.341316
O O19 0.500000 0.000000 0.315547
#
# Coordination Sequence:
#
# PCOD9564344 Si02
#       8
#    16  16  16  16  16   8   8  16
#     4  11  23  38  56  83 119 158 197 235 287 348
#     4   9  18  35  58  86 112 138 183 240 288 332
#     4   9  17  32  57  86 110 139 193 259 302 329
#     4  11  23  37  56  85 120 155 195 240 282 344
#     4  12  22  37  57  83 119 156 191 243 294 351
#     4  11  20  36  61  83 107 152 209 244 272 329
#     4  11  24  38  55  83 119 160 193 222 282 359
#     4  12  21  37  61  84 117 152 191 240 290 340
#
# _framework density 16.893419000000002
#
# number of rings (size 3 to 8) (size 9 to 14) (size 15 to 20)
#    0.000    1.286    3.571    5.143    0.000    2.857 
#    0.000    2.500    0.000    5.571    0.000    1.000 
#    0.000    0.000    0.000    0.000    0.000    0.000 
#
# Total GULP energy -625710.347568 kJ/mol
# GULP energy per Si atom -5586.699532 kJ/mol
# Density = 1.685497 g / cm^3
# Si number density = 16.893419 Si / 1000 Ang^3
#
#
#
# Elastic Constant Matrix: (Units=GPa)
#
#
# Indices 1 2 3 4 5 6 
#
# 1 66.2181 37.5568 42.0556 0.0000 0.0000 0.0000
# 2 37.5568 66.2181 42.0556 0.0000 0.0000 0.0000
# 3 42.0556 42.0556 121.8075 0.0000 0.0000 0.0000
# 4 0.0000 0.0000 0.0000 1.9361 0.0000 0.0000
# 5 0.0000 0.0000 0.0000 0.0000 1.9361 0.0000
# 6 0.0000 0.0000 0.0000 0.0000 0.0000 29.8888
#
#
#
# Elastic Compliance Matrix: (Units=1/GPa)
#
#
# Indices 1 2 3 4 5 6 
#
# 1 0.024135 -0.010755 -0.004620 0.000000 0.000000 0.000000
# 2 -0.010755 0.024135 -0.004620 0.000000 0.000000 0.000000
# 3 -0.004620 -0.004620 0.011400 0.000000 0.000000 0.000000
# 4 0.000000 0.000000 0.000000 0.516490 0.000000 0.000000
# 5 0.000000 0.000000 0.000000 0.000000 0.516490 0.000000
# 6 0.000000 0.000000 0.000000 0.000000 0.000000 0.033457
#
#
# Mechanical properties :
#
#
# Convention : Reuss Voigt Hill
#
# Bulk Modulus (GPa) = 50.80840 55.28663 53.04751
# Shear Modulus (GPa) = 4.26382 15.59061 9.92722
#
# Velocity S-wave (km/s) = 1.59042 3.04119 2.42675
# Velocity P-wave (km/s) = 5.78910 6.71785 6.27070
#
# Compressibility (1/GPa) = 0.01968179
#
# Stress axis : x y z
#
# Youngs Moduli (GPa) = 41.43285 41.43285 87.72082
#
# Poissons Ratio (x) = 0.44560 0.40526
# Poissons Ratio (y) = 0.44560 0.40526
# Poissons Ratio (z) = 0.19141 0.19141
#
# Static dielectric constant tensor:
#      x y z
#    x 1.556180 0.000000 0.000000 
#    y 0.000000 1.556180 0.000000 
#    z 0.000000 0.000000 1.563170 
# 
# From -- ./inp_files/6434.got.cif
#   From: 2010.05.17/outbox.cif.g08.bks.cpg/sg127_4_cif.got.tgz:6434.got - 2010.05.20 12:03:00.
