data_PCOD9564604
_publ_section_title
;
Structure prediction by ZEFSAII (Michael W. Deem and Ramdas Pophale) SiO2 
 PCOD9564604
Probable space group: P 4/M N C
;
_chemical_formula_sum "Si O2"
_cell_formula_units_Z 96
_cell_length_a 24.750671
_cell_length_b 24.750671
_cell_length_c 7.558139
_cell_angle_alpha 90.000000
_cell_angle_beta 90.000000
_cell_angle_gamma 90.000000
_cell_volume 4630.083564
_symmetry_space_group_name_H-M "P 4/M N C"
_symmetry_group_IT_number 128
_symmetry_cell_setting 'tetragonal'
loop_
_space_group_symop_operation_xyz
x,y,z
-y,x,z
-x,-y,z
y,-x,z
1/2+x,1/2-y,1/2-z
1/2-x,1/2+y,1/2-z
1/2+y,1/2+x,1/2-z
1/2-y,1/2-x,1/2-z
-x,-y,-z
y,-x,-z
x,y,-z
-y,x,-z
1/2-x,1/2+y,1/2+z
1/2+x,1/2-y,1/2+z
1/2-y,1/2-x,1/2+z
1/2+y,1/2+x,1/2+z
loop_
_atom_site_type_symbol
_atom_site_label
_atom_site_fract_x
_atom_site_fract_y
_atom_site_fract_z
Si Si1 0.721494 0.864234 0.711800
Si Si2 0.290570 0.014048 0.717462
Si Si3 0.808295 0.777478 0.712149
Si Si4 0.800493 0.070673 0.716789
Si Si5 0.418308 0.469143 0.784268
Si Si6 0.911487 0.499929 0.207995
O O1 0.664575 0.835426 0.750000
O O2 0.727423 0.866178 0.500000
O O3 0.723517 0.925282 0.776072
O O4 0.767996 0.824200 0.781338
O O5 0.290568 0.013951 0.500000
O O6 0.351028 0.000338 0.782071
O O7 0.245408 0.971419 0.772623
O O8 0.779476 0.720525 0.750000
O O9 0.809992 0.782742 0.500000
O O10 0.868980 0.785631 0.776491
O O11 0.801066 0.070816 0.500000
O O12 0.860233 0.052272 0.774232
O O13 0.469398 0.432303 0.730243
O O14 0.417843 0.468913 0.000000
O O15 0.946967 0.446967 0.250000
O O16 0.948332 0.551669 0.250000
O O17 0.904819 0.499725 0.000000
#
# Coordination Sequence:
#
# PCOD9564604 Si02
#       6
#    16  16  16  16  16  16
#     4   9  17  30  48  69  91 119 154 191 229 267
#     4   9  18  29  43  65  92 120 152 188 227 272
#     4   9  18  31  48  68  91 123 157 188 226 270
#     4   9  17  27  42  65  94 126 156 188 229 277
#     4   8  14  23  37  61  93 126 155 187 231 278
#     4  10  19  32  49  68  90 120 154 191 233 276
#
# _framework density 20.733968000000001
#
# number of rings (size 3 to 8) (size 9 to 14) (size 15 to 20)
#    0.000    3.000    0.000    2.000    2.333    0.667 
#    0.000    0.833    0.000    2.000    0.000    0.000 
#    0.000    0.000    0.000    1.833    0.000    3.000 
#
# Total GULP energy -535717.433803 kJ/mol
# GULP energy per Si atom -5580.389935 kJ/mol
# Density = 2.068678 g / cm^3
# Si number density = 20.733968 Si / 1000 Ang^3
#
#
#
# Elastic Constant Matrix: (Units=GPa)
#
#
# Indices 1 2 3 4 5 6 
#
# 1 153.6045 187.5866 3.8690 0.0000 0.0000 0.0000
# 2 187.5866 153.6051 3.8809 0.0000 0.0000 0.0000
# 3 3.8690 3.8809 47.9621 0.0000 0.0000 0.0000
# 4 0.0000 0.0000 0.0000 1.0570 0.0000 0.0000
# 5 0.0000 0.0000 0.0000 0.0000 1.0558 0.0000
# 6 0.0000 0.0000 0.0000 0.0000 0.0000 18.9756
#
#
#
# Elastic Compliance Matrix: (Units=1/GPa)
#
#
# Indices 1 2 3 4 5 6 
#
# 1 -0.013246 0.016182 -0.000241 0.000000 0.000000 0.000000
# 2 0.016182 -0.013246 -0.000234 0.000000 0.000000 0.000000
# 3 -0.000241 -0.000234 0.020888 0.000000 0.000000 0.000000
# 4 0.000000 0.000000 0.000000 0.946057 0.000000 0.000000
# 5 0.000000 0.000000 0.000000 0.000000 0.947105 0.000000
# 6 0.000000 0.000000 0.000000 0.000000 0.000000 0.052699
#
#
# Mechanical properties :
#
#
# Convention : Reuss Voigt Hill
#
# Bulk Modulus (GPa) = 38.74196 82.87161 60.80679
# Shear Modulus (GPa) = 2.60763 14.87338 8.74050
#
# Velocity S-wave (km/s) = 1.12267 2.68123 2.05541
# Velocity P-wave (km/s) = 4.51734 7.04565 5.91809
#
# Compressibility (1/GPa) = 0.02581181
#
# Stress axis : x y z
#
# Youngs Moduli (GPa) = -75.49708 -75.49645 47.87410
#
# Poissons Ratio (x) = 1.22168 0.01153
# Poissons Ratio (y) = 1.22169 0.01118
# Poissons Ratio (z) = -0.01819 -0.01763
#
# Static dielectric constant tensor:
#      x y z
#    x 1.749190 0.000000 0.000000 
#    y 0.000000 1.749180 0.000000 
#    z 0.000000 0.000000 1.804190 
# 
# From -- ./inp_files/1421.got.cif
#   From: 2010.05.17/outbox.cif.g08.bks.cpg/sg128_1_cif.got.tgz:1421.got - 2010.05.20 12:07:25.
