data_PCOD9564380
_publ_section_title
;
Structure prediction by ZEFSAII (Michael W. Deem and Ramdas Pophale) SiO2 
 PCOD9564380
Probable space group: P 4/M B M
;
_chemical_formula_sum "Si O2"
_cell_formula_units_Z 88
_cell_length_a 13.652533
_cell_length_b 13.652533
_cell_length_c 27.275122
_cell_angle_alpha 90.000000
_cell_angle_beta 90.000000
_cell_angle_gamma 90.000000
_cell_volume 5083.855193
_symmetry_space_group_name_H-M "P 4/M B M"
_symmetry_group_IT_number 127
_symmetry_cell_setting 'tetragonal'
loop_
_space_group_symop_operation_xyz
x,y,z
-y,x,z
-x,-y,z
y,-x,z
1/2+x,1/2-y,-z
1/2-x,1/2+y,-z
1/2+y,1/2+x,-z
1/2-y,1/2-x,-z
-x,-y,-z
y,-x,-z
x,y,-z
-y,x,-z
1/2-x,1/2+y,z
1/2+x,1/2-y,z
1/2-y,1/2-x,z
1/2+y,1/2+x,z
loop_
_atom_site_type_symbol
_atom_site_label
_atom_site_fract_x
_atom_site_fract_y
_atom_site_fract_z
Si Si1 0.648183 0.424562 0.893087
Si Si2 0.735781 0.599159 0.735473
Si Si3 0.477436 0.663169 0.367706
Si Si4 0.424228 0.352055 0.000000
Si Si5 0.404555 0.255300 0.790090
Si Si6 0.995595 0.337792 0.557262
O O1 0.626170 0.541200 0.890266
O O2 0.711026 0.395625 0.846299
O O3 0.692710 0.401419 0.946845
O O4 0.823463 0.676538 0.729030
O O5 0.711810 0.543906 0.684952
O O6 0.760001 0.516199 0.775045
O O7 0.642825 0.659472 0.756234
O O8 0.393596 0.580500 0.371935
O O9 0.478835 0.746718 0.408771
O O10 0.540627 0.374123 0.000000
O O11 0.340862 0.159139 0.781458
O O12 0.986592 0.309638 0.500000
O O13 0.082051 0.417950 0.560632
O O14 0.895820 0.395820 0.571534
#
# Coordination Sequence:
#
# PCOD9564380 Si02
#       6
#    16  16  16   8  16  16
#     4   9  15  27  50  75 104 140 178 229 283 330
#     4  11  23  39  58  81 112 147 185 229 280 335
#     4  11  23  38  60  87 116 149 187 234 281 326
#     4   7  12  22  41  74 104 131 174 224 280 333
#     4  11  22  35  55  81 108 145 190 229 275 337
#     4   9  20  40  63  86 116 155 193 229 276 332
#
# _framework density 17.309698999999998
#
# number of rings (size 3 to 8) (size 9 to 14) (size 15 to 20)
#    0.000    2.091    3.636    2.182    0.000    3.636 
#    0.000    3.182    0.000    0.000    0.000    0.636 
#    0.000    1.455    0.000    0.000    0.000    0.000 
#
# Total GULP energy -490513.384555 kJ/mol
# GULP energy per Si atom -5574.015734 kJ/mol
# Density = 1.727030 g / cm^3
# Si number density = 17.309699 Si / 1000 Ang^3
#
#
#
# Elastic Constant Matrix: (Units=GPa)
#
#
# Indices 1 2 3 4 5 6 
#
# 1 67.1601 18.7411 39.6003 0.0000 0.0000 0.0000
# 2 18.7411 67.1601 39.6003 0.0000 0.0000 0.0000
# 3 39.6003 39.6003 118.5329 0.0000 0.0000 0.0000
# 4 0.0000 0.0000 0.0000 13.5820 0.0000 0.0000
# 5 0.0000 0.0000 0.0000 0.0000 13.5820 0.0000
# 6 0.0000 0.0000 0.0000 0.0000 0.0000 -3.1498
#
#
#
# Elastic Compliance Matrix: (Units=1/GPa)
#
#
# Indices 1 2 3 4 5 6 
#
# 1 0.018738 -0.001915 -0.005620 0.000000 0.000000 0.000000
# 2 -0.001915 0.018738 -0.005620 0.000000 0.000000 0.000000
# 3 -0.005620 -0.005620 0.012192 0.000000 0.000000 0.000000
# 4 0.000000 0.000000 0.000000 0.073627 0.000000 0.000000
# 5 0.000000 0.000000 0.000000 0.000000 0.073627 0.000000
# 6 0.000000 0.000000 0.000000 0.000000 0.000000 -0.317478
#
#
# Mechanical properties :
#
#
# Convention : Reuss Voigt Hill
#
# Bulk Modulus (GPa) = 42.81421 49.85963 46.33692
# Shear Modulus (GPa) = -57.83153 15.13024 -21.35064
#
# Velocity S-wave (km/s) = -5.78640 2.95971 -3.51586
# Velocity P-wave (km/s) = 4.45593 6.36764 3.21648
#
# Compressibility (1/GPa) = 0.02335673
#
# Stress axis : x y z
#
# Youngs Moduli (GPa) = 53.36697 53.36697 82.02157
#
# Poissons Ratio (x) = 0.10219 0.46100
# Poissons Ratio (y) = 0.10219 0.46100
# Poissons Ratio (z) = 0.29995 0.29995
#
# Static dielectric constant tensor:
#      x y z
#    x 1.572190 0.000000 0.000000 
#    y 0.000000 1.572190 0.000000 
#    z 0.000000 0.000000 1.606260 
# 
# From -- ./inp_files/6543.got.cif
#   From: 2010.05.17/outbox.cif.g08.bks.cpg/sg127_4_cif.got.tgz:6543.got - 2010.05.20 12:03:00.
