data_PCOD9564989
_publ_section_title
;
Structure prediction by ZEFSAII (Michael W. Deem and Ramdas Pophale) SiO2 
 PCOD9564989
Probable space group: P 4/M N C
;
_chemical_formula_sum "Si O2"
_cell_formula_units_Z 92
_cell_length_a 16.442918
_cell_length_b 16.442918
_cell_length_c 19.035023
_cell_angle_alpha 90.000000
_cell_angle_beta 90.000000
_cell_angle_gamma 90.000000
_cell_volume 5146.490648
_symmetry_space_group_name_H-M "P 4/M N C"
_symmetry_group_IT_number 128
_symmetry_cell_setting 'tetragonal'
loop_
_space_group_symop_operation_xyz
x,y,z
-y,x,z
-x,-y,z
y,-x,z
1/2+x,1/2-y,1/2-z
1/2-x,1/2+y,1/2-z
1/2+y,1/2+x,1/2-z
1/2-y,1/2-x,1/2-z
-x,-y,-z
y,-x,-z
x,y,-z
-y,x,-z
1/2-x,1/2+y,1/2+z
1/2+x,1/2-y,1/2+z
1/2-y,1/2-x,1/2+z
1/2+y,1/2+x,1/2+z
loop_
_atom_site_type_symbol
_atom_site_label
_atom_site_fract_x
_atom_site_fract_y
_atom_site_fract_z
Si Si1 0.197504 0.622584 0.679139
Si Si2 0.500000 0.500000 0.720300
Si Si3 0.560621 0.236963 0.122497
Si Si4 0.732746 0.189687 0.831137
Si Si5 0.972457 0.805653 0.778440
Si Si6 0.417997 0.049272 0.416368
Si Si7 0.464271 0.632995 0.000000
O O1 0.151245 0.651245 0.750000
O O2 0.243299 0.700869 0.648004
O O3 0.265443 0.556864 0.698389
O O4 0.132820 0.585334 0.626016
O O5 0.475232 0.597560 0.720746
O O6 0.651687 0.200708 0.123859
O O7 0.543453 0.273709 0.199346
O O8 0.500785 0.162642 0.104899
O O9 0.550021 0.309499 0.067024
O O10 0.709632 0.209632 0.750000
O O11 0.771130 0.100167 0.827429
O O12 0.417409 0.062067 0.500000
O O13 0.500000 0.000000 0.398083
O O14 0.403972 0.555480 0.000000
#
# Coordination Sequence:
#
# PCOD9564989 Si02
#       7
#    16   4  16  16  16  16   8
#     4  11  21  38  62  89 120 160 212 258 309 375
#     4  12  24  36  64  97 129 164 192 260 326 376
#     4  11  23  40  62  87 129 167 210 254 309 378
#     4   9  21  36  57  87 118 154 200 258 304 363
#     4  11  22  39  63  94 123 160 206 260 320 372
#     4  11  24  41  61  89 125 163 210 270 328 379
#     4  11  28  40  57  90 134 179 211 244 302 390
#
# _framework density 17.876259000000001
#
# number of rings (size 3 to 8) (size 9 to 14) (size 15 to 20)
#    0.000    1.304    4.348    1.043    4.870    0.348 
#    0.000    0.000    0.000    0.000    0.000    0.609 
#    0.000    0.000    0.000    0.000    0.000    0.000 
#
# Total GULP energy -512754.519561 kJ/mol
# GULP energy per Si atom -5573.418691 kJ/mol
# Density = 1.783557 g / cm^3
# Si number density = 17.876259 Si / 1000 Ang^3
#
#
#
# Elastic Constant Matrix: (Units=GPa)
#
#
# Indices 1 2 3 4 5 6 
#
# 1 103.1357 17.7320 27.9157 0.0000 0.0000 0.0000
# 2 17.7320 103.1357 27.9157 0.0000 0.0000 0.0000
# 3 27.9157 27.9157 45.2913 0.0000 0.0000 0.0000
# 4 0.0000 0.0000 0.0000 3.8701 0.0000 0.0000
# 5 0.0000 0.0000 0.0000 0.0000 3.8701 0.0000
# 6 0.0000 0.0000 0.0000 0.0000 0.0000 43.6843
#
#
#
# Elastic Compliance Matrix: (Units=1/GPa)
#
#
# Indices 1 2 3 4 5 6 
#
# 1 0.011638 -0.000071 -0.007129 0.000000 0.000000 0.000000
# 2 -0.000071 0.011638 -0.007129 0.000000 0.000000 0.000000
# 3 -0.007129 -0.007129 0.030868 0.000000 0.000000 0.000000
# 4 0.000000 0.000000 0.000000 0.258389 0.000000 0.000000
# 5 0.000000 0.000000 0.000000 0.000000 0.258389 0.000000
# 6 0.000000 0.000000 0.000000 0.000000 0.000000 0.022892
#
#
# Mechanical properties :
#
#
# Convention : Reuss Voigt Hill
#
# Bulk Modulus (GPa) = 39.24017 44.29880 41.76949
# Shear Modulus (GPa) = 7.92435 22.15153 15.03794
#
# Velocity S-wave (km/s) = 2.10773 3.52399 2.90353
# Velocity P-wave (km/s) = 5.28413 6.43371 5.88704
#
# Compressibility (1/GPa) = 0.02548409
#
# Stress axis : x y z
#
# Youngs Moduli (GPa) = 85.92642 85.92642 32.39643
#
# Poissons Ratio (x) = 0.00612 0.23096
# Poissons Ratio (y) = 0.00612 0.23096
# Poissons Ratio (z) = 0.61259 0.61259
#
# Static dielectric constant tensor:
#      x y z
#    x 1.602790 0.000000 0.000000 
#    y 0.000000 1.602790 0.000000 
#    z 0.000000 0.000000 1.588860 
# 
# From -- ./inp_files/5810.got.cif
#   From: 2010.05.17/outbox.cif.g08.bks.cpg/sg128_3_cif.got.tgz:5810.got - 2010.05.20 12:07:25.
