data_PCOD9564833
_publ_section_title
;
Structure prediction by ZEFSAII (Michael W. Deem and Ramdas Pophale) SiO2 
 PCOD9564833
Probable space group: P 4/M N C
;
_chemical_formula_sum "Si O2"
_cell_formula_units_Z 72
_cell_length_a 15.455154
_cell_length_b 15.455154
_cell_length_c 15.741594
_cell_angle_alpha 90.000000
_cell_angle_beta 90.000000
_cell_angle_gamma 90.000000
_cell_volume 3760.065244
_symmetry_space_group_name_H-M "P 4/M N C"
_symmetry_group_IT_number 128
_symmetry_cell_setting 'tetragonal'
loop_
_space_group_symop_operation_xyz
x,y,z
-y,x,z
-x,-y,z
y,-x,z
1/2+x,1/2-y,1/2-z
1/2-x,1/2+y,1/2-z
1/2+y,1/2+x,1/2-z
1/2-y,1/2-x,1/2-z
-x,-y,-z
y,-x,-z
x,y,-z
-y,x,-z
1/2-x,1/2+y,1/2+z
1/2+x,1/2-y,1/2+z
1/2-y,1/2-x,1/2+z
1/2+y,1/2+x,1/2+z
loop_
_atom_site_type_symbol
_atom_site_label
_atom_site_fract_x
_atom_site_fract_y
_atom_site_fract_z
Si Si1 0.983298 0.763011 0.598384
Si Si2 0.340227 0.313332 0.837526
Si Si3 0.128863 0.068864 0.000000
Si Si4 0.246771 0.635512 0.352750
Si Si5 0.575357 0.935525 0.397969
O O1 0.957071 0.768500 0.500000
O O2 0.902366 0.789563 0.654771
O O3 0.068132 0.820450 0.615186
O O4 0.016513 0.666216 0.616201
O O5 0.359684 0.286545 0.740814
O O6 0.285362 0.232909 0.875711
O O7 0.184618 0.098469 0.918829
O O8 0.034322 0.113059 0.000000
O O9 0.158320 0.579624 0.354796
O O10 0.566871 0.920477 0.500000
O O11 0.500000 0.000000 0.370395
#
# Coordination Sequence:
#
# PCOD9564833 Si02
#       5
#    16  16   8  16  16
#     4  10  21  38  63  89 123 159 210 261 319 387
#     4  10  23  40  61  92 123 164 210 264 325 379
#     4  11  26  42  65  92 126 175 223 258 312 394
#     4  10  22  43  62  88 131 168 209 266 319 378
#     4   9  18  37  64  97 125 160 210 263 318 382
#
# _framework density 19.148603000000001
#
# number of rings (size 3 to 8) (size 9 to 14) (size 15 to 20)
#    0.000    2.111    1.111    0.667    6.222    2.222 
#    4.000    8.889    0.000    0.000    0.000    0.000 
#    0.000    0.000    0.000    0.000    0.000    0.000 
#
# Total GULP energy -402132.414302 kJ/mol
# GULP energy per Si atom -5585.172421 kJ/mol
# Density = 1.910502 g / cm^3
# Si number density = 19.148603 Si / 1000 Ang^3
#
#
#
# Elastic Constant Matrix: (Units=GPa)
#
#
# Indices 1 2 3 4 5 6 
#
# 1 109.1495 62.8753 58.5213 0.0000 0.0000 0.0000
# 2 62.8753 109.1495 58.5213 0.0000 0.0000 0.0000
# 3 58.5213 58.5213 89.6084 0.0000 0.0000 0.0000
# 4 0.0000 0.0000 0.0000 28.4666 0.0000 0.0000
# 5 0.0000 0.0000 0.0000 0.0000 28.4666 0.0000
# 6 0.0000 0.0000 0.0000 0.0000 0.0000 28.4567
#
#
#
# Elastic Compliance Matrix: (Units=1/GPa)
#
#
# Indices 1 2 3 4 5 6 
#
# 1 0.016036 -0.005574 -0.006832 0.000000 0.000000 0.000000
# 2 -0.005574 0.016036 -0.006832 0.000000 0.000000 0.000000
# 3 -0.006832 -0.006832 0.020084 0.000000 0.000000 0.000000
# 4 0.000000 0.000000 0.000000 0.035129 0.000000 0.000000
# 5 0.000000 0.000000 0.000000 0.000000 0.035129 0.000000
# 6 0.000000 0.000000 0.000000 0.000000 0.000000 0.035141
#
#
# Mechanical properties :
#
#
# Convention : Reuss Voigt Hill
#
# Bulk Modulus (GPa) = 73.11068 74.19370 73.65219
# Shear Modulus (GPa) = 24.92623 25.61059 25.26841
#
# Velocity S-wave (km/s) = 3.61186 3.66110 3.63656
# Velocity P-wave (km/s) = 7.46040 7.53007 7.49532
#
# Compressibility (1/GPa) = 0.01367789
#
# Stress axis : x y z
#
# Youngs Moduli (GPa) = 62.35971 62.35971 49.79149
#
# Poissons Ratio (x) = 0.34761 0.34019
# Poissons Ratio (y) = 0.34761 0.34019
# Poissons Ratio (z) = 0.42606 0.42606
#
# Static dielectric constant tensor:
#      x y z
#    x 1.654250 0.000000 0.000000 
#    y 0.000000 1.654250 0.000000 
#    z 0.000000 0.000000 1.682270 
# 
# From -- ./inp_files/4599.got.cif
#   From: 2010.05.17/outbox.cif.g08.bks.cpg/sg128_3_cif.got.tgz:4599.got - 2010.05.20 12:07:25.
