data_PCOD9564775
_publ_section_title
;
Structure prediction by ZEFSAII (Michael W. Deem and Ramdas Pophale) SiO2 
 PCOD9564775
Probable space group: P 4/M N C
;
_chemical_formula_sum "Si O2"
_cell_formula_units_Z 72
_cell_length_a 15.036079
_cell_length_b 15.036079
_cell_length_c 16.202671
_cell_angle_alpha 90.000000
_cell_angle_beta 90.000000
_cell_angle_gamma 90.000000
_cell_volume 3663.159351
_symmetry_space_group_name_H-M "P 4/M N C"
_symmetry_group_IT_number 128
_symmetry_cell_setting 'tetragonal'
loop_
_space_group_symop_operation_xyz
x,y,z
-y,x,z
-x,-y,z
y,-x,z
1/2+x,1/2-y,1/2-z
1/2-x,1/2+y,1/2-z
1/2+y,1/2+x,1/2-z
1/2-y,1/2-x,1/2-z
-x,-y,-z
y,-x,-z
x,y,-z
-y,x,-z
1/2-x,1/2+y,1/2+z
1/2+x,1/2-y,1/2+z
1/2-y,1/2-x,1/2+z
1/2+y,1/2+x,1/2+z
loop_
_atom_site_type_symbol
_atom_site_label
_atom_site_fract_x
_atom_site_fract_y
_atom_site_fract_z
Si Si1 0.772606 0.880665 0.661967
Si Si2 0.546474 0.093054 0.399992
Si Si3 0.266953 0.098103 0.146819
Si Si4 0.076741 0.248357 0.401854
Si Si5 0.071402 0.868310 0.000000
O O1 0.767120 0.894542 0.760090
O O2 0.682252 0.831749 0.632869
O O3 0.854415 0.817673 0.640276
O O4 0.777705 0.976072 0.619088
O O5 0.542077 0.099254 0.500000
O O6 0.490392 0.174180 0.363959
O O7 0.649391 0.092127 0.374930
O O8 0.500000 0.000000 0.375982
O O9 0.188535 0.097749 0.080203
O O10 0.090371 0.244874 0.500000
O O11 0.965015 0.883530 0.000000
#
# Coordination Sequence:
#
# PCOD9564775 Si02
#       5
#    16  16  16  16   8
#     4  11  27  43  65 105 136 180 231 287 345 407
#     4  10  20  39  71 105 132 172 223 283 346 405
#     4  11  25  44  70 100 139 176 231 287 341 419
#     4  11  25  44  72  97 138 181 230 284 343 415
#     4  11  28  46  71  98 138 191 232 279 353 430
#
# _framework density 19.655163999999999
#
# number of rings (size 3 to 8) (size 9 to 14) (size 15 to 20)
#    0.000    1.222    3.333    0.667    9.333    3.111 
#    0.000    1.111    0.000    0.000    0.000    0.000 
#    0.000    0.000    0.000    0.000    0.000    0.000 
#
# Total GULP energy -402962.348194 kJ/mol
# GULP energy per Si atom -5596.699280 kJ/mol
# Density = 1.961043 g / cm^3
# Si number density = 19.655164 Si / 1000 Ang^3
#
#
#
# Elastic Constant Matrix: (Units=GPa)
#
#
# Indices 1 2 3 4 5 6 
#
# 1 124.0733 83.9665 52.6552 0.0000 0.0000 0.0000
# 2 83.9665 124.0733 52.6552 0.0000 0.0000 0.0000
# 3 52.6552 52.6552 59.5178 0.0000 0.0000 0.0000
# 4 0.0000 0.0000 0.0000 20.2679 0.0000 0.0000
# 5 0.0000 0.0000 0.0000 0.0000 20.2679 0.0000
# 6 0.0000 0.0000 0.0000 0.0000 0.0000 42.4929
#
#
#
# Elastic Compliance Matrix: (Units=1/GPa)
#
#
# Indices 1 2 3 4 5 6 
#
# 1 0.016819 -0.008114 -0.007702 0.000000 0.000000 0.000000
# 2 -0.008114 0.016819 -0.007702 0.000000 0.000000 0.000000
# 3 -0.007702 -0.007702 0.030429 0.000000 0.000000 0.000000
# 4 0.000000 0.000000 0.000000 0.049339 0.000000 0.000000
# 5 0.000000 0.000000 0.000000 0.000000 0.049339 0.000000
# 6 0.000000 0.000000 0.000000 0.000000 0.000000 0.023533
#
#
# Mechanical properties :
#
#
# Convention : Reuss Voigt Hill
#
# Bulk Modulus (GPa) = 58.70899 76.24644 67.47772
# Shear Modulus (GPa) = 20.92128 24.49826 22.70977
#
# Velocity S-wave (km/s) = 3.26608 3.53427 3.40282
# Velocity P-wave (km/s) = 6.64510 7.45192 7.06004
#
# Compressibility (1/GPa) = 0.01703317
#
# Stress axis : x y z
#
# Youngs Moduli (GPa) = 59.45519 59.45519 32.86362
#
# Poissons Ratio (x) = 0.48242 0.25310
# Poissons Ratio (y) = 0.48242 0.25310
# Poissons Ratio (z) = 0.45790 0.45790
#
# Static dielectric constant tensor:
#      x y z
#    x 1.660790 0.000000 0.000000 
#    y 0.000000 1.660790 0.000000 
#    z 0.000000 0.000000 1.672180 
# 
# From -- ./inp_files/4576.got.cif
#   From: 2010.05.17/outbox.cif.g08.bks.cpg/sg128_3_cif.got.tgz:4576.got - 2010.05.20 12:07:25.
