data_PCOD9564336
_publ_section_title
;
Structure prediction by ZEFSAII (Michael W. Deem and Ramdas Pophale) SiO2 
 PCOD9564336
Probable space group: P 4/M B M
;
_chemical_formula_sum "Si O2"
_cell_formula_units_Z 72
_cell_length_a 21.140107
_cell_length_b 21.140107
_cell_length_c 10.594505
_cell_angle_alpha 90.000000
_cell_angle_beta 90.000000
_cell_angle_gamma 90.000000
_cell_volume 4734.727976
_symmetry_space_group_name_H-M "P 4/M B M"
_symmetry_group_IT_number 127
_symmetry_cell_setting 'tetragonal'
loop_
_space_group_symop_operation_xyz
x,y,z
-y,x,z
-x,-y,z
y,-x,z
1/2+x,1/2-y,-z
1/2-x,1/2+y,-z
1/2+y,1/2+x,-z
1/2-y,1/2-x,-z
-x,-y,-z
y,-x,-z
x,y,-z
-y,x,-z
1/2-x,1/2+y,z
1/2+x,1/2-y,z
1/2-y,1/2-x,z
1/2+y,1/2+x,z
loop_
_atom_site_type_symbol
_atom_site_label
_atom_site_fract_x
_atom_site_fract_y
_atom_site_fract_z
Si Si1 0.257026 0.653926 0.641537
Si Si2 0.736342 0.135162 0.354753
Si Si3 0.558521 0.334136 0.232672
Si Si4 0.675441 0.417487 0.857543
Si Si5 0.599893 0.536141 0.500000
O O1 0.258287 0.625858 0.500000
O O2 0.191408 0.691408 0.659724
O O3 0.311260 0.708356 0.643455
O O4 0.275549 0.606034 0.751152
O O5 0.730480 0.112177 0.500000
O O6 0.672210 0.172210 0.320843
O O7 0.763110 0.084090 0.257128
O O8 0.491513 0.337196 0.164373
O O9 0.611427 0.376992 0.165199
O O10 0.550459 0.362021 0.373674
O O11 0.697666 0.406191 0.000000
O O12 0.536621 0.578242 0.500000
#
# Coordination Sequence:
#
# PCOD9564336 Si02
#       5
#    16  16  16  16   8
#     4   8  16  31  50  69  86 110 151 196 234 270
#     4   8  14  25  44  67  87 108 141 192 241 275
#     4  11  20  31  46  63  94 121 161 196 230 273
#     4  11  23  33  44  64  95 130 158 189 230 272
#     4  11  20  30  43  66  84 124 171 205 229 266
#
# _framework density 15.206787
#
# number of rings (size 3 to 8) (size 9 to 14) (size 15 to 20)
#    0.000    2.333    3.333    2.000    3.111    0.889 
#    0.000    1.111    0.000    2.000    0.000    0.000 
#    0.000    0.889    0.000    6.889    0.000    2.222 
#
# Total GULP energy -401213.057348 kJ/mol
# GULP energy per Si atom -5572.403574 kJ/mol
# Density = 1.517218 g / cm^3
# Si number density = 15.206787 Si / 1000 Ang^3
#
#
#
# Elastic Constant Matrix: (Units=GPa)
#
#
# Indices 1 2 3 4 5 6 
#
# 1 21.8465 51.1256 33.2865 0.0000 0.0000 0.0000
# 2 51.1256 21.8465 33.2865 0.0000 0.0000 0.0000
# 3 33.2865 33.2865 101.5298 0.0000 0.0000 0.0000
# 4 0.0000 0.0000 0.0000 2.1610 0.0000 0.0000
# 5 0.0000 0.0000 0.0000 0.0000 2.1610 0.0000
# 6 0.0000 0.0000 0.0000 0.0000 0.0000 8.3331
#
#
#
# Elastic Compliance Matrix: (Units=1/GPa)
#
#
# Indices 1 2 3 4 5 6 
#
# 1 -0.007301 0.026853 -0.006410 0.000000 0.000000 0.000000
# 2 0.026853 -0.007301 -0.006410 0.000000 0.000000 0.000000
# 3 -0.006410 -0.006410 0.014052 0.000000 0.000000 0.000000
# 4 0.000000 0.000000 0.000000 0.462757 0.000000 0.000000
# 5 0.000000 0.000000 0.000000 0.000000 0.462757 0.000000
# 6 0.000000 0.000000 0.000000 0.000000 0.000000 0.120004
#
#
# Mechanical properties :
#
#
# Convention : Reuss Voigt Hill
#
# Bulk Modulus (GPa) = 36.34273 42.29111 39.31692
# Shear Modulus (GPa) = 4.87294 4.36594 4.61944
#
# Velocity S-wave (km/s) = 1.79204 1.69625 1.74480
# Velocity P-wave (km/s) = 5.31345 5.63093 5.47450
#
# Compressibility (1/GPa) = 0.02751582
#
# Stress axis : x y z
#
# Youngs Moduli (GPa) = -136.96562 -136.96562 71.16220
#
# Poissons Ratio (x) = 3.67793 0.45615
# Poissons Ratio (y) = 3.67793 0.45615
# Poissons Ratio (z) = -0.87796 -0.87796
#
# Static dielectric constant tensor:
#      x y z
#    x 1.513800 0.000000 0.000000 
#    y 0.000000 1.513800 0.000000 
#    z 0.000000 0.000000 1.515650 
# 
# From -- ./inp_files/1573.got.cif
#   From: 2010.05.17/outbox.cif.g08.bks.cpg/sg127_1_cif.got.tgz:1573.got - 2010.05.20 12:03:00.
