data_PCOD9564619
_publ_section_title
;
Structure prediction by ZEFSAII (Michael W. Deem and Ramdas Pophale) SiO2 
 PCOD9564619
Probable space group: P 4/M N C
;
_chemical_formula_sum "Si O2"
_cell_formula_units_Z 116
_cell_length_a 17.456106
_cell_length_b 17.456106
_cell_length_c 16.652405
_cell_angle_alpha 90.000000
_cell_angle_beta 90.000000
_cell_angle_gamma 90.000000
_cell_volume 5074.248192
_symmetry_space_group_name_H-M "P 4/M N C"
_symmetry_group_IT_number 128
_symmetry_cell_setting 'tetragonal'
loop_
_space_group_symop_operation_xyz
x,y,z
-y,x,z
-x,-y,z
y,-x,z
1/2+x,1/2-y,1/2-z
1/2-x,1/2+y,1/2-z
1/2+y,1/2+x,1/2-z
1/2-y,1/2-x,1/2-z
-x,-y,-z
y,-x,-z
x,y,-z
-y,x,-z
1/2-x,1/2+y,1/2+z
1/2+x,1/2-y,1/2+z
1/2-y,1/2-x,1/2+z
1/2+y,1/2+x,1/2+z
loop_
_atom_site_type_symbol
_atom_site_label
_atom_site_fract_x
_atom_site_fract_y
_atom_site_fract_z
Si Si1 0.487874 0.213341 0.636107
Si Si2 0.581420 0.100130 0.909781
Si Si3 0.679305 0.799642 0.590768
Si Si4 0.195967 0.538186 0.174516
Si Si5 0.683471 0.224476 0.163283
Si Si6 0.878530 0.027840 0.847560
Si Si7 0.055089 0.155229 0.338892
Si Si8 0.500000 0.500000 0.899083
O O1 0.529067 0.135312 0.611002
O O2 0.408761 0.223093 0.590559
O O3 0.467510 0.206775 0.730281
O O4 0.537090 0.291041 0.624105
O O5 0.512546 0.122729 0.851114
O O6 0.639185 0.171656 0.899184
O O7 0.551804 0.093960 0.000000
O O8 0.707898 0.809609 0.500000
O O9 0.685946 0.877965 0.640325
O O10 0.730508 0.738388 0.636974
O O11 0.273452 0.499796 0.139297
O O12 0.683347 0.183347 0.250000
O O13 0.638399 0.305093 0.167656
O O14 0.911180 0.943790 0.871059
O O15 0.873998 0.031740 0.750177
O O16 0.048275 0.081417 0.394275
#
# Coordination Sequence:
#
# PCOD9564619 Si02
#       8
#    16  16  16  16  16  16  16   4
#     4  11  24  39  67  97 131 170 227 275 331 414
#     4  11  23  43  66  94 132 174 219 277 345 409
#     4  12  26  42  61  94 133 176 225 282 354 407
#     4  10  22  42  65  93 125 173 219 281 333 404
#     4  11  23  40  64  93 131 177 231 282 329 403
#     4  10  19  34  59  98 135 164 208 271 332 386
#     4  10  19  32  60  95 130 163 213 267 333 392
#     4  12  16  28  52  92 133 156 193 260 332 394
#
# _framework density 22.860530000000001
#
# number of rings (size 3 to 8) (size 9 to 14) (size 15 to 20)
#    0.000    1.241    1.379    6.207    5.793    0.552 
#    0.000    2.759    0.000    0.000    0.000   21.241 
#    0.000    0.000    0.000    0.000    0.000    0.000 
#
# Total GULP energy -647820.200253 kJ/mol
# GULP energy per Si atom -5584.656899 kJ/mol
# Density = 2.280850 g / cm^3
# Si number density = 22.860530 Si / 1000 Ang^3
#
#
#
# Elastic Constant Matrix: (Units=GPa)
#
#
# Indices 1 2 3 4 5 6 
#
# 1 57.2893 1.3780 2.5893 0.0000 0.0000 0.0000
# 2 1.3780 57.2893 2.5893 0.0000 0.0000 0.0000
# 3 2.5893 2.5893 57.7152 0.0000 0.0000 0.0000
# 4 0.0000 0.0000 0.0000 5.9094 0.0000 0.0000
# 5 0.0000 0.0000 0.0000 0.0000 5.9094 0.0000
# 6 0.0000 0.0000 0.0000 0.0000 0.0000 57.6992
#
#
#
# Elastic Compliance Matrix: (Units=1/GPa)
#
#
# Indices 1 2 3 4 5 6 
#
# 1 0.017499 -0.000386 -0.000768 0.000000 0.000000 0.000000
# 2 -0.000386 0.017499 -0.000768 0.000000 0.000000 0.000000
# 3 -0.000768 -0.000768 0.017395 0.000000 0.000000 0.000000
# 4 0.000000 0.000000 0.000000 0.169223 0.000000 0.000000
# 5 0.000000 0.000000 0.000000 0.000000 0.169223 0.000000
# 6 0.000000 0.000000 0.000000 0.000000 0.000000 0.017331
#
#
# Mechanical properties :
#
#
# Convention : Reuss Voigt Hill
#
# Bulk Modulus (GPa) = 20.59716 20.60080 20.59898
# Shear Modulus (GPa) = 11.67686 24.95274 18.31480
#
# Velocity S-wave (km/s) = 2.26251 3.30740 2.83354
# Velocity P-wave (km/s) = 3.98180 4.85966 4.44247
#
# Compressibility (1/GPa) = 0.04855039
#
# Stress axis : x y z
#
# Youngs Moduli (GPa) = 57.14532 57.14532 57.48666
#
# Poissons Ratio (x) = 0.02207 0.04414
# Poissons Ratio (y) = 0.02207 0.04414
# Poissons Ratio (z) = 0.04387 0.04387
#
# Static dielectric constant tensor:
#      x y z
#    x 1.854470 0.000000 0.000000 
#    y 0.000000 1.854470 0.000000 
#    z 0.000000 0.000000 1.836680 
# 
# From -- ./inp_files/4967.got.cif
#   From: 2010.05.17/outbox.cif.g08.bks.cpg/sg128_3_cif.got.tgz:4967.got - 2010.05.20 12:07:25.
