data_PCOD9564909
_publ_section_title
;
Structure prediction by ZEFSAII (Michael W. Deem and Ramdas Pophale) SiO2 
 PCOD9564909
Probable space group: P 4/M N C
;
_chemical_formula_sum "Si O2"
_cell_formula_units_Z 88
_cell_length_a 16.947601
_cell_length_b 16.947601
_cell_length_c 16.307589
_cell_angle_alpha 90.000000
_cell_angle_beta 90.000000
_cell_angle_gamma 90.000000
_cell_volume 4683.884950
_symmetry_space_group_name_H-M "P 4/M N C"
_symmetry_group_IT_number 128
_symmetry_cell_setting 'tetragonal'
loop_
_space_group_symop_operation_xyz
x,y,z
-y,x,z
-x,-y,z
y,-x,z
1/2+x,1/2-y,1/2-z
1/2-x,1/2+y,1/2-z
1/2+y,1/2+x,1/2-z
1/2-y,1/2-x,1/2-z
-x,-y,-z
y,-x,-z
x,y,-z
-y,x,-z
1/2-x,1/2+y,1/2+z
1/2+x,1/2-y,1/2+z
1/2-y,1/2-x,1/2+z
1/2+y,1/2+x,1/2+z
loop_
_atom_site_type_symbol
_atom_site_label
_atom_site_fract_x
_atom_site_fract_y
_atom_site_fract_z
Si Si1 0.401855 0.588125 0.000000
Si Si2 0.814857 0.892435 0.333755
Si Si3 0.114529 0.630838 0.347213
Si Si4 0.795589 0.517354 0.407445
Si Si5 0.110787 0.438631 0.836952
Si Si6 0.062845 0.217551 0.739555
O O1 0.392684 0.493737 0.000000
O O2 0.361728 0.618079 0.917962
O O3 0.724141 0.870875 0.351920
O O4 0.861657 0.838091 0.269766
O O5 0.816374 0.982872 0.301803
O O6 0.114761 0.614761 0.250000
O O7 0.175533 0.572194 0.389695
O O8 0.025542 0.611145 0.375297
O O9 0.765960 0.525168 0.500000
O O10 0.872930 0.572073 0.393753
O O11 0.738203 0.542668 0.333575
O O12 0.064526 0.435475 0.750000
O O13 0.200395 0.420871 0.808598
#
# Coordination Sequence:
#
# PCOD9564909 Si02
#       6
#     8  16  16  16  16  16
#     4  11  22  38  64  98 125 153 205 273 321 395
#     4  11  22  40  63  93 126 165 203 256 334 385
#     4  11  20  35  63  89 123 166 205 253 310 380
#     4  11  23  40  59  92 127 169 220 260 300 367
#     4   9  18  35  59  84 119 167 203 245 307 375
#     4  10  22  41  64  86 125 170 211 257 321 390
#
# _framework density 18.787821999999998
#
# number of rings (size 3 to 8) (size 9 to 14) (size 15 to 20)
#    0.000    1.545    7.273    0.545    1.273    4.000 
#    6.545    0.909    0.000    0.000    0.000    1.273 
#    0.000    0.000    0.000    0.000    0.000    0.000 
#
# Total GULP energy -491212.430809 kJ/mol
# GULP energy per Si atom -5581.959441 kJ/mol
# Density = 1.874506 g / cm^3
# Si number density = 18.787822 Si / 1000 Ang^3
#
#
#
# Elastic Constant Matrix: (Units=GPa)
#
#
# Indices 1 2 3 4 5 6 
#
# 1 79.1730 31.6684 9.3506 0.0000 0.0000 0.0000
# 2 31.6684 79.1733 9.3510 0.0000 0.0000 0.0000
# 3 9.3506 9.3510 85.5835 0.0000 0.0000 0.0000
# 4 0.0000 0.0000 0.0000 14.4375 0.0000 0.0000
# 5 0.0000 0.0000 0.0000 0.0000 14.4376 0.0000
# 6 0.0000 0.0000 0.0000 0.0000 0.0000 32.2649
#
#
#
# Elastic Compliance Matrix: (Units=1/GPa)
#
#
# Indices 1 2 3 4 5 6 
#
# 1 0.015121 -0.005930 -0.001004 0.000000 0.000000 0.000000
# 2 -0.005930 0.015121 -0.001004 0.000000 0.000000 0.000000
# 3 -0.001004 -0.001004 0.011904 0.000000 0.000000 0.000000
# 4 0.000000 0.000000 0.000000 0.069264 0.000000 0.000000
# 5 0.000000 0.000000 0.000000 0.000000 0.069264 0.000000
# 6 0.000000 0.000000 0.000000 0.000000 0.000000 0.030993
#
#
# Mechanical properties :
#
#
# Convention : Reuss Voigt Hill
#
# Bulk Modulus (GPa) = 38.06675 38.29663 38.18169
# Shear Modulus (GPa) = 21.15958 25.13199 23.14578
#
# Velocity S-wave (km/s) = 3.35959 3.66139 3.51373
# Velocity P-wave (km/s) = 5.94597 6.18889 6.06864
#
# Compressibility (1/GPa) = 0.02626965
#
# Stress axis : x y z
#
# Youngs Moduli (GPa) = 66.13343 66.13366 84.00579
#
# Poissons Ratio (x) = 0.39215 0.08436
# Poissons Ratio (y) = 0.39214 0.08437
# Poissons Ratio (z) = 0.06641 0.06642
#
# Static dielectric constant tensor:
#      x y z
#    x 1.676210 0.000000 0.000000 
#    y 0.000000 1.676200 0.000000 
#    z 0.000000 0.000000 1.649970 
# 
# From -- ./inp_files/3837.got.cif
#   From: 2010.05.17/outbox.cif.g08.bks.cpg/sg128_2_cif.got.tgz:3837.got - 2010.05.20 12:07:25.
