data_PCOD9564245
_publ_section_title
;
Structure prediction by ZEFSAII (Michael W. Deem and Ramdas Pophale) SiO2 
 PCOD9564245
Probable space group: P 4/M B M
;
_chemical_formula_sum "Si O2"
_cell_formula_units_Z 116
_cell_length_a 16.496392
_cell_length_b 16.496392
_cell_length_c 21.089495
_cell_angle_alpha 90.000000
_cell_angle_beta 90.000000
_cell_angle_gamma 90.000000
_cell_volume 5739.104289
_symmetry_space_group_name_H-M "P 4/M B M"
_symmetry_group_IT_number 127
_symmetry_cell_setting 'tetragonal'
loop_
_space_group_symop_operation_xyz
x,y,z
-y,x,z
-x,-y,z
y,-x,z
1/2+x,1/2-y,-z
1/2-x,1/2+y,-z
1/2+y,1/2+x,-z
1/2-y,1/2-x,-z
-x,-y,-z
y,-x,-z
x,y,-z
-y,x,-z
1/2-x,1/2+y,z
1/2+x,1/2-y,z
1/2-y,1/2-x,z
1/2+y,1/2+x,z
loop_
_atom_site_type_symbol
_atom_site_label
_atom_site_fract_x
_atom_site_fract_y
_atom_site_fract_z
Si Si1 0.312120 0.681899 0.665914
Si Si2 0.401222 0.404731 0.223038
Si Si3 0.365744 0.331971 0.092541
Si Si4 0.675818 0.955142 0.672869
Si Si5 0.499731 0.136814 0.185293
Si Si6 0.259714 0.480910 0.068361
Si Si7 0.411156 0.774794 0.429320
Si Si8 0.303912 0.196089 0.000000
O O1 0.265277 0.765277 0.685364
O O2 0.375864 0.645513 0.714878
O O3 0.242676 0.614338 0.663300
O O4 0.359197 0.701732 0.601170
O O5 0.498170 0.390145 0.219530
O O6 0.364057 0.349303 0.167166
O O7 0.297427 0.392067 0.068217
O O8 0.460587 0.338364 0.074983
O O9 0.348683 0.248639 0.056654
O O10 0.588297 0.911704 0.664239
O O11 0.676550 0.988430 0.745188
O O12 0.696804 0.022579 0.621479
O O13 0.421958 0.078042 0.175200
O O14 0.506154 0.201473 0.128467
O O15 0.578545 0.078545 0.185515
O O16 0.217715 0.492544 0.000000
O O17 0.442781 0.756684 0.500000
O O18 0.348484 0.848484 0.434450
#
# Coordination Sequence:
#
# PCOD9564245 Si02
#       8
#    16  16  16  16  16  16  16   4
#     4  10  22  39  62  95 132 166 207 263 323 379
#     4  11  23  41  66  94 124 162 211 263 315 386
#     4  12  26  43  62  92 123 165 213 266 336 390
#     4  10  21  41  65  94 129 170 219 268 322 387
#     4  10  24  43  65  94 130 172 217 277 341 400
#     4  12  25  44  66  90 127 171 218 279 334 409
#     4  10  22  39  61  93 132 172 215 263 315 376
#     4  12  28  44  64  90 130 168 202 284 328 396
#
# _framework density 20.212212999999998
#
# number of rings (size 3 to 8) (size 9 to 14) (size 15 to 20)
#    0.000    1.241    2.759    2.069    4.828    2.483 
#    0.000    3.448    0.000    0.000    0.000    2.897 
#    0.000    0.000    0.000    0.000    0.000    0.000 
#
# Total GULP energy -645788.696453 kJ/mol
# GULP energy per Si atom -5567.143935 kJ/mol
# Density = 2.016621 g / cm^3
# Si number density = 20.212213 Si / 1000 Ang^3
#
#
#
# Elastic Constant Matrix: (Units=GPa)
#
#
# Indices 1 2 3 4 5 6 
#
# 1 55.1129 42.4710 60.4839 0.0000 0.0000 0.0000
# 2 42.4710 55.1134 60.4841 0.0000 0.0000 0.0000
# 3 60.4839 60.4841 180.0694 0.0000 0.0000 0.0000
# 4 0.0000 0.0000 0.0000 37.8552 0.0000 0.0000
# 5 0.0000 0.0000 0.0000 0.0000 37.8552 0.0000
# 6 0.0000 0.0000 0.0000 0.0000 0.0000 28.4290
#
#
#
# Elastic Compliance Matrix: (Units=1/GPa)
#
#
# Indices 1 2 3 4 5 6 
#
# 1 0.048330 -0.030771 -0.005898 0.000000 0.000000 0.000000
# 2 -0.030771 0.048329 -0.005898 0.000000 0.000000 0.000000
# 3 -0.005898 -0.005898 0.009515 0.000000 0.000000 0.000000
# 4 0.000000 0.000000 0.000000 0.026416 0.000000 0.000000
# 5 0.000000 0.000000 0.000000 0.000000 0.026416 0.000000
# 6 0.000000 0.000000 0.000000 0.000000 0.000000 0.035175
#
#
# Mechanical properties :
#
#
# Convention : Reuss Voigt Hill
#
# Bulk Modulus (GPa) = 47.52509 68.57486 58.04997
# Shear Modulus (GPa) = 17.46234 29.28500 23.37367
#
# Velocity S-wave (km/s) = 2.94249 3.81054 3.40430
# Velocity P-wave (km/s) = 5.92524 7.30489 6.65093
#
# Compressibility (1/GPa) = 0.02104152
#
# Stress axis : x y z
#
# Youngs Moduli (GPa) = 20.69110 20.69130 105.09181
#
# Poissons Ratio (x) = 0.63669 0.61982
# Poissons Ratio (y) = 0.63669 0.61981
# Poissons Ratio (z) = 0.12203 0.12203
#
# Static dielectric constant tensor:
#      x y z
#    x 1.791990 0.000000 0.000000 
#    y 0.000000 1.791990 0.000000 
#    z 0.000000 0.000000 1.804880 
# 
# From -- ./inp_files/5286.got.cif
#   From: 2010.05.17/outbox.cif.g08.bks.cpg/sg127_3_cif.got.tgz:5286.got - 2010.05.20 12:03:00.
