data_PCOD9564439
_publ_section_title
;
Structure prediction by ZEFSAII (Michael W. Deem and Ramdas Pophale) SiO2 
 PCOD9564439
Probable space group: P 4/M B M
;
_chemical_formula_sum "Si O2"
_cell_formula_units_Z 88
_cell_length_a 12.744223
_cell_length_b 12.744223
_cell_length_c 28.789660
_cell_angle_alpha 90.000000
_cell_angle_beta 90.000000
_cell_angle_gamma 90.000000
_cell_volume 4675.878959
_symmetry_space_group_name_H-M "P 4/M B M"
_symmetry_group_IT_number 127
_symmetry_cell_setting 'tetragonal'
loop_
_space_group_symop_operation_xyz
x,y,z
-y,x,z
-x,-y,z
y,-x,z
1/2+x,1/2-y,-z
1/2-x,1/2+y,-z
1/2+y,1/2+x,-z
1/2-y,1/2-x,-z
-x,-y,-z
y,-x,-z
x,y,-z
-y,x,-z
1/2-x,1/2+y,z
1/2+x,1/2-y,z
1/2-y,1/2-x,z
1/2+y,1/2+x,z
loop_
_atom_site_type_symbol
_atom_site_label
_atom_site_fract_x
_atom_site_fract_y
_atom_site_fract_z
Si Si1 0.676791 0.000000 0.000000
Si Si2 0.999988 0.823319 0.553291
Si Si3 0.000000 0.675748 0.359115
Si Si4 0.823381 0.500001 0.180413
Si Si5 0.323248 0.499999 0.090283
Si Si6 0.323647 0.500006 0.729836
O O1 0.748793 0.000001 0.954465
O O2 0.601140 0.101140 0.000000
O O3 0.601141 0.898860 0.000000
O O4 0.999985 0.784909 0.500000
O O5 0.100916 0.899070 0.559226
O O6 0.999984 0.733782 0.591503
O O7 0.101200 0.601200 0.354787
O O8 0.898809 0.601192 0.354777
O O9 0.000007 0.760905 0.318312
O O10 0.898863 0.601138 0.178797
O O11 0.746224 0.500002 0.136583
O O12 0.756836 0.499993 0.227548
O O13 0.898872 0.398872 0.178793
O O14 0.398863 0.398861 0.089525
O O15 0.398875 0.398881 0.732537
#
# Coordination Sequence:
#
# PCOD9564439 Si02
#       6
#     8  16  16  16  16  16
#     4  11  24  41  62  90 122 157 200 247 296 350
#     4   9  19  37  60  85 113 147 190 238 286 340
#     4  11  24  39  56  83 118 153 191 236 286 342
#     4  11  24  41  62  90 122 155 194 239 288 345
#     4  11  24  41  62  90 122 157 200 245 290 346
#     4  11  24  41  62  88 116 149 193 241 288 343
#
# _framework density 18.819991000000002
#
# number of rings (size 3 to 8) (size 9 to 14) (size 15 to 20)
#    0.000    1.364    0.000    5.455    0.000   17.455 
#    0.000    2.727    0.000    0.000    0.000    0.000 
#    0.000    0.000    0.000    0.000    0.000    0.000 
#
# Total GULP energy -492315.929618 kJ/mol
# GULP energy per Si atom -5594.499200 kJ/mol
# Density = 1.877716 g / cm^3
# Si number density = 18.819991 Si / 1000 Ang^3
#
#
#
# Elastic Constant Matrix: (Units=GPa)
#
#
# Indices 1 2 3 4 5 6 
#
# 1 146.9140 75.3569 80.1246 0.0000 0.0000 0.0000
# 2 75.3569 146.9143 80.1246 0.0000 0.0000 0.0000
# 3 80.1246 80.1246 144.5606 0.0000 0.0000 0.0000
# 4 0.0000 0.0000 0.0000 49.9347 0.0000 0.0000
# 5 0.0000 0.0000 0.0000 0.0000 49.9345 0.0000
# 6 0.0000 0.0000 0.0000 0.0000 0.0000 3.4093
#
#
#
# Elastic Compliance Matrix: (Units=1/GPa)
#
#
# Indices 1 2 3 4 5 6 
#
# 1 0.010734 -0.003241 -0.004153 0.000000 0.000000 0.000000
# 2 -0.003241 0.010734 -0.004153 0.000000 0.000000 0.000000
# 3 -0.004153 -0.004153 0.011522 0.000000 0.000000 0.000000
# 4 0.000000 0.000000 0.000000 0.020026 0.000000 0.000000
# 5 0.000000 0.000000 0.000000 0.000000 0.020026 0.000000
# 6 0.000000 0.000000 0.000000 0.000000 0.000000 0.293312
#
#
# Mechanical properties :
#
#
# Convention : Reuss Voigt Hill
#
# Bulk Modulus (GPa) = 101.05999 101.06677 101.06338
# Shear Modulus (GPa) = 12.73083 34.17457 23.45270
#
# Velocity S-wave (km/s) = 2.60369 4.26592 3.53393
# Velocity P-wave (km/s) = 7.92803 8.83643 8.39453
#
# Compressibility (1/GPa) = 0.00989511
#
# Stress axis : x y z
#
# Youngs Moduli (GPa) = 93.16088 93.16110 86.79381
#
# Poissons Ratio (x) = 0.30191 0.36048
# Poissons Ratio (y) = 0.30191 0.36048
# Poissons Ratio (z) = 0.38693 0.38693
#
# Static dielectric constant tensor:
#      x y z
#    x 1.626350 0.000000 0.000000 
#    y 0.000000 1.626350 0.000000 
#    z 0.000000 0.000000 1.613110 
# 
# From -- ./inp_files/6546.got.cif
#   From: 2010.05.17/outbox.cif.g08.bks.cpg/sg127_4_cif.got.tgz:6546.got - 2010.05.20 12:03:00.
