data_PCOD9564068
_publ_section_title
;
Structure prediction by ZEFSAII (Michael W. Deem and Ramdas Pophale) SiO2 
 PCOD9564068
Probable space group: P 4/M B M
;
_chemical_formula_sum "Si O2"
_cell_formula_units_Z 108
_cell_length_a 14.826863
_cell_length_b 14.826863
_cell_length_c 24.584295
_cell_angle_alpha 90.000000
_cell_angle_beta 90.000000
_cell_angle_gamma 90.000000
_cell_volume 5404.509792
_symmetry_space_group_name_H-M "P 4/M B M"
_symmetry_group_IT_number 127
_symmetry_cell_setting 'tetragonal'
loop_
_space_group_symop_operation_xyz
x,y,z
-y,x,z
-x,-y,z
y,-x,z
1/2+x,1/2-y,-z
1/2-x,1/2+y,-z
1/2+y,1/2+x,-z
1/2-y,1/2-x,-z
-x,-y,-z
y,-x,-z
x,y,-z
-y,x,-z
1/2-x,1/2+y,z
1/2+x,1/2-y,z
1/2-y,1/2-x,z
1/2+y,1/2+x,z
loop_
_atom_site_type_symbol
_atom_site_label
_atom_site_fract_x
_atom_site_fract_y
_atom_site_fract_z
Si Si1 0.651668 0.702712 0.436034
Si Si2 0.466535 0.704068 0.629127
Si Si3 0.945671 0.296082 0.725153
Si Si4 0.006649 0.352994 0.843873
Si Si5 0.623571 0.411456 0.220679
Si Si6 0.000000 0.000000 0.339480
Si Si7 0.278857 0.625802 0.109933
Si Si8 0.904499 0.118285 0.000000
O O1 0.648211 0.680470 0.500000
O O2 0.703253 0.796748 0.428966
O O3 0.707238 0.625703 0.404291
O O4 0.551422 0.706875 0.411878
O O5 0.486645 0.775805 0.676265
O O6 0.467144 0.605259 0.656102
O O7 0.877270 0.377270 0.713464
O O8 0.996278 0.318709 0.781872
O O9 0.888259 0.204515 0.737947
O O10 0.933645 0.433645 0.848291
O O11 0.968339 0.276836 0.883786
O O12 0.104021 0.395980 0.854620
O O13 0.618539 0.520494 0.226027
O O14 0.655665 0.377198 0.161847
O O15 0.206894 0.706894 0.114912
O O16 0.332142 0.629646 0.054009
O O17 0.013443 0.121685 0.000000
#
# Coordination Sequence:
#
# PCOD9564068 Si02
#       8
#    16  16  16  16  16   4  16   8
#     4  10  21  37  58  84 114 150 193 241 295 354
#     4  10  20  35  57  82 113 148 188 239 294 346
#     4  10  21  35  53  81 114 147 185 236 287 338
#     4   8  16  34  56  76 107 149 185 218 268 334
#     4  10  21  35  57  81 114 153 190 226 281 344
#     4   8  20  32  53  76 108 140 180 221 284 336
#     4  10  20  38  60  85 115 148 187 238 285 333
#     4  11  23  40  62  83 113 147 190 237 292 347
#
# _framework density 19.983309999999999
#
# number of rings (size 3 to 8) (size 9 to 14) (size 15 to 20)
#    0.000    2.296    0.000    3.333    4.148    1.778 
#    0.000   12.963    0.000    3.111    0.000    5.185 
#    0.000    0.000    0.000    0.000    0.000    0.000 
#
# Total GULP energy -601837.976179 kJ/mol
# GULP energy per Si atom -5572.573854 kJ/mol
# Density = 1.993783 g / cm^3
# Si number density = 19.983310 Si / 1000 Ang^3
#
#
#
# Elastic Constant Matrix: (Units=GPa)
#
#
# Indices 1 2 3 4 5 6 
#
# 1 46.9357 0.9653 -0.8085 0.0000 0.0000 0.0000
# 2 0.9653 46.9357 -0.8085 0.0000 0.0000 0.0000
# 3 -0.8085 -0.8085 68.6324 0.0000 0.0000 0.0000
# 4 0.0000 0.0000 0.0000 18.4457 0.0000 0.0000
# 5 0.0000 0.0000 0.0000 0.0000 18.4457 0.0000
# 6 0.0000 0.0000 0.0000 0.0000 0.0000 26.9984
#
#
#
# Elastic Compliance Matrix: (Units=1/GPa)
#
#
# Indices 1 2 3 4 5 6 
#
# 1 0.021319 -0.000434 0.000246 0.000000 0.000000 0.000000
# 2 -0.000434 0.021319 0.000246 0.000000 0.000000 0.000000
# 3 0.000246 0.000246 0.014576 0.000000 0.000000 0.000000
# 4 0.000000 0.000000 0.000000 0.054213 0.000000 0.000000
# 5 0.000000 0.000000 0.000000 0.000000 0.054213 0.000000
# 6 0.000000 0.000000 0.000000 0.000000 0.000000 0.037039
#
#
# Mechanical properties :
#
#
# Convention : Reuss Voigt Hill
#
# Bulk Modulus (GPa) = 17.44300 17.91118 17.67709
# Shear Modulus (GPa) = 22.55568 23.65499 23.10534
#
# Velocity S-wave (km/s) = 3.36330 3.44428 3.40403
# Velocity P-wave (km/s) = 4.88161 4.97996 4.93103
#
# Compressibility (1/GPa) = 0.05732958
#
# Stress axis : x y z
#
# Youngs Moduli (GPa) = 46.90674 46.90674 68.60511
#
# Poissons Ratio (x) = 0.02037 -0.01688
# Poissons Ratio (y) = 0.02037 -0.01688
# Poissons Ratio (z) = -0.01154 -0.01154
#
# Static dielectric constant tensor:
#      x y z
#    x 1.718080 0.000000 0.000000 
#    y 0.000000 1.718080 0.000000 
#    z 0.000000 0.000000 1.715680 
# 
# From -- ./inp_files/6216.got.cif
#   From: 2010.05.17/outbox.cif.g08.bks.cpg/sg127_4_cif.got.tgz:6216.got - 2010.05.20 12:03:00.
