data_PCOD9564850
_publ_section_title
;
Structure prediction by ZEFSAII (Michael W. Deem and Ramdas Pophale) SiO2 
 PCOD9564850
Probable space group: P 4/M N C
;
_chemical_formula_sum "Si O2"
_cell_formula_units_Z 72
_cell_length_a 14.402079
_cell_length_b 14.402079
_cell_length_c 14.604845
_cell_angle_alpha 90.000000
_cell_angle_beta 90.000000
_cell_angle_gamma 90.000000
_cell_volume 3029.335190
_symmetry_space_group_name_H-M "P 4/M N C"
_symmetry_group_IT_number 128
_symmetry_cell_setting 'tetragonal'
loop_
_space_group_symop_operation_xyz
x,y,z
-y,x,z
-x,-y,z
y,-x,z
1/2+x,1/2-y,1/2-z
1/2-x,1/2+y,1/2-z
1/2+y,1/2+x,1/2-z
1/2-y,1/2-x,1/2-z
-x,-y,-z
y,-x,-z
x,y,-z
-y,x,-z
1/2-x,1/2+y,1/2+z
1/2+x,1/2-y,1/2+z
1/2-y,1/2-x,1/2+z
1/2+y,1/2+x,1/2+z
loop_
_atom_site_type_symbol
_atom_site_label
_atom_site_fract_x
_atom_site_fract_y
_atom_site_fract_z
Si Si1 0.507740 0.109433 0.893321
Si Si2 0.702846 0.205729 0.639315
Si Si3 0.102995 0.887906 0.144999
Si Si4 0.588344 0.723100 0.164611
Si Si5 0.505839 0.348265 0.000000
O O1 0.615563 0.144387 0.890615
O O2 0.441710 0.169238 0.824652
O O3 0.500000 0.000000 0.873251
O O4 0.475573 0.122296 0.000000
O O5 0.700825 0.200825 0.750000
O O6 0.663292 0.305514 0.609522
O O7 0.811928 0.212947 0.617069
O O8 0.094057 0.847248 0.250148
O O9 0.995175 0.875795 0.120789
O O10 0.503669 0.699654 0.096811
O O11 0.589786 0.415231 0.000000
#
# Coordination Sequence:
#
# PCOD9564850 Si02
#       5
#    16  16  16  16   8
#     4  11  25  43  65  99 140 183 233 290 352 420
#     4  10  23  40  64  94 131 181 226 273 343 412
#     4  10  21  39  64  91 126 165 220 279 330 398
#     4  11  21  37  61  90 130 167 221 276 339 405
#     4  11  20  30  55  90 124 161 205 266 342 402
#
# _framework density 23.767593000000002
#
# number of rings (size 3 to 8) (size 9 to 14) (size 15 to 20)
#    0.000    1.444    1.111    5.333    4.667    2.222 
#    4.000    0.000    0.000    0.000    0.000    1.556 
#    0.000    0.000    0.000    0.000    0.000    0.000 
#
# Total GULP energy -400944.669568 kJ/mol
# GULP energy per Si atom -5568.675966 kJ/mol
# Density = 2.371350 g / cm^3
# Si number density = 23.767593 Si / 1000 Ang^3
#
#
#
# Elastic Constant Matrix: (Units=GPa)
#
#
# Indices 1 2 3 4 5 6 
#
# 1 143.3392 66.7073 7.5592 0.0000 0.0000 0.0000
# 2 66.7073 143.3392 7.5592 0.0000 0.0000 0.0000
# 3 7.5592 7.5592 67.3745 0.0000 0.0000 0.0000
# 4 0.0000 0.0000 0.0000 -0.8716 0.0000 0.0000
# 5 0.0000 0.0000 0.0000 0.0000 -0.8716 0.0000
# 6 0.0000 0.0000 0.0000 0.0000 0.0000 47.8835
#
#
#
# Elastic Compliance Matrix: (Units=1/GPa)
#
#
# Indices 1 2 3 4 5 6 
#
# 1 0.008925 -0.004125 -0.000538 0.000000 0.000000 0.000000
# 2 -0.004125 0.008925 -0.000538 0.000000 0.000000 0.000000
# 3 -0.000538 -0.000538 0.014963 0.000000 0.000000 0.000000
# 4 0.000000 0.000000 0.000000 -1.147283 0.000000 0.000000
# 5 0.000000 0.000000 0.000000 0.000000 -1.147283 0.000000
# 6 0.000000 0.000000 0.000000 0.000000 0.000000 0.020884
#
#
# Mechanical properties :
#
#
# Convention : Reuss Voigt Hill
#
# Bulk Modulus (GPa) = 44.62599 57.52271 51.07435
# Shear Modulus (GPa) = -2.24922 27.37653 12.56366
#
# Velocity S-wave (km/s) = -0.97385 3.39756 2.30163
# Velocity P-wave (km/s) = 4.18954 6.29650 5.34781
#
# Compressibility (1/GPa) = 0.02240847
#
# Stress axis : x y z
#
# Youngs Moduli (GPa) = 112.05105 112.05105 66.83041
#
# Poissons Ratio (x) = 0.46220 0.03599
# Poissons Ratio (y) = 0.46220 0.03599
# Poissons Ratio (z) = 0.06034 0.06034
#
# Static dielectric constant tensor:
#      x y z
#    x 1.947450 0.000000 0.000000 
#    y 0.000000 1.947450 0.000000 
#    z 0.000000 0.000000 2.123020 
# 
# From -- ./inp_files/4579.got.cif
#   From: 2010.05.17/outbox.cif.g08.bks.cpg/sg128_3_cif.got.tgz:4579.got - 2010.05.20 12:07:25.
