data_PCOD9564022
_publ_section_title
;
Structure prediction by ZEFSAII (Michael W. Deem and Ramdas Pophale) SiO2 
 PCOD9564022
Probable space group: P 4/M B M
;
_chemical_formula_sum "Si O2"
_cell_formula_units_Z 72
_cell_length_a 21.887292
_cell_length_b 21.887292
_cell_length_c 8.474767
_cell_angle_alpha 90.000000
_cell_angle_beta 90.000000
_cell_angle_gamma 90.000000
_cell_volume 4059.867226
_symmetry_space_group_name_H-M "P 4/M B M"
_symmetry_group_IT_number 127
_symmetry_cell_setting 'tetragonal'
loop_
_space_group_symop_operation_xyz
x,y,z
-y,x,z
-x,-y,z
y,-x,z
1/2+x,1/2-y,-z
1/2-x,1/2+y,-z
1/2+y,1/2+x,-z
1/2-y,1/2-x,-z
-x,-y,-z
y,-x,-z
x,y,-z
-y,x,-z
1/2-x,1/2+y,z
1/2+x,1/2-y,z
1/2-y,1/2-x,z
1/2+y,1/2+x,z
loop_
_atom_site_type_symbol
_atom_site_label
_atom_site_fract_x
_atom_site_fract_y
_atom_site_fract_z
Si Si1 0.182413 0.488927 0.812575
Si Si2 0.880491 0.280716 0.687388
Si Si3 0.550203 0.050203 0.311690
Si Si4 0.399718 0.349933 0.190879
Si Si5 0.818231 0.036662 0.807563
O O1 0.191842 0.560160 0.772706
O O2 0.118980 0.466087 0.740703
O O3 0.247046 0.459138 0.757005
O O4 0.178782 0.480451 0.000000
O O5 0.892323 0.280765 0.500000
O O6 0.822935 0.322935 0.720193
O O7 0.870579 0.212379 0.747061
O O8 0.547867 0.047867 0.500000
O O9 0.500000 0.000000 0.252063
O O10 0.361644 0.408493 0.245420
O O11 0.470843 0.345579 0.240347
O O12 0.399099 0.349667 0.000000
O O13 0.817469 0.037081 0.000000
#
# Coordination Sequence:
#
# PCOD9564022 Si02
#       5
#    16  16   8  16  16
#     4  10  20  35  55  78 105 135 172 216 263 311
#     4  10  20  34  51  73 102 134 172 215 257 304
#     4  11  23  37  53  77 107 141 179 215 261 316
#     4   9  17  32  53  76 103 134 170 211 259 309
#     4   8  16  31  52  78 104 131 168 214 259 305
#
# _framework density 17.734570000000001
#
# number of rings (size 3 to 8) (size 9 to 14) (size 15 to 20)
#    0.000    2.556    0.000    3.667    0.000    5.778 
#    2.000    7.778    0.000    0.000    0.000    6.222 
#    0.000    0.000    0.000    0.000    0.000    0.000 
#
# Total GULP energy -401394.964117 kJ/mol
# GULP energy per Si atom -5574.930057 kJ/mol
# Density = 1.769421 g / cm^3
# Si number density = 17.734570 Si / 1000 Ang^3
#
#
#
# Elastic Constant Matrix: (Units=GPa)
#
#
# Indices 1 2 3 4 5 6 
#
# 1 117.6756 101.3352 25.1959 0.0000 0.0000 0.0000
# 2 101.3352 117.6756 25.1959 0.0000 0.0000 0.0000
# 3 25.1959 25.1959 16.9097 0.0000 0.0000 0.0000
# 4 0.0000 0.0000 0.0000 -115.9187 0.0000 0.0000
# 5 0.0000 0.0000 0.0000 0.0000 -115.9187 0.0000
# 6 0.0000 0.0000 0.0000 0.0000 0.0000 31.1751
#
#
#
# Elastic Compliance Matrix: (Units=1/GPa)
#
#
# Indices 1 2 3 4 5 6 
#
# 1 0.034073 -0.027125 -0.010353 0.000000 0.000000 0.000000
# 2 -0.027125 0.034073 -0.010353 0.000000 0.000000 0.000000
# 3 -0.010353 -0.010353 0.089989 0.000000 0.000000 0.000000
# 4 0.000000 0.000000 0.000000 -0.008627 0.000000 0.000000
# 5 0.000000 0.000000 0.000000 0.000000 -0.008627 0.000000
# 6 0.000000 0.000000 0.000000 0.000000 0.000000 0.032077
#
#
# Mechanical properties :
#
#
# Convention : Reuss Voigt Hill
#
# Bulk Modulus (GPa) = 16.00659 61.74609 38.87634
# Shear Modulus (GPa) = 17.27450 -33.43019 -8.07785
#
# Velocity S-wave (km/s) = 3.12438 -4.34640 -2.13653
# Velocity P-wave (km/s) = 4.69690 3.11514 3.98528
#
# Compressibility (1/GPa) = 0.06247429
#
# Stress axis : x y z
#
# Youngs Moduli (GPa) = 29.34872 29.34872 11.11246
#
# Poissons Ratio (x) = 0.79608 0.11504
# Poissons Ratio (y) = 0.79608 0.11504
# Poissons Ratio (z) = 0.30384 0.30384
#
# Static dielectric constant tensor:
#      x y z
#    x 1.595680 0.000000 0.000000 
#    y 0.000000 1.595680 0.000000 
#    z 0.000000 0.000000 1.607670 
# 
# From -- ./inp_files/1563.got.cif
#   From: 2010.05.17/outbox.cif.g08.bks.cpg/sg127_1_cif.got.tgz:1563.got - 2010.05.20 12:03:00.
