data_PCOD9564541
_publ_section_title
;
Structure prediction by ZEFSAII (Michael W. Deem and Ramdas Pophale) SiO2 
 PCOD9564541
Probable space group: P 4/M N C
;
_chemical_formula_sum "Si O2"
_cell_formula_units_Z 120
_cell_length_a 28.686084
_cell_length_b 28.686084
_cell_length_c 7.877574
_cell_angle_alpha 90.000000
_cell_angle_beta 90.000000
_cell_angle_gamma 90.000000
_cell_volume 6482.388018
_symmetry_space_group_name_H-M "P 4/M N C"
_symmetry_group_IT_number 128
_symmetry_cell_setting 'tetragonal'
loop_
_space_group_symop_operation_xyz
x,y,z
-y,x,z
-x,-y,z
y,-x,z
1/2+x,1/2-y,1/2-z
1/2-x,1/2+y,1/2-z
1/2+y,1/2+x,1/2-z
1/2-y,1/2-x,1/2-z
-x,-y,-z
y,-x,-z
x,y,-z
-y,x,-z
1/2-x,1/2+y,1/2+z
1/2+x,1/2-y,1/2+z
1/2-y,1/2-x,1/2+z
1/2+y,1/2+x,1/2+z
loop_
_atom_site_type_symbol
_atom_site_label
_atom_site_fract_x
_atom_site_fract_y
_atom_site_fract_z
Si Si1 0.761619 0.663489 0.308054
Si Si2 0.826708 0.937795 0.298452
Si Si3 0.761886 0.063884 0.208977
Si Si4 0.962759 0.866966 0.695001
Si Si5 0.807750 0.838041 0.302412
Si Si6 0.541109 0.433119 0.500000
Si Si7 0.531254 0.773788 0.306444
Si Si8 0.205151 0.629302 0.295518
O O1 0.797025 0.702976 0.250000
O O2 0.775046 0.654341 0.500000
O O3 0.759069 0.612387 0.226391
O O4 0.708671 0.681612 0.297421
O O5 0.814663 0.936044 0.500000
O O6 0.836760 0.884276 0.250469
O O7 0.780253 0.952043 0.197832
O O8 0.861597 0.980897 0.281392
O O9 0.815033 0.057129 0.271554
O O10 0.730745 0.020136 0.269234
O O11 0.764110 0.062681 0.000000
O O12 0.952937 0.880389 0.500000
O O13 0.945812 0.903672 0.833247
O O14 0.817259 0.828333 0.500000
O O15 0.753415 0.850946 0.279619
O O16 0.561149 0.484945 0.500000
O O17 0.525731 0.789865 0.500000
O O18 0.575899 0.800352 0.232325
O O19 0.162896 0.662896 0.250000
O O20 0.210520 0.628051 0.500000
#
# Coordination Sequence:
#
# PCOD9564541 Si02
#       8
#    16  16  16  16  16   8  16  16
#     4  11  23  36  50  71 103 139 175 209 253 307
#     4   8  16  29  48  76 100 125 164 213 262 304
#     4   9  18  36  58  79 101 131 174 223 267 311
#     4  10  20  38  63  86 107 135 178 231 283 335
#     4  10  19  32  47  67 101 137 175 213 251 302
#     4  11  26  44  58  78 108 140 176 226 292 351
#     4   8  15  28  48  69  92 124 162 203 248 296
#     4  10  18  28  44  68  97 131 164 197 249 308
#
# _framework density 18.511697000000002
#
# number of rings (size 3 to 8) (size 9 to 14) (size 15 to 20)
#    0.000    2.467    0.667    1.600    0.933    3.733 
#    0.000    2.000    0.000    0.000    0.000    0.000 
#    0.000    0.533    0.000    6.667    0.000    0.000 
#
# Total GULP energy -669109.393793 kJ/mol
# GULP energy per Si atom -5575.911615 kJ/mol
# Density = 1.846956 g / cm^3
# Si number density = 18.511697 Si / 1000 Ang^3
#
#
#
# Elastic Constant Matrix: (Units=GPa)
#
#
# Indices 1 2 3 4 5 6 
#
# 1 77.6323 38.7173 10.7257 0.0000 0.0000 0.0000
# 2 38.7173 77.6140 10.7219 0.0000 0.0000 0.0000
# 3 10.7257 10.7219 52.5484 0.0000 0.0000 0.0000
# 4 0.0000 0.0000 0.0000 3.0765 0.0000 0.0000
# 5 0.0000 0.0000 0.0000 0.0000 3.0797 0.0000
# 6 0.0000 0.0000 0.0000 0.0000 0.0000 11.3577
#
#
#
# Elastic Compliance Matrix: (Units=1/GPa)
#
#
# Indices 1 2 3 4 5 6 
#
# 1 0.017315 -0.008386 -0.001823 0.000000 0.000000 0.000000
# 2 -0.008386 0.017319 -0.001822 0.000000 0.000000 0.000000
# 3 -0.001823 -0.001822 0.019774 0.000000 0.000000 0.000000
# 4 0.000000 0.000000 0.000000 0.325044 0.000000 0.000000
# 5 0.000000 0.000000 0.000000 0.000000 0.324705 0.000000
# 6 0.000000 0.000000 0.000000 0.000000 0.000000 0.088046
#
#
# Mechanical properties :
#
#
# Convention : Reuss Voigt Hill
#
# Bulk Modulus (GPa) = 32.95303 36.45827 34.70565
# Shear Modulus (GPa) = 6.05048 13.34478 9.69763
#
# Velocity S-wave (km/s) = 1.80985 2.68784 2.29129
# Velocity P-wave (km/s) = 4.71246 5.41942 5.07826
#
# Compressibility (1/GPa) = 0.03034622
#
# Stress axis : x y z
#
# Youngs Moduli (GPa) = 57.75221 57.73939 50.57141
#
# Poissons Ratio (x) = 0.48419 0.09220
# Poissons Ratio (y) = 0.48430 0.09215
# Poissons Ratio (z) = 0.10530 0.10521
#
# Static dielectric constant tensor:
#      x y z
#    x 1.668680 0.000000 0.000000 
#    y 0.000000 1.668670 0.000000 
#    z 0.000000 0.000000 1.672970 
# 
# From -- ./inp_files/1772.got.cif
#   From: 2010.05.17/outbox.cif.g08.bks.cpg/sg128_1_cif.got.tgz:1772.got - 2010.05.20 12:07:25.
