data_PCOD9564209
_publ_section_title
;
Structure prediction by ZEFSAII (Michael W. Deem and Ramdas Pophale) SiO2 
 PCOD9564209
Probable space group: P 4/M B M
;
_chemical_formula_sum "Si O2"
_cell_formula_units_Z 96
_cell_length_a 15.010767
_cell_length_b 15.010767
_cell_length_c 24.502369
_cell_angle_alpha 90.000000
_cell_angle_beta 90.000000
_cell_angle_gamma 90.000000
_cell_volume 5520.950376
_symmetry_space_group_name_H-M "P 4/M B M"
_symmetry_group_IT_number 127
_symmetry_cell_setting 'tetragonal'
loop_
_space_group_symop_operation_xyz
x,y,z
-y,x,z
-x,-y,z
y,-x,z
1/2+x,1/2-y,-z
1/2-x,1/2+y,-z
1/2+y,1/2+x,-z
1/2-y,1/2-x,-z
-x,-y,-z
y,-x,-z
x,y,-z
-y,x,-z
1/2-x,1/2+y,z
1/2+x,1/2-y,z
1/2-y,1/2-x,z
1/2+y,1/2+x,z
loop_
_atom_site_type_symbol
_atom_site_label
_atom_site_fract_x
_atom_site_fract_y
_atom_site_fract_z
Si Si1 0.274380 0.449299 0.827054
Si Si2 0.213023 0.136760 0.227033
Si Si3 0.062972 0.136598 0.059444
Si Si4 0.572707 0.072707 0.680616
Si Si5 0.428959 0.928959 0.811798
Si Si6 0.283641 0.065440 0.342342
Si Si7 0.856715 0.956315 0.437428
O O1 0.300907 0.549458 0.810501
O O2 0.306000 0.376653 0.782164
O O3 0.310565 0.418337 0.885604
O O4 0.168930 0.452332 0.830020
O O5 0.297616 0.202385 0.214133
O O6 0.233059 0.096122 0.286977
O O7 0.957968 0.113098 0.060878
O O8 0.082451 0.178673 0.000000
O O9 0.571192 0.071192 0.746061
O O10 0.531028 0.167578 0.663636
O O11 0.500000 0.000000 0.661434
O O12 0.500000 0.000000 0.831195
O O13 0.361244 0.138757 0.349902
O O14 0.217051 0.064110 0.392814
O O15 0.824895 0.946665 0.500000
O O16 0.942993 0.893221 0.430749
#
# Coordination Sequence:
#
# PCOD9564209 Si02
#       7
#    16  16  16   8   8  16  16
#     4  12  21  37  61  84 122 151 195 243 292 356
#     4  11  24  37  54  90 123 154 192 243 296 353
#     4   9  18  34  56  83 114 147 186 238 299 353
#     4   9  18  36  57  81 115 159 187 219 282 348
#     4  11  22  38  59  81 115 172 193 220 290 365
#     4  10  21  37  59  87 119 149 193 241 288 350
#     4   9  20  40  60  79 111 154 193 234 290 346
#
# _framework density 17.388310000000001
#
# number of rings (size 3 to 8) (size 9 to 14) (size 15 to 20)
#    0.000    1.833    4.167    1.500    2.333    0.667 
#    1.500    0.833    0.000    5.000    0.000    0.000 
#    0.000    0.000    0.000    0.000    0.000    0.000 
#
# Total GULP energy -534946.469300 kJ/mol
# GULP energy per Si atom -5572.359055 kJ/mol
# Density = 1.734873 g / cm^3
# Si number density = 17.388310 Si / 1000 Ang^3
#
#
#
# Elastic Constant Matrix: (Units=GPa)
#
#
# Indices 1 2 3 4 5 6 
#
# 1 91.4027 7.3850 36.1625 0.0000 0.0000 0.0000
# 2 7.3850 91.4027 36.1625 0.0000 0.0000 0.0000
# 3 36.1625 36.1625 104.6241 0.0000 0.0000 0.0000
# 4 0.0000 0.0000 0.0000 29.4905 0.0000 0.0000
# 5 0.0000 0.0000 0.0000 0.0000 29.4905 0.0000
# 6 0.0000 0.0000 0.0000 0.0000 0.0000 18.3667
#
#
#
# Elastic Compliance Matrix: (Units=1/GPa)
#
#
# Indices 1 2 3 4 5 6 
#
# 1 0.012727 0.000825 -0.004684 0.000000 0.000000 0.000000
# 2 0.000825 0.012727 -0.004684 0.000000 0.000000 0.000000
# 3 -0.004684 -0.004684 0.012796 0.000000 0.000000 0.000000
# 4 0.000000 0.000000 0.000000 0.033909 0.000000 0.000000
# 5 0.000000 0.000000 0.000000 0.000000 0.033909 0.000000
# 6 0.000000 0.000000 0.000000 0.000000 0.000000 0.054447
#
#
# Mechanical properties :
#
#
# Convention : Reuss Voigt Hill
#
# Bulk Modulus (GPa) = 47.25084 49.64993 48.45039
# Shear Modulus (GPa) = 27.07726 29.31751 28.19738
#
# Velocity S-wave (km/s) = 3.95043 4.11060 4.03131
# Velocity P-wave (km/s) = 6.93115 7.15158 7.04222
#
# Compressibility (1/GPa) = 0.02116365
#
# Stress axis : x y z
#
# Youngs Moduli (GPa) = 78.57199 78.57199 78.14872
#
# Poissons Ratio (x) = -0.06482 0.36606
# Poissons Ratio (y) = -0.06482 0.36606
# Poissons Ratio (z) = 0.36804 0.36804
#
# Static dielectric constant tensor:
#      x y z
#    x 1.589400 0.000000 0.000000 
#    y 0.000000 1.589400 0.000000 
#    z 0.000000 0.000000 1.587490 
# 
# From -- ./inp_files/5845.got.cif
#   From: 2010.05.17/outbox.cif.g08.bks.cpg/sg127_3_cif.got.tgz:5845.got - 2010.05.20 12:03:00.
