data_PCOD9564007
_publ_section_title
;
Structure prediction by ZEFSAII (Michael W. Deem and Ramdas Pophale) SiO2 
 PCOD9564007
Probable space group: P 4/M B M
;
_chemical_formula_sum "Si O2"
_cell_formula_units_Z 96
_cell_length_a 24.721366
_cell_length_b 24.721366
_cell_length_c 7.897870
_cell_angle_alpha 90.000000
_cell_angle_beta 90.000000
_cell_angle_gamma 90.000000
_cell_volume 4826.751161
_symmetry_space_group_name_H-M "P 4/M B M"
_symmetry_group_IT_number 127
_symmetry_cell_setting 'tetragonal'
loop_
_space_group_symop_operation_xyz
x,y,z
-y,x,z
-x,-y,z
y,-x,z
1/2+x,1/2-y,-z
1/2-x,1/2+y,-z
1/2+y,1/2+x,-z
1/2-y,1/2-x,-z
-x,-y,-z
y,-x,-z
x,y,-z
-y,x,-z
1/2-x,1/2+y,z
1/2+x,1/2-y,z
1/2-y,1/2-x,z
1/2+y,1/2+x,z
loop_
_atom_site_type_symbol
_atom_site_label
_atom_site_fract_x
_atom_site_fract_y
_atom_site_fract_z
Si Si1 0.431495 0.701034 0.798468
Si Si2 0.791313 0.482025 0.703643
Si Si3 0.687325 0.273114 0.202356
Si Si4 0.469712 0.581398 0.704021
Si Si5 0.499622 0.912648 0.293295
Si Si6 0.773975 0.360952 0.704802
O O1 0.475742 0.744660 0.744046
O O2 0.372639 0.717868 0.727845
O O3 0.448562 0.640168 0.752343
O O4 0.427888 0.702763 0.000000
O O5 0.795337 0.478384 0.500000
O O6 0.850984 0.498748 0.766239
O O7 0.776322 0.422164 0.766689
O O8 0.722396 0.222396 0.270606
O O9 0.723110 0.326398 0.233865
O O10 0.683309 0.265649 0.000000
O O11 0.432289 0.531028 0.762042
O O12 0.470435 0.579564 0.500000
O O13 0.499003 0.912136 0.500000
O O14 0.552765 0.947236 0.244485
O O15 0.447562 0.947562 0.238891
O O16 0.772136 0.361346 0.500000
O O17 0.827414 0.327414 0.755067
#
# Coordination Sequence:
#
# PCOD9564007 Si02
#       6
#    16  16  16  16  16  16
#     4  11  24  37  53  80 111 146 184 222 265 318
#     4  10  20  33  51  79 111 141 175 220 270 318
#     4   9  20  39  57  73 101 142 182 219 262 312
#     4   9  20  40  63  84 107 138 175 219 276 333
#     4   8  14  27  50  79 109 141 178 223 273 320
#     4   9  18  33  55  81 105 133 173 222 270 313
#
# _framework density 19.889154000000001
#
# number of rings (size 3 to 8) (size 9 to 14) (size 15 to 20)
#    0.000    2.667    0.000    2.000    2.333    5.333 
#    0.000    0.833    0.000    1.500    0.000    1.167 
#    0.000    0.000    0.000    0.000    0.000    0.000 
#
# Total GULP energy -535673.229256 kJ/mol
# GULP energy per Si atom -5579.929471 kJ/mol
# Density = 1.984389 g / cm^3
# Si number density = 19.889154 Si / 1000 Ang^3
#
#
#
# Elastic Constant Matrix: (Units=GPa)
#
#
# Indices 1 2 3 4 5 6 
#
# 1 151.8427 139.1416 3.4464 0.0000 0.0000 0.0000
# 2 139.1416 151.8427 3.4464 0.0000 0.0000 0.0000
# 3 3.4464 3.4464 17.2535 0.0000 0.0000 0.0000
# 4 0.0000 0.0000 0.0000 -39.5254 0.0000 0.0000
# 5 0.0000 0.0000 0.0000 0.0000 -39.5254 0.0000
# 6 0.0000 0.0000 0.0000 0.0000 0.0000 9.5086
#
#
#
# Elastic Compliance Matrix: (Units=1/GPa)
#
#
# Indices 1 2 3 4 5 6 
#
# 1 0.041093 -0.037640 -0.000690 0.000000 0.000000 0.000000
# 2 -0.037640 0.041093 -0.000690 0.000000 0.000000 0.000000
# 3 -0.000690 -0.000690 0.058235 0.000000 0.000000 0.000000
# 4 0.000000 0.000000 0.000000 -0.025300 0.000000 0.000000
# 5 0.000000 0.000000 0.000000 0.000000 -0.025300 0.000000
# 6 0.000000 0.000000 0.000000 0.000000 0.000000 0.105168
#
#
# Mechanical properties :
#
#
# Convention : Reuss Voigt Hill
#
# Bulk Modulus (GPa) = 16.03030 68.11197 42.07113
# Shear Modulus (GPa) = 17.01703 -2.24814 7.38445
#
# Velocity S-wave (km/s) = 2.92823 -1.06433 1.92895
# Velocity P-wave (km/s) = 4.41701 5.72798 5.11467
#
# Compressibility (1/GPa) = 0.06238188
#
# Stress axis : x y z
#
# Youngs Moduli (GPa) = 24.33481 24.33481 17.17183
#
# Poissons Ratio (x) = 0.91597 0.01184
# Poissons Ratio (y) = 0.91597 0.01184
# Poissons Ratio (z) = 0.01678 0.01678
#
# Static dielectric constant tensor:
#      x y z
#    x 1.722120 0.000000 0.000000 
#    y 0.000000 1.722120 0.000000 
#    z 0.000000 0.000000 1.729860 
# 
# From -- ./inp_files/1942.got.cif
#   From: 2010.05.17/outbox.cif.g08.bks.cpg/sg127_1_cif.got.tgz:1942.got - 2010.05.20 12:03:00.
