data_PCOD9564925
_publ_section_title
;
Structure prediction by ZEFSAII (Michael W. Deem and Ramdas Pophale) SiO2 
 PCOD9564925
Probable space group: P 4/M N C
;
_chemical_formula_sum "Si O2"
_cell_formula_units_Z 88
_cell_length_a 10.187534
_cell_length_b 10.187534
_cell_length_c 30.905528
_cell_angle_alpha 90.000000
_cell_angle_beta 90.000000
_cell_angle_gamma 90.000000
_cell_volume 3207.556462
_symmetry_space_group_name_H-M "P 4/M N C"
_symmetry_group_IT_number 128
_symmetry_cell_setting 'tetragonal'
loop_
_space_group_symop_operation_xyz
x,y,z
-y,x,z
-x,-y,z
y,-x,z
1/2+x,1/2-y,1/2-z
1/2-x,1/2+y,1/2-z
1/2+y,1/2+x,1/2-z
1/2-y,1/2-x,1/2-z
-x,-y,-z
y,-x,-z
x,y,-z
-y,x,-z
1/2-x,1/2+y,1/2+z
1/2+x,1/2-y,1/2+z
1/2-y,1/2-x,1/2+z
1/2+y,1/2+x,1/2+z
loop_
_atom_site_type_symbol
_atom_site_label
_atom_site_fract_x
_atom_site_fract_y
_atom_site_fract_z
Si Si1 0.788119 0.965328 0.552445
Si Si2 0.799177 0.451117 0.665641
Si Si3 0.384104 0.702559 0.273053
Si Si4 0.780610 0.136188 0.000000
Si Si5 0.800586 0.457512 0.567263
Si Si6 0.528279 0.706266 0.183049
O O1 0.780912 0.956769 0.500000
O O2 0.648607 0.917228 0.569259
O O3 0.897050 0.854249 0.564147
O O4 0.667661 0.397898 0.690157
O O5 0.826656 0.571675 0.697364
O O6 0.769157 0.487515 0.616648
O O7 0.913260 0.344397 0.669451
O O8 0.253363 0.753363 0.250000
O O9 0.495009 0.689226 0.235076
O O10 0.679988 0.084962 0.038039
O O11 0.885658 0.188584 0.037707
O O12 0.393844 0.642057 0.166676
#
# Coordination Sequence:
#
# PCOD9564925 Si02
#       6
#    16  16  16   8  16  16
#     4   9  18  38  70  96 123 175 233 284 347 417
#     4  12  26  42  71 108 136 186 249 295 340 436
#     4  12  23  46  69 100 141 190 235 293 366 420
#     4  10  22  45  67  96 142 184 209 277 356 408
#     4  11  23  43  69 100 141 180 231 282 347 424
#     4  11  23  45  71  97 137 190 236 299 366 415
#
# _framework density 27.435213000000001
#
# number of rings (size 3 to 8) (size 9 to 14) (size 15 to 20)
#    0.000    1.091    5.455    2.182    0.000    6.182 
#    0.000    7.273    4.000    0.000    0.000    0.000 
#    0.000    0.000    0.000    0.000    0.000    0.000 
#
# Total GULP energy -489872.588063 kJ/mol
# GULP energy per Si atom -5566.733955 kJ/mol
# Density = 2.737277 g / cm^3
# Si number density = 27.435213 Si / 1000 Ang^3
#
#
#
# Elastic Constant Matrix: (Units=GPa)
#
#
# Indices 1 2 3 4 5 6 
#
# 1 78.0705 10.8921 18.7495 0.0000 0.0000 0.0000
# 2 10.8921 78.0705 18.7495 0.0000 0.0000 0.0000
# 3 18.7495 18.7495 245.0621 0.0000 0.0000 0.0000
# 4 0.0000 0.0000 0.0000 44.4130 0.0000 0.0000
# 5 0.0000 0.0000 0.0000 0.0000 44.4130 0.0000
# 6 0.0000 0.0000 0.0000 0.0000 0.0000 41.7608
#
#
#
# Elastic Compliance Matrix: (Units=1/GPa)
#
#
# Indices 1 2 3 4 5 6 
#
# 1 0.013251 -0.001635 -0.000889 0.000000 0.000000 0.000000
# 2 -0.001635 0.013251 -0.000889 0.000000 0.000000 0.000000
# 3 -0.000889 -0.000889 0.004217 0.000000 0.000000 0.000000
# 4 0.000000 0.000000 0.000000 0.022516 0.000000 0.000000
# 5 0.000000 0.000000 0.000000 0.000000 0.022516 0.000000
# 6 0.000000 0.000000 0.000000 0.000000 0.000000 0.023946
#
#
# Mechanical properties :
#
#
# Convention : Reuss Voigt Hill
#
# Bulk Modulus (GPa) = 41.85427 55.33168 48.59297
# Shear Modulus (GPa) = 43.67397 49.63816 46.65607
#
# Velocity S-wave (km/s) = 3.99418 4.25819 4.12830
# Velocity P-wave (km/s) = 6.04650 6.66244 6.36193
#
# Compressibility (1/GPa) = 0.02389242
#
# Stress axis : x y z
#
# Youngs Moduli (GPa) = 75.46884 75.46884 237.15892
#
# Poissons Ratio (x) = 0.12341 0.21076
# Poissons Ratio (y) = 0.12341 0.21076
# Poissons Ratio (z) = 0.06707 0.06707
#
# Static dielectric constant tensor:
#      x y z
#    x 2.505720 0.000000 0.000000 
#    y 0.000000 2.505720 0.000000 
#    z 0.000000 0.000000 2.583210 
# 
# From -- ./inp_files/7282.got.cif
#   From: 2010.05.17/outbox.cif.g08.bks.cpg/sg128_4_cif.got.tgz:7282.got - 2010.05.20 12:07:25.
