data_PCOD9564130
_publ_section_title
;
Structure prediction by ZEFSAII (Michael W. Deem and Ramdas Pophale) SiO2 
 PCOD9564130
Probable space group: P 4/M B M
;
_chemical_formula_sum "Si O2"
_cell_formula_units_Z 54
_cell_length_a 14.985366
_cell_length_b 14.985366
_cell_length_c 10.633163
_cell_angle_alpha 90.000000
_cell_angle_beta 90.000000
_cell_angle_gamma 90.000000
_cell_volume 2387.795781
_symmetry_space_group_name_H-M "P 4/M B M"
_symmetry_group_IT_number 127
_symmetry_cell_setting 'tetragonal'
loop_
_space_group_symop_operation_xyz
x,y,z
-y,x,z
-x,-y,z
y,-x,z
1/2+x,1/2-y,-z
1/2-x,1/2+y,-z
1/2+y,1/2+x,-z
1/2-y,1/2-x,-z
-x,-y,-z
y,-x,-z
x,y,-z
-y,x,-z
1/2-x,1/2+y,z
1/2+x,1/2-y,z
1/2-y,1/2-x,z
1/2+y,1/2+x,z
loop_
_atom_site_type_symbol
_atom_site_label
_atom_site_fract_x
_atom_site_fract_y
_atom_site_fract_z
Si Si1 0.740232 0.970136 0.223571
Si Si2 0.725728 0.225728 0.500000
Si Si3 0.645223 0.525138 0.000000
Si Si4 0.500000 0.000000 0.500000
Si Si5 0.734117 0.765884 0.778600
Si Si6 0.718884 0.014190 0.500000
Si Si7 0.383918 0.883918 0.850192
O O1 0.799095 0.028161 0.127817
O O2 0.749681 0.868138 0.181117
O O3 0.760003 0.976399 0.371076
O O4 0.645727 0.020920 0.206290
O O5 0.765008 0.265008 0.627100
O O6 0.738656 0.119509 0.500000
O O7 0.569772 0.597722 0.000000
O O8 0.388096 0.999917 0.500000
O O9 0.808067 0.691934 0.817505
O O10 0.390233 0.890233 0.000000
#
# Coordination Sequence:
#
# PCOD9564130 Si02
#       7
#    16   4   8   2   8   8   8
#     4  12  25  44  73 106 141 190 234 298 359 434
#     4  11  22  44  70 103 144 192 232 290 370 419
#     4  11  26  48  70  99 142 196 244 297 362 419
#     4  10  20  42  68  98 152 184 220 276 376 432
#     4  12  26  43  73 103 143 191 238 290 361 439
#     4  11  22  42  71 105 141 188 232 298 350 433
#     4  12  25  45  67 103 145 183 239 295 358 426
#
# _framework density 22.614999000000001
#
# number of rings (size 3 to 8) (size 9 to 14) (size 15 to 20)
#    0.000    0.444    4.444    4.444    2.074    0.593 
#    0.000    0.741    0.000    1.778    0.000    0.000 
#    0.000    0.000    0.000    0.000    0.000    0.000 
#
# Total GULP energy -301384.526683 kJ/mol
# GULP energy per Si atom -5581.194939 kJ/mol
# Density = 2.256353 g / cm^3
# Si number density = 22.614999 Si / 1000 Ang^3
#
#
#
# Elastic Constant Matrix: (Units=GPa)
#
#
# Indices 1 2 3 4 5 6 
#
# 1 79.6368 32.1883 11.3850 0.0000 0.0000 0.0000
# 2 32.1883 79.6368 11.3850 0.0000 0.0000 0.0000
# 3 11.3850 11.3850 152.4766 0.0000 0.0000 0.0000
# 4 0.0000 0.0000 0.0000 24.9438 0.0000 0.0000
# 5 0.0000 0.0000 0.0000 0.0000 24.9438 0.0000
# 6 0.0000 0.0000 0.0000 0.0000 0.0000 21.2246
#
#
#
# Elastic Compliance Matrix: (Units=1/GPa)
#
#
# Indices 1 2 3 4 5 6 
#
# 1 0.015078 -0.005997 -0.000678 0.000000 0.000000 0.000000
# 2 -0.005997 0.015078 -0.000678 0.000000 0.000000 0.000000
# 3 -0.000678 -0.000678 0.006660 0.000000 0.000000 0.000000
# 4 0.000000 0.000000 0.000000 0.040090 0.000000 0.000000
# 5 0.000000 0.000000 0.000000 0.000000 0.040090 0.000000
# 6 0.000000 0.000000 0.000000 0.000000 0.000000 0.047115
#
#
# Mechanical properties :
#
#
# Convention : Reuss Voigt Hill
#
# Bulk Modulus (GPa) = 45.23096 46.85185 46.04140
# Shear Modulus (GPa) = 26.85466 31.34193 29.09830
#
# Velocity S-wave (km/s) = 3.44971 3.72679 3.59093
# Velocity P-wave (km/s) = 5.99259 6.26744 6.13156
#
# Compressibility (1/GPa) = 0.02210875
#
# Stress axis : x y z
#
# Youngs Moduli (GPa) = 66.32163 66.32163 150.15843
#
# Poissons Ratio (x) = 0.39776 0.10181
# Poissons Ratio (y) = 0.39776 0.10181
# Poissons Ratio (z) = 0.04497 0.04497
#
# Static dielectric constant tensor:
#      x y z
#    x 1.857230 0.000000 0.000000 
#    y 0.000000 1.857230 0.000000 
#    z 0.000000 0.000000 2.038300 
# 
# From -- ./inp_files/2935.got.cif
#   From: 2010.05.17/outbox.cif.g08.bks.cpg/sg127_2_cif.got.tgz:2935.got - 2010.05.20 12:03:00.
