data_PCOD9564079
_publ_section_title
;
Structure prediction by ZEFSAII (Michael W. Deem and Ramdas Pophale) SiO2 
 PCOD9564079
Probable space group: P 4/M B M
;
_chemical_formula_sum "Si O2"
_cell_formula_units_Z 68
_cell_length_a 17.039015
_cell_length_b 17.039015
_cell_length_c 13.935333
_cell_angle_alpha 90.000000
_cell_angle_beta 90.000000
_cell_angle_gamma 90.000000
_cell_volume 4045.817808
_symmetry_space_group_name_H-M "P 4/M B M"
_symmetry_group_IT_number 127
_symmetry_cell_setting 'tetragonal'
loop_
_space_group_symop_operation_xyz
x,y,z
-y,x,z
-x,-y,z
y,-x,z
1/2+x,1/2-y,-z
1/2-x,1/2+y,-z
1/2+y,1/2+x,-z
1/2-y,1/2-x,-z
-x,-y,-z
y,-x,-z
x,y,-z
-y,x,-z
1/2-x,1/2+y,z
1/2+x,1/2-y,z
1/2-y,1/2-x,z
1/2+y,1/2+x,z
loop_
_atom_site_type_symbol
_atom_site_label
_atom_site_fract_x
_atom_site_fract_y
_atom_site_fract_z
Si Si1 0.870925 0.370925 0.609799
Si Si2 0.088570 0.198179 0.612529
Si Si3 0.038420 0.873514 0.111331
Si Si4 0.500000 0.000000 0.646978
Si Si5 0.207569 0.077439 0.299287
Si Si6 0.382468 0.882468 0.613811
O O1 0.849139 0.349139 0.500000
O O2 0.937632 0.437632 0.603591
O O3 0.795166 0.403568 0.665448
O O4 0.098261 0.181910 0.500000
O O5 0.152301 0.149038 0.670108
O O6 0.100806 0.291039 0.627465
O O7 0.000794 0.179175 0.645923
O O8 0.060154 0.806818 0.187244
O O9 0.949792 0.905823 0.126468
O O10 0.045526 0.849988 0.000000
O O11 0.563962 0.063962 0.682740
O O12 0.400866 0.900866 0.500000
#
# Coordination Sequence:
#
# PCOD9564079 Si02
#       6
#     8  16  16   4  16   8
#     4  12  24  38  56  83 119 156 201 245 278 337
#     4  11  22  34  51  78 119 156 186 225 276 343
#     4   9  18  36  60  84 110 145 191 240 287 346
#     4  12  21  36  60  78  99 152 211 236 258 312
#     4  12  22  36  55  84 114 151 191 232 291 346
#     4  10  20  36  53  72 103 150 198 233 263 307
#
# _framework density 16.807480000000002
#
# number of rings (size 3 to 8) (size 9 to 14) (size 15 to 20)
#    0.000    1.176    4.706    4.588    0.000    1.412 
#    0.000    1.765    0.000    0.000    0.000    4.118 
#    0.000    0.000    0.000    0.000    0.000    0.000 
#
# Total GULP energy -379115.186319 kJ/mol
# GULP energy per Si atom -5575.223328 kJ/mol
# Density = 1.676923 g / cm^3
# Si number density = 16.807480 Si / 1000 Ang^3
#
#
#
# Elastic Constant Matrix: (Units=GPa)
#
#
# Indices 1 2 3 4 5 6 
#
# 1 73.8238 37.7781 29.6073 0.0000 0.0000 0.0000
# 2 37.7781 73.8238 29.6073 0.0000 0.0000 0.0000
# 3 29.6073 29.6073 97.8575 0.0000 0.0000 0.0000
# 4 0.0000 0.0000 0.0000 17.2271 0.0000 0.0000
# 5 0.0000 0.0000 0.0000 0.0000 17.2271 0.0000
# 6 0.0000 0.0000 0.0000 0.0000 0.0000 31.9919
#
#
#
# Elastic Compliance Matrix: (Units=1/GPa)
#
#
# Indices 1 2 3 4 5 6 
#
# 1 0.019208 -0.008534 -0.003229 0.000000 0.000000 0.000000
# 2 -0.008534 0.019208 -0.003229 0.000000 0.000000 0.000000
# 3 -0.003229 -0.003229 0.012173 0.000000 0.000000 0.000000
# 4 0.000000 0.000000 0.000000 0.058048 0.000000 0.000000
# 5 0.000000 0.000000 0.000000 0.000000 0.058048 0.000000
# 6 0.000000 0.000000 0.000000 0.000000 0.000000 0.031258
#
#
# Mechanical properties :
#
#
# Convention : Reuss Voigt Hill
#
# Bulk Modulus (GPa) = 48.53625 48.83229 48.68427
# Shear Modulus (GPa) = 21.29494 23.19007 22.24251
#
# Velocity S-wave (km/s) = 3.56334 3.71852 3.64176
# Velocity P-wave (km/s) = 6.77277 6.89591 6.83461
#
# Compressibility (1/GPa) = 0.02060316
#
# Stress axis : x y z
#
# Youngs Moduli (GPa) = 52.06100 52.06100 82.14821
#
# Poissons Ratio (x) = 0.44430 0.26529
# Poissons Ratio (y) = 0.44430 0.26529
# Poissons Ratio (z) = 0.16813 0.16813
#
# Static dielectric constant tensor:
#      x y z
#    x 1.571470 0.000000 0.000000 
#    y 0.000000 1.571470 0.000000 
#    z 0.000000 0.000000 1.557750 
# 
# From -- ./inp_files/3258.got.cif
#   From: 2010.05.17/outbox.cif.g08.bks.cpg/sg127_2_cif.got.tgz:3258.got - 2010.05.20 12:03:00.
