data_PCOD9564888
_publ_section_title
;
Structure prediction by ZEFSAII (Michael W. Deem and Ramdas Pophale) SiO2 
 PCOD9564888
Probable space group: P 4/M N C
;
_chemical_formula_sum "Si O2"
_cell_formula_units_Z 88
_cell_length_a 12.331900
_cell_length_b 12.331900
_cell_length_c 29.838708
_cell_angle_alpha 90.000000
_cell_angle_beta 90.000000
_cell_angle_gamma 90.000000
_cell_volume 4537.744125
_symmetry_space_group_name_H-M "P 4/M N C"
_symmetry_group_IT_number 128
_symmetry_cell_setting 'tetragonal'
loop_
_space_group_symop_operation_xyz
x,y,z
-y,x,z
-x,-y,z
y,-x,z
1/2+x,1/2-y,1/2-z
1/2-x,1/2+y,1/2-z
1/2+y,1/2+x,1/2-z
1/2-y,1/2-x,1/2-z
-x,-y,-z
y,-x,-z
x,y,-z
-y,x,-z
1/2-x,1/2+y,1/2+z
1/2+x,1/2-y,1/2+z
1/2-y,1/2-x,1/2+z
1/2+y,1/2+x,1/2+z
loop_
_atom_site_type_symbol
_atom_site_label
_atom_site_fract_x
_atom_site_fract_y
_atom_site_fract_z
Si Si1 0.363910 0.616702 0.500000
Si Si2 0.611942 0.141019 0.859765
Si Si3 0.896263 0.357612 0.843702
Si Si4 0.742056 0.757175 0.075912
Si Si5 0.845580 0.096348 0.702918
Si Si6 0.399748 0.347851 0.000000
Si Si7 0.711872 0.788129 0.750000
O O1 0.353009 0.488889 0.500000
O O2 0.308506 0.666261 0.456685
O O3 0.483751 0.120695 0.856309
O O4 0.659892 0.180835 0.906901
O O5 0.630918 0.247454 0.829203
O O6 0.664331 0.025871 0.845549
O O7 0.828396 0.294766 0.881587
O O8 0.847811 0.334159 0.794272
O O9 0.645180 0.709807 0.045033
O O10 0.810364 0.158872 0.747997
O O11 0.967681 0.141693 0.697052
O O12 0.529274 0.354803 0.000000
#
# Coordination Sequence:
#
# PCOD9564888 Si02
#       7
#     8  16  16  16  16   8   8
#     4  10  22  40  64  90 118 160 208 262 332 396
#     4  11  22  42  63  92 132 170 219 267 329 389
#     4  11  25  39  64  96 129 177 220 267 328 390
#     4  11  21  41  63  92 129 163 212 272 326 394
#     4  11  24  42  64  91 126 171 222 274 325 376
#     4  10  22  38  66  96 126 166 212 263 333 405
#     4  12  24  41  62  95 130 174 224 272 314 385
#
# _framework density 19.392896
#
# number of rings (size 3 to 8) (size 9 to 14) (size 15 to 20)
#    0.000    1.091    3.636    2.182    2.545    1.455 
#    0.000    1.818    0.000   10.909    0.000    0.000 
#    0.000    0.000    0.000    0.000    0.000    0.000 
#
# Total GULP energy -490438.696520 kJ/mol
# GULP energy per Si atom -5573.167006 kJ/mol
# Density = 1.934876 g / cm^3
# Si number density = 19.392896 Si / 1000 Ang^3
#
#
#
# Elastic Constant Matrix: (Units=GPa)
#
#
# Indices 1 2 3 4 5 6 
#
# 1 133.1036 38.3772 58.1008 0.0000 0.0000 0.0000
# 2 38.3772 133.1031 58.1006 0.0000 0.0000 0.0000
# 3 58.1008 58.1006 135.7645 0.0000 0.0000 0.0000
# 4 0.0000 0.0000 0.0000 39.1208 0.0000 0.0000
# 5 0.0000 0.0000 0.0000 0.0000 39.1205 0.0000
# 6 0.0000 0.0000 0.0000 0.0000 0.0000 26.0426
#
#
#
# Elastic Compliance Matrix: (Units=1/GPa)
#
#
# Indices 1 2 3 4 5 6 
#
# 1 0.009385 -0.001172 -0.003515 0.000000 0.000000 0.000000
# 2 -0.001172 0.009385 -0.003515 0.000000 0.000000 0.000000
# 3 -0.003515 -0.003515 0.010374 0.000000 0.000000 0.000000
# 4 0.000000 0.000000 0.000000 0.025562 0.000000 0.000000
# 5 0.000000 0.000000 0.000000 0.000000 0.025562 0.000000
# 6 0.000000 0.000000 0.000000 0.000000 0.000000 0.038399
#
#
# Mechanical properties :
#
#
# Convention : Reuss Voigt Hill
#
# Bulk Modulus (GPa) = 78.48556 79.01427 78.74991
# Shear Modulus (GPa) = 35.88934 37.34960 36.61947
#
# Velocity S-wave (km/s) = 4.30658 4.39332 4.35016
# Velocity P-wave (km/s) = 8.08010 8.15888 8.11959
#
# Compressibility (1/GPa) = 0.01274120
#
# Stress axis : x y z
#
# Youngs Moduli (GPa) = 106.55220 106.55181 96.39341
#
# Poissons Ratio (x) = 0.12484 0.33882
# Poissons Ratio (y) = 0.12484 0.33882
# Poissons Ratio (z) = 0.37453 0.37452
#
# Static dielectric constant tensor:
#      x y z
#    x 1.706550 0.000000 0.000000 
#    y 0.000000 1.706560 0.000000 
#    z 0.000000 0.000000 1.677160 
# 
# From -- ./inp_files/7311.got.cif
#   From: 2010.05.17/outbox.cif.g08.bks.cpg/sg128_4_cif.got.tgz:7311.got - 2010.05.20 12:07:25.
