data_PCOD9564912
_publ_section_title
;
Structure prediction by ZEFSAII (Michael W. Deem and Ramdas Pophale) SiO2 
 PCOD9564912
Probable space group: P 4/M N C
;
_chemical_formula_sum "Si O2"
_cell_formula_units_Z 80
_cell_length_a 11.683450
_cell_length_b 11.683450
_cell_length_c 27.493829
_cell_angle_alpha 90.000000
_cell_angle_beta 90.000000
_cell_angle_gamma 90.000000
_cell_volume 3752.990247
_symmetry_space_group_name_H-M "P 4/M N C"
_symmetry_group_IT_number 128
_symmetry_cell_setting 'tetragonal'
loop_
_space_group_symop_operation_xyz
x,y,z
-y,x,z
-x,-y,z
y,-x,z
1/2+x,1/2-y,1/2-z
1/2-x,1/2+y,1/2-z
1/2+y,1/2+x,1/2-z
1/2-y,1/2-x,1/2-z
-x,-y,-z
y,-x,-z
x,y,-z
-y,x,-z
1/2-x,1/2+y,1/2+z
1/2+x,1/2-y,1/2+z
1/2-y,1/2-x,1/2+z
1/2+y,1/2+x,1/2+z
loop_
_atom_site_type_symbol
_atom_site_label
_atom_site_fract_x
_atom_site_fract_y
_atom_site_fract_z
Si Si1 0.116177 0.853669 0.706940
Si Si2 0.684859 0.308546 0.682603
Si Si3 0.077172 0.660913 0.558621
Si Si4 0.278215 0.994224 0.878364
Si Si5 0.816203 0.705638 0.556951
O O1 0.194333 0.756602 0.683364
O O2 0.137664 0.840362 0.764961
O O3 0.982564 0.844556 0.694664
O O4 0.692788 0.411249 0.643650
O O5 0.590489 0.213426 0.668118
O O6 0.080163 0.629737 0.500000
O O7 0.119822 0.561564 0.594826
O O8 0.171273 0.760173 0.565813
O O9 0.949294 0.699396 0.571363
O O10 0.248926 0.899402 0.918889
O O11 0.812389 0.686804 0.500000
#
# Coordination Sequence:
#
# PCOD9564912 Si02
#       5
#    16  16  16  16  16
#     4  10  22  44  68  90 124 161 207 268 325 381
#     4  11  24  40  67  97 120 168 213 258 321 384
#     4  10  22  41  65  95 131 172 214 262 320 377
#     4  12  22  42  64  93 128 167 216 261 310 387
#     4  10  22  41  65  95 131 172 214 262 320 377
#
# _framework density 21.316336
#
# number of rings (size 3 to 8) (size 9 to 14) (size 15 to 20)
#    0.000    1.400    4.000    1.200    0.000    5.600 
#    0.000    2.000    0.000    2.400    0.000    0.000 
#    0.000    0.000    0.000    0.000    0.000    0.000 
#
# Total GULP energy -445862.368286 kJ/mol
# GULP energy per Si atom -5573.279604 kJ/mol
# Density = 2.126782 g / cm^3
# Si number density = 21.316336 Si / 1000 Ang^3
#
#
#
# Elastic Constant Matrix: (Units=GPa)
#
#
# Indices 1 2 3 4 5 6 
#
# 1 95.8769 51.9156 27.4641 0.0000 0.0000 0.0000
# 2 51.9156 95.8769 27.4641 0.0000 0.0000 0.0000
# 3 27.4641 27.4641 63.7250 0.0000 0.0000 0.0000
# 4 0.0000 0.0000 0.0000 24.7323 0.0000 0.0000
# 5 0.0000 0.0000 0.0000 0.0000 24.7323 0.0000
# 6 0.0000 0.0000 0.0000 0.0000 0.0000 23.6864
#
#
#
# Elastic Compliance Matrix: (Units=1/GPa)
#
#
# Indices 1 2 3 4 5 6 
#
# 1 0.015402 -0.007345 -0.003472 0.000000 0.000000 0.000000
# 2 -0.007345 0.015402 -0.003472 0.000000 0.000000 0.000000
# 3 -0.003472 -0.003472 0.018685 0.000000 0.000000 0.000000
# 4 0.000000 0.000000 0.000000 0.040433 0.000000 0.000000
# 5 0.000000 0.000000 0.000000 0.000000 0.040433 0.000000
# 6 0.000000 0.000000 0.000000 0.000000 0.000000 0.042218
#
#
# Mechanical properties :
#
#
# Convention : Reuss Voigt Hill
#
# Bulk Modulus (GPa) = 47.82459 52.12959 49.97709
# Shear Modulus (GPa) = 24.02422 24.53919 24.28170
#
# Velocity S-wave (km/s) = 3.36077 3.39660 3.37874
# Velocity P-wave (km/s) = 6.12732 6.31592 6.22234
#
# Compressibility (1/GPa) = 0.02090975
#
# Stress axis : x y z
#
# Youngs Moduli (GPa) = 64.92651 64.92651 53.51775
#
# Poissons Ratio (x) = 0.47690 0.18583
# Poissons Ratio (y) = 0.47690 0.18583
# Poissons Ratio (z) = 0.22544 0.22544
#
# Static dielectric constant tensor:
#      x y z
#    x 1.786980 0.000000 0.000000 
#    y 0.000000 1.786980 0.000000 
#    z 0.000000 0.000000 1.829690 
# 
# From -- ./inp_files/7178.got.cif
#   From: 2010.05.17/outbox.cif.g08.bks.cpg/sg128_4_cif.got.tgz:7178.got - 2010.05.20 12:07:25.
