data_PCOD9564057
_publ_section_title
;
Structure prediction by ZEFSAII (Michael W. Deem and Ramdas Pophale) SiO2 
 PCOD9564057
Probable space group: P 4/M B M
;
_chemical_formula_sum "Si O2"
_cell_formula_units_Z 112
_cell_length_a 14.011524
_cell_length_b 14.011524
_cell_length_c 30.117708
_cell_angle_alpha 90.000000
_cell_angle_beta 90.000000
_cell_angle_gamma 90.000000
_cell_volume 5912.792909
_symmetry_space_group_name_H-M "P 4/M B M"
_symmetry_group_IT_number 127
_symmetry_cell_setting 'tetragonal'
loop_
_space_group_symop_operation_xyz
x,y,z
-y,x,z
-x,-y,z
y,-x,z
1/2+x,1/2-y,-z
1/2-x,1/2+y,-z
1/2+y,1/2+x,-z
1/2-y,1/2-x,-z
-x,-y,-z
y,-x,-z
x,y,-z
-y,x,-z
1/2-x,1/2+y,z
1/2+x,1/2-y,z
1/2-y,1/2-x,z
1/2+y,1/2+x,z
loop_
_atom_site_type_symbol
_atom_site_label
_atom_site_fract_x
_atom_site_fract_y
_atom_site_fract_z
Si Si1 0.360095 0.699101 0.362637
Si Si2 0.909946 0.130955 0.727123
Si Si3 0.372767 0.288376 0.548989
Si Si4 0.260970 0.607842 0.185150
Si Si5 0.155507 0.502012 0.394660
Si Si6 0.747682 0.593543 0.139882
Si Si7 0.039176 0.156591 0.949893
O O1 0.268921 0.768921 0.361282
O O2 0.349277 0.625956 0.322509
O O3 0.359310 0.645591 0.410084
O O4 0.451771 0.769322 0.361641
O O5 0.874972 0.202976 0.764645
O O6 0.023319 0.127014 0.733787
O O7 0.389719 0.328725 0.500000
O O8 0.278142 0.221859 0.546684
O O9 0.456189 0.216379 0.564616
O O10 0.162467 0.662467 0.178074
O O11 0.340427 0.658822 0.154638
O O12 0.251543 0.498353 0.171470
O O13 0.081255 0.418746 0.407940
O O14 0.090138 0.590138 0.377323
O O15 0.841403 0.658598 0.144080
O O16 0.729243 0.560104 0.089537
O O17 0.933555 0.111131 0.945770
O O18 0.049088 0.195248 0.000000
#
# Coordination Sequence:
#
# PCOD9564057 Si02
#       7
#    16  16  16  16  16  16  16
#     4  10  20  35  55  79 111 147 183 229 290 358
#     4  11  22  37  59  85 110 144 194 245 295 357
#     4   9  18  32  50  74 105 141 181 225 278 342
#     4  11  23  40  62  90 122 158 205 260 312 372
#     4   9  18  33  54  80 109 143 183 229 282 344
#     4  11  22  37  63  92 122 168 213 255 316 375
#     4   9  17  31  56  90 126 166 213 266 318 366
#
# _framework density 18.941979
#
# number of rings (size 3 to 8) (size 9 to 14) (size 15 to 20)
#    0.000    2.000    2.857    1.714    0.000    1.714 
#    0.000    3.571    0.000    0.429    0.000    4.000 
#    0.000    0.000    0.000    0.000    0.000    0.000 
#
# Total GULP energy -624536.434074 kJ/mol
# GULP energy per Si atom -5576.218161 kJ/mol
# Density = 1.889887 g / cm^3
# Si number density = 18.941979 Si / 1000 Ang^3
#
#
#
# Elastic Constant Matrix: (Units=GPa)
#
#
# Indices 1 2 3 4 5 6 
#
# 1 54.7512 56.4708 36.2223 0.0000 0.0000 0.0000
# 2 56.4708 54.7512 36.2223 0.0000 0.0000 0.0000
# 3 36.2223 36.2223 122.8906 0.0000 0.0000 0.0000
# 4 0.0000 0.0000 0.0000 21.8156 0.0000 0.0000
# 5 0.0000 0.0000 0.0000 0.0000 21.8156 0.0000
# 6 0.0000 0.0000 0.0000 0.0000 0.0000 4.8002
#
#
#
# Elastic Compliance Matrix: (Units=1/GPa)
#
#
# Indices 1 2 3 4 5 6 
#
# 1 -0.285206 0.296333 -0.003280 0.000000 0.000000 0.000000
# 2 0.296333 -0.285206 -0.003280 0.000000 0.000000 0.000000
# 3 -0.003280 -0.003280 0.010071 0.000000 0.000000 0.000000
# 4 0.000000 0.000000 0.000000 0.045839 0.000000 0.000000
# 5 0.000000 0.000000 0.000000 0.000000 0.045839 0.000000
# 6 0.000000 0.000000 0.000000 0.000000 0.000000 0.208324
#
#
# Mechanical properties :
#
#
# Convention : Reuss Voigt Hill
#
# Bulk Modulus (GPa) = 52.06648 54.46931 53.26790
# Shear Modulus (GPa) = -5.99891 16.58478 5.29294
#
# Velocity S-wave (km/s) = -1.78153 2.96219 1.67343
# Velocity P-wave (km/s) = 4.82858 6.36535 5.64947
#
# Compressibility (1/GPa) = 0.01920622
#
# Stress axis : x y z
#
# Youngs Moduli (GPa) = -3.50624 -3.50624 99.29715
#
# Poissons Ratio (x) = 1.03902 0.32568
# Poissons Ratio (y) = 1.03902 0.32568
# Poissons Ratio (z) = -0.01150 -0.01150
#
# Static dielectric constant tensor:
#      x y z
#    x 1.662130 0.000000 0.000000 
#    y 0.000000 1.662130 0.000000 
#    z 0.000000 0.000000 1.671390 
# 
# From -- ./inp_files/6407.got.cif
#   From: 2010.05.17/outbox.cif.g08.bks.cpg/sg127_4_cif.got.tgz:6407.got - 2010.05.20 12:03:00.
