data_PCOD9564673
_publ_section_title
;
Structure prediction by ZEFSAII (Michael W. Deem and Ramdas Pophale) SiO2 
 PCOD9564673
Probable space group: P 4/M N C
;
_chemical_formula_sum "Si O2"
_cell_formula_units_Z 96
_cell_length_a 15.615985
_cell_length_b 15.615985
_cell_length_c 19.932733
_cell_angle_alpha 90.000000
_cell_angle_beta 90.000000
_cell_angle_gamma 90.000000
_cell_volume 4860.776088
_symmetry_space_group_name_H-M "P 4/M N C"
_symmetry_group_IT_number 128
_symmetry_cell_setting 'tetragonal'
loop_
_space_group_symop_operation_xyz
x,y,z
-y,x,z
-x,-y,z
y,-x,z
1/2+x,1/2-y,1/2-z
1/2-x,1/2+y,1/2-z
1/2+y,1/2+x,1/2-z
1/2-y,1/2-x,1/2-z
-x,-y,-z
y,-x,-z
x,y,-z
-y,x,-z
1/2-x,1/2+y,1/2+z
1/2+x,1/2-y,1/2+z
1/2-y,1/2-x,1/2+z
1/2+y,1/2+x,1/2+z
loop_
_atom_site_type_symbol
_atom_site_label
_atom_site_fract_x
_atom_site_fract_y
_atom_site_fract_z
Si Si1 0.205206 0.241240 0.500000
Si Si2 0.402533 0.980759 0.143413
Si Si3 0.247417 0.111027 0.143649
Si Si4 0.868720 0.941571 0.732266
Si Si5 0.656040 0.156040 0.250000
Si Si6 0.260608 0.600822 0.500000
Si Si7 0.197823 0.807508 0.648094
Si Si8 0.931499 0.644843 0.000000
O O1 0.305813 0.214005 0.500000
O O2 0.165250 0.211857 0.570785
O O3 0.199753 0.344633 0.500000
O O4 0.338240 0.061489 0.139784
O O5 0.500000 0.000000 0.164274
O O6 0.356033 0.918320 0.195613
O O7 0.406601 0.937485 0.069563
O O8 0.189007 0.078656 0.203475
O O9 0.197022 0.099837 0.073044
O O10 0.270124 0.209927 0.152363
O O11 0.818382 0.900399 0.669620
O O12 0.959323 0.892294 0.731659
O O13 0.742113 0.149842 0.294679
O O14 0.203055 0.516156 0.500000
#
# Coordination Sequence:
#
# PCOD9564673 Si02
#       8
#     8  16  16  16   8   8  16   8
#     4  10  20  39  65  88 117 169 221 259 317 384
#     4  11  24  38  60  93 134 169 211 265 330 396
#     4  10  21  39  62  91 126 167 205 263 318 391
#     4  11  24  41  64  89 121 163 212 269 321 373
#     4  12  21  36  60  90 119 168 210 258 318 394
#     4   8  20  33  61  88 123 164 208 253 314 380
#     4  11  22  41  63  90 120 163 215 261 317 385
#     4  10  19  40  60  88 132 171 217 265 324 396
#
# _framework density 19.749932000000001
#
# number of rings (size 3 to 8) (size 9 to 14) (size 15 to 20)
#    0.000    1.500    3.333    1.500    0.000    5.333 
#    0.000    0.833    0.000    2.250    0.000    0.000 
#    0.000    0.000    0.000    0.000    0.000    0.000 
#
# Total GULP energy -535118.402978 kJ/mol
# GULP energy per Si atom -5574.150031 kJ/mol
# Density = 1.970498 g / cm^3
# Si number density = 19.749932 Si / 1000 Ang^3
#
#
#
# Elastic Constant Matrix: (Units=GPa)
#
#
# Indices 1 2 3 4 5 6 
#
# 1 53.3248 20.8925 26.2563 0.0000 0.0000 0.0000
# 2 20.8925 53.3248 26.2563 0.0000 0.0000 0.0000
# 3 26.2563 26.2563 142.0960 0.0000 0.0000 0.0000
# 4 0.0000 0.0000 0.0000 -19.5679 0.0000 0.0000
# 5 0.0000 0.0000 0.0000 0.0000 -19.5679 0.0000
# 6 0.0000 0.0000 0.0000 0.0000 0.0000 24.3668
#
#
#
# Elastic Compliance Matrix: (Units=1/GPa)
#
#
# Indices 1 2 3 4 5 6 
#
# 1 0.023167 -0.007666 -0.002864 0.000000 0.000000 0.000000
# 2 -0.007666 0.023167 -0.002864 0.000000 0.000000 0.000000
# 3 -0.002864 -0.002864 0.008096 0.000000 0.000000 0.000000
# 4 0.000000 0.000000 0.000000 -0.051104 0.000000 0.000000
# 5 0.000000 0.000000 0.000000 0.000000 -0.051104 0.000000
# 6 0.000000 0.000000 0.000000 0.000000 0.000000 0.041039
#
#
# Mechanical properties :
#
#
# Convention : Reuss Voigt Hill
#
# Bulk Modulus (GPa) = 36.17903 43.95065 40.06484
# Shear Modulus (GPa) = 170.85730 8.73557 89.79644
#
# Velocity S-wave (km/s) = 9.31118 2.10540 6.75022
# Velocity P-wave (km/s) = 11.57393 5.31151 9.00466
#
# Compressibility (1/GPa) = 0.02764032
#
# Stress axis : x y z
#
# Youngs Moduli (GPa) = 43.16485 43.16485 123.51830
#
# Poissons Ratio (x) = 0.33092 0.35378
# Poissons Ratio (y) = 0.33092 0.35378
# Poissons Ratio (z) = 0.12363 0.12363
#
# Static dielectric constant tensor:
#      x y z
#    x 1.704470 0.000000 0.000000 
#    y 0.000000 1.704470 0.000000 
#    z 0.000000 0.000000 1.745520 
# 
# From -- ./inp_files/5829.got.cif
#   From: 2010.05.17/outbox.cif.g08.bks.cpg/sg128_3_cif.got.tgz:5829.got - 2010.05.20 12:07:25.
