data_PCOD9564416
_publ_section_title
;
Structure prediction by ZEFSAII (Michael W. Deem and Ramdas Pophale) SiO2 
 PCOD9564416
Probable space group: P 4/M B M
;
_chemical_formula_sum "Si O2"
_cell_formula_units_Z 88
_cell_length_a 12.106396
_cell_length_b 12.106396
_cell_length_c 30.766804
_cell_angle_alpha 90.000000
_cell_angle_beta 90.000000
_cell_angle_gamma 90.000000
_cell_volume 4509.331217
_symmetry_space_group_name_H-M "P 4/M B M"
_symmetry_group_IT_number 127
_symmetry_cell_setting 'tetragonal'
loop_
_space_group_symop_operation_xyz
x,y,z
-y,x,z
-x,-y,z
y,-x,z
1/2+x,1/2-y,-z
1/2-x,1/2+y,-z
1/2+y,1/2+x,-z
1/2-y,1/2-x,-z
-x,-y,-z
y,-x,-z
x,y,-z
-y,x,-z
1/2-x,1/2+y,z
1/2+x,1/2-y,z
1/2-y,1/2-x,z
1/2+y,1/2+x,z
loop_
_atom_site_type_symbol
_atom_site_label
_atom_site_fract_x
_atom_site_fract_y
_atom_site_fract_z
Si Si1 0.813226 0.984667 0.269499
Si Si2 0.995105 0.317661 0.181602
Si Si3 0.528777 0.319248 0.097950
Si Si4 0.496098 0.816628 0.547028
Si Si5 0.908942 0.591059 0.947993
Si Si6 0.815272 0.985621 0.635178
O O1 0.730327 0.979698 0.229634
O O2 0.758513 0.980797 0.317456
O O3 0.902716 0.885533 0.266612
O O4 0.884931 0.384931 0.168097
O O5 0.023781 0.220677 0.148003
O O6 0.094687 0.405314 0.180983
O O7 0.622105 0.411315 0.089324
O O8 0.554276 0.209225 0.070858
O O9 0.501155 0.756553 0.500000
O O10 0.588442 0.911559 0.545423
O O11 0.516581 0.751855 0.591014
O O12 0.378601 0.878601 0.549590
O O13 0.000000 0.500000 0.934775
O O14 0.904334 0.595667 0.000000
O O15 0.902314 0.886066 0.634777
#
# Coordination Sequence:
#
# PCOD9564416 Si02
#       6
#    16  16  16  16   8  16
#     4   9  19  36  55  77 109 149 191 235 289 354
#     4  11  23  37  58  89 126 162 205 255 309 367
#     4  11  25  44  70 101 134 177 225 272 327 389
#     4   9  19  35  52  71  98 133 173 221 277 340
#     4  11  26  46  72 103 139 179 221 276 331 381
#     4   9  19  35  53  75 105 139 178 229 285 343
#
# _framework density 19.515089
#
# number of rings (size 3 to 8) (size 9 to 14) (size 15 to 20)
#    0.000    2.091    0.909    3.273    2.545    7.273 
#    0.000    9.091    0.000    0.000    0.000    0.000 
#    0.000    0.000    0.000    0.000    0.000    0.000 
#
# Total GULP energy -491101.094322 kJ/mol
# GULP energy per Si atom -5580.694254 kJ/mol
# Density = 1.947067 g / cm^3
# Si number density = 19.515089 Si / 1000 Ang^3
#
#
#
# Elastic Constant Matrix: (Units=GPa)
#
#
# Indices 1 2 3 4 5 6 
#
# 1 93.2751 35.4569 47.4472 0.0000 0.0000 0.0000
# 2 35.4569 93.2751 47.4473 0.0000 0.0000 0.0000
# 3 47.4472 47.4473 125.1221 0.0000 0.0000 0.0000
# 4 0.0000 0.0000 0.0000 33.8004 0.0000 0.0000
# 5 0.0000 0.0000 0.0000 0.0000 33.8002 0.0000
# 6 0.0000 0.0000 0.0000 0.0000 0.0000 14.3205
#
#
#
# Elastic Compliance Matrix: (Units=1/GPa)
#
#
# Indices 1 2 3 4 5 6 
#
# 1 0.014039 -0.003257 -0.004089 0.000000 0.000000 0.000000
# 2 -0.003257 0.014039 -0.004089 0.000000 0.000000 0.000000
# 3 -0.004089 -0.004089 0.011093 0.000000 0.000000 0.000000
# 4 0.000000 0.000000 0.000000 0.029585 0.000000 0.000000
# 5 0.000000 0.000000 0.000000 0.000000 0.029586 0.000000
# 6 0.000000 0.000000 0.000000 0.000000 0.000000 0.069830
#
#
# Mechanical properties :
#
#
# Convention : Reuss Voigt Hill
#
# Bulk Modulus (GPa) = 61.33997 63.59724 62.46861
# Shear Modulus (GPa) = 25.44870 28.47229 26.96049
#
# Velocity S-wave (km/s) = 3.61508 3.82381 3.72091
# Velocity P-wave (km/s) = 6.99467 7.22184 7.10916
#
# Compressibility (1/GPa) = 0.01630258
#
# Stress axis : x y z
#
# Youngs Moduli (GPa) = 71.23125 71.23118 90.14647
#
# Poissons Ratio (x) = 0.23199 0.36857
# Poissons Ratio (y) = 0.23199 0.36857
# Poissons Ratio (z) = 0.29124 0.29124
#
# Static dielectric constant tensor:
#      x y z
#    x 1.672840 0.000000 0.000000 
#    y 0.000000 1.672840 0.000000 
#    z 0.000000 0.000000 1.702580 
# 
# From -- ./inp_files/6556.got.cif
#   From: 2010.05.17/outbox.cif.g08.bks.cpg/sg127_4_cif.got.tgz:6556.got - 2010.05.20 12:03:00.
