data_PCOD9564930
_publ_section_title
;
Structure prediction by ZEFSAII (Michael W. Deem and Ramdas Pophale) SiO2 
 PCOD9564930
Probable space group: P 4/M N C
;
_chemical_formula_sum "Si O2"
_cell_formula_units_Z 80
_cell_length_a 11.758179
_cell_length_b 11.758179
_cell_length_c 30.155073
_cell_angle_alpha 90.000000
_cell_angle_beta 90.000000
_cell_angle_gamma 90.000000
_cell_volume 4169.082784
_symmetry_space_group_name_H-M "P 4/M N C"
_symmetry_group_IT_number 128
_symmetry_cell_setting 'tetragonal'
loop_
_space_group_symop_operation_xyz
x,y,z
-y,x,z
-x,-y,z
y,-x,z
1/2+x,1/2-y,1/2-z
1/2-x,1/2+y,1/2-z
1/2+y,1/2+x,1/2-z
1/2-y,1/2-x,1/2-z
-x,-y,-z
y,-x,-z
x,y,-z
-y,x,-z
1/2-x,1/2+y,1/2+z
1/2+x,1/2-y,1/2+z
1/2-y,1/2-x,1/2+z
1/2+y,1/2+x,1/2+z
loop_
_atom_site_type_symbol
_atom_site_label
_atom_site_fract_x
_atom_site_fract_y
_atom_site_fract_z
Si Si1 0.001192 0.635248 0.811306
Si Si2 0.931400 0.174790 0.947043
Si Si3 0.518102 0.312184 0.766290
Si Si4 0.280830 0.905732 0.639191
Si Si5 0.648409 0.815359 0.116126
O O1 0.982649 0.707725 0.767396
O O2 0.895676 0.655179 0.844408
O O3 0.000000 0.500000 0.803171
O O4 0.116493 0.665612 0.837405
O O5 0.883664 0.281127 0.920422
O O6 0.061857 0.142501 0.936174
O O7 0.925021 0.191629 0.000000
O O8 0.619842 0.401321 0.758606
O O9 0.536501 0.272828 0.816709
O O10 0.197225 0.811658 0.619983
O O11 0.311433 0.012871 0.608480
#
# Coordination Sequence:
#
# PCOD9564930 Si02
#       5
#    16  16  16  16  16
#     4  10  23  37  55  83 113 150 201 261 308 351
#     4   9  19  39  68  98 126 153 188 245 310 368
#     4  11  22  38  56  77 111 157 210 249 302 355
#     4  11  22  38  56  79 117 158 199 250 302 355
#     4  11  22  38  60  85 119 159 202 242 302 372
#
# _framework density 19.188872
#
# number of rings (size 3 to 8) (size 9 to 14) (size 15 to 20)
#    0.000    1.600    2.000    3.600    0.000    6.000 
#    0.000    3.000    0.000    7.800    0.000    1.400 
#    0.000    0.000    0.000    0.000    0.000    0.000 
#
# Total GULP energy -447129.608182 kJ/mol
# GULP energy per Si atom -5589.120102 kJ/mol
# Density = 1.914520 g / cm^3
# Si number density = 19.188872 Si / 1000 Ang^3
#
#
#
# Elastic Constant Matrix: (Units=GPa)
#
#
# Indices 1 2 3 4 5 6 
#
# 1 84.1050 25.7899 32.6552 0.0000 0.0000 0.0000
# 2 25.7899 84.1050 32.6552 0.0000 0.0000 0.0000
# 3 32.6552 32.6552 48.9334 0.0000 0.0000 0.0000
# 4 0.0000 0.0000 0.0000 32.7977 0.0000 0.0000
# 5 0.0000 0.0000 0.0000 0.0000 32.7977 0.0000
# 6 0.0000 0.0000 0.0000 0.0000 0.0000 22.4426
#
#
#
# Elastic Compliance Matrix: (Units=1/GPa)
#
#
# Indices 1 2 3 4 5 6 
#
# 1 0.016114 -0.001034 -0.010064 0.000000 0.000000 0.000000
# 2 -0.001034 0.016114 -0.010064 0.000000 0.000000 0.000000
# 3 -0.010064 -0.010064 0.033868 0.000000 0.000000 0.000000
# 4 0.000000 0.000000 0.000000 0.030490 0.000000 0.000000
# 5 0.000000 0.000000 0.000000 0.000000 0.030490 0.000000
# 6 0.000000 0.000000 0.000000 0.000000 0.000000 0.044558
#
#
# Mechanical properties :
#
#
# Convention : Reuss Voigt Hill
#
# Bulk Modulus (GPa) = 42.06339 44.37156 43.21748
# Shear Modulus (GPa) = 22.53447 26.01047 24.27247
#
# Velocity S-wave (km/s) = 3.43060 3.68570 3.56044
# Velocity P-wave (km/s) = 6.13680 6.42544 6.28278
#
# Compressibility (1/GPa) = 0.02377364
#
# Stress axis : x y z
#
# Youngs Moduli (GPa) = 62.05644 62.05644 29.52647
#
# Poissons Ratio (x) = 0.06416 0.29715
# Poissons Ratio (y) = 0.06416 0.29715
# Poissons Ratio (z) = 0.62453 0.62453
#
# Static dielectric constant tensor:
#      x y z
#    x 1.689710 0.000000 0.000000 
#    y 0.000000 1.689710 0.000000 
#    z 0.000000 0.000000 1.651000 
# 
# From -- ./inp_files/7171.got.cif
#   From: 2010.05.17/outbox.cif.g08.bks.cpg/sg128_4_cif.got.tgz:7171.got - 2010.05.20 12:07:25.
