data_PCOD9564367
_publ_section_title
;
Structure prediction by ZEFSAII (Michael W. Deem and Ramdas Pophale) SiO2 
 PCOD9564367
Probable space group: P 4/M B M
;
_chemical_formula_sum "Si O2"
_cell_formula_units_Z 88
_cell_length_a 13.965419
_cell_length_b 13.965419
_cell_length_c 26.995528
_cell_angle_alpha 90.000000
_cell_angle_beta 90.000000
_cell_angle_gamma 90.000000
_cell_volume 5265.016865
_symmetry_space_group_name_H-M "P 4/M B M"
_symmetry_group_IT_number 127
_symmetry_cell_setting 'tetragonal'
loop_
_space_group_symop_operation_xyz
x,y,z
-y,x,z
-x,-y,z
y,-x,z
1/2+x,1/2-y,-z
1/2-x,1/2+y,-z
1/2+y,1/2+x,-z
1/2-y,1/2-x,-z
-x,-y,-z
y,-x,-z
x,y,-z
-y,x,-z
1/2-x,1/2+y,z
1/2+x,1/2-y,z
1/2-y,1/2-x,z
1/2+y,1/2+x,z
loop_
_atom_site_type_symbol
_atom_site_label
_atom_site_fract_x
_atom_site_fract_y
_atom_site_fract_z
Si Si1 0.920343 0.140393 0.500000
Si Si2 0.341112 0.003482 0.941708
Si Si3 0.409614 0.749177 0.340911
Si Si4 0.766793 0.891622 0.605890
Si Si5 0.483124 0.660630 0.128716
Si Si6 0.528990 0.341336 0.241982
O O1 0.891441 0.194583 0.549907
O O2 0.034840 0.125556 0.500000
O O3 0.416943 0.916943 0.936403
O O4 0.399674 0.100327 0.928272
O O5 0.248584 0.984263 0.908708
O O6 0.316101 0.010045 0.000000
O O7 0.340821 0.840821 0.344361
O O8 0.346937 0.658378 0.359414
O O9 0.501649 0.753576 0.375971
O O10 0.447397 0.732454 0.285206
O O11 0.673003 0.826998 0.609621
O O12 0.398956 0.582035 0.122336
O O13 0.471426 0.695447 0.185585
O O14 0.606950 0.426357 0.247426
#
# Coordination Sequence:
#
# PCOD9564367 Si02
#       6
#     8  16  16  16  16  16
#     4  11  21  36  62  89 110 142 188 235 278 324
#     4   9  19  36  55  75 104 146 192 231 272 327
#     4  11  22  36  59  85 110 148 191 227 275 334
#     4  11  23  39  58  84 117 147 182 231 279 328
#     4   9  19  34  53  83 114 141 178 227 281 332
#     4   9  17  33  57  80 107 142 181 226 273 323
#
# _framework density 16.714098
#
# number of rings (size 3 to 8) (size 9 to 14) (size 15 to 20)
#    0.000    2.091    3.636    1.909    0.000    2.909 
#    0.000    6.818    0.000    1.091    0.000    0.000 
#    0.000    0.000    0.000    0.000    0.000    0.000 
#
# Total GULP energy -490734.573032 kJ/mol
# GULP energy per Si atom -5576.529239 kJ/mol
# Density = 1.667606 g / cm^3
# Si number density = 16.714098 Si / 1000 Ang^3
#
#
#
# Elastic Constant Matrix: (Units=GPa)
#
#
# Indices 1 2 3 4 5 6 
#
# 1 77.3066 19.9005 47.1082 0.0000 0.0000 0.0000
# 2 19.9005 77.3066 47.1082 0.0000 0.0000 0.0000
# 3 47.1082 47.1082 113.6210 0.0000 0.0000 0.0000
# 4 0.0000 0.0000 0.0000 22.4426 0.0000 0.0000
# 5 0.0000 0.0000 0.0000 0.0000 22.4426 0.0000
# 6 0.0000 0.0000 0.0000 0.0000 0.0000 7.1978
#
#
#
# Elastic Compliance Matrix: (Units=1/GPa)
#
#
# Indices 1 2 3 4 5 6 
#
# 1 0.017309 -0.000111 -0.007131 0.000000 0.000000 0.000000
# 2 -0.000111 0.017309 -0.007131 0.000000 0.000000 0.000000
# 3 -0.007131 -0.007131 0.014714 0.000000 0.000000 0.000000
# 4 0.000000 0.000000 0.000000 0.044558 0.000000 0.000000
# 5 0.000000 0.000000 0.000000 0.000000 0.044558 0.000000
# 6 0.000000 0.000000 0.000000 0.000000 0.000000 0.138931
#
#
# Mechanical properties :
#
#
# Convention : Reuss Voigt Hill
#
# Bulk Modulus (GPa) = 48.57068 55.16313 51.86690
# Shear Modulus (GPa) = 15.97515 20.69110 18.33312
#
# Velocity S-wave (km/s) = 3.09494 3.52226 3.31549
# Velocity P-wave (km/s) = 6.47258 7.04396 6.76431
#
# Compressibility (1/GPa) = 0.02058855
#
# Stress axis : x y z
#
# Youngs Moduli (GPa) = 57.77279 57.77279 67.96209
#
# Poissons Ratio (x) = 0.00639 0.48462
# Poissons Ratio (y) = 0.00639 0.48462
# Poissons Ratio (z) = 0.41196 0.41196
#
# Static dielectric constant tensor:
#      x y z
#    x 1.543050 0.000000 0.000000 
#    y 0.000000 1.543050 0.000000 
#    z 0.000000 0.000000 1.559850 
# 
# From -- ./inp_files/6554.got.cif
#   From: 2010.05.17/outbox.cif.g08.bks.cpg/sg127_4_cif.got.tgz:6554.got - 2010.05.20 12:03:00.
