data_PCOD9564496
_publ_section_title
;
Structure prediction by ZEFSAII (Michael W. Deem and Ramdas Pophale) SiO2 
 PCOD9564496
Probable space group: P 4/M B M
;
_chemical_formula_sum "Si O2"
_cell_formula_units_Z 112
_cell_length_a 15.000000
_cell_length_b 15.000000
_cell_length_c 24.000000
_cell_angle_alpha 90.000000
_cell_angle_beta 90.000000
_cell_angle_gamma 90.000000
_cell_volume 5400.000000
_symmetry_space_group_name_H-M "P 4/M B M"
_symmetry_group_IT_number 127
_symmetry_cell_setting 'tetragonal'
loop_
_space_group_symop_operation_xyz
x,y,z
-y,x,z
-x,-y,z
y,-x,z
1/2+x,1/2-y,-z
1/2-x,1/2+y,-z
1/2+y,1/2+x,-z
1/2-y,1/2-x,-z
-x,-y,-z
y,-x,-z
x,y,-z
-y,x,-z
1/2-x,1/2+y,z
1/2+x,1/2-y,z
1/2-y,1/2-x,z
1/2+y,1/2+x,z
loop_
_atom_site_type_symbol
_atom_site_label
_atom_site_fract_x
_atom_site_fract_y
_atom_site_fract_z
Si Si1 0.190908 0.834019 0.848609
Si Si2 0.183244 0.544612 0.834873
Si Si3 0.643813 0.503219 0.566780
Si Si4 0.354217 0.003526 0.406460
Si Si5 0.866461 0.061113 0.256154
Si Si6 0.541379 0.186405 0.286084
Si Si7 0.078722 0.271595 0.939160
O O1 0.287004 0.787004 0.837418
O O2 0.119848 0.758035 0.838929
O O3 0.167368 0.911900 0.805518
O O4 0.189532 0.866806 0.912236
O O5 0.087221 0.587221 0.843737
O O6 0.185977 0.511290 0.771543
O O7 0.201718 0.481721 0.887093
O O8 0.585058 0.588921 0.587012
O O9 0.635988 0.503898 0.500000
O O10 0.750275 0.502696 0.576990
O O11 0.411625 0.088376 0.427650
O O12 0.415055 0.915055 0.419126
O O13 0.348315 0.010078 0.339422
O O14 0.785160 0.079477 0.296646
O O15 0.957553 0.112730 0.263597
O O16 0.623552 0.123552 0.276950
O O17 0.148976 0.351025 0.945337
O O18 0.038455 0.254691 0.000000
#
# Coordination Sequence:
#
# PCOD9564496 Si02
#       7
#    16  16  16  16  16  16  16
#     4  10  19  36  57  79 107 140 183 231 285 354
#     4  11  22  36  59  83 105 143 194 237 283 350
#     4   9  20  42  70  98 132 175 224 277 328 377
#     4  10  23  41  61  93 136 177 218 267 324 387
#     4  11  21  35  56  82 110 143 187 237 290 348
#     4  11  22  39  59  83 120 160 198 244 302 358
#     4  10  21  36  53  75 107 143 179 230 293 350
#
# _framework density 20.740741
#
# number of rings (size 3 to 8) (size 9 to 14) (size 15 to 20)
#    0.000    1.714    2.857    1.714    0.000    4.857 
#    0.000    7.143    0.000    0.000    0.000    3.000 
#    0.000    0.000    0.000    0.000    0.000    0.000 
#
# Total GULP energy -623592.571864 kJ/mol
# GULP energy per Si atom -5567.790820 kJ/mol
# Density = 2.069353 g / cm^3
# Si number density = 20.740741 Si / 1000 Ang^3
#
#
#
# Elastic Constant Matrix: (Units=GPa)
#
#
# Indices 1 2 3 4 5 6 
#
# 1 104.8146 59.9257 35.7612 0.0000 0.0000 0.0000
# 2 59.9257 104.8146 35.7612 0.0000 0.0000 0.0000
# 3 35.7612 35.7612 64.1500 0.0000 0.0000 0.0000
# 4 0.0000 0.0000 0.0000 29.7939 0.0000 0.0000
# 5 0.0000 0.0000 0.0000 0.0000 29.7939 0.0000
# 6 0.0000 0.0000 0.0000 0.0000 0.0000 15.3163
#
#
#
# Elastic Compliance Matrix: (Units=1/GPa)
#
#
# Indices 1 2 3 4 5 6 
#
# 1 0.015143 -0.007134 -0.004464 0.000000 0.000000 0.000000
# 2 -0.007134 0.015143 -0.004464 0.000000 0.000000 0.000000
# 3 -0.004464 -0.004464 0.020566 0.000000 0.000000 0.000000
# 4 0.000000 0.000000 0.000000 0.033564 0.000000 0.000000
# 5 0.000000 0.000000 0.000000 0.000000 0.033564 0.000000
# 6 0.000000 0.000000 0.000000 0.000000 0.000000 0.065290
#
#
# Mechanical properties :
#
#
# Convention : Reuss Voigt Hill
#
# Bulk Modulus (GPa) = 53.40405 59.63063 56.51734
# Shear Modulus (GPa) = 22.55937 24.46956 23.51446
#
# Velocity S-wave (km/s) = 3.30158 3.43852 3.37075
# Velocity P-wave (km/s) = 6.35124 6.67664 6.51597
#
# Compressibility (1/GPa) = 0.01872517
#
# Stress axis : x y z
#
# Youngs Moduli (GPa) = 66.03799 66.03799 48.62421
#
# Poissons Ratio (x) = 0.47114 0.21708
# Poissons Ratio (y) = 0.47114 0.21708
# Poissons Ratio (z) = 0.29482 0.29482
#
# Static dielectric constant tensor:
#      x y z
#    x 1.806240 0.000000 0.000000 
#    y 0.000000 1.806240 0.000000 
#    z 0.000000 0.000000 1.784710 
# 
# From -- ./inp_files/6161.got.cif
#   From: 2010.05.17/outbox.ucp.g08.bks.cvg/sg127_4_cif.got.tgz:6161.got - 2010.06.11 11:37:05.
