data_PCOD9564793
_publ_section_title
;
Structure prediction by ZEFSAII (Michael W. Deem and Ramdas Pophale) SiO2 
 PCOD9564793
Probable space group: P 4/M N C
;
_chemical_formula_sum "Si O2"
_cell_formula_units_Z 96
_cell_length_a 23.817501
_cell_length_b 23.817501
_cell_length_c 9.015572
_cell_angle_alpha 90.000000
_cell_angle_beta 90.000000
_cell_angle_gamma 90.000000
_cell_volume 5114.293766
_symmetry_space_group_name_H-M "P 4/M N C"
_symmetry_group_IT_number 128
_symmetry_cell_setting 'tetragonal'
loop_
_space_group_symop_operation_xyz
x,y,z
-y,x,z
-x,-y,z
y,-x,z
1/2+x,1/2-y,1/2-z
1/2-x,1/2+y,1/2-z
1/2+y,1/2+x,1/2-z
1/2-y,1/2-x,1/2-z
-x,-y,-z
y,-x,-z
x,y,-z
-y,x,-z
1/2-x,1/2+y,1/2+z
1/2+x,1/2-y,1/2+z
1/2-y,1/2-x,1/2+z
1/2+y,1/2+x,1/2+z
loop_
_atom_site_type_symbol
_atom_site_label
_atom_site_fract_x
_atom_site_fract_y
_atom_site_fract_z
Si Si1 0.828706 0.792355 0.829947
Si Si2 0.898900 0.683140 0.178355
Si Si3 0.088956 0.104428 0.164834
Si Si4 0.488948 0.355767 0.833306
Si Si5 0.225699 0.509626 0.828287
Si Si6 0.641827 0.774292 0.821410
O O1 0.857100 0.734715 0.775294
O O2 0.879655 0.836442 0.835207
O O3 0.779394 0.822398 0.737432
O O4 0.808180 0.783946 0.000000
O O5 0.872224 0.627777 0.250000
O O6 0.962216 0.694378 0.234018
O O7 0.898022 0.681229 0.000000
O O8 0.040164 0.105325 0.285385
O O9 0.133942 0.058928 0.213779
O O10 0.066670 0.093544 0.000000
O O11 0.507000 0.291295 0.826317
O O12 0.468753 0.366630 0.000000
O O13 0.225220 0.575387 0.780917
O O14 0.206402 0.507482 0.000000
O O15 0.672213 0.827788 0.750000
O O16 0.644717 0.774455 0.000000
#
# Coordination Sequence:
#
# PCOD9564793 Si02
#       6
#    16  16  16  16  16  16
#     4  10  21  36  57  87 120 155 192 236 289 343
#     4  11  23  39  60  89 121 155 195 237 289 345
#     4  11  22  37  57  83 114 151 199 248 292 341
#     4  11  22  38  58  82 112 153 200 245 294 344
#     4  10  22  39  60  85 116 153 192 235 287 348
#     4  11  23  39  60  89 121 155 195 237 289 345
#
# _framework density 18.770921000000001
#
# number of rings (size 3 to 8) (size 9 to 14) (size 15 to 20)
#    0.000    1.333    3.333    2.500    0.000    5.667 
#    0.000    1.667    0.000    0.500    0.000    3.500 
#    0.000    0.000    0.000    0.000    0.000    0.000 
#
# Total GULP energy -535659.055620 kJ/mol
# GULP energy per Si atom -5579.781829 kJ/mol
# Density = 1.872820 g / cm^3
# Si number density = 18.770921 Si / 1000 Ang^3
#
#
#
# Elastic Constant Matrix: (Units=GPa)
#
#
# Indices 1 2 3 4 5 6 
#
# 1 50.2424 44.4697 35.5583 0.0000 0.0000 0.0000
# 2 44.4697 50.2452 35.5631 0.0000 0.0000 0.0000
# 3 35.5583 35.5631 63.6018 0.0000 0.0000 0.0000
# 4 0.0000 0.0000 0.0000 27.7494 0.0000 0.0000
# 5 0.0000 0.0000 0.0000 0.0000 27.7493 0.0000
# 6 0.0000 0.0000 0.0000 0.0000 0.0000 27.6713
#
#
#
# Elastic Compliance Matrix: (Units=1/GPa)
#
#
# Indices 1 2 3 4 5 6 
#
# 1 0.095689 -0.077494 -0.010167 0.000000 0.000000 0.000000
# 2 -0.077494 0.095697 -0.010184 0.000000 0.000000 0.000000
# 3 -0.010167 -0.010184 0.027101 0.000000 0.000000 0.000000
# 4 0.000000 0.000000 0.000000 0.036037 0.000000 0.000000
# 5 0.000000 0.000000 0.000000 0.000000 0.036037 0.000000
# 6 0.000000 0.000000 0.000000 0.000000 0.000000 0.036139
#
#
# Mechanical properties :
#
#
# Convention : Reuss Voigt Hill
#
# Bulk Modulus (GPa) = 43.86385 43.91906 43.89146
# Shear Modulus (GPa) = 9.43418 19.86723 14.65070
#
# Velocity S-wave (km/s) = 2.24430 3.25684 2.79677
# Velocity P-wave (km/s) = 5.48949 6.13114 5.81917
#
# Compressibility (1/GPa) = 0.02279782
#
# Stress axis : x y z
#
# Youngs Moduli (GPa) = 10.45052 10.44965 36.89887
#
# Poissons Ratio (x) = 0.80979 0.37514
# Poissons Ratio (y) = 0.80985 0.37578
# Poissons Ratio (z) = 0.10625 0.10642
#
# Static dielectric constant tensor:
#      x y z
#    x 1.662780 0.000000 0.000000 
#    y 0.000000 1.662780 0.000000 
#    z 0.000000 0.000000 1.649150 
# 
# From -- ./inp_files/1425.got.cif
#   From: 2010.05.17/outbox.cif.g08.bks.cpg/sg128_1_cif.got.tgz:1425.got - 2010.05.20 12:07:25.
