data_PCOD9564143
_publ_section_title
;
Structure prediction by ZEFSAII (Michael W. Deem and Ramdas Pophale) SiO2 
 PCOD9564143
Probable space group: P 4/M B M
;
_chemical_formula_sum "Si O2"
_cell_formula_units_Z 72
_cell_length_a 20.494897
_cell_length_b 20.494897
_cell_length_c 7.391971
_cell_angle_alpha 90.000000
_cell_angle_beta 90.000000
_cell_angle_gamma 90.000000
_cell_volume 3104.929435
_symmetry_space_group_name_H-M "P 4/M B M"
_symmetry_group_IT_number 127
_symmetry_cell_setting 'tetragonal'
loop_
_space_group_symop_operation_xyz
x,y,z
-y,x,z
-x,-y,z
y,-x,z
1/2+x,1/2-y,-z
1/2-x,1/2+y,-z
1/2+y,1/2+x,-z
1/2-y,1/2-x,-z
-x,-y,-z
y,-x,-z
x,y,-z
-y,x,-z
1/2-x,1/2+y,z
1/2+x,1/2-y,z
1/2-y,1/2-x,z
1/2+y,1/2+x,z
loop_
_atom_site_type_symbol
_atom_site_label
_atom_site_fract_x
_atom_site_fract_y
_atom_site_fract_z
Si Si1 0.293850 0.206151 0.719326
Si Si2 0.589132 0.554570 0.779366
Si Si3 0.942581 0.297605 0.717648
Si Si4 0.425615 0.728232 0.212015
Si Si5 0.813894 0.686107 0.207537
Si Si6 0.053126 0.553126 0.279636
O O1 0.291390 0.208611 0.500000
O O2 0.280387 0.131070 0.775986
O O3 0.241867 0.258134 0.788954
O O4 0.521329 0.586548 0.723579
O O5 0.656010 0.585300 0.712778
O O6 0.589347 0.555349 0.000000
O O7 0.941291 0.298262 0.500000
O O8 0.959771 0.371797 0.775865
O O9 0.999329 0.249042 0.775149
O O10 0.378382 0.782792 0.292243
O O11 0.408859 0.723824 0.000000
O O12 0.830858 0.669143 0.000000
O O13 0.052065 0.552065 0.500000
O O14 0.000000 0.500000 0.218214
#
# Coordination Sequence:
#
# PCOD9564143 Si02
#       6
#     8  16  16  16   8   8
#     4   9  20  39  58  79 107 141 185 232 271 322
#     4   8  15  29  50  74  97 129 176 217 251 306
#     4   9  19  35  55  79 103 133 179 224 264 316
#     4  10  21  34  52  78 111 143 174 219 273 325
#     4  10  23  37  51  81 117 146 182 227 273 334
#     4   8  15  30  53  75  95 127 172 215 250 304
#
# _framework density 23.188932000000001
#
# number of rings (size 3 to 8) (size 9 to 14) (size 15 to 20)
#    0.000    3.000    0.000    2.000    4.667    1.778 
#    0.000    1.667    0.000    0.667    0.000    1.556 
#    0.000    0.000    0.000    0.000    0.000    0.000 
#
# Total GULP energy -402079.366199 kJ/mol
# GULP energy per Si atom -5584.435642 kJ/mol
# Density = 2.313615 g / cm^3
# Si number density = 23.188932 Si / 1000 Ang^3
#
#
#
# Elastic Constant Matrix: (Units=GPa)
#
#
# Indices 1 2 3 4 5 6 
#
# 1 46.7987 6.3559 -8.2032 0.0000 0.0000 0.0000
# 2 6.3559 46.8010 -8.2022 0.0000 0.0000 0.0000
# 3 -8.2032 -8.2022 81.3441 0.0000 0.0000 0.0000
# 4 0.0000 0.0000 0.0000 9.6858 0.0000 0.0000
# 5 0.0000 0.0000 0.0000 0.0000 9.6857 0.0000
# 6 0.0000 0.0000 0.0000 0.0000 0.0000 28.5160
#
#
#
# Elastic Compliance Matrix: (Units=1/GPa)
#
#
# Indices 1 2 3 4 5 6 
#
# 1 0.022072 -0.002654 0.001958 0.000000 0.000000 0.000000
# 2 -0.002654 0.022071 0.001958 0.000000 0.000000 0.000000
# 3 0.001958 0.001958 0.012688 0.000000 0.000000 0.000000
# 4 0.000000 0.000000 0.000000 0.103244 0.000000 0.000000
# 5 0.000000 0.000000 0.000000 0.000000 0.103245 0.000000
# 6 0.000000 0.000000 0.000000 0.000000 0.000000 0.035068
#
#
# Mechanical properties :
#
#
# Convention : Reuss Voigt Hill
#
# Bulk Modulus (GPa) = 16.84804 17.20500 17.02652
# Shear Modulus (GPa) = 15.84034 21.91038 18.87536
#
# Velocity S-wave (km/s) = 2.61645 3.07720 2.85613
# Velocity P-wave (km/s) = 4.05081 4.47897 4.27026
#
# Compressibility (1/GPa) = 0.05935410
#
# Stress axis : x y z
#
# Youngs Moduli (GPa) = 45.30659 45.30907 78.81249
#
# Poissons Ratio (x) = 0.12027 -0.15433
# Poissons Ratio (y) = 0.12026 -0.15430
# Poissons Ratio (z) = -0.08872 -0.08870
#
# Static dielectric constant tensor:
#      x y z
#    x 1.862530 0.000000 0.000000 
#    y 0.000000 1.862530 0.000000 
#    z 0.000000 0.000000 1.904460 
# 
# From -- ./inp_files/1606.got.cif
#   From: 2010.05.17/outbox.cif.g08.bks.cpg/sg127_1_cif.got.tgz:1606.got - 2010.05.20 12:03:00.
