data_PCOD9564238
_publ_section_title
;
Structure prediction by ZEFSAII (Michael W. Deem and Ramdas Pophale) SiO2 
 PCOD9564238
Probable space group: P 4/M B M
;
_chemical_formula_sum "Si O2"
_cell_formula_units_Z 72
_cell_length_a 22.346757
_cell_length_b 22.346757
_cell_length_c 7.376042
_cell_angle_alpha 90.000000
_cell_angle_beta 90.000000
_cell_angle_gamma 90.000000
_cell_volume 3683.429771
_symmetry_space_group_name_H-M "P 4/M B M"
_symmetry_group_IT_number 127
_symmetry_cell_setting 'tetragonal'
loop_
_space_group_symop_operation_xyz
x,y,z
-y,x,z
-x,-y,z
y,-x,z
1/2+x,1/2-y,-z
1/2-x,1/2+y,-z
1/2+y,1/2+x,-z
1/2-y,1/2-x,-z
-x,-y,-z
y,-x,-z
x,y,-z
-y,x,-z
1/2-x,1/2+y,z
1/2+x,1/2-y,z
1/2-y,1/2-x,z
1/2+y,1/2+x,z
loop_
_atom_site_type_symbol
_atom_site_label
_atom_site_fract_x
_atom_site_fract_y
_atom_site_fract_z
Si Si1 0.594303 0.479716 0.720283
Si Si2 0.674138 0.724688 0.000000
Si Si3 0.548359 0.048359 0.279879
Si Si4 0.186044 0.466424 0.716126
Si Si5 0.271409 0.873018 0.000000
Si Si6 0.070763 0.777286 0.716280
O O1 0.569169 0.544540 0.777485
O O2 0.594124 0.480531 0.500000
O O3 0.661146 0.462351 0.774427
O O4 0.709645 0.662312 0.000000
O O5 0.631562 0.728423 0.825957
O O6 0.722502 0.777499 0.000000
O O7 0.547043 0.047043 0.500000
O O8 0.616465 0.033116 0.227358
O O9 0.500000 0.000000 0.216005
O O10 0.188598 0.455488 0.500000
O O11 0.219192 0.414494 0.825375
O O12 0.221098 0.527680 0.753167
O O13 0.323853 0.823853 0.000000
O O14 0.080842 0.780409 0.500000
#
# Coordination Sequence:
#
# PCOD9564238 Si02
#       6
#    16   8   8  16   8  16
#     4   8  15  30  54  87 122 153 195 250 305 364
#     4  11  27  44  58  85 125 168 212 258 302 368
#     4   9  18  35  61  95 128 157 197 258 323 379
#     4  10  21  39  64  94 125 161 209 260 314 376
#     4  11  23  40  62  87 125 168 208 256 308 363
#     4  10  22  40  64  90 121 166 210 256 314 370
#
# _framework density 19.546997999999999
#
# number of rings (size 3 to 8) (size 9 to 14) (size 15 to 20)
#    0.000    2.333    1.111    1.333    3.111    2.222 
#    0.000    5.556    0.000    1.333    0.000    0.000 
#    0.000    0.000    0.000    0.000    0.000    0.000 
#
# Total GULP energy -402188.275060 kJ/mol
# GULP energy per Si atom -5585.948265 kJ/mol
# Density = 1.950251 g / cm^3
# Si number density = 19.546998 Si / 1000 Ang^3
#
#
#
# Elastic Constant Matrix: (Units=GPa)
#
#
# Indices 1 2 3 4 5 6 
#
# 1 151.1630 105.3350 48.1495 0.0000 0.0000 0.0000
# 2 105.3350 151.1636 48.1496 0.0000 0.0000 0.0000
# 3 48.1495 48.1496 80.6951 0.0000 0.0000 0.0000
# 4 0.0000 0.0000 0.0000 32.0646 0.0000 0.0000
# 5 0.0000 0.0000 0.0000 0.0000 32.0603 0.0000
# 6 0.0000 0.0000 0.0000 0.0000 0.0000 28.2869
#
#
#
# Elastic Compliance Matrix: (Units=1/GPa)
#
#
# Indices 1 2 3 4 5 6 
#
# 1 0.013422 -0.008398 -0.002998 0.000000 0.000000 0.000000
# 2 -0.008398 0.013422 -0.002998 0.000000 0.000000 0.000000
# 3 -0.002998 -0.002998 0.015970 0.000000 0.000000 0.000000
# 4 0.000000 0.000000 0.000000 0.031187 0.000000 0.000000
# 5 0.000000 0.000000 0.000000 0.000000 0.031191 0.000000
# 6 0.000000 0.000000 0.000000 0.000000 0.000000 0.035352
#
#
# Mechanical properties :
#
#
# Convention : Reuss Voigt Hill
#
# Bulk Modulus (GPa) = 71.29203 87.36556 79.32880
# Shear Modulus (GPa) = 28.73426 30.57486 29.65456
#
# Velocity S-wave (km/s) = 3.83823 3.95925 3.89921
# Velocity P-wave (km/s) = 7.49626 8.10513 7.80663
#
# Compressibility (1/GPa) = 0.01402681
#
# Stress axis : x y z
#
# Youngs Moduli (GPa) = 74.50238 74.50264 62.61798
#
# Poissons Ratio (x) = 0.62569 0.18772
# Poissons Ratio (y) = 0.62569 0.18772
# Poissons Ratio (z) = 0.22335 0.22335
#
# Static dielectric constant tensor:
#      x y z
#    x 1.656570 0.000000 0.000000 
#    y 0.000000 1.656570 0.000000 
#    z 0.000000 0.000000 1.520800 
# 
# From -- ./inp_files/1661.got.cif
#   From: 2010.05.17/outbox.cif.g08.bks.cpg/sg127_1_cif.got.tgz:1661.got - 2010.05.20 12:03:00.
