data_PCOD9564557
_publ_section_title
;
Structure prediction by ZEFSAII (Michael W. Deem and Ramdas Pophale) SiO2 
 PCOD9564557
Probable space group: P 4/M N C
;
_chemical_formula_sum "Si O2"
_cell_formula_units_Z 96
_cell_length_a 23.610881
_cell_length_b 23.610881
_cell_length_c 8.798296
_cell_angle_alpha 90.000000
_cell_angle_beta 90.000000
_cell_angle_gamma 90.000000
_cell_volume 4904.818639
_symmetry_space_group_name_H-M "P 4/M N C"
_symmetry_group_IT_number 128
_symmetry_cell_setting 'tetragonal'
loop_
_space_group_symop_operation_xyz
x,y,z
-y,x,z
-x,-y,z
y,-x,z
1/2+x,1/2-y,1/2-z
1/2-x,1/2+y,1/2-z
1/2+y,1/2+x,1/2-z
1/2-y,1/2-x,1/2-z
-x,-y,-z
y,-x,-z
x,y,-z
-y,x,-z
1/2-x,1/2+y,1/2+z
1/2+x,1/2-y,1/2+z
1/2-y,1/2-x,1/2+z
1/2+y,1/2+x,1/2+z
loop_
_atom_site_type_symbol
_atom_site_label
_atom_site_fract_x
_atom_site_fract_y
_atom_site_fract_z
Si Si1 0.664633 0.250682 0.319755
Si Si2 0.559618 0.187376 0.824951
Si Si3 0.820606 0.873764 0.316266
Si Si4 0.898647 0.481313 0.322266
Si Si5 0.044594 0.920560 0.315019
Si Si6 0.793700 0.435095 0.822938
O O1 0.718051 0.218051 0.250000
O O2 0.668577 0.251742 0.500000
O O3 0.609236 0.215584 0.269103
O O4 0.663694 0.313788 0.254014
O O5 0.536266 0.127769 0.760328
O O6 0.501686 0.224818 0.819893
O O7 0.577224 0.181349 0.000000
O O8 0.823275 0.869713 0.500000
O O9 0.865734 0.921062 0.265367
O O10 0.757243 0.894526 0.278621
O O11 0.954430 0.454430 0.250000
O O12 0.905364 0.490547 0.500000
O O13 0.847813 0.436303 0.286417
O O14 0.044242 0.920055 0.500000
O O15 0.979100 0.925063 0.267466
O O16 0.810507 0.424613 0.000000
#
# Coordination Sequence:
#
# PCOD9564557 Si02
#       6
#    16  16  16  16  16  16
#     4  12  26  43  61  85 116 158 201 248 299 358
#     4   9  19  38  61  86 115 151 193 241 293 358
#     4  10  20  35  58  84 113 153 198 248 298 354
#     4  10  18  31  54  85 118 152 189 237 291 350
#     4   8  15  27  48  82 117 149 190 239 289 342
#     4   8  18  33  53  83 114 149 192 239 296 351
#
# _framework density 19.572589000000001
#
# number of rings (size 3 to 8) (size 9 to 14) (size 15 to 20)
#    1.000    1.500    0.000    3.500    2.333    1.333 
#    0.000    0.000    0.000    0.500    0.000    4.667 
#    0.000    0.000    0.000    0.000    0.000    0.000 
#
# Total GULP energy -535111.215747 kJ/mol
# GULP energy per Si atom -5574.075164 kJ/mol
# Density = 1.952804 g / cm^3
# Si number density = 19.572589 Si / 1000 Ang^3
#
#
#
# Elastic Constant Matrix: (Units=GPa)
#
#
# Indices 1 2 3 4 5 6 
#
# 1 72.2655 16.0062 16.6698 0.0000 0.0000 0.0000
# 2 16.0062 72.2655 16.6698 0.0000 0.0000 0.0000
# 3 16.6698 16.6698 59.0467 0.0000 0.0000 0.0000
# 4 0.0000 0.0000 0.0000 22.6737 0.0000 0.0000
# 5 0.0000 0.0000 0.0000 0.0000 22.6737 0.0000
# 6 0.0000 0.0000 0.0000 0.0000 0.0000 39.3234
#
#
#
# Elastic Compliance Matrix: (Units=1/GPa)
#
#
# Indices 1 2 3 4 5 6 
#
# 1 0.015228 -0.002547 -0.003580 0.000000 0.000000 0.000000
# 2 -0.002547 0.015228 -0.003580 0.000000 0.000000 0.000000
# 3 -0.003580 -0.003580 0.018957 0.000000 0.000000 0.000000
# 4 0.000000 0.000000 0.000000 0.044104 0.000000 0.000000
# 5 0.000000 0.000000 0.000000 0.000000 0.044104 0.000000
# 6 0.000000 0.000000 0.000000 0.000000 0.000000 0.025430
#
#
# Mechanical properties :
#
#
# Convention : Reuss Voigt Hill
#
# Bulk Modulus (GPa) = 33.33472 33.58549 33.46010
# Shear Modulus (GPa) = 25.97884 27.21629 26.59756
#
# Velocity S-wave (km/s) = 3.64718 3.73303 3.69035
# Velocity P-wave (km/s) = 5.89950 5.98142 5.94060
#
# Compressibility (1/GPa) = 0.02999875
#
# Stress axis : x y z
#
# Youngs Moduli (GPa) = 65.66929 65.66929 52.75059
#
# Poissons Ratio (x) = 0.16726 0.18885
# Poissons Ratio (y) = 0.16726 0.18885
# Poissons Ratio (z) = 0.23510 0.23510
#
# Static dielectric constant tensor:
#      x y z
#    x 1.695720 0.000000 0.000000 
#    y 0.000000 1.695720 0.000000 
#    z 0.000000 0.000000 1.654700 
# 
# From -- ./inp_files/1476.got.cif
#   From: 2010.05.17/outbox.cif.g08.bks.cpg/sg128_1_cif.got.tgz:1476.got - 2010.05.20 12:07:25.
