data_PCOD9564052
_publ_section_title
;
Structure prediction by ZEFSAII (Michael W. Deem and Ramdas Pophale) SiO2 
 PCOD9564052
Probable space group: P 4/M B M
;
_chemical_formula_sum "Si O2"
_cell_formula_units_Z 120
_cell_length_a 27.474938
_cell_length_b 27.474938
_cell_length_c 8.815463
_cell_angle_alpha 90.000000
_cell_angle_beta 90.000000
_cell_angle_gamma 90.000000
_cell_volume 6654.548108
_symmetry_space_group_name_H-M "P 4/M B M"
_symmetry_group_IT_number 127
_symmetry_cell_setting 'tetragonal'
loop_
_space_group_symop_operation_xyz
x,y,z
-y,x,z
-x,-y,z
y,-x,z
1/2+x,1/2-y,-z
1/2-x,1/2+y,-z
1/2+y,1/2+x,-z
1/2-y,1/2-x,-z
-x,-y,-z
y,-x,-z
x,y,-z
-y,x,-z
1/2-x,1/2+y,z
1/2+x,1/2-y,z
1/2-y,1/2-x,z
1/2+y,1/2+x,z
loop_
_atom_site_type_symbol
_atom_site_label
_atom_site_fract_x
_atom_site_fract_y
_atom_site_fract_z
Si Si1 0.151794 0.523679 0.318069
Si Si2 0.261766 0.844367 0.670936
Si Si3 0.057012 0.280108 0.820175
Si Si4 0.410824 0.234604 0.183291
Si Si5 0.960038 0.460038 0.315124
Si Si6 0.078909 0.001434 0.185101
Si Si7 0.189747 0.005904 0.183619
Si Si8 0.192126 0.774777 0.174691
O O1 0.152924 0.524849 0.500000
O O2 0.178366 0.474861 0.259868
O O3 0.185686 0.567209 0.254612
O O4 0.095461 0.527586 0.268768
O O5 0.256128 0.862987 0.500000
O O6 0.301709 0.801709 0.669570
O O7 0.280824 0.886957 0.777444
O O8 0.212263 0.820011 0.730958
O O9 0.036871 0.226887 0.771574
O O10 0.049270 0.284660 0.000000
O O11 0.445695 0.280039 0.223751
O O12 0.356782 0.249191 0.230989
O O13 0.411806 0.228851 0.000000
O O14 0.960697 0.460697 0.500000
O O15 0.000000 0.500000 0.264545
O O16 0.046485 0.048233 0.230211
O O17 0.134524 0.002794 0.240166
O O18 0.079894 0.001468 0.000000
O O19 0.186700 0.005023 0.000000
O O20 0.234135 0.734135 0.174195
O O21 0.183900 0.790334 0.000000
#
# Coordination Sequence:
#
# PCOD9564052 Si02
#       8
#    16  16  16  16   8  16  16  16
#     4  10  20  35  56  80 105 138 178 220 269 326
#     4  10  21  36  53  75 103 135 171 213 259 311
#     4  10  20  35  54  76 103 136 173 215 262 318
#     4   9  18  32  50  74 105 139 174 216 263 316
#     4   9  20  38  57  79 107 137 175 221 267 325
#     4   8  13  21  35  58  89 124 162 203 245 290
#     4   8  15  27  42  64  95 128 164 203 247 298
#     4   9  18  32  50  74 103 137 175 213 259 314
#
# _framework density 18.032779999999999
#
# number of rings (size 3 to 8) (size 9 to 14) (size 15 to 20)
#    0.000    2.867    0.000    2.400    0.933    2.933 
#    0.000    6.333    0.000    2.800    0.000    0.000 
#    0.000    0.000    0.000   37.867    0.000   34.667 
#
# Total GULP energy -668569.090968 kJ/mol
# GULP energy per Si atom -5571.409091 kJ/mol
# Density = 1.799174 g / cm^3
# Si number density = 18.032780 Si / 1000 Ang^3
#
#
#
# Elastic Constant Matrix: (Units=GPa)
#
#
# Indices 1 2 3 4 5 6 
#
# 1 118.4836 51.1475 25.2278 0.0000 0.0000 0.0000
# 2 51.1475 118.4836 25.2278 0.0000 0.0000 0.0000
# 3 25.2278 25.2278 27.1727 0.0000 0.0000 0.0000
# 4 0.0000 0.0000 0.0000 21.7555 0.0000 0.0000
# 5 0.0000 0.0000 0.0000 0.0000 21.7555 0.0000
# 6 0.0000 0.0000 0.0000 0.0000 0.0000 8.7704
#
#
#
# Elastic Compliance Matrix: (Units=1/GPa)
#
#
# Indices 1 2 3 4 5 6 
#
# 1 0.011498 -0.003353 -0.007561 0.000000 0.000000 0.000000
# 2 -0.003353 0.011498 -0.007561 0.000000 0.000000 0.000000
# 3 -0.007561 -0.007561 0.050842 0.000000 0.000000 0.000000
# 4 0.000000 0.000000 0.000000 0.045965 0.000000 0.000000
# 5 0.000000 0.000000 0.000000 0.000000 0.045965 0.000000
# 6 0.000000 0.000000 0.000000 0.000000 0.000000 0.114020
#
#
# Mechanical properties :
#
#
# Convention : Reuss Voigt Hill
#
# Bulk Modulus (GPa) = 27.11126 51.92734 39.51930
# Shear Modulus (GPa) = 15.19597 21.29205 18.24401
#
# Velocity S-wave (km/s) = 2.90605 3.43992 3.18420
# Velocity P-wave (km/s) = 5.13101 6.68102 5.95665
#
# Compressibility (1/GPa) = 0.03688504
#
# Stress axis : x y z
#
# Youngs Moduli (GPa) = 86.97520 86.97520 19.66890
#
# Poissons Ratio (x) = 0.29166 0.14872
# Poissons Ratio (y) = 0.29166 0.14872
# Poissons Ratio (z) = 0.65764 0.65764
#
# Static dielectric constant tensor:
#      x y z
#    x 1.613220 0.000000 0.000000 
#    y 0.000000 1.613220 0.000000 
#    z 0.000000 0.000000 1.622920 
# 
# From -- ./inp_files/2410.got.cif
#   From: 2010.05.17/outbox.cif.g08.bks.cpg/sg127_2_cif.got.tgz:2410.got - 2010.05.20 12:03:00.
