data_PCOD9564830
_publ_section_title
;
Structure prediction by ZEFSAII (Michael W. Deem and Ramdas Pophale) SiO2 
 PCOD9564830
Probable space group: P 4/M N C
;
_chemical_formula_sum "Si O2"
_cell_formula_units_Z 96
_cell_length_a 15.025873
_cell_length_b 15.025873
_cell_length_c 19.871975
_cell_angle_alpha 90.000000
_cell_angle_beta 90.000000
_cell_angle_gamma 90.000000
_cell_volume 4486.632106
_symmetry_space_group_name_H-M "P 4/M N C"
_symmetry_group_IT_number 128
_symmetry_cell_setting 'tetragonal'
loop_
_space_group_symop_operation_xyz
x,y,z
-y,x,z
-x,-y,z
y,-x,z
1/2+x,1/2-y,1/2-z
1/2-x,1/2+y,1/2-z
1/2+y,1/2+x,1/2-z
1/2-y,1/2-x,1/2-z
-x,-y,-z
y,-x,-z
x,y,-z
-y,x,-z
1/2-x,1/2+y,1/2+z
1/2+x,1/2-y,1/2+z
1/2-y,1/2-x,1/2+z
1/2+y,1/2+x,1/2+z
loop_
_atom_site_type_symbol
_atom_site_label
_atom_site_fract_x
_atom_site_fract_y
_atom_site_fract_z
Si Si1 0.548824 0.639478 0.123552
Si Si2 0.477093 0.267625 0.265687
Si Si3 0.360655 0.842499 0.420386
Si Si4 0.452827 0.180831 0.926363
Si Si5 0.791887 0.181845 0.806964
Si Si6 0.898779 0.470867 0.664086
O O1 0.447345 0.607890 0.115157
O O2 0.550755 0.684634 0.197099
O O3 0.576628 0.717780 0.074598
O O4 0.395136 0.291587 0.315063
O O5 0.577841 0.293606 0.283951
O O6 0.477572 0.160519 0.269119
O O7 0.361447 0.822673 0.500000
O O8 0.313954 0.768318 0.374054
O O9 0.459204 0.854650 0.388600
O O10 0.319001 0.941164 0.411009
O O11 0.401518 0.124103 0.871586
O O12 0.442654 0.139102 0.000000
O O13 0.742709 0.242709 0.750000
O O14 0.000000 0.500000 0.672391
#
# Coordination Sequence:
#
# PCOD9564830 Si02
#       6
#    16  16  16  16  16  16
#     4  11  24  41  60  84 117 164 215 264 312 375
#     4  11  23  41  65  88 125 168 210 269 320 379
#     4   9  19  39  64  93 130 165 202 260 319 381
#     4  10  21  38  62  89 123 165 206 253 319 387
#     4  11  24  42  64  96 127 167 221 265 323 391
#     4   9  20  38  63  95 126 162 206 256 320 388
#
# _framework density 21.396895000000001
#
# number of rings (size 3 to 8) (size 9 to 14) (size 15 to 20)
#    0.000    1.833    1.667    1.500    2.333    3.000 
#    0.000    9.167    0.000    0.000    0.000    4.667 
#    0.000    0.000    0.000    0.000    0.000    0.000 
#
# Total GULP energy -536382.236691 kJ/mol
# GULP energy per Si atom -5587.314966 kJ/mol
# Density = 2.134819 g / cm^3
# Si number density = 21.396895 Si / 1000 Ang^3
#
#
#
# Elastic Constant Matrix: (Units=GPa)
#
#
# Indices 1 2 3 4 5 6 
#
# 1 103.3167 16.1170 8.3711 0.0000 0.0000 0.0000
# 2 16.1170 103.3167 8.3711 0.0000 0.0000 0.0000
# 3 8.3711 8.3711 67.3944 0.0000 0.0000 0.0000
# 4 0.0000 0.0000 0.0000 19.7636 0.0000 0.0000
# 5 0.0000 0.0000 0.0000 0.0000 19.7636 0.0000
# 6 0.0000 0.0000 0.0000 0.0000 0.0000 22.1328
#
#
#
# Elastic Compliance Matrix: (Units=1/GPa)
#
#
# Indices 1 2 3 4 5 6 
#
# 1 0.009995 -0.001473 -0.001058 0.000000 0.000000 0.000000
# 2 -0.001473 0.009995 -0.001058 0.000000 0.000000 0.000000
# 3 -0.001058 -0.001058 0.015101 0.000000 0.000000 0.000000
# 4 0.000000 0.000000 0.000000 0.050598 0.000000 0.000000
# 5 0.000000 0.000000 0.000000 0.000000 0.050598 0.000000
# 6 0.000000 0.000000 0.000000 0.000000 0.000000 0.045182
#
#
# Mechanical properties :
#
#
# Convention : Reuss Voigt Hill
#
# Bulk Modulus (GPa) = 35.82987 37.74960 36.78973
# Shear Modulus (GPa) = 25.25870 28.40991 26.83430
#
# Velocity S-wave (km/s) = 3.43955 3.64779 3.54520
# Velocity P-wave (km/s) = 5.70576 5.95170 5.83003
#
# Compressibility (1/GPa) = 0.02790967
#
# Stress axis : x y z
#
# Youngs Moduli (GPa) = 100.05425 100.05425 66.22093
#
# Poissons Ratio (x) = 0.14742 0.07009
# Poissons Ratio (y) = 0.14742 0.07009
# Poissons Ratio (z) = 0.10590 0.10590
#
# Static dielectric constant tensor:
#      x y z
#    x 1.782560 0.000000 0.000000 
#    y 0.000000 1.782560 0.000000 
#    z 0.000000 0.000000 1.804960 
# 
# From -- ./inp_files/5775.got.cif
#   From: 2010.05.17/outbox.cif.g08.bks.cpg/sg128_3_cif.got.tgz:5775.got - 2010.05.20 12:07:25.
