data_PCOD9564403
_publ_section_title
;
Structure prediction by ZEFSAII (Michael W. Deem and Ramdas Pophale) SiO2 
 PCOD9564403
Probable space group: P 4/M B M
;
_chemical_formula_sum "Si O2"
_cell_formula_units_Z 64
_cell_length_a 18.520460
_cell_length_b 18.520460
_cell_length_c 8.138980
_cell_angle_alpha 90.000000
_cell_angle_beta 90.000000
_cell_angle_gamma 90.000000
_cell_volume 2791.730683
_symmetry_space_group_name_H-M "P 4/M B M"
_symmetry_group_IT_number 127
_symmetry_cell_setting 'tetragonal'
loop_
_space_group_symop_operation_xyz
x,y,z
-y,x,z
-x,-y,z
y,-x,z
1/2+x,1/2-y,-z
1/2-x,1/2+y,-z
1/2+y,1/2+x,-z
1/2-y,1/2-x,-z
-x,-y,-z
y,-x,-z
x,y,-z
-y,x,-z
1/2-x,1/2+y,z
1/2+x,1/2-y,z
1/2-y,1/2-x,z
1/2+y,1/2+x,z
loop_
_atom_site_type_symbol
_atom_site_label
_atom_site_fract_x
_atom_site_fract_y
_atom_site_fract_z
Si Si1 0.276322 0.970438 0.813591
Si Si2 0.798836 0.179402 0.175578
Si Si3 0.648953 0.968149 0.500000
Si Si4 0.770797 0.845953 0.500000
Si Si5 0.487924 0.381667 0.300253
O O1 0.332023 0.989823 0.668274
O O2 0.197939 0.006434 0.777505
O O3 0.257496 0.885648 0.807317
O O4 0.299860 0.989039 0.000000
O O5 0.753770 0.253770 0.168766
O O6 0.847361 0.183449 0.335906
O O7 0.836646 0.171043 0.000000
O O8 0.571600 0.928401 0.500000
O O9 0.709007 0.904755 0.500000
O O10 0.731626 0.768375 0.500000
O O11 0.561577 0.425194 0.255175
O O12 0.488001 0.373117 0.500000
#
# Coordination Sequence:
#
# PCOD9564403 Si02
#       5
#    16  16   8   8  16
#     4  11  23  36  59  86 109 150 193 234 287 340
#     4   9  19  36  58  86 115 143 186 239 286 336
#     4  11  25  42  57  78 116 154 188 238 286 335
#     4   9  19  34  56  80 107 149 184 221 279 332
#     4   9  19  35  55  81 118 161 196 231 275 328
#
# _framework density 22.924847
#
# number of rings (size 3 to 8) (size 9 to 14) (size 15 to 20)
#    0.000    2.250    1.250    1.500    3.500    2.500 
#    0.000    3.750    0.000    1.500    0.000    3.500 
#    0.000    0.000    0.000    0.000    0.000    0.000 
#
# Total GULP energy -357636.274707 kJ/mol
# GULP energy per Si atom -5588.066792 kJ/mol
# Density = 2.287267 g / cm^3
# Si number density = 22.924847 Si / 1000 Ang^3
#
#
#
# Elastic Constant Matrix: (Units=GPa)
#
#
# Indices 1 2 3 4 5 6 
#
# 1 32.1656 -9.5214 8.7875 0.0000 0.0000 0.0000
# 2 -9.5214 32.1656 8.7870 0.0000 0.0000 0.0000
# 3 8.7875 8.7870 168.0714 0.0000 0.0000 0.0000
# 4 0.0000 0.0000 0.0000 5.7476 0.0000 0.0000
# 5 0.0000 0.0000 0.0000 0.0000 5.7469 0.0000
# 6 0.0000 0.0000 0.0000 0.0000 0.0000 38.2157
#
#
#
# Elastic Compliance Matrix: (Units=1/GPa)
#
#
# Indices 1 2 3 4 5 6 
#
# 1 0.035009 0.011020 -0.002407 0.000000 0.000000 0.000000
# 2 0.011020 0.035009 -0.002406 0.000000 0.000000 0.000000
# 3 -0.002407 -0.002406 0.006201 0.000000 0.000000 0.000000
# 4 0.000000 0.000000 0.000000 0.173986 0.000000 0.000000
# 5 0.000000 0.000000 0.000000 0.000000 0.174006 0.000000
# 6 0.000000 0.000000 0.000000 0.000000 0.000000 0.026167
#
#
# Mechanical properties :
#
#
# Convention : Reuss Voigt Hill
#
# Bulk Modulus (GPa) = 11.28242 27.61210 19.44726
# Shear Modulus (GPa) = 10.69500 24.89867 17.79684
#
# Velocity S-wave (km/s) = 2.16226 3.29918 2.78926
# Velocity P-wave (km/s) = 3.34156 5.15592 4.34451
#
# Compressibility (1/GPa) = 0.08863350
#
# Stress axis : x y z
#
# Youngs Moduli (GPa) = 28.56433 28.56436 161.25156
#
# Poissons Ratio (x) = -0.31479 0.38806
# Poissons Ratio (y) = -0.31479 0.38805
# Poissons Ratio (z) = 0.06874 0.06874
#
# Static dielectric constant tensor:
#      x y z
#    x 1.883490 0.000000 0.000000 
#    y 0.000000 1.883490 0.000000 
#    z 0.000000 0.000000 1.898090 
# 
# From -- ./inp_files/1413.got.cif
#   From: 2010.05.17/outbox.cif.g08.bks.cpg/sg127_1_cif.got.tgz:1413.got - 2010.05.20 12:03:00.
