data_PCOD9564164
_publ_section_title
;
Structure prediction by ZEFSAII (Michael W. Deem and Ramdas Pophale) SiO2 
 PCOD9564164
Probable space group: P 4/M B M
;
_chemical_formula_sum "Si O2"
_cell_formula_units_Z 92
_cell_length_a 14.303130
_cell_length_b 14.303130
_cell_length_c 22.581366
_cell_angle_alpha 90.000000
_cell_angle_beta 90.000000
_cell_angle_gamma 90.000000
_cell_volume 4619.685193
_symmetry_space_group_name_H-M "P 4/M B M"
_symmetry_group_IT_number 127
_symmetry_cell_setting 'tetragonal'
loop_
_space_group_symop_operation_xyz
x,y,z
-y,x,z
-x,-y,z
y,-x,z
1/2+x,1/2-y,-z
1/2-x,1/2+y,-z
1/2+y,1/2+x,-z
1/2-y,1/2-x,-z
-x,-y,-z
y,-x,-z
x,y,-z
-y,x,-z
1/2-x,1/2+y,z
1/2+x,1/2-y,z
1/2-y,1/2-x,z
1/2+y,1/2+x,z
loop_
_atom_site_type_symbol
_atom_site_label
_atom_site_fract_x
_atom_site_fract_y
_atom_site_fract_z
Si Si1 0.893471 0.763306 0.125361
Si Si2 0.109604 0.609604 0.500000
Si Si3 0.073016 0.573016 0.379147
Si Si4 0.095174 0.751566 0.185129
Si Si5 0.737577 0.080671 0.500000
Si Si6 0.476813 0.253659 0.318100
Si Si7 0.570686 0.358220 0.000000
Si Si8 0.689644 0.651367 0.378112
O O1 0.829137 0.670864 0.128095
O O2 0.839145 0.843262 0.162771
O O3 0.997213 0.746846 0.150442
O O4 0.901817 0.801690 0.058632
O O5 0.127663 0.627663 0.430984
O O6 0.168097 0.508779 0.500000
O O7 0.146527 0.519608 0.339299
O O8 0.000000 0.500000 0.408376
O O9 0.160189 0.660189 0.176292
O O10 0.069207 0.759979 0.254176
O O11 0.667979 0.167979 0.500000
O O12 0.797228 0.095686 0.559927
O O13 0.410895 0.306184 0.365137
O O14 0.579846 0.292540 0.324532
O O15 0.620883 0.459475 0.000000
O O16 0.767629 0.732372 0.376090
#
# Coordination Sequence:
#
# PCOD9564164 Si02
#       8
#    16   4   8  16   8  16   8  16
#     4  11  24  43  70 101 140 181 219 282 338 387
#     4  12  21  38  64 100 126 156 224 293 338 405
#     4  12  23  38  68  98 124 169 221 287 341 391
#     4  11  24  43  65  98 136 177 226 274 337 405
#     4  10  21  35  60  89 122 159 208 273 346 400
#     4  12  24  43  65  91 134 173 223 272 334 417
#     4  11  21  42  74 103 136 178 236 277 316 396
#     4  11  24  42  61  92 125 168 219 278 343 407
#
# _framework density 19.914777000000001
#
# number of rings (size 3 to 8) (size 9 to 14) (size 15 to 20)
#    0.000    0.783    5.217    2.609    0.000    5.217 
#    0.000    2.174    0.000    2.087    0.000    0.000 
#    0.000    0.000    0.000    0.000    0.000    0.000 
#
# Total GULP energy -513359.066697 kJ/mol
# GULP energy per Si atom -5579.989855 kJ/mol
# Density = 1.986945 g / cm^3
# Si number density = 19.914777 Si / 1000 Ang^3
#
#
#
# Elastic Constant Matrix: (Units=GPa)
#
#
# Indices 1 2 3 4 5 6 
#
# 1 109.5334 44.5349 37.2179 0.0000 0.0000 0.0000
# 2 44.5349 109.5334 37.2179 0.0000 0.0000 0.0000
# 3 37.2179 37.2179 125.7239 0.0000 0.0000 0.0000
# 4 0.0000 0.0000 0.0000 9.1641 0.0000 0.0000
# 5 0.0000 0.0000 0.0000 0.0000 9.1641 0.0000
# 6 0.0000 0.0000 0.0000 0.0000 0.0000 20.3536
#
#
#
# Elastic Compliance Matrix: (Units=1/GPa)
#
#
# Indices 1 2 3 4 5 6 
#
# 1 0.011479 -0.003906 -0.002242 0.000000 0.000000 0.000000
# 2 -0.003906 0.011479 -0.002242 0.000000 0.000000 0.000000
# 3 -0.002242 -0.002242 0.009281 0.000000 0.000000 0.000000
# 4 0.000000 0.000000 0.000000 0.109122 0.000000 0.000000
# 5 0.000000 0.000000 0.000000 0.000000 0.109122 0.000000
# 6 0.000000 0.000000 0.000000 0.000000 0.000000 0.049131
#
#
# Mechanical properties :
#
#
# Convention : Reuss Voigt Hill
#
# Bulk Modulus (GPa) = 64.67986 64.74803 64.71394
# Shear Modulus (GPa) = 15.54975 22.79100 19.17038
#
# Velocity S-wave (km/s) = 2.79734 3.38661 3.10598
# Velocity P-wave (km/s) = 6.55609 6.91920 6.74009
#
# Compressibility (1/GPa) = 0.01546076
#
# Stress axis : x y z
#
# Youngs Moduli (GPa) = 87.11248 87.11248 107.74264
#
# Poissons Ratio (x) = 0.34022 0.24157
# Poissons Ratio (y) = 0.34022 0.24157
# Poissons Ratio (z) = 0.19531 0.19531
#
# Static dielectric constant tensor:
#      x y z
#    x 1.712830 0.000000 0.000000 
#    y 0.000000 1.712830 0.000000 
#    z 0.000000 0.000000 1.701240 
# 
# From -- ./inp_files/5847.got.cif
#   From: 2010.05.17/outbox.cif.g08.bks.cpg/sg127_3_cif.got.tgz:5847.got - 2010.05.20 12:03:00.
