data_PCOD9564703
_publ_section_title
;
Structure prediction by ZEFSAII (Michael W. Deem and Ramdas Pophale) SiO2 
 PCOD9564703
Probable space group: P 4/M N C
;
_chemical_formula_sum "Si O2"
_cell_formula_units_Z 96
_cell_length_a 25.559812
_cell_length_b 25.559812
_cell_length_c 8.073075
_cell_angle_alpha 90.000000
_cell_angle_beta 90.000000
_cell_angle_gamma 90.000000
_cell_volume 5274.172105
_symmetry_space_group_name_H-M "P 4/M N C"
_symmetry_group_IT_number 128
_symmetry_cell_setting 'tetragonal'
loop_
_space_group_symop_operation_xyz
x,y,z
-y,x,z
-x,-y,z
y,-x,z
1/2+x,1/2-y,1/2-z
1/2-x,1/2+y,1/2-z
1/2+y,1/2+x,1/2-z
1/2-y,1/2-x,1/2-z
-x,-y,-z
y,-x,-z
x,y,-z
-y,x,-z
1/2-x,1/2+y,1/2+z
1/2+x,1/2-y,1/2+z
1/2-y,1/2-x,1/2+z
1/2+y,1/2+x,1/2+z
loop_
_atom_site_type_symbol
_atom_site_label
_atom_site_fract_x
_atom_site_fract_y
_atom_site_fract_z
Si Si1 0.566562 0.714323 0.812513
Si Si2 0.987514 0.700532 0.197915
Si Si3 0.872944 0.092052 0.000000
Si Si4 0.130821 0.285178 0.304407
Si Si5 0.830408 0.159944 0.693888
Si Si6 0.082789 0.502060 0.303217
Si Si7 0.528364 0.648144 0.500000
O O1 0.533533 0.766968 0.785788
O O2 0.630046 0.709834 0.794169
O O3 0.544729 0.678618 0.665649
O O4 0.555545 0.695664 0.000000
O O5 0.927535 0.718622 0.228263
O O6 0.991884 0.640899 0.258701
O O7 0.996710 0.703473 0.000000
O O8 0.851427 0.120482 0.834576
O O9 0.935611 0.097129 0.000000
O O10 0.857335 0.032707 0.000000
O O11 0.164603 0.335398 0.250000
O O12 0.123061 0.289246 0.500000
O O13 0.163373 0.231625 0.271478
O O14 0.834688 0.141994 0.500000
O O15 0.043896 0.456105 0.250000
O O16 0.084899 0.501536 0.500000
O O17 0.056239 0.556239 0.250000
#
# Coordination Sequence:
#
# PCOD9564703 Si02
#       7
#    16  16   8  16  16  16   8
#     4  10  20  37  59  81 112 149 191 242 283 339
#     4  11  22  36  56  86 116 146 193 245 292 352
#     4  10  20  33  58  76 110 146 178 234 278 328
#     4  11  23  37  56  85 118 154 192 240 301 360
#     4   9  21  38  56  81 110 149 193 228 286 351
#     4  10  21  36  55  77 109 146 186 232 281 344
#     4  10  20  35  52  84 108 143 188 224 282 340
#
# _framework density 18.201908
#
# number of rings (size 3 to 8) (size 9 to 14) (size 15 to 20)
#    0.000    1.833    0.833    3.500    2.333    6.167 
#    0.000    0.833    0.000    4.000    0.000    4.667 
#    0.000    0.000    0.000    0.000    0.000    0.000 
#
# Total GULP energy -534688.918145 kJ/mol
# GULP energy per Si atom -5569.676231 kJ/mol
# Density = 1.816048 g / cm^3
# Si number density = 18.201908 Si / 1000 Ang^3
#
#
#
# Elastic Constant Matrix: (Units=GPa)
#
#
# Indices 1 2 3 4 5 6 
#
# 1 93.7989 38.4049 19.0733 0.0000 0.0000 0.0000
# 2 38.4049 93.7928 19.0692 0.0000 0.0000 0.0000
# 3 19.0733 19.0692 74.5903 0.0000 0.0000 0.0000
# 4 0.0000 0.0000 0.0000 84.0769 0.0000 0.0000
# 5 0.0000 0.0000 0.0000 0.0000 83.9786 0.0000
# 6 0.0000 0.0000 0.0000 0.0000 0.0000 20.4952
#
#
#
# Elastic Compliance Matrix: (Units=1/GPa)
#
#
# Indices 1 2 3 4 5 6 
#
# 1 0.013110 -0.004943 -0.002088 0.000000 0.000000 0.000000
# 2 -0.004943 0.013110 -0.002088 0.000000 0.000000 0.000000
# 3 -0.002088 -0.002088 0.014474 0.000000 0.000000 0.000000
# 4 0.000000 0.000000 0.000000 0.011894 0.000000 0.000000
# 5 0.000000 0.000000 0.000000 0.000000 0.011908 0.000000
# 6 0.000000 0.000000 0.000000 0.000000 0.000000 0.048792
#
#
# Mechanical properties :
#
#
# Convention : Reuss Voigt Hill
#
# Bulk Modulus (GPa) = 44.53257 46.14186 45.33721
# Shear Modulus (GPa) = 35.96802 50.08579 43.02690
#
# Velocity S-wave (km/s) = 4.45011 5.25133 4.86724
# Velocity P-wave (km/s) = 7.13608 7.88503 7.51989
#
# Compressibility (1/GPa) = 0.02245548
#
# Stress axis : x y z
#
# Youngs Moduli (GPa) = 76.27885 76.27539 69.08782
#
# Poissons Ratio (x) = 0.37706 0.14429
# Poissons Ratio (y) = 0.37708 0.14423
# Poissons Ratio (z) = 0.15931 0.15924
#
# Static dielectric constant tensor:
#      x y z
#    x 1.657860 0.000000 0.000000 
#    y 0.000000 1.657860 0.000000 
#    z 0.000000 0.000000 1.602770 
# 
# From -- ./inp_files/1572.got.cif
#   From: 2010.05.17/outbox.cif.g08.bks.cpg/sg128_1_cif.got.tgz:1572.got - 2010.05.20 12:07:25.
