data_PCOD9564004
_publ_section_title
;
Structure prediction by ZEFSAII (Michael W. Deem and Ramdas Pophale) SiO2 
 PCOD9564004
Probable space group: P 4/M B M
;
_chemical_formula_sum "Si O2"
_cell_formula_units_Z 88
_cell_length_a 14.454209
_cell_length_b 14.454209
_cell_length_c 21.897441
_cell_angle_alpha 90.000000
_cell_angle_beta 90.000000
_cell_angle_gamma 90.000000
_cell_volume 4574.904419
_symmetry_space_group_name_H-M "P 4/M B M"
_symmetry_group_IT_number 127
_symmetry_cell_setting 'tetragonal'
loop_
_space_group_symop_operation_xyz
x,y,z
-y,x,z
-x,-y,z
y,-x,z
1/2+x,1/2-y,-z
1/2-x,1/2+y,-z
1/2+y,1/2+x,-z
1/2-y,1/2-x,-z
-x,-y,-z
y,-x,-z
x,y,-z
-y,x,-z
1/2-x,1/2+y,z
1/2+x,1/2-y,z
1/2-y,1/2-x,z
1/2+y,1/2+x,z
loop_
_atom_site_type_symbol
_atom_site_label
_atom_site_fract_x
_atom_site_fract_y
_atom_site_fract_z
Si Si1 0.665964 0.678371 0.934775
Si Si2 0.749710 0.603599 0.172431
Si Si3 0.012845 0.663854 0.931878
Si Si4 0.248638 0.408979 0.689396
Si Si5 0.109915 0.765243 0.628690
Si Si6 0.427498 0.360912 0.500000
O O1 0.761928 0.738073 0.935319
O O2 0.664628 0.619093 0.873485
O O3 0.586752 0.753780 0.932450
O O4 0.658662 0.628209 0.000000
O O5 0.796863 0.703138 0.185306
O O6 0.817166 0.547081 0.127582
O O7 0.736368 0.564460 0.239350
O O8 0.070625 0.570625 0.926434
O O9 0.969938 0.664889 0.000000
O O10 0.154929 0.345072 0.683129
O O11 0.332975 0.343444 0.666753
O O12 0.247184 0.506096 0.653393
O O13 0.173141 0.673141 0.630534
O O14 0.100852 0.805151 0.560337
O O15 0.537948 0.379660 0.500000
#
# Coordination Sequence:
#
# PCOD9564004 Si02
#       6
#    16  16  16  16  16   8
#     4   8  15  29  48  69  96 134 182 232 284 347
#     4  10  20  33  51  76 106 143 188 239 297 363
#     4   9  18  31  49  74 102 138 188 243 300 364
#     4  10  24  41  61  95 128 167 219 258 312 389
#     4  11  23  43  69  95 134 174 205 259 314 366
#     4  11  21  40  72 105 134 166 212 261 302 358
#
# _framework density 19.235375999999999
#
# number of rings (size 3 to 8) (size 9 to 14) (size 15 to 20)
#    0.000    2.273    1.818    1.909    2.545    2.909 
#    0.000    3.182    0.000    1.636    0.000    2.545 
#    0.000    0.000    0.000    0.000    0.000    0.000 
#
# Total GULP energy -490144.422204 kJ/mol
# GULP energy per Si atom -5569.822980 kJ/mol
# Density = 1.919160 g / cm^3
# Si number density = 19.235376 Si / 1000 Ang^3
#
#
#
# Elastic Constant Matrix: (Units=GPa)
#
#
# Indices 1 2 3 4 5 6 
#
# 1 102.4017 49.9962 48.5846 0.0000 0.0000 0.0000
# 2 49.9962 102.4017 48.5846 0.0000 0.0000 0.0000
# 3 48.5846 48.5846 171.7041 0.0000 0.0000 0.0000
# 4 0.0000 0.0000 0.0000 16.5062 0.0000 0.0000
# 5 0.0000 0.0000 0.0000 0.0000 16.5062 0.0000
# 6 0.0000 0.0000 0.0000 0.0000 0.0000 35.0250
#
#
#
# Elastic Compliance Matrix: (Units=1/GPa)
#
#
# Indices 1 2 3 4 5 6 
#
# 1 0.013544 -0.005538 -0.002265 0.000000 0.000000 0.000000
# 2 -0.005538 0.013544 -0.002265 0.000000 0.000000 0.000000
# 3 -0.002265 -0.002265 0.007106 0.000000 0.000000 0.000000
# 4 0.000000 0.000000 0.000000 0.060583 0.000000 0.000000
# 5 0.000000 0.000000 0.000000 0.000000 0.060583 0.000000
# 6 0.000000 0.000000 0.000000 0.000000 0.000000 0.028551
#
#
# Mechanical properties :
#
#
# Convention : Reuss Voigt Hill
#
# Bulk Modulus (GPa) = 71.14003 74.53759 72.83881
# Shear Modulus (GPa) = 23.95384 28.89696 26.42540
#
# Velocity S-wave (km/s) = 3.53271 3.88013 3.71049
# Velocity P-wave (km/s) = 7.32832 7.67517 7.50375
#
# Compressibility (1/GPa) = 0.01405678
#
# Stress axis : x y z
#
# Youngs Moduli (GPa) = 73.83305 73.83305 140.72650
#
# Poissons Ratio (x) = 0.40888 0.31880
# Poissons Ratio (y) = 0.40888 0.31880
# Poissons Ratio (z) = 0.16726 0.16726
#
# Static dielectric constant tensor:
#      x y z
#    x 1.689040 0.000000 0.000000 
#    y 0.000000 1.689040 0.000000 
#    z 0.000000 0.000000 1.688330 
# 
# From -- ./inp_files/5694.got.cif
#   From: 2010.05.17/outbox.cif.g08.bks.cpg/sg127_3_cif.got.tgz:5694.got - 2010.05.20 12:03:00.
