data_PCOD9564988
_publ_section_title
;
Structure prediction by ZEFSAII (Michael W. Deem and Ramdas Pophale) SiO2 
 PCOD9564988
Probable space group: P 4/M N C
;
_chemical_formula_sum "Si O2"
_cell_formula_units_Z 48
_cell_length_a 10.043150
_cell_length_b 10.043150
_cell_length_c 27.503729
_cell_angle_alpha 90.000000
_cell_angle_beta 90.000000
_cell_angle_gamma 90.000000
_cell_volume 2774.159828
_symmetry_space_group_name_H-M "P 4/M N C"
_symmetry_group_IT_number 128
_symmetry_cell_setting 'tetragonal'
loop_
_space_group_symop_operation_xyz
x,y,z
-y,x,z
-x,-y,z
y,-x,z
1/2+x,1/2-y,1/2-z
1/2-x,1/2+y,1/2-z
1/2+y,1/2+x,1/2-z
1/2-y,1/2-x,1/2-z
-x,-y,-z
y,-x,-z
x,y,-z
-y,x,-z
1/2-x,1/2+y,1/2+z
1/2+x,1/2-y,1/2+z
1/2-y,1/2-x,1/2+z
1/2+y,1/2+x,1/2+z
loop_
_atom_site_type_symbol
_atom_site_label
_atom_site_fract_x
_atom_site_fract_y
_atom_site_fract_z
Si Si1 0.092262 0.795210 0.556086
Si Si2 0.845364 0.354595 0.152567
Si Si3 0.357166 0.859685 0.307912
O O1 0.110363 0.753969 0.500000
O O2 0.140477 0.688950 0.595455
O O3 0.935724 0.830475 0.563005
O O4 0.803539 0.498890 0.173164
O O5 0.757838 0.241276 0.177523
O O6 0.999479 0.338533 0.166782
O O7 0.370834 0.870834 0.250000
#
# Coordination Sequence:
#
# PCOD9564988 Si02
#       3
#    16  16  16
#     4   9  17  33  58  86 111 145 193 240 280 330
#     4  11  21  38  57  84 115 150 188 232 284 331
#     4  11  23  38  57  82 117 152 191 232 276 337
#
# _framework density 17.302537000000001
#
# number of rings (size 3 to 8) (size 9 to 14) (size 15 to 20)
#    0.000    1.667    3.333    5.000    0.000    1.333 
#    0.000    8.333    0.000    0.000    0.000    2.333 
#    0.000    0.000    0.000    0.000    0.000    0.000 
#
# Total GULP energy -267911.182302 kJ/mol
# GULP energy per Si atom -5581.482965 kJ/mol
# Density = 1.726316 g / cm^3
# Si number density = 17.302537 Si / 1000 Ang^3
#
#
#
# Elastic Constant Matrix: (Units=GPa)
#
#
# Indices 1 2 3 4 5 6 
#
# 1 53.6450 70.2761 48.2286 0.0000 0.0000 0.0000
# 2 70.2761 53.6450 48.2286 0.0000 0.0000 0.0000
# 3 48.2286 48.2286 169.3725 0.0000 0.0000 0.0000
# 4 0.0000 0.0000 0.0000 43.9135 0.0000 0.0000
# 5 0.0000 0.0000 0.0000 0.0000 43.9135 0.0000
# 6 0.0000 0.0000 0.0000 0.0000 0.0000 35.4225
#
#
#
# Elastic Compliance Matrix: (Units=1/GPa)
#
#
# Indices 1 2 3 4 5 6 
#
# 1 -0.024880 0.035248 -0.002952 0.000000 0.000000 0.000000
# 2 0.035248 -0.024880 -0.002952 0.000000 0.000000 0.000000
# 3 -0.002952 -0.002952 0.007585 0.000000 0.000000 0.000000
# 4 0.000000 0.000000 0.000000 0.022772 0.000000 0.000000
# 5 0.000000 0.000000 0.000000 0.000000 0.022772 0.000000
# 6 0.000000 0.000000 0.000000 0.000000 0.000000 0.028231
#
#
# Mechanical properties :
#
#
# Convention : Reuss Voigt Hill
#
# Bulk Modulus (GPa) = 60.56248 67.79211 64.17729
# Shear Modulus (GPa) = -231.65113 31.97852 -99.83631
#
# Velocity S-wave (km/s) = -11.58332 4.30373 -7.60432
# Velocity P-wave (km/s) = 11.99249 7.99760 6.31895
#
# Compressibility (1/GPa) = 0.01651187
#
# Stress axis : x y z
#
# Youngs Moduli (GPa) = -40.19222 -40.19222 131.83255
#
# Poissons Ratio (x) = 1.41669 0.38919
# Poissons Ratio (y) = 1.41669 0.38919
# Poissons Ratio (z) = -0.11865 -0.11865
#
# Static dielectric constant tensor:
#      x y z
#    x 1.570190 0.000000 0.000000 
#    y 0.000000 1.570190 0.000000 
#    z 0.000000 0.000000 1.598020 
# 
# From -- ./inp_files/6981.got.cif
#   From: 2010.05.17/outbox.cif.g08.bks.cpg/sg128_4_cif.got.tgz:6981.got - 2010.05.20 12:07:25.
