data_PCOD9564702
_publ_section_title
;
Structure prediction by ZEFSAII (Michael W. Deem and Ramdas Pophale) SiO2 
 PCOD9564702
Probable space group: P 4/M N C
;
_chemical_formula_sum "Si O2"
_cell_formula_units_Z 120
_cell_length_a 17.329978
_cell_length_b 17.329978
_cell_length_c 21.548843
_cell_angle_alpha 90.000000
_cell_angle_beta 90.000000
_cell_angle_gamma 90.000000
_cell_volume 6471.723883
_symmetry_space_group_name_H-M "P 4/M N C"
_symmetry_group_IT_number 128
_symmetry_cell_setting 'tetragonal'
loop_
_space_group_symop_operation_xyz
x,y,z
-y,x,z
-x,-y,z
y,-x,z
1/2+x,1/2-y,1/2-z
1/2-x,1/2+y,1/2-z
1/2+y,1/2+x,1/2-z
1/2-y,1/2-x,1/2-z
-x,-y,-z
y,-x,-z
x,y,-z
-y,x,-z
1/2-x,1/2+y,1/2+z
1/2+x,1/2-y,1/2+z
1/2-y,1/2-x,1/2+z
1/2+y,1/2+x,1/2+z
loop_
_atom_site_type_symbol
_atom_site_label
_atom_site_fract_x
_atom_site_fract_y
_atom_site_fract_z
Si Si1 0.594665 0.821678 0.074423
Si Si2 0.321829 0.916776 0.426188
Si Si3 0.693269 0.311246 0.280971
Si Si4 0.411267 0.412086 0.806276
Si Si5 0.824030 0.177596 0.000000
Si Si6 0.148091 0.149493 0.427782
Si Si7 0.085900 0.734950 0.887154
Si Si8 0.097057 0.271805 0.886590
O O1 0.505653 0.818609 0.094777
O O2 0.635786 0.738777 0.084852
O O3 0.646437 0.886847 0.105376
O O4 0.595652 0.833269 0.000000
O O5 0.337758 0.917420 0.500000
O O6 0.238077 0.876758 0.418537
O O7 0.383127 0.862250 0.393105
O O8 0.757106 0.257106 0.250000
O O9 0.644142 0.353203 0.228169
O O10 0.731531 0.375527 0.325129
O O11 0.637220 0.261501 0.325101
O O12 0.499523 0.394834 0.789519
O O13 0.400897 0.399530 0.879686
O O14 0.876547 0.219868 0.945377
O O15 0.770664 0.136500 0.945370
O O16 0.134718 0.129856 0.500000
O O17 0.994092 0.742736 0.886985
#
# Coordination Sequence:
#
# PCOD9564702 Si02
#       8
#    16  16  16  16   8  16  16  16
#     4  10  20  33  55  88 125 162 196 241 300 358
#     4  10  20  33  55  88 125 162 196 241 300 358
#     4  11  24  42  63  86 114 162 214 254 292 359
#     4  11  23  39  59  84 118 154 194 252 313 364
#     4  10  20  36  60  91 122 153 202 252 308 366
#     4  10  20  36  60  87 120 156 201 247 295 361
#     4  11  22  38  63  90 122 162 205 254 308 367
#     4  11  22  38  63  90 122 162 205 254 308 367
#
# _framework density 18.542200000000001
#
# number of rings (size 3 to 8) (size 9 to 14) (size 15 to 20)
#    0.000    1.467    1.333    5.200    1.867    2.133 
#    0.000    3.333    0.000   15.200    0.000    0.000 
#    0.000    0.000    0.000    0.000    0.000    0.000 
#
# Total GULP energy -668284.869582 kJ/mol
# GULP energy per Si atom -5569.040580 kJ/mol
# Density = 1.850000 g / cm^3
# Si number density = 18.542200 Si / 1000 Ang^3
#
#
#
# Elastic Constant Matrix: (Units=GPa)
#
#
# Indices 1 2 3 4 5 6 
#
# 1 16.3385 6.5430 10.7967 0.0000 0.0000 0.0000
# 2 6.5430 16.3385 10.7967 0.0000 0.0000 0.0000
# 3 10.7967 10.7967 69.3465 0.0000 0.0000 0.0000
# 4 0.0000 0.0000 0.0000 20.2935 0.0000 0.0000
# 5 0.0000 0.0000 0.0000 0.0000 20.2935 0.0000
# 6 0.0000 0.0000 0.0000 0.0000 0.0000 23.0865
#
#
#
# Elastic Compliance Matrix: (Units=1/GPa)
#
#
# Indices 1 2 3 4 5 6 
#
# 1 0.076659 -0.025428 -0.007976 0.000000 0.000000 0.000000
# 2 -0.025428 0.076659 -0.007976 0.000000 0.000000 0.000000
# 3 -0.007976 -0.007976 0.016904 0.000000 0.000000 0.000000
# 4 0.000000 0.000000 0.000000 0.049277 0.000000 0.000000
# 5 0.000000 0.000000 0.000000 0.000000 0.049277 0.000000
# 6 0.000000 0.000000 0.000000 0.000000 0.000000 0.043315
#
#
# Mechanical properties :
#
#
# Convention : Reuss Voigt Hill
#
# Bulk Modulus (GPa) = 11.43372 17.58846 14.51109
# Shear Modulus (GPa) = 11.79226 17.66050 14.72638
#
# Velocity S-wave (km/s) = 2.52458 3.08953 2.82123
# Velocity P-wave (km/s) = 3.83115 4.71520 4.29598
#
# Compressibility (1/GPa) = 0.08746057
#
# Stress axis : x y z
#
# Youngs Moduli (GPa) = 13.04475 13.04475 59.15755
#
# Poissons Ratio (x) = 0.33171 0.47185
# Poissons Ratio (y) = 0.33171 0.47185
# Poissons Ratio (z) = 0.10405 0.10405
#
# Static dielectric constant tensor:
#      x y z
#    x 1.637610 0.000000 0.000000 
#    y 0.000000 1.637610 0.000000 
#    z 0.000000 0.000000 1.636820 
# 
# From -- ./inp_files/6016.got.cif
#   From: 2010.05.17/outbox.cif.g08.bks.cpg/sg128_4_cif.got.tgz:6016.got - 2010.05.20 12:07:25.
