data_PCOD9564944
_publ_section_title
;
Structure prediction by ZEFSAII (Michael W. Deem and Ramdas Pophale) SiO2 
 PCOD9564944
Probable space group: P 4/M N C
;
_chemical_formula_sum "Si O2"
_cell_formula_units_Z 120
_cell_length_a 14.391236
_cell_length_b 14.391236
_cell_length_c 29.538668
_cell_angle_alpha 90.000000
_cell_angle_beta 90.000000
_cell_angle_gamma 90.000000
_cell_volume 6117.684811
_symmetry_space_group_name_H-M "P 4/M N C"
_symmetry_group_IT_number 128
_symmetry_cell_setting 'tetragonal'
loop_
_space_group_symop_operation_xyz
x,y,z
-y,x,z
-x,-y,z
y,-x,z
1/2+x,1/2-y,1/2-z
1/2-x,1/2+y,1/2-z
1/2+y,1/2+x,1/2-z
1/2-y,1/2-x,1/2-z
-x,-y,-z
y,-x,-z
x,y,-z
-y,x,-z
1/2-x,1/2+y,1/2+z
1/2+x,1/2-y,1/2+z
1/2-y,1/2-x,1/2+z
1/2+y,1/2+x,1/2+z
loop_
_atom_site_type_symbol
_atom_site_label
_atom_site_fract_x
_atom_site_fract_y
_atom_site_fract_z
Si Si1 0.091803 0.437340 0.948746
Si Si2 0.528507 0.248395 0.874233
Si Si3 0.807323 0.848192 0.589678
Si Si4 0.647650 0.557363 0.788115
Si Si5 0.363672 0.422242 0.685955
Si Si6 0.675829 0.325086 0.597248
Si Si7 0.497174 0.734358 0.448868
Si Si8 0.356451 0.562615 0.000000
O O1 0.159110 0.453691 0.905953
O O2 0.053527 0.333252 0.947144
O O3 0.000000 0.500000 0.945689
O O4 0.133454 0.451561 0.000000
O O5 0.584634 0.330711 0.899855
O O6 0.418082 0.263320 0.874185
O O7 0.568382 0.268244 0.823874
O O8 0.755452 0.750095 0.587523
O O9 0.800119 0.903342 0.543220
O O10 0.550524 0.614273 0.793627
O O11 0.674834 0.584232 0.736843
O O12 0.467290 0.379085 0.680859
O O13 0.309335 0.369711 0.646440
O O14 0.586855 0.333225 0.564311
O O15 0.728965 0.421046 0.587592
O O16 0.532331 0.720449 0.500000
O O17 0.382294 0.454762 0.000000
#
# Coordination Sequence:
#
# PCOD9564944 Si02
#       8
#    16  16  16  16  16  16  16   8
#     4  10  23  43  61  84 125 179 226 254 301 387
#     4  12  22  39  61  93 126 165 206 264 323 384
#     4  12  26  36  59  90 128 167 208 257 313 387
#     4   9  18  34  62  94 124 152 192 256 331 390
#     4   9  18  37  64  91 115 153 201 258 323 386
#     4  12  23  41  62  89 123 166 212 267 324 379
#     4  11  24  39  59  89 123 163 208 265 321 375
#     4  11  24  40  58  86 126 175 212 256 320 381
#
# _framework density 19.615262999999999
#
# number of rings (size 3 to 8) (size 9 to 14) (size 15 to 20)
#    0.000    1.267    5.333    2.000    3.733    0.533 
#    0.000    1.333    0.000    0.000    0.000    0.933 
#    0.000    0.000    0.000    0.000    0.000    0.000 
#
# Total GULP energy -668495.019047 kJ/mol
# GULP energy per Si atom -5570.791825 kJ/mol
# Density = 1.957062 g / cm^3
# Si number density = 19.615263 Si / 1000 Ang^3
#
#
#
# Elastic Constant Matrix: (Units=GPa)
#
#
# Indices 1 2 3 4 5 6 
#
# 1 52.8261 7.6481 25.4589 0.0000 0.0000 0.0000
# 2 7.6481 52.8261 25.4589 0.0000 0.0000 0.0000
# 3 25.4589 25.4589 131.3907 0.0000 0.0000 0.0000
# 4 0.0000 0.0000 0.0000 -31.5509 0.0000 0.0000
# 5 0.0000 0.0000 0.0000 0.0000 -31.5509 0.0000
# 6 0.0000 0.0000 0.0000 0.0000 0.0000 25.0659
#
#
#
# Elastic Compliance Matrix: (Units=1/GPa)
#
#
# Indices 1 2 3 4 5 6 
#
# 1 0.020947 -0.001188 -0.003829 0.000000 0.000000 0.000000
# 2 -0.001188 0.020947 -0.003829 0.000000 0.000000 0.000000
# 3 -0.003829 -0.003829 0.009095 0.000000 0.000000 0.000000
# 4 0.000000 0.000000 0.000000 -0.031695 0.000000 0.000000
# 5 0.000000 0.000000 0.000000 0.000000 -0.031695 0.000000
# 6 0.000000 0.000000 0.000000 0.000000 0.000000 0.039895
#
#
# Mechanical properties :
#
#
# Convention : Reuss Voigt Hill
#
# Bulk Modulus (GPa) = 30.03091 39.35277 34.69184
# Shear Modulus (GPa) = 88.83561 4.29129 46.56345
#
# Velocity S-wave (km/s) = 6.73701 1.48070 4.87749
# Velocity P-wave (km/s) = 8.70975 4.79887 7.03167
#
# Compressibility (1/GPa) = 0.03329902
#
# Stress axis : x y z
#
# Youngs Moduli (GPa) = 47.73917 47.73917 109.95489
#
# Poissons Ratio (x) = 0.05669 0.42099
# Poissons Ratio (y) = 0.05669 0.42099
# Poissons Ratio (z) = 0.18278 0.18278
#
# Static dielectric constant tensor:
#      x y z
#    x 1.815450 0.000000 0.000000 
#    y 0.000000 1.815450 0.000000 
#    z 0.000000 0.000000 1.770490 
# 
# From -- ./inp_files/7432.got.cif
#   From: 2010.05.17/outbox.cif.g08.bks.cpg/sg128_4_cif.got.tgz:7432.got - 2010.05.20 12:07:25.
