data_PCOD9564339
_publ_section_title
;
Structure prediction by ZEFSAII (Michael W. Deem and Ramdas Pophale) SiO2 
 PCOD9564339
Probable space group: P 4/M B M
;
_chemical_formula_sum "Si O2"
_cell_formula_units_Z 56
_cell_length_a 19.731774
_cell_length_b 19.731774
_cell_length_c 8.810889
_cell_angle_alpha 90.000000
_cell_angle_beta 90.000000
_cell_angle_gamma 90.000000
_cell_volume 3430.457121
_symmetry_space_group_name_H-M "P 4/M B M"
_symmetry_group_IT_number 127
_symmetry_cell_setting 'tetragonal'
loop_
_space_group_symop_operation_xyz
x,y,z
-y,x,z
-x,-y,z
y,-x,z
1/2+x,1/2-y,-z
1/2-x,1/2+y,-z
1/2+y,1/2+x,-z
1/2-y,1/2-x,-z
-x,-y,-z
y,-x,-z
x,y,-z
-y,x,-z
1/2-x,1/2+y,z
1/2+x,1/2-y,z
1/2-y,1/2-x,z
1/2+y,1/2+x,z
loop_
_atom_site_type_symbol
_atom_site_label
_atom_site_fract_x
_atom_site_fract_y
_atom_site_fract_z
Si Si1 0.444787 0.055214 0.184809
Si Si2 0.874224 0.737325 0.682935
Si Si3 0.652985 0.734871 0.682536
Si Si4 0.519804 0.791598 0.818285
O O1 0.368975 0.035403 0.233284
O O2 0.500000 0.000000 0.235744
O O3 0.445107 0.054894 0.000000
O O4 0.880030 0.736978 0.500000
O O5 0.826641 0.673360 0.725515
O O6 0.832081 0.804687 0.725701
O O7 0.947376 0.731156 0.755992
O O8 0.645795 0.734812 0.500000
O O9 0.701459 0.798542 0.722837
O O10 0.580834 0.745179 0.758664
O O11 0.518992 0.791154 0.000000
#
# Coordination Sequence:
#
# PCOD9564339 Si02
#       4
#     8  16  16  16
#     4   9  18  30  43  67 107 143 165 192 243 304
#     4   9  19  35  53  74 101 135 175 215 254 301
#     4   9  18  34  54  73  98 134 175 216 254 300
#     4  11  20  31  50  76 106 138 169 209 257 306
#
# _framework density 16.324355000000001
#
# number of rings (size 3 to 8) (size 9 to 14) (size 15 to 20)
#    0.000    2.429    1.429    3.429    0.000    2.857 
#    0.000    2.857    0.000    4.286    0.000    6.000 
#    0.000    0.000    0.000    0.000    0.000    0.000 
#
# Total GULP energy -312393.538797 kJ/mol
# GULP energy per Si atom -5578.456050 kJ/mol
# Density = 1.628720 g / cm^3
# Si number density = 16.324355 Si / 1000 Ang^3
#
#
#
# Elastic Constant Matrix: (Units=GPa)
#
#
# Indices 1 2 3 4 5 6 
#
# 1 141.7767 104.6982 44.3915 0.0000 0.0000 0.0000
# 2 104.6982 141.7766 44.3914 0.0000 0.0000 0.0000
# 3 44.3915 44.3914 26.5618 0.0000 0.0000 0.0000
# 4 0.0000 0.0000 0.0000 22.2187 0.0000 0.0000
# 5 0.0000 0.0000 0.0000 0.0000 22.2186 0.0000
# 6 0.0000 0.0000 0.0000 0.0000 0.0000 20.8257
#
#
#
# Elastic Compliance Matrix: (Units=1/GPa)
#
#
# Indices 1 2 3 4 5 6 
#
# 1 0.018582 -0.008388 -0.017037 0.000000 0.000000 0.000000
# 2 -0.008388 0.018582 -0.017037 0.000000 0.000000 0.000000
# 3 -0.017037 -0.017037 0.094594 0.000000 0.000000 0.000000
# 4 0.000000 0.000000 0.000000 0.045007 0.000000 0.000000
# 5 0.000000 0.000000 0.000000 0.000000 0.045007 0.000000
# 6 0.000000 0.000000 0.000000 0.000000 0.000000 0.048018
#
#
# Mechanical properties :
#
#
# Convention : Reuss Voigt Hill
#
# Bulk Modulus (GPa) = 21.35172 77.45301 49.40237
# Shear Modulus (GPa) = 13.50166 20.82821 17.16493
#
# Velocity S-wave (km/s) = 2.87903 3.57585 3.24619
# Velocity P-wave (km/s) = 4.91527 8.03730 6.66176
#
# Compressibility (1/GPa) = 0.04683463
#
# Stress axis : x y z
#
# Youngs Moduli (GPa) = 53.81552 53.81576 10.57149
#
# Poissons Ratio (x) = 0.45140 0.18011
# Poissons Ratio (y) = 0.45140 0.18010
# Poissons Ratio (z) = 0.91686 0.91685
#
# Static dielectric constant tensor:
#      x y z
#    x 1.532470 0.000000 0.000000 
#    y 0.000000 1.532470 0.000000 
#    z 0.000000 0.000000 1.547270 
# 
# From -- ./inp_files/1087.got.cif
#   From: 2010.05.17/outbox.cif.g08.bks.cpg/sg127_1_cif.got.tgz:1087.got - 2010.05.20 12:03:00.
