data_PCOD9564208
_publ_section_title
;
Structure prediction by ZEFSAII (Michael W. Deem and Ramdas Pophale) SiO2 
 PCOD9564208
Probable space group: P 4/M B M
;
_chemical_formula_sum "Si O2"
_cell_formula_units_Z 112
_cell_length_a 13.496303
_cell_length_b 13.496303
_cell_length_c 33.460042
_cell_angle_alpha 90.000000
_cell_angle_beta 90.000000
_cell_angle_gamma 90.000000
_cell_volume 6094.753164
_symmetry_space_group_name_H-M "P 4/M B M"
_symmetry_group_IT_number 127
_symmetry_cell_setting 'tetragonal'
loop_
_space_group_symop_operation_xyz
x,y,z
-y,x,z
-x,-y,z
y,-x,z
1/2+x,1/2-y,-z
1/2-x,1/2+y,-z
1/2+y,1/2+x,-z
1/2-y,1/2-x,-z
-x,-y,-z
y,-x,-z
x,y,-z
-y,x,-z
1/2-x,1/2+y,z
1/2+x,1/2-y,z
1/2-y,1/2-x,z
1/2+y,1/2+x,z
loop_
_atom_site_type_symbol
_atom_site_label
_atom_site_fract_x
_atom_site_fract_y
_atom_site_fract_z
Si Si1 0.998274 0.666086 0.170759
Si Si2 0.116520 0.215888 0.454967
Si Si3 0.739177 0.927427 0.913710
Si Si4 0.878151 0.789235 0.955531
Si Si5 0.256865 0.075930 0.409252
Si Si6 0.016263 0.833839 0.671147
Si Si7 0.167409 0.004323 0.762046
O O1 0.083960 0.583960 0.176885
O O2 0.026203 0.723200 0.129942
O O3 0.999233 0.744253 0.206591
O O4 0.895444 0.604557 0.167091
O O5 0.104173 0.175912 0.500000
O O6 0.200696 0.299305 0.456233
O O7 0.158225 0.133546 0.424544
O O8 0.016452 0.264179 0.438895
O O9 0.648233 0.851768 0.920721
O O10 0.839525 0.866113 0.922192
O O11 0.743323 0.017034 0.944595
O O12 0.798099 0.701902 0.955798
O O13 0.879160 0.834794 0.000000
O O14 0.347845 0.152156 0.411505
O O15 0.241937 0.034631 0.364572
O O16 0.013210 0.794089 0.716403
O O17 0.914777 0.895876 0.667386
O O18 0.092848 0.097746 0.766875
#
# Coordination Sequence:
#
# PCOD9564208 Si02
#       7
#    16  16  16  16  16  16  16
#     4  10  22  39  59  85 117 156 199 237 281 343
#     4  10  22  38  55  81 114 147 192 243 292 352
#     4  10  22  39  58  83 119 155 192 241 292 345
#     4  10  21  37  59  86 114 150 198 242 286 346
#     4  11  21  35  58  84 112 149 195 240 287 346
#     4   9  17  35  59  83 112 147 186 234 284 336
#     4   9  20  37  60  90 120 149 189 234 285 347
#
# _framework density 18.376460999999999
#
# number of rings (size 3 to 8) (size 9 to 14) (size 15 to 20)
#    0.000    2.143    1.429    2.143    2.000    4.571 
#    0.000    5.714    0.000    0.000    0.000    0.000 
#    0.000    0.000    0.000    0.000    0.000    0.000 
#
# Total GULP energy -624519.465517 kJ/mol
# GULP energy per Si atom -5576.066656 kJ/mol
# Density = 1.833464 g / cm^3
# Si number density = 18.376461 Si / 1000 Ang^3
#
#
#
# Elastic Constant Matrix: (Units=GPa)
#
#
# Indices 1 2 3 4 5 6 
#
# 1 59.6083 -2.5019 48.8323 0.0000 0.0000 0.0000
# 2 -2.5019 59.6083 48.8323 0.0000 0.0000 0.0000
# 3 48.8323 48.8323 123.9963 0.0000 0.0000 0.0000
# 4 0.0000 0.0000 0.0000 29.0391 0.0000 0.0000
# 5 0.0000 0.0000 0.0000 0.0000 29.0391 0.0000
# 6 0.0000 0.0000 0.0000 0.0000 0.0000 7.8233
#
#
#
# Elastic Compliance Matrix: (Units=1/GPa)
#
#
# Indices 1 2 3 4 5 6 
#
# 1 0.034868 0.018768 -0.021123 0.000000 0.000000 0.000000
# 2 0.018768 0.034868 -0.021123 0.000000 0.000000 0.000000
# 3 -0.021123 -0.021123 0.024702 0.000000 0.000000 0.000000
# 4 0.000000 0.000000 0.000000 0.034436 0.000000 0.000000
# 5 0.000000 0.000000 0.000000 0.000000 0.034436 0.000000
# 6 0.000000 0.000000 0.000000 0.000000 0.000000 0.127823
#
#
# Mechanical properties :
#
#
# Convention : Reuss Voigt Hill
#
# Bulk Modulus (GPa) = 21.06036 48.17094 34.61565
# Shear Modulus (GPa) = 14.12751 23.05030 18.58891
#
# Velocity S-wave (km/s) = 2.77570 3.54551 3.18395
# Velocity P-wave (km/s) = 4.66456 6.55981 5.69163
#
# Compressibility (1/GPa) = 0.04748258
#
# Stress axis : x y z
#
# Youngs Moduli (GPa) = 28.67919 28.67919 40.48208
#
# Poissons Ratio (x) = -0.53825 0.85511
# Poissons Ratio (y) = -0.53825 0.85511
# Poissons Ratio (z) = 0.60580 0.60580
#
# Static dielectric constant tensor:
#      x y z
#    x 1.624390 0.000000 0.000000 
#    y 0.000000 1.624390 0.000000 
#    z 0.000000 0.000000 1.642700 
# 
# From -- ./inp_files/6393.got.cif
#   From: 2010.05.17/outbox.cif.g08.bks.cpg/sg127_4_cif.got.tgz:6393.got - 2010.05.20 12:03:00.
