data_PCOD9564716
_publ_section_title
;
Structure prediction by ZEFSAII (Michael W. Deem and Ramdas Pophale) SiO2 
 PCOD9564716
Probable space group: P 4/M N C
;
_chemical_formula_sum "Si O2"
_cell_formula_units_Z 120
_cell_length_a 18.107082
_cell_length_b 18.107082
_cell_length_c 19.811596
_cell_angle_alpha 90.000000
_cell_angle_beta 90.000000
_cell_angle_gamma 90.000000
_cell_volume 6495.557026
_symmetry_space_group_name_H-M "P 4/M N C"
_symmetry_group_IT_number 128
_symmetry_cell_setting 'tetragonal'
loop_
_space_group_symop_operation_xyz
x,y,z
-y,x,z
-x,-y,z
y,-x,z
1/2+x,1/2-y,1/2-z
1/2-x,1/2+y,1/2-z
1/2+y,1/2+x,1/2-z
1/2-y,1/2-x,1/2-z
-x,-y,-z
y,-x,-z
x,y,-z
-y,x,-z
1/2-x,1/2+y,1/2+z
1/2+x,1/2-y,1/2+z
1/2-y,1/2-x,1/2+z
1/2+y,1/2+x,1/2+z
loop_
_atom_site_type_symbol
_atom_site_label
_atom_site_fract_x
_atom_site_fract_y
_atom_site_fract_z
Si Si1 0.016842 0.120150 0.250496
Si Si2 0.423221 0.403188 0.000000
Si Si3 0.110237 0.648081 0.827594
Si Si4 0.290069 0.262076 0.822162
Si Si5 0.156334 0.519888 0.077486
Si Si6 0.877060 0.673144 0.649425
Si Si7 0.455190 0.784073 0.710210
Si Si8 0.182754 0.062184 0.629336
O O1 0.036488 0.196256 0.214678
O O2 0.939665 0.079504 0.235201
O O3 0.002234 0.141194 0.329574
O O4 0.512390 0.399873 0.000000
O O5 0.401963 0.363918 0.930752
O O6 0.129651 0.629651 0.750000
O O7 0.179370 0.699170 0.851812
O O8 0.111547 0.574603 0.873098
O O9 0.031267 0.685397 0.820006
O O10 0.250254 0.249747 0.750000
O O11 0.244138 0.324742 0.860866
O O12 0.373840 0.292748 0.818070
O O13 0.146703 0.433445 0.092603
O O14 0.242374 0.533865 0.095280
O O15 0.141531 0.537818 0.000000
O O16 0.818633 0.609809 0.666534
O O17 0.931425 0.689479 0.713938
#
# Coordination Sequence:
#
# PCOD9564716 Si02
#       8
#    16   8  16  16  16  16  16  16
#     4  11  22  34  55  90 127 161 202 260 317 365
#     4  11  24  36  48  78 122 175 219 237 274 367
#     4  10  20  38  59  87 118 163 206 255 308 362
#     4  10  20  34  58  83 116 154 208 262 307 358
#     4  11  23  41  59  90 123 162 209 252 307 373
#     4  11  22  37  56  90 112 158 207 255 308 366
#     4  11  21  36  60  82 118 156 206 254 305 368
#     4  11  21  35  56  80 121 170 208 246 299 360
#
# _framework density 18.474164999999999
#
# number of rings (size 3 to 8) (size 9 to 14) (size 15 to 20)
#    0.000    1.267    4.667    3.200    3.733    1.600 
#    0.000    1.333    0.000    0.000    0.000    0.000 
#    0.000    0.000    0.000    5.867    0.000    0.000 
#
# Total GULP energy -669153.009774 kJ/mol
# GULP energy per Si atom -5576.275081 kJ/mol
# Density = 1.843212 g / cm^3
# Si number density = 18.474165 Si / 1000 Ang^3
#
#
#
# Elastic Constant Matrix: (Units=GPa)
#
#
# Indices 1 2 3 4 5 6 
#
# 1 106.4566 63.1862 29.6100 0.0000 0.0000 0.0000
# 2 63.1862 106.4564 29.6097 0.0000 0.0000 0.0000
# 3 29.6100 29.6097 62.3572 0.0000 0.0000 0.0000
# 4 0.0000 0.0000 0.0000 20.2750 0.0000 0.0000
# 5 0.0000 0.0000 0.0000 0.0000 20.2750 0.0000
# 6 0.0000 0.0000 0.0000 0.0000 0.0000 23.8315
#
#
#
# Elastic Compliance Matrix: (Units=1/GPa)
#
#
# Indices 1 2 3 4 5 6 
#
# 1 0.015088 -0.008022 -0.003355 0.000000 0.000000 0.000000
# 2 -0.008022 0.015088 -0.003355 0.000000 0.000000 0.000000
# 3 -0.003355 -0.003355 0.019223 0.000000 0.000000 0.000000
# 4 0.000000 0.000000 0.000000 0.049322 0.000000 0.000000
# 5 0.000000 0.000000 0.000000 0.000000 0.049322 0.000000
# 6 0.000000 0.000000 0.000000 0.000000 0.000000 0.041961
#
#
# Mechanical properties :
#
#
# Convention : Reuss Voigt Hill
#
# Bulk Modulus (GPa) = 50.16525 57.78689 53.97607
# Shear Modulus (GPa) = 22.11266 23.06725 22.58996
#
# Velocity S-wave (km/s) = 3.46345 3.53742 3.50063
# Velocity P-wave (km/s) = 6.57322 6.93053 6.75424
#
# Compressibility (1/GPa) = 0.01993412
#
# Stress axis : x y z
#
# Youngs Moduli (GPa) = 66.27666 66.27667 52.02081
#
# Poissons Ratio (x) = 0.53169 0.17454
# Poissons Ratio (y) = 0.53169 0.17454
# Poissons Ratio (z) = 0.22238 0.22237
#
# Static dielectric constant tensor:
#      x y z
#    x 1.678850 0.000000 0.000000 
#    y 0.000000 1.678850 0.000000 
#    z 0.000000 0.000000 1.650490 
# 
# From -- ./inp_files/6024.got.cif
#   From: 2010.05.17/outbox.cif.g08.bks.cpg/sg128_4_cif.got.tgz:6024.got - 2010.05.20 12:07:25.
