data_PCOD9564398
_publ_section_title
;
Structure prediction by ZEFSAII (Michael W. Deem and Ramdas Pophale) SiO2 
 PCOD9564398
Probable space group: P 4/M B M
;
_chemical_formula_sum "Si O2"
_cell_formula_units_Z 72
_cell_length_a 19.014514
_cell_length_b 19.014514
_cell_length_c 10.160231
_cell_angle_alpha 90.000000
_cell_angle_beta 90.000000
_cell_angle_gamma 90.000000
_cell_volume 3673.449224
_symmetry_space_group_name_H-M "P 4/M B M"
_symmetry_group_IT_number 127
_symmetry_cell_setting 'tetragonal'
loop_
_space_group_symop_operation_xyz
x,y,z
-y,x,z
-x,-y,z
y,-x,z
1/2+x,1/2-y,-z
1/2-x,1/2+y,-z
1/2+y,1/2+x,-z
1/2-y,1/2-x,-z
-x,-y,-z
y,-x,-z
x,y,-z
-y,x,-z
1/2-x,1/2+y,z
1/2+x,1/2-y,z
1/2-y,1/2-x,z
1/2+y,1/2+x,z
loop_
_atom_site_type_symbol
_atom_site_label
_atom_site_fract_x
_atom_site_fract_y
_atom_site_fract_z
Si Si1 0.079726 0.579726 0.156770
Si Si2 0.300547 0.199454 0.152723
Si Si3 0.688992 0.541146 0.246872
Si Si4 0.036287 0.348382 0.656500
Si Si5 0.330417 0.615473 0.149393
Si Si6 0.604135 0.553693 0.500000
O O1 0.139751 0.639751 0.154826
O O2 0.109909 0.515855 0.244840
O O3 0.064234 0.564234 0.000000
O O4 0.335009 0.269804 0.211534
O O5 0.282997 0.217004 0.000000
O O6 0.770952 0.542097 0.281577
O O7 0.666220 0.461218 0.215764
O O8 0.659111 0.597331 0.143977
O O9 0.648769 0.569986 0.373762
O O10 0.013593 0.345720 0.500000
O O11 0.109606 0.390395 0.657609
O O12 0.307036 0.599302 0.000000
O O13 0.529504 0.590231 0.500000
#
# Coordination Sequence:
#
# PCOD9564398 Si02
#       6
#     8   8  16  16  16   8
#     4  11  22  42  71  96 126 172 223 271 325 390
#     4   9  20  40  62  87 126 167 207 260 319 380
#     4  12  23  40  66  91 125 170 215 261 318 390
#     4  11  25  43  65  96 134 171 215 271 328 387
#     4  11  24  41  62  93 130 167 210 265 324 383
#     4  11  22  40  61  89 122 165 216 262 308 373
#
# _framework density 19.600107000000001
#
# number of rings (size 3 to 8) (size 9 to 14) (size 15 to 20)
#    0.000    1.000    5.556    1.333    1.556    3.111 
#    0.000    1.111    0.000    0.000    0.000    0.000 
#    0.000    0.000    0.000    0.000    0.000    0.000 
#
# Total GULP energy -401270.240581 kJ/mol
# GULP energy per Si atom -5573.197786 kJ/mol
# Density = 1.955550 g / cm^3
# Si number density = 19.600107 Si / 1000 Ang^3
#
#
#
# Elastic Constant Matrix: (Units=GPa)
#
#
# Indices 1 2 3 4 5 6 
#
# 1 102.8429 45.7265 23.7076 0.0000 0.0000 0.0000
# 2 45.7265 102.8425 23.7075 0.0000 0.0000 0.0000
# 3 23.7076 23.7075 96.7585 0.0000 0.0000 0.0000
# 4 0.0000 0.0000 0.0000 34.2457 0.0000 0.0000
# 5 0.0000 0.0000 0.0000 0.0000 34.2457 0.0000
# 6 0.0000 0.0000 0.0000 0.0000 0.0000 57.6797
#
#
#
# Elastic Compliance Matrix: (Units=1/GPa)
#
#
# Indices 1 2 3 4 5 6 
#
# 1 0.012405 -0.005103 -0.001789 0.000000 0.000000 0.000000
# 2 -0.005103 0.012405 -0.001789 0.000000 0.000000 0.000000
# 3 -0.001789 -0.001789 0.011212 0.000000 0.000000 0.000000
# 4 0.000000 0.000000 0.000000 0.029201 0.000000 0.000000
# 5 0.000000 0.000000 0.000000 0.000000 0.029201 0.000000
# 6 0.000000 0.000000 0.000000 0.000000 0.000000 0.017337
#
#
# Mechanical properties :
#
#
# Convention : Reuss Voigt Hill
#
# Bulk Modulus (GPa) = 53.59319 54.30301 53.94810
# Shear Modulus (GPa) = 36.94327 39.18772 38.06549
#
# Velocity S-wave (km/s) = 4.34620 4.47627 4.41171
# Velocity P-wave (km/s) = 7.25180 7.38117 7.31677
#
# Compressibility (1/GPa) = 0.01865909
#
# Stress axis : x y z
#
# Youngs Moduli (GPa) = 80.61275 80.61249 89.19235
#
# Poissons Ratio (x) = 0.41138 0.15957
# Poissons Ratio (y) = 0.41138 0.15957
# Poissons Ratio (z) = 0.14422 0.14422
#
# Static dielectric constant tensor:
#      x y z
#    x 1.693100 0.000000 0.000000 
#    y 0.000000 1.693100 0.000000 
#    z 0.000000 0.000000 1.725100 
# 
# From -- ./inp_files/1622.got.cif
#   From: 2010.05.17/outbox.cif.g08.bks.cpg/sg127_1_cif.got.tgz:1622.got - 2010.05.20 12:03:00.
