data_PCOD9564444
_publ_section_title
;
Structure prediction by ZEFSAII (Michael W. Deem and Ramdas Pophale) SiO2 
 PCOD9564444
Probable space group: P 4/M B M
;
_chemical_formula_sum "Si O2"
_cell_formula_units_Z 64
_cell_length_a 11.406503
_cell_length_b 11.406503
_cell_length_c 25.702858
_cell_angle_alpha 90.000000
_cell_angle_beta 90.000000
_cell_angle_gamma 90.000000
_cell_volume 3344.155434
_symmetry_space_group_name_H-M "P 4/M B M"
_symmetry_group_IT_number 127
_symmetry_cell_setting 'tetragonal'
loop_
_space_group_symop_operation_xyz
x,y,z
-y,x,z
-x,-y,z
y,-x,z
1/2+x,1/2-y,-z
1/2-x,1/2+y,-z
1/2+y,1/2+x,-z
1/2-y,1/2-x,-z
-x,-y,-z
y,-x,-z
x,y,-z
-y,x,-z
1/2-x,1/2+y,z
1/2+x,1/2-y,z
1/2-y,1/2-x,z
1/2+y,1/2+x,z
loop_
_atom_site_type_symbol
_atom_site_label
_atom_site_fract_x
_atom_site_fract_y
_atom_site_fract_z
Si Si1 0.029832 0.803884 0.329837
Si Si2 0.802496 0.973599 0.444151
Si Si3 0.968461 0.194515 0.058868
Si Si4 0.599065 0.900936 0.865657
Si Si5 0.900783 0.400783 0.746195
O O1 0.035642 0.745412 0.387507
O O2 0.050934 0.710964 0.285034
O O3 0.905648 0.871415 0.326488
O O4 0.739010 0.965711 0.500000
O O5 0.903544 0.873726 0.444319
O O6 0.948707 0.290189 0.102509
O O7 0.093117 0.129501 0.063450
O O8 0.960823 0.243628 0.000000
O O9 0.628393 0.871608 0.805959
O O10 0.500000 0.000000 0.865382
O O11 0.000000 0.500000 0.746019
#
# Coordination Sequence:
#
# PCOD9564444 Si02
#       5
#    16  16  16   8   8
#     4   9  19  37  61  84 107 147 196 237 289 351
#     4   7  10  21  47  81 108 131 172 230 286 346
#     4   9  20  40  65  93 122 150 183 229 285 340
#     4  11  25  40  57  86 120 157 199 235 277 330
#     4  11  26  41  55  80 118 156 196 245 282 316
#
# _framework density 19.137865999999999
#
# number of rings (size 3 to 8) (size 9 to 14) (size 15 to 20)
#    0.000    3.000    0.000    3.375    3.500    3.000 
#    0.000    3.125    0.000    1.500    0.000    0.000 
#    0.000    0.000    0.000    0.000    0.000    0.000 
#
# Total GULP energy -356778.331337 kJ/mol
# GULP energy per Si atom -5574.661427 kJ/mol
# Density = 1.909431 g / cm^3
# Si number density = 19.137866 Si / 1000 Ang^3
#
#
#
# Elastic Constant Matrix: (Units=GPa)
#
#
# Indices 1 2 3 4 5 6 
#
# 1 -115.9348 182.7153 59.8710 0.0000 0.0000 0.0000
# 2 182.7153 -115.9348 59.8710 0.0000 0.0000 0.0000
# 3 59.8710 59.8710 227.4219 0.0000 0.0000 0.0000
# 4 0.0000 0.0000 0.0000 23.0434 0.0000 0.0000
# 5 0.0000 0.0000 0.0000 0.0000 23.0434 0.0000
# 6 0.0000 0.0000 0.0000 0.0000 0.0000 5.8104
#
#
#
# Elastic Compliance Matrix: (Units=1/GPa)
#
#
# Indices 1 2 3 4 5 6 
#
# 1 0.012507 0.015856 -0.007467 0.000000 0.000000 0.000000
# 2 0.015856 0.012507 -0.007467 0.000000 0.000000 0.000000
# 3 -0.007467 -0.007467 0.008329 0.000000 0.000000 0.000000
# 4 0.000000 0.000000 0.000000 0.043396 0.000000 0.000000
# 5 0.000000 0.000000 0.000000 0.000000 0.043396 0.000000
# 6 0.000000 0.000000 0.000000 0.000000 0.000000 0.172104
#
#
# Mechanical properties :
#
#
# Convention : Reuss Voigt Hill
#
# Bulk Modulus (GPa) = 28.41942 66.71852 47.56897
# Shear Modulus (GPa) = 16.54945 -10.08087 3.23429
#
# Velocity S-wave (km/s) = 2.94385 -2.29759 1.30141
# Velocity P-wave (km/s) = 5.14170 5.28196 5.21230
#
# Compressibility (1/GPa) = 0.03518720
#
# Stress axis : x y z
#
# Youngs Moduli (GPa) = 79.95335 79.95335 120.06903
#
# Poissons Ratio (x) = -1.26772 0.89653
# Poissons Ratio (y) = -1.26772 0.89653
# Poissons Ratio (z) = 0.59700 0.59700
#
# Static dielectric constant tensor:
#      x y z
#    x 1.659020 0.000000 0.000000 
#    y 0.000000 1.659020 0.000000 
#    z 0.000000 0.000000 1.684930 
# 
# From -- ./inp_files/6039.got.cif
#   From: 2010.05.17/outbox.cif.g08.bks.cpg/sg127_4_cif.got.tgz:6039.got - 2010.05.20 12:03:00.
