data_PCOD9564933
_publ_section_title
;
Structure prediction by ZEFSAII (Michael W. Deem and Ramdas Pophale) SiO2 
 PCOD9564933
Probable space group: P 4/M N C
;
_chemical_formula_sum "Si O2"
_cell_formula_units_Z 88
_cell_length_a 14.960326
_cell_length_b 14.960326
_cell_length_c 19.353727
_cell_angle_alpha 90.000000
_cell_angle_beta 90.000000
_cell_angle_gamma 90.000000
_cell_volume 4331.583845
_symmetry_space_group_name_H-M "P 4/M N C"
_symmetry_group_IT_number 128
_symmetry_cell_setting 'tetragonal'
loop_
_space_group_symop_operation_xyz
x,y,z
-y,x,z
-x,-y,z
y,-x,z
1/2+x,1/2-y,1/2-z
1/2-x,1/2+y,1/2-z
1/2+y,1/2+x,1/2-z
1/2-y,1/2-x,1/2-z
-x,-y,-z
y,-x,-z
x,y,-z
-y,x,-z
1/2-x,1/2+y,1/2+z
1/2+x,1/2-y,1/2+z
1/2-y,1/2-x,1/2+z
1/2+y,1/2+x,1/2+z
loop_
_atom_site_type_symbol
_atom_site_label
_atom_site_fract_x
_atom_site_fract_y
_atom_site_fract_z
Si Si1 0.815573 0.160998 0.920387
Si Si2 0.367863 0.570248 0.000000
Si Si3 0.215231 0.421154 0.214599
Si Si4 0.481411 0.244462 0.643460
Si Si5 0.795274 0.826600 0.628013
Si Si6 0.920044 0.379175 0.673754
O O1 0.899276 0.189579 0.872767
O O2 0.740746 0.236177 0.907316
O O3 0.774814 0.065727 0.900991
O O4 0.844310 0.163412 0.000000
O O5 0.383009 0.464816 0.000000
O O6 0.318026 0.603156 0.068542
O O7 0.157589 0.342412 0.250000
O O8 0.245757 0.485293 0.277172
O O9 0.297984 0.378380 0.174724
O O10 0.151334 0.478063 0.162922
O O11 0.445287 0.142927 0.629626
O O12 0.713602 0.865270 0.672394
O O13 0.920619 0.420619 0.750000
#
# Coordination Sequence:
#
# PCOD9564933 Si02
#       6
#    16   8  16  16  16  16
#     4  11  22  42  65  91 127 172 215 262 317 391
#     4  11  24  42  62  88 120 161 210 258 324 379
#     4  11  21  37  64  94 127 162 212 267 329 386
#     4  10  23  38  63  93 124 167 216 258 325 382
#     4  11  21  39  64  88 122 168 208 258 317 392
#     4   9  21  37  59  91 126 159 206 263 320 377
#
# _framework density 20.315892999999999
#
# number of rings (size 3 to 8) (size 9 to 14) (size 15 to 20)
#    0.000    1.545    2.727    2.182    5.091    3.636 
#    0.000    0.909    0.000    1.091    0.000    0.000 
#    0.000    0.000    0.000    0.000    0.000    0.000 
#
# Total GULP energy -491109.749261 kJ/mol
# GULP energy per Si atom -5580.792605 kJ/mol
# Density = 2.026965 g / cm^3
# Si number density = 20.315893 Si / 1000 Ang^3
#
#
#
# Elastic Constant Matrix: (Units=GPa)
#
#
# Indices 1 2 3 4 5 6 
#
# 1 97.5694 -55.4725 18.7211 0.0000 0.0000 0.0000
# 2 -55.4725 97.6075 18.7194 0.0000 0.0000 0.0000
# 3 18.7211 18.7194 66.4068 0.0000 0.0000 0.0000
# 4 0.0000 0.0000 0.0000 21.9903 0.0000 0.0000
# 5 0.0000 0.0000 0.0000 0.0000 21.9897 0.0000
# 6 0.0000 0.0000 0.0000 0.0000 0.0000 24.1068
#
#
#
# Elastic Compliance Matrix: (Units=1/GPa)
#
#
# Indices 1 2 3 4 5 6 
#
# 1 0.019113 0.012575 -0.008933 0.000000 0.000000 0.000000
# 2 0.012575 0.019105 -0.008931 0.000000 0.000000 0.000000
# 3 -0.008933 -0.008931 0.020095 0.000000 0.000000 0.000000
# 4 0.000000 0.000000 0.000000 0.045475 0.000000 0.000000
# 5 0.000000 0.000000 0.000000 0.000000 0.045476 0.000000
# 6 0.000000 0.000000 0.000000 0.000000 0.000000 0.041482
#
#
# Mechanical properties :
#
#
# Convention : Reuss Voigt Hill
#
# Bulk Modulus (GPa) = 20.94873 25.05774 23.00324
# Shear Modulus (GPa) = 23.01675 32.25841 27.63758
#
# Velocity S-wave (km/s) = 3.36957 3.98910 3.69235
# Velocity P-wave (km/s) = 5.04704 5.79465 5.43372
#
# Compressibility (1/GPa) = 0.04773559
#
# Stress axis : x y z
#
# Youngs Moduli (GPa) = 52.32081 52.34294 49.76475
#
# Poissons Ratio (x) = -0.65824 0.44455
# Poissons Ratio (y) = -0.65796 0.44443
# Poissons Ratio (z) = 0.46739 0.46746
#
# Static dielectric constant tensor:
#      x y z
#    x 1.735320 0.000000 0.000000 
#    y 0.000000 1.735320 0.000000 
#    z 0.000000 0.000000 1.724790 
# 
# From -- ./inp_files/5663.got.cif
#   From: 2010.05.17/outbox.cif.g08.bks.cpg/sg128_3_cif.got.tgz:5663.got - 2010.05.20 12:07:25.
