data_PCOD9564605
_publ_section_title
;
Structure prediction by ZEFSAII (Michael W. Deem and Ramdas Pophale) SiO2 
 PCOD9564605
Probable space group: P 4/M N C
;
_chemical_formula_sum "Si O2"
_cell_formula_units_Z 96
_cell_length_a 26.105450
_cell_length_b 26.105450
_cell_length_c 8.458310
_cell_angle_alpha 90.000000
_cell_angle_beta 90.000000
_cell_angle_gamma 90.000000
_cell_volume 5764.291911
_symmetry_space_group_name_H-M "P 4/M N C"
_symmetry_group_IT_number 128
_symmetry_cell_setting 'tetragonal'
loop_
_space_group_symop_operation_xyz
x,y,z
-y,x,z
-x,-y,z
y,-x,z
1/2+x,1/2-y,1/2-z
1/2-x,1/2+y,1/2-z
1/2+y,1/2+x,1/2-z
1/2-y,1/2-x,1/2-z
-x,-y,-z
y,-x,-z
x,y,-z
-y,x,-z
1/2-x,1/2+y,1/2+z
1/2+x,1/2-y,1/2+z
1/2-y,1/2-x,1/2+z
1/2+y,1/2+x,1/2+z
loop_
_atom_site_type_symbol
_atom_site_label
_atom_site_fract_x
_atom_site_fract_y
_atom_site_fract_z
Si Si1 0.941672 0.637644 0.817202
Si Si2 0.252217 0.170167 0.812180
Si Si3 0.442265 0.247560 0.813951
Si Si4 0.830433 0.748380 0.310220
Si Si5 0.749505 0.055310 0.686070
Si Si6 0.135373 0.555983 0.682919
O O1 0.900521 0.599480 0.750000
O O2 0.943362 0.688648 0.713574
O O3 0.998410 0.614123 0.812234
O O4 0.931015 0.651612 0.000000
O O5 0.306839 0.193162 0.750000
O O6 0.238566 0.111882 0.765364
O O7 0.209348 0.207895 0.741163
O O8 0.252998 0.174973 0.000000
O O9 0.498609 0.266512 0.751965
O O10 0.443399 0.186644 0.785453
O O11 0.261789 0.445362 0.000000
O O12 0.805263 0.694738 0.250000
O O13 0.832345 0.744996 0.500000
O O14 0.887743 0.763356 0.251523
O O15 0.759295 0.939318 0.500000
O O16 0.095642 0.595642 0.750000
O O17 0.149082 0.567532 0.500000
#
# Coordination Sequence:
#
# PCOD9564605 Si02
#       6
#    16  16  16  16  16  16
#     4  10  20  31  44  60  81 109 145 186 229 272
#     4  11  21  33  49  71  97 128 161 196 236 280
#     4  10  19  33  50  68  91 120 151 188 229 275
#     4  10  19  32  49  72  98 126 158 194 234 280
#     4   9  19  33  50  69  91 119 152 187 229 276
#     4  10  20  32  44  60  80 108 145 187 230 273
#
# _framework density 16.654257999999999
#
# number of rings (size 3 to 8) (size 9 to 14) (size 15 to 20)
#    0.000    2.000    0.000    5.500    0.000    5.667 
#    0.000    1.667    0.000    0.000    0.000    0.000 
#    0.000    0.667    0.000    7.667    0.000    3.000 
#
# Total GULP energy -534621.075396 kJ/mol
# GULP energy per Si atom -5568.969535 kJ/mol
# Density = 1.661635 g / cm^3
# Si number density = 16.654258 Si / 1000 Ang^3
#
#
#
# Elastic Constant Matrix: (Units=GPa)
#
#
# Indices 1 2 3 4 5 6 
#
# 1 76.7897 18.2243 5.8606 0.0000 0.0000 0.0000
# 2 18.2243 76.7944 5.8616 0.0000 0.0000 0.0000
# 3 5.8606 5.8616 36.9375 0.0000 0.0000 0.0000
# 4 0.0000 0.0000 0.0000 15.9028 0.0000 0.0000
# 5 0.0000 0.0000 0.0000 0.0000 15.9021 0.0000
# 6 0.0000 0.0000 0.0000 0.0000 0.0000 20.6282
#
#
#
# Elastic Compliance Matrix: (Units=1/GPa)
#
#
# Indices 1 2 3 4 5 6 
#
# 1 0.013905 -0.003170 -0.001703 0.000000 0.000000 0.000000
# 2 -0.003170 0.013904 -0.001703 0.000000 0.000000 0.000000
# 3 -0.001703 -0.001703 0.027613 0.000000 0.000000 0.000000
# 4 0.000000 0.000000 0.000000 0.062882 0.000000 0.000000
# 5 0.000000 0.000000 0.000000 0.000000 0.062885 0.000000
# 6 0.000000 0.000000 0.000000 0.000000 0.000000 0.048477
#
#
# Mechanical properties :
#
#
# Convention : Reuss Voigt Hill
#
# Bulk Modulus (GPa) = 23.65786 27.82386 25.74086
# Shear Modulus (GPa) = 19.46212 21.19161 20.32687
#
# Velocity S-wave (km/s) = 3.42218 3.57100 3.49739
# Velocity P-wave (km/s) = 5.46363 5.80911 5.63902
#
# Compressibility (1/GPa) = 0.04226924
#
# Stress axis : x y z
#
# Youngs Moduli (GPa) = 71.91735 71.92157 36.21445
#
# Poissons Ratio (x) = 0.22798 0.06168
# Poissons Ratio (y) = 0.22796 0.06169
# Poissons Ratio (z) = 0.12249 0.12252
#
# Static dielectric constant tensor:
#      x y z
#    x 1.589340 0.000000 0.000000 
#    y 0.000000 1.589340 0.000000 
#    z 0.000000 0.000000 1.587210 
# 
# From -- ./inp_files/1625.got.cif
#   From: 2010.05.17/outbox.cif.g08.bks.cpg/sg128_1_cif.got.tgz:1625.got - 2010.05.20 12:07:25.
