data_PCOD9564942
_publ_section_title
;
Structure prediction by ZEFSAII (Michael W. Deem and Ramdas Pophale) SiO2 
 PCOD9564942
Probable space group: P 4/M N C
;
_chemical_formula_sum "Si O2"
_cell_formula_units_Z 116
_cell_length_a 18.116262
_cell_length_b 18.116262
_cell_length_c 17.365169
_cell_angle_alpha 90.000000
_cell_angle_beta 90.000000
_cell_angle_gamma 90.000000
_cell_volume 5699.230212
_symmetry_space_group_name_H-M "P 4/M N C"
_symmetry_group_IT_number 128
_symmetry_cell_setting 'tetragonal'
loop_
_space_group_symop_operation_xyz
x,y,z
-y,x,z
-x,-y,z
y,-x,z
1/2+x,1/2-y,1/2-z
1/2-x,1/2+y,1/2-z
1/2+y,1/2+x,1/2-z
1/2-y,1/2-x,1/2-z
-x,-y,-z
y,-x,-z
x,y,-z
-y,x,-z
1/2-x,1/2+y,1/2+z
1/2+x,1/2-y,1/2+z
1/2-y,1/2-x,1/2+z
1/2+y,1/2+x,1/2+z
loop_
_atom_site_type_symbol
_atom_site_label
_atom_site_fract_x
_atom_site_fract_y
_atom_site_fract_z
Si Si1 0.673063 0.577255 0.682609
Si Si2 0.849016 0.587463 0.328016
Si Si3 0.500000 0.500000 0.891245
Si Si4 0.573756 0.786339 0.174138
Si Si5 0.920376 0.718426 0.411573
Si Si6 0.673674 0.431071 0.587564
Si Si7 0.926233 0.331817 0.853300
Si Si8 0.618869 0.376970 0.852288
O O1 0.761272 0.584271 0.688082
O O2 0.653073 0.499910 0.642306
O O3 0.640875 0.639432 0.626515
O O4 0.637493 0.585976 0.766550
O O5 0.891778 0.608222 0.250000
O O6 0.865291 0.653091 0.387324
O O7 0.870992 0.506016 0.357640
O O8 0.572442 0.443701 0.888799
O O9 0.491311 0.789498 0.142722
O O10 0.618625 0.854198 0.137253
O O11 0.576741 0.799558 0.265889
O O12 0.603848 0.705075 0.156065
O O13 0.942128 0.710926 0.500000
O O14 0.888581 0.799931 0.396975
O O15 0.648434 0.441425 0.500000
O O16 0.761964 0.426287 0.591004
#
# Coordination Sequence:
#
# PCOD9564942 Si02
#       8
#    16  16   4  16  16  16  16  16
#     4  11  23  40  66  94 131 179 231 281 335 414
#     4  11  22  43  70  98 130 177 229 288 340 418
#     4  12  24  40  73 104 141 176 228 278 332 404
#     4  11  23  44  69 101 131 175 236 288 334 413
#     4  12  27  45  68 103 140 176 227 290 355 411
#     4  11  23  39  59  94 135 176 224 281 344 407
#     4  10  23  42  70  96 130 177 228 282 340 412
#     4  12  23  44  71 103 138 182 235 282 342 412
#
# _framework density 20.353626999999999
#
# number of rings (size 3 to 8) (size 9 to 14) (size 15 to 20)
#    0.000    0.828    5.517    2.069    1.931    4.690 
#    0.000    1.724    0.000    0.000    0.000    0.000 
#    0.000    0.000    0.000    0.000    0.000    0.000 
#
# Total GULP energy -647568.952127 kJ/mol
# GULP energy per Si atom -5582.490967 kJ/mol
# Density = 2.030730 g / cm^3
# Si number density = 20.353627 Si / 1000 Ang^3
#
#
#
# Elastic Constant Matrix: (Units=GPa)
#
#
# Indices 1 2 3 4 5 6 
#
# 1 113.4415 44.3259 10.5455 0.0000 0.0000 0.0000
# 2 44.3259 113.4415 10.5455 0.0000 0.0000 0.0000
# 3 10.5455 10.5455 52.1008 0.0000 0.0000 0.0000
# 4 0.0000 0.0000 0.0000 0.4214 0.0000 0.0000
# 5 0.0000 0.0000 0.0000 0.0000 0.4214 0.0000
# 6 0.0000 0.0000 0.0000 0.0000 0.0000 31.5539
#
#
#
# Elastic Compliance Matrix: (Units=1/GPa)
#
#
# Indices 1 2 3 4 5 6 
#
# 1 0.010492 -0.003977 -0.001319 0.000000 0.000000 0.000000
# 2 -0.003977 0.010492 -0.001319 0.000000 0.000000 0.000000
# 3 -0.001319 -0.001319 0.019727 0.000000 0.000000 0.000000
# 4 0.000000 0.000000 0.000000 2.372978 0.000000 0.000000
# 5 0.000000 0.000000 0.000000 0.000000 2.372978 0.000000
# 6 0.000000 0.000000 0.000000 0.000000 0.000000 0.031692
#
#
# Mechanical properties :
#
#
# Convention : Reuss Voigt Hill
#
# Bulk Modulus (GPa) = 36.38700 45.53527 40.96114
# Shear Modulus (GPa) = 1.03290 20.71713 10.87502
#
# Velocity S-wave (km/s) = 0.71315 3.19385 2.31401
# Velocity P-wave (km/s) = 4.31211 6.00180 5.22570
#
# Compressibility (1/GPa) = 0.02748234
#
# Stress axis : x y z
#
# Youngs Moduli (GPa) = 95.31412 95.31412 50.69105
#
# Poissons Ratio (x) = 0.37906 0.06684
# Poissons Ratio (y) = 0.37906 0.06684
# Poissons Ratio (z) = 0.12568 0.12568
#
# Static dielectric constant tensor:
#      x y z
#    x 1.730300 0.000000 0.000000 
#    y 0.000000 1.730300 0.000000 
#    z 0.000000 0.000000 1.726410 
# 
# From -- ./inp_files/4964.got.cif
#   From: 2010.05.17/outbox.cif.g08.bks.cpg/sg128_3_cif.got.tgz:4964.got - 2010.05.20 12:07:25.
