data_PCOD9564876
_publ_section_title
;
Structure prediction by ZEFSAII (Michael W. Deem and Ramdas Pophale) SiO2 
 PCOD9564876
Probable space group: P 4/M N C
;
_chemical_formula_sum "Si O2"
_cell_formula_units_Z 96
_cell_length_a 23.415185
_cell_length_b 23.415185
_cell_length_c 9.751206
_cell_angle_alpha 90.000000
_cell_angle_beta 90.000000
_cell_angle_gamma 90.000000
_cell_volume 5346.302378
_symmetry_space_group_name_H-M "P 4/M N C"
_symmetry_group_IT_number 128
_symmetry_cell_setting 'tetragonal'
loop_
_space_group_symop_operation_xyz
x,y,z
-y,x,z
-x,-y,z
y,-x,z
1/2+x,1/2-y,1/2-z
1/2-x,1/2+y,1/2-z
1/2+y,1/2+x,1/2-z
1/2-y,1/2-x,1/2-z
-x,-y,-z
y,-x,-z
x,y,-z
-y,x,-z
1/2-x,1/2+y,1/2+z
1/2+x,1/2-y,1/2+z
1/2-y,1/2-x,1/2+z
1/2+y,1/2+x,1/2+z
loop_
_atom_site_type_symbol
_atom_site_label
_atom_site_fract_x
_atom_site_fract_y
_atom_site_fract_z
Si Si1 0.733903 0.955946 0.226016
Si Si2 0.765888 0.575866 0.841218
Si Si3 0.618868 0.816099 0.500000
Si Si4 0.798487 0.701514 0.250000
Si Si5 0.128471 0.932443 0.338025
Si Si6 0.755627 0.266132 0.500000
Si Si7 0.864440 0.956207 0.841054
Si Si8 0.771817 0.385511 0.000000
O O1 0.691096 0.920202 0.132217
O O2 0.795822 0.958847 0.155949
O O3 0.742805 0.921779 0.367245
O O4 0.714494 0.020093 0.258596
O O5 0.787903 0.635765 0.785447
O O6 0.696775 0.575508 0.836489
O O7 0.782693 0.569765 0.000000
O O8 0.665728 0.764415 0.500000
O O9 0.660465 0.870444 0.500000
O O10 0.757892 0.721930 0.372189
O O11 0.111121 0.934077 0.500000
O O12 0.098216 0.883945 0.247707
O O13 0.115415 0.990279 0.252493
O O14 0.821936 0.244241 0.500000
O O15 0.884998 0.956474 0.000000
#
# Coordination Sequence:
#
# PCOD9564876 Si02
#       8
#    16  16   8   8  16   8  16   8
#     4  11  21  39  60  85 125 157 199 247 297 372
#     4  10  23  40  58  86 116 164 202 239 295 365
#     4  10  22  37  57  99 118 150 200 243 324 354
#     4  12  22  40  58  88 131 164 206 249 298 378
#     4  10  23  38  61  80 107 151 207 242 300 355
#     4  10  24  34  58  96 128 155 193 254 314 364
#     4  11  23  38  55  82 115 152 193 254 299 348
#     4  10  22  35  63  87 126 158 192 243 316 366
#
# _framework density 17.956336
#
# number of rings (size 3 to 8) (size 9 to 14) (size 15 to 20)
#    0.500    1.000    2.500    2.500    7.000    1.000 
#    1.500    1.667    0.000    0.000    0.000    3.500 
#    0.000    0.000    0.000    0.000    0.000    0.000 
#
# Total GULP energy -535519.034079 kJ/mol
# GULP energy per Si atom -5578.323272 kJ/mol
# Density = 1.791547 g / cm^3
# Si number density = 17.956336 Si / 1000 Ang^3
#
#
#
# Elastic Constant Matrix: (Units=GPa)
#
#
# Indices 1 2 3 4 5 6 
#
# 1 67.0469 19.4474 33.4499 0.0000 0.0000 0.0000
# 2 19.4474 67.0477 33.4504 0.0000 0.0000 0.0000
# 3 33.4499 33.4504 150.3503 0.0000 0.0000 0.0000
# 4 0.0000 0.0000 0.0000 24.9689 0.0000 0.0000
# 5 0.0000 0.0000 0.0000 0.0000 24.9686 0.0000
# 6 0.0000 0.0000 0.0000 0.0000 0.0000 23.1131
#
#
#
# Elastic Compliance Matrix: (Units=1/GPa)
#
#
# Indices 1 2 3 4 5 6 
#
# 1 0.017487 -0.003522 -0.003107 0.000000 0.000000 0.000000
# 2 -0.003522 0.017486 -0.003107 0.000000 0.000000 0.000000
# 3 -0.003107 -0.003107 0.008034 0.000000 0.000000 0.000000
# 4 0.000000 0.000000 0.000000 0.040050 0.000000 0.000000
# 5 0.000000 0.000000 0.000000 0.000000 0.040050 0.000000
# 6 0.000000 0.000000 0.000000 0.000000 0.000000 0.043266
#
#
# Mechanical properties :
#
#
# Convention : Reuss Voigt Hill
#
# Bulk Modulus (GPa) = 42.48977 50.79337 46.64157
# Shear Modulus (GPa) = 25.81465 27.81660 26.81562
#
# Velocity S-wave (km/s) = 3.79573 3.94016 3.86862
# Velocity P-wave (km/s) = 6.55166 7.00346 6.78132
#
# Compressibility (1/GPa) = 0.02353508
#
# Stress axis : x y z
#
# Youngs Moduli (GPa) = 57.18689 57.18748 124.47798
#
# Poissons Ratio (x) = 0.20142 0.38673
# Poissons Ratio (y) = 0.20141 0.38673
# Poissons Ratio (z) = 0.17767 0.17767
#
# Static dielectric constant tensor:
#      x y z
#    x 1.606280 0.000000 0.000000 
#    y 0.000000 1.606290 0.000000 
#    z 0.000000 0.000000 1.628090 
# 
# From -- ./inp_files/1575.got.cif
#   From: 2010.05.17/outbox.cif.g08.bks.cpg/sg128_1_cif.got.tgz:1575.got - 2010.05.20 12:07:25.
