data_PCOD9564232
_publ_section_title
;
Structure prediction by ZEFSAII (Michael W. Deem and Ramdas Pophale) SiO2 
 PCOD9564232
Probable space group: P 4/M B M
;
_chemical_formula_sum "Si O2"
_cell_formula_units_Z 112
_cell_length_a 14.740128
_cell_length_b 14.740128
_cell_length_c 30.500827
_cell_angle_alpha 90.000000
_cell_angle_beta 90.000000
_cell_angle_gamma 90.000000
_cell_volume 6626.956574
_symmetry_space_group_name_H-M "P 4/M B M"
_symmetry_group_IT_number 127
_symmetry_cell_setting 'tetragonal'
loop_
_space_group_symop_operation_xyz
x,y,z
-y,x,z
-x,-y,z
y,-x,z
1/2+x,1/2-y,-z
1/2-x,1/2+y,-z
1/2+y,1/2+x,-z
1/2-y,1/2-x,-z
-x,-y,-z
y,-x,-z
x,y,-z
-y,x,-z
1/2-x,1/2+y,z
1/2+x,1/2-y,z
1/2-y,1/2-x,z
1/2+y,1/2+x,z
loop_
_atom_site_type_symbol
_atom_site_label
_atom_site_fract_x
_atom_site_fract_y
_atom_site_fract_z
Si Si1 0.676525 0.326553 0.734229
Si Si2 0.098305 0.881148 0.356702
Si Si3 0.504430 0.263040 0.218687
Si Si4 0.381318 0.598327 0.547138
Si Si5 0.422308 0.077693 0.915302
Si Si6 0.576524 0.923477 0.185740
Si Si7 0.784521 0.560921 0.049721
Si Si8 0.145800 0.956602 0.127517
O O1 0.763676 0.263676 0.742563
O O2 0.670020 0.356959 0.683780
O O3 0.586223 0.271380 0.747067
O O4 0.680188 0.418552 0.763204
O O5 0.127154 0.846448 0.405082
O O6 0.988530 0.877588 0.353527
O O7 0.465349 0.163489 0.209522
O O8 0.545717 0.300127 0.173143
O O9 0.378000 0.488554 0.547091
O O10 0.343081 0.630047 0.500000
O O11 0.399048 0.100953 0.864895
O O12 0.468267 0.160718 0.940311
O O13 0.500000 0.000000 0.913804
O O14 0.500000 0.000000 0.183793
O O15 0.857128 0.642872 0.053785
O O16 0.709364 0.567302 0.086862
O O17 0.749525 0.560926 0.000000
O O18 0.059147 0.891565 0.125834
#
# Coordination Sequence:
#
# PCOD9564232 Si02
#       8
#    16  16  16  16   8   8  16  16
#     4  12  24  36  55  81 111 147 187 233 280 331
#     4   9  16  28  49  73 102 141 179 222 276 332
#     4  12  23  39  59  83 112 146 184 226 278 328
#     4   7  10  18  36  66  99 130 170 218 269 326
#     4   9  17  32  61  86 106 136 167 209 260 304
#     4  11  22  39  60  87 114 145 182 224 273 328
#     4  10  21  39  61  87 114 139 173 214 260 316
#     4  11  24  41  61  83 110 144 178 216 265 319
#
# _framework density 16.900670000000002
#
# number of rings (size 3 to 8) (size 9 to 14) (size 15 to 20)
#    0.000    1.857    5.000    1.929    0.000    2.286 
#    2.571    0.714    0.000    0.429    0.000    0.000 
#    0.000    0.000    0.000    0.000    0.000   16.429 
#
# Total GULP energy -624204.897003 kJ/mol
# GULP energy per Si atom -5573.258009 kJ/mol
# Density = 1.686220 g / cm^3
# Si number density = 16.900670 Si / 1000 Ang^3
#
#
#
# Elastic Constant Matrix: (Units=GPa)
#
#
# Indices 1 2 3 4 5 6 
#
# 1 27.1348 6.7638 17.7023 0.0000 0.0000 0.0000
# 2 6.7638 27.1348 17.7023 0.0000 0.0000 0.0000
# 3 17.7023 17.7023 118.6681 0.0000 0.0000 0.0000
# 4 0.0000 0.0000 0.0000 9.5908 0.0000 0.0000
# 5 0.0000 0.0000 0.0000 0.0000 9.5908 0.0000
# 6 0.0000 0.0000 0.0000 0.0000 0.0000 9.1129
#
#
#
# Elastic Compliance Matrix: (Units=1/GPa)
#
#
# Indices 1 2 3 4 5 6 
#
# 1 0.042017 -0.007073 -0.005213 0.000000 0.000000 0.000000
# 2 -0.007073 0.042017 -0.005213 0.000000 0.000000 0.000000
# 3 -0.005213 -0.005213 0.009982 0.000000 0.000000 0.000000
# 4 0.000000 0.000000 0.000000 0.104267 0.000000 0.000000
# 5 0.000000 0.000000 0.000000 0.000000 0.104267 0.000000
# 6 0.000000 0.000000 0.000000 0.000000 0.000000 0.109735
#
#
# Mechanical properties :
#
#
# Convention : Reuss Voigt Hill
#
# Bulk Modulus (GPa) = 16.94362 28.58603 22.76483
# Shear Modulus (GPa) = 10.70770 14.37684 12.54227
#
# Velocity S-wave (km/s) = 2.51981 2.91978 2.72714
# Velocity P-wave (km/s) = 4.30268 5.32144 4.83895
#
# Compressibility (1/GPa) = 0.05901925
#
# Stress axis : x y z
#
# Youngs Moduli (GPa) = 23.80000 23.80000 100.17939
#
# Poissons Ratio (x) = 0.16833 0.52221
# Poissons Ratio (y) = 0.16833 0.52221
# Poissons Ratio (z) = 0.12406 0.12406
#
# Static dielectric constant tensor:
#      x y z
#    x 1.560470 0.000000 0.000000 
#    y 0.000000 1.560470 0.000000 
#    z 0.000000 0.000000 1.604600 
# 
# From -- ./inp_files/6414.got.cif
#   From: 2010.05.17/outbox.cif.g08.bks.cpg/sg127_4_cif.got.tgz:6414.got - 2010.05.20 12:03:00.
