data_PCOD9564878
_publ_section_title
;
Structure prediction by ZEFSAII (Michael W. Deem and Ramdas Pophale) SiO2 
 PCOD9564878
Probable space group: P 4/M N C
;
_chemical_formula_sum "Si O2"
_cell_formula_units_Z 64
_cell_length_a 11.286520
_cell_length_b 11.286520
_cell_length_c 28.584974
_cell_angle_alpha 90.000000
_cell_angle_beta 90.000000
_cell_angle_gamma 90.000000
_cell_volume 3641.312169
_symmetry_space_group_name_H-M "P 4/M N C"
_symmetry_group_IT_number 128
_symmetry_cell_setting 'tetragonal'
loop_
_space_group_symop_operation_xyz
x,y,z
-y,x,z
-x,-y,z
y,-x,z
1/2+x,1/2-y,1/2-z
1/2-x,1/2+y,1/2-z
1/2+y,1/2+x,1/2-z
1/2-y,1/2-x,1/2-z
-x,-y,-z
y,-x,-z
x,y,-z
-y,x,-z
1/2-x,1/2+y,1/2+z
1/2+x,1/2-y,1/2+z
1/2-y,1/2-x,1/2+z
1/2+y,1/2+x,1/2+z
loop_
_atom_site_type_symbol
_atom_site_label
_atom_site_fract_x
_atom_site_fract_y
_atom_site_fract_z
Si Si1 0.696799 0.471920 0.945750
Si Si2 0.309846 0.993182 0.736964
Si Si3 0.182281 0.057226 0.826198
Si Si4 0.871284 0.438931 0.861374
O O1 0.629110 0.596808 0.938783
O O2 0.801797 0.455853 0.909248
O O3 0.735216 0.466523 0.000000
O O4 0.363770 0.863770 0.750000
O O5 0.414700 0.085301 0.750000
O O6 0.205637 0.038677 0.770415
O O7 0.295797 0.005121 0.681613
O O8 0.302316 0.103491 0.848942
O O9 0.075359 0.143266 0.839613
O O10 0.000000 0.500000 0.861384
#
# Coordination Sequence:
#
# PCOD9564878 Si02
#       4
#    16  16  16  16
#     4   9  21  41  62  88 117 143 184 247 304 344
#     4   9  16  33  49  76 109 145 186 230 272 315
#     4  10  22  36  52  79 119 158 190 232 282 339
#     4  11  21  35  60  86 112 148 198 235 283 349
#
# _framework density 17.576082
#
# number of rings (size 3 to 8) (size 9 to 14) (size 15 to 20)
#    0.000    2.250    5.000    0.750    3.500    5.500 
#    0.000    2.500    0.000    0.000    0.000    1.750 
#    0.000    0.000    0.000    0.000    0.000    0.000 
#
# Total GULP energy -356673.748188 kJ/mol
# GULP energy per Si atom -5573.027315 kJ/mol
# Density = 1.753608 g / cm^3
# Si number density = 17.576082 Si / 1000 Ang^3
#
#
#
# Elastic Constant Matrix: (Units=GPa)
#
#
# Indices 1 2 3 4 5 6 
#
# 1 22.1066 -2.5289 16.7263 0.0000 0.0000 0.0000
# 2 -2.5289 22.1067 16.7264 0.0000 0.0000 0.0000
# 3 16.7263 16.7264 92.7761 0.0000 0.0000 0.0000
# 4 0.0000 0.0000 0.0000 22.4095 0.0000 0.0000
# 5 0.0000 0.0000 0.0000 0.0000 22.4095 0.0000
# 6 0.0000 0.0000 0.0000 0.0000 0.0000 11.6112
#
#
#
# Elastic Compliance Matrix: (Units=1/GPa)
#
#
# Indices 1 2 3 4 5 6 
#
# 1 0.057206 0.016614 -0.013309 0.000000 0.000000 0.000000
# 2 0.016614 0.057205 -0.013309 0.000000 0.000000 0.000000
# 3 -0.013309 -0.013309 0.015577 0.000000 0.000000 0.000000
# 4 0.000000 0.000000 0.000000 0.044624 0.000000 0.000000
# 5 0.000000 0.000000 0.000000 0.000000 0.044624 0.000000
# 6 0.000000 0.000000 0.000000 0.000000 0.000000 0.086124
#
#
# Mechanical properties :
#
#
# Convention : Reuss Voigt Hill
#
# Bulk Modulus (GPa) = 9.09247 22.09299 15.59273
# Shear Modulus (GPa) = 13.81111 18.35708 16.08410
#
# Velocity S-wave (km/s) = 2.80624 3.23528 3.02836
# Velocity P-wave (km/s) = 3.96035 5.15298 4.59552
#
# Compressibility (1/GPa) = 0.10998106
#
# Stress axis : x y z
#
# Youngs Moduli (GPa) = 17.48082 17.48090 64.19557
#
# Poissons Ratio (x) = -0.29042 0.85436
# Poissons Ratio (y) = -0.29042 0.85436
# Poissons Ratio (z) = 0.23265 0.23265
#
# Static dielectric constant tensor:
#      x y z
#    x 1.608740 0.000000 0.000000 
#    y 0.000000 1.608740 0.000000 
#    z 0.000000 0.000000 1.603750 
# 
# From -- ./inp_files/6218.got.cif
#   From: 2010.05.17/outbox.cif.g08.bks.cpg/sg128_4_cif.got.tgz:6218.got - 2010.05.20 12:07:25.
