data_PCOD9564075
_publ_section_title
;
Structure prediction by ZEFSAII (Michael W. Deem and Ramdas Pophale) SiO2 
 PCOD9564075
Probable space group: P 4/M B M
;
_chemical_formula_sum "Si O2"
_cell_formula_units_Z 104
_cell_length_a 16.910879
_cell_length_b 16.910879
_cell_length_c 18.656291
_cell_angle_alpha 90.000000
_cell_angle_beta 90.000000
_cell_angle_gamma 90.000000
_cell_volume 5335.285589
_symmetry_space_group_name_H-M "P 4/M B M"
_symmetry_group_IT_number 127
_symmetry_cell_setting 'tetragonal'
loop_
_space_group_symop_operation_xyz
x,y,z
-y,x,z
-x,-y,z
y,-x,z
1/2+x,1/2-y,-z
1/2-x,1/2+y,-z
1/2+y,1/2+x,-z
1/2-y,1/2-x,-z
-x,-y,-z
y,-x,-z
x,y,-z
-y,x,-z
1/2-x,1/2+y,z
1/2+x,1/2-y,z
1/2-y,1/2-x,z
1/2+y,1/2+x,z
loop_
_atom_site_type_symbol
_atom_site_label
_atom_site_fract_x
_atom_site_fract_y
_atom_site_fract_z
Si Si1 0.944487 0.883431 0.347540
Si Si2 0.000459 0.632697 0.778789
Si Si3 0.065275 0.696900 0.078764
Si Si4 0.202561 0.828990 0.082738
Si Si5 0.885508 0.056600 0.175242
Si Si6 0.004631 0.630478 0.500000
Si Si7 0.928647 0.705157 0.363612
O O1 0.941060 0.880510 0.260871
O O2 0.913234 0.798458 0.371749
O O3 0.036629 0.897749 0.368598
O O4 0.079396 0.579396 0.763413
O O5 0.015454 0.684613 0.849446
O O6 0.930723 0.569278 0.791773
O O7 0.974031 0.684655 0.710584
O O8 0.116173 0.616173 0.074745
O O9 0.130721 0.765552 0.087335
O O10 0.026489 0.707432 0.000000
O O11 0.281731 0.781731 0.101387
O O12 0.183928 0.899598 0.135350
O O13 0.206274 0.853799 0.000000
O O14 0.966200 0.101745 0.154070
O O15 0.090135 0.590135 0.500000
O O16 0.940913 0.559088 0.500000
O O17 0.984823 0.678641 0.428731
O O18 0.850081 0.649920 0.365491
#
# Coordination Sequence:
#
# PCOD9564075 Si02
#       7
#    16  16  16  16  16   8  16
#     4   9  20  39  59  81 114 154 195 236 288 355
#     4   9  17  28  46  76 110 145 188 235 284 346
#     4   8  15  27  43  67 101 143 186 228 282 347
#     4   9  18  32  50  73 103 139 180 233 299 361
#     4   9  19  34  54  78 103 138 186 238 287 341
#     4   9  18  36  62  91 128 168 195 230 294 352
#     4  10  20  35  59  89 120 153 195 247 298 351
#
# _framework density 19.492864000000001
#
# number of rings (size 3 to 8) (size 9 to 14) (size 15 to 20)
#    0.000    3.000    0.000    2.308    4.308    3.385 
#    0.000    4.615    0.000    1.846    0.000    0.000 
#    0.000    0.000    0.000    0.000    0.000    0.000 
#
# Total GULP energy -580046.811283 kJ/mol
# GULP energy per Si atom -5577.373185 kJ/mol
# Density = 1.944850 g / cm^3
# Si number density = 19.492864 Si / 1000 Ang^3
#
#
#
# Elastic Constant Matrix: (Units=GPa)
#
#
# Indices 1 2 3 4 5 6 
#
# 1 62.9944 16.6812 35.8880 0.0000 0.0000 0.0000
# 2 16.6812 62.9944 35.8881 0.0000 0.0000 0.0000
# 3 35.8880 35.8881 77.3727 0.0000 0.0000 0.0000
# 4 0.0000 0.0000 0.0000 -8.8461 0.0000 0.0000
# 5 0.0000 0.0000 0.0000 0.0000 -8.8456 0.0000
# 6 0.0000 0.0000 0.0000 0.0000 0.0000 20.7023
#
#
#
# Elastic Compliance Matrix: (Units=1/GPa)
#
#
# Indices 1 2 3 4 5 6 
#
# 1 0.021576 -0.000016 -0.010000 0.000000 0.000000 0.000000
# 2 -0.000016 0.021576 -0.010000 0.000000 0.000000 0.000000
# 3 -0.010000 -0.010000 0.022201 0.000000 0.000000 0.000000
# 4 0.000000 0.000000 0.000000 -0.113044 0.000000 0.000000
# 5 0.000000 0.000000 0.000000 0.000000 -0.113051 0.000000
# 6 0.000000 0.000000 0.000000 0.000000 0.000000 0.048304
#
#
# Mechanical properties :
#
#
# Convention : Reuss Voigt Hill
#
# Bulk Modulus (GPa) = 39.49445 42.25291 40.87368
# Shear Modulus (GPa) = -78.16695 8.26239 -34.95228
#
# Velocity S-wave (km/s) = -6.33935 2.06104 -4.23907
# Velocity P-wave (km/s) = 5.76872 5.23326 1.71627
#
# Compressibility (1/GPa) = 0.02532001
#
# Stress axis : x y z
#
# Youngs Moduli (GPa) = 46.34836 46.34821 45.04275
#
# Poissons Ratio (x) = 0.00076 0.45043
# Poissons Ratio (y) = 0.00076 0.45043
# Poissons Ratio (z) = 0.46348 0.46348
#
# Static dielectric constant tensor:
#      x y z
#    x 1.691580 0.000000 0.000000 
#    y 0.000000 1.691580 0.000000 
#    z 0.000000 0.000000 1.667580 
# 
# From -- ./inp_files/5185.got.cif
#   From: 2010.05.17/outbox.cif.g08.bks.cpg/sg127_3_cif.got.tgz:5185.got - 2010.05.20 12:03:00.
