data_PCOD9564088
_publ_section_title
;
Structure prediction by ZEFSAII (Michael W. Deem and Ramdas Pophale) SiO2 
 PCOD9564088
Probable space group: P 4/M B M
;
_chemical_formula_sum "Si O2"
_cell_formula_units_Z 72
_cell_length_a 20.501878
_cell_length_b 20.501878
_cell_length_c 7.426294
_cell_angle_alpha 90.000000
_cell_angle_beta 90.000000
_cell_angle_gamma 90.000000
_cell_volume 3121.471889
_symmetry_space_group_name_H-M "P 4/M B M"
_symmetry_group_IT_number 127
_symmetry_cell_setting 'tetragonal'
loop_
_space_group_symop_operation_xyz
x,y,z
-y,x,z
-x,-y,z
y,-x,z
1/2+x,1/2-y,-z
1/2-x,1/2+y,-z
1/2+y,1/2+x,-z
1/2-y,1/2-x,-z
-x,-y,-z
y,-x,-z
x,y,-z
-y,x,-z
1/2-x,1/2+y,z
1/2+x,1/2-y,z
1/2-y,1/2-x,z
1/2+y,1/2+x,z
loop_
_atom_site_type_symbol
_atom_site_label
_atom_site_fract_x
_atom_site_fract_y
_atom_site_fract_z
Si Si1 0.053217 0.446784 0.720602
Si Si2 0.853081 0.353081 0.215080
Si Si3 0.002907 0.687000 0.295312
Si Si4 0.256318 0.756318 0.785115
Si Si5 0.846527 0.134832 0.778510
Si Si6 0.329218 0.509289 0.800650
O O1 0.052167 0.447834 0.500000
O O2 0.125037 0.465329 0.778933
O O3 0.000000 0.500000 0.778766
O O4 0.921634 0.332565 0.294744
O O5 0.798715 0.298715 0.244769
O O6 0.860440 0.360440 0.000000
O O7 0.981334 0.699527 0.500000
O O8 0.996921 0.752421 0.187376
O O9 0.217648 0.822542 0.720801
O O10 0.265759 0.765759 0.000000
O O11 0.851132 0.059382 0.716950
O O12 0.917426 0.164026 0.723961
O O13 0.843774 0.136229 0.000000
O O14 0.359691 0.512398 0.000000
#
# Coordination Sequence:
#
# PCOD9564088 Si02
#       6
#     8   8  16   8  16  16
#     4   9  18  33  50  72 108 149 177 210 271 334
#     4  11  19  32  57  82 109 141 183 228 273 332
#     4  11  21  35  55  79 109 145 186 228 275 333
#     4   9  16  30  53  81 110 141 172 225 288 329
#     4   9  18  32  54  81 111 144 183 228 281 334
#     4  10  20  36  56  81 109 144 187 234 284 334
#
# _framework density 23.066040999999998
#
# number of rings (size 3 to 8) (size 9 to 14) (size 15 to 20)
#    0.000    2.111    3.333    1.000    0.000    1.333 
#    0.000    7.222    0.000    0.000    0.000    1.556 
#    0.000    0.000    0.000    0.000    0.000    0.000 
#
# Total GULP energy -401382.699642 kJ/mol
# GULP energy per Si atom -5574.759717 kJ/mol
# Density = 2.301354 g / cm^3
# Si number density = 23.066041 Si / 1000 Ang^3
#
#
#
# Elastic Constant Matrix: (Units=GPa)
#
#
# Indices 1 2 3 4 5 6 
#
# 1 88.4399 45.8788 -0.1679 0.0000 0.0000 0.0000
# 2 45.8788 88.4397 -0.1678 0.0000 0.0000 0.0000
# 3 -0.1679 -0.1678 66.7225 0.0000 0.0000 0.0000
# 4 0.0000 0.0000 0.0000 18.2998 0.0000 0.0000
# 5 0.0000 0.0000 0.0000 0.0000 18.2999 0.0000
# 6 0.0000 0.0000 0.0000 0.0000 0.0000 35.1037
#
#
#
# Elastic Compliance Matrix: (Units=1/GPa)
#
#
# Indices 1 2 3 4 5 6 
#
# 1 0.015470 -0.008025 0.000019 0.000000 0.000000 0.000000
# 2 -0.008025 0.015470 0.000019 0.000000 0.000000 0.000000
# 3 0.000019 0.000019 0.014988 0.000000 0.000000 0.000000
# 4 0.000000 0.000000 0.000000 0.054645 0.000000 0.000000
# 5 0.000000 0.000000 0.000000 0.000000 0.054645 0.000000
# 6 0.000000 0.000000 0.000000 0.000000 0.000000 0.028487
#
#
# Mechanical properties :
#
#
# Convention : Reuss Voigt Hill
#
# Bulk Modulus (GPa) = 33.38618 37.18760 35.28689
# Shear Modulus (GPa) = 23.84748 27.54461 25.69605
#
# Velocity S-wave (km/s) = 3.21889 3.45941 3.34132
# Velocity P-wave (km/s) = 5.32171 5.66692 5.49702
#
# Compressibility (1/GPa) = 0.02995251
#
# Stress axis : x y z
#
# Youngs Moduli (GPa) = 64.63980 64.63965 66.72209
#
# Poissons Ratio (x) = 0.51875 -0.00125
# Poissons Ratio (y) = 0.51876 -0.00125
# Poissons Ratio (z) = -0.00121 -0.00121
#
# Static dielectric constant tensor:
#      x y z
#    x 1.874220 0.000000 0.000000 
#    y 0.000000 1.874220 0.000000 
#    z 0.000000 0.000000 1.921650 
# 
# From -- ./inp_files/1666.got.cif
#   From: 2010.05.17/outbox.cif.g08.bks.cpg/sg127_1_cif.got.tgz:1666.got - 2010.05.20 12:03:00.
