data_PCOD9564671
_publ_section_title
;
Structure prediction by ZEFSAII (Michael W. Deem and Ramdas Pophale) SiO2 
 PCOD9564671
Probable space group: P 4/M N C
;
_chemical_formula_sum "Si O2"
_cell_formula_units_Z 88
_cell_length_a 18.466932
_cell_length_b 18.466932
_cell_length_c 14.232125
_cell_angle_alpha 90.000000
_cell_angle_beta 90.000000
_cell_angle_gamma 90.000000
_cell_volume 4853.547111
_symmetry_space_group_name_H-M "P 4/M N C"
_symmetry_group_IT_number 128
_symmetry_cell_setting 'tetragonal'
loop_
_space_group_symop_operation_xyz
x,y,z
-y,x,z
-x,-y,z
y,-x,z
1/2+x,1/2-y,1/2-z
1/2-x,1/2+y,1/2-z
1/2+y,1/2+x,1/2-z
1/2-y,1/2-x,1/2-z
-x,-y,-z
y,-x,-z
x,y,-z
-y,x,-z
1/2-x,1/2+y,1/2+z
1/2+x,1/2-y,1/2+z
1/2-y,1/2-x,1/2+z
1/2+y,1/2+x,1/2+z
loop_
_atom_site_type_symbol
_atom_site_label
_atom_site_fract_x
_atom_site_fract_y
_atom_site_fract_z
Si Si1 0.327213 0.354228 0.756157
Si Si2 0.195809 0.018335 0.799068
Si Si3 0.878734 0.992468 0.000000
Si Si4 0.896388 0.583503 0.109122
Si Si5 0.475937 0.139368 0.729971
Si Si6 0.781458 0.712892 0.390212
O O1 0.313793 0.440462 0.750922
O O2 0.413092 0.341274 0.751347
O O3 0.288137 0.316625 0.665934
O O4 0.284267 0.315849 0.841786
O O5 0.280132 0.036047 0.803286
O O6 0.166031 0.010402 0.904421
O O7 0.934625 0.925946 0.000000
O O8 0.860501 0.523210 0.174716
O O9 0.849654 0.657115 0.119643
O O10 0.975174 0.597816 0.153216
O O11 0.899161 0.564224 0.000000
O O12 0.403307 0.096694 0.750000
O O13 0.766567 0.723683 0.500000
#
# Coordination Sequence:
#
# PCOD9564671 Si02
#       6
#    16  16   8  16  16  16
#     4  11  23  41  63  90 127 162 205 255 311 365
#     4  12  24  40  61  89 127 164 199 256 310 367
#     4  11  24  40  62  96 123 158 204 256 318 383
#     4  10  19  38  65  85 116 163 204 247 306 366
#     4  11  23  37  56  90 126 156 203 253 304 366
#     4  10  21  41  66  89 119 166 209 248 307 377
#
# _framework density 18.131069
#
# number of rings (size 3 to 8) (size 9 to 14) (size 15 to 20)
#    0.000    1.182    5.455    2.182    6.364    1.818 
#    0.000    1.818    0.000    0.000    0.000    1.273 
#    0.000    0.000    0.000    0.000    0.000    0.000 
#
# Total GULP energy -491628.485469 kJ/mol
# GULP energy per Si atom -5586.687335 kJ/mol
# Density = 1.808980 g / cm^3
# Si number density = 18.131069 Si / 1000 Ang^3
#
#
#
# Elastic Constant Matrix: (Units=GPa)
#
#
# Indices 1 2 3 4 5 6 
#
# 1 105.8877 14.8233 26.0287 0.0000 0.0000 0.0000
# 2 14.8233 105.8904 26.0273 0.0000 0.0000 0.0000
# 3 26.0287 26.0273 104.4915 0.0000 0.0000 0.0000
# 4 0.0000 0.0000 0.0000 14.3166 0.0000 0.0000
# 5 0.0000 0.0000 0.0000 0.0000 14.3183 0.0000
# 6 0.0000 0.0000 0.0000 0.0000 0.0000 29.4559
#
#
#
# Elastic Compliance Matrix: (Units=1/GPa)
#
#
# Indices 1 2 3 4 5 6 
#
# 1 0.010131 -0.000850 -0.002312 0.000000 0.000000 0.000000
# 2 -0.000850 0.010131 -0.002312 0.000000 0.000000 0.000000
# 3 -0.002312 -0.002312 0.010722 0.000000 0.000000 0.000000
# 4 0.000000 0.000000 0.000000 0.069849 0.000000 0.000000
# 5 0.000000 0.000000 0.000000 0.000000 0.069841 0.000000
# 6 0.000000 0.000000 0.000000 0.000000 0.000000 0.033949
#
#
# Mechanical properties :
#
#
# Convention : Reuss Voigt Hill
#
# Bulk Modulus (GPa) = 49.90837 50.00311 49.95574
# Shear Modulus (GPa) = 22.49726 28.24418 25.37072
#
# Velocity S-wave (km/s) = 3.52634 3.95115 3.74477
# Velocity P-wave (km/s) = 6.64577 6.96089 6.80516
#
# Compressibility (1/GPa) = 0.02003672
#
# Stress axis : x y z
#
# Youngs Moduli (GPa) = 98.70427 98.70767 93.26721
#
# Poissons Ratio (x) = 0.08390 0.21563
# Poissons Ratio (y) = 0.08390 0.21561
# Poissons Ratio (z) = 0.22820 0.22819
#
# Static dielectric constant tensor:
#      x y z
#    x 1.630260 0.000000 0.000000 
#    y 0.000000 1.630260 0.000000 
#    z 0.000000 0.000000 1.495770 
# 
# From -- ./inp_files/3873.got.cif
#   From: 2010.05.17/outbox.cif.g08.bks.cpg/sg128_2_cif.got.tgz:3873.got - 2010.05.20 12:07:25.
