data_PCOD9564343
_publ_section_title
;
Structure prediction by ZEFSAII (Michael W. Deem and Ramdas Pophale) SiO2 
 PCOD9564343
Probable space group: P 4/M B M
;
_chemical_formula_sum "Si O2"
_cell_formula_units_Z 108
_cell_length_a 15.565267
_cell_length_b 15.565267
_cell_length_c 22.968232
_cell_angle_alpha 90.000000
_cell_angle_beta 90.000000
_cell_angle_gamma 90.000000
_cell_volume 5564.686673
_symmetry_space_group_name_H-M "P 4/M B M"
_symmetry_group_IT_number 127
_symmetry_cell_setting 'tetragonal'
loop_
_space_group_symop_operation_xyz
x,y,z
-y,x,z
-x,-y,z
y,-x,z
1/2+x,1/2-y,-z
1/2-x,1/2+y,-z
1/2+y,1/2+x,-z
1/2-y,1/2-x,-z
-x,-y,-z
y,-x,-z
x,y,-z
-y,x,-z
1/2-x,1/2+y,z
1/2+x,1/2-y,z
1/2-y,1/2-x,z
1/2+y,1/2+x,z
loop_
_atom_site_type_symbol
_atom_site_label
_atom_site_fract_x
_atom_site_fract_y
_atom_site_fract_z
Si Si1 0.873746 0.839196 0.273823
Si Si2 0.504620 0.861554 0.000000
Si Si3 0.315758 0.668872 0.853403
Si Si4 0.166455 0.473374 0.753440
Si Si5 0.006102 0.261801 0.880619
Si Si6 0.512944 0.643223 0.568641
Si Si7 0.500000 0.500000 0.714697
Si Si8 0.774556 0.406646 0.349135
O O1 0.827141 0.861141 0.213235
O O2 0.908211 0.743784 0.263184
O O3 0.802716 0.849443 0.323060
O O4 0.953058 0.904228 0.283508
O O5 0.487004 0.812750 0.940269
O O6 0.439454 0.939454 0.000000
O O7 0.600954 0.899047 0.000000
O O8 0.242696 0.742696 0.857857
O O9 0.407739 0.706027 0.872512
O O10 0.290925 0.582048 0.885909
O O11 0.077342 0.422659 0.748745
O O12 0.181915 0.500107 0.820901
O O13 0.180602 0.546379 0.705415
O O14 0.426113 0.589210 0.580164
O O15 0.514724 0.663383 0.500000
O O16 0.527398 0.726550 0.607833
O O17 0.844778 0.344778 0.378115
#
# Coordination Sequence:
#
# PCOD9564343 Si02
#       8
#    16   8  16  16  16  16   4  16
#     4  11  20  35  56  88 122 152 200 250 313 373
#     4  11  24  42  64  89 118 164 226 269 306 379
#     4  11  22  39  62  89 127 162 200 257 319 380
#     4  11  23  39  59  86 124 166 204 254 313 368
#     4  11  23  41  64  91 124 163 208 262 325 380
#     4   9  20  39  64  92 122 157 199 252 309 364
#     4  12  20  32  56  88 117 157 184 252 316 370
#     4  12  23  35  57  88 124 163 205 253 297 358
#
# _framework density 19.408102
#
# number of rings (size 3 to 8) (size 9 to 14) (size 15 to 20)
#    0.000    1.111    2.963    6.222    0.000    2.074 
#    0.000    1.481    0.000    2.222    0.000    1.037 
#    0.000    0.000    0.000    0.000    0.000    0.000 
#
# Total GULP energy -602217.688340 kJ/mol
# GULP energy per Si atom -5576.089707 kJ/mol
# Density = 1.936393 g / cm^3
# Si number density = 19.408102 Si / 1000 Ang^3
#
#
#
# Elastic Constant Matrix: (Units=GPa)
#
#
# Indices 1 2 3 4 5 6 
#
# 1 61.1259 38.4577 42.6607 0.0000 0.0000 0.0000
# 2 38.4577 61.1269 42.6612 0.0000 0.0000 0.0000
# 3 42.6607 42.6612 112.1985 0.0000 0.0000 0.0000
# 4 0.0000 0.0000 0.0000 21.6859 0.0000 0.0000
# 5 0.0000 0.0000 0.0000 0.0000 21.6878 0.0000
# 6 0.0000 0.0000 0.0000 0.0000 0.0000 36.2265
#
#
#
# Elastic Compliance Matrix: (Units=1/GPa)
#
#
# Indices 1 2 3 4 5 6 
#
# 1 0.029504 -0.014610 -0.005663 0.000000 0.000000 0.000000
# 2 -0.014610 0.029503 -0.005663 0.000000 0.000000 0.000000
# 3 -0.005663 -0.005663 0.013219 0.000000 0.000000 0.000000
# 4 0.000000 0.000000 0.000000 0.046113 0.000000 0.000000
# 5 0.000000 0.000000 0.000000 0.000000 0.046109 0.000000
# 6 0.000000 0.000000 0.000000 0.000000 0.000000 0.027604
#
#
# Mechanical properties :
#
#
# Convention : Reuss Voigt Hill
#
# Bulk Modulus (GPa) = 49.12875 53.55670 51.34272
# Shear Modulus (GPa) = 19.94343 23.29817 21.62080
#
# Velocity S-wave (km/s) = 3.20907 3.46849 3.34130
# Velocity P-wave (km/s) = 6.25295 6.61026 6.43408
#
# Compressibility (1/GPa) = 0.02035468
#
# Stress axis : x y z
#
# Youngs Moduli (GPa) = 33.89387 33.89429 75.64741
#
# Poissons Ratio (x) = 0.49519 0.42839
# Poissons Ratio (y) = 0.49519 0.42839
# Poissons Ratio (z) = 0.19194 0.19194
#
# Static dielectric constant tensor:
#      x y z
#    x 1.708110 0.000000 0.000000 
#    y 0.000000 1.708110 0.000000 
#    z 0.000000 0.000000 1.695660 
# 
# From -- ./inp_files/6226.got.cif
#   From: 2010.05.17/outbox.cif.g08.bks.cpg/sg127_4_cif.got.tgz:6226.got - 2010.05.20 12:03:00.
