data_PCOD9564720
_publ_section_title
;
Structure prediction by ZEFSAII (Michael W. Deem and Ramdas Pophale) SiO2 
 PCOD9564720
Probable space group: P 4/M N C
;
_chemical_formula_sum "Si O2"
_cell_formula_units_Z 80
_cell_length_a 10.549810
_cell_length_b 10.549810
_cell_length_c 32.275512
_cell_angle_alpha 90.000000
_cell_angle_beta 90.000000
_cell_angle_gamma 90.000000
_cell_volume 3592.215783
_symmetry_space_group_name_H-M "P 4/M N C"
_symmetry_group_IT_number 128
_symmetry_cell_setting 'tetragonal'
loop_
_space_group_symop_operation_xyz
x,y,z
-y,x,z
-x,-y,z
y,-x,z
1/2+x,1/2-y,1/2-z
1/2-x,1/2+y,1/2-z
1/2+y,1/2+x,1/2-z
1/2-y,1/2-x,1/2-z
-x,-y,-z
y,-x,-z
x,y,-z
-y,x,-z
1/2-x,1/2+y,1/2+z
1/2+x,1/2-y,1/2+z
1/2-y,1/2-x,1/2+z
1/2+y,1/2+x,1/2+z
loop_
_atom_site_type_symbol
_atom_site_label
_atom_site_fract_x
_atom_site_fract_y
_atom_site_fract_z
Si Si1 0.820277 0.895786 0.650795
Si Si2 0.626507 0.924593 0.201707
Si Si3 0.163691 0.642750 0.928698
Si Si4 0.131699 0.834812 0.000000
Si Si5 0.992023 0.217370 0.500000
Si Si6 0.505872 0.711517 0.368786
O O1 0.711465 0.852874 0.681183
O O2 0.774945 0.868970 0.604534
O O3 0.954702 0.833588 0.657626
O O4 0.604851 0.895150 0.250000
O O5 0.738744 0.001093 0.178714
O O6 0.500000 0.000000 0.188509
O O7 0.174700 0.761834 0.959278
O O8 0.038167 0.672094 0.900411
O O9 0.189795 0.525773 0.960233
O O10 0.979409 0.828682 0.000000
O O11 0.115142 0.126245 0.500000
O O12 0.382815 0.625637 0.375739
#
# Coordination Sequence:
#
# PCOD9564720 Si02
#       6
#    16  16  16   8   8  16
#     4  10  22  41  65  92 123 168 216 259 315 387
#     4  10  24  42  64  95 130 163 202 263 324 379
#     4  10  20  34  60  89 121 162 213 270 311 364
#     4  10  20  36  58  86 124 170 220 269 321 380
#     4  10  20  36  58  86 124 170 220 269 321 380
#     4  10  22  41  65  92 123 168 216 259 315 387
#
# _framework density 22.270375000000001
#
# number of rings (size 3 to 8) (size 9 to 14) (size 15 to 20)
#    0.000    2.000    0.000    2.400    5.600    4.800 
#    0.000    2.000    0.000    7.200    0.000    0.000 
#    0.000    0.000    0.000    0.000    0.000    0.000 
#
# Total GULP energy -446122.150547 kJ/mol
# GULP energy per Si atom -5576.526882 kJ/mol
# Density = 2.221969 g / cm^3
# Si number density = 22.270375 Si / 1000 Ang^3
#
#
#
# Elastic Constant Matrix: (Units=GPa)
#
#
# Indices 1 2 3 4 5 6 
#
# 1 89.2316 -19.2708 17.6316 0.0000 0.0000 0.0000
# 2 -19.2708 89.2317 17.6311 0.0000 0.0000 0.0000
# 3 17.6316 17.6311 107.8024 0.0000 0.0000 0.0000
# 4 0.0000 0.0000 0.0000 40.7647 0.0000 0.0000
# 5 0.0000 0.0000 0.0000 0.0000 40.7639 0.0000
# 6 0.0000 0.0000 0.0000 0.0000 0.0000 114.8183
#
#
#
# Elastic Compliance Matrix: (Units=1/GPa)
#
#
# Indices 1 2 3 4 5 6 
#
# 1 0.012397 0.003181 -0.002548 0.000000 0.000000 0.000000
# 2 0.003181 0.012397 -0.002548 0.000000 0.000000 0.000000
# 3 -0.002548 -0.002548 0.010110 0.000000 0.000000 0.000000
# 4 0.000000 0.000000 0.000000 0.024531 0.000000 0.000000
# 5 0.000000 0.000000 0.000000 0.000000 0.024532 0.000000
# 6 0.000000 0.000000 0.000000 0.000000 0.000000 0.008709
#
#
# Mechanical properties :
#
#
# Convention : Reuss Voigt Hill
#
# Bulk Modulus (GPa) = 32.18102 35.36104 33.77103
# Shear Modulus (GPa) = 46.78860 57.28764 52.03812
#
# Velocity S-wave (km/s) = 4.58857 5.07736 4.83914
# Velocity P-wave (km/s) = 6.52340 7.09121 6.81322
#
# Compressibility (1/GPa) = 0.03107422
#
# Stress axis : x y z
#
# Youngs Moduli (GPa) = 80.66363 80.66387 98.91561
#
# Poissons Ratio (x) = -0.25657 0.25202
# Poissons Ratio (y) = -0.25657 0.25202
# Poissons Ratio (z) = 0.20552 0.20551
#
# Static dielectric constant tensor:
#      x y z
#    x 1.828930 0.000000 0.000000 
#    y 0.000000 1.828930 0.000000 
#    z 0.000000 0.000000 1.871380 
# 
# From -- ./inp_files/7203.got.cif
#   From: 2010.05.17/outbox.cif.g08.bks.cpg/sg128_4_cif.got.tgz:7203.got - 2010.05.20 12:07:25.
