data_PCOD9564108
_publ_section_title
;
Structure prediction by ZEFSAII (Michael W. Deem and Ramdas Pophale) SiO2 
 PCOD9564108
Probable space group: P 4/M B M
;
_chemical_formula_sum "Si O2"
_cell_formula_units_Z 96
_cell_length_a 24.462975
_cell_length_b 24.462975
_cell_length_c 9.011310
_cell_angle_alpha 90.000000
_cell_angle_beta 90.000000
_cell_angle_gamma 90.000000
_cell_volume 5392.702637
_symmetry_space_group_name_H-M "P 4/M B M"
_symmetry_group_IT_number 127
_symmetry_cell_setting 'tetragonal'
loop_
_space_group_symop_operation_xyz
x,y,z
-y,x,z
-x,-y,z
y,-x,z
1/2+x,1/2-y,-z
1/2-x,1/2+y,-z
1/2+y,1/2+x,-z
1/2-y,1/2-x,-z
-x,-y,-z
y,-x,-z
x,y,-z
-y,x,-z
1/2-x,1/2+y,z
1/2+x,1/2-y,z
1/2-y,1/2-x,z
1/2+y,1/2+x,z
loop_
_atom_site_type_symbol
_atom_site_label
_atom_site_fract_x
_atom_site_fract_y
_atom_site_fract_z
Si Si1 0.296797 0.491690 0.675844
Si Si2 0.674386 0.825615 0.819583
Si Si3 0.236151 0.263850 0.821969
Si Si4 0.409700 0.508007 0.175069
Si Si5 0.306145 0.049564 0.822006
Si Si6 0.880750 0.742025 0.323471
Si Si7 0.865887 0.547552 0.321918
O O1 0.288592 0.498219 0.500000
O O2 0.356063 0.510054 0.727132
O O3 0.250495 0.525415 0.760909
O O4 0.286725 0.427411 0.709613
O O5 0.719103 0.780898 0.770923
O O6 0.687706 0.887602 0.774055
O O7 0.675259 0.824742 0.000000
O O8 0.249485 0.324466 0.762239
O O9 0.235621 0.264380 0.000000
O O10 0.443092 0.452167 0.203063
O O11 0.395468 0.509195 0.000000
O O12 0.352490 0.009179 0.757526
O O13 0.307153 0.047224 0.000000
O O14 0.869518 0.741901 0.500000
O O15 0.910440 0.684153 0.288503
O O16 0.865106 0.539571 0.500000
O O17 0.921722 0.578279 0.280652
#
# Coordination Sequence:
#
# PCOD9564108 Si02
#       7
#    16   8   8  16  16  16  16
#     4  10  21  36  55  81 112 144 180 223 276 331
#     4   9  22  41  54  72 109 150 181 223 274 314
#     4  11  21  33  53  78 104 138 183 226 266 320
#     4   9  19  36  56  78 106 141 181 226 274 321
#     4  10  20  37  58  77 103 142 186 224 266 322
#     4   9  18  34  51  74 109 142 168 210 272 323
#     4   9  17  33  56  80 110 139 164 212 277 325
#
# _framework density 17.801833999999999
#
# number of rings (size 3 to 8) (size 9 to 14) (size 15 to 20)
#    0.000    2.500    0.833    2.750    0.000    5.667 
#    0.000   11.250    0.000    2.500    0.000    0.000 
#    0.000    0.000    0.000    0.000    0.000    0.000 
#
# Total GULP energy -535519.584292 kJ/mol
# GULP energy per Si atom -5578.329003 kJ/mol
# Density = 1.776132 g / cm^3
# Si number density = 17.801834 Si / 1000 Ang^3
#
#
#
# Elastic Constant Matrix: (Units=GPa)
#
#
# Indices 1 2 3 4 5 6 
#
# 1 95.8143 46.4055 40.0795 0.0000 0.0000 0.0000
# 2 46.4055 95.8148 40.0796 0.0000 0.0000 0.0000
# 3 40.0795 40.0796 42.6879 0.0000 0.0000 0.0000
# 4 0.0000 0.0000 0.0000 17.1524 0.0000 0.0000
# 5 0.0000 0.0000 0.0000 0.0000 17.1526 0.0000
# 6 0.0000 0.0000 0.0000 0.0000 0.0000 15.2222
#
#
#
# Elastic Compliance Matrix: (Units=1/GPa)
#
#
# Indices 1 2 3 4 5 6 
#
# 1 0.017587 -0.002652 -0.014022 0.000000 0.000000 0.000000
# 2 -0.002652 0.017587 -0.014022 0.000000 0.000000 0.000000
# 3 -0.014022 -0.014022 0.049756 0.000000 0.000000 0.000000
# 4 0.000000 0.000000 0.000000 0.058301 0.000000 0.000000
# 5 0.000000 0.000000 0.000000 0.000000 0.058300 0.000000
# 6 0.000000 0.000000 0.000000 0.000000 0.000000 0.065694
#
#
# Mechanical properties :
#
#
# Convention : Reuss Voigt Hill
#
# Bulk Modulus (GPa) = 42.48561 54.16067 48.32314
# Shear Modulus (GPa) = 14.86046 17.08892 15.97469
#
# Velocity S-wave (km/s) = 2.89238 3.10167 2.99885
# Velocity P-wave (km/s) = 5.92217 6.58160 6.26057
#
# Compressibility (1/GPa) = 0.02353738
#
# Stress axis : x y z
#
# Youngs Moduli (GPa) = 56.86038 56.86076 20.09793
#
# Poissons Ratio (x) = 0.15081 0.28181
# Poissons Ratio (y) = 0.15081 0.28181
# Poissons Ratio (z) = 0.79730 0.79730
#
# Static dielectric constant tensor:
#      x y z
#    x 1.600680 0.000000 0.000000 
#    y 0.000000 1.600680 0.000000 
#    z 0.000000 0.000000 1.595290 
# 
# From -- ./inp_files/2082.got.cif
#   From: 2010.05.17/outbox.cif.g08.bks.cpg/sg127_2_cif.got.tgz:2082.got - 2010.05.20 12:03:00.
