data_PCOD9564082
_publ_section_title
;
Structure prediction by ZEFSAII (Michael W. Deem and Ramdas Pophale) SiO2 
 PCOD9564082
Probable space group: P 4/M B M
;
_chemical_formula_sum "Si O2"
_cell_formula_units_Z 96
_cell_length_a 15.302675
_cell_length_b 15.302675
_cell_length_c 22.854282
_cell_angle_alpha 90.000000
_cell_angle_beta 90.000000
_cell_angle_gamma 90.000000
_cell_volume 5351.829774
_symmetry_space_group_name_H-M "P 4/M B M"
_symmetry_group_IT_number 127
_symmetry_cell_setting 'tetragonal'
loop_
_space_group_symop_operation_xyz
x,y,z
-y,x,z
-x,-y,z
y,-x,z
1/2+x,1/2-y,-z
1/2-x,1/2+y,-z
1/2+y,1/2+x,-z
1/2-y,1/2-x,-z
-x,-y,-z
y,-x,-z
x,y,-z
-y,x,-z
1/2-x,1/2+y,z
1/2+x,1/2-y,z
1/2-y,1/2-x,z
1/2+y,1/2+x,z
loop_
_atom_site_type_symbol
_atom_site_label
_atom_site_fract_x
_atom_site_fract_y
_atom_site_fract_z
Si Si1 0.184876 0.829767 0.830354
Si Si2 0.074616 0.574616 0.066977
Si Si3 0.574919 0.626837 0.062782
Si Si4 0.330126 0.977174 0.833159
Si Si5 0.024031 0.853277 0.370820
Si Si6 0.145662 0.023721 0.500000
Si Si7 0.097406 0.739628 0.730289
O O1 0.245840 0.745840 0.838111
O O2 0.112156 0.829268 0.880010
O O3 0.246942 0.913283 0.837255
O O4 0.141318 0.818990 0.767116
O O5 0.149369 0.530683 0.107415
O O6 0.000000 0.500000 0.062297
O O7 0.098461 0.598461 0.000000
O O8 0.471255 0.614273 0.063866
O O9 0.599677 0.667291 0.000000
O O10 0.414173 0.914173 0.823289
O O11 0.312056 0.039833 0.778321
O O12 0.030687 0.811867 0.436136
O O13 0.041727 0.781717 0.321477
O O14 0.930913 0.903310 0.365758
O O15 0.068950 0.095778 0.500000
O O16 0.174210 0.674210 0.709892
#
# Coordination Sequence:
#
# PCOD9564082 Si02
#       7
#    16   8  16  16  16   8  16
#     4  10  21  33  49  70  98 126 155 207 262 303
#     4   9  18  34  56  74  86 117 175 224 250 295
#     4   9  18  33  51  67  86 118 157 192 235 304
#     4  10  20  36  54  73  98 133 174 213 257 310
#     4   9  17  31  53  79 105 138 175 211 251 301
#     4   7  12  26  49  76 104 133 173 215 246 285
#     4  11  21  33  49  74 108 135 167 210 260 312
#
# _framework density 17.937791000000001
#
# number of rings (size 3 to 8) (size 9 to 14) (size 15 to 20)
#    0.000    2.500    0.833    3.500    0.000    1.000 
#    0.000    4.583    0.000    0.000    0.000    1.750 
#    0.000    1.333    0.000    0.000    0.000    0.000 
#
# Total GULP energy -535185.143311 kJ/mol
# GULP energy per Si atom -5574.845243 kJ/mol
# Density = 1.789696 g / cm^3
# Si number density = 17.937791 Si / 1000 Ang^3
#
#
#
# Elastic Constant Matrix: (Units=GPa)
#
#
# Indices 1 2 3 4 5 6 
#
# 1 43.6288 17.4840 33.7307 0.0000 0.0000 0.0000
# 2 17.4840 43.6288 33.7307 0.0000 0.0000 0.0000
# 3 33.7307 33.7307 131.4482 0.0000 0.0000 0.0000
# 4 0.0000 0.0000 0.0000 20.2731 0.0000 0.0000
# 5 0.0000 0.0000 0.0000 0.0000 20.2731 0.0000
# 6 0.0000 0.0000 0.0000 0.0000 0.0000 21.6703
#
#
#
# Elastic Compliance Matrix: (Units=1/GPa)
#
#
# Indices 1 2 3 4 5 6 
#
# 1 0.030539 -0.007709 -0.005858 0.000000 0.000000 0.000000
# 2 -0.007709 0.030539 -0.005858 0.000000 0.000000 0.000000
# 3 -0.005858 -0.005858 0.010614 0.000000 0.000000 0.000000
# 4 0.000000 0.000000 0.000000 0.049326 0.000000 0.000000
# 5 0.000000 0.000000 0.000000 0.000000 0.049326 0.000000
# 6 0.000000 0.000000 0.000000 0.000000 0.000000 0.046146
#
#
# Mechanical properties :
#
#
# Convention : Reuss Voigt Hill
#
# Bulk Modulus (GPa) = 30.44985 43.17741 36.81363
# Shear Modulus (GPa) = 18.77646 21.36067 20.06857
#
# Velocity S-wave (km/s) = 3.23887 3.45457 3.34846
# Velocity P-wave (km/s) = 5.56769 6.32732 5.95962
#
# Compressibility (1/GPa) = 0.03284089
#
# Stress axis : x y z
#
# Youngs Moduli (GPa) = 32.74461 32.74461 94.21346
#
# Poissons Ratio (x) = 0.25243 0.55194
# Poissons Ratio (y) = 0.25243 0.55194
# Poissons Ratio (z) = 0.19183 0.19183
#
# Static dielectric constant tensor:
#      x y z
#    x 1.630410 0.000000 0.000000 
#    y 0.000000 1.630410 0.000000 
#    z 0.000000 0.000000 1.634070 
# 
# From -- ./inp_files/5838.got.cif
#   From: 2010.05.17/outbox.cif.g08.bks.cpg/sg127_3_cif.got.tgz:5838.got - 2010.05.20 12:03:00.
