data_PCOD9564731
_publ_section_title
;
Structure prediction by ZEFSAII (Michael W. Deem and Ramdas Pophale) SiO2 
 PCOD9564731
Probable space group: P 4/M N C
;
_chemical_formula_sum "Si O2"
_cell_formula_units_Z 96
_cell_length_a 24.548254
_cell_length_b 24.548254
_cell_length_c 8.542603
_cell_angle_alpha 90.000000
_cell_angle_beta 90.000000
_cell_angle_gamma 90.000000
_cell_volume 5147.915865
_symmetry_space_group_name_H-M "P 4/M N C"
_symmetry_group_IT_number 128
_symmetry_cell_setting 'tetragonal'
loop_
_space_group_symop_operation_xyz
x,y,z
-y,x,z
-x,-y,z
y,-x,z
1/2+x,1/2-y,1/2-z
1/2-x,1/2+y,1/2-z
1/2+y,1/2+x,1/2-z
1/2-y,1/2-x,1/2-z
-x,-y,-z
y,-x,-z
x,y,-z
-y,x,-z
1/2-x,1/2+y,1/2+z
1/2+x,1/2-y,1/2+z
1/2-y,1/2-x,1/2+z
1/2+y,1/2+x,1/2+z
loop_
_atom_site_type_symbol
_atom_site_label
_atom_site_fract_x
_atom_site_fract_y
_atom_site_fract_z
Si Si1 0.307541 0.276079 0.687586
Si Si2 0.468772 0.417659 0.809334
Si Si3 0.499472 0.914832 0.687811
Si Si4 0.781396 0.635383 0.688546
Si Si5 0.789441 0.511391 0.310545
Si Si6 0.299522 0.572581 0.812431
O O1 0.278289 0.221712 0.750000
O O2 0.307900 0.274518 0.500000
O O3 0.268750 0.326358 0.739275
O O4 0.367894 0.285082 0.749159
O O5 0.530778 0.431667 0.760935
O O6 0.447017 0.359309 0.755762
O O7 0.468650 0.417165 0.000000
O O8 0.550583 0.949418 0.750000
O O9 0.498787 0.917555 0.500000
O O10 0.501165 0.851805 0.735470
O O11 0.445884 0.945884 0.750000
O O12 0.835957 0.664044 0.750000
O O13 0.783179 0.635936 0.500000
O O14 0.776418 0.573201 0.739706
O O15 0.786697 0.508913 0.500000
O O16 0.746285 0.469698 0.241550
O O17 0.300953 0.574446 0.000000
#
# Coordination Sequence:
#
# PCOD9564731 Si02
#       6
#    16  16  16  16  16  16
#     4  10  21  39  60  81 110 147 185 231 281 339
#     4   8  16  33  55  80 112 147 185 233 285 335
#     4  10  20  35  57  81 109 145 182 225 273 325
#     4   9  19  36  59  84 109 144 185 231 287 336
#     4  10  22  38  54  79 115 150 184 227 280 331
#     4  11  23  35  56  87 114 150 192 233 283 335
#
# _framework density 18.648323999999999
#
# number of rings (size 3 to 8) (size 9 to 14) (size 15 to 20)
#    0.000    2.333    0.000    3.000    2.333    3.333 
#    0.000    1.667    0.000    0.000    0.000    4.667 
#    0.000    0.000    0.000    0.000    0.000    0.000 
#
# Total GULP energy -535977.695075 kJ/mol
# GULP energy per Si atom -5583.100990 kJ/mol
# Density = 1.860588 g / cm^3
# Si number density = 18.648324 Si / 1000 Ang^3
#
#
#
# Elastic Constant Matrix: (Units=GPa)
#
#
# Indices 1 2 3 4 5 6 
#
# 1 185.8068 108.1112 34.7907 0.0000 0.0000 0.0000
# 2 108.1112 185.8282 34.7808 0.0000 0.0000 0.0000
# 3 34.7907 34.7808 26.5569 0.0000 0.0000 0.0000
# 4 0.0000 0.0000 0.0000 23.3122 0.0000 0.0000
# 5 0.0000 0.0000 0.0000 0.0000 23.3110 0.0000
# 6 0.0000 0.0000 0.0000 0.0000 0.0000 17.9449
#
#
#
# Elastic Compliance Matrix: (Units=1/GPa)
#
#
# Indices 1 2 3 4 5 6 
#
# 1 0.008901 -0.003969 -0.006463 0.000000 0.000000 0.000000
# 2 -0.003969 0.008898 -0.006454 0.000000 0.000000 0.000000
# 3 -0.006463 -0.006454 0.054575 0.000000 0.000000 0.000000
# 4 0.000000 0.000000 0.000000 0.042896 0.000000 0.000000
# 5 0.000000 0.000000 0.000000 0.000000 0.042898 0.000000
# 6 0.000000 0.000000 0.000000 0.000000 0.000000 0.055726
#
#
# Mechanical properties :
#
#
# Convention : Reuss Voigt Hill
#
# Bulk Modulus (GPa) = 25.90552 83.72860 54.81706
# Shear Modulus (GPa) = 19.19119 27.61424 23.40271
#
# Velocity S-wave (km/s) = 3.21146 3.85228 3.54637
# Velocity P-wave (km/s) = 5.26052 8.04878 6.79912
#
# Compressibility (1/GPa) = 0.03860180
#
# Stress axis : x y z
#
# Youngs Moduli (GPa) = 112.34099 112.37890 18.32332
#
# Poissons Ratio (x) = 0.44603 0.11843
# Poissons Ratio (y) = 0.44588 0.11827
# Poissons Ratio (z) = 0.72608 0.72535
#
# Static dielectric constant tensor:
#      x y z
#    x 1.625850 0.000000 0.000000 
#    y 0.000000 1.625850 0.000000 
#    z 0.000000 0.000000 1.640800 
# 
# From -- ./inp_files/1422.got.cif
#   From: 2010.05.17/outbox.cif.g08.bks.cpg/sg128_1_cif.got.tgz:1422.got - 2010.05.20 12:07:25.
