data_PCOD9564527
_publ_section_title
;
Structure prediction by ZEFSAII (Michael W. Deem and Ramdas Pophale) SiO2 
 PCOD9564527
Probable space group: P 4/M N C
;
_chemical_formula_sum "Si O2"
_cell_formula_units_Z 96
_cell_length_a 27.717050
_cell_length_b 27.717050
_cell_length_c 8.763981
_cell_angle_alpha 90.000000
_cell_angle_beta 90.000000
_cell_angle_gamma 90.000000
_cell_volume 6732.795723
_symmetry_space_group_name_H-M "P 4/M N C"
_symmetry_group_IT_number 128
_symmetry_cell_setting 'tetragonal'
loop_
_space_group_symop_operation_xyz
x,y,z
-y,x,z
-x,-y,z
y,-x,z
1/2+x,1/2-y,1/2-z
1/2-x,1/2+y,1/2-z
1/2+y,1/2+x,1/2-z
1/2-y,1/2-x,1/2-z
-x,-y,-z
y,-x,-z
x,y,-z
-y,x,-z
1/2-x,1/2+y,1/2+z
1/2+x,1/2-y,1/2+z
1/2-y,1/2-x,1/2+z
1/2+y,1/2+x,1/2+z
loop_
_atom_site_type_symbol
_atom_site_label
_atom_site_fract_x
_atom_site_fract_y
_atom_site_fract_z
Si Si1 0.340370 0.374855 0.316717
Si Si2 0.919800 0.993679 0.832233
Si Si3 0.423888 0.297129 0.317394
Si Si4 0.269615 0.300330 0.817658
Si Si5 0.777229 0.345046 0.316707
Si Si6 0.831345 0.019064 0.325966
O O1 0.339633 0.373958 0.500000
O O2 0.387520 0.341898 0.270874
O O3 0.292709 0.348708 0.250612
O O4 0.338413 0.429916 0.259485
O O5 0.883433 0.993952 0.694705
O O6 0.950588 0.042447 0.827835
O O7 0.895156 0.991556 0.000000
O O8 0.427395 0.300468 0.500000
O O9 0.396506 0.246881 0.282054
O O10 0.477130 0.298647 0.246843
O O11 0.219084 0.280917 0.750000
O O12 0.308506 0.260640 0.761554
O O13 0.267511 0.301954 0.000000
O O14 0.828779 0.328779 0.250000
O O15 0.776532 0.338196 0.500000
O O16 0.818567 0.028115 0.500000
#
# Coordination Sequence:
#
# PCOD9564527 Si02
#       6
#    16  16  16  16  16  16
#     4  10  20  34  48  60  78 106 139 172 208 249
#     4   9  18  32  46  55  66  92 129 166 206 250
#     4   9  19  33  46  59  77 106 138 166 203 251
#     4  10  17  27  44  65  86 104 127 160 200 243
#     4   9  16  27  44  64  83 104 130 161 201 244
#     4  12  23  30  40  59  80 102 130 168 210 246
#
# _framework density 14.258564
#
# number of rings (size 3 to 8) (size 9 to 14) (size 15 to 20)
#    0.000    2.167    0.000    7.500    0.000    8.667 
#    0.000    0.833    0.000    0.000    0.000    0.000 
#    0.000    0.000    0.000    0.000    0.000    0.833 
#
# Total GULP energy -534467.229281 kJ/mol
# GULP energy per Si atom -5567.366972 kJ/mol
# Density = 1.422611 g / cm^3
# Si number density = 14.258564 Si / 1000 Ang^3
#
#
#
# Elastic Constant Matrix: (Units=GPa)
#
#
# Indices 1 2 3 4 5 6 
#
# 1 35.0332 18.8475 15.5944 0.0000 0.0000 0.0000
# 2 18.8475 35.0320 15.5944 0.0000 0.0000 0.0000
# 3 15.5944 15.5944 65.9134 0.0000 0.0000 0.0000
# 4 0.0000 0.0000 0.0000 19.8526 0.0000 0.0000
# 5 0.0000 0.0000 0.0000 0.0000 19.8531 0.0000
# 6 0.0000 0.0000 0.0000 0.0000 0.0000 7.5616
#
#
#
# Elastic Compliance Matrix: (Units=1/GPa)
#
#
# Indices 1 2 3 4 5 6 
#
# 1 0.041644 -0.020140 -0.005088 0.000000 0.000000 0.000000
# 2 -0.020140 0.041646 -0.005088 0.000000 0.000000 0.000000
# 3 -0.005088 -0.005088 0.017579 0.000000 0.000000 0.000000
# 4 0.000000 0.000000 0.000000 0.050371 0.000000 0.000000
# 5 0.000000 0.000000 0.000000 0.000000 0.050370 0.000000
# 6 0.000000 0.000000 0.000000 0.000000 0.000000 0.132248
#
#
# Mechanical properties :
#
#
# Convention : Reuss Voigt Hill
#
# Bulk Modulus (GPa) = 24.85259 26.22793 25.54026
# Shear Modulus (GPa) = 12.25784 15.18294 13.72039
#
# Velocity S-wave (km/s) = 2.93522 3.26671 3.10539
# Velocity P-wave (km/s) = 5.38099 5.71515 5.55059
#
# Compressibility (1/GPa) = 0.04023726
#
# Stress axis : x y z
#
# Youngs Moduli (GPa) = 24.01290 24.01198 56.88649
#
# Poissons Ratio (x) = 0.48361 0.28942
# Poissons Ratio (y) = 0.48363 0.28944
# Poissons Ratio (z) = 0.12217 0.12217
#
# Static dielectric constant tensor:
#      x y z
#    x 1.508120 0.000000 0.000000 
#    y 0.000000 1.508120 0.000000 
#    z 0.000000 0.000000 1.496010 
# 
# From -- ./inp_files/1616.got.cif
#   From: 2010.05.17/outbox.cif.g08.bks.cpg/sg128_1_cif.got.tgz:1616.got - 2010.05.20 12:07:25.
