data_PCOD9564829
_publ_section_title
;
Structure prediction by ZEFSAII (Michael W. Deem and Ramdas Pophale) SiO2 
 PCOD9564829
Probable space group: P 4/M N C
;
_chemical_formula_sum "Si O2"
_cell_formula_units_Z 88
_cell_length_a 16.121774
_cell_length_b 16.121774
_cell_length_c 16.009202
_cell_angle_alpha 90.000000
_cell_angle_beta 90.000000
_cell_angle_gamma 90.000000
_cell_volume 4160.977257
_symmetry_space_group_name_H-M "P 4/M N C"
_symmetry_group_IT_number 128
_symmetry_cell_setting 'tetragonal'
loop_
_space_group_symop_operation_xyz
x,y,z
-y,x,z
-x,-y,z
y,-x,z
1/2+x,1/2-y,1/2-z
1/2-x,1/2+y,1/2-z
1/2+y,1/2+x,1/2-z
1/2-y,1/2-x,1/2-z
-x,-y,-z
y,-x,-z
x,y,-z
-y,x,-z
1/2-x,1/2+y,1/2+z
1/2+x,1/2-y,1/2+z
1/2-y,1/2-x,1/2+z
1/2+y,1/2+x,1/2+z
loop_
_atom_site_type_symbol
_atom_site_label
_atom_site_fract_x
_atom_site_fract_y
_atom_site_fract_z
Si Si1 0.720338 0.820431 0.338198
Si Si2 0.934573 0.821668 0.797723
Si Si3 0.989786 0.683776 0.321968
Si Si4 0.162944 0.816880 0.500000
Si Si5 0.500000 0.500000 0.761453
Si Si6 0.249473 0.476610 0.000000
Si Si7 0.291287 0.597066 0.598426
Si Si8 0.500000 0.000000 0.750000
O O1 0.725909 0.774091 0.250000
O O2 0.723701 0.917631 0.316776
O O3 0.782060 0.798945 0.413643
O O4 0.630502 0.799436 0.377688
O O5 0.853757 0.842911 0.851621
O O6 0.934414 0.740706 0.739272
O O7 0.006818 0.807677 0.865595
O O8 0.958811 0.904936 0.745941
O O9 0.997274 0.587398 0.299335
O O10 0.962164 0.696824 0.416944
O O11 0.173095 0.914586 0.500000
O O12 0.069761 0.783419 0.500000
O O13 0.304795 0.600806 0.500000
#
# Coordination Sequence:
#
# PCOD9564829 Si02
#       8
#    16  16  16   8   4   8  16   4
#     4  11  21  41  65  87 123 173 221 268 330 400
#     4  10  21  38  61  96 132 167 216 264 330 417
#     4  11  24  44  68  94 128 178 226 278 335 401
#     4  10  24  43  66 100 128 177 222 274 346 406
#     4   8  20  36  61  93 132 168 206 260 324 389
#     4  10  26  44  66  98 138 168 222 277 336 413
#     4  11  21  37  62  93 127 166 209 270 337 401
#     4  12  24  46  72  96 128 178 232 288 350 388
#
# _framework density 21.148878
#
# number of rings (size 3 to 8) (size 9 to 14) (size 15 to 20)
#    0.000    1.455    3.636    0.545    2.545    3.455 
#    0.000    2.727    2.000    0.000    0.000    0.000 
#    0.000    0.000    0.000    0.000    0.000    0.000 
#
# Total GULP energy -490240.612276 kJ/mol
# GULP energy per Si atom -5570.916049 kJ/mol
# Density = 2.110074 g / cm^3
# Si number density = 21.148878 Si / 1000 Ang^3
#
#
#
# Elastic Constant Matrix: (Units=GPa)
#
#
# Indices 1 2 3 4 5 6 
#
# 1 13.6918 35.7142 43.6680 0.0000 0.0000 0.0000
# 2 35.7142 13.6915 43.6677 0.0000 0.0000 0.0000
# 3 43.6680 43.6677 178.8457 0.0000 0.0000 0.0000
# 4 0.0000 0.0000 0.0000 20.4243 0.0000 0.0000
# 5 0.0000 0.0000 0.0000 0.0000 20.4241 0.0000
# 6 0.0000 0.0000 0.0000 0.0000 0.0000 23.9971
#
#
#
# Elastic Compliance Matrix: (Units=1/GPa)
#
#
# Indices 1 2 3 4 5 6 
#
# 1 -0.004899 0.040509 -0.008695 0.000000 0.000000 0.000000
# 2 0.040509 -0.004899 -0.008695 0.000000 0.000000 0.000000
# 3 -0.008695 -0.008695 0.009837 0.000000 0.000000 0.000000
# 4 0.000000 0.000000 0.000000 0.048961 0.000000 0.000000
# 5 0.000000 0.000000 0.000000 0.000000 0.048962 0.000000
# 6 0.000000 0.000000 0.000000 0.000000 0.000000 0.041672
#
#
# Mechanical properties :
#
#
# Convention : Reuss Voigt Hill
#
# Bulk Modulus (GPa) = 21.60801 50.25875 35.93338
# Shear Modulus (GPa) = 45.94659 18.51437 32.23048
#
# Velocity S-wave (km/s) = 4.66610 2.96198 3.90805
# Velocity P-wave (km/s) = 6.26652 5.95933 6.11485
#
# Compressibility (1/GPa) = 0.04627914
#
# Stress axis : x y z
#
# Youngs Moduli (GPa) = -204.14272 -204.13043 101.65315
#
# Poissons Ratio (x) = 8.26918 0.88386
# Poissons Ratio (y) = 8.26968 0.88386
# Poissons Ratio (z) = -1.77499 -1.77489
#
# Static dielectric constant tensor:
#      x y z
#    x 1.760330 0.000000 0.000000 
#    y 0.000000 1.760330 0.000000 
#    z 0.000000 0.000000 1.771250 
# 
# From -- ./inp_files/3912.got.cif
#   From: 2010.05.17/outbox.cif.g08.bks.cpg/sg128_2_cif.got.tgz:3912.got - 2010.05.20 12:07:25.
