data_PCOD9564835
_publ_section_title
;
Structure prediction by ZEFSAII (Michael W. Deem and Ramdas Pophale) SiO2 
 PCOD9564835
Probable space group: P 4/M N C
;
_chemical_formula_sum "Si O2"
_cell_formula_units_Z 64
_cell_length_a 12.279803
_cell_length_b 12.279803
_cell_length_c 18.343961
_cell_angle_alpha 90.000000
_cell_angle_beta 90.000000
_cell_angle_gamma 90.000000
_cell_volume 2766.151215
_symmetry_space_group_name_H-M "P 4/M N C"
_symmetry_group_IT_number 128
_symmetry_cell_setting 'tetragonal'
loop_
_space_group_symop_operation_xyz
x,y,z
-y,x,z
-x,-y,z
y,-x,z
1/2+x,1/2-y,1/2-z
1/2-x,1/2+y,1/2-z
1/2+y,1/2+x,1/2-z
1/2-y,1/2-x,1/2-z
-x,-y,-z
y,-x,-z
x,y,-z
-y,x,-z
1/2-x,1/2+y,1/2+z
1/2+x,1/2-y,1/2+z
1/2-y,1/2-x,1/2+z
1/2+y,1/2+x,1/2+z
loop_
_atom_site_type_symbol
_atom_site_label
_atom_site_fract_x
_atom_site_fract_y
_atom_site_fract_z
Si Si1 0.400116 0.356746 0.087850
Si Si2 0.508392 0.161559 0.785009
Si Si3 0.878545 0.377571 0.913624
Si Si4 0.679380 0.480420 0.334790
O O1 0.527172 0.353843 0.110560
O O2 0.339043 0.245679 0.106892
O O3 0.400628 0.358827 0.000000
O O4 0.415463 0.084538 0.750000
O O5 0.491562 0.126255 0.869080
O O6 0.481587 0.277086 0.748414
O O7 0.621301 0.121301 0.750000
O O8 0.959691 0.285622 0.884565
O O9 0.888973 0.393344 0.000000
O O10 0.615611 0.592632 0.347813
#
# Coordination Sequence:
#
# PCOD9564835 Si02
#       4
#    16  16  16  16
#     4   8  15  29  50  82 124 159 189 239 313 385
#     4   9  20  40  62  88 122 159 202 255 312 375
#     4  10  21  38  64  96 126 160 204 261 322 371
#     4  10  23  42  63  87 120 170 218 251 297 373
#
# _framework density 23.136839999999999
#
# number of rings (size 3 to 8) (size 9 to 14) (size 15 to 20)
#    0.000    2.750    0.000    0.750    0.000    8.000 
#    0.000   13.750    0.000    0.000    0.000    0.000 
#    0.000    0.000    0.000    0.000    0.000    0.000 
#
# Total GULP energy -356486.237858 kJ/mol
# GULP energy per Si atom -5570.097467 kJ/mol
# Density = 2.308418 g / cm^3
# Si number density = 23.136840 Si / 1000 Ang^3
#
#
#
# Elastic Constant Matrix: (Units=GPa)
#
#
# Indices 1 2 3 4 5 6 
#
# 1 83.5842 36.7853 25.3725 0.0000 0.0000 0.0000
# 2 36.7853 83.5840 25.3727 0.0000 0.0000 0.0000
# 3 25.3725 25.3727 156.0836 0.0000 0.0000 0.0000
# 4 0.0000 0.0000 0.0000 23.9341 0.0000 0.0000
# 5 0.0000 0.0000 0.0000 0.0000 23.9339 0.0000
# 6 0.0000 0.0000 0.0000 0.0000 0.0000 25.7393
#
#
#
# Elastic Compliance Matrix: (Units=1/GPa)
#
#
# Indices 1 2 3 4 5 6 
#
# 1 0.015144 -0.006225 -0.001450 0.000000 0.000000 0.000000
# 2 -0.006225 0.015144 -0.001450 0.000000 0.000000 0.000000
# 3 -0.001450 -0.001450 0.006878 0.000000 0.000000 0.000000
# 4 0.000000 0.000000 0.000000 0.041781 0.000000 0.000000
# 5 0.000000 0.000000 0.000000 0.000000 0.041782 0.000000
# 6 0.000000 0.000000 0.000000 0.000000 0.000000 0.038851
#
#
# Mechanical properties :
#
#
# Convention : Reuss Voigt Hill
#
# Bulk Modulus (GPa) = 52.86317 55.36809 54.11563
# Shear Modulus (GPa) = 27.15420 30.43621 28.79520
#
# Velocity S-wave (km/s) = 3.42955 3.63090 3.53166
# Velocity P-wave (km/s) = 6.21129 6.44675 6.33011
#
# Compressibility (1/GPa) = 0.01891676
#
# Stress axis : x y z
#
# Youngs Moduli (GPa) = 66.03492 66.03470 145.38699
#
# Poissons Ratio (x) = 0.41104 0.21079
# Poissons Ratio (y) = 0.41104 0.21079
# Poissons Ratio (z) = 0.09574 0.09574
#
# Static dielectric constant tensor:
#      x y z
#    x 1.932280 0.000000 0.000000 
#    y 0.000000 1.932270 0.000000 
#    z 0.000000 0.000000 1.963530 
# 
# From -- ./inp_files/5408.got.cif
#   From: 2010.05.17/outbox.cif.g08.bks.cpg/sg128_3_cif.got.tgz:5408.got - 2010.05.20 12:07:25.
