data_PCOD9564943
_publ_section_title
;
Structure prediction by ZEFSAII (Michael W. Deem and Ramdas Pophale) SiO2 
 PCOD9564943
Probable space group: P 4/M N C
;
_chemical_formula_sum "Si O2"
_cell_formula_units_Z 88
_cell_length_a 15.397269
_cell_length_b 15.397269
_cell_length_c 20.480797
_cell_angle_alpha 90.000000
_cell_angle_beta 90.000000
_cell_angle_gamma 90.000000
_cell_volume 4855.503231
_symmetry_space_group_name_H-M "P 4/M N C"
_symmetry_group_IT_number 128
_symmetry_cell_setting 'tetragonal'
loop_
_space_group_symop_operation_xyz
x,y,z
-y,x,z
-x,-y,z
y,-x,z
1/2+x,1/2-y,1/2-z
1/2-x,1/2+y,1/2-z
1/2+y,1/2+x,1/2-z
1/2-y,1/2-x,1/2-z
-x,-y,-z
y,-x,-z
x,y,-z
-y,x,-z
1/2-x,1/2+y,1/2+z
1/2+x,1/2-y,1/2+z
1/2-y,1/2-x,1/2+z
1/2+y,1/2+x,1/2+z
loop_
_atom_site_type_symbol
_atom_site_label
_atom_site_fract_x
_atom_site_fract_y
_atom_site_fract_z
Si Si1 0.306278 0.357704 0.870218
Si Si2 0.366917 0.054572 0.923037
Si Si3 0.097380 0.103513 0.238386
Si Si4 0.332212 0.228690 0.318032
Si Si5 0.635735 0.058287 0.576486
Si Si6 0.097467 0.892200 0.500000
O O1 0.368895 0.394067 0.813995
O O2 0.280805 0.261253 0.850372
O O3 0.218995 0.414140 0.881466
O O4 0.360344 0.352964 0.936202
O O5 0.303653 0.095664 0.869255
O O6 0.458384 0.106283 0.915656
O O7 0.386631 0.952401 0.910905
O O8 0.340908 0.063524 0.000000
O O9 0.170941 0.156138 0.200920
O O10 0.996809 0.118077 0.223638
O O11 0.326654 0.173347 0.250000
O O12 0.658565 0.071157 0.500000
O O13 0.994595 0.881970 0.500000
#
# Coordination Sequence:
#
# PCOD9564943 Si02
#       6
#    16  16  16  16  16   8
#     4  11  22  35  60  90 119 152 199 245 299 356
#     4   9  20  38  62  86 121 158 195 239 309 356
#     4  10  23  43  61  78 114 161 196 246 308 362
#     4  10  24  38  57  89 114 155 205 248 291 353
#     4   9  19  36  58  92 122 155 189 243 303 362
#     4  11  24  36  56  93 129 160 193 236 296 365
#
# _framework density 18.123764999999999
#
# number of rings (size 3 to 8) (size 9 to 14) (size 15 to 20)
#    0.000    2.091    0.909    2.182   11.455    1.455 
#    0.000    1.818    0.000    0.000    0.000    1.273 
#    0.000    0.000    0.000    0.000    0.000    0.000 
#
# Total GULP energy -491043.292964 kJ/mol
# GULP energy per Si atom -5580.037420 kJ/mol
# Density = 1.808251 g / cm^3
# Si number density = 18.123765 Si / 1000 Ang^3
#
#
#
# Elastic Constant Matrix: (Units=GPa)
#
#
# Indices 1 2 3 4 5 6 
#
# 1 45.7447 36.5101 37.3719 0.0000 0.0000 0.0000
# 2 36.5101 45.7449 37.3717 0.0000 0.0000 0.0000
# 3 37.3719 37.3717 90.0915 0.0000 0.0000 0.0000
# 4 0.0000 0.0000 0.0000 30.4810 0.0000 0.0000
# 5 0.0000 0.0000 0.0000 0.0000 30.4817 0.0000
# 6 0.0000 0.0000 0.0000 0.0000 0.0000 22.5437
#
#
#
# Elastic Compliance Matrix: (Units=1/GPa)
#
#
# Indices 1 2 3 4 5 6 
#
# 1 0.063900 -0.044387 -0.008094 0.000000 0.000000 0.000000
# 2 -0.044387 0.063899 -0.008094 0.000000 0.000000 0.000000
# 3 -0.008094 -0.008094 0.017815 0.000000 0.000000 0.000000
# 4 0.000000 0.000000 0.000000 0.032807 0.000000 0.000000
# 5 0.000000 0.000000 0.000000 0.000000 0.032807 0.000000
# 6 0.000000 0.000000 0.000000 0.000000 0.000000 0.044358
#
#
# Mechanical properties :
#
#
# Convention : Reuss Voigt Hill
#
# Bulk Modulus (GPa) = 40.87771 44.89873 42.88822
# Shear Modulus (GPa) = 12.99064 21.38977 17.19020
#
# Velocity S-wave (km/s) = 2.68017 3.43914 3.08310
# Velocity P-wave (km/s) = 5.67287 6.37161 6.03237
#
# Compressibility (1/GPa) = 0.02446321
#
# Stress axis : x y z
#
# Youngs Moduli (GPa) = 15.64944 15.64960 56.13246
#
# Poissons Ratio (x) = 0.69465 0.45435
# Poissons Ratio (y) = 0.69464 0.45433
# Poissons Ratio (z) = 0.12667 0.12667
#
# Static dielectric constant tensor:
#      x y z
#    x 1.616010 0.000000 0.000000 
#    y 0.000000 1.616010 0.000000 
#    z 0.000000 0.000000 1.615180 
# 
# From -- ./inp_files/5662.got.cif
#   From: 2010.05.17/outbox.cif.g08.bks.cpg/sg128_3_cif.got.tgz:5662.got - 2010.05.20 12:07:25.
