data_PCOD9564337
_publ_section_title
;
Structure prediction by ZEFSAII (Michael W. Deem and Ramdas Pophale) SiO2 
 PCOD9564337
Probable space group: P 4/M B M
;
_chemical_formula_sum "Si O2"
_cell_formula_units_Z 72
_cell_length_a 14.811543
_cell_length_b 14.811543
_cell_length_c 19.080741
_cell_angle_alpha 90.000000
_cell_angle_beta 90.000000
_cell_angle_gamma 90.000000
_cell_volume 4185.967421
_symmetry_space_group_name_H-M "P 4/M B M"
_symmetry_group_IT_number 127
_symmetry_cell_setting 'tetragonal'
loop_
_space_group_symop_operation_xyz
x,y,z
-y,x,z
-x,-y,z
y,-x,z
1/2+x,1/2-y,-z
1/2-x,1/2+y,-z
1/2+y,1/2+x,-z
1/2-y,1/2-x,-z
-x,-y,-z
y,-x,-z
x,y,-z
-y,x,-z
1/2-x,1/2+y,z
1/2+x,1/2-y,z
1/2-y,1/2-x,z
1/2+y,1/2+x,z
loop_
_atom_site_type_symbol
_atom_site_label
_atom_site_fract_x
_atom_site_fract_y
_atom_site_fract_z
Si Si1 0.852436 0.978515 0.500000
Si Si2 0.764631 0.735370 0.584834
Si Si3 0.653199 0.503809 0.770701
Si Si4 0.740228 0.028418 0.369639
Si Si5 0.888231 0.388231 0.415041
Si Si6 0.503842 0.346752 0.924629
O O1 0.926510 0.902499 0.500000
O O2 0.796522 0.975710 0.429398
O O3 0.768214 0.731787 0.500000
O O4 0.747195 0.634157 0.613558
O O5 0.688956 0.811044 0.602960
O O6 0.584264 0.588770 0.765418
O O7 0.721665 0.507913 0.706819
O O8 0.697931 0.504982 0.848159
O O9 0.643417 0.983490 0.383060
O O10 0.893632 0.393632 0.500000
O O11 0.588357 0.415967 0.924730
O O12 0.505100 0.297353 0.000000
#
# Coordination Sequence:
#
# PCOD9564337 Si02
#       6
#     8   8  16  16   8  16
#     4  11  20  30  48  69  90 116 148 195 252 297
#     4  11  22  37  53  69  94 127 162 205 248 291
#     4   9  16  26  43  69  97 120 152 201 248 294
#     4  12  22  34  49  68  92 126 165 200 238 284
#     4  11  22  37  53  69  94 127 162 205 248 291
#     4   7  10  18  34  59  92 124 147 175 230 301
#
# _framework density 17.200324999999999
#
# number of rings (size 3 to 8) (size 9 to 14) (size 15 to 20)
#    0.000    2.111    2.222    6.000    0.000    2.222 
#    0.000    1.111    0.000    0.000    0.000    1.556 
#    0.000    8.889    0.000    2.000    0.000    1.333 
#
# Total GULP energy -400993.934495 kJ/mol
# GULP energy per Si atom -5569.360201 kJ/mol
# Density = 1.716118 g / cm^3
# Si number density = 17.200325 Si / 1000 Ang^3
#
#
#
# Elastic Constant Matrix: (Units=GPa)
#
#
# Indices 1 2 3 4 5 6 
#
# 1 40.7685 8.3427 19.4067 0.0000 0.0000 0.0000
# 2 8.3427 40.7688 19.4064 0.0000 0.0000 0.0000
# 3 19.4067 19.4064 172.8383 0.0000 0.0000 0.0000
# 4 0.0000 0.0000 0.0000 -125.2640 0.0000 0.0000
# 5 0.0000 0.0000 0.0000 0.0000 -125.2603 0.0000
# 6 0.0000 0.0000 0.0000 0.0000 0.0000 -105.8749
#
#
#
# Elastic Compliance Matrix: (Units=1/GPa)
#
#
# Indices 1 2 3 4 5 6 
#
# 1 0.026592 -0.004247 -0.002509 0.000000 0.000000 0.000000
# 2 -0.004247 0.026592 -0.002509 0.000000 0.000000 0.000000
# 3 -0.002509 -0.002509 0.006349 0.000000 0.000000 0.000000
# 4 0.000000 0.000000 0.000000 -0.007983 0.000000 0.000000
# 5 0.000000 0.000000 0.000000 0.000000 -0.007983 0.000000
# 6 0.000000 0.000000 0.000000 0.000000 0.000000 -0.009445
#
#
# Mechanical properties :
#
#
# Convention : Reuss Voigt Hill
#
# Bulk Modulus (GPa) = 24.38846 38.74303 31.56575
# Shear Modulus (GPa) = 75.39219 -57.46518 8.96350
#
# Velocity S-wave (km/s) = 6.62774 -5.78635 2.28529
# Velocity P-wave (km/s) = 8.53107 4.69777 5.03538
#
# Compressibility (1/GPa) = 0.04100299
#
# Stress axis : x y z
#
# Youngs Moduli (GPa) = 37.60493 37.60530 157.50110
#
# Poissons Ratio (x) = 0.15972 0.39516
# Poissons Ratio (y) = 0.15972 0.39515
# Poissons Ratio (z) = 0.09435 0.09435
#
# Static dielectric constant tensor:
#      x y z
#    x 1.606010 0.000000 0.000000 
#    y 0.000000 1.606010 0.000000 
#    z 0.000000 0.000000 1.613970 
# 
# From -- ./inp_files/4975.got.cif
#   From: 2010.05.17/outbox.cif.g08.bks.cpg/sg127_3_cif.got.tgz:4975.got - 2010.05.20 12:03:00.
