data_PCOD9564468
_publ_section_title
;
Structure prediction by ZEFSAII (Michael W. Deem and Ramdas Pophale) SiO2 
 PCOD9564468
Probable space group: P 4/M B M
;
_chemical_formula_sum "Si O2"
_cell_formula_units_Z 64
_cell_length_a 17.882094
_cell_length_b 17.882094
_cell_length_c 7.318318
_cell_angle_alpha 90.000000
_cell_angle_beta 90.000000
_cell_angle_gamma 90.000000
_cell_volume 2340.173320
_symmetry_space_group_name_H-M "P 4/M B M"
_symmetry_group_IT_number 127
_symmetry_cell_setting 'tetragonal'
loop_
_space_group_symop_operation_xyz
x,y,z
-y,x,z
-x,-y,z
y,-x,z
1/2+x,1/2-y,-z
1/2-x,1/2+y,-z
1/2+y,1/2+x,-z
1/2-y,1/2-x,-z
-x,-y,-z
y,-x,-z
x,y,-z
-y,x,-z
1/2-x,1/2+y,z
1/2+x,1/2-y,z
1/2-y,1/2-x,z
1/2+y,1/2+x,z
loop_
_atom_site_type_symbol
_atom_site_label
_atom_site_fract_x
_atom_site_fract_y
_atom_site_fract_z
Si Si1 0.231834 0.605179 0.792306
Si Si2 0.346388 0.729015 0.706116
Si Si3 0.005694 0.381224 0.777662
Si Si4 0.454869 0.612777 0.722960
O O1 0.160433 0.660433 0.802685
O O2 0.292317 0.656089 0.694983
O O3 0.196194 0.529815 0.711149
O O4 0.257225 0.592724 0.000000
O O5 0.364524 0.752123 0.500000
O O6 0.295034 0.795034 0.790336
O O7 0.418512 0.689608 0.793011
O O8 0.085952 0.414049 0.720292
O O9 0.946113 0.446113 0.730763
O O10 0.006944 0.376180 0.000000
O O11 0.406250 0.539721 0.775823
O O12 0.454332 0.615969 0.500000
#
# Coordination Sequence:
#
# PCOD9564468 Si02
#       4
#    16  16  16  16
#     4   8  13  21  34  53  77 106 138 167 199 245
#     4   9  16  25  40  64  89 107 128 168 218 257
#     4   7   9  14  26  44  64  89 128 174 205 225
#     4   8  14  26  45  66  85 109 144 180 209 243
#
# _framework density 27.348402
#
# number of rings (size 3 to 8) (size 9 to 14) (size 15 to 20)
#    0.000    4.000    0.000    3.000    0.000    0.000 
#    0.000    0.000    0.000    3.750    0.000   10.500 
#    0.000    0.000    0.000    0.000    0.000    0.000 
#
# Total GULP energy -357107.572939 kJ/mol
# GULP energy per Si atom -5579.805827 kJ/mol
# Density = 2.728616 g / cm^3
# Si number density = 27.348402 Si / 1000 Ang^3
#
#
#
# Elastic Constant Matrix: (Units=GPa)
#
#
# Indices 1 2 3 4 5 6 
#
# 1 95.4662 127.2954 8.0275 0.0000 0.0000 0.0000
# 2 127.2954 95.4662 8.0275 0.0000 0.0000 0.0000
# 3 8.0275 8.0275 119.7646 0.0000 0.0000 0.0000
# 4 0.0000 0.0000 0.0000 -5.1823 0.0000 0.0000
# 5 0.0000 0.0000 0.0000 0.0000 -5.1823 0.0000
# 6 0.0000 0.0000 0.0000 0.0000 0.0000 99.8273
#
#
#
# Elastic Compliance Matrix: (Units=1/GPa)
#
#
# Indices 1 2 3 4 5 6 
#
# 1 -0.013453 0.017964 -0.000302 0.000000 0.000000 0.000000
# 2 0.017964 -0.013453 -0.000302 0.000000 0.000000 0.000000
# 3 -0.000302 -0.000302 0.008390 0.000000 0.000000 0.000000
# 4 0.000000 0.000000 0.000000 -0.192966 0.000000 0.000000
# 5 0.000000 0.000000 0.000000 0.000000 -0.192966 0.000000
# 6 0.000000 0.000000 0.000000 0.000000 0.000000 0.010017
#
#
# Mechanical properties :
#
#
# Convention : Reuss Voigt Hill
#
# Bulk Modulus (GPa) = 61.71838 66.37751 64.04795
# Shear Modulus (GPa) = -11.79945 29.04898 8.62477
#
# Velocity S-wave (km/s) = -2.07939 3.26265 1.77778
# Velocity P-wave (km/s) = 4.10503 6.20620 5.26157
#
# Compressibility (1/GPa) = 0.01620263
#
# Stress axis : x y z
#
# Youngs Moduli (GPa) = -74.33067 -74.33067 119.18600
#
# Poissons Ratio (x) = 1.33530 0.03604
# Poissons Ratio (y) = 1.33530 0.03604
# Poissons Ratio (z) = -0.02247 -0.02247
#
# Static dielectric constant tensor:
#      x y z
#    x 2.157340 0.000000 0.000000 
#    y 0.000000 2.157340 0.000000 
#    z 0.000000 0.000000 2.027850 
# 
# From -- ./inp_files/3033.got.cif
#   From: 2010.05.17/outbox.cif.g08.bks.cpg/sg127_2_cif.got.tgz:3033.got - 2010.05.20 12:03:00.
