data_PCOD9564675
_publ_section_title
;
Structure prediction by ZEFSAII (Michael W. Deem and Ramdas Pophale) SiO2 
 PCOD9564675
Probable space group: P 4/M N C
;
_chemical_formula_sum "Si O2"
_cell_formula_units_Z 56
_cell_length_a 10.630964
_cell_length_b 10.630964
_cell_length_c 20.347842
_cell_angle_alpha 90.000000
_cell_angle_beta 90.000000
_cell_angle_gamma 90.000000
_cell_volume 2299.660108
_symmetry_space_group_name_H-M "P 4/M N C"
_symmetry_group_IT_number 128
_symmetry_cell_setting 'tetragonal'
loop_
_space_group_symop_operation_xyz
x,y,z
-y,x,z
-x,-y,z
y,-x,z
1/2+x,1/2-y,1/2-z
1/2-x,1/2+y,1/2-z
1/2+y,1/2+x,1/2-z
1/2-y,1/2-x,1/2-z
-x,-y,-z
y,-x,-z
x,y,-z
-y,x,-z
1/2-x,1/2+y,1/2+z
1/2+x,1/2-y,1/2+z
1/2-y,1/2-x,1/2+z
1/2+y,1/2+x,1/2+z
loop_
_atom_site_type_symbol
_atom_site_label
_atom_site_fract_x
_atom_site_fract_y
_atom_site_fract_z
Si Si1 0.288050 0.497952 0.833871
Si Si2 0.365451 0.889685 0.075423
Si Si3 0.847126 0.148171 0.000000
Si Si4 0.786196 0.998769 0.187032
O O1 0.381457 0.377534 0.838302
O O2 0.188844 0.474543 0.890868
O O3 0.230950 0.499379 0.760550
O O4 0.315085 0.988482 0.129241
O O5 0.398479 0.923869 0.000000
O O6 0.237075 0.808732 0.060905
O O7 0.994408 0.166482 0.000000
O O8 0.880127 0.119716 0.182646
#
# Coordination Sequence:
#
# PCOD9564675 Si02
#       4
#    16  16   8  16
#     4   9  19  36  54  72  97 134 179 215 242 284
#     4  10  20  28  49  80 108 130 161 205 257 300
#     4   9  18  32  50  75 104 128 154 193 246 304
#     4   9  17  31  54  79 102 131 167 208 251 298
#
# _framework density 24.351426
#
# number of rings (size 3 to 8) (size 9 to 14) (size 15 to 20)
#    0.857    1.857    0.000    4.286    0.000    3.429 
#    0.000    1.429    0.000    8.571    0.000   16.000 
#    0.000    0.000    0.000    0.000    0.000    0.000 
#
# Total GULP energy -312009.996719 kJ/mol
# GULP energy per Si atom -5571.607084 kJ/mol
# Density = 2.429600 g / cm^3
# Si number density = 24.351426 Si / 1000 Ang^3
#
#
#
# Elastic Constant Matrix: (Units=GPa)
#
#
# Indices 1 2 3 4 5 6 
#
# 1 36.9132 63.0871 55.7338 0.0000 0.0000 0.0000
# 2 63.0871 36.9132 55.7338 0.0000 0.0000 0.0000
# 3 55.7338 55.7338 174.1321 0.0000 0.0000 0.0000
# 4 0.0000 0.0000 0.0000 6.7385 0.0000 0.0000
# 5 0.0000 0.0000 0.0000 0.0000 6.7385 0.0000
# 6 0.0000 0.0000 0.0000 0.0000 0.0000 40.6710
#
#
#
# Elastic Compliance Matrix: (Units=1/GPa)
#
#
# Indices 1 2 3 4 5 6 
#
# 1 -0.011330 0.026876 -0.004976 0.000000 0.000000 0.000000
# 2 0.026876 -0.011330 -0.004976 0.000000 0.000000 0.000000
# 3 -0.004976 -0.004976 0.008928 0.000000 0.000000 0.000000
# 4 0.000000 0.000000 0.000000 0.148401 0.000000 0.000000
# 5 0.000000 0.000000 0.000000 0.000000 0.148401 0.000000
# 6 0.000000 0.000000 0.000000 0.000000 0.000000 0.024588
#
#
# Mechanical properties :
#
#
# Convention : Reuss Voigt Hill
#
# Bulk Modulus (GPa) = 49.70837 66.34086 58.02462
# Shear Modulus (GPa) = 17.82436 15.72318 16.77377
#
# Velocity S-wave (km/s) = 2.70842 2.54378 2.62739
# Velocity P-wave (km/s) = 5.49890 5.99416 5.75187
#
# Compressibility (1/GPa) = 0.02011734
#
# Stress axis : x y z
#
# Youngs Moduli (GPa) = -88.26329 -88.26329 112.00723
#
# Poissons Ratio (x) = 2.37218 0.55734
# Poissons Ratio (y) = 2.37218 0.55734
# Poissons Ratio (z) = -0.43919 -0.43919
#
# Static dielectric constant tensor:
#      x y z
#    x 1.949360 0.000000 0.000000 
#    y 0.000000 1.949360 0.000000 
#    z 0.000000 0.000000 2.010870 
# 
# From -- ./inp_files/6190.got.cif
#   From: 2010.05.17/outbox.cif.g08.bks.cpg/sg128_4_cif.got.tgz:6190.got - 2010.05.20 12:07:25.
