data_PCOD9564026
_publ_section_title
;
Structure prediction by ZEFSAII (Michael W. Deem and Ramdas Pophale) SiO2 
 PCOD9564026
Probable space group: P 4/M B M
;
_chemical_formula_sum "Si O2"
_cell_formula_units_Z 120
_cell_length_a 27.620356
_cell_length_b 27.620356
_cell_length_c 8.125221
_cell_angle_alpha 90.000000
_cell_angle_beta 90.000000
_cell_angle_gamma 90.000000
_cell_volume 6198.601630
_symmetry_space_group_name_H-M "P 4/M B M"
_symmetry_group_IT_number 127
_symmetry_cell_setting 'tetragonal'
loop_
_space_group_symop_operation_xyz
x,y,z
-y,x,z
-x,-y,z
y,-x,z
1/2+x,1/2-y,-z
1/2-x,1/2+y,-z
1/2+y,1/2+x,-z
1/2-y,1/2-x,-z
-x,-y,-z
y,-x,-z
x,y,-z
-y,x,-z
1/2-x,1/2+y,z
1/2+x,1/2-y,z
1/2-y,1/2-x,z
1/2+y,1/2+x,z
loop_
_atom_site_type_symbol
_atom_site_label
_atom_site_fract_x
_atom_site_fract_y
_atom_site_fract_z
Si Si1 0.149111 0.522361 0.307424
Si Si2 0.259744 0.841485 0.688862
Si Si3 0.058144 0.283184 0.808807
Si Si4 0.420360 0.243697 0.300214
Si Si5 0.960771 0.460771 0.194735
Si Si6 0.078200 0.992725 0.201025
Si Si7 0.188188 0.995221 0.197223
Si Si8 0.187706 0.766284 0.298667
O O1 0.144779 0.532370 0.500000
O O2 0.173440 0.469798 0.280300
O O3 0.191785 0.558230 0.242117
O O4 0.095112 0.527583 0.239094
O O5 0.253015 0.857982 0.500000
O O6 0.297185 0.797185 0.685302
O O7 0.282562 0.884782 0.789338
O O8 0.210065 0.817782 0.753873
O O9 0.041001 0.230477 0.743191
O O10 0.044230 0.286670 0.000000
O O11 0.422075 0.243022 0.500000
O O12 0.453478 0.287714 0.239364
O O13 0.365967 0.253647 0.245957
O O14 0.000000 0.500000 0.264455
O O15 0.964117 0.464117 0.000000
O O16 0.133525 0.989189 0.260513
O O17 0.042601 0.948791 0.250516
O O18 0.079045 0.992698 0.000000
O O19 0.185351 0.989778 0.000000
O O20 0.188547 0.767292 0.500000
O O21 0.223798 0.723798 0.245626
#
# Coordination Sequence:
#
# PCOD9564026 Si02
#       8
#    16  16  16  16   8  16  16  16
#     4  10  21  37  59  84 107 137 179 222 262 317
#     4   9  18  33  52  74  99 132 172 210 247 294
#     4  10  20  34  52  75 106 141 172 211 266 317
#     4   9  18  32  53  78 103 133 170 208 254 310
#     4  11  25  43  61  83 113 143 173 217 273 329
#     4   8  14  26  45  68  94 129 175 220 259 304
#     4   9  18  31  47  70 100 129 163 208 256 303
#     4   8  15  29  50  74 101 130 163 204 248 298
#
# _framework density 19.359206
#
# number of rings (size 3 to 8) (size 9 to 14) (size 15 to 20)
#    0.000    2.867    0.000    2.200    0.933    3.467 
#    0.000    2.000    0.000    1.600    0.000    0.933 
#    0.000    0.000    0.000    0.000    0.000    0.000 
#
# Total GULP energy -668500.807369 kJ/mol
# GULP energy per Si atom -5570.840061 kJ/mol
# Density = 1.931514 g / cm^3
# Si number density = 19.359206 Si / 1000 Ang^3
#
#
#
# Elastic Constant Matrix: (Units=GPa)
#
#
# Indices 1 2 3 4 5 6 
#
# 1 103.2089 32.0431 9.4682 0.0000 0.0000 0.0000
# 2 32.0431 103.2089 9.4682 0.0000 0.0000 0.0000
# 3 9.4682 9.4682 10.9644 0.0000 0.0000 0.0000
# 4 0.0000 0.0000 0.0000 15.8314 0.0000 0.0000
# 5 0.0000 0.0000 0.0000 0.0000 15.8314 0.0000
# 6 0.0000 0.0000 0.0000 0.0000 0.0000 9.5741
#
#
#
# Elastic Compliance Matrix: (Units=1/GPa)
#
#
# Indices 1 2 3 4 5 6 
#
# 1 0.011231 -0.002821 -0.007263 0.000000 0.000000 0.000000
# 2 -0.002821 0.011231 -0.007263 0.000000 0.000000 0.000000
# 3 -0.007263 -0.007263 0.103748 0.000000 0.000000 0.000000
# 4 0.000000 0.000000 0.000000 0.063166 0.000000 0.000000
# 5 0.000000 0.000000 0.000000 0.000000 0.063166 0.000000
# 6 0.000000 0.000000 0.000000 0.000000 0.000000 0.104448
#
#
# Mechanical properties :
#
#
# Convention : Reuss Voigt Hill
#
# Bulk Modulus (GPa) = 10.92683 35.48232 23.20457
# Shear Modulus (GPa) = 11.84307 19.34089 15.59198
#
# Velocity S-wave (km/s) = 2.47605 3.16421 2.84104
# Velocity P-wave (km/s) = 3.71900 5.63186 4.77225
#
# Compressibility (1/GPa) = 0.09151786
#
# Stress axis : x y z
#
# Youngs Moduli (GPa) = 89.03866 89.03866 9.63874
#
# Poissons Ratio (x) = 0.25114 0.07000
# Poissons Ratio (y) = 0.25114 0.07000
# Poissons Ratio (z) = 0.64667 0.64667
#
# Static dielectric constant tensor:
#      x y z
#    x 1.681130 0.000000 0.000000 
#    y 0.000000 1.681130 0.000000 
#    z 0.000000 0.000000 1.698070 
# 
# From -- ./inp_files/2408.got.cif
#   From: 2010.05.17/outbox.cif.g08.bks.cpg/sg127_2_cif.got.tgz:2408.got - 2010.05.20 12:03:00.
