data_PCOD9564076
_publ_section_title
;
Structure prediction by ZEFSAII (Michael W. Deem and Ramdas Pophale) SiO2 
 PCOD9564076
Probable space group: P 4/M B M
;
_chemical_formula_sum "Si O2"
_cell_formula_units_Z 72
_cell_length_a 20.703615
_cell_length_b 20.703615
_cell_length_c 7.499485
_cell_angle_alpha 90.000000
_cell_angle_beta 90.000000
_cell_angle_gamma 90.000000
_cell_volume 3214.576806
_symmetry_space_group_name_H-M "P 4/M B M"
_symmetry_group_IT_number 127
_symmetry_cell_setting 'tetragonal'
loop_
_space_group_symop_operation_xyz
x,y,z
-y,x,z
-x,-y,z
y,-x,z
1/2+x,1/2-y,-z
1/2-x,1/2+y,-z
1/2+y,1/2+x,-z
1/2-y,1/2-x,-z
-x,-y,-z
y,-x,-z
x,y,-z
-y,x,-z
1/2-x,1/2+y,z
1/2+x,1/2-y,z
1/2-y,1/2-x,z
1/2+y,1/2+x,z
loop_
_atom_site_type_symbol
_atom_site_label
_atom_site_fract_x
_atom_site_fract_y
_atom_site_fract_z
Si Si1 0.768593 0.731408 0.210381
Si Si2 0.486478 0.185998 0.281205
Si Si3 0.065165 0.079733 0.717091
Si Si4 0.284547 0.407732 0.289973
Si Si5 0.160229 0.660229 0.712449
Si Si6 0.947375 0.552626 0.283311
O O1 0.751692 0.659632 0.273192
O O2 0.714822 0.785179 0.260561
O O3 0.769911 0.730090 0.000000
O O4 0.485256 0.187215 0.500000
O O5 0.529995 0.246206 0.219086
O O6 0.411675 0.180659 0.222246
O O7 0.526879 0.122358 0.227113
O O8 0.068224 0.076500 0.500000
O O9 0.101319 0.143050 0.781122
O O10 0.990641 0.087786 0.773471
O O11 0.291492 0.421107 0.500000
O O12 0.153064 0.653064 0.500000
O O13 0.946013 0.553988 0.500000
O O14 0.000000 0.500000 0.228813
#
# Coordination Sequence:
#
# PCOD9564076 Si02
#       6
#     8  16  16  16   8   8
#     4  12  27  43  54  75 117 163 199 236 286 341
#     4   9  17  29  53  90 119 143 179 230 285 338
#     4   8  15  28  50  84 118 140 169 226 293 343
#     4  10  20  35  60  86 110 145 192 238 285 340
#     4  10  20  36  61  92 122 149 186 235 286 342
#     4   9  13  22  40  71 116 147 168 213 275 326
#
# _framework density 22.397970000000001
#
# number of rings (size 3 to 8) (size 9 to 14) (size 15 to 20)
#    0.000    2.556    1.111    2.333    3.111    1.778 
#    0.000    1.111    0.000    0.000    0.000    3.111 
#    0.000    0.000    0.000    0.000    0.000    0.000 
#
# Total GULP energy -401778.510280 kJ/mol
# GULP energy per Si atom -5580.257087 kJ/mol
# Density = 2.234699 g / cm^3
# Si number density = 22.397970 Si / 1000 Ang^3
#
#
#
# Elastic Constant Matrix: (Units=GPa)
#
#
# Indices 1 2 3 4 5 6 
#
# 1 73.6471 -1.1556 -16.5205 0.0000 0.0000 0.0000
# 2 -1.1556 73.6437 -16.5208 0.0000 0.0000 0.0000
# 3 -16.5205 -16.5208 52.7504 0.0000 0.0000 0.0000
# 4 0.0000 0.0000 0.0000 -48.4928 0.0000 0.0000
# 5 0.0000 0.0000 0.0000 0.0000 -48.4948 0.0000
# 6 0.0000 0.0000 0.0000 0.0000 0.0000 35.2869
#
#
#
# Elastic Compliance Matrix: (Units=1/GPa)
#
#
# Indices 1 2 3 4 5 6 
#
# 1 0.014730 0.001362 0.005040 0.000000 0.000000 0.000000
# 2 0.001362 0.014731 0.005040 0.000000 0.000000 0.000000
# 3 0.005040 0.005040 0.022114 0.000000 0.000000 0.000000
# 4 0.000000 0.000000 0.000000 -0.020622 0.000000 0.000000
# 5 0.000000 0.000000 0.000000 0.000000 -0.020621 0.000000
# 6 0.000000 0.000000 0.000000 0.000000 0.000000 0.028339
#
#
# Mechanical properties :
#
#
# Convention : Reuss Voigt Hill
#
# Bulk Modulus (GPa) = 13.43040 14.62748 14.02894
# Shear Modulus (GPa) = 123.12763 3.27574 63.20168
#
# Velocity S-wave (km/s) = 7.42240 1.21066 5.31779
# Velocity P-wave (km/s) = 8.91433 2.91533 6.63191
#
# Compressibility (1/GPa) = 0.07445795
#
# Stress axis : x y z
#
# Youngs Moduli (GPa) = 67.88800 67.88444 45.22018
#
# Poissons Ratio (x) = -0.09244 -0.22790
# Poissons Ratio (y) = -0.09244 -0.22791
# Poissons Ratio (z) = -0.34213 -0.34214
#
# Static dielectric constant tensor:
#      x y z
#    x 1.793430 0.000000 0.000000 
#    y 0.000000 1.793440 0.000000 
#    z 0.000000 0.000000 1.880630 
# 
# From -- ./inp_files/1668.got.cif
#   From: 2010.05.17/outbox.cif.g08.bks.cpg/sg127_1_cif.got.tgz:1668.got - 2010.05.20 12:03:00.
