data_PCOD9564965
_publ_section_title
;
Structure prediction by ZEFSAII (Michael W. Deem and Ramdas Pophale) SiO2 
 PCOD9564965
Probable space group: P 4/M N C
;
_chemical_formula_sum "Si O2"
_cell_formula_units_Z 120
_cell_length_a 17.472998
_cell_length_b 17.472998
_cell_length_c 24.282260
_cell_angle_alpha 90.000000
_cell_angle_beta 90.000000
_cell_angle_gamma 90.000000
_cell_volume 7413.511394
_symmetry_space_group_name_H-M "P 4/M N C"
_symmetry_group_IT_number 128
_symmetry_cell_setting 'tetragonal'
loop_
_space_group_symop_operation_xyz
x,y,z
-y,x,z
-x,-y,z
y,-x,z
1/2+x,1/2-y,1/2-z
1/2-x,1/2+y,1/2-z
1/2+y,1/2+x,1/2-z
1/2-y,1/2-x,1/2-z
-x,-y,-z
y,-x,-z
x,y,-z
-y,x,-z
1/2-x,1/2+y,1/2+z
1/2+x,1/2-y,1/2+z
1/2-y,1/2-x,1/2+z
1/2+y,1/2+x,1/2+z
loop_
_atom_site_type_symbol
_atom_site_label
_atom_site_fract_x
_atom_site_fract_y
_atom_site_fract_z
Si Si1 0.662813 0.841733 0.063500
Si Si2 0.090605 0.500000 0.565784
Si Si3 0.158267 0.337187 0.063500
Si Si4 0.092018 0.907982 0.293734
Si Si5 0.091077 0.091077 0.500000
Si Si6 0.344176 0.344176 0.559446
Si Si7 0.828933 0.828933 0.396231
Si Si8 0.090490 0.090490 0.171514
O O1 0.753264 0.857229 0.060185
O O2 0.655008 0.761989 0.096121
O O3 0.623993 0.918906 0.086330
O O4 0.635608 0.828550 0.000000
O O5 0.108015 0.500000 0.500000
O O6 0.123993 0.418906 0.586330
O O7 0.000000 0.500000 0.573139
O O8 0.142771 0.246736 0.060185
O O9 0.238011 0.344992 0.096121
O O10 0.171450 0.364392 0.000000
O O11 0.137398 0.862602 0.340184
O O12 0.116985 0.883015 0.232081
O O13 0.000000 0.896088 0.299198
O O14 0.128697 0.128697 0.446457
O O15 1.000000 0.104252 0.500000
O O16 0.373971 0.373971 0.500000
O O17 0.376387 0.376387 0.615732
O O18 1.000000 0.103894 0.170638
#
# Coordination Sequence:
#
# PCOD9564965 Si02
#       8
#    16  16  16  16   8  16  16  16
#     4   9  18  33  47  71 106 135 166 217 264 306
#     4   9  18  30  46  68  99 141 181 207 255 317
#     4   9  18  33  47  71 106 135 166 217 264 306
#     4   9  19  35  51  70 104 140 171 212 253 309
#     4  11  22  30  44  76 108 134 168 215 266 308
#     4   9  18  31  53  77 104 130 158 207 268 317
#     4  11  18  33  51  72 102 141 179 210 263 316
#     4   9  19  34  50  74 105 133 167 206 252 313
#
# _framework density 16.186661000000001
#
# number of rings (size 3 to 8) (size 9 to 14) (size 15 to 20)
#    0.000    2.600    1.333    2.400    1.867    3.733 
#    0.000    3.333    0.000    0.000    0.000    0.000 
#    0.000    0.000    0.000    0.000    0.000    0.000 
#
# Total GULP energy -668079.590045 kJ/mol
# GULP energy per Si atom -5567.329917 kJ/mol
# Density = 1.614982 g / cm^3
# Si number density = 16.186661 Si / 1000 Ang^3
#
#
#
# Elastic Constant Matrix: (Units=GPa)
#
#
# Indices 1 2 3 4 5 6 
#
# 1 70.2455 61.4986 48.8379 0.0000 0.0000 0.0000
# 2 61.4986 70.2455 48.8379 0.0000 0.0000 0.0000
# 3 48.8379 48.8379 141.5996 0.0000 0.0000 0.0000
# 4 0.0000 0.0000 0.0000 22.9479 0.0000 0.0000
# 5 0.0000 0.0000 0.0000 0.0000 22.9479 0.0000
# 6 0.0000 0.0000 0.0000 0.0000 0.0000 31.2983
#
#
#
# Elastic Compliance Matrix: (Units=1/GPa)
#
#
# Indices 1 2 3 4 5 6 
#
# 1 0.062262 -0.052064 -0.003517 0.000000 0.000000 0.000000
# 2 -0.052064 0.062262 -0.003517 0.000000 0.000000 0.000000
# 3 -0.003517 -0.003517 0.009488 0.000000 0.000000 0.000000
# 4 0.000000 0.000000 0.000000 0.043577 0.000000 0.000000
# 5 0.000000 0.000000 0.000000 0.000000 0.043577 0.000000
# 6 0.000000 0.000000 0.000000 0.000000 0.000000 0.031951
#
#
# Mechanical properties :
#
#
# Convention : Reuss Voigt Hill
#
# Bulk Modulus (GPa) = 63.22934 66.71551 64.97243
# Shear Modulus (GPa) = 13.27713 23.63323 18.45518
#
# Velocity S-wave (km/s) = 2.86711 3.82520 3.38027
# Velocity P-wave (km/s) = 7.07869 7.79842 7.44725
#
# Compressibility (1/GPa) = 0.01581544
#
# Stress axis : x y z
#
# Youngs Moduli (GPa) = 16.06107 16.06107 105.39096
#
# Poissons Ratio (x) = 0.83620 0.37070
# Poissons Ratio (y) = 0.83620 0.37070
# Poissons Ratio (z) = 0.05649 0.05649
#
# Static dielectric constant tensor:
#      x y z
#    x 1.549100 0.000000 0.000000 
#    y 0.000000 1.549100 0.000000 
#    z 0.000000 0.000000 1.553090 
# 
# From -- ./inp_files/6022.got.cif
#   From: 2010.05.17/outbox.cif.g08.bks.cpg/sg128_4_cif.got.tgz:6022.got - 2010.05.20 12:07:25.
