data_PCOD9564251
_publ_section_title
;
Structure prediction by ZEFSAII (Michael W. Deem and Ramdas Pophale) SiO2 
 PCOD9564251
Probable space group: P 4/M B M
;
_chemical_formula_sum "Si O2"
_cell_formula_units_Z 96
_cell_length_a 24.621211
_cell_length_b 24.621211
_cell_length_c 8.551233
_cell_angle_alpha 90.000000
_cell_angle_beta 90.000000
_cell_angle_gamma 90.000000
_cell_volume 5183.791916
_symmetry_space_group_name_H-M "P 4/M B M"
_symmetry_group_IT_number 127
_symmetry_cell_setting 'tetragonal'
loop_
_space_group_symop_operation_xyz
x,y,z
-y,x,z
-x,-y,z
y,-x,z
1/2+x,1/2-y,-z
1/2-x,1/2+y,-z
1/2+y,1/2+x,-z
1/2-y,1/2-x,-z
-x,-y,-z
y,-x,-z
x,y,-z
-y,x,-z
1/2-x,1/2+y,z
1/2+x,1/2-y,z
1/2-y,1/2-x,z
1/2+y,1/2+x,z
loop_
_atom_site_type_symbol
_atom_site_label
_atom_site_fract_x
_atom_site_fract_y
_atom_site_fract_z
Si Si1 0.133008 0.720360 0.688487
Si Si2 0.777767 0.190736 0.311297
Si Si3 0.200206 0.928774 0.810956
Si Si4 0.791688 0.486832 0.813372
Si Si5 0.500496 0.912008 0.311300
Si Si6 0.581943 0.531698 0.190575
O O1 0.128629 0.719787 0.500000
O O2 0.166009 0.666009 0.734253
O O3 0.171251 0.770981 0.732635
O O4 0.073887 0.722390 0.760268
O O5 0.777043 0.187609 0.500000
O O6 0.723593 0.223593 0.262667
O O7 0.784531 0.131411 0.242446
O O8 0.140089 0.946497 0.755632
O O9 0.245928 0.971187 0.756257
O O10 0.199205 0.929975 0.000000
O O11 0.851597 0.500857 0.752481
O O12 0.792324 0.488952 0.000000
O O13 0.501297 0.909794 0.500000
O O14 0.448965 0.948965 0.264897
O O15 0.554297 0.945704 0.262418
O O16 0.530259 0.568348 0.238416
O O17 0.582525 0.531927 0.000000
#
# Coordination Sequence:
#
# PCOD9564251 Si02
#       6
#    16  16  16  16  16  16
#     4   9  19  37  59  80 104 139 183 228 270 316
#     4   9  20  39  59  78 103 140 184 224 267 320
#     4  10  22  35  52  81 113 144 178 221 267 318
#     4  11  23  34  49  82 118 144 175 218 271 327
#     4   9  19  37  59  79 101 138 187 230 270 321
#     4   8  15  30  53  77 101 136 179 218 259 310
#
# _framework density 18.519262999999999
#
# number of rings (size 3 to 8) (size 9 to 14) (size 15 to 20)
#    0.000    2.667    0.000    3.000    2.333    6.000 
#    0.000    5.833    0.000    0.000    0.000    1.167 
#    0.000    0.000    0.000    0.000    0.000    0.000 
#
# Total GULP energy -535658.921228 kJ/mol
# GULP energy per Si atom -5579.780429 kJ/mol
# Density = 1.847711 g / cm^3
# Si number density = 18.519263 Si / 1000 Ang^3
#
#
#
# Elastic Constant Matrix: (Units=GPa)
#
#
# Indices 1 2 3 4 5 6 
#
# 1 -517.5962 817.0225 25.1636 0.0000 0.0000 0.0000
# 2 817.0225 -517.5962 25.1636 0.0000 0.0000 0.0000
# 3 25.1636 25.1636 6.3673 0.0000 0.0000 0.0000
# 4 0.0000 0.0000 0.0000 27.4690 0.0000 0.0000
# 5 0.0000 0.0000 0.0000 0.0000 27.4690 0.0000
# 6 0.0000 0.0000 0.0000 0.0000 0.0000 15.8005
#
#
#
# Elastic Compliance Matrix: (Units=1/GPa)
#
#
# Indices 1 2 3 4 5 6 
#
# 1 0.004599 0.005348 -0.039311 0.000000 0.000000 0.000000
# 2 0.005348 0.004599 -0.039311 0.000000 0.000000 0.000000
# 3 -0.039311 -0.039311 0.467771 0.000000 0.000000 0.000000
# 4 0.000000 0.000000 0.000000 0.036405 0.000000 0.000000
# 5 0.000000 0.000000 0.000000 0.000000 0.036405 0.000000
# 6 0.000000 0.000000 0.000000 0.000000 0.000000 0.063289
#
#
# Mechanical properties :
#
#
# Convention : Reuss Voigt Hill
#
# Bulk Modulus (GPa) = 3.02645 78.43048 40.72847
# Shear Modulus (GPa) = 5.74874 -112.26397 -53.25761
#
# Velocity S-wave (km/s) = 1.76378 -7.79434 -5.36846
# Velocity P-wave (km/s) = 2.40534 6.20964 4.04808
#
# Compressibility (1/GPa) = 0.33041991
#
# Stress axis : x y z
#
# Youngs Moduli (GPa) = 217.44235 217.44235 2.13780
#
# Poissons Ratio (x) = -1.16292 0.08404
# Poissons Ratio (y) = -1.16292 0.08404
# Poissons Ratio (z) = 8.54793 8.54793
#
# Static dielectric constant tensor:
#      x y z
#    x 1.624020 0.000000 0.000000 
#    y 0.000000 1.624020 0.000000 
#    z 0.000000 0.000000 1.639130 
# 
# From -- ./inp_files/2007.got.cif
#   From: 2010.05.17/outbox.cif.g08.bks.cpg/sg127_2_cif.got.tgz:2007.got - 2010.05.20 12:03:00.
