data_PCOD9564885
_publ_section_title
;
Structure prediction by ZEFSAII (Michael W. Deem and Ramdas Pophale) SiO2 
 PCOD9564885
Probable space group: P 4/M N C
;
_chemical_formula_sum "Si O2"
_cell_formula_units_Z 72
_cell_length_a 21.610182
_cell_length_b 21.610182
_cell_length_c 7.518813
_cell_angle_alpha 90.000000
_cell_angle_beta 90.000000
_cell_angle_gamma 90.000000
_cell_volume 3511.285416
_symmetry_space_group_name_H-M "P 4/M N C"
_symmetry_group_IT_number 128
_symmetry_cell_setting 'tetragonal'
loop_
_space_group_symop_operation_xyz
x,y,z
-y,x,z
-x,-y,z
y,-x,z
1/2+x,1/2-y,1/2-z
1/2-x,1/2+y,1/2-z
1/2+y,1/2+x,1/2-z
1/2-y,1/2-x,1/2-z
-x,-y,-z
y,-x,-z
x,y,-z
-y,x,-z
1/2-x,1/2+y,1/2+z
1/2+x,1/2-y,1/2+z
1/2-y,1/2-x,1/2+z
1/2+y,1/2+x,1/2+z
loop_
_atom_site_type_symbol
_atom_site_label
_atom_site_fract_x
_atom_site_fract_y
_atom_site_fract_z
Si Si1 0.182065 0.420318 0.787707
Si Si2 0.536985 0.402990 0.500000
Si Si3 0.243969 0.156107 0.712446
Si Si4 0.843449 0.442907 0.786542
Si Si5 0.676574 0.603804 0.216008
O O1 0.133434 0.366567 0.750000
O O2 0.160988 0.487393 0.717660
O O3 0.251667 0.404491 0.731764
O O4 0.185060 0.425518 0.000000
O O5 0.577123 0.465793 0.500000
O O6 0.555200 0.363867 0.325496
O O7 0.279961 0.220040 0.750000
O O8 0.241696 0.149792 0.500000
O O9 0.287787 0.101013 0.782437
O O10 0.173226 0.156640 0.771380
O O11 0.907088 0.407088 0.750000
O O12 0.837114 0.444918 0.000000
O O13 0.670768 0.597404 0.000000
#
# Coordination Sequence:
#
# PCOD9564885 Si02
#       5
#    16   8  16  16  16
#     4  10  22  38  59  88 125 165 212 262 316 380
#     4  11  28  48  66 100 130 157 215 261 305 391
#     4   9  18  33  57  87 121 160 208 262 317 371
#     4   9  19  36  55  84 119 160 213 256 306 378
#     4  10  23  42  67  94 127 169 205 261 322 375
#
# _framework density 20.505310000000001
#
# number of rings (size 3 to 8) (size 9 to 14) (size 15 to 20)
#    0.000    2.333    0.000    0.667    6.222    2.222 
#    0.000    3.333    0.000    0.000    0.000    0.000 
#    0.000    0.000    0.000    0.000    0.000    0.000 
#
# Total GULP energy -402066.822138 kJ/mol
# GULP energy per Si atom -5584.261419 kJ/mol
# Density = 2.045864 g / cm^3
# Si number density = 20.505310 Si / 1000 Ang^3
#
#
#
# Elastic Constant Matrix: (Units=GPa)
#
#
# Indices 1 2 3 4 5 6 
#
# 1 166.0256 41.9108 25.7950 0.0000 0.0000 0.0000
# 2 41.9108 165.9915 25.7873 0.0000 0.0000 0.0000
# 3 25.7950 25.7873 66.5030 0.0000 0.0000 0.0000
# 4 0.0000 0.0000 0.0000 281.9241 0.0000 0.0000
# 5 0.0000 0.0000 0.0000 0.0000 282.5966 0.0000
# 6 0.0000 0.0000 0.0000 0.0000 0.0000 19.5580
#
#
#
# Elastic Compliance Matrix: (Units=1/GPa)
#
#
# Indices 1 2 3 4 5 6 
#
# 1 0.006689 -0.001368 -0.002064 0.000000 0.000000 0.000000
# 2 -0.001368 0.006690 -0.002064 0.000000 0.000000 0.000000
# 3 -0.002064 -0.002064 0.016638 0.000000 0.000000 0.000000
# 4 0.000000 0.000000 0.000000 0.003547 0.000000 0.000000
# 5 0.000000 0.000000 0.000000 0.000000 0.003539 0.000000
# 6 0.000000 0.000000 0.000000 0.000000 0.000000 0.051130
#
#
# Mechanical properties :
#
#
# Convention : Reuss Voigt Hill
#
# Bulk Modulus (GPa) = 52.56083 65.05629 58.80856
# Shear Modulus (GPa) = 47.36339 137.15087 92.25713
#
# Velocity S-wave (km/s) = 4.81126 8.18723 6.71487
# Velocity P-wave (km/s) = 7.52016 11.00771 9.42663
#
# Compressibility (1/GPa) = 0.01902557
#
# Stress axis : x y z
#
# Youngs Moduli (GPa) = 149.49339 149.46643 60.10454
#
# Poissons Ratio (x) = 0.20451 0.12406
# Poissons Ratio (y) = 0.20455 0.12403
# Poissons Ratio (z) = 0.30856 0.30844
#
# Static dielectric constant tensor:
#      x y z
#    x 1.728600 0.000000 0.000000 
#    y 0.000000 1.728610 0.000000 
#    z 0.000000 0.000000 1.772170 
# 
# From -- ./inp_files/1158.got.cif
#   From: 2010.05.17/outbox.cif.g08.bks.cpg/sg128_1_cif.got.tgz:1158.got - 2010.05.20 12:07:25.
