data_PCOD9564556
_publ_section_title
;
Structure prediction by ZEFSAII (Michael W. Deem and Ramdas Pophale) SiO2 
 PCOD9564556
Probable space group: P 4/M N C
;
_chemical_formula_sum "Si O2"
_cell_formula_units_Z 40
_cell_length_a 12.278141
_cell_length_b 12.278141
_cell_length_c 10.944757
_cell_angle_alpha 90.000000
_cell_angle_beta 90.000000
_cell_angle_gamma 90.000000
_cell_volume 1649.952177
_symmetry_space_group_name_H-M "P 4/M N C"
_symmetry_group_IT_number 128
_symmetry_cell_setting 'tetragonal'
loop_
_space_group_symop_operation_xyz
x,y,z
-y,x,z
-x,-y,z
y,-x,z
1/2+x,1/2-y,1/2-z
1/2-x,1/2+y,1/2-z
1/2+y,1/2+x,1/2-z
1/2-y,1/2-x,1/2-z
-x,-y,-z
y,-x,-z
x,y,-z
-y,x,-z
1/2-x,1/2+y,1/2+z
1/2+x,1/2-y,1/2+z
1/2-y,1/2-x,1/2+z
1/2+y,1/2+x,1/2+z
loop_
_atom_site_type_symbol
_atom_site_label
_atom_site_fract_x
_atom_site_fract_y
_atom_site_fract_z
Si Si1 0.875083 0.375083 0.750000
Si Si2 0.816954 0.152331 0.367280
Si Si3 0.569662 0.235842 0.634092
O O1 0.868718 0.269926 0.661093
O O2 0.854828 0.482078 0.671816
O O3 0.850675 0.109651 0.500000
O O4 0.687805 0.179758 0.374939
O O5 0.823017 0.080845 0.244283
O O6 0.542106 0.280813 0.500000
#
# Coordination Sequence:
#
# PCOD9564556 Si02
#       3
#     8  16  16
#     4  10  18  31  54  77  98 132 168 202 246 298
#     4   9  20  35  49  73 106 132 163 209 250 291
#     4   9  18  32  51  74 101 133 167 203 246 296
#
# _framework density 24.243130000000001
#
# number of rings (size 3 to 8) (size 9 to 14) (size 15 to 20)
#    0.000    3.200    0.000    1.200    0.000    8.000 
#    0.000   10.000    0.000   19.200    0.000   67.200 
#    0.000    0.000    0.000    0.000    0.000    0.000 
#
# Total GULP energy -223122.881564 kJ/mol
# GULP energy per Si atom -5578.072039 kJ/mol
# Density = 2.418795 g / cm^3
# Si number density = 24.243130 Si / 1000 Ang^3
#
#
#
# Elastic Constant Matrix: (Units=GPa)
#
#
# Indices 1 2 3 4 5 6 
#
# 1 71.4678 12.8004 6.1302 0.0000 0.0000 0.0000
# 2 12.8004 71.4678 6.1302 0.0000 0.0000 0.0000
# 3 6.1302 6.1302 257.7528 0.0000 0.0000 0.0000
# 4 0.0000 0.0000 0.0000 -29.4006 0.0000 0.0000
# 5 0.0000 0.0000 0.0000 0.0000 -29.4006 0.0000
# 6 0.0000 0.0000 0.0000 0.0000 0.0000 13.3127
#
#
#
# Elastic Compliance Matrix: (Units=1/GPa)
#
#
# Indices 1 2 3 4 5 6 
#
# 1 0.014477 -0.002569 -0.000283 0.000000 0.000000 0.000000
# 2 -0.002569 0.014477 -0.000283 0.000000 0.000000 0.000000
# 3 -0.000283 -0.000283 0.003893 0.000000 0.000000 0.000000
# 4 0.000000 0.000000 0.000000 -0.034013 0.000000 0.000000
# 5 0.000000 0.000000 0.000000 0.000000 -0.034013 0.000000
# 6 0.000000 0.000000 0.000000 0.000000 0.000000 0.075116
#
#
# Mechanical properties :
#
#
# Convention : Reuss Voigt Hill
#
# Bulk Modulus (GPa) = 37.62729 50.09001 43.85865
# Shear Modulus (GPa) = 90.80026 15.94414 53.37220
#
# Velocity S-wave (km/s) = 6.12661 2.56730 4.69715
# Velocity P-wave (km/s) = 8.09948 5.43088 6.89551
#
# Compressibility (1/GPa) = 0.02657646
#
# Stress axis : x y z
#
# Youngs Moduli (GPa) = 69.07669 69.07669 256.86093
#
# Poissons Ratio (x) = 0.17743 0.07275
# Poissons Ratio (y) = 0.17743 0.07275
# Poissons Ratio (z) = 0.01956 0.01956
#
# Static dielectric constant tensor:
#      x y z
#    x 1.925380 0.000000 0.000000 
#    y 0.000000 1.925380 0.000000 
#    z 0.000000 0.000000 2.068570 
# 
# From -- ./inp_files/2110.got.cif
#   From: 2010.05.17/outbox.cif.g08.bks.cpg/sg128_2_cif.got.tgz:2110.got - 2010.05.20 12:07:25.
