data_PCOD9564221
_publ_section_title
;
Structure prediction by ZEFSAII (Michael W. Deem and Ramdas Pophale) SiO2 
 PCOD9564221
Probable space group: P 4/M B M
;
_chemical_formula_sum "Si O2"
_cell_formula_units_Z 112
_cell_length_a 13.849877
_cell_length_b 13.849877
_cell_length_c 27.233679
_cell_angle_alpha 90.000000
_cell_angle_beta 90.000000
_cell_angle_gamma 90.000000
_cell_volume 5223.939603
_symmetry_space_group_name_H-M "P 4/M B M"
_symmetry_group_IT_number 127
_symmetry_cell_setting 'tetragonal'
loop_
_space_group_symop_operation_xyz
x,y,z
-y,x,z
-x,-y,z
y,-x,z
1/2+x,1/2-y,-z
1/2-x,1/2+y,-z
1/2+y,1/2+x,-z
1/2-y,1/2-x,-z
-x,-y,-z
y,-x,-z
x,y,-z
-y,x,-z
1/2-x,1/2+y,z
1/2+x,1/2-y,z
1/2-y,1/2-x,z
1/2+y,1/2+x,z
loop_
_atom_site_type_symbol
_atom_site_label
_atom_site_fract_x
_atom_site_fract_y
_atom_site_fract_z
Si Si1 0.006070 0.654784 0.906849
Si Si2 0.242852 0.096196 0.442747
Si Si3 0.099258 0.237379 0.612328
Si Si4 0.861077 0.803260 0.054033
Si Si5 0.338505 0.472154 0.283492
Si Si6 0.200865 0.549606 0.794361
Si Si7 0.629461 0.406254 0.845511
O O1 0.929979 0.570022 0.916330
O O2 0.959651 0.743648 0.935713
O O3 0.110996 0.610996 0.920288
O O4 0.006240 0.672822 0.847911
O O5 0.214458 0.097568 0.500000
O O6 0.338383 0.161618 0.437465
O O7 0.160765 0.148701 0.410344
O O8 0.260234 0.988242 0.424352
O O9 0.173584 0.326417 0.618163
O O10 0.050624 0.206012 0.663478
O O11 0.775505 0.724496 0.055926
O O12 0.848593 0.875383 0.099177
O O13 0.863366 0.847539 0.000000
O O14 0.424513 0.393549 0.277999
O O15 0.249686 0.478796 0.244939
O O16 0.108617 0.608617 0.775309
O O17 0.284668 0.626067 0.810625
O O18 0.626631 0.521055 0.836924
#
# Coordination Sequence:
#
# PCOD9564221 Si02
#       7
#    16  16  16  16  16  16  16
#     4   9  19  38  62  87 116 149 192 250 313 379
#     4  10  22  41  67 102 142 185 239 294 343 404
#     4  11  23  42  69 100 139 189 238 287 347 408
#     4  10  21  38  60  86 116 152 196 249 312 379
#     4  11  24  43  65  92 131 172 215 271 334 401
#     4  11  23  40  64  92 120 156 207 262 321 391
#     4  11  22  39  60  83 116 156 201 249 304 376
#
# _framework density 21.439758000000001
#
# number of rings (size 3 to 8) (size 9 to 14) (size 15 to 20)
#    0.000    1.571    2.857    1.714    0.000    5.143 
#    0.000    3.571    0.000    0.000    0.000    0.000 
#    0.000    0.000    0.000    0.000    0.000    0.000 
#
# Total GULP energy -625155.240647 kJ/mol
# GULP energy per Si atom -5581.743220 kJ/mol
# Density = 2.139096 g / cm^3
# Si number density = 21.439758 Si / 1000 Ang^3
#
#
#
# Elastic Constant Matrix: (Units=GPa)
#
#
# Indices 1 2 3 4 5 6 
#
# 1 67.4296 12.2073 17.6952 0.0000 0.0000 0.0000
# 2 12.2073 67.4296 17.6952 0.0000 0.0000 0.0000
# 3 17.6952 17.6952 98.8903 0.0000 0.0000 0.0000
# 4 0.0000 0.0000 0.0000 30.6708 0.0000 0.0000
# 5 0.0000 0.0000 0.0000 0.0000 30.6708 0.0000
# 6 0.0000 0.0000 0.0000 0.0000 0.0000 23.4581
#
#
#
# Elastic Compliance Matrix: (Units=1/GPa)
#
#
# Indices 1 2 3 4 5 6 
#
# 1 0.015875 -0.002233 -0.002441 0.000000 0.000000 0.000000
# 2 -0.002233 0.015875 -0.002441 0.000000 0.000000 0.000000
# 3 -0.002441 -0.002441 0.010986 0.000000 0.000000 0.000000
# 4 0.000000 0.000000 0.000000 0.032604 0.000000 0.000000
# 5 0.000000 0.000000 0.000000 0.000000 0.032604 0.000000
# 6 0.000000 0.000000 0.000000 0.000000 0.000000 0.042629
#
#
# Mechanical properties :
#
#
# Convention : Reuss Voigt Hill
#
# Bulk Modulus (GPa) = 35.08124 36.54941 35.81533
# Shear Modulus (GPa) = 28.68508 29.37006 29.02757
#
# Velocity S-wave (km/s) = 3.66175 3.70521 3.68355
# Velocity P-wave (km/s) = 5.85458 5.94889 5.90193
#
# Compressibility (1/GPa) = 0.02850526
#
# Stress axis : x y z
#
# Youngs Moduli (GPa) = 62.99135 62.99135 91.02663
#
# Poissons Ratio (x) = 0.14069 0.22220
# Poissons Ratio (y) = 0.14069 0.22220
# Poissons Ratio (z) = 0.15376 0.15376
#
# Static dielectric constant tensor:
#      x y z
#    x 1.807330 0.000000 0.000000 
#    y 0.000000 1.807330 0.000000 
#    z 0.000000 0.000000 1.778400 
# 
# From -- ./inp_files/6386.got.cif
#   From: 2010.05.17/outbox.cif.g08.bks.cpg/sg127_4_cif.got.tgz:6386.got - 2010.05.20 12:03:00.
