data_PCOD9564918
_publ_section_title
;
Structure prediction by ZEFSAII (Michael W. Deem and Ramdas Pophale) SiO2 
 PCOD9564918
Probable space group: P 4/M N C
;
_chemical_formula_sum "Si O2"
_cell_formula_units_Z 48
_cell_length_a 8.021978
_cell_length_b 8.021978
_cell_length_c 34.236709
_cell_angle_alpha 90.000000
_cell_angle_beta 90.000000
_cell_angle_gamma 90.000000
_cell_volume 2203.205184
_symmetry_space_group_name_H-M "P 4/M N C"
_symmetry_group_IT_number 128
_symmetry_cell_setting 'tetragonal'
loop_
_space_group_symop_operation_xyz
x,y,z
-y,x,z
-x,-y,z
y,-x,z
1/2+x,1/2-y,1/2-z
1/2-x,1/2+y,1/2-z
1/2+y,1/2+x,1/2-z
1/2-y,1/2-x,1/2-z
-x,-y,-z
y,-x,-z
x,y,-z
-y,x,-z
1/2-x,1/2+y,1/2+z
1/2+x,1/2-y,1/2+z
1/2-y,1/2-x,1/2+z
1/2+y,1/2+x,1/2+z
loop_
_atom_site_type_symbol
_atom_site_label
_atom_site_fract_x
_atom_site_fract_y
_atom_site_fract_z
Si Si1 0.735538 0.905452 0.289411
Si Si2 0.234762 0.591019 0.632086
Si Si3 0.086901 0.266948 0.000000
Si Si4 0.500000 0.000000 0.067078
O O1 0.638438 0.861563 0.250000
O O2 0.631388 0.856092 0.327480
O O3 0.904037 0.794681 0.289959
O O4 0.296777 0.400027 0.630182
O O5 0.111861 0.612535 0.595681
O O6 0.103332 0.379699 0.961625
O O7 0.895395 0.201281 0.000000
#
# Coordination Sequence:
#
# PCOD9564918 Si02
#       4
#    16  16   8   8
#     4  11  24  41  62  92 130 173 221 273 328 385
#     4  11  23  40  64  93 126 169 219 269 325 387
#     4  10  22  42  68  96 126 164 208 253 312 389
#     4  11  22  38  65  96 126 160 205 262 318 373
#
# _framework density 21.786439999999999
#
# number of rings (size 3 to 8) (size 9 to 14) (size 15 to 20)
#    0.000    1.167    0.000    6.000    0.000    8.667 
#    0.000    0.000    0.000   34.000    0.000    0.000 
#    0.000    0.000    0.000    0.000    0.000    0.000 
#
# Total GULP energy -268908.808793 kJ/mol
# GULP energy per Si atom -5602.266850 kJ/mol
# Density = 2.173685 g / cm^3
# Si number density = 21.786440 Si / 1000 Ang^3
#
#
#
# Elastic Constant Matrix: (Units=GPa)
#
#
# Indices 1 2 3 4 5 6 
#
# 1 122.3702 55.0862 74.9439 0.0000 0.0000 0.0000
# 2 55.0862 122.3694 74.9435 0.0000 0.0000 0.0000
# 3 74.9439 74.9435 220.2115 0.0000 0.0000 0.0000
# 4 0.0000 0.0000 0.0000 37.8314 0.0000 0.0000
# 5 0.0000 0.0000 0.0000 0.0000 37.8311 0.0000
# 6 0.0000 0.0000 0.0000 0.0000 0.0000 31.4673
#
#
#
# Elastic Compliance Matrix: (Units=1/GPa)
#
#
# Indices 1 2 3 4 5 6 
#
# 1 0.011385 -0.003477 -0.002691 0.000000 0.000000 0.000000
# 2 -0.003477 0.011386 -0.002691 0.000000 0.000000 0.000000
# 3 -0.002691 -0.002691 0.006373 0.000000 0.000000 0.000000
# 4 0.000000 0.000000 0.000000 0.026433 0.000000 0.000000
# 5 0.000000 0.000000 0.000000 0.000000 0.026433 0.000000
# 6 0.000000 0.000000 0.000000 0.000000 0.000000 0.031779
#
#
# Mechanical properties :
#
#
# Convention : Reuss Voigt Hill
#
# Bulk Modulus (GPa) = 87.53339 97.21093 92.37216
# Shear Modulus (GPa) = 36.95015 38.75777 37.85396
#
# Velocity S-wave (km/s) = 4.12274 4.22238 4.17286
# Velocity P-wave (km/s) = 7.93270 8.27575 8.10604
#
# Compressibility (1/GPa) = 0.01142421
#
# Stress axis : x y z
#
# Youngs Moduli (GPa) = 87.83116 87.83072 156.91062
#
# Poissons Ratio (x) = 0.30538 0.42232
# Poissons Ratio (y) = 0.30539 0.42232
# Poissons Ratio (z) = 0.23640 0.23639
#
# Static dielectric constant tensor:
#      x y z
#    x 1.798280 0.000000 0.000000 
#    y 0.000000 1.798280 0.000000 
#    z 0.000000 0.000000 1.754670 
# 
# From -- ./inp_files/7029.got.cif
#   From: 2010.05.17/outbox.cif.g08.bks.cpg/sg128_4_cif.got.tgz:7029.got - 2010.05.20 12:07:25.
