data_PCOD9564376
_publ_section_title
;
Structure prediction by ZEFSAII (Michael W. Deem and Ramdas Pophale) SiO2 
 PCOD9564376
Probable space group: P 4/M B M
;
_chemical_formula_sum "Si O2"
_cell_formula_units_Z 112
_cell_length_a 15.496736
_cell_length_b 15.496736
_cell_length_c 26.317504
_cell_angle_alpha 90.000000
_cell_angle_beta 90.000000
_cell_angle_gamma 90.000000
_cell_volume 6320.117706
_symmetry_space_group_name_H-M "P 4/M B M"
_symmetry_group_IT_number 127
_symmetry_cell_setting 'tetragonal'
loop_
_space_group_symop_operation_xyz
x,y,z
-y,x,z
-x,-y,z
y,-x,z
1/2+x,1/2-y,-z
1/2-x,1/2+y,-z
1/2+y,1/2+x,-z
1/2-y,1/2-x,-z
-x,-y,-z
y,-x,-z
x,y,-z
-y,x,-z
1/2-x,1/2+y,z
1/2+x,1/2-y,z
1/2-y,1/2-x,z
1/2+y,1/2+x,z
loop_
_atom_site_type_symbol
_atom_site_label
_atom_site_fract_x
_atom_site_fract_y
_atom_site_fract_z
Si Si1 0.496315 0.140829 0.333360
Si Si2 0.321872 0.318427 0.443149
Si Si3 0.969865 0.328046 0.555271
Si Si4 0.946010 0.863576 0.166953
Si Si5 0.054058 0.135997 0.945438
Si Si6 0.252001 0.394274 0.262761
Si Si7 0.884871 0.087279 0.653876
O O1 0.562764 0.062764 0.327284
O O2 0.514350 0.177096 0.390073
O O3 0.523081 0.206372 0.289465
O O4 0.400314 0.099687 0.331153
O O5 0.319124 0.355109 0.500000
O O6 0.233160 0.266841 0.432709
O O7 0.396569 0.245429 0.443831
O O8 0.348390 0.385374 0.400617
O O9 0.014742 0.323448 0.500000
O O10 0.919453 0.419453 0.556056
O O11 0.930705 0.825394 0.110243
O O12 0.919255 0.797662 0.210466
O O13 0.046464 0.892564 0.171633
O O14 0.953851 0.107027 0.945688
O O15 0.071722 0.180320 0.000000
O O16 0.181387 0.318614 0.257605
O O17 0.326441 0.369654 0.302974
O O18 0.983998 0.115685 0.658998
#
# Coordination Sequence:
#
# PCOD9564376 Si02
#       7
#    16  16  16  16  16  16  16
#     4   9  18  32  49  69  93 121 154 195 242 287
#     4   9  18  34  54  72  91 116 147 184 228 283
#     4   8  14  26  46  70  91 111 140 183 236 291
#     4   9  17  31  51  74 102 132 162 199 239 280
#     4   7  10  19  40  71 101 127 157 193 233 276
#     4  11  22  35  50  69  98 132 166 203 241 286
#     4  11  23  37  53  72  94 122 158 199 245 296
#
# _framework density 17.72119
#
# number of rings (size 3 to 8) (size 9 to 14) (size 15 to 20)
#    0.000    2.857    0.000    4.286    0.000    2.000 
#    0.000    7.143    0.000    1.286    0.000    0.000 
#    0.000    1.714    0.000    8.286    0.000    0.000 
#
# Total GULP energy -624124.595721 kJ/mol
# GULP energy per Si atom -5572.541033 kJ/mol
# Density = 1.768086 g / cm^3
# Si number density = 17.721190 Si / 1000 Ang^3
#
#
#
# Elastic Constant Matrix: (Units=GPa)
#
#
# Indices 1 2 3 4 5 6 
#
# 1 55.2949 23.8627 51.9210 0.0000 0.0000 0.0000
# 2 23.8627 55.2949 51.9210 0.0000 0.0000 0.0000
# 3 51.9210 51.9210 181.1061 0.0000 0.0000 0.0000
# 4 0.0000 0.0000 0.0000 24.2114 0.0000 0.0000
# 5 0.0000 0.0000 0.0000 0.0000 24.2114 0.0000
# 6 0.0000 0.0000 0.0000 0.0000 0.0000 17.5350
#
#
#
# Elastic Compliance Matrix: (Units=1/GPa)
#
#
# Indices 1 2 3 4 5 6 
#
# 1 0.026031 -0.005783 -0.005805 0.000000 0.000000 0.000000
# 2 -0.005783 0.026031 -0.005805 0.000000 0.000000 0.000000
# 3 -0.005805 -0.005805 0.008850 0.000000 0.000000 0.000000
# 4 0.000000 0.000000 0.000000 0.041303 0.000000 0.000000
# 5 0.000000 0.000000 0.000000 0.000000 0.041303 0.000000
# 6 0.000000 0.000000 0.000000 0.000000 0.000000 0.057029
#
#
# Mechanical properties :
#
#
# Convention : Reuss Voigt Hill
#
# Bulk Modulus (GPa) = 38.27505 60.78948 49.53227
# Shear Modulus (GPa) = 20.48828 24.12432 22.30630
#
# Velocity S-wave (km/s) = 3.40390 3.69362 3.55172
# Velocity P-wave (km/s) = 6.09049 7.25039 6.69561
#
# Compressibility (1/GPa) = 0.02612668
#
# Stress axis : x y z
#
# Youngs Moduli (GPa) = 38.41526 38.41526 112.99402
#
# Poissons Ratio (x) = 0.22216 0.65592
# Poissons Ratio (y) = 0.22216 0.65592
# Poissons Ratio (z) = 0.22300 0.22300
#
# Static dielectric constant tensor:
#      x y z
#    x 1.633890 0.000000 0.000000 
#    y 0.000000 1.633890 0.000000 
#    z 0.000000 0.000000 1.632660 
# 
# From -- ./inp_files/6378.got.cif
#   From: 2010.05.17/outbox.cif.g08.bks.cpg/sg127_4_cif.got.tgz:6378.got - 2010.05.20 12:03:00.
