data_PCOD9564264
_publ_section_title
;
Structure prediction by ZEFSAII (Michael W. Deem and Ramdas Pophale) SiO2 
 PCOD9564264
Probable space group: P 4/M B M
;
_chemical_formula_sum "Si O2"
_cell_formula_units_Z 72
_cell_length_a 20.706802
_cell_length_b 20.706802
_cell_length_c 7.380811
_cell_angle_alpha 90.000000
_cell_angle_beta 90.000000
_cell_angle_gamma 90.000000
_cell_volume 3164.682504
_symmetry_space_group_name_H-M "P 4/M B M"
_symmetry_group_IT_number 127
_symmetry_cell_setting 'tetragonal'
loop_
_space_group_symop_operation_xyz
x,y,z
-y,x,z
-x,-y,z
y,-x,z
1/2+x,1/2-y,-z
1/2-x,1/2+y,-z
1/2+y,1/2+x,-z
1/2-y,1/2-x,-z
-x,-y,-z
y,-x,-z
x,y,-z
-y,x,-z
1/2-x,1/2+y,z
1/2+x,1/2-y,z
1/2-y,1/2-x,z
1/2+y,1/2+x,z
loop_
_atom_site_type_symbol
_atom_site_label
_atom_site_fract_x
_atom_site_fract_y
_atom_site_fract_z
Si Si1 0.706565 0.956297 0.281254
Si Si2 0.003661 0.394943 0.000000
Si Si3 0.223153 0.921022 0.712814
Si Si4 0.308245 0.191756 0.719694
Si Si5 0.417119 0.439448 0.217256
Si Si6 0.797253 0.702748 0.722828
O O1 0.699626 0.956294 0.500000
O O2 0.646418 0.988243 0.178470
O O3 0.709844 0.881400 0.224443
O O4 0.763610 0.005614 0.224544
O O5 0.952295 0.452295 0.000000
O O6 0.074210 0.425791 0.000000
O O7 0.235476 0.922655 0.500000
O O8 0.148336 0.903052 0.735671
O O9 0.271573 0.866822 0.786450
O O10 0.307876 0.192125 0.500000
O O11 0.255909 0.244092 0.777313
O O12 0.485967 0.413045 0.282255
O O13 0.420294 0.440561 0.000000
O O14 0.798452 0.701549 0.500000
#
# Coordination Sequence:
#
# PCOD9564264 Si02
#       6
#    16   8  16   8  16   8
#     4  10  22  40  62  89 123 163 206 254 313 371
#     4  11  24  40  62  90 120 157 206 260 308 360
#     4  10  22  37  60  90 119 157 203 252 309 368
#     4   9  18  37  63  86 117 160 200 252 313 369
#     4   9  20  39  59  82 118 160 201 249 309 368
#     4   9  20  38  58  85 122 157 198 252 312 376
#
# _framework density 22.751097000000001
#
# number of rings (size 3 to 8) (size 9 to 14) (size 15 to 20)
#    0.000    2.333    1.111    0.667    6.222    1.333 
#    0.000    2.778    2.444    0.000    0.000    0.000 
#    0.000    0.000    0.000    0.000    0.000    0.000 
#
# Total GULP energy -401861.745950 kJ/mol
# GULP energy per Si atom -5581.413138 kJ/mol
# Density = 2.269931 g / cm^3
# Si number density = 22.751097 Si / 1000 Ang^3
#
#
#
# Elastic Constant Matrix: (Units=GPa)
#
#
# Indices 1 2 3 4 5 6 
#
# 1 80.4511 48.2338 -0.0392 0.0000 0.0000 0.0000
# 2 48.2338 80.4520 -0.0395 0.0000 0.0000 0.0000
# 3 -0.0392 -0.0395 77.2828 0.0000 0.0000 0.0000
# 4 0.0000 0.0000 0.0000 10.6752 0.0000 0.0000
# 5 0.0000 0.0000 0.0000 0.0000 10.6751 0.0000
# 6 0.0000 0.0000 0.0000 0.0000 0.0000 36.9177
#
#
#
# Elastic Compliance Matrix: (Units=1/GPa)
#
#
# Indices 1 2 3 4 5 6 
#
# 1 0.019405 -0.011634 0.000004 0.000000 0.000000 0.000000
# 2 -0.011634 0.019405 0.000004 0.000000 0.000000 0.000000
# 3 0.000004 0.000004 0.012939 0.000000 0.000000 0.000000
# 4 0.000000 0.000000 0.000000 0.093675 0.000000 0.000000
# 5 0.000000 0.000000 0.000000 0.000000 0.093676 0.000000
# 6 0.000000 0.000000 0.000000 0.000000 0.000000 0.027087
#
#
# Mechanical properties :
#
#
# Convention : Reuss Voigt Hill
#
# Bulk Modulus (GPa) = 35.09130 37.16625 36.12878
# Shear Modulus (GPa) = 16.72581 24.32230 20.52405
#
# Velocity S-wave (km/s) = 2.71433 3.27320 3.00678
# Velocity P-wave (km/s) = 5.02802 5.53684 5.28855
#
# Compressibility (1/GPa) = 0.02849709
#
# Stress axis : x y z
#
# Youngs Moduli (GPa) = 51.53321 51.53378 77.28282
#
# Poissons Ratio (x) = 0.59954 -0.00030
# Poissons Ratio (y) = 0.59954 -0.00031
# Poissons Ratio (z) = -0.00020 -0.00021
#
# Static dielectric constant tensor:
#      x y z
#    x 1.860860 0.000000 0.000000 
#    y 0.000000 1.860860 0.000000 
#    z 0.000000 0.000000 1.872030 
# 
# From -- ./inp_files/1651.got.cif
#   From: 2010.05.17/outbox.cif.g08.bks.cpg/sg127_1_cif.got.tgz:1651.got - 2010.05.20 12:03:00.
