data_PCOD9564938
_publ_section_title
;
Structure prediction by ZEFSAII (Michael W. Deem and Ramdas Pophale) SiO2 
 PCOD9564938
Probable space group: P 4/M N C
;
_chemical_formula_sum "Si O2"
_cell_formula_units_Z 88
_cell_length_a 11.887772
_cell_length_b 11.887772
_cell_length_c 30.833230
_cell_angle_alpha 90.000000
_cell_angle_beta 90.000000
_cell_angle_gamma 90.000000
_cell_volume 4357.325027
_symmetry_space_group_name_H-M "P 4/M N C"
_symmetry_group_IT_number 128
_symmetry_cell_setting 'tetragonal'
loop_
_space_group_symop_operation_xyz
x,y,z
-y,x,z
-x,-y,z
y,-x,z
1/2+x,1/2-y,1/2-z
1/2-x,1/2+y,1/2-z
1/2+y,1/2+x,1/2-z
1/2-y,1/2-x,1/2-z
-x,-y,-z
y,-x,-z
x,y,-z
-y,x,-z
1/2-x,1/2+y,1/2+z
1/2+x,1/2-y,1/2+z
1/2-y,1/2-x,1/2+z
1/2+y,1/2+x,1/2+z
loop_
_atom_site_type_symbol
_atom_site_label
_atom_site_fract_x
_atom_site_fract_y
_atom_site_fract_z
Si Si1 0.893217 0.843675 0.409290
Si Si2 0.866767 0.491431 0.630433
Si Si3 0.280597 0.864318 0.678644
Si Si4 0.809124 0.995470 0.949274
Si Si5 0.185487 0.615368 0.205015
Si Si6 0.391759 0.658261 0.000000
O O1 0.857303 0.779586 0.367672
O O2 0.855988 0.789358 0.454777
O O3 0.028533 0.850705 0.408544
O O4 0.840625 0.591754 0.664697
O O5 0.787046 0.492152 0.588036
O O6 0.856054 0.383551 0.661359
O O7 0.000000 0.500000 0.618098
O O8 0.209577 0.780862 0.707757
O O9 0.271018 0.989444 0.697514
O O10 0.893954 0.888658 0.944001
O O11 0.768957 0.993813 0.000000
O O12 0.117300 0.617300 0.250000
O O13 0.351470 0.527887 0.000000
#
# Coordination Sequence:
#
# PCOD9564938 Si02
#       6
#    16  16  16  16  16   8
#     4   9  15  29  53  84 118 156 200 249 291 343
#     4  10  23  40  61  89 128 167 200 249 318 385
#     4  11  22  40  65  87 124 162 201 252 309 361
#     4   9  18  37  67  94 120 163 217 268 306 349
#     4  11  26  42  65  91 118 159 206 253 314 374
#     4   7  12  22  44  76 115 151 187 238 293 338
#
# _framework density 20.195878
#
# number of rings (size 3 to 8) (size 9 to 14) (size 15 to 20)
#    0.000    2.273    1.818    2.727    2.545    3.273 
#    1.636    0.000    4.000    0.000    0.000    0.000 
#    0.000    0.000    0.000    0.000    0.000    0.000 
#
# Total GULP energy -490641.154669 kJ/mol
# GULP energy per Si atom -5575.467667 kJ/mol
# Density = 2.014991 g / cm^3
# Si number density = 20.195878 Si / 1000 Ang^3
#
#
#
# Elastic Constant Matrix: (Units=GPa)
#
#
# Indices 1 2 3 4 5 6 
#
# 1 95.5226 41.0529 50.8663 0.0000 0.0000 0.0000
# 2 41.0529 95.5226 50.8663 0.0000 0.0000 0.0000
# 3 50.8663 50.8663 138.6518 0.0000 0.0000 0.0000
# 4 0.0000 0.0000 0.0000 75.4660 0.0000 0.0000
# 5 0.0000 0.0000 0.0000 0.0000 75.4660 0.0000
# 6 0.0000 0.0000 0.0000 0.0000 0.0000 23.2059
#
#
#
# Elastic Compliance Matrix: (Units=1/GPa)
#
#
# Indices 1 2 3 4 5 6 
#
# 1 0.014217 -0.004142 -0.003696 0.000000 0.000000 0.000000
# 2 -0.004142 0.014217 -0.003696 0.000000 0.000000 0.000000
# 3 -0.003696 -0.003696 0.009924 0.000000 0.000000 0.000000
# 4 0.000000 0.000000 0.000000 0.013251 0.000000 0.000000
# 5 0.000000 0.000000 0.000000 0.000000 0.013251 0.000000
# 6 0.000000 0.000000 0.000000 0.000000 0.000000 0.043092
#
#
# Mechanical properties :
#
#
# Convention : Reuss Voigt Hill
#
# Bulk Modulus (GPa) = 65.40289 68.36311 66.88300
# Shear Modulus (GPa) = 36.73286 47.28835 42.01060
#
# Velocity S-wave (km/s) = 4.26940 4.84414 4.56582
# Velocity P-wave (km/s) = 7.53381 8.07534 7.80927
#
# Compressibility (1/GPa) = 0.01528984
#
# Stress axis : x y z
#
# Youngs Moduli (GPa) = 70.33826 70.33826 100.76236
#
# Poissons Ratio (x) = 0.29133 0.37244
# Poissons Ratio (y) = 0.29133 0.37244
# Poissons Ratio (z) = 0.25999 0.25999
#
# Static dielectric constant tensor:
#      x y z
#    x 1.778830 0.000000 0.000000 
#    y 0.000000 1.778830 0.000000 
#    z 0.000000 0.000000 1.721640 
# 
# From -- ./inp_files/7239.got.cif
#   From: 2010.05.17/outbox.cif.g08.bks.cpg/sg128_4_cif.got.tgz:7239.got - 2010.05.20 12:07:25.
