data_PCOD9564726
_publ_section_title
;
Structure prediction by ZEFSAII (Michael W. Deem and Ramdas Pophale) SiO2 
 PCOD9564726
Probable space group: P 4/M N C
;
_chemical_formula_sum "Si O2"
_cell_formula_units_Z 88
_cell_length_a 17.738641
_cell_length_b 17.738641
_cell_length_c 16.366628
_cell_angle_alpha 90.000000
_cell_angle_beta 90.000000
_cell_angle_gamma 90.000000
_cell_volume 5149.913093
_symmetry_space_group_name_H-M "P 4/M N C"
_symmetry_group_IT_number 128
_symmetry_cell_setting 'tetragonal'
loop_
_space_group_symop_operation_xyz
x,y,z
-y,x,z
-x,-y,z
y,-x,z
1/2+x,1/2-y,1/2-z
1/2-x,1/2+y,1/2-z
1/2+y,1/2+x,1/2-z
1/2-y,1/2-x,1/2-z
-x,-y,-z
y,-x,-z
x,y,-z
-y,x,-z
1/2-x,1/2+y,1/2+z
1/2+x,1/2-y,1/2+z
1/2-y,1/2-x,1/2+z
1/2+y,1/2+x,1/2+z
loop_
_atom_site_type_symbol
_atom_site_label
_atom_site_fract_x
_atom_site_fract_y
_atom_site_fract_z
Si Si1 0.415643 0.593762 0.500000
Si Si2 0.699741 0.280165 0.096774
Si Si3 0.737694 0.553683 0.792474
Si Si4 0.605965 0.772289 0.222698
Si Si5 0.001473 0.874178 0.413419
Si Si6 0.158239 0.177367 0.151607
O O1 0.397516 0.505419 0.500000
O O2 0.381036 0.632324 0.420277
O O3 0.621407 0.255498 0.141110
O O4 0.735475 0.353849 0.141942
O O5 0.759365 0.213930 0.115255
O O6 0.690127 0.291615 0.000000
O O7 0.793789 0.482631 0.783682
O O8 0.669226 0.505387 0.829958
O O9 0.717535 0.596583 0.709653
O O10 0.656353 0.843648 0.250000
O O11 0.622539 0.709258 0.292205
O O12 0.002014 0.830314 0.500000
O O13 0.072627 0.928433 0.414479
#
# Coordination Sequence:
#
# PCOD9564726 Si02
#       6
#     8  16  16  16  16  16
#     4  11  22  34  54  82 106 136 178 219 264 320
#     4  10  20  35  55  77 106 144 178 217 266 328
#     4  11  19  30  52  77  99 135 180 221 259 313
#     4   9  20  35  53  78 109 139 176 222 272 320
#     4   9  17  27  40  67 108 142 161 192 251 316
#     4  10  20  37  52  73 108 144 178 214 265 322
#
# _framework density 17.087667
#
# number of rings (size 3 to 8) (size 9 to 14) (size 15 to 20)
#    0.000    2.091    0.909    6.000    0.000    2.909 
#    0.000    1.818    0.000    2.182    0.000    1.273 
#    0.000    0.000    0.000    0.000    0.000    0.000 
#
# Total GULP energy -490200.167851 kJ/mol
# GULP energy per Si atom -5570.456453 kJ/mol
# Density = 1.704877 g / cm^3
# Si number density = 17.087667 Si / 1000 Ang^3
#
#
#
# Elastic Constant Matrix: (Units=GPa)
#
#
# Indices 1 2 3 4 5 6 
#
# 1 69.8406 36.7118 37.5388 0.0000 0.0000 0.0000
# 2 36.7118 69.8404 37.5383 0.0000 0.0000 0.0000
# 3 37.5388 37.5383 129.9884 0.0000 0.0000 0.0000
# 4 0.0000 0.0000 0.0000 21.0891 0.0000 0.0000
# 5 0.0000 0.0000 0.0000 0.0000 21.0896 0.0000
# 6 0.0000 0.0000 0.0000 0.0000 0.0000 9.5525
#
#
#
# Elastic Compliance Matrix: (Units=1/GPa)
#
#
# Indices 1 2 3 4 5 6 
#
# 1 0.020984 -0.009201 -0.003403 0.000000 0.000000 0.000000
# 2 -0.009201 0.020984 -0.003403 0.000000 0.000000 0.000000
# 3 -0.003403 -0.003403 0.009658 0.000000 0.000000 0.000000
# 4 0.000000 0.000000 0.000000 0.047418 0.000000 0.000000
# 5 0.000000 0.000000 0.000000 0.000000 0.047417 0.000000
# 6 0.000000 0.000000 0.000000 0.000000 0.000000 0.104685
#
#
# Mechanical properties :
#
#
# Convention : Reuss Voigt Hill
#
# Bulk Modulus (GPa) = 50.98687 54.80524 52.89606
# Shear Modulus (GPa) = 17.25947 20.87161 19.06554
#
# Velocity S-wave (km/s) = 3.18158 3.49871 3.34391
# Velocity P-wave (km/s) = 6.58785 6.96160 6.77730
#
# Compressibility (1/GPa) = 0.01961289
#
# Stress axis : x y z
#
# Youngs Moduli (GPa) = 47.65546 47.65555 103.53860
#
# Poissons Ratio (x) = 0.43850 0.35231
# Poissons Ratio (y) = 0.43850 0.35230
# Poissons Ratio (z) = 0.16216 0.16215
#
# Static dielectric constant tensor:
#      x y z
#    x 1.615170 0.000000 0.000000 
#    y 0.000000 1.615170 0.000000 
#    z 0.000000 0.000000 1.606640 
# 
# From -- ./inp_files/3846.got.cif
#   From: 2010.05.17/outbox.cif.g08.bks.cpg/sg128_2_cif.got.tgz:3846.got - 2010.05.20 12:07:25.
