data_PCOD9564287
_publ_section_title
;
Structure prediction by ZEFSAII (Michael W. Deem and Ramdas Pophale) SiO2 
 PCOD9564287
Probable space group: P 4/M B M
;
_chemical_formula_sum "Si O2"
_cell_formula_units_Z 88
_cell_length_a 13.995405
_cell_length_b 13.995405
_cell_length_c 21.509136
_cell_angle_alpha 90.000000
_cell_angle_beta 90.000000
_cell_angle_gamma 90.000000
_cell_volume 4213.023745
_symmetry_space_group_name_H-M "P 4/M B M"
_symmetry_group_IT_number 127
_symmetry_cell_setting 'tetragonal'
loop_
_space_group_symop_operation_xyz
x,y,z
-y,x,z
-x,-y,z
y,-x,z
1/2+x,1/2-y,-z
1/2-x,1/2+y,-z
1/2+y,1/2+x,-z
1/2-y,1/2-x,-z
-x,-y,-z
y,-x,-z
x,y,-z
-y,x,-z
1/2-x,1/2+y,z
1/2+x,1/2-y,z
1/2-y,1/2-x,z
1/2+y,1/2+x,z
loop_
_atom_site_type_symbol
_atom_site_label
_atom_site_fract_x
_atom_site_fract_y
_atom_site_fract_z
Si Si1 0.341440 0.003766 0.500000
Si Si2 0.851018 0.506605 0.074825
Si Si3 0.923866 0.737840 0.626778
Si Si4 0.303587 0.641246 0.930290
Si Si5 0.390826 0.617022 0.198550
Si Si6 0.874690 0.220670 0.679220
O O1 0.428881 0.928881 0.500000
O O2 0.282571 0.976482 0.561462
O O3 0.391369 0.108632 0.500000
O O4 0.890428 0.609573 0.096393
O O5 0.749251 0.459207 0.083806
O O6 0.928298 0.428298 0.097681
O O7 0.857748 0.507907 0.000000
O O8 0.854228 0.645773 0.640665
O O9 0.853355 0.829215 0.629382
O O10 0.012898 0.759991 0.672169
O O11 0.221469 0.721469 0.933748
O O12 0.363642 0.657068 0.868859
O O13 0.348306 0.638691 0.000000
O O14 0.371714 0.503710 0.203972
O O15 0.327629 0.655608 0.255239
O O16 0.820195 0.320195 0.672311
#
# Coordination Sequence:
#
# PCOD9564287 Si02
#       6
#     8  16  16  16  16  16
#     4   9  18  36  62  97 143 179 210 265 327 383
#     4   7  10  20  41  68  98 131 164 206 275 362
#     4  10  22  39  64  99 134 178 227 269 328 393
#     4   9  18  34  56  82 111 142 186 249 321 395
#     4  11  23  40  60  80 110 157 209 265 319 389
#     4  11  22  40  66  91 127 173 220 278 326 385
#
# _framework density 20.887609000000001
#
# number of rings (size 3 to 8) (size 9 to 14) (size 15 to 20)
#    0.000    2.455    1.818    2.727    0.000    2.909 
#    0.000    5.455    0.000    5.455    0.000    0.000 
#    0.000    0.000    0.000    0.000    0.000    0.000 
#
# Total GULP energy -490007.761766 kJ/mol
# GULP energy per Si atom -5568.270020 kJ/mol
# Density = 2.084007 g / cm^3
# Si number density = 20.887609 Si / 1000 Ang^3
#
#
#
# Elastic Constant Matrix: (Units=GPa)
#
#
# Indices 1 2 3 4 5 6 
#
# 1 62.2729 48.4783 25.4723 0.0000 0.0000 0.0000
# 2 48.4783 62.2727 25.4722 0.0000 0.0000 0.0000
# 3 25.4723 25.4722 97.3006 0.0000 0.0000 0.0000
# 4 0.0000 0.0000 0.0000 25.6910 0.0000 0.0000
# 5 0.0000 0.0000 0.0000 0.0000 25.6912 0.0000
# 6 0.0000 0.0000 0.0000 0.0000 0.0000 29.4446
#
#
#
# Elastic Compliance Matrix: (Units=1/GPa)
#
#
# Indices 1 2 3 4 5 6 
#
# 1 0.041379 -0.031114 -0.002687 0.000000 0.000000 0.000000
# 2 -0.031114 0.041379 -0.002687 0.000000 0.000000 0.000000
# 3 -0.002687 -0.002687 0.011684 0.000000 0.000000 0.000000
# 4 0.000000 0.000000 0.000000 0.038924 0.000000 0.000000
# 5 0.000000 0.000000 0.000000 0.000000 0.038924 0.000000
# 6 0.000000 0.000000 0.000000 0.000000 0.000000 0.033962
#
#
# Mechanical properties :
#
#
# Convention : Reuss Voigt Hill
#
# Bulk Modulus (GPa) = 46.58566 46.74351 46.66458
# Shear Modulus (GPa) = 17.45905 24.32693 20.89299
#
# Velocity S-wave (km/s) = 2.89426 3.41641 3.16612
# Velocity P-wave (km/s) = 5.78968 6.16357 5.97955
#
# Compressibility (1/GPa) = 0.02146583
#
# Stress axis : x y z
#
# Youngs Moduli (GPa) = 24.16685 24.16683 85.58359
#
# Poissons Ratio (x) = 0.75192 0.23000
# Poissons Ratio (y) = 0.75192 0.22999
# Poissons Ratio (z) = 0.06495 0.06494
#
# Static dielectric constant tensor:
#      x y z
#    x 1.799250 0.000000 0.000000 
#    y 0.000000 1.799250 0.000000 
#    z 0.000000 0.000000 1.764160 
# 
# From -- ./inp_files/5670.got.cif
#   From: 2010.05.17/outbox.cif.g08.bks.cpg/sg127_3_cif.got.tgz:5670.got - 2010.05.20 12:03:00.
