data_PCOD9564518
_publ_section_title
;
Structure prediction by ZEFSAII (Michael W. Deem and Ramdas Pophale) SiO2 
 PCOD9564518
Probable space group: P 4/M B M
;
_chemical_formula_sum "Si O2"
_cell_formula_units_Z 96
_cell_length_a 24.000000
_cell_length_b 24.000000
_cell_length_c 9.000000
_cell_angle_alpha 90.000000
_cell_angle_beta 90.000000
_cell_angle_gamma 90.000000
_cell_volume 5184.000000
_symmetry_space_group_name_H-M "P 4/M B M"
_symmetry_group_IT_number 127
_symmetry_cell_setting 'tetragonal'
loop_
_space_group_symop_operation_xyz
x,y,z
-y,x,z
-x,-y,z
y,-x,z
1/2+x,1/2-y,-z
1/2-x,1/2+y,-z
1/2+y,1/2+x,-z
1/2-y,1/2-x,-z
-x,-y,-z
y,-x,-z
x,y,-z
-y,x,-z
1/2-x,1/2+y,z
1/2+x,1/2-y,z
1/2-y,1/2-x,z
1/2+y,1/2+x,z
loop_
_atom_site_type_symbol
_atom_site_label
_atom_site_fract_x
_atom_site_fract_y
_atom_site_fract_z
Si Si1 0.500640 0.909104 0.178632
Si Si2 0.514849 0.790251 0.676633
Si Si3 0.724127 0.683858 0.826833
Si Si4 0.303274 0.428288 0.676171
Si Si5 0.461199 0.581837 0.178720
Si Si6 0.777090 0.369241 0.826457
O O1 0.555881 0.944120 0.221684
O O2 0.499132 0.849111 0.251342
O O3 0.448023 0.948023 0.217521
O O4 0.501671 0.903700 0.000000
O O5 0.510362 0.794871 0.500000
O O6 0.474594 0.740742 0.728306
O O7 0.577406 0.776151 0.724343
O O8 0.778327 0.721674 0.801710
O O9 0.720122 0.631484 0.721845
O O10 0.671205 0.724447 0.805871
O O11 0.724056 0.666226 0.000000
O O12 0.309357 0.432803 0.500000
O O13 0.362890 0.437240 0.750800
O O14 0.428180 0.525726 0.221349
O O15 0.459029 0.585725 0.000000
O O16 0.831581 0.331581 0.799015
O O17 0.778553 0.386328 0.000000
#
# Coordination Sequence:
#
# PCOD9564518 Si02
#       6
#    16  16  16  16  16  16
#     4   9  19  37  60  84 110 144 189 239 287 333
#     4  11  24  37  51  81 120 153 186 225 274 336
#     4   9  20  40  63  85 109 143 192 242 285 332
#     4  11  25  39  54  83 122 158 190 229 282 345
#     4   9  20  40  64  88 112 143 190 244 292 339
#     4   9  19  37  61  86 110 140 183 237 287 328
#
# _framework density 18.518519000000001
#
# number of rings (size 3 to 8) (size 9 to 14) (size 15 to 20)
#    0.000    2.333    0.000    3.500    2.333    8.000 
#    0.000    6.667    0.000    0.000    0.000    0.000 
#    0.000    0.000    0.000    0.000    0.000    0.000 
#
# Total GULP energy -536000.298217 kJ/mol
# GULP energy per Si atom -5583.336440 kJ/mol
# Density = 1.847637 g / cm^3
# Si number density = 18.518519 Si / 1000 Ang^3
#
#
#
# Elastic Constant Matrix: (Units=GPa)
#
#
# Indices 1 2 3 4 5 6 
#
# 1 32.8863 -21.1918 10.7076 0.0000 0.0000 0.0000
# 2 -21.1918 32.8863 10.7076 0.0000 0.0000 0.0000
# 3 10.7076 10.7076 7.5303 0.0000 0.0000 0.0000
# 4 0.0000 0.0000 0.0000 56.3431 0.0000 0.0000
# 5 0.0000 0.0000 0.0000 0.0000 56.3431 0.0000
# 6 0.0000 0.0000 0.0000 0.0000 0.0000 -1.9683
#
#
#
# Elastic Compliance Matrix: (Units=1/GPa)
#
#
# Indices 1 2 3 4 5 6 
#
# 1 -0.017412 -0.035903 0.075810 0.000000 0.000000 0.000000
# 2 -0.035903 -0.017412 0.075810 0.000000 0.000000 0.000000
# 3 0.075810 0.075810 -0.082798 0.000000 0.000000 0.000000
# 4 0.000000 0.000000 0.000000 0.017748 0.000000 0.000000
# 5 0.000000 0.000000 0.000000 0.000000 0.017748 0.000000
# 6 0.000000 0.000000 0.000000 0.000000 0.000000 -0.508065
#
#
# Mechanical properties :
#
#
# Convention : Reuss Voigt Hill
#
# Bulk Modulus (GPa) = 8.78632 8.19444 8.49038
# Shear Modulus (GPa) = -6.38011 27.01556 10.31773
#
# Velocity S-wave (km/s) = -1.85815 3.82362 2.36298
# Velocity P-wave (km/s) = 0.38893 4.89163 3.46982
#
# Compressibility (1/GPa) = 0.11381324
#
# Stress axis : x y z
#
# Youngs Moduli (GPa) = -57.43276 -57.43276 -12.07761
#
# Poissons Ratio (x) = -2.06203 0.91561
# Poissons Ratio (y) = -2.06203 0.91561
# Poissons Ratio (z) = 4.35400 4.35400
#
# Static dielectric constant tensor:
#      x y z
#    x 1.619950 0.000000 0.000000 
#    y 0.000000 1.619950 0.000000 
#    z 0.000000 0.000000 1.617810 
# 
# From -- ./inp_files/1972.got.cif
#   From: 2010.05.17/outbox.ucp.g08.bks.cvg/sg127_1_cif.got.tgz:1972.got - 2010.06.11 11:37:05.
