data_PCOD9564296
_publ_section_title
;
Structure prediction by ZEFSAII (Michael W. Deem and Ramdas Pophale) SiO2 
 PCOD9564296
Probable space group: P 4/M B M
;
_chemical_formula_sum "Si O2"
_cell_formula_units_Z 108
_cell_length_a 14.983157
_cell_length_b 14.983157
_cell_length_c 23.885832
_cell_angle_alpha 90.000000
_cell_angle_beta 90.000000
_cell_angle_gamma 90.000000
_cell_volume 5362.249704
_symmetry_space_group_name_H-M "P 4/M B M"
_symmetry_group_IT_number 127
_symmetry_cell_setting 'tetragonal'
loop_
_space_group_symop_operation_xyz
x,y,z
-y,x,z
-x,-y,z
y,-x,z
1/2+x,1/2-y,-z
1/2-x,1/2+y,-z
1/2+y,1/2+x,-z
1/2-y,1/2-x,-z
-x,-y,-z
y,-x,-z
x,y,-z
-y,x,-z
1/2-x,1/2+y,z
1/2+x,1/2-y,z
1/2-y,1/2-x,z
1/2+y,1/2+x,z
loop_
_atom_site_type_symbol
_atom_site_label
_atom_site_fract_x
_atom_site_fract_y
_atom_site_fract_z
Si Si1 0.902497 0.820436 0.224662
Si Si2 0.571252 0.928749 0.068349
Si Si3 0.315547 0.674224 0.887031
Si Si4 0.001550 0.645380 0.743747
Si Si5 0.001082 0.239459 0.932978
Si Si6 0.633396 0.430011 0.562462
Si Si7 0.500000 0.500000 0.795264
Si Si8 0.723830 0.370170 0.324718
O O1 0.823119 0.824835 0.179559
O O2 0.976656 0.892549 0.207635
O O3 0.860466 0.850296 0.284043
O O4 0.946776 0.721828 0.222879
O O5 0.537880 0.833468 0.086880
O O6 0.500000 0.000000 0.087063
O O7 0.573022 0.926979 0.000000
O O8 0.227519 0.727519 0.906368
O O9 0.401501 0.725653 0.909659
O O10 0.326526 0.574668 0.910720
O O11 0.080275 0.580275 0.768765
O O12 0.054442 0.708952 0.699838
O O13 0.925569 0.574432 0.723531
O O14 0.003819 0.236255 0.000000
O O15 0.615473 0.535943 0.566499
O O16 0.669427 0.411066 0.500000
O O17 0.691427 0.398534 0.614265
O O18 0.779701 0.279701 0.326860
#
# Coordination Sequence:
#
# PCOD9564296 Si02
#       8
#    16   8  16  16  16  16   4  16
#     4  12  24  43  64  96 132 172 219 267 333 398
#     4   9  18  38  66  96 122 155 213 265 308 379
#     4  12  26  45  67  97 136 169 212 272 328 388
#     4  10  22  41  63  91 132 177 221 271 330 399
#     4  11  24  43  69  94 125 170 213 260 325 389
#     4   9  19  35  57  86 121 164 217 273 327 382
#     4  12  24  40  64  92 130 172 212 272 320 390
#     4  11  22  36  62  93 127 173 219 269 327 390
#
# _framework density 20.140799999999999
#
# number of rings (size 3 to 8) (size 9 to 14) (size 15 to 20)
#    0.000    1.259    2.222    4.444    0.000    2.074 
#    1.333    0.741    0.000    1.333    0.000    2.074 
#    0.000    0.000    0.000    0.000    0.000    0.000 
#
# Total GULP energy -601945.224512 kJ/mol
# GULP energy per Si atom -5573.566894 kJ/mol
# Density = 2.009496 g / cm^3
# Si number density = 20.140800 Si / 1000 Ang^3
#
#
#
# Elastic Constant Matrix: (Units=GPa)
#
#
# Indices 1 2 3 4 5 6 
#
# 1 84.1689 13.8704 7.6547 0.0000 0.0000 0.0000
# 2 13.8704 84.1689 7.6549 0.0000 0.0000 0.0000
# 3 7.6547 7.6549 53.0967 0.0000 0.0000 0.0000
# 4 0.0000 0.0000 0.0000 17.0699 0.0000 0.0000
# 5 0.0000 0.0000 0.0000 0.0000 17.0697 0.0000
# 6 0.0000 0.0000 0.0000 0.0000 0.0000 35.4866
#
#
#
# Elastic Compliance Matrix: (Units=1/GPa)
#
#
# Indices 1 2 3 4 5 6 
#
# 1 0.012330 -0.001895 -0.001504 0.000000 0.000000 0.000000
# 2 -0.001895 0.012330 -0.001504 0.000000 0.000000 0.000000
# 3 -0.001504 -0.001504 0.019267 0.000000 0.000000 0.000000
# 4 0.000000 0.000000 0.000000 0.058583 0.000000 0.000000
# 5 0.000000 0.000000 0.000000 0.000000 0.058583 0.000000
# 6 0.000000 0.000000 0.000000 0.000000 0.000000 0.028180
#
#
# Mechanical properties :
#
#
# Convention : Reuss Voigt Hill
#
# Bulk Modulus (GPa) = 29.30861 31.08827 30.19844
# Shear Modulus (GPa) = 23.75819 26.74221 25.25020
#
# Velocity S-wave (km/s) = 3.43826 3.64780 3.54458
# Velocity P-wave (km/s) = 5.50869 5.76289 5.63722
#
# Compressibility (1/GPa) = 0.03411967
#
# Stress axis : x y z
#
# Youngs Moduli (GPa) = 81.10319 81.10306 51.90136
#
# Poissons Ratio (x) = 0.15370 0.07808
# Poissons Ratio (y) = 0.15370 0.07808
# Poissons Ratio (z) = 0.12201 0.12201
#
# Static dielectric constant tensor:
#      x y z
#    x 1.760820 0.000000 0.000000 
#    y 0.000000 1.760820 0.000000 
#    z 0.000000 0.000000 1.715480 
# 
# From -- ./inp_files/6224.got.cif
#   From: 2010.05.17/outbox.cif.g08.bks.cpg/sg127_4_cif.got.tgz:6224.got - 2010.05.20 12:03:00.
