data_PCOD9564077
_publ_section_title
;
Structure prediction by ZEFSAII (Michael W. Deem and Ramdas Pophale) SiO2 
 PCOD9564077
Probable space group: P 4/M B M
;
_chemical_formula_sum "Si O2"
_cell_formula_units_Z 116
_cell_length_a 28.437072
_cell_length_b 28.437072
_cell_length_c 7.810597
_cell_angle_alpha 90.000000
_cell_angle_beta 90.000000
_cell_angle_gamma 90.000000
_cell_volume 6316.172544
_symmetry_space_group_name_H-M "P 4/M B M"
_symmetry_group_IT_number 127
_symmetry_cell_setting 'tetragonal'
loop_
_space_group_symop_operation_xyz
x,y,z
-y,x,z
-x,-y,z
y,-x,z
1/2+x,1/2-y,-z
1/2-x,1/2+y,-z
1/2+y,1/2+x,-z
1/2-y,1/2-x,-z
-x,-y,-z
y,-x,-z
x,y,-z
-y,x,-z
1/2-x,1/2+y,z
1/2+x,1/2-y,z
1/2-y,1/2-x,z
1/2+y,1/2+x,z
loop_
_atom_site_type_symbol
_atom_site_label
_atom_site_fract_x
_atom_site_fract_y
_atom_site_fract_z
Si Si1 0.425377 0.500272 0.794789
Si Si2 0.210187 0.365291 0.706002
Si Si3 0.606838 0.893163 0.500000
Si Si4 0.290496 0.714440 0.795675
Si Si5 0.565755 0.828917 0.806962
Si Si6 0.482520 0.318841 0.294974
Si Si7 0.528922 0.223029 0.708566
Si Si8 0.733259 0.390372 0.297961
O O1 0.454035 0.454507 0.731881
O O2 0.370763 0.502591 0.754818
O O3 0.428944 0.499995 0.000000
O O4 0.220879 0.472713 0.500000
O O5 0.167841 0.332160 0.771428
O O6 0.258431 0.338276 0.749265
O O7 0.209389 0.418884 0.766472
O O8 0.579343 0.863166 0.652722
O O9 0.366557 0.793248 0.500000
O O10 0.247928 0.747928 0.731474
O O11 0.285217 0.662031 0.727201
O O12 0.512999 0.809213 0.778076
O O13 0.599701 0.783085 0.791102
O O14 0.569821 0.848033 0.000000
O O15 0.482051 0.318087 0.500000
O O16 0.516667 0.276586 0.239055
O O17 0.430109 0.303564 0.237245
O O18 0.712784 0.287827 0.000000
O O19 0.741721 0.398224 0.500000
#
# Coordination Sequence:
#
# PCOD9564077 Si02
#       8
#    16  16   4  16  16  16  16  16
#     4   9  19  35  51  68  94 128 171 230 290 338
#     4   9  18  34  57  82 107 147 192 229 281 339
#     4  12  22  40  56  86 121 150 178 240 272 326
#     4  10  21  33  47  73 108 144 185 232 276 330
#     4  11  22  36  58  86 113 153 195 226 280 340
#     4   9  19  33  51  73 100 136 173 219 278 329
#     4   9  18  37  56  77 115 146 178 234 281 325
#     4  10  20  36  51  72 110 148 184 233 282 331
#
# _framework density 18.365552999999998
#
# number of rings (size 3 to 8) (size 9 to 14) (size 15 to 20)
#    0.000    2.345    1.379    2.276    0.966    5.793 
#    0.000    4.828    0.000    0.000    0.000    0.966 
#    0.000    1.103    0.000    0.000    0.000    0.000 
#
# Total GULP energy -645983.674099 kJ/mol
# GULP energy per Si atom -5568.824777 kJ/mol
# Density = 1.832375 g / cm^3
# Si number density = 18.365553 Si / 1000 Ang^3
#
#
#
# Elastic Constant Matrix: (Units=GPa)
#
#
# Indices 1 2 3 4 5 6 
#
# 1 99.1169 61.7708 20.0359 0.0000 0.0000 0.0000
# 2 61.7708 99.1162 20.0356 0.0000 0.0000 0.0000
# 3 20.0359 20.0356 72.2044 0.0000 0.0000 0.0000
# 4 0.0000 0.0000 0.0000 16.0923 0.0000 0.0000
# 5 0.0000 0.0000 0.0000 0.0000 16.0975 0.0000
# 6 0.0000 0.0000 0.0000 0.0000 0.0000 13.1279
#
#
#
# Elastic Compliance Matrix: (Units=1/GPa)
#
#
# Indices 1 2 3 4 5 6 
#
# 1 0.016727 -0.010050 -0.001853 0.000000 0.000000 0.000000
# 2 -0.010050 0.016727 -0.001853 0.000000 0.000000 0.000000
# 3 -0.001853 -0.001853 0.014878 0.000000 0.000000 0.000000
# 4 0.000000 0.000000 0.000000 0.062141 0.000000 0.000000
# 5 0.000000 0.000000 0.000000 0.000000 0.062122 0.000000
# 6 0.000000 0.000000 0.000000 0.000000 0.000000 0.076173
#
#
# Mechanical properties :
#
#
# Convention : Reuss Voigt Hill
#
# Bulk Modulus (GPa) = 48.02915 52.68025 50.35470
# Shear Modulus (GPa) = 17.65417 20.30322 18.97869
#
# Velocity S-wave (km/s) = 3.10379 3.32852 3.21812
# Velocity P-wave (km/s) = 6.24926 6.59686 6.42541
#
# Compressibility (1/GPa) = 0.02082069
#
# Stress axis : x y z
#
# Youngs Moduli (GPa) = 59.78404 59.78376 67.21418
#
# Poissons Ratio (x) = 0.60082 0.12454
# Poissons Ratio (y) = 0.60082 0.12453
# Poissons Ratio (z) = 0.11077 0.11076
#
# Static dielectric constant tensor:
#      x y z
#    x 1.626250 0.000000 0.000000 
#    y 0.000000 1.626250 0.000000 
#    z 0.000000 0.000000 1.666290 
# 
# From -- ./inp_files/2370.got.cif
#   From: 2010.05.17/outbox.cif.g08.bks.cpg/sg127_2_cif.got.tgz:2370.got - 2010.05.20 12:03:00.
