data_PCOD9564062
_publ_section_title
;
Structure prediction by ZEFSAII (Michael W. Deem and Ramdas Pophale) SiO2 
 PCOD9564062
Probable space group: P 4/M B M
;
_chemical_formula_sum "Si O2"
_cell_formula_units_Z 120
_cell_length_a 27.094898
_cell_length_b 27.094898
_cell_length_c 9.536563
_cell_angle_alpha 90.000000
_cell_angle_beta 90.000000
_cell_angle_gamma 90.000000
_cell_volume 7001.110351
_symmetry_space_group_name_H-M "P 4/M B M"
_symmetry_group_IT_number 127
_symmetry_cell_setting 'tetragonal'
loop_
_space_group_symop_operation_xyz
x,y,z
-y,x,z
-x,-y,z
y,-x,z
1/2+x,1/2-y,-z
1/2-x,1/2+y,-z
1/2+y,1/2+x,-z
1/2-y,1/2-x,-z
-x,-y,-z
y,-x,-z
x,y,-z
-y,x,-z
1/2-x,1/2+y,z
1/2+x,1/2-y,z
1/2-y,1/2-x,z
1/2+y,1/2+x,z
loop_
_atom_site_type_symbol
_atom_site_label
_atom_site_fract_x
_atom_site_fract_y
_atom_site_fract_z
Si Si1 0.630956 0.552620 0.717703
Si Si2 0.060952 0.764006 0.838720
Si Si3 0.467190 0.575522 0.000000
Si Si4 0.857559 0.939681 0.649461
Si Si5 0.775186 0.357392 0.667094
Si Si6 0.056267 0.238420 0.835157
Si Si7 0.635094 0.217876 0.333308
Si Si8 0.795043 0.788669 0.159798
O O1 0.607278 0.545845 0.868311
O O2 0.626749 0.497533 0.653208
O O3 0.597827 0.596383 0.654281
O O4 0.688153 0.565177 0.745078
O O5 0.068011 0.819064 0.774950
O O6 0.089604 0.725434 0.740526
O O7 0.002503 0.754925 0.835447
O O8 0.077997 0.761628 0.000000
O O9 0.437827 0.524596 0.000000
O O10 0.831349 0.931727 0.500000
O O11 0.767759 0.358819 0.500000
O O12 0.823439 0.323439 0.692753
O O13 0.729689 0.331265 0.748136
O O14 0.084238 0.281814 0.752525
O O15 0.071563 0.234051 0.000000
O O16 0.629483 0.227083 0.500000
O O17 0.669265 0.169265 0.317970
O O18 0.663825 0.261994 0.253068
O O19 0.752256 0.747745 0.145895
O O20 0.809956 0.802527 0.000000
#
# Coordination Sequence:
#
# PCOD9564062 Si02
#       8
#    16  16   8  16  16  16  16  16
#     4  11  22  36  55  72  98 128 174 218 275 325
#     4  10  23  39  56  78 105 137 174 214 258 311
#     4  11  20  34  56  76  91 130 174 232 283 325
#     4  11  24  38  52  72 100 131 170 221 272 322
#     4  10  20  35  56  80 107 138 171 210 257 308
#     4  10  22  37  56  77 103 138 174 215 262 315
#     4  10  21  36  54  77 105 136 173 216 261 313
#     4   9  17  30  49  73 101 133 171 213 255 299
#
# _framework density 17.140138
#
# number of rings (size 3 to 8) (size 9 to 14) (size 15 to 20)
#    0.000    1.800    2.000    2.000    3.733    6.667 
#    0.000    0.667    0.000    0.000    0.000    0.000 
#    0.000    0.533    0.000    5.867    0.000    4.267 
#
# Total GULP energy -669049.957681 kJ/mol
# GULP energy per Si atom -5575.416314 kJ/mol
# Density = 1.710113 g / cm^3
# Si number density = 17.140138 Si / 1000 Ang^3
#
#
#
# Elastic Constant Matrix: (Units=GPa)
#
#
# Indices 1 2 3 4 5 6 
#
# 1 64.6026 37.8381 39.1164 0.0000 0.0000 0.0000
# 2 37.8381 64.6026 39.1164 0.0000 0.0000 0.0000
# 3 39.1164 39.1164 133.6452 0.0000 0.0000 0.0000
# 4 0.0000 0.0000 0.0000 27.5671 0.0000 0.0000
# 5 0.0000 0.0000 0.0000 0.0000 27.5671 0.0000
# 6 0.0000 0.0000 0.0000 0.0000 0.0000 29.1083
#
#
#
# Elastic Compliance Matrix: (Units=1/GPa)
#
#
# Indices 1 2 3 4 5 6 
#
# 1 0.024967 -0.012396 -0.003680 0.000000 0.000000 0.000000
# 2 -0.012396 0.024967 -0.003680 0.000000 0.000000 0.000000
# 3 -0.003680 -0.003680 0.009636 0.000000 0.000000 0.000000
# 4 0.000000 0.000000 0.000000 0.036275 0.000000 0.000000
# 5 0.000000 0.000000 0.000000 0.000000 0.036275 0.000000
# 6 0.000000 0.000000 0.000000 0.000000 0.000000 0.034354
#
#
# Mechanical properties :
#
#
# Convention : Reuss Voigt Hill
#
# Bulk Modulus (GPa) = 49.84640 54.99913 52.42276
# Shear Modulus (GPa) = 23.51029 26.63379 25.07204
#
# Velocity S-wave (km/s) = 3.70760 3.94621 3.82876
# Velocity P-wave (km/s) = 6.89008 7.27468 7.08499
#
# Compressibility (1/GPa) = 0.02006163
#
# Stress axis : x y z
#
# Youngs Moduli (GPa) = 40.05223 40.05223 103.77237
#
# Poissons Ratio (x) = 0.49647 0.38184
# Poissons Ratio (y) = 0.49647 0.38184
# Poissons Ratio (z) = 0.14738 0.14738
#
# Static dielectric constant tensor:
#      x y z
#    x 1.613810 0.000000 0.000000 
#    y 0.000000 1.613810 0.000000 
#    z 0.000000 0.000000 1.589140 
# 
# From -- ./inp_files/2400.got.cif
#   From: 2010.05.17/outbox.cif.g08.bks.cpg/sg127_2_cif.got.tgz:2400.got - 2010.05.20 12:03:00.
