data_PCOD9564036
_publ_section_title
;
Structure prediction by ZEFSAII (Michael W. Deem and Ramdas Pophale) SiO2 
 PCOD9564036
Probable space group: P 4/M B M
;
_chemical_formula_sum "Si O2"
_cell_formula_units_Z 112
_cell_length_a 15.934793
_cell_length_b 15.934793
_cell_length_c 24.543706
_cell_angle_alpha 90.000000
_cell_angle_beta 90.000000
_cell_angle_gamma 90.000000
_cell_volume 6232.079609
_symmetry_space_group_name_H-M "P 4/M B M"
_symmetry_group_IT_number 127
_symmetry_cell_setting 'tetragonal'
loop_
_space_group_symop_operation_xyz
x,y,z
-y,x,z
-x,-y,z
y,-x,z
1/2+x,1/2-y,-z
1/2-x,1/2+y,-z
1/2+y,1/2+x,-z
1/2-y,1/2-x,-z
-x,-y,-z
y,-x,-z
x,y,-z
-y,x,-z
1/2-x,1/2+y,z
1/2+x,1/2-y,z
1/2-y,1/2-x,z
1/2+y,1/2+x,z
loop_
_atom_site_type_symbol
_atom_site_label
_atom_site_fract_x
_atom_site_fract_y
_atom_site_fract_z
Si Si1 0.917092 0.114760 0.254840
Si Si2 0.947580 0.128826 0.564941
Si Si3 0.003736 0.361486 0.270815
Si Si4 0.588134 0.769892 0.938789
Si Si5 0.314349 0.678264 0.153093
Si Si6 0.750731 0.891835 0.656526
Si Si7 0.179763 0.455318 0.151154
O O1 0.886751 0.156204 0.198615
O O2 0.877801 0.171687 0.302285
O O3 0.018206 0.112618 0.258591
O O4 0.942121 0.142050 0.500000
O O5 0.915406 0.207188 0.599343
O O6 0.044356 0.105330 0.578065
O O7 0.935379 0.435379 0.268743
O O8 0.970705 0.299282 0.317125
O O9 0.093942 0.406059 0.279910
O O10 0.004090 0.319624 0.211180
O O11 0.656839 0.843162 0.943115
O O12 0.633402 0.696314 0.904977
O O13 0.516814 0.803027 0.898415
O O14 0.560581 0.747941 0.000000
O O15 0.226438 0.726438 0.166479
O O16 0.384272 0.749596 0.150437
O O17 0.686328 0.813673 0.654287
O O18 0.090045 0.409956 0.145601
#
# Coordination Sequence:
#
# PCOD9564036 Si02
#       7
#    16  16  16  16  16  16  16
#     4  11  22  35  53  77 106 139 176 216 260 315
#     4   9  19  38  61  81 106 144 187 227 266 308
#     4   9  18  33  53  78 109 143 176 213 264 323
#     4  10  21  35  50  70  98 131 166 207 257 313
#     4  10  20  35  53  73 100 131 165 208 261 316
#     4  11  21  33  54  83 114 144 176 219 267 315
#     4  10  20  34  55  78  98 126 168 216 261 310
#
# _framework density 17.971530000000001
#
# number of rings (size 3 to 8) (size 9 to 14) (size 15 to 20)
#    0.000    2.000    0.000    4.714    0.000    5.429 
#    0.000    6.429    0.000    1.286    0.000    5.000 
#    0.000    0.000    0.000    0.000    0.000    0.000 
#
# Total GULP energy -625089.684584 kJ/mol
# GULP energy per Si atom -5581.157898 kJ/mol
# Density = 1.793063 g / cm^3
# Si number density = 17.971530 Si / 1000 Ang^3
#
#
#
# Elastic Constant Matrix: (Units=GPa)
#
#
# Indices 1 2 3 4 5 6 
#
# 1 75.7373 24.8414 57.9705 0.0000 0.0000 0.0000
# 2 24.8414 75.7373 57.9705 0.0000 0.0000 0.0000
# 3 57.9705 57.9705 110.2551 0.0000 0.0000 0.0000
# 4 0.0000 0.0000 0.0000 72.2538 0.0000 0.0000
# 5 0.0000 0.0000 0.0000 0.0000 72.2538 0.0000
# 6 0.0000 0.0000 0.0000 0.0000 0.0000 16.9254
#
#
#
# Elastic Compliance Matrix: (Units=1/GPa)
#
#
# Indices 1 2 3 4 5 6 
#
# 1 0.022444 0.002796 -0.013271 0.000000 0.000000 0.000000
# 2 0.002796 0.022444 -0.013271 0.000000 0.000000 0.000000
# 3 -0.013271 -0.013271 0.023025 0.000000 0.000000 0.000000
# 4 0.000000 0.000000 0.000000 0.013840 0.000000 0.000000
# 5 0.000000 0.000000 0.000000 0.000000 0.013840 0.000000
# 6 0.000000 0.000000 0.000000 0.000000 0.000000 0.059083
#
#
# Mechanical properties :
#
#
# Convention : Reuss Voigt Hill
#
# Bulk Modulus (GPa) = 48.96660 60.36608 54.66634
# Shear Modulus (GPa) = 23.92613 40.34973 32.13793
#
# Velocity S-wave (km/s) = 3.65270 4.74350 4.23338
# Velocity P-wave (km/s) = 6.71532 7.97896 7.37426
#
# Compressibility (1/GPa) = 0.02042209
#
# Stress axis : x y z
#
# Youngs Moduli (GPa) = 44.55472 44.55472 43.43019
#
# Poissons Ratio (x) = -0.12459 0.57637
# Poissons Ratio (y) = -0.12459 0.57637
# Poissons Ratio (z) = 0.59129 0.59129
#
# Static dielectric constant tensor:
#      x y z
#    x 1.630610 0.000000 0.000000 
#    y 0.000000 1.630610 0.000000 
#    z 0.000000 0.000000 1.602610 
# 
# From -- ./inp_files/6165.got.cif
#   From: 2010.05.17/outbox.cif.g08.bks.cpg/sg127_4_cif.got.tgz:6165.got - 2010.05.20 12:03:00.
