data_PCOD9564470
_publ_section_title
;
Structure prediction by ZEFSAII (Michael W. Deem and Ramdas Pophale) SiO2 
 PCOD9564470
Probable space group: P 4/M B M
;
_chemical_formula_sum "Si O2"
_cell_formula_units_Z 112
_cell_length_a 20.412271
_cell_length_b 20.412271
_cell_length_c 11.371633
_cell_angle_alpha 90.000000
_cell_angle_beta 90.000000
_cell_angle_gamma 90.000000
_cell_volume 4738.113787
_symmetry_space_group_name_H-M "P 4/M B M"
_symmetry_group_IT_number 127
_symmetry_cell_setting 'tetragonal'
loop_
_space_group_symop_operation_xyz
x,y,z
-y,x,z
-x,-y,z
y,-x,z
1/2+x,1/2-y,-z
1/2-x,1/2+y,-z
1/2+y,1/2+x,-z
1/2-y,1/2-x,-z
-x,-y,-z
y,-x,-z
x,y,-z
-y,x,-z
1/2-x,1/2+y,z
1/2+x,1/2-y,z
1/2-y,1/2-x,z
1/2+y,1/2+x,z
loop_
_atom_site_type_symbol
_atom_site_label
_atom_site_fract_x
_atom_site_fract_y
_atom_site_fract_z
Si Si1 0.633446 0.761086 0.870948
Si Si2 0.509350 0.857473 0.126159
Si Si3 0.896028 0.997276 0.358450
Si Si4 0.490041 0.858866 0.625929
Si Si5 0.231828 0.380750 0.126705
Si Si6 0.575183 0.729882 0.633663
Si Si7 0.739749 0.133082 0.374777
O O1 0.703508 0.796493 0.869440
O O2 0.577362 0.817771 0.871967
O O3 0.622656 0.726838 0.745372
O O4 0.625489 0.728125 0.000000
O O5 0.499201 0.893780 0.249588
O O6 0.451107 0.803652 0.126846
O O7 0.504213 0.891837 0.000000
O O8 0.900632 0.999795 0.500000
O O9 0.820427 0.983455 0.335511
O O10 0.938381 0.934271 0.316723
O O11 0.494715 0.893112 0.500000
O O12 0.545409 0.802359 0.626814
O O13 0.421861 0.818120 0.626230
O O14 0.173720 0.326281 0.131947
O O15 0.271768 0.374178 0.247187
O O16 0.265171 0.373170 0.000000
O O17 0.599224 0.714369 0.500000
O O18 0.775578 0.123262 0.500000
O O19 0.702856 0.202856 0.378242
#
# Coordination Sequence:
#
# PCOD9564470 Si02
#       7
#    16  16  16  16  16  16  16
#     4   9  17  28  41  58  84 120 157 189 224 268
#     4   8  13  21  32  45  64  94 131 169 210 256
#     4   8  14  26  46  73 102 128 153 182 223 282
#     4   8  13  20  30  48  73  97 127 169 212 253
#     4   8  12  17  26  40  57  79 112 157 206 251
#     4   9  16  26  43  67  91 116 149 189 229 267
#     4   8  12  17  25  38  59  88 120 155 198 247
#
# _framework density 23.638096999999998
#
# number of rings (size 3 to 8) (size 9 to 14) (size 15 to 20)
#    0.000    3.714    0.000    0.429    0.000    0.286 
#    0.000    0.000    0.000    1.286    0.000    5.000 
#    0.000    5.714    0.000  107.571    0.000   31.714 
#
# Total GULP energy -623712.575774 kJ/mol
# GULP energy per Si atom -5568.862284 kJ/mol
# Density = 2.358430 g / cm^3
# Si number density = 23.638097 Si / 1000 Ang^3
#
#
#
# Elastic Constant Matrix: (Units=GPa)
#
#
# Indices 1 2 3 4 5 6 
#
# 1 15.5837 60.3036 25.5417 0.0000 0.0000 0.0000
# 2 60.3036 15.5837 25.5417 0.0000 0.0000 0.0000
# 3 25.5417 25.5417 272.5820 0.0000 0.0000 0.0000
# 4 0.0000 0.0000 0.0000 -31.4508 0.0000 0.0000
# 5 0.0000 0.0000 0.0000 0.0000 -31.4508 0.0000
# 6 0.0000 0.0000 0.0000 0.0000 0.0000 39.7722
#
#
#
# Elastic Compliance Matrix: (Units=1/GPa)
#
#
# Indices 1 2 3 4 5 6 
#
# 1 -0.004148 0.018213 -0.001318 0.000000 0.000000 0.000000
# 2 0.018213 -0.004148 -0.001318 0.000000 0.000000 0.000000
# 3 -0.001318 -0.001318 0.003916 0.000000 0.000000 0.000000
# 4 0.000000 0.000000 0.000000 -0.031796 0.000000 0.000000
# 5 0.000000 0.000000 0.000000 0.000000 -0.031796 0.000000
# 6 0.000000 0.000000 0.000000 0.000000 0.000000 0.025143
#
#
# Mechanical properties :
#
#
# Convention : Reuss Voigt Hill
#
# Bulk Modulus (GPa) = 37.35083 58.50262 47.92672
# Shear Modulus (GPa) = -76.85278 8.19828 -34.32725
#
# Velocity S-wave (km/s) = -5.70814 1.86434 -3.81491
# Velocity P-wave (km/s) = 5.25437 5.42562 0.95630
#
# Compressibility (1/GPa) = 0.02677317
#
# Stress axis : x y z
#
# Youngs Moduli (GPa) = -241.05631 -241.05631 255.38865
#
# Poissons Ratio (x) = 4.39035 0.33657
# Poissons Ratio (y) = 4.39035 0.33657
# Poissons Ratio (z) = -0.31769 -0.31769
#
# Static dielectric constant tensor:
#      x y z
#    x 1.875530 0.000000 0.000000 
#    y 0.000000 1.875530 0.000000 
#    z 0.000000 0.000000 1.995260 
# 
# From -- ./inp_files/3781.got.cif
#   From: 2010.05.17/outbox.cif.g08.bks.cpg/sg127_2_cif.got.tgz:3781.got - 2010.05.20 12:03:00.
