data_PCOD9564218
_publ_section_title
;
Structure prediction by ZEFSAII (Michael W. Deem and Ramdas Pophale) SiO2 
 PCOD9564218
Probable space group: P 4/M B M
;
_chemical_formula_sum "Si O2"
_cell_formula_units_Z 112
_cell_length_a 14.560737
_cell_length_b 14.560737
_cell_length_c 28.201274
_cell_angle_alpha 90.000000
_cell_angle_beta 90.000000
_cell_angle_gamma 90.000000
_cell_volume 5979.094855
_symmetry_space_group_name_H-M "P 4/M B M"
_symmetry_group_IT_number 127
_symmetry_cell_setting 'tetragonal'
loop_
_space_group_symop_operation_xyz
x,y,z
-y,x,z
-x,-y,z
y,-x,z
1/2+x,1/2-y,-z
1/2-x,1/2+y,-z
1/2+y,1/2+x,-z
1/2-y,1/2-x,-z
-x,-y,-z
y,-x,-z
x,y,-z
-y,x,-z
1/2-x,1/2+y,z
1/2+x,1/2-y,z
1/2-y,1/2-x,z
1/2+y,1/2+x,z
loop_
_atom_site_type_symbol
_atom_site_label
_atom_site_fract_x
_atom_site_fract_y
_atom_site_fract_z
Si Si1 0.001886 0.649068 0.871041
Si Si2 0.243152 0.101810 0.399210
Si Si3 0.101595 0.247078 0.556809
Si Si4 0.889748 0.764849 0.054059
Si Si5 0.353879 0.549978 0.303944
Si Si6 0.256222 0.609338 0.790666
Si Si7 0.607420 0.607513 0.865348
O O1 0.918901 0.581100 0.857987
O O2 0.964381 0.712901 0.913148
O O3 0.085753 0.585753 0.888717
O O4 0.039700 0.700538 0.824733
O O5 0.333647 0.166354 0.402999
O O6 0.159228 0.161682 0.421427
O O7 0.215940 0.079352 0.345086
O O8 0.252193 0.002782 0.424580
O O9 0.100556 0.237319 0.500000
O O10 0.161606 0.338395 0.568511
O O11 0.801097 0.698904 0.053859
O O12 0.867837 0.857538 0.082512
O O13 0.919182 0.779278 0.000000
O O14 0.387565 0.445109 0.308670
O O15 0.308968 0.563664 0.252589
O O16 0.184979 0.684979 0.772770
O O17 0.330214 0.655711 0.826205
O O18 0.499803 0.621963 0.858460
#
# Coordination Sequence:
#
# PCOD9564218 Si02
#       7
#    16  16  16  16  16  16  16
#     4   9  19  38  62  86 113 143 181 235 291 351
#     4  11  22  41  65  95 134 174 220 274 327 381
#     4  10  22  40  65  98 134 177 227 274 324 381
#     4  10  21  38  59  83 110 142 184 234 288 346
#     4  11  23  41  63  90 125 162 205 257 310 371
#     4  11  22  39  62  89 115 148 195 243 299 362
#     4  11  22  38  57  79 111 148 188 231 281 345
#
# _framework density 18.731932
#
# number of rings (size 3 to 8) (size 9 to 14) (size 15 to 20)
#    0.000    1.571    2.857    2.143    0.000    3.429 
#    0.000    5.000    0.000    1.714    0.000    0.000 
#    0.000    0.000    0.000    0.000    0.000    0.000 
#
# Total GULP energy -624983.839582 kJ/mol
# GULP energy per Si atom -5580.212853 kJ/mol
# Density = 1.868930 g / cm^3
# Si number density = 18.731932 Si / 1000 Ang^3
#
#
#
# Elastic Constant Matrix: (Units=GPa)
#
#
# Indices 1 2 3 4 5 6 
#
# 1 95.3177 31.7932 34.7194 0.0000 0.0000 0.0000
# 2 31.7932 95.3177 34.7194 0.0000 0.0000 0.0000
# 3 34.7194 34.7194 106.4014 0.0000 0.0000 0.0000
# 4 0.0000 0.0000 0.0000 14.5741 0.0000 0.0000
# 5 0.0000 0.0000 0.0000 0.0000 14.5741 0.0000
# 6 0.0000 0.0000 0.0000 0.0000 0.0000 9.9331
#
#
#
# Elastic Compliance Matrix: (Units=1/GPa)
#
#
# Indices 1 2 3 4 5 6 
#
# 1 0.012658 -0.003084 -0.003124 0.000000 0.000000 0.000000
# 2 -0.003084 0.012658 -0.003124 0.000000 0.000000 0.000000
# 3 -0.003124 -0.003124 0.011437 0.000000 0.000000 0.000000
# 4 0.000000 0.000000 0.000000 0.068615 0.000000 0.000000
# 5 0.000000 0.000000 0.000000 0.000000 0.068615 0.000000
# 6 0.000000 0.000000 0.000000 0.000000 0.000000 0.100673
#
#
# Mechanical properties :
#
#
# Convention : Reuss Voigt Hill
#
# Bulk Modulus (GPa) = 55.28309 55.50006 55.39157
# Shear Modulus (GPa) = 16.70288 20.86992 18.78640
#
# Velocity S-wave (km/s) = 2.98934 3.34149 3.17031
# Velocity P-wave (km/s) = 6.44140 6.67685 6.56018
#
# Compressibility (1/GPa) = 0.01808871
#
# Stress axis : x y z
#
# Youngs Moduli (GPa) = 79.00245 79.00245 87.43473
#
# Poissons Ratio (x) = 0.24365 0.27314
# Poissons Ratio (y) = 0.24365 0.27314
# Poissons Ratio (z) = 0.24680 0.24680
#
# Static dielectric constant tensor:
#      x y z
#    x 1.667770 0.000000 0.000000 
#    y 0.000000 1.667770 0.000000 
#    z 0.000000 0.000000 1.623640 
# 
# From -- ./inp_files/6387.got.cif
#   From: 2010.05.17/outbox.cif.g08.bks.cpg/sg127_4_cif.got.tgz:6387.got - 2010.05.20 12:03:00.
