data_PCOD9564302
_publ_section_title
;
Structure prediction by ZEFSAII (Michael W. Deem and Ramdas Pophale) SiO2 
 PCOD9564302
Probable space group: P 4/M B M
;
_chemical_formula_sum "Si O2"
_cell_formula_units_Z 60
_cell_length_a 12.071802
_cell_length_b 12.071802
_cell_length_c 20.838592
_cell_angle_alpha 90.000000
_cell_angle_beta 90.000000
_cell_angle_gamma 90.000000
_cell_volume 3036.774744
_symmetry_space_group_name_H-M "P 4/M B M"
_symmetry_group_IT_number 127
_symmetry_cell_setting 'tetragonal'
loop_
_space_group_symop_operation_xyz
x,y,z
-y,x,z
-x,-y,z
y,-x,z
1/2+x,1/2-y,-z
1/2-x,1/2+y,-z
1/2+y,1/2+x,-z
1/2-y,1/2-x,-z
-x,-y,-z
y,-x,-z
x,y,-z
-y,x,-z
1/2-x,1/2+y,z
1/2+x,1/2-y,z
1/2-y,1/2-x,z
1/2+y,1/2+x,z
loop_
_atom_site_type_symbol
_atom_site_label
_atom_site_fract_x
_atom_site_fract_y
_atom_site_fract_z
Si Si1 0.811504 0.688497 0.108223
Si Si2 0.316909 0.994710 0.427393
Si Si3 0.178507 0.043231 0.695710
Si Si4 0.334170 0.165831 0.793312
Si Si5 0.598139 0.345224 0.000000
Si Si6 0.500000 0.000000 0.864832
O O1 0.749918 0.750082 0.168647
O O2 0.715965 0.636708 0.064006
O O3 0.906852 0.593149 0.112415
O O4 0.272566 0.982681 0.500000
O O5 0.413728 0.086273 0.429543
O O6 0.230856 0.037618 0.375230
O O7 0.379270 0.879270 0.409314
O O8 0.267173 0.081966 0.747409
O O9 0.078382 0.128703 0.704114
O O10 0.412068 0.087932 0.835804
O O11 0.647630 0.466912 0.000000
#
# Coordination Sequence:
#
# PCOD9564302 Si02
#       6
#     8  16  16   8   8   4
#     4  11  24  44  68 103 137 174 228 276 325 392
#     4   9  19  37  63  92 120 159 211 271 334 405
#     4  11  25  40  59  91 127 166 217 277 335 402
#     4  12  25  44  66  92 132 180 228 275 335 391
#     4  10  22  41  70 102 138 177 212 268 334 388
#     4  12  26  41  70  98 129 184 226 274 324 396
#
# _framework density 19.757805000000001
#
# number of rings (size 3 to 8) (size 9 to 14) (size 15 to 20)
#    0.000    1.467    1.333    4.000    3.733    3.200 
#    0.000    6.667    0.000    0.000    0.000    0.000 
#    0.000    0.000    0.000    0.000    0.000    0.000 
#
# Total GULP energy -334258.758931 kJ/mol
# GULP energy per Si atom -5570.979316 kJ/mol
# Density = 1.971284 g / cm^3
# Si number density = 19.757805 Si / 1000 Ang^3
#
#
#
# Elastic Constant Matrix: (Units=GPa)
#
#
# Indices 1 2 3 4 5 6 
#
# 1 108.6201 37.9670 44.1734 0.0000 0.0000 0.0000
# 2 37.9670 108.6201 44.1734 0.0000 0.0000 0.0000
# 3 44.1734 44.1734 81.9170 0.0000 0.0000 0.0000
# 4 0.0000 0.0000 0.0000 0.0265 0.0000 0.0000
# 5 0.0000 0.0000 0.0000 0.0000 0.0265 0.0000
# 6 0.0000 0.0000 0.0000 0.0000 0.0000 12.9170
#
#
#
# Elastic Compliance Matrix: (Units=1/GPa)
#
#
# Indices 1 2 3 4 5 6 
#
# 1 0.012130 -0.002024 -0.005450 0.000000 0.000000 0.000000
# 2 -0.002024 0.012130 -0.005450 0.000000 0.000000 0.000000
# 3 -0.005450 -0.005450 0.018085 0.000000 0.000000 0.000000
# 4 0.000000 0.000000 0.000000 37.785986 0.000000 0.000000
# 5 0.000000 0.000000 0.000000 0.000000 37.785986 0.000000
# 6 0.000000 0.000000 0.000000 0.000000 0.000000 0.077417
#
#
# Mechanical properties :
#
#
# Convention : Reuss Voigt Hill
#
# Bulk Modulus (GPa) = 60.61132 61.30945 60.96038
# Shear Modulus (GPa) = 0.06603 14.11688 7.09145
#
# Velocity S-wave (km/s) = 0.18301 2.67591 1.89657
# Velocity P-wave (km/s) = 5.54873 6.37536 5.97635
#
# Compressibility (1/GPa) = 0.01649857
#
# Stress axis : x y z
#
# Youngs Moduli (GPa) = 82.43973 82.43973 55.29398
#
# Poissons Ratio (x) = 0.16682 0.30135
# Poissons Ratio (y) = 0.16682 0.30135
# Poissons Ratio (z) = 0.44929 0.44929
#
# Static dielectric constant tensor:
#      x y z
#    x 1.694470 0.000000 0.000000 
#    y 0.000000 1.694470 0.000000 
#    z 0.000000 0.000000 1.700860 
# 
# From -- ./inp_files/5567.got.cif
#   From: 2010.05.17/outbox.cif.g08.bks.cpg/sg127_3_cif.got.tgz:5567.got - 2010.05.20 12:03:00.
