data_PCOD9564639
_publ_section_title
;
Structure prediction by ZEFSAII (Michael W. Deem and Ramdas Pophale) SiO2 
 PCOD9564639
Probable space group: P 4/M N C
;
_chemical_formula_sum "Si O2"
_cell_formula_units_Z 104
_cell_length_a 27.319172
_cell_length_b 27.319172
_cell_length_c 8.327428
_cell_angle_alpha 90.000000
_cell_angle_beta 90.000000
_cell_angle_gamma 90.000000
_cell_volume 6215.068953
_symmetry_space_group_name_H-M "P 4/M N C"
_symmetry_group_IT_number 128
_symmetry_cell_setting 'tetragonal'
loop_
_space_group_symop_operation_xyz
x,y,z
-y,x,z
-x,-y,z
y,-x,z
1/2+x,1/2-y,1/2-z
1/2-x,1/2+y,1/2-z
1/2+y,1/2+x,1/2-z
1/2-y,1/2-x,1/2-z
-x,-y,-z
y,-x,-z
x,y,-z
-y,x,-z
1/2-x,1/2+y,1/2+z
1/2+x,1/2-y,1/2+z
1/2-y,1/2-x,1/2+z
1/2+y,1/2+x,1/2+z
loop_
_atom_site_type_symbol
_atom_site_label
_atom_site_fract_x
_atom_site_fract_y
_atom_site_fract_z
Si Si1 0.920003 0.871857 0.692943
Si Si2 0.500171 0.923060 0.311023
Si Si3 0.950363 0.935029 0.000000
Si Si4 0.999484 0.790383 0.306077
Si Si5 0.294466 0.128953 0.187888
Si Si6 0.183376 0.521290 0.809815
Si Si7 0.309378 0.609999 0.809693
O O1 0.928115 0.884946 0.500000
O O2 0.933190 0.910646 0.832118
O O3 0.861738 0.864694 0.710245
O O4 0.954143 0.825259 0.732155
O O5 0.453521 0.953521 0.250000
O O6 0.500643 0.926748 0.500000
O O7 0.501209 0.866697 0.261483
O O8 0.548376 0.951625 0.250000
O O9 0.009016 0.933524 0.000000
O O10 0.000538 0.788208 0.500000
O O11 0.997879 0.734303 0.247079
O O12 0.052629 0.812025 0.257459
O O13 0.325482 0.174519 0.250000
O O14 0.311713 0.079145 0.274573
O O15 0.236666 0.133641 0.221646
O O16 0.303203 0.122497 0.000000
O O17 0.181298 0.514045 0.000000
O O18 0.297928 0.609898 0.000000
#
# Coordination Sequence:
#
# PCOD9564639 Si02
#       7
#    16  16   8  16  16  16  16
#     4  10  20  37  58  78 107 147 184 226 276 327
#     4  11  21  34  51  75 105 141 179 213 263 316
#     4  11  24  36  50  80 112 142 184 229 272 326
#     4   8  16  32  53  77 101 135 175 216 265 317
#     4  11  21  33  51  76 107 137 172 216 270 324
#     4  10  19  34  53  76 107 137 176 220 264 318
#     4   9  18  33  54  77 104 136 177 218 266 323
#
# _framework density 16.733523000000002
#
# number of rings (size 3 to 8) (size 9 to 14) (size 15 to 20)
#    0.000    2.077    0.000    6.000    1.077    1.846 
#    6.923    0.769    0.000    0.923    0.000    0.000 
#    0.000    0.000    0.000    0.000    0.000    0.000 
#
# Total GULP energy -579762.387438 kJ/mol
# GULP energy per Si atom -5574.638341 kJ/mol
# Density = 1.669544 g / cm^3
# Si number density = 16.733523 Si / 1000 Ang^3
#
#
#
# Elastic Constant Matrix: (Units=GPa)
#
#
# Indices 1 2 3 4 5 6 
#
# 1 -656.5125 750.5800 14.2518 0.0000 0.0000 0.0000
# 2 750.5800 -656.5980 14.0544 0.0000 0.0000 0.0000
# 3 14.2518 14.0544 70.7439 0.0000 0.0000 0.0000
# 4 0.0000 0.0000 0.0000 19.4076 0.0000 0.0000
# 5 0.0000 0.0000 0.0000 0.0000 19.4089 0.0000
# 6 0.0000 0.0000 0.0000 0.0000 0.0000 16.8585
#
#
#
# Elastic Compliance Matrix: (Units=1/GPa)
#
#
# Indices 1 2 3 4 5 6 
#
# 1 0.005303 0.006014 -0.002263 0.000000 0.000000 0.000000
# 2 0.006014 0.005303 -0.002265 0.000000 0.000000 0.000000
# 3 -0.002263 -0.002265 0.015041 0.000000 0.000000 0.000000
# 4 0.000000 0.000000 0.000000 0.051526 0.000000 0.000000
# 5 0.000000 0.000000 0.000000 0.000000 0.051523 0.000000
# 6 0.000000 0.000000 0.000000 0.000000 0.000000 0.059317
#
#
# Mechanical properties :
#
#
# Convention : Reuss Voigt Hill
#
# Bulk Modulus (GPa) = 34.94158 35.04506 34.99332
# Shear Modulus (GPa) = 25.69605 -123.61518 -48.95957
#
# Velocity S-wave (km/s) = 3.92293 -8.60425 -5.41497
# Velocity P-wave (km/s) = 6.43783 8.81603 4.25891
#
# Compressibility (1/GPa) = 0.02861920
#
# Stress axis : x y z
#
# Youngs Moduli (GPa) = 188.56352 188.56538 66.48307
#
# Poissons Ratio (x) = -1.13401 0.15046
# Poissons Ratio (y) = -1.13400 0.15059
# Poissons Ratio (z) = 0.42674 0.42712
#
# Static dielectric constant tensor:
#      x y z
#    x 1.556980 0.000000 0.000000 
#    y 0.000000 1.556980 0.000000 
#    z 0.000000 0.000000 1.584830 
# 
# From -- ./inp_files/1711.got.cif
#   From: 2010.05.17/outbox.cif.g08.bks.cpg/sg128_1_cif.got.tgz:1711.got - 2010.05.20 12:07:25.
