data_PCOD9564883
_publ_section_title
;
Structure prediction by ZEFSAII (Michael W. Deem and Ramdas Pophale) SiO2 
 PCOD9564883
Probable space group: P 4/M N C
;
_chemical_formula_sum "Si O2"
_cell_formula_units_Z 64
_cell_length_a 14.179412
_cell_length_b 14.179412
_cell_length_c 17.629707
_cell_angle_alpha 90.000000
_cell_angle_beta 90.000000
_cell_angle_gamma 90.000000
_cell_volume 3544.553517
_symmetry_space_group_name_H-M "P 4/M N C"
_symmetry_group_IT_number 128
_symmetry_cell_setting 'tetragonal'
loop_
_space_group_symop_operation_xyz
x,y,z
-y,x,z
-x,-y,z
y,-x,z
1/2+x,1/2-y,1/2-z
1/2-x,1/2+y,1/2-z
1/2+y,1/2+x,1/2-z
1/2-y,1/2-x,1/2-z
-x,-y,-z
y,-x,-z
x,y,-z
-y,x,-z
1/2-x,1/2+y,1/2+z
1/2+x,1/2-y,1/2+z
1/2-y,1/2-x,1/2+z
1/2+y,1/2+x,1/2+z
loop_
_atom_site_type_symbol
_atom_site_label
_atom_site_fract_x
_atom_site_fract_y
_atom_site_fract_z
Si Si1 0.066061 0.272601 0.089070
Si Si2 0.939107 0.856317 0.228116
Si Si3 0.426016 0.831218 0.818734
Si Si4 0.085987 0.576110 0.085505
O O1 0.073798 0.183027 0.142912
O O2 0.143085 0.349282 0.117161
O O3 0.965359 0.325455 0.103099
O O4 0.074559 0.254376 0.000000
O O5 0.911687 0.771176 0.283479
O O6 0.048726 0.881118 0.239658
O O7 0.404525 0.904525 0.750000
O O8 0.529993 0.845225 0.853347
O O9 0.000000 0.500000 0.083506
O O10 0.125612 0.580171 0.000000
#
# Coordination Sequence:
#
# PCOD9564883 Si02
#       4
#    16  16  16  16
#     4   9  18  34  56  82 107 131 170 221 269 311
#     4  10  22  38  52  70 105 151 183 206 248 311
#     4   9  17  31  52  80 105 134 170 220 264 305
#     4   8  14  27  50  78 106 131 157 203 268 319
#
# _framework density 18.055871
#
# number of rings (size 3 to 8) (size 9 to 14) (size 15 to 20)
#    0.000    3.000    0.000    2.250    0.000   12.500 
#   13.500    1.250    0.000    4.500    0.000    7.000 
#    0.000    0.000    0.000    0.000    0.000    0.000 
#
# Total GULP energy -356578.333053 kJ/mol
# GULP energy per Si atom -5571.536454 kJ/mol
# Density = 1.801478 g / cm^3
# Si number density = 18.055871 Si / 1000 Ang^3
#
#
#
# Elastic Constant Matrix: (Units=GPa)
#
#
# Indices 1 2 3 4 5 6 
#
# 1 52.9532 11.2890 22.4346 0.0000 0.0000 0.0000
# 2 11.2890 52.9532 22.4346 0.0000 0.0000 0.0000
# 3 22.4346 22.4346 66.7685 0.0000 0.0000 0.0000
# 4 0.0000 0.0000 0.0000 2.8984 0.0000 0.0000
# 5 0.0000 0.0000 0.0000 0.0000 2.8984 0.0000
# 6 0.0000 0.0000 0.0000 0.0000 0.0000 5.3060
#
#
#
# Elastic Compliance Matrix: (Units=1/GPa)
#
#
# Indices 1 2 3 4 5 6 
#
# 1 0.022170 -0.001831 -0.006834 0.000000 0.000000 0.000000
# 2 -0.001831 0.022170 -0.006834 0.000000 0.000000 0.000000
# 3 -0.006834 -0.006834 0.019570 0.000000 0.000000 0.000000
# 4 0.000000 0.000000 0.000000 0.345020 0.000000 0.000000
# 5 0.000000 0.000000 0.000000 0.000000 0.345020 0.000000
# 6 0.000000 0.000000 0.000000 0.000000 0.000000 0.188467
#
#
# Mechanical properties :
#
#
# Convention : Reuss Voigt Hill
#
# Bulk Modulus (GPa) = 30.38421 31.66571 31.02496
# Shear Modulus (GPa) = 5.07930 9.98833 7.53381
#
# Velocity S-wave (km/s) = 1.67905 2.35455 2.04489
# Velocity P-wave (km/s) = 4.54130 4.99676 4.77446
#
# Compressibility (1/GPa) = 0.03291183
#
# Stress axis : x y z
#
# Youngs Moduli (GPa) = 45.10531 45.10531 51.09931
#
# Poissons Ratio (x) = 0.08259 0.34922
# Poissons Ratio (y) = 0.08259 0.34922
# Poissons Ratio (z) = 0.30825 0.30825
#
# Static dielectric constant tensor:
#      x y z
#    x 1.639740 0.000000 0.000000 
#    y 0.000000 1.639740 0.000000 
#    z 0.000000 0.000000 1.636240 
# 
# From -- ./inp_files/4465.got.cif
#   From: 2010.05.17/outbox.cif.g08.bks.cpg/sg128_3_cif.got.tgz:4465.got - 2010.05.20 12:07:25.
