data_PCOD9564569
_publ_section_title
;
Structure prediction by ZEFSAII (Michael W. Deem and Ramdas Pophale) SiO2 
 PCOD9564569
Probable space group: P 4/M N C
;
_chemical_formula_sum "Si O2"
_cell_formula_units_Z 104
_cell_length_a 18.011053
_cell_length_b 18.011053
_cell_length_c 18.028548
_cell_angle_alpha 90.000000
_cell_angle_beta 90.000000
_cell_angle_gamma 90.000000
_cell_volume 5848.425458
_symmetry_space_group_name_H-M "P 4/M N C"
_symmetry_group_IT_number 128
_symmetry_cell_setting 'tetragonal'
loop_
_space_group_symop_operation_xyz
x,y,z
-y,x,z
-x,-y,z
y,-x,z
1/2+x,1/2-y,1/2-z
1/2-x,1/2+y,1/2-z
1/2+y,1/2+x,1/2-z
1/2-y,1/2-x,1/2-z
-x,-y,-z
y,-x,-z
x,y,-z
-y,x,-z
1/2-x,1/2+y,1/2+z
1/2+x,1/2-y,1/2+z
1/2-y,1/2-x,1/2+z
1/2+y,1/2+x,1/2+z
loop_
_atom_site_type_symbol
_atom_site_label
_atom_site_fract_x
_atom_site_fract_y
_atom_site_fract_z
Si Si1 0.576827 0.179969 0.299769
Si Si2 0.589899 0.587220 0.500000
Si Si3 0.554433 0.847724 0.803536
Si Si4 0.841660 0.817168 0.867914
Si Si5 0.833762 0.220233 0.718100
Si Si6 0.746389 0.677632 0.917206
Si Si7 0.889155 0.567846 0.914878
O O1 0.641789 0.141789 0.250000
O O2 0.509206 0.190174 0.245247
O O3 0.600821 0.256465 0.336044
O O4 0.559022 0.118938 0.363045
O O5 0.501684 0.601451 0.500000
O O6 0.629598 0.623528 0.571193
O O7 0.590212 0.909788 0.750000
O O8 0.616110 0.785202 0.816149
O O9 0.511374 0.878048 0.875324
O O10 0.814135 0.862421 0.795217
O O11 0.781035 0.760652 0.904912
O O12 0.760067 0.260067 0.750000
O O13 0.809087 0.166757 0.651660
O O14 0.812630 0.616898 0.913599
O O15 0.714133 0.673707 0.000000
O O16 0.912618 0.561574 0.000000
#
# Coordination Sequence:
#
# PCOD9564569 Si02
#       7
#    16   8  16  16  16  16  16
#     4   9  18  32  53  76  98 134 179 211 241 300
#     4  11  26  40  50  76 108 133 165 217 269 311
#     4  10  20  33  47  74 109 138 165 207 259 304
#     4  10  18  35  56  72  97 134 175 213 254 302
#     4   9  18  30  50  77 102 129 169 211 255 308
#     4   9  16  32  55  81  98 125 172 221 257 295
#     4   9  18  32  52  73  99 133 174 215 252 297
#
# _framework density 17.782563
#
# number of rings (size 3 to 8) (size 9 to 14) (size 15 to 20)
#    0.000    2.538    0.769    3.231    3.231    3.385 
#    0.000    1.538    0.000    0.000    0.000    0.000 
#    0.000    0.000    0.000    9.385    0.000    0.000 
#
# Total GULP energy -579079.761533 kJ/mol
# GULP energy per Si atom -5568.074630 kJ/mol
# Density = 1.774209 g / cm^3
# Si number density = 17.782563 Si / 1000 Ang^3
#
#
#
# Elastic Constant Matrix: (Units=GPa)
#
#
# Indices 1 2 3 4 5 6 
#
# 1 26.1830 4.4764 11.7833 0.0000 0.0000 0.0000
# 2 4.4764 26.1833 11.7836 0.0000 0.0000 0.0000
# 3 11.7833 11.7836 117.4656 0.0000 0.0000 0.0000
# 4 0.0000 0.0000 0.0000 13.8744 0.0000 0.0000
# 5 0.0000 0.0000 0.0000 0.0000 13.8739 0.0000
# 6 0.0000 0.0000 0.0000 0.0000 0.0000 13.9222
#
#
#
# Elastic Compliance Matrix: (Units=1/GPa)
#
#
# Indices 1 2 3 4 5 6 
#
# 1 0.040705 -0.005364 -0.003545 0.000000 0.000000 0.000000
# 2 -0.005364 0.040705 -0.003545 0.000000 0.000000 0.000000
# 3 -0.003545 -0.003545 0.009224 0.000000 0.000000 0.000000
# 4 0.000000 0.000000 0.000000 0.072075 0.000000 0.000000
# 5 0.000000 0.000000 0.000000 0.000000 0.072078 0.000000
# 6 0.000000 0.000000 0.000000 0.000000 0.000000 0.071828
#
#
# Mechanical properties :
#
#
# Convention : Reuss Voigt Hill
#
# Bulk Modulus (GPa) = 15.21464 25.10204 20.15834
# Shear Modulus (GPa) = 14.14700 17.78668 15.96684
#
# Velocity S-wave (km/s) = 2.82362 3.16607 2.99974
# Velocity P-wave (km/s) = 4.38234 5.24520 4.83307
#
# Compressibility (1/GPa) = 0.06572618
#
# Stress axis : x y z
#
# Youngs Moduli (GPa) = 24.56692 24.56717 108.40810
#
# Poissons Ratio (x) = 0.13177 0.38433
# Poissons Ratio (y) = 0.13177 0.38434
# Poissons Ratio (z) = 0.08709 0.08710
#
# Static dielectric constant tensor:
#      x y z
#    x 1.620770 0.000000 0.000000 
#    y 0.000000 1.620770 0.000000 
#    z 0.000000 0.000000 1.659750 
# 
# From -- ./inp_files/4906.got.cif
#   From: 2010.05.17/outbox.cif.g08.bks.cpg/sg128_3_cif.got.tgz:4906.got - 2010.05.20 12:07:25.
