data_PCOD9564606
_publ_section_title
;
Structure prediction by ZEFSAII (Michael W. Deem and Ramdas Pophale) SiO2 
 PCOD9564606
Probable space group: P 4/M N C
;
_chemical_formula_sum "Si O2"
_cell_formula_units_Z 88
_cell_length_a 18.148786
_cell_length_b 18.148786
_cell_length_c 16.085160
_cell_angle_alpha 90.000000
_cell_angle_beta 90.000000
_cell_angle_gamma 90.000000
_cell_volume 5298.104800
_symmetry_space_group_name_H-M "P 4/M N C"
_symmetry_group_IT_number 128
_symmetry_cell_setting 'tetragonal'
loop_
_space_group_symop_operation_xyz
x,y,z
-y,x,z
-x,-y,z
y,-x,z
1/2+x,1/2-y,1/2-z
1/2-x,1/2+y,1/2-z
1/2+y,1/2+x,1/2-z
1/2-y,1/2-x,1/2-z
-x,-y,-z
y,-x,-z
x,y,-z
-y,x,-z
1/2-x,1/2+y,1/2+z
1/2+x,1/2-y,1/2+z
1/2-y,1/2-x,1/2+z
1/2+y,1/2+x,1/2+z
loop_
_atom_site_type_symbol
_atom_site_label
_atom_site_fract_x
_atom_site_fract_y
_atom_site_fract_z
Si Si1 0.303790 0.215175 0.592737
Si Si2 0.127771 0.627771 0.750000
Si Si3 0.157598 0.229385 0.797365
Si Si4 0.720835 0.523689 0.905232
Si Si5 0.633643 0.659863 0.139777
Si Si6 0.167119 0.455681 0.760945
O O1 0.334834 0.205904 0.500000
O O2 0.342725 0.170059 0.667654
O O3 0.296141 0.300084 0.620749
O O4 0.221454 0.183043 0.595182
O O5 0.145619 0.540936 0.753312
O O6 0.212478 0.287522 0.750000
O O7 0.153259 0.160702 0.734810
O O8 0.080268 0.272538 0.802230
O O9 0.688342 0.448714 0.867985
O O10 0.655537 0.583087 0.901082
O O11 0.789161 0.551358 0.848893
O O12 0.744053 0.511279 0.000000
O O13 0.094966 0.405035 0.750000
#
# Coordination Sequence:
#
# PCOD9564606 Si02
#       6
#    16   8  16  16  16  16
#     4  11  19  34  57  76 102 144 189 232 271 322
#     4  12  21  36  54  84 112 141 180 230 282 340
#     4   8  16  34  52  73  99 139 189 225 260 315
#     4  11  20  32  52  78 106 141 181 223 274 335
#     4  10  19  32  49  74 108 138 174 222 274 329
#     4  10  21  35  55  74 110 149 178 223 277 325
#
# _framework density 16.609712999999999
#
# number of rings (size 3 to 8) (size 9 to 14) (size 15 to 20)
#    0.000    1.818    4.545    3.000    0.000    0.364 
#    0.000    2.727    0.000    2.182    0.000    0.000 
#    0.000    0.000    0.000   15.636    0.000    0.000 
#
# Total GULP energy -490028.323170 kJ/mol
# GULP energy per Si atom -5568.503672 kJ/mol
# Density = 1.657191 g / cm^3
# Si number density = 16.609713 Si / 1000 Ang^3
#
#
#
# Elastic Constant Matrix: (Units=GPa)
#
#
# Indices 1 2 3 4 5 6 
#
# 1 65.4570 63.9447 42.9702 0.0000 0.0000 0.0000
# 2 63.9447 65.4545 42.9722 0.0000 0.0000 0.0000
# 3 42.9702 42.9722 91.7232 0.0000 0.0000 0.0000
# 4 0.0000 0.0000 0.0000 8.6468 0.0000 0.0000
# 5 0.0000 0.0000 0.0000 0.0000 8.6467 0.0000
# 6 0.0000 0.0000 0.0000 0.0000 0.0000 28.3094
#
#
#
# Elastic Compliance Matrix: (Units=1/GPa)
#
#
# Indices 1 2 3 4 5 6 
#
# 1 0.336477 -0.325274 -0.005241 0.000000 0.000000 0.000000
# 2 -0.325274 0.336509 -0.005270 0.000000 0.000000 0.000000
# 3 -0.005241 -0.005270 0.015827 0.000000 0.000000 0.000000
# 4 0.000000 0.000000 0.000000 0.115650 0.000000 0.000000
# 5 0.000000 0.000000 0.000000 0.000000 0.115651 0.000000
# 6 0.000000 0.000000 0.000000 0.000000 0.000000 0.035324
#
#
# Mechanical properties :
#
#
# Convention : Reuss Voigt Hill
#
# Bulk Modulus (GPa) = 58.00124 58.04542 58.02333
# Shear Modulus (GPa) = 3.06231 13.97041 8.51636
#
# Velocity S-wave (km/s) = 1.35930 2.90332 2.26682
# Velocity P-wave (km/s) = 6.12041 6.80158 6.46997
#
# Compressibility (1/GPa) = 0.01724101
#
# Stress axis : x y z
#
# Youngs Moduli (GPa) = 2.97197 2.97169 63.18349
#
# Poissons Ratio (x) = 0.96661 0.33116
# Poissons Ratio (y) = 0.96671 0.33300
# Poissons Ratio (z) = 0.01558 0.01566
#
# Static dielectric constant tensor:
#      x y z
#    x 1.575140 0.000000 0.000000 
#    y 0.000000 1.575140 0.000000 
#    z 0.000000 0.000000 1.589410 
# 
# From -- ./inp_files/3859.got.cif
#   From: 2010.05.17/outbox.cif.g08.bks.cpg/sg128_2_cif.got.tgz:3859.got - 2010.05.20 12:07:25.
