data_PCOD9564564
_publ_section_title
;
Structure prediction by ZEFSAII (Michael W. Deem and Ramdas Pophale) SiO2 
 PCOD9564564
Probable space group: P 4/M N C
;
_chemical_formula_sum "Si O2"
_cell_formula_units_Z 96
_cell_length_a 24.742483
_cell_length_b 24.742483
_cell_length_c 7.976912
_cell_angle_alpha 90.000000
_cell_angle_beta 90.000000
_cell_angle_gamma 90.000000
_cell_volume 4883.389467
_symmetry_space_group_name_H-M "P 4/M N C"
_symmetry_group_IT_number 128
_symmetry_cell_setting 'tetragonal'
loop_
_space_group_symop_operation_xyz
x,y,z
-y,x,z
-x,-y,z
y,-x,z
1/2+x,1/2-y,1/2-z
1/2-x,1/2+y,1/2-z
1/2+y,1/2+x,1/2-z
1/2-y,1/2-x,1/2-z
-x,-y,-z
y,-x,-z
x,y,-z
-y,x,-z
1/2-x,1/2+y,1/2+z
1/2+x,1/2-y,1/2+z
1/2-y,1/2-x,1/2+z
1/2+y,1/2+x,1/2+z
loop_
_atom_site_type_symbol
_atom_site_label
_atom_site_fract_x
_atom_site_fract_y
_atom_site_fract_z
Si Si1 0.012630 0.273292 0.797900
Si Si2 0.213407 0.173881 0.690697
Si Si3 0.396675 0.186622 0.199519
Si Si4 0.102256 0.881242 0.796092
Si Si5 0.847302 0.009282 0.202852
Si Si6 0.138260 0.275932 0.198947
O O1 0.996589 0.212936 0.742221
O O2 0.075581 0.278903 0.737303
O O3 0.959720 0.307993 0.750285
O O4 0.015304 0.275620 0.000000
O O5 0.227039 0.188677 0.500000
O O6 0.266865 0.145298 0.769575
O O7 0.170511 0.125942 0.706738
O O8 0.178291 0.225430 0.755519
O O9 0.369969 0.130032 0.250000
O O10 0.395564 0.192979 0.000000
O O11 0.134497 0.932969 0.736869
O O12 0.039433 0.886608 0.756715
O O13 0.108282 0.874589 0.000000
O O14 0.846073 0.012973 0.000000
O O15 0.170588 0.329413 0.250000
O O16 0.133542 0.272476 0.000000
#
# Coordination Sequence:
#
# PCOD9564564 Si02
#       6
#    16  16  16  16  16  16
#     4  10  20  37  60  84 111 147 187 229 280 337
#     4  11  22  35  54  84 116 150 189 233 283 333
#     4  11  24  39  58  86 117 150 189 232 283 338
#     4  10  18  32  52  76 108 148 193 238 282 328
#     4   9  17  30  52  78 105 145 192 236 280 327
#     4  11  23  39  60  87 118 151 188 230 281 337
#
# _framework density 19.658477000000001
#
# number of rings (size 3 to 8) (size 9 to 14) (size 15 to 20)
#    0.000    1.667    3.333    2.000    0.000    5.000 
#    0.000    2.500    0.000    0.500    0.000    4.667 
#    0.000    0.000    0.000    0.000    0.000    0.000 
#
# Total GULP energy -534567.794800 kJ/mol
# GULP energy per Si atom -5568.414529 kJ/mol
# Density = 1.961373 g / cm^3
# Si number density = 19.658477 Si / 1000 Ang^3
#
#
#
# Elastic Constant Matrix: (Units=GPa)
#
#
# Indices 1 2 3 4 5 6 
#
# 1 -1525.4969 1657.9026 10.8691 0.0000 0.0000 0.0000
# 2 1657.9026-1525.3210 10.9082 0.0000 0.0000 0.0000
# 3 10.8691 10.9082 30.9860 0.0000 0.0000 0.0000
# 4 0.0000 0.0000 0.0000 21.7174 0.0000 0.0000
# 5 0.0000 0.0000 0.0000 0.0000 21.7178 0.0000
# 6 0.0000 0.0000 0.0000 0.0000 0.0000 29.6531
#
#
#
# Elastic Compliance Matrix: (Units=1/GPa)
#
#
# Indices 1 2 3 4 5 6 
#
# 1 0.003848 0.004162 -0.002815 0.000000 0.000000 0.000000
# 2 0.004162 0.003848 -0.002815 0.000000 0.000000 0.000000
# 3 -0.002815 -0.002815 0.034251 0.000000 0.000000 0.000000
# 4 0.000000 0.000000 0.000000 0.046046 0.000000 0.000000
# 5 0.000000 0.000000 0.000000 0.000000 0.046045 0.000000
# 6 0.000000 0.000000 0.000000 0.000000 0.000000 0.033723
#
#
# Mechanical properties :
#
#
# Convention : Reuss Voigt Hill
#
# Bulk Modulus (GPa) = 25.63311 37.72531 31.67921
# Shear Modulus (GPa) = 27.21822 -298.68312 -135.73245
#
# Velocity S-wave (km/s) = 3.72500 -12.33961 -8.31836
# Velocity P-wave (km/s) = 5.61857 13.55689 8.72413
#
# Compressibility (1/GPa) = 0.03901204
#
# Stress axis : x y z
#
# Youngs Moduli (GPa) = 259.88609 259.86088 29.19627
#
# Poissons Ratio (x) = -1.08158 0.08219
# Poissons Ratio (y) = -1.08169 0.08218
# Poissons Ratio (z) = 0.73157 0.73143
#
# Static dielectric constant tensor:
#      x y z
#    x 1.703170 0.000000 0.000000 
#    y 0.000000 1.703170 0.000000 
#    z 0.000000 0.000000 1.737550 
# 
# From -- ./inp_files/1446.got.cif
#   From: 2010.05.17/outbox.cif.g08.bks.cpg/sg128_1_cif.got.tgz:1446.got - 2010.05.20 12:07:25.
