data_PCOD9564110
_publ_section_title
;
Structure prediction by ZEFSAII (Michael W. Deem and Ramdas Pophale) SiO2 
 PCOD9564110
Probable space group: P 4/M B M
;
_chemical_formula_sum "Si O2"
_cell_formula_units_Z 104
_cell_length_a 26.952626
_cell_length_b 26.952626
_cell_length_c 7.383922
_cell_angle_alpha 90.000000
_cell_angle_beta 90.000000
_cell_angle_gamma 90.000000
_cell_volume 5364.006190
_symmetry_space_group_name_H-M "P 4/M B M"
_symmetry_group_IT_number 127
_symmetry_cell_setting 'tetragonal'
loop_
_space_group_symop_operation_xyz
x,y,z
-y,x,z
-x,-y,z
y,-x,z
1/2+x,1/2-y,-z
1/2-x,1/2+y,-z
1/2+y,1/2+x,-z
1/2-y,1/2-x,-z
-x,-y,-z
y,-x,-z
x,y,-z
-y,x,-z
1/2-x,1/2+y,z
1/2+x,1/2-y,z
1/2-y,1/2-x,z
1/2+y,1/2+x,z
loop_
_atom_site_type_symbol
_atom_site_label
_atom_site_fract_x
_atom_site_fract_y
_atom_site_fract_z
Si Si1 0.337909 0.594102 0.219097
Si Si2 0.471305 0.838760 0.291715
Si Si3 0.083082 0.501249 0.000000
Si Si4 0.489492 0.270128 0.220319
Si Si5 0.183597 0.906842 0.206976
Si Si6 0.368804 0.791166 0.719262
Si Si7 0.473615 0.426515 0.219350
O O1 0.287598 0.565884 0.277005
O O2 0.367604 0.643214 0.284010
O O3 0.375652 0.550192 0.268571
O O4 0.333909 0.599973 0.000000
O O5 0.468851 0.854192 0.500000
O O6 0.499343 0.786041 0.276723
O O7 0.415417 0.825551 0.228231
O O8 0.495530 0.880810 0.171090
O O9 0.043678 0.456323 0.000000
O O10 0.051580 0.551580 0.000000
O O11 0.537894 0.303163 0.281816
O O12 0.491195 0.272363 0.000000
O O13 0.236397 0.878963 0.208652
O O14 0.166500 0.916433 0.000000
O O15 0.369735 0.787667 0.500000
O O16 0.318279 0.818279 0.773796
O O17 0.528640 0.438567 0.280694
O O18 0.474743 0.427699 0.000000
#
# Coordination Sequence:
#
# PCOD9564110 Si02
#       7
#    16  16   8  16  16  16  16
#     4   9  15  23  38  62  95 133 175 225 274 320
#     4  10  20  37  59  85 117 150 185 220 259 318
#     4  11  24  40  62  94 124 148 174 207 258 320
#     4   9  16  29  49  72 103 146 191 233 279 328
#     4   9  17  27  42  70 100 129 173 226 276 324
#     4   9  18  32  51  74 100 133 168 209 268 326
#     4   8  12  17  27  48  82 125 169 213 264 317
#
# _framework density 19.388494000000001
#
# number of rings (size 3 to 8) (size 9 to 14) (size 15 to 20)
#    0.000    2.846    0.769    1.846    1.077    5.231 
#    0.000    1.538    0.000    0.923    0.000    0.000 
#    0.000    0.000    0.000   18.769    0.000   19.077 
#
# Total GULP energy -579396.088701 kJ/mol
# GULP energy per Si atom -5571.116238 kJ/mol
# Density = 1.934437 g / cm^3
# Si number density = 19.388494 Si / 1000 Ang^3
#
#
#
# Elastic Constant Matrix: (Units=GPa)
#
#
# Indices 1 2 3 4 5 6 
#
# 1 48.6542 97.3146 10.9174 0.0000 0.0000 0.0000
# 2 97.3146 48.6535 10.9172 0.0000 0.0000 0.0000
# 3 10.9174 10.9172 70.1999 0.0000 0.0000 0.0000
# 4 0.0000 0.0000 0.0000 6.9488 0.0000 0.0000
# 5 0.0000 0.0000 0.0000 0.0000 6.9656 0.0000
# 6 0.0000 0.0000 0.0000 0.0000 0.0000 34.0860
#
#
#
# Elastic Compliance Matrix: (Units=1/GPa)
#
#
# Indices 1 2 3 4 5 6 
#
# 1 -0.006768 0.013782 -0.001091 0.000000 0.000000 0.000000
# 2 0.013782 -0.006768 -0.001091 0.000000 0.000000 0.000000
# 3 -0.001091 -0.001091 0.014584 0.000000 0.000000 0.000000
# 4 0.000000 0.000000 0.000000 0.143909 0.000000 0.000000
# 5 0.000000 0.000000 0.000000 0.000000 0.143564 0.000000
# 6 0.000000 0.000000 0.000000 0.000000 0.000000 0.029338
#
#
# Mechanical properties :
#
#
# Convention : Reuss Voigt Hill
#
# Bulk Modulus (GPa) = 41.23871 45.08955 43.16413
# Shear Modulus (GPa) = 16.51585 12.82396 14.66991
#
# Velocity S-wave (km/s) = 2.92179 2.57460 2.75367
# Velocity P-wave (km/s) = 5.71825 5.66960 5.69398
#
# Compressibility (1/GPa) = 0.02424906
#
# Stress axis : x y z
#
# Youngs Moduli (GPa) = -147.74979 -147.74800 68.56681
#
# Poissons Ratio (x) = 2.03629 0.07479
# Poissons Ratio (y) = 2.03632 0.07479
# Poissons Ratio (z) = -0.16116 -0.16117
#
# Static dielectric constant tensor:
#      x y z
#    x 1.676480 0.000000 0.000000 
#    y 0.000000 1.676480 0.000000 
#    z 0.000000 0.000000 1.664370 
# 
# From -- ./inp_files/2288.got.cif
#   From: 2010.05.17/outbox.cif.g08.bks.cpg/sg127_2_cif.got.tgz:2288.got - 2010.05.20 12:03:00.
