data_PCOD9564165
_publ_section_title
;
Structure prediction by ZEFSAII (Michael W. Deem and Ramdas Pophale) SiO2 
 PCOD9564165
Probable space group: P 4/M B M
;
_chemical_formula_sum "Si O2"
_cell_formula_units_Z 96
_cell_length_a 24.987836
_cell_length_b 24.987836
_cell_length_c 7.889271
_cell_angle_alpha 90.000000
_cell_angle_beta 90.000000
_cell_angle_gamma 90.000000
_cell_volume 4925.997288
_symmetry_space_group_name_H-M "P 4/M B M"
_symmetry_group_IT_number 127
_symmetry_cell_setting 'tetragonal'
loop_
_space_group_symop_operation_xyz
x,y,z
-y,x,z
-x,-y,z
y,-x,z
1/2+x,1/2-y,-z
1/2-x,1/2+y,-z
1/2+y,1/2+x,-z
1/2-y,1/2-x,-z
-x,-y,-z
y,-x,-z
x,y,-z
-y,x,-z
1/2-x,1/2+y,z
1/2+x,1/2-y,z
1/2-y,1/2-x,z
1/2+y,1/2+x,z
loop_
_atom_site_type_symbol
_atom_site_label
_atom_site_fract_x
_atom_site_fract_y
_atom_site_fract_z
Si Si1 0.941658 0.062407 0.702883
Si Si2 0.437946 0.147364 0.794794
Si Si3 0.854220 0.850962 0.803286
Si Si4 0.265936 0.148900 0.300198
Si Si5 0.231286 0.353780 0.792605
Si Si6 0.356209 0.940820 0.206797
O O1 0.944856 0.059199 0.500000
O O2 0.898059 0.107777 0.738694
O O3 0.002446 0.073830 0.765046
O O4 0.407277 0.092724 0.749282
O O5 0.401538 0.195317 0.726941
O O6 0.498660 0.148414 0.733703
O O7 0.437908 0.151300 0.000000
O O8 0.791094 0.861452 0.783070
O O9 0.861139 0.791330 0.727505
O O10 0.867495 0.846564 0.000000
O O11 0.257250 0.156641 0.500000
O O12 0.299372 0.200629 0.234144
O O13 0.200617 0.299384 0.738995
O O14 0.193273 0.403084 0.743750
O O15 0.232717 0.352150 0.000000
O O16 0.410004 0.910004 0.259864
O O17 0.356518 0.941934 0.000000
#
# Coordination Sequence:
#
# PCOD9564165 Si02
#       6
#    16  16  16  16  16  16
#     4   9  20  40  60  76 102 140 175 209 254 307
#     4   9  17  29  47  73 103 133 168 212 257 298
#     4  11  21  32  53  82 105 128 166 215 264 316
#     4  10  21  36  52  71 100 138 176 213 257 312
#     4   8  15  28  45  68 100 133 162 199 251 304
#     4   8  14  26  45  70 101 134 166 204 252 302
#
# _framework density 19.488439
#
# number of rings (size 3 to 8) (size 9 to 14) (size 15 to 20)
#    0.000    2.833    0.000    3.000    0.000    4.000 
#    0.000    4.167    0.000    1.500    0.000    7.000 
#    0.000    0.000    0.000    0.000    0.000    0.000 
#
# Total GULP energy -535255.410710 kJ/mol
# GULP energy per Si atom -5575.577195 kJ/mol
# Density = 1.944408 g / cm^3
# Si number density = 19.488439 Si / 1000 Ang^3
#
#
#
# Elastic Constant Matrix: (Units=GPa)
#
#
# Indices 1 2 3 4 5 6 
#
# 1 185.5528 51.5693 4.7802 0.0000 0.0000 0.0000
# 2 51.5693 185.5528 4.7802 0.0000 0.0000 0.0000
# 3 4.7802 4.7802 17.8857 0.0000 0.0000 0.0000
# 4 0.0000 0.0000 0.0000 7.5543 0.0000 0.0000
# 5 0.0000 0.0000 0.0000 0.0000 7.5543 0.0000
# 6 0.0000 0.0000 0.0000 0.0000 0.0000 22.2211
#
#
#
# Elastic Compliance Matrix: (Units=1/GPa)
#
#
# Indices 1 2 3 4 5 6 
#
# 1 0.005863 -0.001600 -0.001139 0.000000 0.000000 0.000000
# 2 -0.001600 0.005863 -0.001139 0.000000 0.000000 0.000000
# 3 -0.001139 -0.001139 0.056520 0.000000 0.000000 0.000000
# 4 0.000000 0.000000 0.000000 0.132374 0.000000 0.000000
# 5 0.000000 0.000000 0.000000 0.000000 0.132374 0.000000
# 6 0.000000 0.000000 0.000000 0.000000 0.000000 0.045002
#
#
# Mechanical properties :
#
#
# Convention : Reuss Voigt Hill
#
# Bulk Modulus (GPa) = 16.53210 56.80562 36.66886
# Shear Modulus (GPa) = 12.31776 29.32340 20.82058
#
# Velocity S-wave (km/s) = 2.51680 3.88320 3.27212
# Velocity P-wave (km/s) = 4.11669 7.02263 5.75606
#
# Compressibility (1/GPa) = 0.06048839
#
# Stress axis : x y z
#
# Youngs Moduli (GPa) = 170.54981 170.54981 17.69299
#
# Poissons Ratio (x) = 0.27292 0.02016
# Poissons Ratio (y) = 0.27292 0.02016
# Poissons Ratio (z) = 0.19432 0.19432
#
# Static dielectric constant tensor:
#      x y z
#    x 1.676050 0.000000 0.000000 
#    y 0.000000 1.676050 0.000000 
#    z 0.000000 0.000000 1.715850 
# 
# From -- ./inp_files/1997.got.cif
#   From: 2010.05.17/outbox.cif.g08.bks.cpg/sg127_1_cif.got.tgz:1997.got - 2010.05.20 12:03:00.
