data_PCOD9564738
_publ_section_title
;
Structure prediction by ZEFSAII (Michael W. Deem and Ramdas Pophale) SiO2 
 PCOD9564738
Probable space group: P 4/M N C
;
_chemical_formula_sum "Si O2"
_cell_formula_units_Z 80
_cell_length_a 11.868138
_cell_length_b 11.868138
_cell_length_c 29.620049
_cell_angle_alpha 90.000000
_cell_angle_beta 90.000000
_cell_angle_gamma 90.000000
_cell_volume 4172.063864
_symmetry_space_group_name_H-M "P 4/M N C"
_symmetry_group_IT_number 128
_symmetry_cell_setting 'tetragonal'
loop_
_space_group_symop_operation_xyz
x,y,z
-y,x,z
-x,-y,z
y,-x,z
1/2+x,1/2-y,1/2-z
1/2-x,1/2+y,1/2-z
1/2+y,1/2+x,1/2-z
1/2-y,1/2-x,1/2-z
-x,-y,-z
y,-x,-z
x,y,-z
-y,x,-z
1/2-x,1/2+y,1/2+z
1/2+x,1/2-y,1/2+z
1/2-y,1/2-x,1/2+z
1/2+y,1/2+x,1/2+z
loop_
_atom_site_type_symbol
_atom_site_label
_atom_site_fract_x
_atom_site_fract_y
_atom_site_fract_z
Si Si1 0.551874 0.322968 0.945571
Si Si2 0.092338 0.401978 0.894824
Si Si3 0.994275 0.188412 0.139000
Si Si4 0.451134 0.874376 0.794583
Si Si5 0.028562 0.813451 0.757762
O O1 0.636171 0.425421 0.931831
O O2 0.584961 0.200540 0.926696
O O3 0.553227 0.319078 0.000000
O O4 0.016718 0.289279 0.895100
O O5 0.145213 0.403670 0.844008
O O6 0.000000 0.500000 0.900725
O O7 0.976490 0.231162 0.190646
O O8 0.889542 0.104726 0.133899
O O9 0.372066 0.872066 0.750000
O O10 0.541958 0.781709 0.779817
O O11 0.500000 0.000000 0.796515
O O12 0.121779 0.909614 0.752600
#
# Coordination Sequence:
#
# PCOD9564738 Si02
#       5
#    16  16  16  16  16
#     4   9  21  44  69  93 124 155 187 246 322 374
#     4  11  23  35  60  92 118 154 206 246 293 366
#     4   9  19  36  55  76 116 163 200 241 293 348
#     4  10  20  36  46  75 120 155 188 242 295 333
#     4   9  18  35  54  74 102 153 208 242 287 343
#
# _framework density 19.175162
#
# number of rings (size 3 to 8) (size 9 to 14) (size 15 to 20)
#    0.000    2.400    2.000    1.800    2.800    2.000 
#    7.200    2.000    0.000    0.000    0.000    1.400 
#    0.000    0.000    0.000    0.000    0.000    0.000 
#
# Total GULP energy -445565.001844 kJ/mol
# GULP energy per Si atom -5569.562523 kJ/mol
# Density = 1.913152 g / cm^3
# Si number density = 19.175162 Si / 1000 Ang^3
#
#
#
# Elastic Constant Matrix: (Units=GPa)
#
#
# Indices 1 2 3 4 5 6 
#
# 1 83.9526 23.1726 13.4747 0.0000 0.0000 0.0000
# 2 23.1726 83.9526 13.4747 0.0000 0.0000 0.0000
# 3 13.4747 13.4747 37.7818 0.0000 0.0000 0.0000
# 4 0.0000 0.0000 0.0000 25.3186 0.0000 0.0000
# 5 0.0000 0.0000 0.0000 0.0000 25.3186 0.0000
# 6 0.0000 0.0000 0.0000 0.0000 0.0000 9.8006
#
#
#
# Elastic Compliance Matrix: (Units=1/GPa)
#
#
# Indices 1 2 3 4 5 6 
#
# 1 0.013354 -0.003099 -0.003657 0.000000 0.000000 0.000000
# 2 -0.003099 0.013354 -0.003657 0.000000 0.000000 0.000000
# 3 -0.003657 -0.003657 0.029077 0.000000 0.000000 0.000000
# 4 0.000000 0.000000 0.000000 0.039497 0.000000 0.000000
# 5 0.000000 0.000000 0.000000 0.000000 0.039497 0.000000
# 6 0.000000 0.000000 0.000000 0.000000 0.000000 0.102035
#
#
# Mechanical properties :
#
#
# Convention : Reuss Voigt Hill
#
# Bulk Modulus (GPa) = 28.60663 33.99234 31.29948
# Shear Modulus (GPa) = 18.56718 22.45855 20.51287
#
# Velocity S-wave (km/s) = 3.11512 3.42604 3.27427
# Velocity P-wave (km/s) = 5.28106 5.78066 5.53650
#
# Compressibility (1/GPa) = 0.03495693
#
# Stress axis : x y z
#
# Youngs Moduli (GPa) = 74.88459 74.88459 34.39193
#
# Poissons Ratio (x) = 0.23206 0.12578
# Poissons Ratio (y) = 0.23206 0.12578
# Poissons Ratio (z) = 0.27388 0.27388
#
# Static dielectric constant tensor:
#      x y z
#    x 1.729590 0.000000 0.000000 
#    y 0.000000 1.729590 0.000000 
#    z 0.000000 0.000000 1.679280 
# 
# From -- ./inp_files/7155.got.cif
#   From: 2010.05.17/outbox.cif.g08.bks.cpg/sg128_4_cif.got.tgz:7155.got - 2010.05.20 12:07:25.
