data_PCOD9564609
_publ_section_title
;
Structure prediction by ZEFSAII (Michael W. Deem and Ramdas Pophale) SiO2 
 PCOD9564609
Probable space group: P 4/M N C
;
_chemical_formula_sum "Si O2"
_cell_formula_units_Z 96
_cell_length_a 25.698151
_cell_length_b 25.698151
_cell_length_c 8.868684
_cell_angle_alpha 90.000000
_cell_angle_beta 90.000000
_cell_angle_gamma 90.000000
_cell_volume 5856.834258
_symmetry_space_group_name_H-M "P 4/M N C"
_symmetry_group_IT_number 128
_symmetry_cell_setting 'tetragonal'
loop_
_space_group_symop_operation_xyz
x,y,z
-y,x,z
-x,-y,z
y,-x,z
1/2+x,1/2-y,1/2-z
1/2-x,1/2+y,1/2-z
1/2+y,1/2+x,1/2-z
1/2-y,1/2-x,1/2-z
-x,-y,-z
y,-x,-z
x,y,-z
-y,x,-z
1/2-x,1/2+y,1/2+z
1/2+x,1/2-y,1/2+z
1/2-y,1/2-x,1/2+z
1/2+y,1/2+x,1/2+z
loop_
_atom_site_type_symbol
_atom_site_label
_atom_site_fract_x
_atom_site_fract_y
_atom_site_fract_z
Si Si1 0.058654 0.880143 0.830465
Si Si2 0.543972 0.371999 0.174212
Si Si3 0.259941 0.678490 0.820141
Si Si4 0.163259 0.256049 0.180073
Si Si5 0.045575 0.240137 0.180854
Si Si6 0.931720 0.244694 0.827724
O O1 0.099213 0.903157 0.713730
O O2 0.001510 0.896294 0.776500
O O3 0.060415 0.817769 0.829083
O O4 0.070702 0.897568 0.000000
O O5 0.548248 0.312550 0.224118
O O6 0.530193 0.376413 0.000000
O O7 0.215472 0.715472 0.750000
O O8 0.313497 0.702432 0.750318
O O9 0.247682 0.619225 0.772978
O O10 0.261756 0.683632 0.000000
O O11 0.198312 0.301689 0.250000
O O12 0.101917 0.265700 0.207850
O O13 0.171086 0.253313 0.000000
O O14 0.989284 0.265924 0.216790
O O15 0.043231 0.228511 0.000000
O O16 0.920397 0.261340 0.000000
#
# Coordination Sequence:
#
# PCOD9564609 Si02
#       6
#    16  16  16  16  16  16
#     4  10  20  34  48  60  81 115 149 181 229 285
#     4  11  21  31  45  65  85 106 144 195 235 267
#     4  11  21  32  48  71  98 128 160 197 241 284
#     4  10  19  32  50  72  98 129 163 197 235 281
#     4   9  19  34  50  67  92 127 157 183 229 288
#     4   9  18  33  50  67  89 119 155 191 226 275
#
# _framework density 16.391107999999999
#
# number of rings (size 3 to 8) (size 9 to 14) (size 15 to 20)
#    0.000    2.000    0.000    7.000    0.000    9.000 
#    0.000    1.667    0.000    0.000    0.000    0.000 
#    0.000    0.667    0.000    7.667    0.000    2.333 
#
# Total GULP energy -534988.590193 kJ/mol
# GULP energy per Si atom -5572.797815 kJ/mol
# Density = 1.635380 g / cm^3
# Si number density = 16.391108 Si / 1000 Ang^3
#
#
#
# Elastic Constant Matrix: (Units=GPa)
#
#
# Indices 1 2 3 4 5 6 
#
# 1 69.8077 16.1713 26.2098 0.0000 0.0000 0.0000
# 2 16.1713 69.8086 26.2126 0.0000 0.0000 0.0000
# 3 26.2098 26.2126 67.5290 0.0000 0.0000 0.0000
# 4 0.0000 0.0000 0.0000 25.8481 0.0000 0.0000
# 5 0.0000 0.0000 0.0000 0.0000 25.8504 0.0000
# 6 0.0000 0.0000 0.0000 0.0000 0.0000 16.8551
#
#
#
# Elastic Compliance Matrix: (Units=1/GPa)
#
#
# Indices 1 2 3 4 5 6 
#
# 1 0.016940 -0.001704 -0.005914 0.000000 0.000000 0.000000
# 2 -0.001704 0.016940 -0.005914 0.000000 0.000000 0.000000
# 3 -0.005914 -0.005914 0.019399 0.000000 0.000000 0.000000
# 4 0.000000 0.000000 0.000000 0.038688 0.000000 0.000000
# 5 0.000000 0.000000 0.000000 0.000000 0.038684 0.000000
# 6 0.000000 0.000000 0.000000 0.000000 0.000000 0.059329
#
#
# Mechanical properties :
#
#
# Convention : Reuss Voigt Hill
#
# Bulk Modulus (GPa) = 38.14397 38.25916 38.20157
# Shear Modulus (GPa) = 22.14514 22.94748 22.54631
#
# Velocity S-wave (km/s) = 3.67965 3.74571 3.71283
# Velocity P-wave (km/s) = 6.43232 6.48839 6.46042
#
# Compressibility (1/GPa) = 0.02621646
#
# Stress axis : x y z
#
# Youngs Moduli (GPa) = 59.03176 59.03053 51.54776
#
# Poissons Ratio (x) = 0.10057 0.30483
# Poissons Ratio (y) = 0.10057 0.30488
# Poissons Ratio (z) = 0.34909 0.34913
#
# Static dielectric constant tensor:
#      x y z
#    x 1.577570 0.000000 0.000000 
#    y 0.000000 1.577570 0.000000 
#    z 0.000000 0.000000 1.546460 
# 
# From -- ./inp_files/1519.got.cif
#   From: 2010.05.17/outbox.cif.g08.bks.cpg/sg128_1_cif.got.tgz:1519.got - 2010.05.20 12:07:25.
