data_PCOD9564792
_publ_section_title
;
Structure prediction by ZEFSAII (Michael W. Deem and Ramdas Pophale) SiO2 
 PCOD9564792
Probable space group: P 4/M N C
;
_chemical_formula_sum "Si O2"
_cell_formula_units_Z 56
_cell_length_a 17.644523
_cell_length_b 17.644523
_cell_length_c 9.504449
_cell_angle_alpha 90.000000
_cell_angle_beta 90.000000
_cell_angle_gamma 90.000000
_cell_volume 2959.012427
_symmetry_space_group_name_H-M "P 4/M N C"
_symmetry_group_IT_number 128
_symmetry_cell_setting 'tetragonal'
loop_
_space_group_symop_operation_xyz
x,y,z
-y,x,z
-x,-y,z
y,-x,z
1/2+x,1/2-y,1/2-z
1/2-x,1/2+y,1/2-z
1/2+y,1/2+x,1/2-z
1/2-y,1/2-x,1/2-z
-x,-y,-z
y,-x,-z
x,y,-z
-y,x,-z
1/2-x,1/2+y,1/2+z
1/2+x,1/2-y,1/2+z
1/2-y,1/2-x,1/2+z
1/2+y,1/2+x,1/2+z
loop_
_atom_site_type_symbol
_atom_site_label
_atom_site_fract_x
_atom_site_fract_y
_atom_site_fract_z
Si Si1 0.059930 0.779396 0.827791
Si Si2 0.139949 0.360052 0.250000
Si Si3 0.391697 0.689954 0.664258
Si Si4 0.871960 0.471993 0.839687
O O1 0.129496 0.831724 0.778828
O O2 0.059760 0.699863 0.746994
O O3 0.978680 0.816104 0.787302
O O4 0.061101 0.768585 0.000000
O O5 0.222827 0.366291 0.318645
O O6 0.134199 0.436700 0.158679
O O7 0.394489 0.672483 0.500000
O O8 0.942533 0.442533 0.750000
O O9 0.874851 0.444463 0.000000
#
# Coordination Sequence:
#
# PCOD9564792 Si02
#       4
#    16   8  16  16
#     4   9  19  36  57  84 116 150 190 231 277 331
#     4  10  21  36  56  82 114 149 186 228 282 340
#     4   9  18  34  56  82 112 147 187 231 276 328
#     4  11  23  38  57  83 115 150 190 234 283 337
#
# _framework density 18.925232999999999
#
# number of rings (size 3 to 8) (size 9 to 14) (size 15 to 20)
#    0.000    2.286    0.000    2.143    2.000    5.143 
#    0.000    8.571    0.000    0.000    0.000    8.000 
#    0.000    0.000    0.000    0.000    0.000    0.000 
#
# Total GULP energy -311883.191642 kJ/mol
# GULP energy per Si atom -5569.342708 kJ/mol
# Density = 1.888216 g / cm^3
# Si number density = 18.925233 Si / 1000 Ang^3
#
#
#
# Elastic Constant Matrix: (Units=GPa)
#
#
# Indices 1 2 3 4 5 6 
#
# 1 99.5654 100.3084 31.4863 0.0000 0.0000 0.0000
# 2 100.3084 99.5690 31.4852 0.0000 0.0000 0.0000
# 3 31.4863 31.4852 78.8329 0.0000 0.0000 0.0000
# 4 0.0000 0.0000 0.0000 6.3336 0.0000 0.0000
# 5 0.0000 0.0000 0.0000 0.0000 6.3332 0.0000
# 6 0.0000 0.0000 0.0000 0.0000 0.0000 41.7400
#
#
#
# Elastic Compliance Matrix: (Units=1/GPa)
#
#
# Indices 1 2 3 4 5 6 
#
# 1 -0.671704 0.677410 -0.002269 0.000000 0.000000 0.000000
# 2 0.677410 -0.671670 -0.002302 0.000000 0.000000 0.000000
# 3 -0.002269 -0.002302 0.014511 0.000000 0.000000 0.000000
# 4 0.000000 0.000000 0.000000 0.157888 0.000000 0.000000
# 5 0.000000 0.000000 0.000000 0.000000 0.157897 0.000000
# 6 0.000000 0.000000 0.000000 0.000000 0.000000 0.023958
#
#
# Mechanical properties :
#
#
# Convention : Reuss Voigt Hill
#
# Bulk Modulus (GPa) = 59.47397 67.16970 63.32184
# Shear Modulus (GPa) = -2.14667 18.52719 8.19026
#
# Velocity S-wave (km/s) = -1.06619 3.13224 2.08257
# Velocity P-wave (km/s) = 5.47525 6.97499 6.27012
#
# Compressibility (1/GPa) = 0.01681408
#
# Stress axis : x y z
#
# Youngs Moduli (GPa) = -1.48875 -1.48883 68.91323
#
# Poissons Ratio (x) = 1.00855 0.15640
# Poissons Ratio (y) = 1.00850 0.15866
# Poissons Ratio (z) = -0.00338 -0.00343
#
# Static dielectric constant tensor:
#      x y z
#    x 1.686790 0.000000 0.000000 
#    y 0.000000 1.686790 0.000000 
#    z 0.000000 0.000000 1.650190 
# 
# From -- ./inp_files/781.got.cif
#   From: 2010.05.17/outbox.cif.g08.bks.cpg/sg128_1_cif.got.tgz:781.got - 2010.05.20 12:07:25.
