data_PCOD9564386
_publ_section_title
;
Structure prediction by ZEFSAII (Michael W. Deem and Ramdas Pophale) SiO2 
 PCOD9564386
Probable space group: P 4/M B M
;
_chemical_formula_sum "Si O2"
_cell_formula_units_Z 96
_cell_length_a 24.469272
_cell_length_b 24.469272
_cell_length_c 8.693967
_cell_angle_alpha 90.000000
_cell_angle_beta 90.000000
_cell_angle_gamma 90.000000
_cell_volume 5205.471638
_symmetry_space_group_name_H-M "P 4/M B M"
_symmetry_group_IT_number 127
_symmetry_cell_setting 'tetragonal'
loop_
_space_group_symop_operation_xyz
x,y,z
-y,x,z
-x,-y,z
y,-x,z
1/2+x,1/2-y,-z
1/2-x,1/2+y,-z
1/2+y,1/2+x,-z
1/2-y,1/2-x,-z
-x,-y,-z
y,-x,-z
x,y,-z
-y,x,-z
1/2-x,1/2+y,z
1/2+x,1/2-y,z
1/2-y,1/2-x,z
1/2+y,1/2+x,z
loop_
_atom_site_type_symbol
_atom_site_label
_atom_site_fract_x
_atom_site_fract_y
_atom_site_fract_z
Si Si1 0.910542 0.498753 0.685114
Si Si2 0.366638 0.219667 0.813036
Si Si3 0.209480 0.509507 0.184656
Si Si4 0.221525 0.810038 0.814282
Si Si5 0.429081 0.699341 0.682775
Si Si6 0.583540 0.531944 0.814279
O O1 0.904050 0.497262 0.500000
O O2 0.944071 0.444071 0.731080
O O3 0.852065 0.503587 0.763331
O O4 0.950392 0.549609 0.721186
O O5 0.334781 0.165220 0.761542
O O6 0.428646 0.221838 0.761334
O O7 0.329189 0.270988 0.769489
O O8 0.367144 0.218672 0.000000
O O9 0.254213 0.469278 0.253437
O O10 0.212729 0.507527 0.000000
O O11 0.276494 0.776494 0.773625
O O12 0.214444 0.868483 0.739313
O O13 0.220825 0.815535 0.000000
O O14 0.430991 0.698588 0.500000
O O15 0.446978 0.639938 0.745291
O O16 0.530635 0.568517 0.771030
O O17 0.587560 0.533522 0.000000
#
# Coordination Sequence:
#
# PCOD9564386 Si02
#       6
#    16  16  16  16  16  16
#     4   9  19  37  59  83 116 157 194 234 293 356
#     4   8  16  33  59  88 112 137 177 235 290 332
#     4  11  22  36  57  86 116 150 195 241 285 338
#     4   9  19  39  64  85 108 145 195 242 286 340
#     4  12  26  39  55  85 124 160 194 236 291 354
#     4   9  20  41  67  90 113 148 196 246 294 346
#
# _framework density 18.442132999999998
#
# number of rings (size 3 to 8) (size 9 to 14) (size 15 to 20)
#    0.000    2.333    0.000    4.500    2.333    3.000 
#    0.000    2.500    0.000    2.000    0.000    0.000 
#    0.000    0.000    0.000    0.000    0.000    0.000 
#
# Total GULP energy -535954.758893 kJ/mol
# GULP energy per Si atom -5582.862072 kJ/mol
# Density = 1.840016 g / cm^3
# Si number density = 18.442133 Si / 1000 Ang^3
#
#
#
# Elastic Constant Matrix: (Units=GPa)
#
#
# Indices 1 2 3 4 5 6 
#
# 1 204.4325 85.9495 58.1178 0.0000 0.0000 0.0000
# 2 85.9495 204.4325 58.1178 0.0000 0.0000 0.0000
# 3 58.1178 58.1178 51.9483 0.0000 0.0000 0.0000
# 4 0.0000 0.0000 0.0000 7.9956 0.0000 0.0000
# 5 0.0000 0.0000 0.0000 0.0000 7.9956 0.0000
# 6 0.0000 0.0000 0.0000 0.0000 0.0000 15.6676
#
#
#
# Elastic Compliance Matrix: (Units=1/GPa)
#
#
# Indices 1 2 3 4 5 6 
#
# 1 0.007338 -0.001102 -0.006977 0.000000 0.000000 0.000000
# 2 -0.001102 0.007338 -0.006977 0.000000 0.000000 0.000000
# 3 -0.006977 -0.006977 0.034862 0.000000 0.000000 0.000000
# 4 0.000000 0.000000 0.000000 0.125069 0.000000 0.000000
# 5 0.000000 0.000000 0.000000 0.000000 0.125069 0.000000
# 6 0.000000 0.000000 0.000000 0.000000 0.000000 0.063826
#
#
# Mechanical properties :
#
#
# Convention : Reuss Voigt Hill
#
# Bulk Modulus (GPa) = 51.47779 96.13150 73.80465
# Shear Modulus (GPa) = 12.49716 23.57363 18.03540
#
# Velocity S-wave (km/s) = 2.60598 3.57914 3.13060
# Velocity P-wave (km/s) = 6.08511 8.32583 7.29205
#
# Compressibility (1/GPa) = 0.01942585
#
# Stress axis : x y z
#
# Youngs Moduli (GPa) = 136.27035 136.27035 28.68455
#
# Poissons Ratio (x) = 0.15013 0.20014
# Poissons Ratio (y) = 0.15013 0.20014
# Poissons Ratio (z) = 0.95081 0.95081
#
# Static dielectric constant tensor:
#      x y z
#    x 1.618130 0.000000 0.000000 
#    y 0.000000 1.618130 0.000000 
#    z 0.000000 0.000000 1.617170 
# 
# From -- ./inp_files/1989.got.cif
#   From: 2010.05.17/outbox.cif.g08.bks.cpg/sg127_1_cif.got.tgz:1989.got - 2010.05.20 12:03:00.
