data_PCOD9564080
_publ_section_title
;
Structure prediction by ZEFSAII (Michael W. Deem and Ramdas Pophale) SiO2 
 PCOD9564080
Probable space group: P 4/M B M
;
_chemical_formula_sum "Si O2"
_cell_formula_units_Z 96
_cell_length_a 15.555728
_cell_length_b 15.555728
_cell_length_c 24.146222
_cell_angle_alpha 90.000000
_cell_angle_beta 90.000000
_cell_angle_gamma 90.000000
_cell_volume 5842.919065
_symmetry_space_group_name_H-M "P 4/M B M"
_symmetry_group_IT_number 127
_symmetry_cell_setting 'tetragonal'
loop_
_space_group_symop_operation_xyz
x,y,z
-y,x,z
-x,-y,z
y,-x,z
1/2+x,1/2-y,-z
1/2-x,1/2+y,-z
1/2+y,1/2+x,-z
1/2-y,1/2-x,-z
-x,-y,-z
y,-x,-z
x,y,-z
-y,x,-z
1/2-x,1/2+y,z
1/2+x,1/2-y,z
1/2-y,1/2-x,z
1/2+y,1/2+x,z
loop_
_atom_site_type_symbol
_atom_site_label
_atom_site_fract_x
_atom_site_fract_y
_atom_site_fract_z
Si Si1 0.073879 0.426122 0.062674
Si Si2 0.436745 0.631438 0.440494
Si Si3 0.815209 0.460215 0.859670
Si Si4 0.563045 0.368364 0.318359
Si Si5 0.254471 0.899516 0.216672
Si Si6 0.879093 0.078976 0.000000
Si Si7 0.177877 0.821461 0.106021
O O1 0.150730 0.468214 0.097281
O O2 0.000000 0.500000 0.059930
O O3 0.097118 0.402883 0.000000
O O4 0.390428 0.538379 0.440698
O O5 0.416170 0.674098 0.500000
O O6 0.418637 0.669340 0.379951
O O7 0.891800 0.391800 0.851349
O O8 0.792215 0.509341 0.803447
O O9 0.735809 0.407245 0.884276
O O10 0.610057 0.461120 0.313903
O O11 0.591263 0.304918 0.270062
O O12 0.330841 0.830841 0.224824
O O13 0.199268 0.867606 0.163798
O O14 0.835037 0.114879 0.055193
O O15 0.976585 0.114788 0.000000
O O16 0.255389 0.755389 0.093924
#
# Coordination Sequence:
#
# PCOD9564080 Si02
#       7
#     8  16  16  16  16   8  16
#     4   9  18  32  52  74  86 108 151 196 238 280
#     4   7  10  19  38  66  95 119 150 194 234 266
#     4  10  20  36  54  72  95 122 156 197 242 289
#     4   9  17  29  48  71  95 127 162 192 229 284
#     4  11  21  34  48  70  98 127 159 197 240 280
#     4  11  23  38  54  70  92 122 153 183 228 297
#     4  10  22  37  53  71  93 120 151 198 246 284
#
# _framework density 16.430143999999999
#
# number of rings (size 3 to 8) (size 9 to 14) (size 15 to 20)
#    0.000    2.500    0.833    3.750    1.167    0.000 
#    1.500    1.667    0.000    0.500    0.000    0.000 
#    0.000    2.000    0.000    1.500    0.000    0.000 
#
# Total GULP energy -535285.436037 kJ/mol
# GULP energy per Si atom -5575.889959 kJ/mol
# Density = 1.639275 g / cm^3
# Si number density = 16.430144 Si / 1000 Ang^3
#
#
#
# Elastic Constant Matrix: (Units=GPa)
#
#
# Indices 1 2 3 4 5 6 
#
# 1 41.6175 25.7289 37.5433 0.0000 0.0000 0.0000
# 2 25.7289 41.6174 37.5433 0.0000 0.0000 0.0000
# 3 37.5433 37.5433 139.7370 0.0000 0.0000 0.0000
# 4 0.0000 0.0000 0.0000 13.0004 0.0000 0.0000
# 5 0.0000 0.0000 0.0000 0.0000 13.0004 0.0000
# 6 0.0000 0.0000 0.0000 0.0000 0.0000 12.5817
#
#
#
# Elastic Compliance Matrix: (Units=1/GPa)
#
#
# Indices 1 2 3 4 5 6 
#
# 1 0.042069 -0.020870 -0.005695 0.000000 0.000000 0.000000
# 2 -0.020870 0.042069 -0.005695 0.000000 0.000000 0.000000
# 3 -0.005695 -0.005695 0.010217 0.000000 0.000000 0.000000
# 4 0.000000 0.000000 0.000000 0.076921 0.000000 0.000000
# 5 0.000000 0.000000 0.000000 0.000000 0.076921 0.000000
# 6 0.000000 0.000000 0.000000 0.000000 0.000000 0.079481
#
#
# Mechanical properties :
#
#
# Convention : Reuss Voigt Hill
#
# Bulk Modulus (GPa) = 33.52084 47.17811 40.34948
# Shear Modulus (GPa) = 12.43342 15.86025 14.14684
#
# Velocity S-wave (km/s) = 2.75388 3.11032 2.93751
# Velocity P-wave (km/s) = 5.52794 6.45566 6.00973
#
# Compressibility (1/GPa) = 0.02983219
#
# Stress axis : x y z
#
# Youngs Moduli (GPa) = 23.77071 23.77067 97.87874
#
# Poissons Ratio (x) = 0.49609 0.55746
# Poissons Ratio (y) = 0.49609 0.55747
# Poissons Ratio (z) = 0.13539 0.13539
#
# Static dielectric constant tensor:
#      x y z
#    x 1.555110 0.000000 0.000000 
#    y 0.000000 1.555110 0.000000 
#    z 0.000000 0.000000 1.562480 
# 
# From -- ./inp_files/6110.got.cif
#   From: 2010.05.17/outbox.cif.g08.bks.cpg/sg127_4_cif.got.tgz:6110.got - 2010.05.20 12:03:00.
