data_PCOD9564874
_publ_section_title
;
Structure prediction by ZEFSAII (Michael W. Deem and Ramdas Pophale) SiO2 
 PCOD9564874
Probable space group: P 4/M N C
;
_chemical_formula_sum "Si O2"
_cell_formula_units_Z 120
_cell_length_a 14.905831
_cell_length_b 14.905831
_cell_length_c 30.423455
_cell_angle_alpha 90.000000
_cell_angle_beta 90.000000
_cell_angle_gamma 90.000000
_cell_volume 6759.598774
_symmetry_space_group_name_H-M "P 4/M N C"
_symmetry_group_IT_number 128
_symmetry_cell_setting 'tetragonal'
loop_
_space_group_symop_operation_xyz
x,y,z
-y,x,z
-x,-y,z
y,-x,z
1/2+x,1/2-y,1/2-z
1/2-x,1/2+y,1/2-z
1/2+y,1/2+x,1/2-z
1/2-y,1/2-x,1/2-z
-x,-y,-z
y,-x,-z
x,y,-z
-y,x,-z
1/2-x,1/2+y,1/2+z
1/2+x,1/2-y,1/2+z
1/2-y,1/2-x,1/2+z
1/2+y,1/2+x,1/2+z
loop_
_atom_site_type_symbol
_atom_site_label
_atom_site_fract_x
_atom_site_fract_y
_atom_site_fract_z
Si Si1 0.755867 0.482020 0.181065
Si Si2 0.717156 0.078969 0.228187
Si Si3 0.362992 0.564382 0.595416
Si Si4 0.186748 0.836963 0.360775
Si Si5 0.327680 0.292455 0.325980
Si Si6 0.079158 0.619074 0.202001
Si Si7 0.935104 0.137886 0.000000
Si Si8 0.389902 0.604410 0.049705
O O1 0.752684 0.514578 0.231790
O O2 0.725983 0.567214 0.152963
O O3 0.690774 0.399538 0.168848
O O4 0.858644 0.447175 0.173377
O O5 0.658182 0.158182 0.250000
O O6 0.800429 0.122850 0.203202
O O7 0.653973 0.021659 0.195015
O O8 0.385278 0.459070 0.597298
O O9 0.309491 0.597725 0.637308
O O10 0.319895 0.584659 0.547522
O O11 0.260435 0.761910 0.350773
O O12 0.154462 0.840123 0.411050
O O13 0.362024 0.209884 0.296943
O O14 0.075605 0.575605 0.250000
O O15 0.040992 0.113822 0.000000
O O16 0.378408 0.496905 0.054078
O O17 0.363143 0.629860 0.000000
#
# Coordination Sequence:
#
# PCOD9564874 Si02
#       8
#    16  16  16  16  16  16   8  16
#     4  10  22  34  54  74 101 137 172 214 258 299
#     4  11  21  36  54  72  99 140 181 210 253 305
#     4   9  17  32  53  74  98 130 164 205 257 312
#     4  11  20  36  53  77 107 137 172 215 262 308
#     4  11  21  33  51  76 107 133 164 218 266 298
#     4   9  21  36  51  71 100 134 172 213 252 298
#     4   7  12  26  50  74  94 122 162 201 246 306
#     4   9  17  31  54  79 104 134 169 212 258 311
#
# _framework density 17.752534000000001
#
# number of rings (size 3 to 8) (size 9 to 14) (size 15 to 20)
#    0.000    2.200    2.667    2.400    3.733    2.667 
#    1.200    0.000    0.000    0.000    0.000    0.000 
#    0.000    1.067    0.000    0.000    0.000    0.000 
#
# Total GULP energy -668396.827034 kJ/mol
# GULP energy per Si atom -5569.973559 kJ/mol
# Density = 1.771213 g / cm^3
# Si number density = 17.752534 Si / 1000 Ang^3
#
#
#
# Elastic Constant Matrix: (Units=GPa)
#
#
# Indices 1 2 3 4 5 6 
#
# 1 38.0107 -14.3493 16.8938 0.0000 0.0000 0.0000
# 2 -14.3493 38.0107 16.8938 0.0000 0.0000 0.0000
# 3 16.8938 16.8938 90.0095 0.0000 0.0000 0.0000
# 4 0.0000 0.0000 0.0000 18.4894 0.0000 0.0000
# 5 0.0000 0.0000 0.0000 0.0000 18.4894 0.0000
# 6 0.0000 0.0000 0.0000 0.0000 0.0000 20.9672
#
#
#
# Elastic Compliance Matrix: (Units=1/GPa)
#
#
# Indices 1 2 3 4 5 6 
#
# 1 0.038418 0.019319 -0.010837 0.000000 0.000000 0.000000
# 2 0.019319 0.038418 -0.010837 0.000000 0.000000 0.000000
# 3 -0.010837 -0.010837 0.015178 0.000000 0.000000 0.000000
# 4 0.000000 0.000000 0.000000 0.054085 0.000000 0.000000
# 5 0.000000 0.000000 0.000000 0.000000 0.054085 0.000000
# 6 0.000000 0.000000 0.000000 0.000000 0.000000 0.047693
#
#
# Mechanical properties :
#
#
# Convention : Reuss Voigt Hill
#
# Bulk Modulus (GPa) = 11.45402 22.76748 17.11075
# Shear Modulus (GPa) = 17.75021 21.36204 19.55613
#
# Velocity S-wave (km/s) = 3.16550 3.47266 3.32263
# Velocity P-wave (km/s) = 4.45270 5.37884 4.93753
#
# Compressibility (1/GPa) = 0.08730563
#
# Stress axis : x y z
#
# Youngs Moduli (GPa) = 26.02957 26.02957 65.88592
#
# Poissons Ratio (x) = -0.50287 0.71398
# Poissons Ratio (y) = -0.50287 0.71398
# Poissons Ratio (z) = 0.28207 0.28207
#
# Static dielectric constant tensor:
#      x y z
#    x 1.621280 0.000000 0.000000 
#    y 0.000000 1.621280 0.000000 
#    z 0.000000 0.000000 1.635280 
# 
# From -- ./inp_files/7446.got.cif
#   From: 2010.05.17/outbox.cif.g08.bks.cpg/sg128_4_cif.got.tgz:7446.got - 2010.05.20 12:07:25.
