data_PCOD9564175
_publ_section_title
;
Structure prediction by ZEFSAII (Michael W. Deem and Ramdas Pophale) SiO2 
 PCOD9564175
Probable space group: P 4/M B M
;
_chemical_formula_sum "Si O2"
_cell_formula_units_Z 120
_cell_length_a 27.016026
_cell_length_b 27.016026
_cell_length_c 9.040892
_cell_angle_alpha 90.000000
_cell_angle_beta 90.000000
_cell_angle_gamma 90.000000
_cell_volume 6598.636614
_symmetry_space_group_name_H-M "P 4/M B M"
_symmetry_group_IT_number 127
_symmetry_cell_setting 'tetragonal'
loop_
_space_group_symop_operation_xyz
x,y,z
-y,x,z
-x,-y,z
y,-x,z
1/2+x,1/2-y,-z
1/2-x,1/2+y,-z
1/2+y,1/2+x,-z
1/2-y,1/2-x,-z
-x,-y,-z
y,-x,-z
x,y,-z
-y,x,-z
1/2-x,1/2+y,z
1/2+x,1/2-y,z
1/2-y,1/2-x,z
1/2+y,1/2+x,z
loop_
_atom_site_type_symbol
_atom_site_label
_atom_site_fract_x
_atom_site_fract_y
_atom_site_fract_z
Si Si1 0.541582 0.958419 0.822492
Si Si2 0.588139 0.767277 0.824683
Si Si3 0.268381 0.684384 0.333659
Si Si4 0.512874 0.693227 0.675022
Si Si5 0.420156 0.502124 0.320122
Si Si6 0.025634 0.647881 0.322608
Si Si7 0.246822 0.337375 0.831952
Si Si8 0.435004 0.779226 0.328513
O O1 0.526788 0.905657 0.752070
O O2 0.500000 0.000000 0.790899
O O3 0.546201 0.953800 0.000000
O O4 0.642782 0.753291 0.772601
O O5 0.553750 0.722271 0.768426
O O6 0.568217 0.816691 0.743908
O O7 0.584703 0.773537 0.000000
O O8 0.275343 0.664710 0.500000
O O9 0.228253 0.728253 0.339956
O O10 0.318366 0.708637 0.270971
O O11 0.526865 0.693365 0.500000
O O12 0.504801 0.636920 0.724952
O O13 0.464136 0.727270 0.686185
O O14 0.450582 0.453191 0.273704
O O15 0.420055 0.501600 0.500000
O O16 0.031624 0.644010 0.500000
O O17 0.974484 0.677620 0.293737
O O18 0.205094 0.294907 0.829298
O O19 0.222848 0.387478 0.773291
O O20 0.264338 0.342905 0.000000
O O21 0.420149 0.785098 0.500000
#
# Coordination Sequence:
#
# PCOD9564175 Si02
#       8
#     8  16  16  16  16  16  16  16
#     4  11  25  43  63  91 125 155 189 239 297 351
#     4  11  22  36  56  82 114 147 183 230 287 344
#     4  10  21  37  57  80 108 143 183 225 272 329
#     4   9  18  33  52  77 108 142 185 230 272 328
#     4   8  14  26  47  76 107 140 182 232 282 329
#     4  10  22  41  63  86 114 151 197 239 281 343
#     4  10  21  36  54  79 111 145 182 226 276 330
#     4   9  19  35  55  80 109 145 189 234 279 331
#
# _framework density 18.185576000000001
#
# number of rings (size 3 to 8) (size 9 to 14) (size 15 to 20)
#    0.000    2.333    0.000    3.800    0.933    6.400 
#    0.000    5.333    0.000    0.800    0.000    0.933 
#    0.000    0.000    0.000    0.000    0.000    0.000 
#
# Total GULP energy -669522.629870 kJ/mol
# GULP energy per Si atom -5579.355249 kJ/mol
# Density = 1.814418 g / cm^3
# Si number density = 18.185576 Si / 1000 Ang^3
#
#
#
# Elastic Constant Matrix: (Units=GPa)
#
#
# Indices 1 2 3 4 5 6 
#
# 1 106.0705 35.5420 46.5349 0.0000 0.0000 0.0000
# 2 35.5420 106.0705 46.5349 0.0000 0.0000 0.0000
# 3 46.5349 46.5349 85.0110 0.0000 0.0000 0.0000
# 4 0.0000 0.0000 0.0000 19.6875 0.0000 0.0000
# 5 0.0000 0.0000 0.0000 0.0000 19.6876 0.0000
# 6 0.0000 0.0000 0.0000 0.0000 0.0000 6.2360
#
#
#
# Elastic Compliance Matrix: (Units=1/GPa)
#
#
# Indices 1 2 3 4 5 6 
#
# 1 0.012604 -0.001575 -0.006038 0.000000 0.000000 0.000000
# 2 -0.001575 0.012604 -0.006038 0.000000 0.000000 0.000000
# 3 -0.006038 -0.006038 0.018373 0.000000 0.000000 0.000000
# 4 0.000000 0.000000 0.000000 0.050794 0.000000 0.000000
# 5 0.000000 0.000000 0.000000 0.000000 0.050794 0.000000
# 6 0.000000 0.000000 0.000000 0.000000 0.000000 0.160359
#
#
# Mechanical properties :
#
#
# Convention : Reuss Voigt Hill
#
# Bulk Modulus (GPa) = 61.41784 61.59728 61.50756
# Shear Modulus (GPa) = 14.78177 20.35822 17.56999
#
# Velocity S-wave (km/s) = 2.85411 3.34948 3.11167
# Velocity P-wave (km/s) = 6.68636 6.99312 6.84146
#
# Compressibility (1/GPa) = 0.01628191
#
# Stress axis : x y z
#
# Youngs Moduli (GPa) = 79.33950 79.33948 54.42764
#
# Poissons Ratio (x) = 0.12493 0.32861
# Poissons Ratio (y) = 0.12493 0.32861
# Poissons Ratio (z) = 0.47901 0.47901
#
# Static dielectric constant tensor:
#      x y z
#    x 1.613380 0.000000 0.000000 
#    y 0.000000 1.613380 0.000000 
#    z 0.000000 0.000000 1.620780 
# 
# From -- ./inp_files/2392.got.cif
#   From: 2010.05.17/outbox.cif.g08.bks.cpg/sg127_2_cif.got.tgz:2392.got - 2010.05.20 12:03:00.
