data_PCOD9564299
_publ_section_title
;
Structure prediction by ZEFSAII (Michael W. Deem and Ramdas Pophale) SiO2 
 PCOD9564299
Probable space group: P 4/M B M
;
_chemical_formula_sum "Si O2"
_cell_formula_units_Z 56
_cell_length_a 11.540987
_cell_length_b 11.540987
_cell_length_c 22.197522
_cell_angle_alpha 90.000000
_cell_angle_beta 90.000000
_cell_angle_gamma 90.000000
_cell_volume 2956.585201
_symmetry_space_group_name_H-M "P 4/M B M"
_symmetry_group_IT_number 127
_symmetry_cell_setting 'tetragonal'
loop_
_space_group_symop_operation_xyz
x,y,z
-y,x,z
-x,-y,z
y,-x,z
1/2+x,1/2-y,-z
1/2-x,1/2+y,-z
1/2+y,1/2+x,-z
1/2-y,1/2-x,-z
-x,-y,-z
y,-x,-z
x,y,-z
-y,x,-z
1/2-x,1/2+y,z
1/2+x,1/2-y,z
1/2-y,1/2-x,z
1/2+y,1/2+x,z
loop_
_atom_site_type_symbol
_atom_site_label
_atom_site_fract_x
_atom_site_fract_y
_atom_site_fract_z
Si Si1 0.096993 0.403008 0.772025
Si Si2 0.806078 0.496038 0.567188
Si Si3 0.693874 0.537377 0.000000
Si Si4 0.099924 0.400077 0.911405
Si Si5 0.025737 0.187581 0.692455
O O1 0.124111 0.375890 0.841358
O O2 0.047382 0.296147 0.734506
O O3 0.000000 0.500000 0.773306
O O4 0.753770 0.493144 0.500000
O O5 0.875357 0.375357 0.577110
O O6 0.723211 0.523379 0.622292
O O7 0.904620 0.595381 0.567022
O O8 0.588879 0.631734 0.000000
O O9 0.782238 0.556856 0.055899
O O10 0.000000 0.500000 0.917585
O O11 0.904355 0.126171 0.704549
#
# Coordination Sequence:
#
# PCOD9564299 Si02
#       5
#     8  16   8   8  16
#     4  11  25  44  66  91 125 172 214 254 306 371
#     4   9  18  34  59  88 117 154 203 259 321 385
#     4  10  22  41  69 101 134 168 203 252 306 359
#     4  10  24  41  66  99 132 168 212 253 301 363
#     4  11  25  41  60  90 125 162 211 267 318 375
#
# _framework density 18.940770000000001
#
# number of rings (size 3 to 8) (size 9 to 14) (size 15 to 20)
#    0.000    1.857    1.429    2.571    8.000    3.429 
#    0.000    7.143    0.000    0.000    0.000    0.000 
#    0.000    0.000    0.000    0.000    0.000    0.000 
#
# Total GULP energy -312685.725894 kJ/mol
# GULP energy per Si atom -5583.673677 kJ/mol
# Density = 1.889766 g / cm^3
# Si number density = 18.940770 Si / 1000 Ang^3
#
#
#
# Elastic Constant Matrix: (Units=GPa)
#
#
# Indices 1 2 3 4 5 6 
#
# 1 92.7041 36.8360 58.1976 0.0000 0.0000 0.0000
# 2 36.8360 92.7041 58.1976 0.0000 0.0000 0.0000
# 3 58.1976 58.1976 153.9115 0.0000 0.0000 0.0000
# 4 0.0000 0.0000 0.0000 48.9814 0.0000 0.0000
# 5 0.0000 0.0000 0.0000 0.0000 48.9814 0.0000
# 6 0.0000 0.0000 0.0000 0.0000 0.0000 -72.1443
#
#
#
# Elastic Compliance Matrix: (Units=1/GPa)
#
#
# Indices 1 2 3 4 5 6 
#
# 1 0.014796 -0.003104 -0.004421 0.000000 0.000000 0.000000
# 2 -0.003104 0.014796 -0.004421 0.000000 0.000000 0.000000
# 3 -0.004421 -0.004421 0.009841 0.000000 0.000000 0.000000
# 4 0.000000 0.000000 0.000000 0.020416 0.000000 0.000000
# 5 0.000000 0.000000 0.000000 0.000000 0.020416 0.000000
# 6 0.000000 0.000000 0.000000 0.000000 0.000000 -0.013861
#
#
# Mechanical properties :
#
#
# Convention : Reuss Voigt Hill
#
# Bulk Modulus (GPa) = 64.34771 71.75358 68.05064
# Shear Modulus (GPa) = 52.37008 17.56959 34.96983
#
# Velocity S-wave (km/s) = 5.26397 3.04897 4.30149
# Velocity P-wave (km/s) = 8.42572 7.09650 7.78951
#
# Compressibility (1/GPa) = 0.01554057
#
# Stress axis : x y z
#
# Youngs Moduli (GPa) = 67.58730 67.58730 101.61934
#
# Poissons Ratio (x) = 0.20977 0.44926
# Poissons Ratio (y) = 0.20977 0.44926
# Poissons Ratio (z) = 0.29881 0.29881
#
# Static dielectric constant tensor:
#      x y z
#    x 1.644270 0.000000 0.000000 
#    y 0.000000 1.644270 0.000000 
#    z 0.000000 0.000000 1.660040 
# 
# From -- ./inp_files/6022.got.cif
#   From: 2010.05.17/outbox.cif.g08.bks.cpg/sg127_4_cif.got.tgz:6022.got - 2010.05.20 12:03:00.
