data_PCOD9564260
_publ_section_title
;
Structure prediction by ZEFSAII (Michael W. Deem and Ramdas Pophale) SiO2 
 PCOD9564260
Probable space group: P 4/M B M
;
_chemical_formula_sum "Si O2"
_cell_formula_units_Z 96
_cell_length_a 24.391110
_cell_length_b 24.391110
_cell_length_c 8.887889
_cell_angle_alpha 90.000000
_cell_angle_beta 90.000000
_cell_angle_gamma 90.000000
_cell_volume 5287.638447
_symmetry_space_group_name_H-M "P 4/M B M"
_symmetry_group_IT_number 127
_symmetry_cell_setting 'tetragonal'
loop_
_space_group_symop_operation_xyz
x,y,z
-y,x,z
-x,-y,z
y,-x,z
1/2+x,1/2-y,-z
1/2-x,1/2+y,-z
1/2+y,1/2+x,-z
1/2-y,1/2-x,-z
-x,-y,-z
y,-x,-z
x,y,-z
-y,x,-z
1/2-x,1/2+y,z
1/2+x,1/2-y,z
1/2-y,1/2-x,z
1/2+y,1/2+x,z
loop_
_atom_site_type_symbol
_atom_site_label
_atom_site_fract_x
_atom_site_fract_y
_atom_site_fract_z
Si Si1 0.207709 0.484690 0.318691
Si Si2 0.070574 0.801609 0.680372
Si Si3 0.533464 0.583469 0.818678
Si Si4 0.223611 0.187205 0.820442
Si Si5 0.910690 0.500425 0.818691
Si Si6 0.229607 0.360347 0.321533
O O1 0.203328 0.485396 0.500000
O O2 0.256394 0.525482 0.274357
O O3 0.149184 0.500641 0.251103
O O4 0.222564 0.422741 0.273166
O O5 0.072004 0.804736 0.500000
O O6 0.054885 0.861072 0.745062
O O7 0.129003 0.781847 0.741706
O O8 0.470404 0.569129 0.777616
O O9 0.535668 0.588509 0.000000
O O10 0.277905 0.222096 0.778147
O O11 0.172485 0.224422 0.768671
O O12 0.223222 0.180731 0.000000
O O13 0.948272 0.448272 0.776557
O O14 0.945494 0.554507 0.773538
O O15 0.906744 0.500978 0.000000
O O16 0.243116 0.358794 0.500000
O O17 0.173090 0.326911 0.301743
#
# Coordination Sequence:
#
# PCOD9564260 Si02
#       6
#    16  16  16  16  16  16
#     4  10  22  37  54  83 117 148 185 229 278 335
#     4  11  24  38  56  85 120 155 192 234 283 342
#     4   9  20  40  63  87 116 149 188 237 290 341
#     4  10  22  40  60  82 109 146 194 239 283 338
#     4   9  19  36  57  82 113 149 189 234 283 333
#     4   9  18  35  59  84 112 145 181 229 286 336
#
# _framework density 18.155553000000001
#
# number of rings (size 3 to 8) (size 9 to 14) (size 15 to 20)
#    0.000    2.333    0.000    2.500    2.333    5.667 
#    0.000    6.667    0.000    0.000    0.000    0.000 
#    0.000    0.000    0.000    0.000    0.000    0.000 
#
# Total GULP energy -535983.920889 kJ/mol
# GULP energy per Si atom -5583.165843 kJ/mol
# Density = 1.811423 g / cm^3
# Si number density = 18.155553 Si / 1000 Ang^3
#
#
#
# Elastic Constant Matrix: (Units=GPa)
#
#
# Indices 1 2 3 4 5 6 
#
# 1 86.4741 150.4849 46.7407 0.0000 0.0000 0.0000
# 2 150.4849 86.4741 46.7407 0.0000 0.0000 0.0000
# 3 46.7407 46.7407 30.1367 0.0000 0.0000 0.0000
# 4 0.0000 0.0000 0.0000 16.5795 0.0000 0.0000
# 5 0.0000 0.0000 0.0000 0.0000 16.5795 0.0000
# 6 0.0000 0.0000 0.0000 0.0000 0.0000 11.6961
#
#
#
# Elastic Compliance Matrix: (Units=1/GPa)
#
#
# Indices 1 2 3 4 5 6 
#
# 1 -0.002375 0.013248 -0.016863 0.000000 0.000000 0.000000
# 2 0.013248 -0.002375 -0.016863 0.000000 0.000000 0.000000
# 3 -0.016863 -0.016863 0.085490 0.000000 0.000000 0.000000
# 4 0.000000 0.000000 0.000000 0.060316 0.000000 0.000000
# 5 0.000000 0.000000 0.000000 0.000000 0.060316 0.000000
# 6 0.000000 0.000000 0.000000 0.000000 0.000000 0.085498
#
#
# Mechanical properties :
#
#
# Convention : Reuss Voigt Hill
#
# Bulk Modulus (GPa) = 25.13641 76.77974 50.95807
# Shear Modulus (GPa) = 14.65899 6.24560 10.45229
#
# Velocity S-wave (km/s) = 2.84458 1.85675 2.40199
# Velocity P-wave (km/s) = 4.96628 6.85408 5.98508
#
# Compressibility (1/GPa) = 0.03978293
#
# Stress axis : x y z
#
# Youngs Moduli (GPa) = -421.08239 -421.08239 11.69730
#
# Poissons Ratio (x) = 5.57830 0.19725
# Poissons Ratio (y) = 5.57830 0.19725
# Poissons Ratio (z) = -7.10074 -7.10074
#
# Static dielectric constant tensor:
#      x y z
#    x 1.601720 0.000000 0.000000 
#    y 0.000000 1.601720 0.000000 
#    z 0.000000 0.000000 1.607610 
# 
# From -- ./inp_files/1947.got.cif
#   From: 2010.05.17/outbox.cif.g08.bks.cpg/sg127_1_cif.got.tgz:1947.got - 2010.05.20 12:03:00.
