data_PCOD9564713
_publ_section_title
;
Structure prediction by ZEFSAII (Michael W. Deem and Ramdas Pophale) SiO2 
 PCOD9564713
Probable space group: P 4/M N C
;
_chemical_formula_sum "Si O2"
_cell_formula_units_Z 88
_cell_length_a 18.378999
_cell_length_b 18.378999
_cell_length_c 15.132600
_cell_angle_alpha 90.000000
_cell_angle_beta 90.000000
_cell_angle_gamma 90.000000
_cell_volume 5111.604700
_symmetry_space_group_name_H-M "P 4/M N C"
_symmetry_group_IT_number 128
_symmetry_cell_setting 'tetragonal'
loop_
_space_group_symop_operation_xyz
x,y,z
-y,x,z
-x,-y,z
y,-x,z
1/2+x,1/2-y,1/2-z
1/2-x,1/2+y,1/2-z
1/2+y,1/2+x,1/2-z
1/2-y,1/2-x,1/2-z
-x,-y,-z
y,-x,-z
x,y,-z
-y,x,-z
1/2-x,1/2+y,1/2+z
1/2+x,1/2-y,1/2+z
1/2-y,1/2-x,1/2+z
1/2+y,1/2+x,1/2+z
loop_
_atom_site_type_symbol
_atom_site_label
_atom_site_fract_x
_atom_site_fract_y
_atom_site_fract_z
Si Si1 0.482955 0.379346 0.500000
Si Si2 0.458882 0.611959 0.843889
Si Si3 0.744557 0.870802 0.760904
Si Si4 0.803350 0.167174 0.400305
Si Si5 0.172194 0.234585 0.104686
Si Si6 0.799560 0.017807 0.175170
O O1 0.559910 0.421303 0.500000
O O2 0.481486 0.331931 0.412391
O O3 0.410632 0.540925 0.865842
O O4 0.417959 0.678967 0.889361
O O5 0.461125 0.633965 0.740637
O O6 0.665207 0.834793 0.750000
O O7 0.790683 0.849512 0.673816
O O8 0.783589 0.826896 0.841172
O O9 0.751112 0.956405 0.777832
O O10 0.822553 0.189684 0.500000
O O11 0.720511 0.192554 0.385285
O O12 0.092383 0.238816 0.146639
O O13 0.167128 0.218108 0.000000
#
# Coordination Sequence:
#
# PCOD9564713 Si02
#       6
#     8  16  16  16  16  16
#     4  11  22  30  46  84 126 160 175 207 285 366
#     4  11  21  34  52  78 112 149 183 225 281 342
#     4  10  21  37  55  78 114 154 190 234 279 334
#     4  10  21  37  53  74 108 151 196 237 274 331
#     4  10  20  34  55  81 111 147 190 233 284 344
#     4  12  20  33  55  79 116 152 189 230 281 342
#
# _framework density 17.215729
#
# number of rings (size 3 to 8) (size 9 to 14) (size 15 to 20)
#    0.000    1.364    4.545    2.182    1.273    2.182 
#    0.000    0.909    0.000    0.000    0.000    2.545 
#    0.000    2.909    0.000    0.000    0.000    0.000 
#
# Total GULP energy -490850.183286 kJ/mol
# GULP energy per Si atom -5577.842992 kJ/mol
# Density = 1.717655 g / cm^3
# Si number density = 17.215729 Si / 1000 Ang^3
#
#
#
# Elastic Constant Matrix: (Units=GPa)
#
#
# Indices 1 2 3 4 5 6 
#
# 1 92.3086 52.3447 26.6438 0.0000 0.0000 0.0000
# 2 52.3447 92.3066 26.6437 0.0000 0.0000 0.0000
# 3 26.6438 26.6437 63.9490 0.0000 0.0000 0.0000
# 4 0.0000 0.0000 0.0000 14.5221 0.0000 0.0000
# 5 0.0000 0.0000 0.0000 0.0000 14.5218 0.0000
# 6 0.0000 0.0000 0.0000 0.0000 0.0000 35.9405
#
#
#
# Elastic Compliance Matrix: (Units=1/GPa)
#
#
# Indices 1 2 3 4 5 6 
#
# 1 0.016595 -0.008428 -0.003402 0.000000 0.000000 0.000000
# 2 -0.008428 0.016595 -0.003403 0.000000 0.000000 0.000000
# 3 -0.003402 -0.003403 0.018473 0.000000 0.000000 0.000000
# 4 0.000000 0.000000 0.000000 0.068860 0.000000 0.000000
# 5 0.000000 0.000000 0.000000 0.000000 0.068862 0.000000
# 6 0.000000 0.000000 0.000000 0.000000 0.000000 0.027824
#
#
# Mechanical properties :
#
#
# Convention : Reuss Voigt Hill
#
# Bulk Modulus (GPa) = 47.17928 51.09208 49.13568
# Shear Modulus (GPa) = 19.62781 22.52569 21.07675
#
# Velocity S-wave (km/s) = 3.38021 3.62116 3.50276
# Velocity P-wave (km/s) = 6.53442 6.87209 6.70539
#
# Compressibility (1/GPa) = 0.02119575
#
# Stress axis : x y z
#
# Youngs Moduli (GPa) = 60.26022 60.25885 54.13391
#
# Poissons Ratio (x) = 0.50788 0.18419
# Poissons Ratio (y) = 0.50789 0.18419
# Poissons Ratio (z) = 0.20503 0.20504
#
# Static dielectric constant tensor:
#      x y z
#    x 1.599700 0.000000 0.000000 
#    y 0.000000 1.599700 0.000000 
#    z 0.000000 0.000000 1.621050 
# 
# From -- ./inp_files/3821.got.cif
#   From: 2010.05.17/outbox.cif.g08.bks.cpg/sg128_2_cif.got.tgz:3821.got - 2010.05.20 12:07:25.
