data_PCOD9564186
_publ_section_title
;
Structure prediction by ZEFSAII (Michael W. Deem and Ramdas Pophale) SiO2 
 PCOD9564186
Probable space group: P 4/M B M
;
_chemical_formula_sum "Si O2"
_cell_formula_units_Z 116
_cell_length_a 16.639787
_cell_length_b 16.639787
_cell_length_c 19.322187
_cell_angle_alpha 90.000000
_cell_angle_beta 90.000000
_cell_angle_gamma 90.000000
_cell_volume 5349.975662
_symmetry_space_group_name_H-M "P 4/M B M"
_symmetry_group_IT_number 127
_symmetry_cell_setting 'tetragonal'
loop_
_space_group_symop_operation_xyz
x,y,z
-y,x,z
-x,-y,z
y,-x,z
1/2+x,1/2-y,-z
1/2-x,1/2+y,-z
1/2+y,1/2+x,-z
1/2-y,1/2-x,-z
-x,-y,-z
y,-x,-z
x,y,-z
-y,x,-z
1/2-x,1/2+y,z
1/2+x,1/2-y,z
1/2-y,1/2-x,z
1/2+y,1/2+x,z
loop_
_atom_site_type_symbol
_atom_site_label
_atom_site_fract_x
_atom_site_fract_y
_atom_site_fract_z
Si Si1 0.411551 0.406830 0.322960
Si Si2 0.453417 0.689583 0.078723
Si Si3 0.530154 0.164787 0.388405
Si Si4 0.370550 0.001741 0.894994
Si Si5 0.097008 0.597008 0.500000
Si Si6 0.314878 0.055399 0.752435
Si Si7 0.401715 0.350585 0.172338
Si Si8 0.336422 0.704880 0.575368
O O1 0.502758 0.390912 0.344213
O O2 0.402836 0.405509 0.240304
O O3 0.354765 0.345099 0.361299
O O4 0.482699 0.782019 0.077776
O O5 0.523230 0.642103 0.119982
O O6 0.374348 0.674709 0.125609
O O7 0.441829 0.662616 0.000000
O O8 0.583500 0.083500 0.378325
O O9 0.457888 0.142607 0.439619
O O10 0.498167 0.197640 0.315013
O O11 0.591881 0.230193 0.418922
O O12 0.431967 0.931967 0.915009
O O13 0.413591 0.086410 0.914489
O O14 0.360424 0.005114 0.811895
O O15 0.371076 0.128925 0.731546
O O16 0.236806 0.089271 0.792294
O O17 0.340909 0.664325 0.500000
O O18 0.254032 0.754032 0.578713
#
# Coordination Sequence:
#
# PCOD9564186 Si02
#       8
#    16  16  16  16   4  16  16  16
#     4  11  23  43  71  95 125 172 227 279 325 389
#     4  11  24  42  68 100 132 167 211 272 342 410
#     4  11  20  34  58  93 135 181 231 284 345 404
#     4   9  20  40  65  96 132 173 221 267 317 392
#     4  12  21  32  60 100 140 182 234 296 355 410
#     4  10  21  36  59  92 133 176 221 272 330 394
#     4  11  23  43  65  93 130 163 215 272 333 402
#     4  10  23  42  64  95 136 175 219 279 346 402
#
# _framework density 21.682341000000001
#
# number of rings (size 3 to 8) (size 9 to 14) (size 15 to 20)
#    0.000    1.517    2.759    2.276    1.931    3.034 
#    0.000    2.069    0.000    2.483    0.000    0.000 
#    0.000    0.000    0.000    0.000    0.000    0.000 
#
# Total GULP energy -646917.567147 kJ/mol
# GULP energy per Si atom -5576.875579 kJ/mol
# Density = 2.163299 g / cm^3
# Si number density = 21.682341 Si / 1000 Ang^3
#
#
#
# Elastic Constant Matrix: (Units=GPa)
#
#
# Indices 1 2 3 4 5 6 
#
# 1 47.8560 24.6717 35.3134 0.0000 0.0000 0.0000
# 2 24.6717 47.8560 35.3134 0.0000 0.0000 0.0000
# 3 35.3134 35.3134 147.4359 0.0000 0.0000 0.0000
# 4 0.0000 0.0000 0.0000 18.7820 0.0000 0.0000
# 5 0.0000 0.0000 0.0000 0.0000 18.7820 0.0000
# 6 0.0000 0.0000 0.0000 0.0000 0.0000 19.2376
#
#
#
# Elastic Compliance Matrix: (Units=1/GPa)
#
#
# Indices 1 2 3 4 5 6 
#
# 1 0.030557 -0.012575 -0.004307 0.000000 0.000000 0.000000
# 2 -0.012575 0.030557 -0.004307 0.000000 0.000000 0.000000
# 3 -0.004307 -0.004307 0.008846 0.000000 0.000000 0.000000
# 4 0.000000 0.000000 0.000000 0.053243 0.000000 0.000000
# 5 0.000000 0.000000 0.000000 0.000000 0.053243 0.000000
# 6 0.000000 0.000000 0.000000 0.000000 0.000000 0.051981
#
#
# Mechanical properties :
#
#
# Convention : Reuss Voigt Hill
#
# Bulk Modulus (GPa) = 36.25585 48.19389 42.22487
# Shear Modulus (GPa) = 17.85718 21.21693 19.53706
#
# Velocity S-wave (km/s) = 2.87292 3.13155 3.00502
# Velocity P-wave (km/s) = 5.26902 5.94567 5.61754
#
# Compressibility (1/GPa) = 0.02758176
#
# Stress axis : x y z
#
# Youngs Moduli (GPa) = 32.72545 32.72545 113.04800
#
# Poissons Ratio (x) = 0.41153 0.48690
# Poissons Ratio (y) = 0.41153 0.48690
# Poissons Ratio (z) = 0.14095 0.14095
#
# Static dielectric constant tensor:
#      x y z
#    x 1.814740 0.000000 0.000000 
#    y 0.000000 1.814740 0.000000 
#    z 0.000000 0.000000 1.760300 
# 
# From -- ./inp_files/5278.got.cif
#   From: 2010.05.17/outbox.cif.g08.bks.cpg/sg127_3_cif.got.tgz:5278.got - 2010.05.20 12:03:00.
