data_PCOD9564103
_publ_section_title
;
Structure prediction by ZEFSAII (Michael W. Deem and Ramdas Pophale) SiO2 
 PCOD9564103
Probable space group: P 4/M B M
;
_chemical_formula_sum "Si O2"
_cell_formula_units_Z 60
_cell_length_a 11.333180
_cell_length_b 11.333180
_cell_length_c 24.581156
_cell_angle_alpha 90.000000
_cell_angle_beta 90.000000
_cell_angle_gamma 90.000000
_cell_volume 3157.227494
_symmetry_space_group_name_H-M "P 4/M B M"
_symmetry_group_IT_number 127
_symmetry_cell_setting 'tetragonal'
loop_
_space_group_symop_operation_xyz
x,y,z
-y,x,z
-x,-y,z
y,-x,z
1/2+x,1/2-y,-z
1/2-x,1/2+y,-z
1/2+y,1/2+x,-z
1/2-y,1/2-x,-z
-x,-y,-z
y,-x,-z
x,y,-z
-y,x,-z
1/2-x,1/2+y,z
1/2+x,1/2-y,z
1/2-y,1/2-x,z
1/2+y,1/2+x,z
loop_
_atom_site_type_symbol
_atom_site_label
_atom_site_fract_x
_atom_site_fract_y
_atom_site_fract_z
Si Si1 0.601870 0.101870 0.818692
Si Si2 0.901928 0.598073 0.694372
Si Si3 0.644767 0.144767 0.000000
Si Si4 0.694563 0.995432 0.500000
Si Si5 0.021259 0.192737 0.382442
Si Si6 0.456686 0.695582 0.901607
O O1 0.630635 0.130635 0.755957
O O2 0.558320 0.220129 0.849338
O O3 0.500000 0.000000 0.822981
O O4 0.798203 0.542745 0.658606
O O5 0.000000 0.500000 0.700385
O O6 0.572847 0.219977 0.952463
O O7 0.633860 0.866141 0.500000
O O8 0.589403 0.089403 0.500000
O O9 0.766086 0.017370 0.445050
O O10 0.899314 0.125937 0.373213
O O11 0.363488 0.586601 0.902996
#
# Coordination Sequence:
#
# PCOD9564103 Si02
#       6
#     8   8   4   8  16  16
#     4  10  25  43  65  96 126 170 230 274 324 383
#     4  11  25  44  67  92 126 169 217 277 332 386
#     4  10  20  36  65 103 134 166 208 260 310 379
#     4  11  22  37  64  95 127 166 206 253 325 397
#     4  11  25  42  64  96 127 164 214 265 326 400
#     4  10  22  42  67  98 137 178 218 265 327 388
#
# _framework density 19.004016
#
# number of rings (size 3 to 8) (size 9 to 14) (size 15 to 20)
#    0.000    1.467    1.333    2.400    7.467    5.333 
#    0.000    4.000    0.000    0.000    0.000    0.000 
#    0.000    0.000    0.000    0.000    0.000    0.000 
#
# Total GULP energy -334064.025352 kJ/mol
# GULP energy per Si atom -5567.733756 kJ/mol
# Density = 1.896076 g / cm^3
# Si number density = 19.004016 Si / 1000 Ang^3
#
#
#
# Elastic Constant Matrix: (Units=GPa)
#
#
# Indices 1 2 3 4 5 6 
#
# 1 99.7009 6.6649 43.7462 0.0000 0.0000 0.0000
# 2 6.6649 99.7016 43.7446 0.0000 0.0000 0.0000
# 3 43.7462 43.7446 178.4420 0.0000 0.0000 0.0000
# 4 0.0000 0.0000 0.0000 0.7726 0.0000 0.0000
# 5 0.0000 0.0000 0.0000 0.0000 0.7731 0.0000
# 6 0.0000 0.0000 0.0000 0.0000 0.0000 -671.0919
#
#
#
# Elastic Compliance Matrix: (Units=1/GPa)
#
#
# Indices 1 2 3 4 5 6 
#
# 1 0.011262 0.000514 -0.002887 0.000000 0.000000 0.000000
# 2 0.000514 0.011262 -0.002887 0.000000 0.000000 0.000000
# 3 -0.002887 -0.002887 0.007020 0.000000 0.000000 0.000000
# 4 0.000000 0.000000 0.000000 1.294359 0.000000 0.000000
# 5 0.000000 0.000000 0.000000 0.000000 1.293571 0.000000
# 6 0.000000 0.000000 0.000000 0.000000 0.000000 -0.001490
#
#
# Mechanical properties :
#
#
# Convention : Reuss Voigt Hill
#
# Bulk Modulus (GPa) = 52.56510 62.90619 57.73565
# Shear Modulus (GPa) = 1.89909 -114.99665 -56.54878
#
# Velocity S-wave (km/s) = 1.00074 -7.78737 -5.46084
# Velocity P-wave (km/s) = 5.39030 6.90537 3.05195
#
# Compressibility (1/GPa) = 0.01902403
#
# Stress axis : x y z
#
# Youngs Moduli (GPa) = 88.79110 88.79257 142.45955
#
# Poissons Ratio (x) = -0.04562 0.41128
# Poissons Ratio (y) = -0.04562 0.41126
# Poissons Ratio (z) = 0.25634 0.25633
#
# Static dielectric constant tensor:
#      x y z
#    x 1.658080 0.000000 0.000000 
#    y 0.000000 1.658080 0.000000 
#    z 0.000000 0.000000 1.940820 
# 
# From -- ./inp_files/5580.got.cif
#   From: 2010.05.17/outbox.cif.g08.bks.cpg/sg127_3_cif.got.tgz:5580.got - 2010.05.20 12:03:00.
