data_PCOD9564953
_publ_section_title
;
Structure prediction by ZEFSAII (Michael W. Deem and Ramdas Pophale) SiO2 
 PCOD9564953
Probable space group: P 4/M N C
;
_chemical_formula_sum "Si O2"
_cell_formula_units_Z 104
_cell_length_a 19.087003
_cell_length_b 19.087003
_cell_length_c 13.902737
_cell_angle_alpha 90.000000
_cell_angle_beta 90.000000
_cell_angle_gamma 90.000000
_cell_volume 5064.957328
_symmetry_space_group_name_H-M "P 4/M N C"
_symmetry_group_IT_number 128
_symmetry_cell_setting 'tetragonal'
loop_
_space_group_symop_operation_xyz
x,y,z
-y,x,z
-x,-y,z
y,-x,z
1/2+x,1/2-y,1/2-z
1/2-x,1/2+y,1/2-z
1/2+y,1/2+x,1/2-z
1/2-y,1/2-x,1/2-z
-x,-y,-z
y,-x,-z
x,y,-z
-y,x,-z
1/2-x,1/2+y,1/2+z
1/2+x,1/2-y,1/2+z
1/2-y,1/2-x,1/2+z
1/2+y,1/2+x,1/2+z
loop_
_atom_site_type_symbol
_atom_site_label
_atom_site_fract_x
_atom_site_fract_y
_atom_site_fract_z
Si Si1 0.957226 0.300525 0.602943
Si Si2 0.760705 0.739296 0.250000
Si Si3 0.931069 0.457180 0.637530
Si Si4 0.697361 0.097847 0.284927
Si Si5 0.293755 0.608638 0.264900
Si Si6 0.270617 0.990920 0.889202
Si Si7 0.090438 0.076541 0.611045
O O1 0.951282 0.265140 0.500000
O O2 0.037413 0.301262 0.638061
O O3 0.932485 0.379604 0.596442
O O4 0.913553 0.262333 0.684008
O O5 0.828274 0.728667 0.318838
O O6 0.686071 0.727759 0.297363
O O7 0.943755 0.443755 0.750000
O O8 0.853701 0.488394 0.619147
O O9 0.000000 0.500000 0.604663
O O10 0.618984 0.118984 0.250000
O O11 0.736683 0.070745 0.189438
O O12 0.279576 0.553066 0.349817
O O13 0.365308 0.605826 0.201796
O O14 0.256261 0.973540 0.000000
O O15 0.110565 0.096181 0.500000
O O16 0.008214 0.095904 0.618949
#
# Coordination Sequence:
#
# PCOD9564953 Si02
#       7
#    16   8  16  16  16  16  16
#     4  11  22  36  58  89 119 155 199 247 303 360
#     4  10  24  42  62  87 121 172 202 248 314 368
#     4  11  20  34  56  82 117 159 202 250 289 343
#     4   9  21  39  58  85 124 160 202 246 300 362
#     4  11  22  40  64  85 125 161 203 253 310 371
#     4  11  23  39  60  87 121 164 210 253 295 357
#     4   9  20  39  66  99 125 150 194 255 326 390
#
# _framework density 20.533242999999999
#
# number of rings (size 3 to 8) (size 9 to 14) (size 15 to 20)
#    0.462    1.231    3.077    3.231    4.308    3.077 
#    0.000    4.615    0.000    0.000    0.000    1.077 
#    0.000    0.000    0.000    0.000    0.000    0.000 
#
# Total GULP energy -579635.291139 kJ/mol
# GULP energy per Si atom -5573.416261 kJ/mol
# Density = 2.048651 g / cm^3
# Si number density = 20.533243 Si / 1000 Ang^3
#
#
#
# Elastic Constant Matrix: (Units=GPa)
#
#
# Indices 1 2 3 4 5 6 
#
# 1 69.0273 -1.4311 3.0862 0.0000 0.0000 0.0000
# 2 -1.4311 69.0282 3.0863 0.0000 0.0000 0.0000
# 3 3.0862 3.0863 91.2033 0.0000 0.0000 0.0000
# 4 0.0000 0.0000 0.0000 -21.9933 0.0000 0.0000
# 5 0.0000 0.0000 0.0000 0.0000 -21.9931 0.0000
# 6 0.0000 0.0000 0.0000 0.0000 0.0000 25.0300
#
#
#
# Elastic Compliance Matrix: (Units=1/GPa)
#
#
# Indices 1 2 3 4 5 6 
#
# 1 0.014516 0.000323 -0.000502 0.000000 0.000000 0.000000
# 2 0.000323 0.014516 -0.000502 0.000000 0.000000 0.000000
# 3 -0.000502 -0.000502 0.010998 0.000000 0.000000 0.000000
# 4 0.000000 0.000000 0.000000 -0.045468 0.000000 0.000000
# 5 0.000000 0.000000 0.000000 0.000000 -0.045469 0.000000
# 6 0.000000 0.000000 0.000000 0.000000 0.000000 0.039952
#
#
# Mechanical properties :
#
#
# Convention : Reuss Voigt Hill
#
# Bulk Modulus (GPa) = 25.86063 26.52687 26.19375
# Shear Modulus (GPa) = 1516.51915 11.17654 763.84784
#
# Velocity S-wave (km/s) = 27.20609 2.33559 19.30837
# Velocity P-wave (km/s) = 31.61513 4.49670 22.58027
#
# Compressibility (1/GPa) = 0.03866882
#
# Stress axis : x y z
#
# Youngs Moduli (GPa) = 68.88866 68.88956 90.92149
#
# Poissons Ratio (x) = -0.02228 0.04566
# Poissons Ratio (y) = -0.02228 0.04566
# Poissons Ratio (z) = 0.03459 0.03459
#
# Static dielectric constant tensor:
#      x y z
#    x 1.780220 0.000000 0.000000 
#    y 0.000000 1.780220 0.000000 
#    z 0.000000 0.000000 1.755740 
# 
# From -- ./inp_files/4052.got.cif
#   From: 2010.05.17/outbox.cif.g08.bks.cpg/sg128_3_cif.got.tgz:4052.got - 2010.05.20 12:07:25.
