data_PCOD9564732
_publ_section_title
;
Structure prediction by ZEFSAII (Michael W. Deem and Ramdas Pophale) SiO2 
 PCOD9564732
Probable space group: P 4/M N C
;
_chemical_formula_sum "Si O2"
_cell_formula_units_Z 72
_cell_length_a 14.244254
_cell_length_b 14.244254
_cell_length_c 17.911445
_cell_angle_alpha 90.000000
_cell_angle_beta 90.000000
_cell_angle_gamma 90.000000
_cell_volume 3634.210196
_symmetry_space_group_name_H-M "P 4/M N C"
_symmetry_group_IT_number 128
_symmetry_cell_setting 'tetragonal'
loop_
_space_group_symop_operation_xyz
x,y,z
-y,x,z
-x,-y,z
y,-x,z
1/2+x,1/2-y,1/2-z
1/2-x,1/2+y,1/2-z
1/2+y,1/2+x,1/2-z
1/2-y,1/2-x,1/2-z
-x,-y,-z
y,-x,-z
x,y,-z
-y,x,-z
1/2-x,1/2+y,1/2+z
1/2+x,1/2-y,1/2+z
1/2-y,1/2-x,1/2+z
1/2+y,1/2+x,1/2+z
loop_
_atom_site_type_symbol
_atom_site_label
_atom_site_fract_x
_atom_site_fract_y
_atom_site_fract_z
Si Si1 0.289141 0.253697 0.412824
Si Si2 0.535786 0.770343 0.134546
Si Si3 0.021659 0.153683 0.500000
Si Si4 0.719825 0.925484 0.790869
Si Si5 0.118947 0.363081 0.835562
O O1 0.310479 0.266961 0.500000
O O2 0.277627 0.141176 0.397817
O O3 0.369790 0.277869 0.352582
O O4 0.201179 0.317563 0.388911
O O5 0.539330 0.725583 0.217304
O O6 0.472869 0.864223 0.145999
O O7 0.476754 0.712694 0.074897
O O8 0.101413 0.077340 0.500000
O O9 0.644442 0.855559 0.750000
O O10 0.667995 0.010988 0.832067
O O11 0.152777 0.347224 0.750000
#
# Coordination Sequence:
#
# PCOD9564732 Si02
#       5
#    16  16   8  16  16
#     4  11  22  36  56  86 123 156 199 253 304 360
#     4  10  20  35  57  82 114 153 193 246 293 359
#     4  11  22  34  52  83 118 152 188 239 304 365
#     4   9  21  40  61  85 118 155 205 253 299 358
#     4  10  21  37  61  85 114 162 204 244 308 361
#
# _framework density 19.811731999999999
#
# number of rings (size 3 to 8) (size 9 to 14) (size 15 to 20)
#    0.000    1.889    1.111    3.333    1.556   12.889 
#    0.000    1.111    0.000    0.667    0.000    1.556 
#    0.000    0.000    0.000    0.000    0.000    0.000 
#
# Total GULP energy -401142.259504 kJ/mol
# GULP energy per Si atom -5571.420271 kJ/mol
# Density = 1.976664 g / cm^3
# Si number density = 19.811732 Si / 1000 Ang^3
#
#
#
# Elastic Constant Matrix: (Units=GPa)
#
#
# Indices 1 2 3 4 5 6 
#
# 1 46.8504 0.9354 38.7755 0.0000 0.0000 0.0000
# 2 0.9354 46.8513 38.7757 0.0000 0.0000 0.0000
# 3 38.7755 38.7757 137.3892 0.0000 0.0000 0.0000
# 4 0.0000 0.0000 0.0000 7.3312 0.0000 0.0000
# 5 0.0000 0.0000 0.0000 0.0000 7.3316 0.0000
# 6 0.0000 0.0000 0.0000 0.0000 0.0000 124.7895
#
#
#
# Elastic Compliance Matrix: (Units=1/GPa)
#
#
# Indices 1 2 3 4 5 6 
#
# 1 0.030196 0.008416 -0.010898 0.000000 0.000000 0.000000
# 2 0.008416 0.030195 -0.010897 0.000000 0.000000 0.000000
# 3 -0.010898 -0.010897 0.013430 0.000000 0.000000 0.000000
# 4 0.000000 0.000000 0.000000 0.136403 0.000000 0.000000
# 5 0.000000 0.000000 0.000000 0.000000 0.136395 0.000000
# 6 0.000000 0.000000 0.000000 0.000000 0.000000 0.008013
#
#
# Mechanical properties :
#
#
# Convention : Reuss Voigt Hill
#
# Bulk Modulus (GPa) = 21.24787 43.11822 32.18305
# Shear Modulus (GPa) = 12.59200 38.06410 25.32805
#
# Velocity S-wave (km/s) = 2.52381 4.38801 3.57940
# Velocity P-wave (km/s) = 4.38646 6.89087 5.77603
#
# Compressibility (1/GPa) = 0.04706353
#
# Stress axis : x y z
#
# Youngs Moduli (GPa) = 33.11718 33.11793 74.46120
#
# Poissons Ratio (x) = -0.27873 0.81144
# Poissons Ratio (y) = -0.27873 0.81143
# Poissons Ratio (z) = 0.36090 0.36090
#
# Static dielectric constant tensor:
#      x y z
#    x 1.727310 0.000000 0.000000 
#    y 0.000000 1.727310 0.000000 
#    z 0.000000 0.000000 1.815110 
# 
# From -- ./inp_files/4554.got.cif
#   From: 2010.05.17/outbox.cif.g08.bks.cpg/sg128_3_cif.got.tgz:4554.got - 2010.05.20 12:07:25.
