data_PCOD9564477
_publ_section_title
;
Structure prediction by ZEFSAII (Michael W. Deem and Ramdas Pophale) SiO2 
 PCOD9564477
Probable space group: P 4/M B M
;
_chemical_formula_sum "Si O2"
_cell_formula_units_Z 56
_cell_length_a 17.740278
_cell_length_b 17.740278
_cell_length_c 7.523603
_cell_angle_alpha 90.000000
_cell_angle_beta 90.000000
_cell_angle_gamma 90.000000
_cell_volume 2367.809253
_symmetry_space_group_name_H-M "P 4/M B M"
_symmetry_group_IT_number 127
_symmetry_cell_setting 'tetragonal'
loop_
_space_group_symop_operation_xyz
x,y,z
-y,x,z
-x,-y,z
y,-x,z
1/2+x,1/2-y,-z
1/2-x,1/2+y,-z
1/2+y,1/2+x,-z
1/2-y,1/2-x,-z
-x,-y,-z
y,-x,-z
x,y,-z
-y,x,-z
1/2-x,1/2+y,z
1/2+x,1/2-y,z
1/2-y,1/2-x,z
1/2+y,1/2+x,z
loop_
_atom_site_type_symbol
_atom_site_label
_atom_site_fract_x
_atom_site_fract_y
_atom_site_fract_z
Si Si1 0.675932 0.292150 0.290491
Si Si2 0.503955 0.126963 0.500000
Si Si3 0.050675 0.109662 0.717264
Si Si4 0.705881 0.921856 0.199211
O O1 0.666408 0.277549 0.500000
O O2 0.722421 0.222421 0.212186
O O3 0.595797 0.318126 0.217336
O O4 0.729737 0.366020 0.273465
O O5 0.439210 0.060791 0.500000
O O6 0.487492 0.180188 0.668541
O O7 0.583146 0.083146 0.500000
O O8 0.050164 0.111220 0.500000
O O9 0.965327 0.096160 0.772062
O O10 0.633278 0.866723 0.189527
O O11 0.724681 0.945867 0.000000
#
# Coordination Sequence:
#
# PCOD9564477 Si02
#       4
#    16   8  16  16
#     4   9  15  25  44  68  93 123 159 205 257 309
#     4   9  16  26  40  60  88 121 162 212 259 302
#     4   8  14  25  43  69  97 128 165 208 259 313
#     4   9  16  26  41  63  91 123 161 204 251 301
#
# _framework density 23.650554
#
# number of rings (size 3 to 8) (size 9 to 14) (size 15 to 20)
#    0.000    3.286    1.429    0.857    0.000    0.571 
#    0.000    2.857    0.000    3.429    0.000    2.000 
#    0.000    0.000    0.000    0.000    0.000    0.000 
#
# Total GULP energy -312637.879995 kJ/mol
# GULP energy per Si atom -5582.819286 kJ/mol
# Density = 2.359672 g / cm^3
# Si number density = 23.650554 Si / 1000 Ang^3
#
#
#
# Elastic Constant Matrix: (Units=GPa)
#
#
# Indices 1 2 3 4 5 6 
#
# 1 55.2309 82.7708 4.9550 0.0000 0.0000 0.0000
# 2 82.7708 55.2308 4.9549 0.0000 0.0000 0.0000
# 3 4.9550 4.9549 79.8461 0.0000 0.0000 0.0000
# 4 0.0000 0.0000 0.0000 -5.2077 0.0000 0.0000
# 5 0.0000 0.0000 0.0000 0.0000 -5.2078 0.0000
# 6 0.0000 0.0000 0.0000 0.0000 0.0000 32.6710
#
#
#
# Elastic Compliance Matrix: (Units=1/GPa)
#
#
# Indices 1 2 3 4 5 6 
#
# 1 -0.014516 0.021795 -0.000452 0.000000 0.000000 0.000000
# 2 0.021795 -0.014516 -0.000452 0.000000 0.000000 0.000000
# 3 -0.000452 -0.000452 0.012580 0.000000 0.000000 0.000000
# 4 0.000000 0.000000 0.000000 -0.192023 0.000000 0.000000
# 5 0.000000 0.000000 0.000000 0.000000 -0.192019 0.000000
# 6 0.000000 0.000000 0.000000 0.000000 0.000000 0.030608
#
#
# Mechanical properties :
#
#
# Convention : Reuss Voigt Hill
#
# Bulk Modulus (GPa) = 39.47756 41.74102 40.60929
# Shear Modulus (GPa) = -12.40002 10.95957 -0.72022
#
# Velocity S-wave (km/s) = -2.29225 2.15500 -0.55244
# Velocity P-wave (km/s) = 3.11808 4.88666 4.09889
#
# Compressibility (1/GPa) = 0.02533085
#
# Stress axis : x y z
#
# Youngs Moduli (GPa) = -68.88907 -68.88892 79.49028
#
# Poissons Ratio (x) = 1.50142 0.03590
# Poissons Ratio (y) = 1.50143 0.03591
# Poissons Ratio (z) = -0.03112 -0.03112
#
# Static dielectric constant tensor:
#      x y z
#    x 1.911000 0.000000 0.000000 
#    y 0.000000 1.911000 0.000000 
#    z 0.000000 0.000000 1.877580 
# 
# From -- ./inp_files/1096.got.cif
#   From: 2010.05.17/outbox.cif.g08.bks.cpg/sg127_1_cif.got.tgz:1096.got - 2010.05.20 12:03:00.
