data_PCOD9564216
_publ_section_title
;
Structure prediction by ZEFSAII (Michael W. Deem and Ramdas Pophale) SiO2 
 PCOD9564216
Probable space group: P 4/M B M
;
_chemical_formula_sum "Si O2"
_cell_formula_units_Z 96
_cell_length_a 14.743413
_cell_length_b 14.743413
_cell_length_c 23.373560
_cell_angle_alpha 90.000000
_cell_angle_beta 90.000000
_cell_angle_gamma 90.000000
_cell_volume 5080.669293
_symmetry_space_group_name_H-M "P 4/M B M"
_symmetry_group_IT_number 127
_symmetry_cell_setting 'tetragonal'
loop_
_space_group_symop_operation_xyz
x,y,z
-y,x,z
-x,-y,z
y,-x,z
1/2+x,1/2-y,-z
1/2-x,1/2+y,-z
1/2+y,1/2+x,-z
1/2-y,1/2-x,-z
-x,-y,-z
y,-x,-z
x,y,-z
-y,x,-z
1/2-x,1/2+y,z
1/2+x,1/2-y,z
1/2-y,1/2-x,z
1/2+y,1/2+x,z
loop_
_atom_site_type_symbol
_atom_site_label
_atom_site_fract_x
_atom_site_fract_y
_atom_site_fract_z
Si Si1 0.997605 0.350623 0.836370
Si Si2 0.234878 0.886778 0.248995
Si Si3 0.395534 0.740697 0.617819
Si Si4 0.108772 0.103885 0.152085
Si Si5 0.250460 0.598150 0.063756
Si Si6 0.750761 0.400038 0.431240
O O1 0.907722 0.407722 0.820322
O O2 0.974885 0.296157 0.894076
O O3 0.076648 0.423353 0.847537
O O4 0.033663 0.287182 0.785454
O O5 0.301230 0.801230 0.247479
O O6 0.219627 0.908888 0.314919
O O7 0.146916 0.861718 0.211939
O O8 0.331709 0.831709 0.612134
O O9 0.335555 0.658859 0.590965
O O10 0.496043 0.751668 0.591039
O O11 0.165063 0.139584 0.098484
O O12 0.002927 0.120371 0.148805
O O13 0.176146 0.676146 0.058661
O O14 0.274011 0.565293 0.000000
O O15 0.747127 0.402273 0.500000
O O16 0.840363 0.340363 0.414628
#
# Coordination Sequence:
#
# PCOD9564216 Si02
#       6
#    16  16  16  16  16  16
#     4   9  18  35  60  86 112 144 186 243 305 360
#     4  10  21  39  61  87 116 150 191 239 301 356
#     4  10  23  40  62  95 130 165 212 264 311 372
#     4  11  23  38  56  79 111 151 191 235 285 343
#     4  10  21  38  59  82 109 145 191 242 298 356
#     4  10  22  41  65  93 129 174 215 257 311 364
#
# _framework density 18.895150000000001
#
# number of rings (size 3 to 8) (size 9 to 14) (size 15 to 20)
#    0.000    2.000    1.667    1.000    2.333    3.333 
#    0.000    5.833    0.000    0.000    0.000    0.000 
#    0.000    0.000    0.000    0.000    0.000    0.000 
#
# Total GULP energy -535053.561509 kJ/mol
# GULP energy per Si atom -5573.474599 kJ/mol
# Density = 1.885214 g / cm^3
# Si number density = 18.895150 Si / 1000 Ang^3
#
#
#
# Elastic Constant Matrix: (Units=GPa)
#
#
# Indices 1 2 3 4 5 6 
#
# 1 110.0783 26.0681 50.2434 0.0000 0.0000 0.0000
# 2 26.0681 110.0783 50.2434 0.0000 0.0000 0.0000
# 3 50.2434 50.2434 135.9926 0.0000 0.0000 0.0000
# 4 0.0000 0.0000 0.0000 31.1760 0.0000 0.0000
# 5 0.0000 0.0000 0.0000 0.0000 31.1760 0.0000
# 6 0.0000 0.0000 0.0000 0.0000 0.0000 3.9882
#
#
#
# Elastic Compliance Matrix: (Units=1/GPa)
#
#
# Indices 1 2 3 4 5 6 
#
# 1 0.011001 -0.000902 -0.003731 0.000000 0.000000 0.000000
# 2 -0.000902 0.011001 -0.003731 0.000000 0.000000 0.000000
# 3 -0.003731 -0.003731 0.010110 0.000000 0.000000 0.000000
# 4 0.000000 0.000000 0.000000 0.032076 0.000000 0.000000
# 5 0.000000 0.000000 0.000000 0.000000 0.032076 0.000000
# 6 0.000000 0.000000 0.000000 0.000000 0.000000 0.250737
#
#
# Mechanical properties :
#
#
# Convention : Reuss Voigt Hill
#
# Bulk Modulus (GPa) = 65.00401 67.69542 66.34971
# Shear Modulus (GPa) = 13.55534 28.57433 21.06484
#
# Velocity S-wave (km/s) = 2.68133 3.89299 3.34253
# Velocity P-wave (km/s) = 6.63801 7.49079 7.07726
#
# Compressibility (1/GPa) = 0.01538367
#
# Stress axis : x y z
#
# Youngs Moduli (GPa) = 90.89998 90.89998 98.90903
#
# Poissons Ratio (x) = 0.08201 0.36904
# Poissons Ratio (y) = 0.08201 0.36904
# Poissons Ratio (z) = 0.33916 0.33916
#
# Static dielectric constant tensor:
#      x y z
#    x 1.677910 0.000000 0.000000 
#    y 0.000000 1.677910 0.000000 
#    z 0.000000 0.000000 1.695630 
# 
# From -- ./inp_files/5795.got.cif
#   From: 2010.05.17/outbox.cif.g08.bks.cpg/sg127_3_cif.got.tgz:5795.got - 2010.05.20 12:03:00.
