data_PCOD9564320
_publ_section_title
;
Structure prediction by ZEFSAII (Michael W. Deem and Ramdas Pophale) SiO2 
 PCOD9564320
Probable space group: P 4/M B M
;
_chemical_formula_sum "Si O2"
_cell_formula_units_Z 68
_cell_length_a 17.093144
_cell_length_b 17.093144
_cell_length_c 12.073044
_cell_angle_alpha 90.000000
_cell_angle_beta 90.000000
_cell_angle_gamma 90.000000
_cell_volume 3527.448534
_symmetry_space_group_name_H-M "P 4/M B M"
_symmetry_group_IT_number 127
_symmetry_cell_setting 'tetragonal'
loop_
_space_group_symop_operation_xyz
x,y,z
-y,x,z
-x,-y,z
y,-x,z
1/2+x,1/2-y,-z
1/2-x,1/2+y,-z
1/2+y,1/2+x,-z
1/2-y,1/2-x,-z
-x,-y,-z
y,-x,-z
x,y,-z
-y,x,-z
1/2-x,1/2+y,z
1/2+x,1/2-y,z
1/2-y,1/2-x,z
1/2+y,1/2+x,z
loop_
_atom_site_type_symbol
_atom_site_label
_atom_site_fract_x
_atom_site_fract_y
_atom_site_fract_z
Si Si1 0.179294 0.320707 0.243240
Si Si2 0.691246 0.581912 0.271093
Si Si3 0.890141 0.071793 0.500000
Si Si4 0.453841 0.175247 0.000000
Si Si5 0.859007 0.640994 0.000000
Si Si6 0.216915 0.088267 0.208913
Si Si7 0.201722 0.701722 0.633197
O O1 0.215382 0.404242 0.273720
O O2 0.178114 0.321887 0.110274
O O3 0.236480 0.263521 0.313227
O O4 0.654661 0.597351 0.390704
O O5 0.676056 0.493759 0.236813
O O6 0.651096 0.646830 0.192142
O O7 0.977845 0.103974 0.500000
O O8 0.547308 0.158695 0.000000
O O9 0.427078 0.226686 0.105638
O O10 0.405297 0.094704 0.000000
O O11 0.269266 0.120951 0.310865
O O12 0.201428 0.701428 0.500000
#
# Coordination Sequence:
#
# PCOD9564320 Si02
#       7
#     8  16   8   8   4  16   8
#     4  10  24  37  64  94 128 162 217 280 327 374
#     4  11  23  39  61  98 126 172 214 272 330 394
#     4  11  22  37  64  90 134 178 219 260 318 407
#     4  12  25  47  69  96 126 177 222 271 328 397
#     4  12  23  46  70  98 128 168 226 285 322 390
#     4  11  24  41  65  95 132 169 221 270 334 389
#     4  10  24  42  63  97 135 178 222 268 327 404
#
# _framework density 19.277388999999999
#
# number of rings (size 3 to 8) (size 9 to 14) (size 15 to 20)
#    0.000    1.059    5.882    0.176    8.235    5.176 
#    0.000    0.000    0.000    1.412    0.000    1.647 
#    0.000    0.000    0.000    0.000    0.000    0.000 
#
# Total GULP energy -379034.511181 kJ/mol
# GULP energy per Si atom -5574.036929 kJ/mol
# Density = 1.923351 g / cm^3
# Si number density = 19.277389 Si / 1000 Ang^3
#
#
#
# Elastic Constant Matrix: (Units=GPa)
#
#
# Indices 1 2 3 4 5 6 
#
# 1 86.9025 33.2717 40.8498 0.0000 0.0000 0.0000
# 2 33.2717 86.9039 40.8505 0.0000 0.0000 0.0000
# 3 40.8498 40.8505 145.1939 0.0000 0.0000 0.0000
# 4 0.0000 0.0000 0.0000 27.7273 0.0000 0.0000
# 5 0.0000 0.0000 0.0000 0.0000 27.7265 0.0000
# 6 0.0000 0.0000 0.0000 0.0000 0.0000 35.5494
#
#
#
# Elastic Compliance Matrix: (Units=1/GPa)
#
#
# Indices 1 2 3 4 5 6 
#
# 1 0.014468 -0.004178 -0.002895 0.000000 0.000000 0.000000
# 2 -0.004178 0.014467 -0.002895 0.000000 0.000000 0.000000
# 3 -0.002895 -0.002895 0.008516 0.000000 0.000000 0.000000
# 4 0.000000 0.000000 0.000000 0.036066 0.000000 0.000000
# 5 0.000000 0.000000 0.000000 0.000000 0.036067 0.000000
# 6 0.000000 0.000000 0.000000 0.000000 0.000000 0.028130
#
#
# Mechanical properties :
#
#
# Convention : Reuss Voigt Hill
#
# Bulk Modulus (GPa) = 57.09286 60.99381 59.04333
# Shear Modulus (GPa) = 30.58331 31.80250 31.19291
#
# Velocity S-wave (km/s) = 3.98739 4.06609 4.02694
# Velocity P-wave (km/s) = 7.13301 7.33164 7.23301
#
# Compressibility (1/GPa) = 0.01751532
#
# Stress axis : x y z
#
# Youngs Moduli (GPa) = 69.11987 69.12081 117.42208
#
# Poissons Ratio (x) = 0.28880 0.33992
# Poissons Ratio (y) = 0.28880 0.33992
# Poissons Ratio (z) = 0.20009 0.20010
#
# Static dielectric constant tensor:
#      x y z
#    x 1.703020 0.000000 0.000000 
#    y 0.000000 1.703020 0.000000 
#    z 0.000000 0.000000 1.653020 
# 
# From -- ./inp_files/3272.got.cif
#   From: 2010.05.17/outbox.cif.g08.bks.cpg/sg127_2_cif.got.tgz:3272.got - 2010.05.20 12:03:00.
