data_PCOD9564263
_publ_section_title
;
Structure prediction by ZEFSAII (Michael W. Deem and Ramdas Pophale) SiO2 
 PCOD9564263
Probable space group: P 4/M B M
;
_chemical_formula_sum "Si O2"
_cell_formula_units_Z 84
_cell_length_a 15.077533
_cell_length_b 15.077533
_cell_length_c 20.611969
_cell_angle_alpha 90.000000
_cell_angle_beta 90.000000
_cell_angle_gamma 90.000000
_cell_volume 4685.760165
_symmetry_space_group_name_H-M "P 4/M B M"
_symmetry_group_IT_number 127
_symmetry_cell_setting 'tetragonal'
loop_
_space_group_symop_operation_xyz
x,y,z
-y,x,z
-x,-y,z
y,-x,z
1/2+x,1/2-y,-z
1/2-x,1/2+y,-z
1/2+y,1/2+x,-z
1/2-y,1/2-x,-z
-x,-y,-z
y,-x,-z
x,y,-z
-y,x,-z
1/2-x,1/2+y,z
1/2+x,1/2-y,z
1/2-y,1/2-x,z
1/2+y,1/2+x,z
loop_
_atom_site_type_symbol
_atom_site_label
_atom_site_fract_x
_atom_site_fract_y
_atom_site_fract_z
Si Si1 0.363823 0.441761 0.423590
Si Si2 0.000000 0.000000 0.740783
Si Si3 0.804418 0.545940 0.342748
Si Si4 0.391148 0.603613 0.000000
Si Si5 0.423837 0.076164 0.426395
Si Si6 0.321649 0.327397 0.863175
Si Si7 0.704459 0.494411 0.781799
O O1 0.454975 0.388925 0.411439
O O2 0.342153 0.432515 0.500000
O O3 0.282696 0.415978 0.378416
O O4 0.008537 0.891367 0.747070
O O5 0.878664 0.621337 0.336819
O O6 0.843134 0.468093 0.388147
O O7 0.777345 0.508114 0.273280
O O8 0.379675 0.497127 0.000000
O O9 0.349243 0.644675 0.064583
O O10 0.399968 0.100032 0.500000
O O11 0.500000 0.000000 0.429035
O O12 0.240211 0.259790 0.863048
O O13 0.296696 0.420520 0.829125
O O14 0.404541 0.287808 0.822899
#
# Coordination Sequence:
#
# PCOD9564263 Si02
#       7
#    16   4  16   8   8  16  16
#     4   9  20  38  58  81 111 149 191 242 305 365
#     4   8  20  36  56  81 121 152 184 240 306 360
#     4  11  23  38  59  85 118 155 198 246 302 363
#     4  11  21  38  66  94 123 161 206 258 306 351
#     4   9  20  40  62  80 108 157 207 250 298 358
#     4  11  22  39  63  90 126 162 201 249 303 364
#     4  10  22  37  58  92 122 154 197 249 306 362
#
# _framework density 17.926653000000002
#
# number of rings (size 3 to 8) (size 9 to 14) (size 15 to 20)
#    0.000    1.905    1.905    2.000    6.667    1.143 
#    1.714    0.000    0.000    0.000    0.000    1.333 
#    0.000    0.000    0.000    0.000    0.000    0.000 
#
# Total GULP energy -468128.583574 kJ/mol
# GULP energy per Si atom -5572.959328 kJ/mol
# Density = 1.788585 g / cm^3
# Si number density = 17.926653 Si / 1000 Ang^3
#
#
#
# Elastic Constant Matrix: (Units=GPa)
#
#
# Indices 1 2 3 4 5 6 
#
# 1 51.1080 -3.8017 19.7294 0.0000 0.0000 0.0000
# 2 -3.8017 51.1079 19.7293 0.0000 0.0000 0.0000
# 3 19.7294 19.7293 115.2979 0.0000 0.0000 0.0000
# 4 0.0000 0.0000 0.0000 24.2953 0.0000 0.0000
# 5 0.0000 0.0000 0.0000 0.0000 24.2953 0.0000
# 6 0.0000 0.0000 0.0000 0.0000 0.0000 31.1085
#
#
#
# Elastic Compliance Matrix: (Units=1/GPa)
#
#
# Indices 1 2 3 4 5 6 
#
# 1 0.021435 0.003223 -0.004219 0.000000 0.000000 0.000000
# 2 0.003223 0.021435 -0.004219 0.000000 0.000000 0.000000
# 3 -0.004219 -0.004219 0.010117 0.000000 0.000000 0.000000
# 4 0.000000 0.000000 0.000000 0.041160 0.000000 0.000000
# 5 0.000000 0.000000 0.000000 0.000000 0.041160 0.000000
# 6 0.000000 0.000000 0.000000 0.000000 0.000000 0.032146
#
#
# Mechanical properties :
#
#
# Convention : Reuss Voigt Hill
#
# Bulk Modulus (GPa) = 23.49840 32.09197 27.79519
# Shear Modulus (GPa) = 26.03221 28.06362 27.04792
#
# Velocity S-wave (km/s) = 3.81484 3.96089 3.88855
# Velocity P-wave (km/s) = 5.70444 6.23369 5.97493
#
# Compressibility (1/GPa) = 0.04255610
#
# Stress axis : x y z
#
# Youngs Moduli (GPa) = 46.65264 46.65256 98.84147
#
# Poissons Ratio (x) = -0.15037 0.41706
# Poissons Ratio (y) = -0.15037 0.41705
# Poissons Ratio (z) = 0.19685 0.19685
#
# Static dielectric constant tensor:
#      x y z
#    x 1.597070 0.000000 0.000000 
#    y 0.000000 1.597070 0.000000 
#    z 0.000000 0.000000 1.629500 
# 
# From -- ./inp_files/5738.got.cif
#   From: 2010.05.17/outbox.cif.g08.bks.cpg/sg127_3_cif.got.tgz:5738.got - 2010.05.20 12:03:00.
