data_PCOD9564701
_publ_section_title
;
Structure prediction by ZEFSAII (Michael W. Deem and Ramdas Pophale) SiO2 
 PCOD9564701
Probable space group: P 4/M N C
;
_chemical_formula_sum "Si O2"
_cell_formula_units_Z 96
_cell_length_a 24.458195
_cell_length_b 24.458195
_cell_length_c 8.608861
_cell_angle_alpha 90.000000
_cell_angle_beta 90.000000
_cell_angle_gamma 90.000000
_cell_volume 5149.849082
_symmetry_space_group_name_H-M "P 4/M N C"
_symmetry_group_IT_number 128
_symmetry_cell_setting 'tetragonal'
loop_
_space_group_symop_operation_xyz
x,y,z
-y,x,z
-x,-y,z
y,-x,z
1/2+x,1/2-y,1/2-z
1/2-x,1/2+y,1/2-z
1/2+y,1/2+x,1/2-z
1/2-y,1/2-x,1/2-z
-x,-y,-z
y,-x,-z
x,y,-z
-y,x,-z
1/2-x,1/2+y,1/2+z
1/2+x,1/2-y,1/2+z
1/2-y,1/2-x,1/2+z
1/2+y,1/2+x,1/2+z
loop_
_atom_site_type_symbol
_atom_site_label
_atom_site_fract_x
_atom_site_fract_y
_atom_site_fract_z
Si Si1 0.225295 0.507240 0.319906
Si Si2 0.620696 0.607976 0.823463
Si Si3 0.718197 0.865359 0.188303
Si Si4 0.707878 0.677321 0.321170
Si Si5 0.162532 0.004865 0.323755
Si Si6 0.690793 0.108774 0.684363
O O1 0.209312 0.507181 0.500000
O O2 0.219330 0.570597 0.261011
O O3 0.289558 0.496500 0.297314
O O4 0.198449 0.453940 0.240702
O O5 0.662067 0.631142 0.698389
O O6 0.618967 0.543168 0.812306
O O7 0.562927 0.635531 0.804054
O O8 0.641006 0.621138 0.000000
O O9 0.664090 0.835911 0.250000
O O10 0.768841 0.825343 0.239866
O O11 0.720458 0.865743 0.000000
O O12 0.722768 0.687900 0.500000
O O13 0.760185 0.649898 0.239084
O O14 0.186300 0.001778 0.500000
O O15 0.635723 0.135723 0.750000
O O16 0.690677 0.109050 0.500000
#
# Coordination Sequence:
#
# PCOD9564701 Si02
#       6
#    16  16  16  16  16  16
#     4  11  22  39  60  85 116 153 191 237 289 347
#     4  10  20  33  52  79 112 154 203 249 293 343
#     4  10  23  39  59  88 120 154 193 234 288 343
#     4  11  21  36  57  86 120 157 193 240 293 344
#     4  10  20  34  53  79 111 155 203 247 293 343
#     4  12  25  41  61  90 120 154 193 237 291 350
#
# _framework density 18.641324000000001
#
# number of rings (size 3 to 8) (size 9 to 14) (size 15 to 20)
#    0.000    1.333    3.333    3.000    0.000    4.333 
#    0.000    1.667    0.000    0.500    0.000    5.833 
#    0.000    0.000    0.000    0.000    0.000    0.000 
#
# Total GULP energy -535124.970836 kJ/mol
# GULP energy per Si atom -5574.218446 kJ/mol
# Density = 1.859890 g / cm^3
# Si number density = 18.641324 Si / 1000 Ang^3
#
#
#
# Elastic Constant Matrix: (Units=GPa)
#
#
# Indices 1 2 3 4 5 6 
#
# 1 81.4726 44.0788 21.8222 0.0000 0.0000 0.0000
# 2 44.0788 81.4700 21.8214 0.0000 0.0000 0.0000
# 3 21.8222 21.8214 46.4306 0.0000 0.0000 0.0000
# 4 0.0000 0.0000 0.0000 21.2653 0.0000 0.0000
# 5 0.0000 0.0000 0.0000 0.0000 21.2655 0.0000
# 6 0.0000 0.0000 0.0000 0.0000 0.0000 13.3141
#
#
#
# Elastic Compliance Matrix: (Units=1/GPa)
#
#
# Indices 1 2 3 4 5 6 
#
# 1 0.018132 -0.008612 -0.004475 0.000000 0.000000 0.000000
# 2 -0.008612 0.018132 -0.004474 0.000000 0.000000 0.000000
# 3 -0.004475 -0.004474 0.025743 0.000000 0.000000 0.000000
# 4 0.000000 0.000000 0.000000 0.047025 0.000000 0.000000
# 5 0.000000 0.000000 0.000000 0.000000 0.047024 0.000000
# 6 0.000000 0.000000 0.000000 0.000000 0.000000 0.075108
#
#
# Mechanical properties :
#
#
# Convention : Reuss Voigt Hill
#
# Bulk Modulus (GPa) = 37.19366 42.75757 39.97561
# Shear Modulus (GPa) = 18.16545 19.27903 18.72224
#
# Velocity S-wave (km/s) = 3.12504 3.21940 3.17257
# Velocity P-wave (km/s) = 5.74602 6.06681 5.90859
#
# Compressibility (1/GPa) = 0.02688630
#
# Stress axis : x y z
#
# Youngs Moduli (GPa) = 55.15227 55.15082 38.84490
#
# Poissons Ratio (x) = 0.47493 0.17381
# Poissons Ratio (y) = 0.47494 0.17381
# Poissons Ratio (z) = 0.24678 0.24676
#
# Static dielectric constant tensor:
#      x y z
#    x 1.650280 0.000000 0.000000 
#    y 0.000000 1.650290 0.000000 
#    z 0.000000 0.000000 1.690810 
# 
# From -- ./inp_files/1443.got.cif
#   From: 2010.05.17/outbox.cif.g08.bks.cpg/sg128_1_cif.got.tgz:1443.got - 2010.05.20 12:07:25.
