data_PCOD9564905
_publ_section_title
;
Structure prediction by ZEFSAII (Michael W. Deem and Ramdas Pophale) SiO2 
 PCOD9564905
Probable space group: P 4/M N C
;
_chemical_formula_sum "Si O2"
_cell_formula_units_Z 112
_cell_length_a 13.809228
_cell_length_b 13.809228
_cell_length_c 24.644330
_cell_angle_alpha 90.000000
_cell_angle_beta 90.000000
_cell_angle_gamma 90.000000
_cell_volume 4699.545037
_symmetry_space_group_name_H-M "P 4/M N C"
_symmetry_group_IT_number 128
_symmetry_cell_setting 'tetragonal'
loop_
_space_group_symop_operation_xyz
x,y,z
-y,x,z
-x,-y,z
y,-x,z
1/2+x,1/2-y,1/2-z
1/2-x,1/2+y,1/2-z
1/2+y,1/2+x,1/2-z
1/2-y,1/2-x,1/2-z
-x,-y,-z
y,-x,-z
x,y,-z
-y,x,-z
1/2-x,1/2+y,1/2+z
1/2+x,1/2-y,1/2+z
1/2-y,1/2-x,1/2+z
1/2+y,1/2+x,1/2+z
loop_
_atom_site_type_symbol
_atom_site_label
_atom_site_fract_x
_atom_site_fract_y
_atom_site_fract_z
Si Si1 0.853681 0.255169 0.560585
Si Si2 0.803900 0.148910 0.727823
Si Si3 0.516546 0.257339 0.682107
Si Si4 0.476463 0.662218 0.560608
Si Si5 0.286502 0.927164 0.439631
Si Si6 0.934065 0.629726 0.330522
Si Si7 0.836710 0.354071 0.826740
O O1 0.834699 0.293897 0.500000
O O2 0.787251 0.161265 0.567801
O O3 0.968475 0.234085 0.564371
O O4 0.834336 0.328782 0.609146
O O5 0.725653 0.225653 0.750000
O O6 0.828238 0.072536 0.776009
O O7 0.741122 0.086537 0.685408
O O8 0.866367 0.226046 0.693574
O O9 0.531421 0.284463 0.618938
O O10 0.566847 0.153127 0.691954
O O11 0.403823 0.233866 0.694374
O O12 0.393884 0.579126 0.561616
O O13 0.468191 0.709867 0.500000
O O14 0.326725 0.919903 0.500000
O O15 0.370337 0.926657 0.395394
O O16 0.044413 0.610745 0.315299
#
# Coordination Sequence:
#
# PCOD9564905 Si02
#       7
#    16  16  16  16  16  16  16
#     4   9  18  33  57  90 127 175 225 275 341 402
#     4  10  24  41  61  92 126 168 223 273 332 396
#     4  11  25  40  68  99 128 175 229 274 344 406
#     4   9  21  42  67  99 138 176 220 278 343 417
#     4   9  17  32  55  85 127 174 223 280 335 401
#     4  10  22  41  59  94 132 169 223 271 336 405
#     4  11  23  41  67  92 136 176 218 285 340 400
#
# _framework density 23.832094000000001
#
# number of rings (size 3 to 8) (size 9 to 14) (size 15 to 20)
#    0.000    2.143    1.429    0.857    6.000    1.429 
#    0.000    6.429    0.000    4.714    0.000    0.000 
#    0.000    0.000    0.000    0.000    0.000    0.000 
#
# Total GULP energy -624645.993239 kJ/mol
# GULP energy per Si atom -5577.196368 kJ/mol
# Density = 2.377785 g / cm^3
# Si number density = 23.832094 Si / 1000 Ang^3
#
#
#
# Elastic Constant Matrix: (Units=GPa)
#
#
# Indices 1 2 3 4 5 6 
#
# 1 66.9437 28.7167 19.8030 0.0000 0.0000 0.0000
# 2 28.7167 66.9437 19.8030 0.0000 0.0000 0.0000
# 3 19.8030 19.8030 145.3746 0.0000 0.0000 0.0000
# 4 0.0000 0.0000 0.0000 25.2524 0.0000 0.0000
# 5 0.0000 0.0000 0.0000 0.0000 25.2524 0.0000
# 6 0.0000 0.0000 0.0000 0.0000 0.0000 33.0116
#
#
#
# Elastic Compliance Matrix: (Units=1/GPa)
#
#
# Indices 1 2 3 4 5 6 
#
# 1 0.018619 -0.007541 -0.001509 0.000000 0.000000 0.000000
# 2 -0.007541 0.018619 -0.001509 0.000000 0.000000 0.000000
# 3 -0.001509 -0.001509 0.007290 0.000000 0.000000 0.000000
# 4 0.000000 0.000000 0.000000 0.039600 0.000000 0.000000
# 5 0.000000 0.000000 0.000000 0.000000 0.039600 0.000000
# 6 0.000000 0.000000 0.000000 0.000000 0.000000 0.030292
#
#
# Mechanical properties :
#
#
# Convention : Reuss Voigt Hill
#
# Bulk Modulus (GPa) = 42.71609 46.21195 44.46402
# Shear Modulus (GPa) = 27.33114 30.76592 29.04853
#
# Velocity S-wave (km/s) = 3.39015 3.59687 3.49504
# Velocity P-wave (km/s) = 5.76947 6.05662 5.91479
#
# Compressibility (1/GPa) = 0.02341038
#
# Stress axis : x y z
#
# Youngs Moduli (GPa) = 53.70864 53.70864 137.17558
#
# Poissons Ratio (x) = 0.40499 0.20701
# Poissons Ratio (y) = 0.40499 0.20701
# Poissons Ratio (z) = 0.08105 0.08105
#
# Static dielectric constant tensor:
#      x y z
#    x 1.934010 0.000000 0.000000 
#    y 0.000000 1.934010 0.000000 
#    z 0.000000 0.000000 2.004570 
# 
# From -- ./inp_files/6565.got.cif
#   From: 2010.05.17/outbox.cif.g08.bks.cpg/sg128_4_cif.got.tgz:6565.got - 2010.05.20 12:07:25.
