data_PCOD9564011
_publ_section_title
;
Structure prediction by ZEFSAII (Michael W. Deem and Ramdas Pophale) SiO2 
 PCOD9564011
Probable space group: P 4/M B M
;
_chemical_formula_sum "Si O2"
_cell_formula_units_Z 112
_cell_length_a 22.865723
_cell_length_b 22.865723
_cell_length_c 13.019198
_cell_angle_alpha 90.000000
_cell_angle_beta 90.000000
_cell_angle_gamma 90.000000
_cell_volume 6806.974255
_symmetry_space_group_name_H-M "P 4/M B M"
_symmetry_group_IT_number 127
_symmetry_cell_setting 'tetragonal'
loop_
_space_group_symop_operation_xyz
x,y,z
-y,x,z
-x,-y,z
y,-x,z
1/2+x,1/2-y,-z
1/2-x,1/2+y,-z
1/2+y,1/2+x,-z
1/2-y,1/2-x,-z
-x,-y,-z
y,-x,-z
x,y,-z
-y,x,-z
1/2-x,1/2+y,z
1/2+x,1/2-y,z
1/2-y,1/2-x,z
1/2+y,1/2+x,z
loop_
_atom_site_type_symbol
_atom_site_label
_atom_site_fract_x
_atom_site_fract_y
_atom_site_fract_z
Si Si1 0.199109 0.398634 0.882501
Si Si2 0.935126 0.435126 0.625374
Si Si3 0.818562 0.110997 0.760776
Si Si4 0.375890 0.289895 0.623344
Si Si5 0.860875 0.544858 0.692618
Si Si6 0.487937 0.732352 0.381738
Si Si7 0.558021 0.425433 0.876705
Si Si8 0.161555 0.661555 0.623689
O O1 0.158189 0.341812 0.885564
O O2 0.260498 0.381473 0.829836
O O3 0.164230 0.443879 0.807917
O O4 0.207227 0.419718 0.000000
O O5 0.941050 0.441050 0.500000
O O6 0.909150 0.494665 0.673095
O O7 0.886380 0.386380 0.650494
O O8 0.839234 0.163185 0.687031
O O9 0.802192 0.056116 0.689858
O O10 0.873618 0.095186 0.830646
O O11 0.367134 0.297410 0.500000
O O12 0.445682 0.286964 0.641319
O O13 0.354757 0.225990 0.656868
O O14 0.894080 0.605921 0.662647
O O15 0.802146 0.524599 0.632767
O O16 0.476577 0.718512 0.500000
O O17 0.579344 0.489949 0.845145
O O18 0.559650 0.423418 0.000000
O O19 0.162012 0.662012 0.500000
#
# Coordination Sequence:
#
# PCOD9564011 Si02
#       8
#    16   8  16  16  16  16  16   8
#     4   9  20  38  54  71 101 136 172 219 270 315
#     4  11  19  32  54  82 112 144 179 220 264 317
#     4  11  20  31  54  78  98 128 178 217 254 303
#     4  10  20  34  51  73 105 141 174 207 251 313
#     4  10  20  33  53  80 105 137 181 224 269 317
#     4  10  20  34  49  72 109 145 172 210 263 317
#     4   9  18  33  52  75 101 124 156 209 266 315
#     4   9  18  33  52  70 102 148 180 200 249 313
#
# _framework density 16.453713
#
# number of rings (size 3 to 8) (size 9 to 14) (size 15 to 20)
#    0.000    2.143    1.429    2.786    1.000    1.429 
#    0.000    0.357    0.000    2.571    0.000    6.000 
#    0.000    0.000    0.000    0.000    0.000    0.000 
#
# Total GULP energy -623832.306238 kJ/mol
# GULP energy per Si atom -5569.931306 kJ/mol
# Density = 1.641626 g / cm^3
# Si number density = 16.453713 Si / 1000 Ang^3
#
#
#
# Elastic Constant Matrix: (Units=GPa)
#
#
# Indices 1 2 3 4 5 6 
#
# 1 63.1806 38.4774 36.8815 0.0000 0.0000 0.0000
# 2 38.4774 63.1806 36.8815 0.0000 0.0000 0.0000
# 3 36.8815 36.8815 76.8728 0.0000 0.0000 0.0000
# 4 0.0000 0.0000 0.0000 22.4568 0.0000 0.0000
# 5 0.0000 0.0000 0.0000 0.0000 22.4568 0.0000
# 6 0.0000 0.0000 0.0000 0.0000 0.0000 29.8508
#
#
#
# Elastic Compliance Matrix: (Units=1/GPa)
#
#
# Indices 1 2 3 4 5 6 
#
# 1 0.027785 -0.012695 -0.007240 0.000000 0.000000 0.000000
# 2 -0.012695 0.027785 -0.007240 0.000000 0.000000 0.000000
# 3 -0.007240 -0.007240 0.019956 0.000000 0.000000 0.000000
# 4 0.000000 0.000000 0.000000 0.044530 0.000000 0.000000
# 5 0.000000 0.000000 0.000000 0.000000 0.044530 0.000000
# 6 0.000000 0.000000 0.000000 0.000000 0.000000 0.033500
#
#
# Mechanical properties :
#
#
# Convention : Reuss Voigt Hill
#
# Bulk Modulus (GPa) = 47.22247 47.52388 47.37318
# Shear Modulus (GPa) = 19.26823 21.01914 20.14368
#
# Velocity S-wave (km/s) = 3.42578 3.57805 3.50274
# Velocity P-wave (km/s) = 6.66412 6.78351 6.72408
#
# Compressibility (1/GPa) = 0.02117636
#
# Stress axis : x y z
#
# Youngs Moduli (GPa) = 35.99015 35.99015 50.11149
#
# Poissons Ratio (x) = 0.45690 0.36280
# Poissons Ratio (y) = 0.45690 0.36280
# Poissons Ratio (z) = 0.26056 0.26056
#
# Static dielectric constant tensor:
#      x y z
#    x 1.558300 0.000000 0.000000 
#    y 0.000000 1.558300 0.000000 
#    z 0.000000 0.000000 1.544730 
# 
# From -- ./inp_files/3827.got.cif
#   From: 2010.05.17/outbox.cif.g08.bks.cpg/sg127_2_cif.got.tgz:3827.got - 2010.05.20 12:03:00.
