data_PCOD9564903
_publ_section_title
;
Structure prediction by ZEFSAII (Michael W. Deem and Ramdas Pophale) SiO2 
 PCOD9564903
Probable space group: P 4/M N C
;
_chemical_formula_sum "Si O2"
_cell_formula_units_Z 80
_cell_length_a 17.236388
_cell_length_b 17.236388
_cell_length_c 14.493402
_cell_angle_alpha 90.000000
_cell_angle_beta 90.000000
_cell_angle_gamma 90.000000
_cell_volume 4305.889314
_symmetry_space_group_name_H-M "P 4/M N C"
_symmetry_group_IT_number 128
_symmetry_cell_setting 'tetragonal'
loop_
_space_group_symop_operation_xyz
x,y,z
-y,x,z
-x,-y,z
y,-x,z
1/2+x,1/2-y,1/2-z
1/2-x,1/2+y,1/2-z
1/2+y,1/2+x,1/2-z
1/2-y,1/2-x,1/2-z
-x,-y,-z
y,-x,-z
x,y,-z
-y,x,-z
1/2-x,1/2+y,1/2+z
1/2+x,1/2-y,1/2+z
1/2-y,1/2-x,1/2+z
1/2+y,1/2+x,1/2+z
loop_
_atom_site_type_symbol
_atom_site_label
_atom_site_fract_x
_atom_site_fract_y
_atom_site_fract_z
Si Si1 0.335734 0.330511 0.602787
Si Si2 0.730621 0.500350 0.644212
Si Si3 0.123387 0.956083 0.500000
Si Si4 0.627000 0.006147 0.500000
Si Si5 0.132262 0.509970 0.500000
Si Si6 0.281355 0.781355 0.750000
Si Si7 0.445161 0.753336 0.846520
O O1 0.314969 0.303547 0.500000
O O2 0.308568 0.419043 0.614096
O O3 0.426832 0.320645 0.617258
O O4 0.290227 0.282867 0.680318
O O5 0.811365 0.492872 0.588679
O O6 0.741043 0.505454 0.753982
O O7 0.176510 0.940470 0.589966
O O8 0.045824 0.904212 0.500000
O O9 0.563040 0.074361 0.500000
O O10 0.680776 0.018411 0.589044
O O11 0.584471 0.923530 0.500000
O O12 0.359942 0.778105 0.810495
#
# Coordination Sequence:
#
# PCOD9564903 Si02
#       7
#    16  16   8   8   8   8  16
#     4  11  22  42  65  91 128 171 207 265 319 376
#     4  11  24  41  62  94 128 164 214 261 313 380
#     4  10  24  44  66  92 127 170 214 269 322 383
#     4  10  22  40  66  88 122 172 200 265 317 372
#     4  11  22  40  62  93 125 160 218 252 316 378
#     4  10  24  38  66  97 124 175 210 258 326 384
#     4  10  23  42  65  92 127 164 214 256 320 386
#
# _framework density 18.579205000000002
#
# number of rings (size 3 to 8) (size 9 to 14) (size 15 to 20)
#    0.000    1.500    2.000    2.400    8.400    2.800 
#    3.600    3.000    0.000    0.000    0.000    0.000 
#    0.000    0.000    0.000    0.000    0.000    0.000 
#
# Total GULP energy -446903.939081 kJ/mol
# GULP energy per Si atom -5586.299239 kJ/mol
# Density = 1.853692 g / cm^3
# Si number density = 18.579205 Si / 1000 Ang^3
#
#
#
# Elastic Constant Matrix: (Units=GPa)
#
#
# Indices 1 2 3 4 5 6 
#
# 1 65.7582 50.4842 37.2515 0.0000 0.0000 0.0000
# 2 50.4842 65.7582 37.2515 0.0000 0.0000 0.0000
# 3 37.2515 37.2515 152.0814 0.0000 0.0000 0.0000
# 4 0.0000 0.0000 0.0000 20.0542 0.0000 0.0000
# 5 0.0000 0.0000 0.0000 0.0000 20.0542 0.0000
# 6 0.0000 0.0000 0.0000 0.0000 0.0000 26.0740
#
#
#
# Elastic Compliance Matrix: (Units=1/GPa)
#
#
# Indices 1 2 3 4 5 6 
#
# 1 0.037838 -0.027633 -0.002500 0.000000 0.000000 0.000000
# 2 -0.027633 0.037838 -0.002500 0.000000 0.000000 0.000000
# 3 -0.002500 -0.002500 0.007800 0.000000 0.000000 0.000000
# 4 0.000000 0.000000 0.000000 0.049865 0.000000 0.000000
# 5 0.000000 0.000000 0.000000 0.000000 0.049865 0.000000
# 6 0.000000 0.000000 0.000000 0.000000 0.000000 0.038352
#
#
# Mechanical properties :
#
#
# Convention : Reuss Voigt Hill
#
# Bulk Modulus (GPa) = 54.91161 59.28583 57.09872
# Shear Modulus (GPa) = 17.07113 23.81052 20.44082
#
# Velocity S-wave (km/s) = 3.03451 3.58378 3.32052
# Velocity P-wave (km/s) = 6.47281 7.00740 6.74540
#
# Compressibility (1/GPa) = 0.01821109
#
# Stress axis : x y z
#
# Youngs Moduli (GPa) = 26.42865 26.42865 128.20584
#
# Poissons Ratio (x) = 0.73030 0.32046
# Poissons Ratio (y) = 0.73030 0.32046
# Poissons Ratio (z) = 0.06606 0.06606
#
# Static dielectric constant tensor:
#      x y z
#    x 1.619670 0.000000 0.000000 
#    y 0.000000 1.619670 0.000000 
#    z 0.000000 0.000000 1.640100 
# 
# From -- ./inp_files/3809.got.cif
#   From: 2010.05.17/outbox.cif.g08.bks.cpg/sg128_2_cif.got.tgz:3809.got - 2010.05.20 12:07:25.
