data_PCOD9564353
_publ_section_title
;
Structure prediction by ZEFSAII (Michael W. Deem and Ramdas Pophale) SiO2 
 PCOD9564353
Probable space group: P 4/M B M
;
_chemical_formula_sum "Si O2"
_cell_formula_units_Z 56
_cell_length_a 14.161719
_cell_length_b 14.161719
_cell_length_c 14.393029
_cell_angle_alpha 90.000000
_cell_angle_beta 90.000000
_cell_angle_gamma 90.000000
_cell_volume 2886.583641
_symmetry_space_group_name_H-M "P 4/M B M"
_symmetry_group_IT_number 127
_symmetry_cell_setting 'tetragonal'
loop_
_space_group_symop_operation_xyz
x,y,z
-y,x,z
-x,-y,z
y,-x,z
1/2+x,1/2-y,-z
1/2-x,1/2+y,-z
1/2+y,1/2+x,-z
1/2-y,1/2-x,-z
-x,-y,-z
y,-x,-z
x,y,-z
-y,x,-z
1/2-x,1/2+y,z
1/2+x,1/2-y,z
1/2-y,1/2-x,z
1/2+y,1/2+x,z
loop_
_atom_site_type_symbol
_atom_site_label
_atom_site_fract_x
_atom_site_fract_y
_atom_site_fract_z
Si Si1 0.546956 0.201693 0.764944
Si Si2 0.361511 0.423519 0.892607
Si Si3 0.657714 0.498133 0.609120
Si Si4 0.080734 0.580734 0.894665
O O1 0.615017 0.115017 0.739550
O O2 0.605361 0.280430 0.822325
O O3 0.503319 0.253363 0.676194
O O4 0.467506 0.163233 0.835581
O O5 0.463972 0.377924 0.878047
O O6 0.334407 0.408476 0.000000
O O7 0.591500 0.589847 0.626616
O O8 0.682413 0.497689 0.500000
O O9 0.000000 0.500000 0.902034
O O10 0.107886 0.607886 0.000000
#
# Coordination Sequence:
#
# PCOD9564353 Si02
#       4
#    16  16  16   8
#     4  11  21  34  55  81 113 149 187 229 277 335
#     4   9  18  34  54  75 104 143 186 234 284 331
#     4   9  19  39  64  85 110 146 185 229 286 344
#     4   9  20  38  55  73 109 161 198 221 265 330
#
# _framework density 19.400096999999999
#
# number of rings (size 3 to 8) (size 9 to 14) (size 15 to 20)
#    0.000    2.429    0.000    4.286    0.000    4.571 
#   10.286    0.714    0.000    2.571    0.000    0.000 
#    0.000    0.000    0.000    0.000    0.000    0.000 
#
# Total GULP energy -312655.082729 kJ/mol
# GULP energy per Si atom -5583.126477 kJ/mol
# Density = 1.935594 g / cm^3
# Si number density = 19.400097 Si / 1000 Ang^3
#
#
#
# Elastic Constant Matrix: (Units=GPa)
#
#
# Indices 1 2 3 4 5 6 
#
# 1 61.0324 13.2429 56.5617 0.0000 0.0000 0.0000
# 2 13.2429 61.0324 56.5617 0.0000 0.0000 0.0000
# 3 56.5617 56.5617 123.8955 0.0000 0.0000 0.0000
# 4 0.0000 0.0000 0.0000 34.4633 0.0000 0.0000
# 5 0.0000 0.0000 0.0000 0.0000 34.4633 0.0000
# 6 0.0000 0.0000 0.0000 0.0000 0.0000 7.9425
#
#
#
# Elastic Compliance Matrix: (Units=1/GPa)
#
#
# Indices 1 2 3 4 5 6 
#
# 1 0.032556 0.011631 -0.020172 0.000000 0.000000 0.000000
# 2 0.011631 0.032556 -0.020172 0.000000 0.000000 0.000000
# 3 -0.020172 -0.020172 0.026490 0.000000 0.000000 0.000000
# 4 0.000000 0.000000 0.000000 0.029016 0.000000 0.000000
# 5 0.000000 0.000000 0.000000 0.000000 0.029016 0.000000
# 6 0.000000 0.000000 0.000000 0.000000 0.000000 0.125905
#
#
# Mechanical properties :
#
#
# Convention : Reuss Voigt Hill
#
# Bulk Modulus (GPa) = 29.26255 55.41034 42.33645
# Shear Modulus (GPa) = 14.51974 23.34676 18.93325
#
# Velocity S-wave (km/s) = 2.73872 3.47282 3.12739
# Velocity P-wave (km/s) = 5.01171 6.68615 5.90855
#
# Compressibility (1/GPa) = 0.03417337
#
# Stress axis : x y z
#
# Youngs Moduli (GPa) = 30.71649 30.71649 37.75034
#
# Poissons Ratio (x) = -0.35726 0.76151
# Poissons Ratio (y) = -0.35726 0.76151
# Poissons Ratio (z) = 0.61962 0.61962
#
# Static dielectric constant tensor:
#      x y z
#    x 1.694700 0.000000 0.000000 
#    y 0.000000 1.694700 0.000000 
#    z 0.000000 0.000000 1.683910 
# 
# From -- ./inp_files/4017.got.cif
#   From: 2010.05.17/outbox.cif.g08.bks.cpg/sg127_3_cif.got.tgz:4017.got - 2010.05.20 12:03:00.
