data_PCOD9564449
_publ_section_title
;
Structure prediction by ZEFSAII (Michael W. Deem and Ramdas Pophale) SiO2 
 PCOD9564449
Probable space group: P 4/M B M
;
_chemical_formula_sum "Si O2"
_cell_formula_units_Z 56
_cell_length_a 11.600106
_cell_length_b 11.600106
_cell_length_c 20.849444
_cell_angle_alpha 90.000000
_cell_angle_beta 90.000000
_cell_angle_gamma 90.000000
_cell_volume 2805.552458
_symmetry_space_group_name_H-M "P 4/M B M"
_symmetry_group_IT_number 127
_symmetry_cell_setting 'tetragonal'
loop_
_space_group_symop_operation_xyz
x,y,z
-y,x,z
-x,-y,z
y,-x,z
1/2+x,1/2-y,-z
1/2-x,1/2+y,-z
1/2+y,1/2+x,-z
1/2-y,1/2-x,-z
-x,-y,-z
y,-x,-z
x,y,-z
-y,x,-z
1/2-x,1/2+y,z
1/2+x,1/2-y,z
1/2-y,1/2-x,z
1/2+y,1/2+x,z
loop_
_atom_site_type_symbol
_atom_site_label
_atom_site_fract_x
_atom_site_fract_y
_atom_site_fract_z
Si Si1 0.193662 0.496032 0.791683
Si Si2 0.402867 0.097134 0.426979
Si Si3 0.312201 0.525511 0.342458
Si Si4 0.997063 0.304606 0.931068
O O1 0.124230 0.375771 0.781977
O O2 0.272887 0.523592 0.731644
O O3 0.253851 0.495241 0.861625
O O4 0.094479 0.594479 0.794209
O O5 0.371551 0.128450 0.500000
O O6 0.452892 0.204114 0.387571
O O7 0.500000 0.000000 0.428815
O O8 0.374580 0.404649 0.354490
O O9 0.878908 0.378908 0.932110
O O10 0.099398 0.400603 0.929940
O O11 0.005998 0.242573 0.000000
#
# Coordination Sequence:
#
# PCOD9564449 Si02
#       4
#    16   8  16  16
#     4   9  16  28  53  84 115 155 204 252 301 359
#     4  11  26  46  72  99 124 158 198 242 302 370
#     4  11  25  42  63  93 128 165 205 249 300 360
#     4   7  10  18  36  69 110 148 191 246 300 350
#
# _framework density 19.960418000000001
#
# number of rings (size 3 to 8) (size 9 to 14) (size 15 to 20)
#    0.000    2.714    1.429    3.429    4.000    1.143 
#    0.000    1.429    0.000    1.714    0.000   10.000 
#    0.000    0.000    0.000    0.000    0.000    0.000 
#
# Total GULP energy -312241.550526 kJ/mol
# GULP energy per Si atom -5575.741974 kJ/mol
# Density = 1.991499 g / cm^3
# Si number density = 19.960418 Si / 1000 Ang^3
#
#
#
# Elastic Constant Matrix: (Units=GPa)
#
#
# Indices 1 2 3 4 5 6 
#
# 1 78.6584 11.0600 52.3464 0.0000 0.0000 0.0000
# 2 11.0600 78.6576 52.3459 0.0000 0.0000 0.0000
# 3 52.3464 52.3459 189.0076 0.0000 0.0000 0.0000
# 4 0.0000 0.0000 0.0000 -3.1877 0.0000 0.0000
# 5 0.0000 0.0000 0.0000 0.0000 -3.1879 0.0000
# 6 0.0000 0.0000 0.0000 0.0000 0.0000 -10.5010
#
#
#
# Elastic Compliance Matrix: (Units=1/GPa)
#
#
# Indices 1 2 3 4 5 6 
#
# 1 0.015631 0.000837 -0.004561 0.000000 0.000000 0.000000
# 2 0.000837 0.015631 -0.004561 0.000000 0.000000 0.000000
# 3 -0.004561 -0.004561 0.007817 0.000000 0.000000 0.000000
# 4 0.000000 0.000000 0.000000 -0.313708 0.000000 0.000000
# 5 0.000000 0.000000 0.000000 0.000000 -0.313686 0.000000
# 6 0.000000 0.000000 0.000000 0.000000 0.000000 -0.095229
#
#
# Mechanical properties :
#
#
# Convention : Reuss Voigt Hill
#
# Bulk Modulus (GPa) = 44.42507 64.20315 54.31411
# Shear Modulus (GPa) = -7.58183 11.99610 2.20713
#
# Velocity S-wave (km/s) = -1.95107 2.45418 1.05269
# Velocity P-wave (km/s) = 4.15082 6.34553 5.36167
#
# Compressibility (1/GPa) = 0.02250981
#
# Stress axis : x y z
#
# Youngs Moduli (GPa) = 63.97670 63.97622 127.92467
#
# Poissons Ratio (x) = -0.05357 0.58345
# Poissons Ratio (y) = -0.05357 0.58345
# Poissons Ratio (z) = 0.29179 0.29179
#
# Static dielectric constant tensor:
#      x y z
#    x 1.689740 0.000000 0.000000 
#    y 0.000000 1.689740 0.000000 
#    z 0.000000 0.000000 1.742890 
# 
# From -- ./inp_files/5465.got.cif
#   From: 2010.05.17/outbox.cif.g08.bks.cpg/sg127_3_cif.got.tgz:5465.got - 2010.05.20 12:03:00.
