data_PCOD9564305
_publ_section_title
;
Structure prediction by ZEFSAII (Michael W. Deem and Ramdas Pophale) SiO2 
 PCOD9564305
Probable space group: P 4/M B M
;
_chemical_formula_sum "Si O2"
_cell_formula_units_Z 92
_cell_length_a 14.754054
_cell_length_b 14.754054
_cell_length_c 22.283552
_cell_angle_alpha 90.000000
_cell_angle_beta 90.000000
_cell_angle_gamma 90.000000
_cell_volume 4850.730605
_symmetry_space_group_name_H-M "P 4/M B M"
_symmetry_group_IT_number 127
_symmetry_cell_setting 'tetragonal'
loop_
_space_group_symop_operation_xyz
x,y,z
-y,x,z
-x,-y,z
y,-x,z
1/2+x,1/2-y,-z
1/2-x,1/2+y,-z
1/2+y,1/2+x,-z
1/2-y,1/2-x,-z
-x,-y,-z
y,-x,-z
x,y,-z
-y,x,-z
1/2-x,1/2+y,z
1/2+x,1/2-y,z
1/2-y,1/2-x,z
1/2+y,1/2+x,z
loop_
_atom_site_type_symbol
_atom_site_label
_atom_site_fract_x
_atom_site_fract_y
_atom_site_fract_z
Si Si1 0.548660 0.356314 0.500000
Si Si2 0.933425 0.280202 0.826197
Si Si3 0.545410 0.645775 0.714316
Si Si4 0.076915 0.423086 0.331730
Si Si5 0.422288 0.922288 0.805972
Si Si6 0.140776 0.057294 0.930392
Si Si7 0.515074 0.758445 0.400800
Si Si8 0.646058 0.853943 0.500000
O O1 0.609001 0.444866 0.500000
O O2 0.557436 0.296832 0.440756
O O3 0.854664 0.354664 0.819046
O O4 0.937440 0.217219 0.767299
O O5 0.916776 0.217298 0.883495
O O6 0.028590 0.334711 0.833355
O O7 0.442178 0.609259 0.719141
O O8 0.556668 0.693253 0.649760
O O9 0.099769 0.400232 0.263214
O O10 0.161781 0.464325 0.366039
O O11 0.000000 0.500000 0.330592
O O12 0.500000 0.000000 0.806224
O O13 0.048010 0.113236 0.920933
O O14 0.167662 0.068317 0.000000
O O15 0.586665 0.800894 0.447220
#
# Coordination Sequence:
#
# PCOD9564305 Si02
#       8
#     8  16  16   8   8  16  16   4
#     4  10  22  42  61  77 110 155 197 249 316 379
#     4  11  22  39  64  97 133 170 213 266 319 372
#     4  11  24  43  65  91 126 170 212 257 321 384
#     4  11  20  38  67  84 119 162 195 240 318 384
#     4   9  20  38  60  87 124 170 198 242 321 380
#     4   9  19  40  67  93 131 182 224 261 312 371
#     4  11  22  39  62  91 111 158 201 249 310 390
#     4  10  24  37  60  92 124 152 201 258 322 378
#
# _framework density 18.966214000000001
#
# number of rings (size 3 to 8) (size 9 to 14) (size 15 to 20)
#    0.000    1.652    2.609    2.609    1.217    4.870 
#    7.826    7.391    0.000    1.565    0.000    0.000 
#    0.000    0.000    0.000    0.000    0.000    0.000 
#
# Total GULP energy -512766.707887 kJ/mol
# GULP energy per Si atom -5573.551173 kJ/mol
# Density = 1.892305 g / cm^3
# Si number density = 18.966214 Si / 1000 Ang^3
#
#
#
# Elastic Constant Matrix: (Units=GPa)
#
#
# Indices 1 2 3 4 5 6 
#
# 1 74.5283 20.3215 33.0070 0.0000 0.0000 0.0000
# 2 20.3215 74.5283 33.0069 0.0000 0.0000 0.0000
# 3 33.0070 33.0069 81.3154 0.0000 0.0000 0.0000
# 4 0.0000 0.0000 0.0000 45.6328 0.0000 0.0000
# 5 0.0000 0.0000 0.0000 0.0000 45.6335 0.0000
# 6 0.0000 0.0000 0.0000 0.0000 0.0000 17.0043
#
#
#
# Elastic Compliance Matrix: (Units=1/GPa)
#
#
# Indices 1 2 3 4 5 6 
#
# 1 0.016571 -0.001877 -0.005965 0.000000 0.000000 0.000000
# 2 -0.001877 0.016571 -0.005965 0.000000 0.000000 0.000000
# 3 -0.005965 -0.005965 0.017140 0.000000 0.000000 0.000000
# 4 0.000000 0.000000 0.000000 0.021914 0.000000 0.000000
# 5 0.000000 0.000000 0.000000 0.000000 0.021914 0.000000
# 6 0.000000 0.000000 0.000000 0.000000 0.000000 0.058809
#
#
# Mechanical properties :
#
#
# Convention : Reuss Voigt Hill
#
# Bulk Modulus (GPa) = 44.11086 44.78253 44.44669
# Shear Modulus (GPa) = 26.58340 31.25655 28.91997
#
# Velocity S-wave (km/s) = 3.74788 4.06398 3.90912
# Velocity P-wave (km/s) = 6.48359 6.75901 6.62273
#
# Compressibility (1/GPa) = 0.02267016
#
# Stress axis : x y z
#
# Youngs Moduli (GPa) = 60.34623 60.34619 58.34311
#
# Poissons Ratio (x) = 0.11326 0.34799
# Poissons Ratio (y) = 0.11326 0.34799
# Poissons Ratio (z) = 0.35994 0.35994
#
# Static dielectric constant tensor:
#      x y z
#    x 1.656370 0.000000 0.000000 
#    y 0.000000 1.656370 0.000000 
#    z 0.000000 0.000000 1.638640 
# 
# From -- ./inp_files/5855.got.cif
#   From: 2010.05.17/outbox.cif.g08.bks.cpg/sg127_3_cif.got.tgz:5855.got - 2010.05.20 12:03:00.
