data_PCOD9564685
_publ_section_title
;
Structure prediction by ZEFSAII (Michael W. Deem and Ramdas Pophale) SiO2 
 PCOD9564685
Probable space group: P 4/M N C
;
_chemical_formula_sum "Si O2"
_cell_formula_units_Z 96
_cell_length_a 25.738310
_cell_length_b 25.738310
_cell_length_c 8.861587
_cell_angle_alpha 90.000000
_cell_angle_beta 90.000000
_cell_angle_gamma 90.000000
_cell_volume 5870.452256
_symmetry_space_group_name_H-M "P 4/M N C"
_symmetry_group_IT_number 128
_symmetry_cell_setting 'tetragonal'
loop_
_space_group_symop_operation_xyz
x,y,z
-y,x,z
-x,-y,z
y,-x,z
1/2+x,1/2-y,1/2-z
1/2-x,1/2+y,1/2-z
1/2+y,1/2+x,1/2-z
1/2-y,1/2-x,1/2-z
-x,-y,-z
y,-x,-z
x,y,-z
-y,x,-z
1/2-x,1/2+y,1/2+z
1/2+x,1/2-y,1/2+z
1/2-y,1/2-x,1/2+z
1/2+y,1/2+x,1/2+z
loop_
_atom_site_type_symbol
_atom_site_label
_atom_site_fract_x
_atom_site_fract_y
_atom_site_fract_z
Si Si1 0.562204 0.748602 0.825927
Si Si2 0.556689 0.639643 0.319069
Si Si3 0.137698 0.941163 0.317217
Si Si4 0.860488 0.559697 0.320912
Si Si5 0.563810 0.246755 0.172453
Si Si6 0.438245 0.142137 0.681302
O O1 0.575748 0.696450 0.736024
O O2 0.499145 0.750428 0.827191
O O3 0.578789 0.801986 0.747100
O O4 0.579495 0.745792 0.000000
O O5 0.555504 0.636995 0.500000
O O6 0.594092 0.596278 0.248914
O O7 0.498666 0.632377 0.252482
O O8 0.135115 0.944460 0.500000
O O9 0.195568 0.920135 0.277319
O O10 0.904599 0.595402 0.250000
O O11 0.864087 0.562208 0.500000
O O12 0.803211 0.578045 0.269578
O O13 0.865960 0.498957 0.276099
O O14 0.580803 0.238387 0.000000
O O15 0.402649 0.097352 0.750000
O O16 0.434886 0.142673 0.500000
#
# Coordination Sequence:
#
# PCOD9564685 Si02
#       6
#    16  16  16  16  16  16
#     4   9  17  32  52  72  96 130 168 205 243 292
#     4  11  21  33  51  77 105 132 165 207 250 295
#     4  10  20  35  53  74 101 135 169 203 247 299
#     4  10  20  32  49  72 100 131 165 203 246 294
#     4   8  16  31  51  71  93 124 165 205 241 285
#     4  10  20  33  50  74 101 132 167 207 250 295
#
# _framework density 16.353083999999999
#
# number of rings (size 3 to 8) (size 9 to 14) (size 15 to 20)
#    0.000    2.333    0.000    4.500    0.000    7.333 
#    0.000    3.333    0.000    1.000    0.000    2.333 
#    0.000    0.000    0.000    0.000    0.000    0.000 
#
# Total GULP energy -535232.055534 kJ/mol
# GULP energy per Si atom -5575.333912 kJ/mol
# Density = 1.631586 g / cm^3
# Si number density = 16.353084 Si / 1000 Ang^3
#
#
#
# Elastic Constant Matrix: (Units=GPa)
#
#
# Indices 1 2 3 4 5 6 
#
# 1 105.1111 72.8519 58.1163 0.0000 0.0000 0.0000
# 2 72.8519 105.1168 58.1144 0.0000 0.0000 0.0000
# 3 58.1163 58.1144 97.9908 0.0000 0.0000 0.0000
# 4 0.0000 0.0000 0.0000 24.9159 0.0000 0.0000
# 5 0.0000 0.0000 0.0000 0.0000 24.9155 0.0000
# 6 0.0000 0.0000 0.0000 0.0000 0.0000 -5.4462
#
#
#
# Elastic Compliance Matrix: (Units=1/GPa)
#
#
# Indices 1 2 3 4 5 6 
#
# 1 0.020085 -0.010912 -0.005440 0.000000 0.000000 0.000000
# 2 -0.010912 0.020083 -0.005438 0.000000 0.000000 0.000000
# 3 -0.005440 -0.005438 0.016657 0.000000 0.000000 0.000000
# 4 0.000000 0.000000 0.000000 0.040135 0.000000 0.000000
# 5 0.000000 0.000000 0.000000 0.000000 0.040136 0.000000
# 6 0.000000 0.000000 0.000000 0.000000 0.000000 -0.183613
#
#
# Mechanical properties :
#
#
# Convention : Reuss Voigt Hill
#
# Bulk Modulus (GPa) = 75.51435 76.26488 75.88961
# Shear Modulus (GPa) = 3383.04802 16.81944 1699.93373
#
# Velocity S-wave (km/s) = 45.53288 3.21053 32.27655
# Velocity P-wave (km/s) = 53.01511 7.77695 37.88854
#
# Compressibility (1/GPa) = 0.01324252
#
# Stress axis : x y z
#
# Youngs Moduli (GPa) = 49.78846 49.79411 60.03530
#
# Poissons Ratio (x) = 0.54337 0.32661
# Poissons Ratio (y) = 0.54331 0.32649
# Poissons Ratio (z) = 0.27087 0.27080
#
# Static dielectric constant tensor:
#      x y z
#    x 1.540190 0.000000 0.000000 
#    y 0.000000 1.540190 0.000000 
#    z 0.000000 0.000000 1.547290 
# 
# From -- ./inp_files/1453.got.cif
#   From: 2010.05.17/outbox.cif.g08.bks.cpg/sg128_1_cif.got.tgz:1453.got - 2010.05.20 12:07:25.
