data_PCOD9564357
_publ_section_title
;
Structure prediction by ZEFSAII (Michael W. Deem and Ramdas Pophale) SiO2 
 PCOD9564357
Probable space group: P 4/M B M
;
_chemical_formula_sum "Si O2"
_cell_formula_units_Z 56
_cell_length_a 15.079197
_cell_length_b 15.079197
_cell_length_c 12.428422
_cell_angle_alpha 90.000000
_cell_angle_beta 90.000000
_cell_angle_gamma 90.000000
_cell_volume 2826.001715
_symmetry_space_group_name_H-M "P 4/M B M"
_symmetry_group_IT_number 127
_symmetry_cell_setting 'tetragonal'
loop_
_space_group_symop_operation_xyz
x,y,z
-y,x,z
-x,-y,z
y,-x,z
1/2+x,1/2-y,-z
1/2-x,1/2+y,-z
1/2+y,1/2+x,-z
1/2-y,1/2-x,-z
-x,-y,-z
y,-x,-z
x,y,-z
-y,x,-z
1/2-x,1/2+y,z
1/2+x,1/2-y,z
1/2-y,1/2-x,z
1/2+y,1/2+x,z
loop_
_atom_site_type_symbol
_atom_site_label
_atom_site_fract_x
_atom_site_fract_y
_atom_site_fract_z
Si Si1 0.983121 0.663541 0.879473
Si Si2 0.255106 0.100991 0.301109
Si Si3 0.685588 0.665541 0.115117
Si Si4 0.351783 0.529169 0.500000
O O1 0.925239 0.574762 0.867995
O O2 0.913714 0.744810 0.879041
O O3 0.045678 0.681946 0.779354
O O4 0.023638 0.662586 0.000000
O O5 0.313109 0.186892 0.337719
O O6 0.174887 0.128951 0.221575
O O7 0.211703 0.046775 0.397672
O O8 0.744994 0.755006 0.113248
O O9 0.637173 0.659184 0.000000
O O10 0.398724 0.432614 0.500000
#
# Coordination Sequence:
#
# PCOD9564357 Si02
#       4
#    16  16  16   8
#     4   9  18  33  54  83 119 152 180 218 271 328
#     4  11  21  35  57  83 111 145 186 228 274 332
#     4   8  15  29  50  77 109 146 185 220 257 310
#     4  11  25  44  62  79 103 139 188 243 288 321
#
# _framework density 19.815982000000002
#
# number of rings (size 3 to 8) (size 9 to 14) (size 15 to 20)
#    0.000    2.429    0.000    4.714    0.000    2.286 
#    0.000    3.571    0.000    1.714    0.000   12.000 
#    0.000    0.000    0.000    0.000    0.000    0.000 
#
# Total GULP energy -312248.581185 kJ/mol
# GULP energy per Si atom -5575.867521 kJ/mol
# Density = 1.977088 g / cm^3
# Si number density = 19.815982 Si / 1000 Ang^3
#
#
#
# Elastic Constant Matrix: (Units=GPa)
#
#
# Indices 1 2 3 4 5 6 
#
# 1 68.6422 31.3792 43.6689 0.0000 0.0000 0.0000
# 2 31.3792 68.6422 43.6689 0.0000 0.0000 0.0000
# 3 43.6689 43.6689 143.1612 0.0000 0.0000 0.0000
# 4 0.0000 0.0000 0.0000********** 0.0000 0.0000
# 5 0.0000 0.0000 0.0000 0.0000********** 0.0000
# 6 0.0000 0.0000 0.0000 0.0000 0.0000 35.8829
#
#
#
# Elastic Compliance Matrix: (Units=1/GPa)
#
#
# Indices 1 2 3 4 5 6 
#
# 1 0.020232 -0.006604 -0.004157 0.000000 0.000000 0.000000
# 2 -0.006604 0.020232 -0.004157 0.000000 0.000000 0.000000
# 3 -0.004157 -0.004157 0.009521 0.000000 0.000000 0.000000
# 4 0.000000 0.000000 0.000000 -0.000085 0.000000 0.000000
# 5 0.000000 0.000000 0.000000 0.000000 -0.000085 0.000000
# 6 0.000000 0.000000 0.000000 0.000000 0.000000 0.027868
#
#
# Mechanical properties :
#
#
# Convention : Reuss Voigt Hill
#
# Bulk Modulus (GPa) = 49.63068 57.54217 53.58642
# Shear Modulus (GPa) = 43.76884 -4704.81499 -2330.52307
#
# Velocity S-wave (km/s) = 4.70485 -48.77917 -34.33126
# Velocity P-wave (km/s) = 7.39015 56.06640 39.29903
#
# Compressibility (1/GPa) = 0.02014883
#
# Stress axis : x y z
#
# Youngs Moduli (GPa) = 49.42674 49.42674 105.03000
#
# Poissons Ratio (x) = 0.32643 0.43660
# Poissons Ratio (y) = 0.32643 0.43660
# Poissons Ratio (z) = 0.20546 0.20546
#
# Static dielectric constant tensor:
#      x y z
#    x 1.709940 0.000000 0.000000 
#    y 0.000000 1.709940 0.000000 
#    z 0.000000 0.000000 1.716870 
# 
# From -- ./inp_files/2843.got.cif
#   From: 2010.05.17/outbox.cif.g08.bks.cpg/sg127_2_cif.got.tgz:2843.got - 2010.05.20 12:03:00.
