data_PCOD9564577
_publ_section_title
;
Structure prediction by ZEFSAII (Michael W. Deem and Ramdas Pophale) SiO2 
 PCOD9564577
Probable space group: P 4/M N C
;
_chemical_formula_sum "Si O2"
_cell_formula_units_Z 96
_cell_length_a 16.101750
_cell_length_b 16.101750
_cell_length_c 22.012405
_cell_angle_alpha 90.000000
_cell_angle_beta 90.000000
_cell_angle_gamma 90.000000
_cell_volume 5707.075966
_symmetry_space_group_name_H-M "P 4/M N C"
_symmetry_group_IT_number 128
_symmetry_cell_setting 'tetragonal'
loop_
_space_group_symop_operation_xyz
x,y,z
-y,x,z
-x,-y,z
y,-x,z
1/2+x,1/2-y,1/2-z
1/2-x,1/2+y,1/2-z
1/2+y,1/2+x,1/2-z
1/2-y,1/2-x,1/2-z
-x,-y,-z
y,-x,-z
x,y,-z
-y,x,-z
1/2-x,1/2+y,1/2+z
1/2+x,1/2-y,1/2+z
1/2-y,1/2-x,1/2+z
1/2+y,1/2+x,1/2+z
loop_
_atom_site_type_symbol
_atom_site_label
_atom_site_fract_x
_atom_site_fract_y
_atom_site_fract_z
Si Si1 0.680144 0.652691 0.372275
Si Si2 0.917688 0.544996 0.426571
Si Si3 0.981667 0.236655 0.072650
Si Si4 0.887427 0.080001 0.243797
Si Si5 0.426148 0.616262 0.887749
Si Si6 0.217620 0.343459 0.070943
O O1 0.598004 0.699176 0.394647
O O2 0.689022 0.565458 0.408166
O O3 0.672296 0.628369 0.301666
O O4 0.760795 0.705873 0.389564
O O5 0.921736 0.542161 0.500000
O O6 0.832693 0.498185 0.409531
O O7 0.905236 0.642072 0.410929
O O8 0.000000 0.500000 0.402669
O O9 0.971078 0.232426 0.000000
O O10 0.870657 0.087239 0.315417
O O11 0.981272 0.111372 0.231342
O O12 0.389587 0.524738 0.901141
O O13 0.384131 0.692827 0.921218
O O14 0.204152 0.321234 0.000000
#
# Coordination Sequence:
#
# PCOD9564577 Si02
#       6
#    16  16  16  16  16  16
#     4  11  19  31  49  74 107 142 170 214 254 313
#     4   8  16  32  50  68  99 141 175 203 247 313
#     4  10  19  29  44  73 108 139 170 206 252 309
#     4   9  17  33  54  77 102 138 184 216 256 316
#     4   9  20  38  58  77 101 131 173 235 284 319
#     4  10  21  34  50  79 109 134 177 224 266 324
#
# _framework density 16.821223
#
# number of rings (size 3 to 8) (size 9 to 14) (size 15 to 20)
#    0.000    2.500    1.667    3.500    0.000    3.000 
#    0.000    3.333    0.000    0.000    0.000    4.667 
#    0.000    0.000    0.000    0.000    0.000    0.000 
#
# Total GULP energy -535020.169852 kJ/mol
# GULP energy per Si atom -5573.126769 kJ/mol
# Density = 1.678294 g / cm^3
# Si number density = 16.821223 Si / 1000 Ang^3
#
#
#
# Elastic Constant Matrix: (Units=GPa)
#
#
# Indices 1 2 3 4 5 6 
#
# 1 84.2533 57.7091 8.5639 0.0000 0.0000 0.0000
# 2 57.7091 84.2533 8.5639 0.0000 0.0000 0.0000
# 3 8.5639 8.5639 11.7167 0.0000 0.0000 0.0000
# 4 0.0000 0.0000 0.0000 22.5029 0.0000 0.0000
# 5 0.0000 0.0000 0.0000 0.0000 22.5029 0.0000
# 6 0.0000 0.0000 0.0000 0.0000 0.0000 26.6395
#
#
#
# Elastic Compliance Matrix: (Units=1/GPa)
#
#
# Indices 1 2 3 4 5 6 
#
# 1 0.022699 -0.014974 -0.005647 0.000000 0.000000 0.000000
# 2 -0.014974 0.022699 -0.005647 0.000000 0.000000 0.000000
# 3 -0.005647 -0.005647 0.093602 0.000000 0.000000 0.000000
# 4 0.000000 0.000000 0.000000 0.044439 0.000000 0.000000
# 5 0.000000 0.000000 0.000000 0.000000 0.044439 0.000000
# 6 0.000000 0.000000 0.000000 0.000000 0.000000 0.037538
#
#
# Mechanical properties :
#
#
# Convention : Reuss Voigt Hill
#
# Bulk Modulus (GPa) = 11.56515 36.65524 24.11020
# Shear Modulus (GPa) = 14.41869 21.35483 17.88676
#
# Velocity S-wave (km/s) = 2.93093 3.56689 3.26443
# Velocity P-wave (km/s) = 4.28299 6.22913 5.34537
#
# Compressibility (1/GPa) = 0.08646668
#
# Stress axis : x y z
#
# Youngs Moduli (GPa) = 44.05449 44.05449 10.68351
#
# Poissons Ratio (x) = 0.65966 0.06033
# Poissons Ratio (y) = 0.65966 0.06033
# Poissons Ratio (z) = 0.24876 0.24876
#
# Static dielectric constant tensor:
#      x y z
#    x 1.560000 0.000000 0.000000 
#    y 0.000000 1.560000 0.000000 
#    z 0.000000 0.000000 1.568150 
# 
# From -- ./inp_files/5719.got.cif
#   From: 2010.05.17/outbox.cif.g08.bks.cpg/sg128_3_cif.got.tgz:5719.got - 2010.05.20 12:07:25.
