data_PCOD9564668
_publ_section_title
;
Structure prediction by ZEFSAII (Michael W. Deem and Ramdas Pophale) SiO2 
 PCOD9564668
Probable space group: P 4/M N C
;
_chemical_formula_sum "Si O2"
_cell_formula_units_Z 88
_cell_length_a 12.043274
_cell_length_b 12.043274
_cell_length_c 30.114036
_cell_angle_alpha 90.000000
_cell_angle_beta 90.000000
_cell_angle_gamma 90.000000
_cell_volume 4367.753292
_symmetry_space_group_name_H-M "P 4/M N C"
_symmetry_group_IT_number 128
_symmetry_cell_setting 'tetragonal'
loop_
_space_group_symop_operation_xyz
x,y,z
-y,x,z
-x,-y,z
y,-x,z
1/2+x,1/2-y,1/2-z
1/2-x,1/2+y,1/2-z
1/2+y,1/2+x,1/2-z
1/2-y,1/2-x,1/2-z
-x,-y,-z
y,-x,-z
x,y,-z
-y,x,-z
1/2-x,1/2+y,1/2+z
1/2+x,1/2-y,1/2+z
1/2-y,1/2-x,1/2+z
1/2+y,1/2+x,1/2+z
loop_
_atom_site_type_symbol
_atom_site_label
_atom_site_fract_x
_atom_site_fract_y
_atom_site_fract_z
Si Si1 0.727751 0.006371 0.658596
Si Si2 0.153149 0.106652 0.129416
Si Si3 0.608030 0.816058 0.449974
Si Si4 0.447025 0.328799 0.933034
Si Si5 0.244711 0.217566 0.699336
Si Si6 0.500000 0.000000 0.604276
O O1 0.809663 0.961105 0.619947
O O2 0.731010 0.913446 0.696368
O O3 0.608222 0.009874 0.634798
O O4 0.757517 0.126074 0.677122
O O5 0.214806 0.134804 0.083133
O O6 0.221995 0.162742 0.169080
O O7 0.026950 0.149101 0.131811
O O8 0.579793 0.782264 0.500000
O O9 0.715143 0.896922 0.450804
O O10 0.514258 0.891674 0.426586
O O11 0.570734 0.365881 0.945979
O O12 0.244989 0.255012 0.750000
#
# Coordination Sequence:
#
# PCOD9564668 Si02
#       6
#    16  16  16  16  16   8
#     4  11  22  42  66  97 134 176 223 275 336 405
#     4  11  25  48  70  94 137 184 228 280 339 404
#     4  11  23  41  67 100 131 174 230 283 341 409
#     4  10  19  37  63  90 129 172 216 269 336 399
#     4  12  27  42  69 105 136 177 230 279 341 401
#     4  10  21  42  69  92 138 182 223 276 353 402
#
# _framework density 20.147658
#
# number of rings (size 3 to 8) (size 9 to 14) (size 15 to 20)
#    0.000    1.091    5.455    1.364    2.545    3.273 
#    0.000    1.818    0.000    0.000    0.000    0.000 
#    0.000    0.000    0.000    0.000    0.000    0.000 
#
# Total GULP energy -491708.086580 kJ/mol
# GULP energy per Si atom -5587.591893 kJ/mol
# Density = 2.010180 g / cm^3
# Si number density = 20.147658 Si / 1000 Ang^3
#
#
#
# Elastic Constant Matrix: (Units=GPa)
#
#
# Indices 1 2 3 4 5 6 
#
# 1 105.0575 43.2889 41.4101 0.0000 0.0000 0.0000
# 2 43.2889 105.0571 41.4097 0.0000 0.0000 0.0000
# 3 41.4101 41.4097 142.7426 0.0000 0.0000 0.0000
# 4 0.0000 0.0000 0.0000 5.4035 0.0000 0.0000
# 5 0.0000 0.0000 0.0000 0.0000 5.4034 0.0000
# 6 0.0000 0.0000 0.0000 0.0000 0.0000 21.0586
#
#
#
# Elastic Compliance Matrix: (Units=1/GPa)
#
#
# Indices 1 2 3 4 5 6 
#
# 1 0.012117 -0.004073 -0.002334 0.000000 0.000000 0.000000
# 2 -0.004073 0.012117 -0.002333 0.000000 0.000000 0.000000
# 3 -0.002334 -0.002333 0.008360 0.000000 0.000000 0.000000
# 4 0.000000 0.000000 0.000000 0.185064 0.000000 0.000000
# 5 0.000000 0.000000 0.000000 0.000000 0.185070 0.000000
# 6 0.000000 0.000000 0.000000 0.000000 0.000000 0.047486
#
#
# Mechanical properties :
#
#
# Convention : Reuss Voigt Hill
#
# Bulk Modulus (GPa) = 66.16819 67.23051 66.69935
# Shear Modulus (GPa) = 10.57685 21.48967 16.03326
#
# Velocity S-wave (km/s) = 2.29370 3.26944 2.82403
# Velocity P-wave (km/s) = 6.31883 6.90606 6.61896
#
# Compressibility (1/GPa) = 0.01511300
#
# Stress axis : x y z
#
# Youngs Moduli (GPa) = 82.53129 82.53107 119.62396
#
# Poissons Ratio (x) = 0.33614 0.27915
# Poissons Ratio (y) = 0.33614 0.27914
# Poissons Ratio (z) = 0.19259 0.19259
#
# Static dielectric constant tensor:
#      x y z
#    x 1.707570 0.000000 0.000000 
#    y 0.000000 1.707570 0.000000 
#    z 0.000000 0.000000 1.705250 
# 
# From -- ./inp_files/7285.got.cif
#   From: 2010.05.17/outbox.cif.g08.bks.cpg/sg128_4_cif.got.tgz:7285.got - 2010.05.20 12:07:25.
