data_PCOD9564410
_publ_section_title
;
Structure prediction by ZEFSAII (Michael W. Deem and Ramdas Pophale) SiO2 
 PCOD9564410
Probable space group: P 4/M B M
;
_chemical_formula_sum "Si O2"
_cell_formula_units_Z 56
_cell_length_a 15.568049
_cell_length_b 15.568049
_cell_length_c 13.955700
_cell_angle_alpha 90.000000
_cell_angle_beta 90.000000
_cell_angle_gamma 90.000000
_cell_volume 3382.361363
_symmetry_space_group_name_H-M "P 4/M B M"
_symmetry_group_IT_number 127
_symmetry_cell_setting 'tetragonal'
loop_
_space_group_symop_operation_xyz
x,y,z
-y,x,z
-x,-y,z
y,-x,z
1/2+x,1/2-y,-z
1/2-x,1/2+y,-z
1/2+y,1/2+x,-z
1/2-y,1/2-x,-z
-x,-y,-z
y,-x,-z
x,y,-z
-y,x,-z
1/2-x,1/2+y,z
1/2+x,1/2-y,z
1/2-y,1/2-x,z
1/2+y,1/2+x,z
loop_
_atom_site_type_symbol
_atom_site_label
_atom_site_fract_x
_atom_site_fract_y
_atom_site_fract_z
Si Si1 0.165532 0.812000 0.796744
Si Si2 0.759222 0.016774 0.884833
Si Si3 0.402778 0.393188 0.388325
Si Si4 0.931876 0.568125 0.883813
O O1 0.241570 0.741570 0.810447
O O2 0.185752 0.902574 0.848400
O O3 0.149293 0.835153 0.685593
O O4 0.075275 0.780627 0.840350
O O5 0.662826 0.041684 0.855249
O O6 0.764904 0.011170 0.000000
O O7 0.505512 0.383209 0.372085
O O8 0.385740 0.374547 0.500000
O O9 0.000000 0.500000 0.847445
O O10 0.933283 0.566718 0.000000
#
# Coordination Sequence:
#
# PCOD9564410 Si02
#       4
#    16  16  16   8
#     4  12  23  37  59  86 114 150 194 238 288 341
#     4  11  23  37  55  82 117 154 192 236 279 332
#     4   9  18  36  61  84 108 141 183 233 291 351
#     4   9  18  36  56  74 105 154 200 230 268 324
#
# _framework density 16.556479
#
# number of rings (size 3 to 8) (size 9 to 14) (size 15 to 20)
#    0.000    1.571    4.286    2.571    0.000    4.000 
#    0.000    1.429    0.000    0.000    0.000    0.000 
#    0.000    9.143    0.000    0.000    0.000    0.000 
#
# Total GULP energy -312341.780996 kJ/mol
# GULP energy per Si atom -5577.531803 kJ/mol
# Density = 1.651880 g / cm^3
# Si number density = 16.556479 Si / 1000 Ang^3
#
#
#
# Elastic Constant Matrix: (Units=GPa)
#
#
# Indices 1 2 3 4 5 6 
#
# 1 89.9385 38.2175 25.7434 0.0000 0.0000 0.0000
# 2 38.2175 89.9384 25.7430 0.0000 0.0000 0.0000
# 3 25.7434 25.7430 70.6172 0.0000 0.0000 0.0000
# 4 0.0000 0.0000 0.0000 19.2833 0.0000 0.0000
# 5 0.0000 0.0000 0.0000 0.0000 19.2833 0.0000
# 6 0.0000 0.0000 0.0000 0.0000 0.0000 36.7810
#
#
#
# Elastic Compliance Matrix: (Units=1/GPa)
#
#
# Indices 1 2 3 4 5 6 
#
# 1 0.014238 -0.005096 -0.003333 0.000000 0.000000 0.000000
# 2 -0.005096 0.014238 -0.003333 0.000000 0.000000 0.000000
# 3 -0.003333 -0.003333 0.016591 0.000000 0.000000 0.000000
# 4 0.000000 0.000000 0.000000 0.051858 0.000000 0.000000
# 5 0.000000 0.000000 0.000000 0.000000 0.051858 0.000000
# 6 0.000000 0.000000 0.000000 0.000000 0.000000 0.027188
#
#
# Mechanical properties :
#
#
# Convention : Reuss Voigt Hill
#
# Bulk Modulus (GPa) = 46.41691 47.76687 47.09189
# Shear Modulus (GPa) = 24.19243 25.78886 24.99064
#
# Velocity S-wave (km/s) = 3.82672 3.95096 3.88934
# Velocity P-wave (km/s) = 6.90083 7.05174 6.97669
#
# Compressibility (1/GPa) = 0.02154387
#
# Stress axis : x y z
#
# Youngs Moduli (GPa) = 70.23353 70.23372 60.27489
#
# Poissons Ratio (x) = 0.35793 0.20088
# Poissons Ratio (y) = 0.35793 0.20087
# Poissons Ratio (z) = 0.23407 0.23406
#
# Static dielectric constant tensor:
#      x y z
#    x 1.563250 0.000000 0.000000 
#    y 0.000000 1.563250 0.000000 
#    z 0.000000 0.000000 1.547030 
# 
# From -- ./inp_files/2854.got.cif
#   From: 2010.05.17/outbox.cif.g08.bks.cpg/sg127_2_cif.got.tgz:2854.got - 2010.05.20 12:03:00.
