data_PCOD9564529
_publ_section_title
;
Structure prediction by ZEFSAII (Michael W. Deem and Ramdas Pophale) SiO2 
 PCOD9564529
Probable space group: P 4/M N C
;
_chemical_formula_sum "Si O2"
_cell_formula_units_Z 40
_cell_length_a 16.867720
_cell_length_b 16.867720
_cell_length_c 5.616088
_cell_angle_alpha 90.000000
_cell_angle_beta 90.000000
_cell_angle_gamma 90.000000
_cell_volume 1597.889234
_symmetry_space_group_name_H-M "P 4/M N C"
_symmetry_group_IT_number 128
_symmetry_cell_setting 'tetragonal'
loop_
_space_group_symop_operation_xyz
x,y,z
-y,x,z
-x,-y,z
y,-x,z
1/2+x,1/2-y,1/2-z
1/2-x,1/2+y,1/2-z
1/2+y,1/2+x,1/2-z
1/2-y,1/2-x,1/2-z
-x,-y,-z
y,-x,-z
x,y,-z
-y,x,-z
1/2-x,1/2+y,1/2+z
1/2+x,1/2-y,1/2+z
1/2-y,1/2-x,1/2+z
1/2+y,1/2+x,1/2+z
loop_
_atom_site_type_symbol
_atom_site_label
_atom_site_fract_x
_atom_site_fract_y
_atom_site_fract_z
Si Si1 0.847312 0.717751 0.000000
Si Si2 0.364990 0.414390 0.000000
Si Si3 0.712340 0.969653 0.000000
Si Si4 0.097213 0.884253 0.000000
Si Si5 0.254994 0.061500 0.500000
O O1 0.809516 0.690485 0.250000
O O2 0.850019 0.812792 0.000000
O O3 0.938600 0.689411 0.000000
O O4 0.406484 0.429412 0.251240
O O5 0.287812 0.472489 0.000000
O O6 0.373327 0.316560 0.000000
O O7 0.694932 0.933619 0.741493
O O8 0.808467 0.959581 0.000000
#
# Coordination Sequence:
#
# PCOD9564529 Si02
#       5
#     8   8   8   8   8
#     4  12  22  34  56  81 104 131 182 226 254 302
#     4  10  17  28  45  63  92 132 173 208 241 287
#     4  10  20  34  50  69 104 141 168 210 266 308
#     4  10  20  34  50  69 104 141 168 210 266 308
#     4  10  17  28  45  63  92 132 173 208 241 287
#
# _framework density 25.033023
#
# number of rings (size 3 to 8) (size 9 to 14) (size 15 to 20)
#    0.000    1.600    4.000    2.400    0.000    0.400 
#    0.000    0.000    0.000    7.800    0.000    0.000 
#    0.000    4.800    0.000    0.000    0.000    0.000 
#
# Total GULP energy -223023.222285 kJ/mol
# GULP energy per Si atom -5575.580557 kJ/mol
# Density = 2.497605 g / cm^3
# Si number density = 25.033023 Si / 1000 Ang^3
#
#
#
# Elastic Constant Matrix: (Units=GPa)
#
#
# Indices 1 2 3 4 5 6 
#
# 1 62.9894 76.5950 47.0232 0.0000 0.0000 0.0000
# 2 76.5950 62.9884 47.0222 0.0000 0.0000 0.0000
# 3 47.0232 47.0222 322.5103 0.0000 0.0000 0.0000
# 4 0.0000 0.0000 0.0000 10.5480 0.0000 0.0000
# 5 0.0000 0.0000 0.0000 0.0000 10.5480 0.0000
# 6 0.0000 0.0000 0.0000 0.0000 0.0000 33.5651
#
#
#
# Elastic Compliance Matrix: (Units=1/GPa)
#
#
# Indices 1 2 3 4 5 6 
#
# 1 -0.032776 0.040721 -0.001158 0.000000 0.000000 0.000000
# 2 0.040721 -0.032776 -0.001158 0.000000 0.000000 0.000000
# 3 -0.001158 -0.001158 0.003438 0.000000 0.000000 0.000000
# 4 0.000000 0.000000 0.000000 0.094805 0.000000 0.000000
# 5 0.000000 0.000000 0.000000 0.000000 0.094805 0.000000
# 6 0.000000 0.000000 0.000000 0.000000 0.000000 0.029793
#
#
# Mechanical properties :
#
#
# Convention : Reuss Voigt Hill
#
# Bulk Modulus (GPa) = 68.05371 87.75210 77.90291
# Shear Modulus (GPa) = 58.56185 29.45539 44.00862
#
# Velocity S-wave (km/s) = 4.84196 3.43397 4.19743
# Velocity P-wave (km/s) = 7.64880 7.13116 7.39451
#
# Compressibility (1/GPa) = 0.01469428
#
# Stress axis : x y z
#
# Youngs Moduli (GPa) = -30.51037 -30.51002 290.82854
#
# Poissons Ratio (x) = 1.24238 0.33685
# Poissons Ratio (y) = 1.24240 0.33690
# Poissons Ratio (z) = -0.03534 -0.03534
#
# Static dielectric constant tensor:
#      x y z
#    x 1.959970 0.000000 0.000000 
#    y 0.000000 1.959970 0.000000 
#    z 0.000000 0.000000 2.113430 
# 
# From -- ./inp_files/135.got.cif
#   From: 2010.05.17/outbox.cif.g08.bks.cpg/sg128_1_cif.got.tgz:135.got - 2010.05.20 12:07:25.
