data_PCOD9564396
_publ_section_title
;
Structure prediction by ZEFSAII (Michael W. Deem and Ramdas Pophale) SiO2 
 PCOD9564396
Probable space group: P 4/M B M
;
_chemical_formula_sum "Si O2"
_cell_formula_units_Z 108
_cell_length_a 13.880437
_cell_length_b 13.880437
_cell_length_c 30.898141
_cell_angle_alpha 90.000000
_cell_angle_beta 90.000000
_cell_angle_gamma 90.000000
_cell_volume 5953.037650
_symmetry_space_group_name_H-M "P 4/M B M"
_symmetry_group_IT_number 127
_symmetry_cell_setting 'tetragonal'
loop_
_space_group_symop_operation_xyz
x,y,z
-y,x,z
-x,-y,z
y,-x,z
1/2+x,1/2-y,-z
1/2-x,1/2+y,-z
1/2+y,1/2+x,-z
1/2-y,1/2-x,-z
-x,-y,-z
y,-x,-z
x,y,-z
-y,x,-z
1/2-x,1/2+y,z
1/2+x,1/2-y,z
1/2-y,1/2-x,z
1/2+y,1/2+x,z
loop_
_atom_site_type_symbol
_atom_site_label
_atom_site_fract_x
_atom_site_fract_y
_atom_site_fract_z
Si Si1 0.908578 0.866711 0.000000
Si Si2 0.765055 0.504835 0.863415
Si Si3 0.146047 0.927703 0.548549
Si Si4 0.099504 0.762318 0.314966
Si Si5 0.402602 0.745016 0.362077
Si Si6 0.160441 0.029288 0.223806
Si Si7 0.000000 0.500000 0.128364
Si Si8 0.829863 0.176710 0.908691
O O1 0.870945 0.820678 0.955789
O O2 0.023523 0.870930 0.000000
O O3 0.736086 0.469691 0.815432
O O4 0.879247 0.499983 0.871050
O O5 0.723907 0.610473 0.873762
O O6 0.699636 0.438046 0.894756
O O7 0.183532 0.908971 0.500000
O O8 0.212414 0.897122 0.588075
O O9 0.041896 0.876329 0.552251
O O10 0.173285 0.673285 0.311469
O O11 0.161015 0.852411 0.333436
O O12 0.051445 0.788022 0.269109
O O13 0.012243 0.742497 0.347656
O O14 0.340527 0.840527 0.354972
O O15 0.074437 0.107629 0.221018
O O16 0.778612 0.278612 0.910133
#
# Coordination Sequence:
#
# PCOD9564396 Si02
#       8
#     8  16  16  16  16  16   4  16
#     4  11  23  38  66 102 131 163 216 276 330 382
#     4  12  25  44  69  98 130 171 220 267 319 388
#     4   9  17  31  57  90 119 153 207 269 322 373
#     4  11  24  41  61  91 127 165 211 262 311 380
#     4  11  22  38  61  88 121 170 212 254 319 381
#     4  11  23  41  69 100 123 158 212 266 319 366
#     4  12  28  48  64  97 132 184 220 252 329 396
#     4  12  24  43  69  94 136 175 213 269 325 385
#
# _framework density 18.141998999999998
#
# number of rings (size 3 to 8) (size 9 to 14) (size 15 to 20)
#    0.000    0.963    7.407    0.667    1.037    1.185 
#    2.667    0.000    0.000    1.333    0.000    1.037 
#    0.000    0.000    0.000    0.000    0.000    0.000 
#
# Total GULP energy -601637.539185 kJ/mol
# GULP energy per Si atom -5570.717955 kJ/mol
# Density = 1.810071 g / cm^3
# Si number density = 18.141999 Si / 1000 Ang^3
#
#
#
# Elastic Constant Matrix: (Units=GPa)
#
#
# Indices 1 2 3 4 5 6 
#
# 1 80.1770 8.3065 12.2945 0.0000 0.0000 0.0000
# 2 8.3065 80.1770 12.2945 0.0000 0.0000 0.0000
# 3 12.2945 12.2945 102.1660 0.0000 0.0000 0.0000
# 4 0.0000 0.0000 0.0000 15.2126 0.0000 0.0000
# 5 0.0000 0.0000 0.0000 0.0000 15.2126 0.0000
# 6 0.0000 0.0000 0.0000 0.0000 0.0000 3.0390
#
#
#
# Elastic Compliance Matrix: (Units=1/GPa)
#
#
# Indices 1 2 3 4 5 6 
#
# 1 0.012803 -0.001111 -0.001407 0.000000 0.000000 0.000000
# 2 -0.001111 0.012803 -0.001407 0.000000 0.000000 0.000000
# 3 -0.001407 -0.001407 0.010127 0.000000 0.000000 0.000000
# 4 0.000000 0.000000 0.000000 0.065735 0.000000 0.000000
# 5 0.000000 0.000000 0.000000 0.000000 0.065735 0.000000
# 6 0.000000 0.000000 0.000000 0.000000 0.000000 0.329059
#
#
# Mechanical properties :
#
#
# Convention : Reuss Voigt Hill
#
# Bulk Modulus (GPa) = 35.86352 36.47901 36.17127
# Shear Modulus (GPa) = 9.73888 22.00114 15.87001
#
# Velocity S-wave (km/s) = 2.31944 3.48619 2.96085
# Velocity P-wave (km/s) = 5.19463 6.02958 5.62761
#
# Compressibility (1/GPa) = 0.02788348
#
# Stress axis : x y z
#
# Youngs Moduli (GPa) = 78.10526 78.10526 98.74939
#
# Poissons Ratio (x) = 0.08675 0.13895
# Poissons Ratio (y) = 0.08675 0.13895
# Poissons Ratio (z) = 0.10990 0.10990
#
# Static dielectric constant tensor:
#      x y z
#    x 1.608030 0.000000 0.000000 
#    y 0.000000 1.608030 0.000000 
#    z 0.000000 0.000000 1.635220 
# 
# From -- ./inp_files/6420.got.cif
#   From: 2010.05.17/outbox.cif.g08.bks.cpg/sg127_4_cif.got.tgz:6420.got - 2010.05.20 12:03:00.
