data_PCOD9564843
_publ_section_title
;
Structure prediction by ZEFSAII (Michael W. Deem and Ramdas Pophale) SiO2 
 PCOD9564843
Probable space group: P 4/M N C
;
_chemical_formula_sum "Si O2"
_cell_formula_units_Z 96
_cell_length_a 24.364569
_cell_length_b 24.364569
_cell_length_c 8.751904
_cell_angle_alpha 90.000000
_cell_angle_beta 90.000000
_cell_angle_gamma 90.000000
_cell_volume 5195.412223
_symmetry_space_group_name_H-M "P 4/M N C"
_symmetry_group_IT_number 128
_symmetry_cell_setting 'tetragonal'
loop_
_space_group_symop_operation_xyz
x,y,z
-y,x,z
-x,-y,z
y,-x,z
1/2+x,1/2-y,1/2-z
1/2-x,1/2+y,1/2-z
1/2+y,1/2+x,1/2-z
1/2-y,1/2-x,1/2-z
-x,-y,-z
y,-x,-z
x,y,-z
-y,x,-z
1/2-x,1/2+y,1/2+z
1/2+x,1/2-y,1/2+z
1/2-y,1/2-x,1/2+z
1/2+y,1/2+x,1/2+z
loop_
_atom_site_type_symbol
_atom_site_label
_atom_site_fract_x
_atom_site_fract_y
_atom_site_fract_z
Si Si1 0.065765 0.236386 0.681488
Si Si2 0.550990 0.423791 0.169634
Si Si3 0.142599 0.443245 0.316394
Si Si4 0.151805 0.567078 0.317073
Si Si5 0.552780 0.721173 0.314946
Si Si6 0.644754 0.633817 0.324193
O O1 0.063569 0.240712 0.500000
O O2 0.069993 0.296507 0.755837
O O3 0.117312 0.199228 0.732917
O O4 0.007085 0.211787 0.740296
O O5 0.572698 0.485833 0.177055
O O6 0.578501 0.390628 0.303918
O O7 0.565902 0.401216 0.000000
O O8 0.098294 0.401707 0.250000
O O9 0.143061 0.440584 0.500000
O O10 0.131162 0.506465 0.270152
O O11 0.115075 0.615075 0.250000
O O12 0.148961 0.569953 0.500000
O O13 0.216237 0.569204 0.276124
O O14 0.546547 0.716798 0.500000
O O15 0.602268 0.680622 0.268140
O O16 0.658191 0.645190 0.500000
#
# Coordination Sequence:
#
# PCOD9564843 Si02
#       6
#    16  16  16  16  16  16
#     4  11  22  36  56  81 110 145 185 230 280 330
#     4   9  18  31  45  65  96 130 168 222 282 333
#     4  10  21  39  61  86 116 146 179 219 266 323
#     4   9  19  36  58  84 114 144 176 217 264 319
#     4   9  20  38  56  77 108 147 187 229 278 327
#     4  11  21  33  51  73 101 140 186 231 274 325
#
# _framework density 18.47784
#
# number of rings (size 3 to 8) (size 9 to 14) (size 15 to 20)
#    0.000    2.167    0.000    5.000    0.000    8.333 
#    0.000    3.333    0.000    2.000    0.000    0.000 
#    0.000    0.000    0.000    0.000    0.000    0.000 
#
# Total GULP energy -535527.768747 kJ/mol
# GULP energy per Si atom -5578.414258 kJ/mol
# Density = 1.843578 g / cm^3
# Si number density = 18.477840 Si / 1000 Ang^3
#
#
#
# Elastic Constant Matrix: (Units=GPa)
#
#
# Indices 1 2 3 4 5 6 
#
# 1 81.4993 61.7177 28.5021 0.0000 0.0000 0.0000
# 2 61.7177 81.4986 28.5022 0.0000 0.0000 0.0000
# 3 28.5021 28.5022 54.0309 0.0000 0.0000 0.0000
# 4 0.0000 0.0000 0.0000 25.9579 0.0000 0.0000
# 5 0.0000 0.0000 0.0000 0.0000 25.9566 0.0000
# 6 0.0000 0.0000 0.0000 0.0000 0.0000 39.0337
#
#
#
# Elastic Compliance Matrix: (Units=1/GPa)
#
#
# Indices 1 2 3 4 5 6 
#
# 1 0.029695 -0.020857 -0.004662 0.000000 0.000000 0.000000
# 2 -0.020857 0.029696 -0.004662 0.000000 0.000000 0.000000
# 3 -0.004662 -0.004662 0.023427 0.000000 0.000000 0.000000
# 4 0.000000 0.000000 0.000000 0.038524 0.000000 0.000000
# 5 0.000000 0.000000 0.000000 0.000000 0.038526 0.000000
# 6 0.000000 0.000000 0.000000 0.000000 0.000000 0.025619
#
#
# Mechanical properties :
#
#
# Convention : Reuss Voigt Hill
#
# Bulk Modulus (GPa) = 44.53549 50.49698 47.51624
# Shear Modulus (GPa) = 19.73673 24.74343 22.24008
#
# Velocity S-wave (km/s) = 3.27177 3.66332 3.47307
# Velocity P-wave (km/s) = 6.19896 6.72911 6.46947
#
# Compressibility (1/GPa) = 0.02245400
#
# Stress axis : x y z
#
# Youngs Moduli (GPa) = 33.67537 33.67496 42.68625
#
# Poissons Ratio (x) = 0.70237 0.19901
# Poissons Ratio (y) = 0.70238 0.19902
# Poissons Ratio (z) = 0.15700 0.15701
#
# Static dielectric constant tensor:
#      x y z
#    x 1.640110 0.000000 0.000000 
#    y 0.000000 1.640110 0.000000 
#    z 0.000000 0.000000 1.653290 
# 
# From -- ./inp_files/1412.got.cif
#   From: 2010.05.17/outbox.cif.g08.bks.cpg/sg128_1_cif.got.tgz:1412.got - 2010.05.20 12:07:25.
