data_PCOD9564934
_publ_section_title
;
Structure prediction by ZEFSAII (Michael W. Deem and Ramdas Pophale) SiO2 
 PCOD9564934
Probable space group: P 4/M N C
;
_chemical_formula_sum "Si O2"
_cell_formula_units_Z 64
_cell_length_a 11.166717
_cell_length_b 11.166717
_cell_length_c 26.687901
_cell_angle_alpha 90.000000
_cell_angle_beta 90.000000
_cell_angle_gamma 90.000000
_cell_volume 3327.862989
_symmetry_space_group_name_H-M "P 4/M N C"
_symmetry_group_IT_number 128
_symmetry_cell_setting 'tetragonal'
loop_
_space_group_symop_operation_xyz
x,y,z
-y,x,z
-x,-y,z
y,-x,z
1/2+x,1/2-y,1/2-z
1/2-x,1/2+y,1/2-z
1/2+y,1/2+x,1/2-z
1/2-y,1/2-x,1/2-z
-x,-y,-z
y,-x,-z
x,y,-z
-y,x,-z
1/2-x,1/2+y,1/2+z
1/2+x,1/2-y,1/2+z
1/2-y,1/2-x,1/2+z
1/2+y,1/2+x,1/2+z
loop_
_atom_site_type_symbol
_atom_site_label
_atom_site_fract_x
_atom_site_fract_y
_atom_site_fract_z
Si Si1 0.639556 0.353278 0.000000
Si Si2 0.357921 0.983039 0.652717
Si Si3 0.593413 0.672297 0.670536
Si Si4 0.623215 0.876786 0.750000
Si Si5 0.239434 0.215285 0.606533
O O1 0.663112 0.496149 0.000000
O O2 0.695048 0.297983 0.050191
O O3 0.364246 0.010233 0.712360
O O4 0.269403 0.083358 0.628619
O O5 0.500000 0.000000 0.636705
O O6 0.294864 0.858607 0.637039
O O7 0.454023 0.654903 0.676915
O O8 0.630245 0.767081 0.711969
O O9 0.634200 0.719829 0.616442
#
# Coordination Sequence:
#
# PCOD9564934 Si02
#       5
#     8  16  16   8  16
#     4  11  22  42  68  99 132 164 220 289 354 412
#     4  11  24  41  64  96 137 177 227 282 340 417
#     4  10  23  42  61  89 130 177 224 274 334 413
#     4  10  23  38  66  89 130 172 225 282 338 404
#     4  11  22  42  67  96 132 175 220 286 348 408
#
# _framework density 19.231562
#
# number of rings (size 3 to 8) (size 9 to 14) (size 15 to 20)
#    0.000    1.375    2.500    3.375    7.000    0.500 
#    0.000    6.250    0.000    1.500    0.000    0.000 
#    0.000    0.000    0.000    0.000    0.000    0.000 
#
# Total GULP energy -356625.698157 kJ/mol
# GULP energy per Si atom -5572.276534 kJ/mol
# Density = 1.918779 g / cm^3
# Si number density = 19.231562 Si / 1000 Ang^3
#
#
#
# Elastic Constant Matrix: (Units=GPa)
#
#
# Indices 1 2 3 4 5 6 
#
# 1 86.5576 46.1580 50.5348 0.0000 0.0000 0.0000
# 2 46.1580 86.5579 50.5343 0.0000 0.0000 0.0000
# 3 50.5348 50.5343 154.0052 0.0000 0.0000 0.0000
# 4 0.0000 0.0000 0.0000 28.2974 0.0000 0.0000
# 5 0.0000 0.0000 0.0000 0.0000 28.2976 0.0000
# 6 0.0000 0.0000 0.0000 0.0000 0.0000 45.0288
#
#
#
# Elastic Compliance Matrix: (Units=1/GPa)
#
#
# Indices 1 2 3 4 5 6 
#
# 1 0.017399 -0.007354 -0.003296 0.000000 0.000000 0.000000
# 2 -0.007354 0.017399 -0.003296 0.000000 0.000000 0.000000
# 3 -0.003296 -0.003296 0.008656 0.000000 0.000000 0.000000
# 4 0.000000 0.000000 0.000000 0.035339 0.000000 0.000000
# 5 0.000000 0.000000 0.000000 0.000000 0.035339 0.000000
# 6 0.000000 0.000000 0.000000 0.000000 0.000000 0.022208
#
#
# Mechanical properties :
#
#
# Convention : Reuss Voigt Hill
#
# Bulk Modulus (GPa) = 64.25904 69.06387 66.66145
# Shear Modulus (GPa) = 29.51261 32.31767 30.91514
#
# Velocity S-wave (km/s) = 3.92164 4.10378 4.01374
# Velocity P-wave (km/s) = 7.34789 7.64489 7.49786
#
# Compressibility (1/GPa) = 0.01556201
#
# Stress axis : x y z
#
# Youngs Moduli (GPa) = 57.47485 57.47536 115.52078
#
# Poissons Ratio (x) = 0.42266 0.38078
# Poissons Ratio (y) = 0.42266 0.38077
# Poissons Ratio (z) = 0.18945 0.18944
#
# Static dielectric constant tensor:
#      x y z
#    x 1.722300 0.000000 0.000000 
#    y 0.000000 1.722300 0.000000 
#    z 0.000000 0.000000 1.672270 
# 
# From -- ./inp_files/6235.got.cif
#   From: 2010.05.17/outbox.cif.g08.bks.cpg/sg128_4_cif.got.tgz:6235.got - 2010.05.20 12:07:25.
