data_PCOD9564030
_publ_section_title
;
Structure prediction by ZEFSAII (Michael W. Deem and Ramdas Pophale) SiO2 
 PCOD9564030
Probable space group: P 4/M B M
;
_chemical_formula_sum "Si O2"
_cell_formula_units_Z 56
_cell_length_a 19.565566
_cell_length_b 19.565566
_cell_length_c 8.933795
_cell_angle_alpha 90.000000
_cell_angle_beta 90.000000
_cell_angle_gamma 90.000000
_cell_volume 3419.958329
_symmetry_space_group_name_H-M "P 4/M B M"
_symmetry_group_IT_number 127
_symmetry_cell_setting 'tetragonal'
loop_
_space_group_symop_operation_xyz
x,y,z
-y,x,z
-x,-y,z
y,-x,z
1/2+x,1/2-y,-z
1/2-x,1/2+y,-z
1/2+y,1/2+x,-z
1/2-y,1/2-x,-z
-x,-y,-z
y,-x,-z
x,y,-z
-y,x,-z
1/2-x,1/2+y,z
1/2+x,1/2-y,z
1/2-y,1/2-x,z
1/2+y,1/2+x,z
loop_
_atom_site_type_symbol
_atom_site_label
_atom_site_fract_x
_atom_site_fract_y
_atom_site_fract_z
Si Si1 0.521541 0.796779 0.820430
Si Si2 0.266971 0.651982 0.677838
Si Si3 0.744797 0.131705 0.179200
Si Si4 0.057571 0.557571 0.677796
O O1 0.581171 0.748049 0.759644
O O2 0.446365 0.769640 0.779346
O O3 0.534138 0.871279 0.750129
O O4 0.525332 0.801829 0.000000
O O5 0.271040 0.642220 0.500000
O O6 0.202771 0.702771 0.708606
O O7 0.333049 0.691750 0.738545
O O8 0.678381 0.178381 0.213495
O O9 0.755681 0.135268 0.000000
O O10 0.067316 0.567316 0.500000
O O11 0.000000 0.500000 0.701546
#
# Coordination Sequence:
#
# PCOD9564030 Si02
#       4
#    16  16  16   8
#     4  11  21  34  55  79 106 142 180 223 268 317
#     4  10  20  34  53  77 106 140 179 220 265 321
#     4   9  19  35  54  77 105 137 179 223 264 315
#     4  11  23  35  49  75 113 149 179 216 265 326
#
# _framework density 16.374469000000001
#
# number of rings (size 3 to 8) (size 9 to 14) (size 15 to 20)
#    0.000    1.857    1.429    3.000    0.000    5.714 
#    0.000    2.857    0.000    0.857    0.000    6.000 
#    0.000    0.000    0.000    0.000    0.000    0.000 
#
# Total GULP energy -312741.313213 kJ/mol
# GULP energy per Si atom -5584.666307 kJ/mol
# Density = 1.633720 g / cm^3
# Si number density = 16.374469 Si / 1000 Ang^3
#
#
#
# Elastic Constant Matrix: (Units=GPa)
#
#
# Indices 1 2 3 4 5 6 
#
# 1 126.2244 97.1772 66.2770 0.0000 0.0000 0.0000
# 2 97.1772 126.2244 66.2770 0.0000 0.0000 0.0000
# 3 66.2770 66.2770 61.6223 0.0000 0.0000 0.0000
# 4 0.0000 0.0000 0.0000 22.5385 0.0000 0.0000
# 5 0.0000 0.0000 0.0000 0.0000 22.5385 0.0000
# 6 0.0000 0.0000 0.0000 0.0000 0.0000 20.1796
#
#
#
# Elastic Compliance Matrix: (Units=1/GPa)
#
#
# Indices 1 2 3 4 5 6 
#
# 1 0.023399 -0.011028 -0.013305 0.000000 0.000000 0.000000
# 2 -0.011028 0.023399 -0.013305 0.000000 0.000000 0.000000
# 3 -0.013305 -0.013305 0.044849 0.000000 0.000000 0.000000
# 4 0.000000 0.000000 0.000000 0.044369 0.000000 0.000000
# 5 0.000000 0.000000 0.000000 0.000000 0.044369 0.000000
# 6 0.000000 0.000000 0.000000 0.000000 0.000000 0.049555
#
#
# Mechanical properties :
#
#
# Convention : Reuss Voigt Hill
#
# Bulk Modulus (GPa) = 61.09091 85.94820 73.51955
# Shear Modulus (GPa) = 16.09415 18.67397 17.38406
#
# Velocity S-wave (km/s) = 3.13849 3.38069 3.26184
# Velocity P-wave (km/s) = 7.10796 8.23662 7.69302
#
# Compressibility (1/GPa) = 0.01636905
#
# Stress axis : x y z
#
# Youngs Moduli (GPa) = 42.73722 42.73722 22.29724
#
# Poissons Ratio (x) = 0.47130 0.29667
# Poissons Ratio (y) = 0.47130 0.29667
# Poissons Ratio (z) = 0.56863 0.56863
#
# Static dielectric constant tensor:
#      x y z
#    x 1.529500 0.000000 0.000000 
#    y 0.000000 1.529500 0.000000 
#    z 0.000000 0.000000 1.543880 
# 
# From -- ./inp_files/1060.got.cif
#   From: 2010.05.17/outbox.cif.g08.bks.cpg/sg127_1_cif.got.tgz:1060.got - 2010.05.20 12:03:00.
