data_PCOD9564983
_publ_section_title
;
Structure prediction by ZEFSAII (Michael W. Deem and Ramdas Pophale) SiO2 
 PCOD9564983
Probable space group: P 4/M N C
;
_chemical_formula_sum "Si O2"
_cell_formula_units_Z 52
_cell_length_a 15.071560
_cell_length_b 15.071560
_cell_length_c 9.854498
_cell_angle_alpha 90.000000
_cell_angle_beta 90.000000
_cell_angle_gamma 90.000000
_cell_volume 2238.468150
_symmetry_space_group_name_H-M "P 4/M N C"
_symmetry_group_IT_number 128
_symmetry_cell_setting 'tetragonal'
loop_
_space_group_symop_operation_xyz
x,y,z
-y,x,z
-x,-y,z
y,-x,z
1/2+x,1/2-y,1/2-z
1/2-x,1/2+y,1/2-z
1/2+y,1/2+x,1/2-z
1/2-y,1/2-x,1/2-z
-x,-y,-z
y,-x,-z
x,y,-z
-y,x,-z
1/2-x,1/2+y,1/2+z
1/2+x,1/2-y,1/2+z
1/2-y,1/2-x,1/2+z
1/2+y,1/2+x,1/2+z
loop_
_atom_site_type_symbol
_atom_site_label
_atom_site_fract_x
_atom_site_fract_y
_atom_site_fract_z
Si Si1 0.500000 0.000000 0.750000
Si Si2 0.067625 0.323904 0.149926
Si Si3 0.877445 0.251962 0.161128
Si Si4 0.391492 0.397192 0.147066
O O1 0.584465 0.010045 0.845168
O O2 0.147781 0.352220 0.250000
O O3 0.984540 0.260280 0.180895
O O4 0.102089 0.306199 0.000000
O O5 0.825376 0.325376 0.250000
O O6 0.851774 0.157139 0.227636
O O7 0.860413 0.258594 0.000000
O O8 0.497419 0.382124 0.148596
O O9 0.356972 0.364521 0.000000
#
# Coordination Sequence:
#
# PCOD9564983 Si02
#       4
#     4  16  16  16
#     4   8  14  24  42  60  98 140 182 216 244 312
#     4   9  17  27  43  69 104 144 183 220 262 321
#     4  11  21  34  55  86 119 150 187 233 286 339
#     4   9  20  41  65  85 108 144 190 236 284 339
#
# _framework density 23.230172
#
# number of rings (size 3 to 8) (size 9 to 14) (size 15 to 20)
#    0.923    1.538    1.538    2.308    0.000    3.692 
#    0.000    3.077    0.000    3.692    0.000    0.000 
#    0.000    0.000    0.000    0.000    0.000    0.000 
#
# Total GULP energy -289509.731292 kJ/mol
# GULP energy per Si atom -5567.494833 kJ/mol
# Density = 2.317730 g / cm^3
# Si number density = 23.230172 Si / 1000 Ang^3
#
#
#
# Elastic Constant Matrix: (Units=GPa)
#
#
# Indices 1 2 3 4 5 6 
#
# 1 79.6722 -19.5326 51.0909 0.0000 0.0000 0.0000
# 2 -19.5326 79.6707 51.0915 0.0000 0.0000 0.0000
# 3 51.0909 51.0915 189.8527 0.0000 0.0000 0.0000
# 4 0.0000 0.0000 0.0000 7.7666 0.0000 0.0000
# 5 0.0000 0.0000 0.0000 0.0000 7.7648 0.0000
# 6 0.0000 0.0000 0.0000 0.0000 0.0000 18.0575
#
#
#
# Elastic Compliance Matrix: (Units=1/GPa)
#
#
# Indices 1 2 3 4 5 6 
#
# 1 0.020358 0.010278 -0.008245 0.000000 0.000000 0.000000
# 2 0.010278 0.020359 -0.008245 0.000000 0.000000 0.000000
# 3 -0.008245 -0.008245 0.009705 0.000000 0.000000 0.000000
# 4 0.000000 0.000000 0.000000 0.128756 0.000000 0.000000
# 5 0.000000 0.000000 0.000000 0.000000 0.128786 0.000000
# 6 0.000000 0.000000 0.000000 0.000000 0.000000 0.055379
#
#
# Mechanical properties :
#
#
# Convention : Reuss Voigt Hill
#
# Bulk Modulus (GPa) = 26.31608 57.16613 41.74111
# Shear Modulus (GPa) = 12.87230 24.48750 18.67990
#
# Velocity S-wave (km/s) = 2.35653 3.25025 2.83878
# Velocity P-wave (km/s) = 4.33097 6.22475 5.36213
#
# Compressibility (1/GPa) = 0.03799958
#
# Stress axis : x y z
#
# Youngs Moduli (GPa) = 49.12022 49.11888 103.04315
#
# Poissons Ratio (x) = -0.50486 0.84955
# Poissons Ratio (y) = -0.50487 0.84956
# Poissons Ratio (z) = 0.40497 0.40497
#
# Static dielectric constant tensor:
#      x y z
#    x 1.958680 0.000000 0.000000 
#    y 0.000000 1.958680 0.000000 
#    z 0.000000 0.000000 1.868720 
# 
# From -- ./inp_files/728.got.cif
#   From: 2010.05.17/outbox.cif.g08.bks.cpg/sg128_1_cif.got.tgz:728.got - 2010.05.20 12:07:25.
