data_PCOD9564039
_publ_section_title
;
Structure prediction by ZEFSAII (Michael W. Deem and Ramdas Pophale) SiO2 
 PCOD9564039
Probable space group: P 4/M B M
;
_chemical_formula_sum "Si O2"
_cell_formula_units_Z 56
_cell_length_a 19.942908
_cell_length_b 19.942908
_cell_length_c 7.884005
_cell_angle_alpha 90.000000
_cell_angle_beta 90.000000
_cell_angle_gamma 90.000000
_cell_volume 3135.623153
_symmetry_space_group_name_H-M "P 4/M B M"
_symmetry_group_IT_number 127
_symmetry_cell_setting 'tetragonal'
loop_
_space_group_symop_operation_xyz
x,y,z
-y,x,z
-x,-y,z
y,-x,z
1/2+x,1/2-y,-z
1/2-x,1/2+y,-z
1/2+y,1/2+x,-z
1/2-y,1/2-x,-z
-x,-y,-z
y,-x,-z
x,y,-z
-y,x,-z
1/2-x,1/2+y,z
1/2+x,1/2-y,z
1/2-y,1/2-x,z
1/2+y,1/2+x,z
loop_
_atom_site_type_symbol
_atom_site_label
_atom_site_fract_x
_atom_site_fract_y
_atom_site_fract_z
Si Si1 0.489840 0.710201 0.695487
Si Si2 0.835910 0.771287 0.295669
Si Si3 0.388958 0.510960 0.000000
Si Si4 0.880259 0.271766 0.798837
O O1 0.487628 0.686548 0.500000
O O2 0.414377 0.730944 0.747144
O O3 0.512626 0.655058 0.830830
O O4 0.547834 0.765959 0.710755
O O5 0.832254 0.773325 0.500000
O O6 0.793007 0.706994 0.236303
O O7 0.795808 0.836526 0.231516
O O8 0.429471 0.441775 0.000000
O O9 0.832581 0.332581 0.739359
O O10 0.890485 0.278781 0.000000
#
# Coordination Sequence:
#
# PCOD9564039 Si02
#       4
#    16  16   8  16
#     4  11  22  36  57  81 109 147 185 224 277 332
#     4   9  19  35  55  81 110 141 184 233 277 326
#     4  11  24  38  52  76 112 147 184 228 268 321
#     4  10  20  34  55  82 110 142 184 231 277 327
#
# _framework density 17.859289
#
# number of rings (size 3 to 8) (size 9 to 14) (size 15 to 20)
#    0.000    1.857    1.429    2.571    2.000    5.143 
#    0.000    1.429    0.000    0.857    0.000    6.000 
#    0.000    0.000    0.000    0.000    0.000    0.000 
#
# Total GULP energy -312479.838702 kJ/mol
# GULP energy per Si atom -5579.997120 kJ/mol
# Density = 1.781864 g / cm^3
# Si number density = 17.859289 Si / 1000 Ang^3
#
#
#
# Elastic Constant Matrix: (Units=GPa)
#
#
# Indices 1 2 3 4 5 6 
#
# 1 71.9313 4.5876 12.1577 0.0000 0.0000 0.0000
# 2 4.5876 71.9313 12.1577 0.0000 0.0000 0.0000
# 3 12.1577 12.1577 58.4753 0.0000 0.0000 0.0000
# 4 0.0000 0.0000 0.0000 -13.8693 0.0000 0.0000
# 5 0.0000 0.0000 0.0000 0.0000 -13.8693 0.0000
# 6 0.0000 0.0000 0.0000 0.0000 0.0000 -44.1872
#
#
#
# Elastic Compliance Matrix: (Units=1/GPa)
#
#
# Indices 1 2 3 4 5 6 
#
# 1 0.014421 -0.000428 -0.002909 0.000000 0.000000 0.000000
# 2 -0.000428 0.014421 -0.002909 0.000000 0.000000 0.000000
# 3 -0.002909 -0.002909 0.018311 0.000000 0.000000 0.000000
# 4 0.000000 0.000000 0.000000 -0.072102 0.000000 0.000000
# 5 0.000000 0.000000 0.000000 0.000000 -0.072102 0.000000
# 6 0.000000 0.000000 0.000000 0.000000 0.000000 -0.022631
#
#
# Mechanical properties :
#
#
# Convention : Reuss Voigt Hill
#
# Bulk Modulus (GPa) = 28.85171 28.90486 28.87828
# Shear Modulus (GPa) = -52.28262 -2.82285 -27.55274
#
# Velocity S-wave (km/s) = -5.41648 -1.25859 -3.93207
# Velocity P-wave (km/s) = 4.78828 3.75604 2.09998
#
# Compressibility (1/GPa) = 0.03465999
#
# Stress axis : x y z
#
# Youngs Moduli (GPa) = 69.34243 69.34243 54.61194
#
# Poissons Ratio (x) = 0.02968 0.15888
# Poissons Ratio (y) = 0.02968 0.15888
# Poissons Ratio (z) = 0.20174 0.20174
#
# Static dielectric constant tensor:
#      x y z
#    x 1.624880 0.000000 0.000000 
#    y 0.000000 1.624880 0.000000 
#    z 0.000000 0.000000 1.617430 
# 
# From -- ./inp_files/1066.got.cif
#   From: 2010.05.17/outbox.cif.g08.bks.cpg/sg127_1_cif.got.tgz:1066.got - 2010.05.20 12:03:00.
