data_PCOD9564395
_publ_section_title
;
Structure prediction by ZEFSAII (Michael W. Deem and Ramdas Pophale) SiO2 
 PCOD9564395
Probable space group: P 4/M B M
;
_chemical_formula_sum "Si O2"
_cell_formula_units_Z 112
_cell_length_a 14.769135
_cell_length_b 14.769135
_cell_length_c 29.618733
_cell_angle_alpha 90.000000
_cell_angle_beta 90.000000
_cell_angle_gamma 90.000000
_cell_volume 6460.655700
_symmetry_space_group_name_H-M "P 4/M B M"
_symmetry_group_IT_number 127
_symmetry_cell_setting 'tetragonal'
loop_
_space_group_symop_operation_xyz
x,y,z
-y,x,z
-x,-y,z
y,-x,z
1/2+x,1/2-y,-z
1/2-x,1/2+y,-z
1/2+y,1/2+x,-z
1/2-y,1/2-x,-z
-x,-y,-z
y,-x,-z
x,y,-z
-y,x,-z
1/2-x,1/2+y,z
1/2+x,1/2-y,z
1/2-y,1/2-x,z
1/2+y,1/2+x,z
loop_
_atom_site_type_symbol
_atom_site_label
_atom_site_fract_x
_atom_site_fract_y
_atom_site_fract_z
Si Si1 0.577448 0.077448 0.333913
Si Si2 0.645741 0.458464 0.288147
Si Si3 0.561211 0.785413 0.631982
Si Si4 0.460940 0.353693 0.552783
Si Si5 0.322600 0.673401 0.856332
Si Si6 0.576887 0.076887 0.770693
Si Si7 0.999618 0.234932 0.806833
Si Si8 0.885548 0.101673 0.949012
O O1 0.532104 0.160286 0.359874
O O2 0.599870 0.099870 0.281781
O O3 0.500000 0.000000 0.331600
O O4 0.607445 0.560170 0.293590
O O5 0.718599 0.432042 0.325490
O O6 0.690176 0.460167 0.238756
O O7 0.642549 0.857452 0.631756
O O8 0.558991 0.726954 0.586692
O O9 0.561680 0.393549 0.560711
O O10 0.454155 0.328508 0.500000
O O11 0.259747 0.759747 0.847349
O O12 0.415382 0.680505 0.827581
O O13 0.269406 0.582951 0.841821
O O14 0.349974 0.666403 0.908694
O O15 0.665848 0.036786 0.794452
O O16 0.500000 0.000000 0.770583
O O17 0.992848 0.122491 0.944534
O O18 0.857549 0.126540 0.000000
#
# Coordination Sequence:
#
# PCOD9564395 Si02
#       8
#     8  16  16  16  16   8  16  16
#     4   9  20  36  57  76 111 161 193 222 279 339
#     4  11  23  39  58  82 116 156 196 239 291 339
#     4  11  22  38  58  87 119 152 193 237 285 346
#     4   9  19  40  66  87 113 150 189 235 294 351
#     4  12  24  37  59  89 119 155 202 248 302 360
#     4  11  22  42  60  79 121 172 202 239 297 355
#     4  12  23  38  59  88 117 155 203 251 294 351
#     4   9  18  35  61  87 112 149 194 242 302 365
#
# _framework density 17.335701
#
# number of rings (size 3 to 8) (size 9 to 14) (size 15 to 20)
#    0.000    1.429    5.000    2.143    0.000    2.571 
#    6.429    0.357    0.000    1.286    0.000    0.000 
#    0.000    4.571    0.000    0.000    0.000    0.000 
#
# Total GULP energy -625222.697217 kJ/mol
# GULP energy per Si atom -5582.345511 kJ/mol
# Density = 1.729624 g / cm^3
# Si number density = 17.335701 Si / 1000 Ang^3
#
#
#
# Elastic Constant Matrix: (Units=GPa)
#
#
# Indices 1 2 3 4 5 6 
#
# 1 58.9435 18.0587 41.3156 0.0000 0.0000 0.0000
# 2 18.0587 58.9435 41.3156 0.0000 0.0000 0.0000
# 3 41.3156 41.3156 101.6187 0.0000 0.0000 0.0000
# 4 0.0000 0.0000 0.0000 8.5423 0.0000 0.0000
# 5 0.0000 0.0000 0.0000 0.0000 8.5423 0.0000
# 6 0.0000 0.0000 0.0000 0.0000 0.0000 17.9207
#
#
#
# Elastic Compliance Matrix: (Units=1/GPa)
#
#
# Indices 1 2 3 4 5 6 
#
# 1 0.023749 -0.000710 -0.009367 0.000000 0.000000 0.000000
# 2 -0.000710 0.023749 -0.009367 0.000000 0.000000 0.000000
# 3 -0.009367 -0.009367 0.017457 0.000000 0.000000 0.000000
# 4 0.000000 0.000000 0.000000 0.117065 0.000000 0.000000
# 5 0.000000 0.000000 0.000000 0.000000 0.117065 0.000000
# 6 0.000000 0.000000 0.000000 0.000000 0.000000 0.055801
#
#
# Mechanical properties :
#
#
# Convention : Reuss Voigt Hill
#
# Bulk Modulus (GPa) = 38.36330 46.76503 42.56417
# Shear Modulus (GPa) = 12.42355 14.92211 13.67283
#
# Velocity S-wave (km/s) = 2.67993 2.93708 2.81144
# Velocity P-wave (km/s) = 5.63504 6.20779 5.92833
#
# Compressibility (1/GPa) = 0.02606658
#
# Stress axis : x y z
#
# Youngs Moduli (GPa) = 42.10792 42.10792 57.28286
#
# Poissons Ratio (x) = 0.02992 0.53655
# Poissons Ratio (y) = 0.02992 0.53655
# Poissons Ratio (z) = 0.39441 0.39441
#
# Static dielectric constant tensor:
#      x y z
#    x 1.577360 0.000000 0.000000 
#    y 0.000000 1.577360 0.000000 
#    z 0.000000 0.000000 1.582030 
# 
# From -- ./inp_files/6431.got.cif
#   From: 2010.05.17/outbox.cif.g08.bks.cpg/sg127_4_cif.got.tgz:6431.got - 2010.05.20 12:03:00.
