data_PCOD9564517
_publ_section_title
;
Structure prediction by ZEFSAII (Michael W. Deem and Ramdas Pophale) SiO2 
 PCOD9564517
Probable space group: P 4/M B M
;
_chemical_formula_sum "Si O2"
_cell_formula_units_Z 56
_cell_length_a 12.000000
_cell_length_b 12.000000
_cell_length_c 21.000000
_cell_angle_alpha 90.000000
_cell_angle_beta 90.000000
_cell_angle_gamma 90.000000
_cell_volume 3024.000000
_symmetry_space_group_name_H-M "P 4/M B M"
_symmetry_group_IT_number 127
_symmetry_cell_setting 'tetragonal'
loop_
_space_group_symop_operation_xyz
x,y,z
-y,x,z
-x,-y,z
y,-x,z
1/2+x,1/2-y,-z
1/2-x,1/2+y,-z
1/2+y,1/2+x,-z
1/2-y,1/2-x,-z
-x,-y,-z
y,-x,-z
x,y,-z
-y,x,-z
1/2-x,1/2+y,z
1/2+x,1/2-y,z
1/2-y,1/2-x,z
1/2+y,1/2+x,z
loop_
_atom_site_type_symbol
_atom_site_label
_atom_site_fract_x
_atom_site_fract_y
_atom_site_fract_z
Si Si1 0.509007 0.688360 0.928351
Si Si2 0.595521 0.095521 0.577440
Si Si3 0.685726 0.996579 0.793248
Si Si4 0.686141 0.527671 0.661149
O O1 0.397617 0.612586 0.925920
O O2 0.511539 0.761033 0.864036
O O3 0.511569 0.741739 0.000000
O O4 0.611958 0.111958 0.500000
O O5 0.553449 0.208457 0.614273
O O6 0.500000 0.000000 0.584822
O O7 0.617417 0.882584 0.779738
O O8 0.595868 0.095868 0.794292
O O9 0.769342 0.022593 0.734602
O O10 0.591299 0.623061 0.651311
#
# Coordination Sequence:
#
# PCOD9564517 Si02
#       4
#    16   8  16  16
#     4   9  19  36  56  80 114 158 210 267 325 385
#     4  11  26  46  72 103 138 176 214 264 326 390
#     4  11  23  37  58  88 125 165 212 268 328 387
#     4  11  25  44  70 101 133 174 223 271 324 389
#
# _framework density 18.518519000000001
#
# number of rings (size 3 to 8) (size 9 to 14) (size 15 to 20)
#    0.000    1.571    1.429    3.429    4.000    8.000 
#    0.000    5.714    0.000    0.000    0.000    0.000 
#    0.000    0.000    0.000    0.000    0.000    0.000 
#
# Total GULP energy -312602.438499 kJ/mol
# GULP energy per Si atom -5582.186402 kJ/mol
# Density = 1.847637 g / cm^3
# Si number density = 18.518519 Si / 1000 Ang^3
#
#
#
# Elastic Constant Matrix: (Units=GPa)
#
#
# Indices 1 2 3 4 5 6 
#
# 1 116.6489 48.2675 63.9422 0.0000 0.0000 0.0000
# 2 48.2675 116.6489 63.9422 0.0000 0.0000 0.0000
# 3 63.9422 63.9422 173.0793 0.0000 0.0000 0.0000
# 4 0.0000 0.0000 0.0000 42.5211 0.0000 0.0000
# 5 0.0000 0.0000 0.0000 0.0000 42.5211 0.0000
# 6 0.0000 0.0000 0.0000 0.0000 0.0000 26.8717
#
#
#
# Elastic Compliance Matrix: (Units=1/GPa)
#
#
# Indices 1 2 3 4 5 6 
#
# 1 0.011561 -0.003063 -0.003140 0.000000 0.000000 0.000000
# 2 -0.003063 0.011561 -0.003140 0.000000 0.000000 0.000000
# 3 -0.003140 -0.003140 0.008097 0.000000 0.000000 0.000000
# 4 0.000000 0.000000 0.000000 0.023518 0.000000 0.000000
# 5 0.000000 0.000000 0.000000 0.000000 0.023518 0.000000
# 6 0.000000 0.000000 0.000000 0.000000 0.000000 0.037214
#
#
# Mechanical properties :
#
#
# Convention : Reuss Voigt Hill
#
# Bulk Modulus (GPa) = 79.77244 84.29785 82.03515
# Shear Modulus (GPa) = 36.14507 37.73113 36.93810
#
# Velocity S-wave (km/s) = 4.42275 4.51874 4.47100
# Velocity P-wave (km/s) = 8.32175 8.53493 8.42902
#
# Compressibility (1/GPa) = 0.01253566
#
# Stress axis : x y z
#
# Youngs Moduli (GPa) = 86.49718 86.49718 123.49538
#
# Poissons Ratio (x) = 0.26492 0.38772
# Poissons Ratio (y) = 0.26492 0.38772
# Poissons Ratio (z) = 0.27157 0.27157
#
# Static dielectric constant tensor:
#      x y z
#    x 1.645440 0.000000 0.000000 
#    y 0.000000 1.645440 0.000000 
#    z 0.000000 0.000000 1.631590 
# 
# From -- ./inp_files/5455.got.cif
#   From: 2010.05.17/outbox.ucp.g08.bks.cvg/sg127_3_cif.got.tgz:5455.got - 2010.06.11 11:37:05.
