data_PCOD9564222
_publ_section_title
;
Structure prediction by ZEFSAII (Michael W. Deem and Ramdas Pophale) SiO2 
 PCOD9564222
Probable space group: P 4/M B M
;
_chemical_formula_sum "Si O2"
_cell_formula_units_Z 112
_cell_length_a 15.427981
_cell_length_b 15.427981
_cell_length_c 24.403248
_cell_angle_alpha 90.000000
_cell_angle_beta 90.000000
_cell_angle_gamma 90.000000
_cell_volume 5808.524482
_symmetry_space_group_name_H-M "P 4/M B M"
_symmetry_group_IT_number 127
_symmetry_cell_setting 'tetragonal'
loop_
_space_group_symop_operation_xyz
x,y,z
-y,x,z
-x,-y,z
y,-x,z
1/2+x,1/2-y,-z
1/2-x,1/2+y,-z
1/2+y,1/2+x,-z
1/2-y,1/2-x,-z
-x,-y,-z
y,-x,-z
x,y,-z
-y,x,-z
1/2-x,1/2+y,z
1/2+x,1/2-y,z
1/2-y,1/2-x,z
1/2+y,1/2+x,z
loop_
_atom_site_type_symbol
_atom_site_label
_atom_site_fract_x
_atom_site_fract_y
_atom_site_fract_z
Si Si1 0.495939 0.646474 0.937387
Si Si2 0.991988 0.236421 0.173222
Si Si3 0.598906 0.607899 0.661892
Si Si4 0.145101 0.496397 0.381313
Si Si5 0.269528 0.622383 0.436505
Si Si6 0.671780 0.320060 0.772217
Si Si7 0.137839 0.495071 0.739661
O O1 0.414617 0.580890 0.930701
O O2 0.494928 0.718917 0.890651
O O3 0.495085 0.678740 0.000000
O O4 0.907368 0.185087 0.192482
O O5 0.975135 0.327288 0.202006
O O6 0.079830 0.213172 0.205574
O O7 0.494637 0.616590 0.667087
O O8 0.627473 0.649906 0.604579
O O9 0.648356 0.659387 0.710040
O O10 0.095423 0.404578 0.390418
O O11 0.217212 0.533545 0.421942
O O12 0.184872 0.496840 0.319338
O O13 0.068312 0.568312 0.384681
O O14 0.294195 0.623295 0.500000
O O15 0.201579 0.701579 0.426771
O O16 0.749892 0.249892 0.777847
O O17 0.060430 0.560430 0.728336
O O18 0.101067 0.398934 0.745381
#
# Coordination Sequence:
#
# PCOD9564222 Si02
#       7
#    16  16  16  16  16  16  16
#     4   9  18  34  58  86 117 159 204 248 304 356
#     4  12  21  36  60  92 130 157 201 253 305 367
#     4  11  24  43  64  88 118 155 201 256 313 373
#     4   8  15  30  53  81 113 150 193 243 299 355
#     4  10  21  38  60  86 117 156 203 254 307 368
#     4  12  25  39  62  95 129 165 202 250 311 371
#     4   9  18  33  54  81 117 162 206 248 302 370
#
# _framework density 19.282005999999999
#
# number of rings (size 3 to 8) (size 9 to 14) (size 15 to 20)
#    0.000    1.857    2.857    3.429    0.000    2.286 
#    0.000    2.857    0.000    4.286    0.000    1.000 
#    0.000    0.000    0.000    0.000    0.000    0.000 
#
# Total GULP energy -623848.617504 kJ/mol
# GULP energy per Si atom -5570.076942 kJ/mol
# Density = 1.923812 g / cm^3
# Si number density = 19.282006 Si / 1000 Ang^3
#
#
#
# Elastic Constant Matrix: (Units=GPa)
#
#
# Indices 1 2 3 4 5 6 
#
# 1 71.0085 17.0902 24.6174 0.0000 0.0000 0.0000
# 2 17.0902 71.0085 24.6174 0.0000 0.0000 0.0000
# 3 24.6174 24.6174 119.8061 0.0000 0.0000 0.0000
# 4 0.0000 0.0000 0.0000 21.2596 0.0000 0.0000
# 5 0.0000 0.0000 0.0000 0.0000 21.2596 0.0000
# 6 0.0000 0.0000 0.0000 0.0000 0.0000 13.9761
#
#
#
# Elastic Compliance Matrix: (Units=1/GPa)
#
#
# Indices 1 2 3 4 5 6 
#
# 1 0.015685 -0.002862 -0.002635 0.000000 0.000000 0.000000
# 2 -0.002862 0.015685 -0.002635 0.000000 0.000000 0.000000
# 3 -0.002635 -0.002635 0.009430 0.000000 0.000000 0.000000
# 4 0.000000 0.000000 0.000000 0.047037 0.000000 0.000000
# 5 0.000000 0.000000 0.000000 0.000000 0.047037 0.000000
# 6 0.000000 0.000000 0.000000 0.000000 0.000000 0.071551
#
#
# Mechanical properties :
#
#
# Convention : Reuss Voigt Hill
#
# Bulk Modulus (GPa) = 40.75502 43.83037 42.29269
# Shear Modulus (GPa) = 21.65746 24.33228 22.99487
#
# Velocity S-wave (km/s) = 3.35505 3.55620 3.45709
# Velocity P-wave (km/s) = 6.01586 6.29624 6.15765
#
# Compressibility (1/GPa) = 0.02453686
#
# Stress axis : x y z
#
# Youngs Moduli (GPa) = 63.75514 63.75514 106.04845
#
# Poissons Ratio (x) = 0.18244 0.27943
# Poissons Ratio (y) = 0.18244 0.27943
# Poissons Ratio (z) = 0.16799 0.16799
#
# Static dielectric constant tensor:
#      x y z
#    x -0.408810 0.000000 0.000000 
#    y 0.000000 -0.408810 0.000000 
#    z 0.000000 0.000000 1.647170 
# 
# From -- ./inp_files/6204.got.cif
#   From: 2010.05.17/outbox.cif.g08.bks.cpg/sg127_4_cif.got.tgz:6204.got - 2010.05.20 12:03:00.
