data_PCOD9564389
_publ_section_title
;
Structure prediction by ZEFSAII (Michael W. Deem and Ramdas Pophale) SiO2 
 PCOD9564389
Probable space group: P 4/M B M
;
_chemical_formula_sum "Si O2"
_cell_formula_units_Z 96
_cell_length_a 21.740612
_cell_length_b 21.740612
_cell_length_c 11.529821
_cell_angle_alpha 90.000000
_cell_angle_beta 90.000000
_cell_angle_gamma 90.000000
_cell_volume 5449.618438
_symmetry_space_group_name_H-M "P 4/M B M"
_symmetry_group_IT_number 127
_symmetry_cell_setting 'tetragonal'
loop_
_space_group_symop_operation_xyz
x,y,z
-y,x,z
-x,-y,z
y,-x,z
1/2+x,1/2-y,-z
1/2-x,1/2+y,-z
1/2+y,1/2+x,-z
1/2-y,1/2-x,-z
-x,-y,-z
y,-x,-z
x,y,-z
-y,x,-z
1/2-x,1/2+y,z
1/2+x,1/2-y,z
1/2-y,1/2-x,z
1/2+y,1/2+x,z
loop_
_atom_site_type_symbol
_atom_site_label
_atom_site_fract_x
_atom_site_fract_y
_atom_site_fract_z
Si Si1 0.614956 0.333487 0.500000
Si Si2 0.836490 0.434317 0.140832
Si Si3 0.032507 0.907687 0.764648
Si Si4 0.874316 0.972581 0.500000
Si Si5 0.233776 0.837499 0.270870
Si Si6 0.073834 0.323758 0.863892
Si Si7 0.201541 0.111921 0.138952
O O1 0.648410 0.400888 0.500000
O O2 0.539902 0.341155 0.500000
O O3 0.636515 0.296834 0.612897
O O4 0.892919 0.392919 0.183415
O O5 0.836276 0.505000 0.178247
O O6 0.771425 0.404100 0.171641
O O7 0.839836 0.434922 0.000000
O O8 0.028564 0.907548 0.624643
O O9 0.060970 0.844475 0.808650
O O10 0.963575 0.923572 0.804326
O O11 0.281493 0.781493 0.291762
O O12 0.271630 0.891401 0.207785
O O13 0.178275 0.815790 0.188820
O O14 0.115129 0.384872 0.856129
O O15 0.071491 0.305704 0.000000
O O16 0.196390 0.111283 0.000000
#
# Coordination Sequence:
#
# PCOD9564389 Si02
#       7
#     8  16  16   8  16  16  16
#     4  12  25  37  58  86 108 148 194 242 287 330
#     4   9  19  34  53  80 113 146 183 228 281 344
#     4  11  22  37  56  81 114 153 196 239 283 331
#     4  12  20  37  58  82 108 143 193 235 280 334
#     4  11  23  40  58  81 114 148 189 239 289 347
#     4   9  19  35  58  85 111 145 186 230 287 351
#     4  11  23  36  56  83 114 154 192 230 284 349
#
# _framework density 17.615912000000002
#
# number of rings (size 3 to 8) (size 9 to 14) (size 15 to 20)
#    0.000    1.500    3.333    1.250    4.667    3.500 
#    0.000    2.500    0.000    0.000    0.000    0.583 
#    0.000    2.667    0.000    0.000    0.000    0.000 
#
# Total GULP energy -535354.186842 kJ/mol
# GULP energy per Si atom -5576.606113 kJ/mol
# Density = 1.757582 g / cm^3
# Si number density = 17.615912 Si / 1000 Ang^3
#
#
#
# Elastic Constant Matrix: (Units=GPa)
#
#
# Indices 1 2 3 4 5 6 
#
# 1 80.9021 30.7527 43.1466 0.0000 0.0000 0.0000
# 2 30.7527 80.9021 43.1466 0.0000 0.0000 0.0000
# 3 43.1466 43.1466 66.5967 0.0000 0.0000 0.0000
# 4 0.0000 0.0000 0.0000 20.5644 0.0000 0.0000
# 5 0.0000 0.0000 0.0000 0.0000 20.5644 0.0000
# 6 0.0000 0.0000 0.0000 0.0000 0.0000 20.0490
#
#
#
# Elastic Compliance Matrix: (Units=1/GPa)
#
#
# Indices 1 2 3 4 5 6 
#
# 1 0.018939 -0.001001 -0.011622 0.000000 0.000000 0.000000
# 2 -0.001001 0.018939 -0.011622 0.000000 0.000000 0.000000
# 3 -0.011622 -0.011622 0.030075 0.000000 0.000000 0.000000
# 4 0.000000 0.000000 0.000000 0.048628 0.000000 0.000000
# 5 0.000000 0.000000 0.000000 0.000000 0.048628 0.000000
# 6 0.000000 0.000000 0.000000 0.000000 0.000000 0.049878
#
#
# Mechanical properties :
#
#
# Convention : Reuss Voigt Hill
#
# Bulk Modulus (GPa) = 51.37684 51.38808 51.38246
# Shear Modulus (GPa) = 18.51417 19.65923 19.08670
#
# Velocity S-wave (km/s) = 3.24542 3.34427 3.29521
# Velocity P-wave (km/s) = 6.57814 6.64432 6.61131
#
# Compressibility (1/GPa) = 0.01946402
#
# Stress axis : x y z
#
# Youngs Moduli (GPa) = 52.80043 52.80043 33.25062
#
# Poissons Ratio (x) = 0.05286 0.38643
# Poissons Ratio (y) = 0.05286 0.38643
# Poissons Ratio (z) = 0.61363 0.61363
#
# Static dielectric constant tensor:
#      x y z
#    x 1.601460 0.000000 0.000000 
#    y 0.000000 1.601460 0.000000 
#    z 0.000000 0.000000 1.583800 
# 
# From -- ./inp_files/3618.got.cif
#   From: 2010.05.17/outbox.cif.g08.bks.cpg/sg127_2_cif.got.tgz:3618.got - 2010.05.20 12:03:00.
