data_PCOD9564283
_publ_section_title
;
Structure prediction by ZEFSAII (Michael W. Deem and Ramdas Pophale) SiO2 
 PCOD9564283
Probable space group: P 4/M B M
;
_chemical_formula_sum "Si O2"
_cell_formula_units_Z 88
_cell_length_a 17.486451
_cell_length_b 17.486451
_cell_length_c 14.943452
_cell_angle_alpha 90.000000
_cell_angle_beta 90.000000
_cell_angle_gamma 90.000000
_cell_volume 4569.348509
_symmetry_space_group_name_H-M "P 4/M B M"
_symmetry_group_IT_number 127
_symmetry_cell_setting 'tetragonal'
loop_
_space_group_symop_operation_xyz
x,y,z
-y,x,z
-x,-y,z
y,-x,z
1/2+x,1/2-y,-z
1/2-x,1/2+y,-z
1/2+y,1/2+x,-z
1/2-y,1/2-x,-z
-x,-y,-z
y,-x,-z
x,y,-z
-y,x,-z
1/2-x,1/2+y,z
1/2+x,1/2-y,z
1/2-y,1/2-x,z
1/2+y,1/2+x,z
loop_
_atom_site_type_symbol
_atom_site_label
_atom_site_fract_x
_atom_site_fract_y
_atom_site_fract_z
Si Si1 0.742770 0.757231 0.397062
Si Si2 0.019170 0.127596 0.500000
Si Si3 0.065575 0.565575 0.895273
Si Si4 0.381110 0.118891 0.390791
Si Si5 0.906835 0.911377 0.189422
Si Si6 0.797642 0.091428 0.333774
Si Si7 0.094870 0.089153 0.000000
Si Si8 0.850472 0.518559 0.740828
O O1 0.729614 0.770387 0.500000
O O2 0.681821 0.818180 0.357829
O O3 0.831329 0.769417 0.377895
O O4 0.032672 0.176326 0.410527
O O5 0.938456 0.084367 0.500000
O O6 0.132502 0.528711 0.832688
O O7 0.000000 0.500000 0.899092
O O8 0.084264 0.584264 0.000000
O O9 0.386024 0.113977 0.500000
O O10 0.461627 0.139802 0.343608
O O11 0.879150 0.869163 0.275874
O O12 0.998109 0.897074 0.192168
O O13 0.875001 0.882006 0.094635
O O14 0.732967 0.055754 0.269622
O O15 0.003155 0.102715 0.000000
O O16 0.915054 0.584947 0.736349
#
# Coordination Sequence:
#
# PCOD9564283 Si02
#       8
#     8   8   8   8  16  16   8  16
#     4  11  25  42  55  83 116 165 198 239 307 374
#     4  11  26  41  60  88 119 164 217 256 290 362
#     4   8  16  38  67  88 113 144 197 260 300 349
#     4  10  24  39  63  84 115 150 206 244 290 361
#     4   9  18  33  57  85 114 152 196 239 287 352
#     4  12  23  37  59  82 125 155 195 250 305 366
#     4   7  12  28  52  79 110 142 185 238 279 330
#     4  10  22  39  60  92 115 152 202 255 309 356
#
# _framework density 19.258762000000001
#
# number of rings (size 3 to 8) (size 9 to 14) (size 15 to 20)
#    0.000    2.091    1.818    3.000    6.364    2.182 
#    1.636    0.000    0.000    0.545    0.000    0.000 
#    0.000    0.000    0.000    0.000    0.000    0.000 
#
# Total GULP energy -490247.555304 kJ/mol
# GULP energy per Si atom -5570.994947 kJ/mol
# Density = 1.921493 g / cm^3
# Si number density = 19.258762 Si / 1000 Ang^3
#
#
#
# Elastic Constant Matrix: (Units=GPa)
#
#
# Indices 1 2 3 4 5 6 
#
# 1 4.1817 60.9272 14.8441 0.0000 0.0000 0.0000
# 2 60.9272 4.1808 14.8438 0.0000 0.0000 0.0000
# 3 14.8441 14.8438 107.1996 0.0000 0.0000 0.0000
# 4 0.0000 0.0000 0.0000 29.5287 0.0000 0.0000
# 5 0.0000 0.0000 0.0000 0.0000 29.5280 0.0000
# 6 0.0000 0.0000 0.0000 0.0000 0.0000 19.3110
#
#
#
# Elastic Compliance Matrix: (Units=1/GPa)
#
#
# Indices 1 2 3 4 5 6 
#
# 1 -0.000614 0.017008 -0.002270 0.000000 0.000000 0.000000
# 2 0.017008 -0.000614 -0.002270 0.000000 0.000000 0.000000
# 3 -0.002270 -0.002270 0.009957 0.000000 0.000000 0.000000
# 4 0.000000 0.000000 0.000000 0.033865 0.000000 0.000000
# 5 0.000000 0.000000 0.000000 0.000000 0.033866 0.000000
# 6 0.000000 0.000000 0.000000 0.000000 0.000000 0.051784
#
#
# Mechanical properties :
#
#
# Convention : Reuss Voigt Hill
#
# Bulk Modulus (GPa) = 29.70455 32.97695 31.34075
# Shear Modulus (GPa) = 43.65678 17.33667 30.49672
#
# Velocity S-wave (km/s) = 4.76631 3.00358 3.98367
# Velocity P-wave (km/s) = 6.76371 5.40268 6.12114
#
# Compressibility (1/GPa) = 0.03366487
#
# Stress axis : x y z
#
# Youngs Moduli (GPa) = -1628.60846 -1627.93449 100.43106
#
# Poissons Ratio (x) = 27.68831 0.22799
# Poissons Ratio (y) = 27.69977 0.22799
# Poissons Ratio (z) = -3.69710 -3.69559
#
# Static dielectric constant tensor:
#      x y z
#    x 1.681200 0.000000 0.000000 
#    y 0.000000 1.681200 0.000000 
#    z 0.000000 0.000000 1.738900 
# 
# From -- ./inp_files/4474.got.cif
#   From: 2010.05.17/outbox.cif.g08.bks.cpg/sg127_3_cif.got.tgz:4474.got - 2010.05.20 12:03:00.
