data_PCOD9564687
_publ_section_title
;
Structure prediction by ZEFSAII (Michael W. Deem and Ramdas Pophale) SiO2 
 PCOD9564687
Probable space group: P 4/M N C
;
_chemical_formula_sum "Si O2"
_cell_formula_units_Z 96
_cell_length_a 25.613505
_cell_length_b 25.613505
_cell_length_c 8.908889
_cell_angle_alpha 90.000000
_cell_angle_beta 90.000000
_cell_angle_gamma 90.000000
_cell_volume 5844.691225
_symmetry_space_group_name_H-M "P 4/M N C"
_symmetry_group_IT_number 128
_symmetry_cell_setting 'tetragonal'
loop_
_space_group_symop_operation_xyz
x,y,z
-y,x,z
-x,-y,z
y,-x,z
1/2+x,1/2-y,1/2-z
1/2-x,1/2+y,1/2-z
1/2+y,1/2+x,1/2-z
1/2-y,1/2-x,1/2-z
-x,-y,-z
y,-x,-z
x,y,-z
-y,x,-z
1/2-x,1/2+y,1/2+z
1/2+x,1/2-y,1/2+z
1/2-y,1/2-x,1/2+z
1/2+y,1/2+x,1/2+z
loop_
_atom_site_type_symbol
_atom_site_label
_atom_site_fract_x
_atom_site_fract_y
_atom_site_fract_z
Si Si1 0.610077 0.309938 0.822568
Si Si2 0.887867 0.307101 0.320432
Si Si3 0.887134 0.192137 0.819903
Si Si4 0.813046 0.496988 0.327278
Si Si5 0.686464 0.502914 0.328395
Si Si6 0.686292 0.106245 0.320759
O O1 0.652604 0.342812 0.732571
O O2 0.551848 0.327250 0.774339
O O3 0.614339 0.247989 0.788574
O O4 0.617528 0.316954 0.000000
O O5 0.843762 0.343762 0.250000
O O6 0.885737 0.307609 0.500000
O O7 0.880848 0.248091 0.259591
O O8 0.944610 0.326211 0.262751
O O9 0.944854 0.169815 0.780667
O O10 0.886534 0.199718 0.000000
O O11 0.830627 0.493833 0.500000
O O12 0.749697 0.499374 0.329021
O O13 0.830080 0.550598 0.249401
O O14 0.669541 0.512838 0.500000
O O15 0.651852 0.151852 0.250000
O O16 0.680135 0.104893 0.500000
#
# Coordination Sequence:
#
# PCOD9564687 Si02
#       6
#    16  16  16  16  16  16
#     4  10  20  32  49  74 102 132 166 205 250 297
#     4  11  21  34  52  75 103 133 167 205 247 295
#     4  10  20  34  52  74 101 133 168 205 248 296
#     4   9  17  32  52  73  97 128 167 207 246 291
#     4   8  16  31  50  70  93 126 166 204 243 291
#     4  10  20  33  50  74 102 134 169 206 249 296
#
# _framework density 16.425162
#
# number of rings (size 3 to 8) (size 9 to 14) (size 15 to 20)
#    0.000    2.333    0.000    4.500    0.000    7.333 
#    0.000    1.667    0.000    1.000    0.000    7.000 
#    0.000    0.000    0.000    0.000    0.000    0.000 
#
# Total GULP energy -535298.469799 kJ/mol
# GULP energy per Si atom -5576.025727 kJ/mol
# Density = 1.638778 g / cm^3
# Si number density = 16.425162 Si / 1000 Ang^3
#
#
#
# Elastic Constant Matrix: (Units=GPa)
#
#
# Indices 1 2 3 4 5 6 
#
# 1 85.8938 56.2354 62.3443 0.0000 0.0000 0.0000
# 2 56.2354 85.8938 62.3443 0.0000 0.0000 0.0000
# 3 62.3443 62.3443 115.0261 0.0000 0.0000 0.0000
# 4 0.0000 0.0000 0.0000 27.9836 0.0000 0.0000
# 5 0.0000 0.0000 0.0000 0.0000 27.9836 0.0000
# 6 0.0000 0.0000 0.0000 0.0000 0.0000 -5.8516
#
#
#
# Elastic Compliance Matrix: (Units=1/GPa)
#
#
# Indices 1 2 3 4 5 6 
#
# 1 0.023566 -0.010152 -0.007271 0.000000 0.000000 0.000000
# 2 -0.010152 0.023566 -0.007271 0.000000 0.000000 0.000000
# 3 -0.007271 -0.007271 0.016575 0.000000 0.000000 0.000000
# 4 0.000000 0.000000 0.000000 0.035735 0.000000 0.000000
# 5 0.000000 0.000000 0.000000 0.000000 0.035735 0.000000
# 6 0.000000 0.000000 0.000000 0.000000 0.000000 -0.170894
#
#
# Mechanical properties :
#
#
# Convention : Reuss Voigt Hill
#
# Bulk Modulus (GPa) = 69.82617 72.07355 70.94986
# Shear Modulus (GPa) = 271.11537 17.08244 144.09891
#
# Velocity S-wave (km/s) = 12.86155 3.22843 9.37662
# Velocity P-wave (km/s) = 16.22230 7.60738 12.66956
#
# Compressibility (1/GPa) = 0.01432128
#
# Stress axis : x y z
#
# Youngs Moduli (GPa) = 42.43443 42.43443 60.33195
#
# Poissons Ratio (x) = 0.43078 0.43865
# Poissons Ratio (y) = 0.43078 0.43865
# Poissons Ratio (z) = 0.30852 0.30852
#
# Static dielectric constant tensor:
#      x y z
#    x 1.541980 0.000000 0.000000 
#    y 0.000000 1.541980 0.000000 
#    z 0.000000 0.000000 1.548180 
# 
# From -- ./inp_files/1469.got.cif
#   From: 2010.05.17/outbox.cif.g08.bks.cpg/sg128_1_cif.got.tgz:1469.got - 2010.05.20 12:07:25.
