data_PCOD9564904
_publ_section_title
;
Structure prediction by ZEFSAII (Michael W. Deem and Ramdas Pophale) SiO2 
 PCOD9564904
Probable space group: P 4/M N C
;
_chemical_formula_sum "Si O2"
_cell_formula_units_Z 112
_cell_length_a 14.658998
_cell_length_b 14.658998
_cell_length_c 25.656449
_cell_angle_alpha 90.000000
_cell_angle_beta 90.000000
_cell_angle_gamma 90.000000
_cell_volume 5513.217405
_symmetry_space_group_name_H-M "P 4/M N C"
_symmetry_group_IT_number 128
_symmetry_cell_setting 'tetragonal'
loop_
_space_group_symop_operation_xyz
x,y,z
-y,x,z
-x,-y,z
y,-x,z
1/2+x,1/2-y,1/2-z
1/2-x,1/2+y,1/2-z
1/2+y,1/2+x,1/2-z
1/2-y,1/2-x,1/2-z
-x,-y,-z
y,-x,-z
x,y,-z
-y,x,-z
1/2-x,1/2+y,1/2+z
1/2+x,1/2-y,1/2+z
1/2-y,1/2-x,1/2+z
1/2+y,1/2+x,1/2+z
loop_
_atom_site_type_symbol
_atom_site_label
_atom_site_fract_x
_atom_site_fract_y
_atom_site_fract_z
Si Si1 0.560868 0.362635 0.601322
Si Si2 0.373177 0.270266 0.768883
Si Si3 0.369200 0.184646 0.876787
Si Si4 0.932402 0.773876 0.213727
Si Si5 0.098150 0.483233 0.341486
Si Si6 0.545395 0.139909 0.060280
Si Si7 0.741246 0.206639 0.941938
O O1 0.616337 0.455449 0.589961
O O2 0.570141 0.336647 0.662072
O O3 0.605782 0.280230 0.569573
O O4 0.319992 0.180009 0.750000
O O5 0.389787 0.253695 0.829822
O O6 0.469710 0.281488 0.740879
O O7 0.308343 0.353990 0.752355
O O8 0.360838 0.082031 0.854551
O O9 0.451178 0.181555 0.918553
O O10 0.274419 0.214079 0.901398
O O11 0.925849 0.670250 0.191929
O O12 0.074007 0.434469 0.396240
O O13 0.000000 0.500000 0.314961
O O14 0.632123 0.207119 0.061572
O O15 0.536908 0.108495 0.000000
O O16 0.768631 0.233387 0.000000
#
# Coordination Sequence:
#
# PCOD9564904 Si02
#       7
#    16  16  16  16  16  16  16
#     4  11  22  40  66  95 135 178 219 265 324 398
#     4  12  27  42  67  98 130 179 228 269 343 393
#     4  11  24  44  63  96 130 170 224 279 328 400
#     4  12  23  44  66  93 138 176 219 280 324 405
#     4  10  22  40  68  96 133 170 217 266 339 398
#     4  10  23  42  68  98 129 170 222 276 336 401
#     4  11  24  41  66  96 130 175 217 272 343 393
#
# _framework density 20.314816
#
# number of rings (size 3 to 8) (size 9 to 14) (size 15 to 20)
#    0.000    1.000    4.286    2.143    2.000    5.143 
#    0.000    2.857    0.000    0.429    0.000    2.000 
#    0.000    0.000    0.000    0.000    0.000    0.000 
#
# Total GULP energy -625987.659998 kJ/mol
# GULP energy per Si atom -5589.175536 kJ/mol
# Density = 2.026858 g / cm^3
# Si number density = 20.314816 Si / 1000 Ang^3
#
#
#
# Elastic Constant Matrix: (Units=GPa)
#
#
# Indices 1 2 3 4 5 6 
#
# 1 68.1949 11.6189 34.5442 0.0000 0.0000 0.0000
# 2 11.6189 68.1958 34.5442 0.0000 0.0000 0.0000
# 3 34.5442 34.5442 94.5286 0.0000 0.0000 0.0000
# 4 0.0000 0.0000 0.0000 6.6761 0.0000 0.0000
# 5 0.0000 0.0000 0.0000 0.0000 6.6749 0.0000
# 6 0.0000 0.0000 0.0000 0.0000 0.0000 22.5040
#
#
#
# Elastic Compliance Matrix: (Units=1/GPa)
#
#
# Indices 1 2 3 4 5 6 
#
# 1 0.018001 0.000325 -0.006697 0.000000 0.000000 0.000000
# 2 0.000325 0.018001 -0.006697 0.000000 0.000000 0.000000
# 3 -0.006697 -0.006697 0.015473 0.000000 0.000000 0.000000
# 4 0.000000 0.000000 0.000000 0.149789 0.000000 0.000000
# 5 0.000000 0.000000 0.000000 0.000000 0.149816 0.000000
# 6 0.000000 0.000000 0.000000 0.000000 0.000000 0.044437
#
#
# Mechanical properties :
#
#
# Convention : Reuss Voigt Hill
#
# Bulk Modulus (GPa) = 39.46698 43.59265 41.52981
# Shear Modulus (GPa) = 11.62522 17.18512 14.40517
#
# Velocity S-wave (km/s) = 2.39478 2.91166 2.66578
# Velocity P-wave (km/s) = 5.20735 5.72790 5.47381
#
# Compressibility (1/GPa) = 0.02533764
#
# Stress axis : x y z
#
# Youngs Moduli (GPa) = 55.55305 55.55389 64.62666
#
# Poissons Ratio (x) = -0.01808 0.43281
# Poissons Ratio (y) = -0.01808 0.43280
# Poissons Ratio (z) = 0.37204 0.37204
#
# Static dielectric constant tensor:
#      x y z
#    x 1.716990 0.000000 0.000000 
#    y 0.000000 1.716980 0.000000 
#    z 0.000000 0.000000 1.731020 
# 
# From -- ./inp_files/6437.got.cif
#   From: 2010.05.17/outbox.cif.g08.bks.cpg/sg128_4_cif.got.tgz:6437.got - 2010.05.20 12:07:25.
