data_PCOD9564005
_publ_section_title
;
Structure prediction by ZEFSAII (Michael W. Deem and Ramdas Pophale) SiO2 
 PCOD9564005
Probable space group: P 4/M B M
;
_chemical_formula_sum "Si O2"
_cell_formula_units_Z 120
_cell_length_a 27.982597
_cell_length_b 27.982597
_cell_length_c 8.775903
_cell_angle_alpha 90.000000
_cell_angle_beta 90.000000
_cell_angle_gamma 90.000000
_cell_volume 6871.757896
_symmetry_space_group_name_H-M "P 4/M B M"
_symmetry_group_IT_number 127
_symmetry_cell_setting 'tetragonal'
loop_
_space_group_symop_operation_xyz
x,y,z
-y,x,z
-x,-y,z
y,-x,z
1/2+x,1/2-y,-z
1/2-x,1/2+y,-z
1/2+y,1/2+x,-z
1/2-y,1/2-x,-z
-x,-y,-z
y,-x,-z
x,y,-z
-y,x,-z
1/2-x,1/2+y,z
1/2+x,1/2-y,z
1/2-y,1/2-x,z
1/2+y,1/2+x,z
loop_
_atom_site_type_symbol
_atom_site_label
_atom_site_fract_x
_atom_site_fract_y
_atom_site_fract_z
Si Si1 0.873529 0.549620 0.683833
Si Si2 0.637356 0.940344 0.315897
Si Si3 0.271527 0.939410 0.181059
Si Si4 0.924877 0.023627 0.000000
Si Si5 0.050576 0.739711 0.818405
Si Si6 0.665005 0.408425 0.320744
Si Si7 0.380434 0.487390 0.670304
Si Si8 0.316763 0.396331 0.327728
O O1 0.872926 0.550016 0.500000
O O2 0.917082 0.582919 0.735627
O O3 0.877194 0.494157 0.732453
O O4 0.822811 0.568837 0.742779
O O5 0.639069 0.939854 0.500000
O O6 0.598893 0.901108 0.265962
O O7 0.690337 0.931198 0.253357
O O8 0.231116 0.902036 0.231429
O O9 0.256703 0.994132 0.224427
O O10 0.276517 0.938552 0.000000
O O11 0.902201 0.028705 0.167737
O O12 0.969413 0.058154 0.000000
O O13 0.079578 0.785826 0.763263
O O14 0.052903 0.736902 0.000000
O O15 0.674898 0.401860 0.500000
O O16 0.633770 0.457131 0.311240
O O17 0.636304 0.360986 0.269283
O O18 0.404837 0.482788 0.500000
O O19 0.336989 0.450270 0.660135
O O20 0.305379 0.380340 0.500000
#
# Coordination Sequence:
#
# PCOD9564005 Si02
#       8
#    16  16  16   8  16  16  16  16
#     4   9  18  33  55  82 113 147 179 213 254 305
#     4   9  18  33  55  82 113 147 179 213 254 305
#     4  10  20  33  51  77 106 139 179 222 267 316
#     4  11  24  36  48  68  96 136 178 220 277 344
#     4  10  20  33  51  77 106 139 179 222 267 316
#     4  10  20  33  52  76 101 134 176 224 277 329
#     4  10  21  37  53  72 100 134 175 227 285 338
#     4  10  20  33  52  76 101 134 176 224 277 329
#
# _framework density 17.462779999999999
#
# number of rings (size 3 to 8) (size 9 to 14) (size 15 to 20)
#    0.000    2.200    1.333    1.600    1.867    4.000 
#    0.000    2.000    0.000    0.800    0.000    9.333 
#    0.000    0.000    0.000    0.000    0.000    0.000 
#
# Total GULP energy -668241.761299 kJ/mol
# GULP energy per Si atom -5568.681344 kJ/mol
# Density = 1.742303 g / cm^3
# Si number density = 17.462780 Si / 1000 Ang^3
#
#
#
# Elastic Constant Matrix: (Units=GPa)
#
#
# Indices 1 2 3 4 5 6 
#
# 1 70.2466 41.9679 21.1388 0.0000 0.0000 0.0000
# 2 41.9679 70.2466 21.1388 0.0000 0.0000 0.0000
# 3 21.1388 21.1388 52.8850 0.0000 0.0000 0.0000
# 4 0.0000 0.0000 0.0000 16.5629 0.0000 0.0000
# 5 0.0000 0.0000 0.0000 0.0000 16.5629 0.0000
# 6 0.0000 0.0000 0.0000 0.0000 0.0000 24.3843
#
#
#
# Elastic Compliance Matrix: (Units=1/GPa)
#
#
# Indices 1 2 3 4 5 6 
#
# 1 0.022927 -0.012435 -0.004194 0.000000 0.000000 0.000000
# 2 -0.012435 0.022927 -0.004194 0.000000 0.000000 0.000000
# 3 -0.004194 -0.004194 0.022261 0.000000 0.000000 0.000000
# 4 0.000000 0.000000 0.000000 0.060376 0.000000 0.000000
# 5 0.000000 0.000000 0.000000 0.000000 0.060376 0.000000
# 6 0.000000 0.000000 0.000000 0.000000 0.000000 0.041010
#
#
# Mechanical properties :
#
#
# Convention : Reuss Voigt Hill
#
# Bulk Modulus (GPa) = 37.77855 40.20770 38.99312
# Shear Modulus (GPa) = 17.83515 18.77754 18.30635
#
# Velocity S-wave (km/s) = 3.19928 3.28272 3.24127
# Velocity P-wave (km/s) = 5.94373 6.11908 6.03204
#
# Compressibility (1/GPa) = 0.02647005
#
# Stress axis : x y z
#
# Youngs Moduli (GPa) = 43.61691 43.61691 44.92077
#
# Poissons Ratio (x) = 0.54239 0.18838
# Poissons Ratio (y) = 0.54239 0.18838
# Poissons Ratio (z) = 0.18291 0.18291
#
# Static dielectric constant tensor:
#      x y z
#    x 1.590460 0.000000 0.000000 
#    y 0.000000 1.590460 0.000000 
#    z 0.000000 0.000000 1.802760 
# 
# From -- ./inp_files/2404.got.cif
#   From: 2010.05.17/outbox.cif.g08.bks.cpg/sg127_2_cif.got.tgz:2404.got - 2010.05.20 12:03:00.
