data_PCOD9564048
_publ_section_title
;
Structure prediction by ZEFSAII (Michael W. Deem and Ramdas Pophale) SiO2 
 PCOD9564048
Probable space group: P 4/M B M
;
_chemical_formula_sum "Si O2"
_cell_formula_units_Z 72
_cell_length_a 14.520338
_cell_length_b 14.520338
_cell_length_c 17.304457
_cell_angle_alpha 90.000000
_cell_angle_beta 90.000000
_cell_angle_gamma 90.000000
_cell_volume 3648.475445
_symmetry_space_group_name_H-M "P 4/M B M"
_symmetry_group_IT_number 127
_symmetry_cell_setting 'tetragonal'
loop_
_space_group_symop_operation_xyz
x,y,z
-y,x,z
-x,-y,z
y,-x,z
1/2+x,1/2-y,-z
1/2-x,1/2+y,-z
1/2+y,1/2+x,-z
1/2-y,1/2-x,-z
-x,-y,-z
y,-x,-z
x,y,-z
-y,x,-z
1/2-x,1/2+y,z
1/2+x,1/2-y,z
1/2-y,1/2-x,z
1/2+y,1/2+x,z
loop_
_atom_site_type_symbol
_atom_site_label
_atom_site_fract_x
_atom_site_fract_y
_atom_site_fract_z
Si Si1 0.578727 0.921274 0.086845
Si Si2 0.420392 0.079608 0.409378
Si Si3 0.720910 0.063231 0.855802
Si Si4 0.556075 0.355554 0.000000
Si Si5 0.553392 0.204793 0.683512
Si Si6 0.573505 0.370320 0.407723
O O1 0.529605 0.836521 0.126772
O O2 0.500000 0.000000 0.083534
O O3 0.604454 0.895547 0.000000
O O4 0.398834 0.101167 0.500000
O O5 0.464194 0.165146 0.361971
O O6 0.500000 0.000000 0.412193
O O7 0.649646 0.149646 0.860937
O O8 0.751982 0.048070 0.767520
O O9 0.796120 0.074740 0.922722
O O10 0.615048 0.448859 0.000000
O O11 0.614315 0.114315 0.697343
O O12 0.606312 0.276591 0.629325
O O13 0.620685 0.465673 0.384534
O O14 0.577851 0.365792 0.500000
#
# Coordination Sequence:
#
# PCOD9564048 Si02
#       6
#     8   8  16   8  16  16
#     4   9  15  29  59  85 105 137 179 220 263 317
#     4   9  17  31  53  84 123 159 185 220 280 345
#     4  10  20  38  60  86 116 145 187 238 284 341
#     4  11  25  43  60  81 112 153 196 237 291 350
#     4  10  20  34  57  87 118 148 183 232 290 342
#     4   9  19  37  58  77 104 150 199 233 271 331
#
# _framework density 19.734271
#
# number of rings (size 3 to 8) (size 9 to 14) (size 15 to 20)
#    0.000    2.333    1.111    2.333    0.000    5.778 
#    6.000    2.222    0.000    0.000    0.000    0.000 
#    0.000    0.000    0.000    0.000    0.000    0.000 
#
# Total GULP energy -401141.824116 kJ/mol
# GULP energy per Si atom -5571.414224 kJ/mol
# Density = 1.968935 g / cm^3
# Si number density = 19.734271 Si / 1000 Ang^3
#
#
#
# Elastic Constant Matrix: (Units=GPa)
#
#
# Indices 1 2 3 4 5 6 
#
# 1 45.6097 8.4874 31.6730 0.0000 0.0000 0.0000
# 2 8.4874 45.6097 31.6726 0.0000 0.0000 0.0000
# 3 31.6730 31.6726 116.6403 0.0000 0.0000 0.0000
# 4 0.0000 0.0000 0.0000 -0.9765 0.0000 0.0000
# 5 0.0000 0.0000 0.0000 0.0000 -0.9766 0.0000
# 6 0.0000 0.0000 0.0000 0.0000 0.0000 10.0572
#
#
#
# Elastic Compliance Matrix: (Units=1/GPa)
#
#
# Indices 1 2 3 4 5 6 
#
# 1 0.027021 0.000083 -0.007360 0.000000 0.000000 0.000000
# 2 0.000083 0.027020 -0.007360 0.000000 0.000000 0.000000
# 3 -0.007360 -0.007360 0.012570 0.000000 0.000000 0.000000
# 4 0.000000 0.000000 0.000000 -1.024098 0.000000 0.000000
# 5 0.000000 0.000000 0.000000 0.000000 -1.024006 0.000000
# 6 0.000000 0.000000 0.000000 0.000000 0.000000 0.099432
#
#
# Mechanical properties :
#
#
# Convention : Reuss Voigt Hill
#
# Bulk Modulus (GPa) = 26.78239 39.05841 32.92040
# Shear Modulus (GPa) = -2.71689 10.68927 3.98619
#
# Velocity S-wave (km/s) = -1.17462 2.32988 1.42279
# Velocity P-wave (km/s) = 3.42948 5.20317 4.40649
#
# Compressibility (1/GPa) = 0.03733797
#
# Stress axis : x y z
#
# Youngs Moduli (GPa) = 37.00873 37.00894 79.55267
#
# Poissons Ratio (x) = -0.00306 0.58549
# Poissons Ratio (y) = -0.00306 0.58548
# Poissons Ratio (z) = 0.27237 0.27237
#
# Static dielectric constant tensor:
#      x y z
#    x 1.478350 0.000000 0.000000 
#    y 0.000000 1.478340 0.000000 
#    z 0.000000 0.000000 1.736240 
# 
# From -- ./inp_files/5000.got.cif
#   From: 2010.05.17/outbox.cif.g08.bks.cpg/sg127_3_cif.got.tgz:5000.got - 2010.05.20 12:03:00.
