data_PCOD9564555
_publ_section_title
;
Structure prediction by ZEFSAII (Michael W. Deem and Ramdas Pophale) SiO2 
 PCOD9564555
Probable space group: P 4/M N C
;
_chemical_formula_sum "Si O2"
_cell_formula_units_Z 96
_cell_length_a 24.691755
_cell_length_b 24.691755
_cell_length_c 8.378364
_cell_angle_alpha 90.000000
_cell_angle_beta 90.000000
_cell_angle_gamma 90.000000
_cell_volume 5108.144130
_symmetry_space_group_name_H-M "P 4/M N C"
_symmetry_group_IT_number 128
_symmetry_cell_setting 'tetragonal'
loop_
_space_group_symop_operation_xyz
x,y,z
-y,x,z
-x,-y,z
y,-x,z
1/2+x,1/2-y,1/2-z
1/2-x,1/2+y,1/2-z
1/2+y,1/2+x,1/2-z
1/2-y,1/2-x,1/2-z
-x,-y,-z
y,-x,-z
x,y,-z
-y,x,-z
1/2-x,1/2+y,1/2+z
1/2+x,1/2-y,1/2+z
1/2-y,1/2-x,1/2+z
1/2+y,1/2+x,1/2+z
loop_
_atom_site_type_symbol
_atom_site_label
_atom_site_fract_x
_atom_site_fract_y
_atom_site_fract_z
Si Si1 0.066848 0.235559 0.689126
Si Si2 0.428482 0.452763 0.305670
Si Si3 0.142033 0.444536 0.308350
Si Si4 0.150961 0.565319 0.308293
Si Si5 0.554431 0.724555 0.306833
Si Si6 0.648031 0.639871 0.307099
O O1 0.064963 0.231299 0.500000
O O2 0.067765 0.298150 0.742827
O O3 0.123053 0.207607 0.748787
O O4 0.007913 0.213278 0.753545
O O5 0.485563 0.427623 0.254879
O O6 0.427821 0.452844 0.500000
O O7 0.381733 0.414766 0.250587
O O8 0.097971 0.402030 0.250000
O O9 0.144796 0.443397 0.500000
O O10 0.128848 0.506374 0.257922
O O11 0.113982 0.613982 0.250000
O O12 0.151627 0.566662 0.500000
O O13 0.213796 0.567436 0.256664
O O14 0.552758 0.720980 0.500000
O O15 0.605381 0.686685 0.255674
O O16 0.650059 0.643062 0.500000
#
# Coordination Sequence:
#
# PCOD9564555 Si02
#       6
#    16  16  16  16  16  16
#     4  11  22  35  53  79 112 147 182 225 278 329
#     4   8  13  21  37  64  92 119 161 218 273 320
#     4  10  21  39  61  85 112 141 177 218 264 322
#     4   9  19  35  56  83 113 142 174 214 261 318
#     4   9  19  36  56  78 105 143 189 232 275 322
#     4  10  18  31  52  73  99 140 189 233 271 320
#
# _framework density 18.793517999999999
#
# number of rings (size 3 to 8) (size 9 to 14) (size 15 to 20)
#    0.000    2.500    0.000    4.500    0.000    7.000 
#    0.000    2.500    0.000    2.000    0.000    3.500 
#    0.000    0.000    0.000    0.000    0.000    0.000 
#
# Total GULP energy -534498.428158 kJ/mol
# GULP energy per Si atom -5567.691960 kJ/mol
# Density = 1.875074 g / cm^3
# Si number density = 18.793518 Si / 1000 Ang^3
#
#
#
# Elastic Constant Matrix: (Units=GPa)
#
#
# Indices 1 2 3 4 5 6 
#
# 1 69.9770 99.8692 20.7787 0.0000 0.0000 0.0000
# 2 99.8692 69.9774 20.7767 0.0000 0.0000 0.0000
# 3 20.7787 20.7767 35.5857 0.0000 0.0000 0.0000
# 4 0.0000 0.0000 0.0000 21.0406 0.0000 0.0000
# 5 0.0000 0.0000 0.0000 0.0000 21.0400 0.0000
# 6 0.0000 0.0000 0.0000 0.0000 0.0000 40.6546
#
#
#
# Elastic Compliance Matrix: (Units=1/GPa)
#
#
# Indices 1 2 3 4 5 6 
#
# 1 -0.013293 0.020161 -0.004009 0.000000 0.000000 0.000000
# 2 0.020161 -0.013292 -0.004012 0.000000 0.000000 0.000000
# 3 -0.004009 -0.004012 0.032785 0.000000 0.000000 0.000000
# 4 0.000000 0.000000 0.000000 0.047527 0.000000 0.000000
# 5 0.000000 0.000000 0.000000 0.000000 0.047529 0.000000
# 6 0.000000 0.000000 0.000000 0.000000 0.000000 0.024597
#
#
# Mechanical properties :
#
#
# Convention : Reuss Voigt Hill
#
# Bulk Modulus (GPa) = 32.80841 50.93214 41.87028
# Shear Modulus (GPa) = 44.74962 18.82140 31.78551
#
# Velocity S-wave (km/s) = 4.88497 3.16806 4.11701
# Velocity P-wave (km/s) = 7.02228 6.36725 6.70277
#
# Compressibility (1/GPa) = 0.03047999
#
# Stress axis : x y z
#
# Youngs Moduli (GPa) = -75.22905 -75.23263 30.50216
#
# Poissons Ratio (x) = 1.51679 0.12230
# Poissons Ratio (y) = 1.51672 0.12237
# Poissons Ratio (z) = -0.30163 -0.30181
#
# Static dielectric constant tensor:
#      x y z
#    x 1.672840 0.000000 0.000000 
#    y 0.000000 1.672840 0.000000 
#    z 0.000000 0.000000 1.667270 
# 
# From -- ./inp_files/1504.got.cif
#   From: 2010.05.17/outbox.cif.g08.bks.cpg/sg128_1_cif.got.tgz:1504.got - 2010.05.20 12:07:25.
