data_PCOD9564584
_publ_section_title
;
Structure prediction by ZEFSAII (Michael W. Deem and Ramdas Pophale) SiO2 
 PCOD9564584
Probable space group: P 4/M N C
;
_chemical_formula_sum "Si O2"
_cell_formula_units_Z 120
_cell_length_a 28.041065
_cell_length_b 28.041065
_cell_length_c 8.535791
_cell_angle_alpha 90.000000
_cell_angle_beta 90.000000
_cell_angle_gamma 90.000000
_cell_volume 6711.703785
_symmetry_space_group_name_H-M "P 4/M N C"
_symmetry_group_IT_number 128
_symmetry_cell_setting 'tetragonal'
loop_
_space_group_symop_operation_xyz
x,y,z
-y,x,z
-x,-y,z
y,-x,z
1/2+x,1/2-y,1/2-z
1/2-x,1/2+y,1/2-z
1/2+y,1/2+x,1/2-z
1/2-y,1/2-x,1/2-z
-x,-y,-z
y,-x,-z
x,y,-z
-y,x,-z
1/2-x,1/2+y,1/2+z
1/2+x,1/2-y,1/2+z
1/2-y,1/2-x,1/2+z
1/2+y,1/2+x,1/2+z
loop_
_atom_site_type_symbol
_atom_site_label
_atom_site_fract_x
_atom_site_fract_y
_atom_site_fract_z
Si Si1 0.756615 0.671632 0.319472
Si Si2 0.825849 0.941602 0.317200
Si Si3 0.762904 0.073490 0.320948
Si Si4 0.960835 0.872867 0.682797
Si Si5 0.792754 0.842668 0.315121
Si Si6 0.540768 0.430408 0.500000
Si Si7 0.520464 0.770040 0.317243
Si Si8 0.192702 0.618599 0.312870
O O1 0.802577 0.697424 0.250000
O O2 0.755137 0.683315 0.500000
O O3 0.754007 0.615521 0.289834
O O4 0.708211 0.691556 0.244603
O O5 0.809202 0.945023 0.500000
O O6 0.831277 0.885310 0.284872
O O7 0.783242 0.958046 0.204592
O O8 0.866696 0.981252 0.306814
O O9 0.757491 0.089295 0.500000
O O10 0.818923 0.059810 0.300715
O O11 0.732000 0.026719 0.285398
O O12 0.949733 0.888541 0.500000
O O13 0.946479 0.903336 0.836156
O O14 0.786789 0.839825 0.500000
O O15 0.742106 0.857704 0.243718
O O16 0.562921 0.483272 0.500000
O O17 0.509563 0.777874 0.500000
O O18 0.563093 0.804579 0.264241
O O19 0.148637 0.648637 0.250000
O O20 0.192456 0.619522 0.500000
#
# Coordination Sequence:
#
# PCOD9564584 Si02
#       8
#    16  16  16  16  16   8  16  16
#     4  12  25  39  54  75 107 144 179 215 259 312
#     4   8  16  30  50  76 101 130 170 220 271 317
#     4  10  21  38  59  81 103 132 175 224 274 320
#     4   9  20  39  62  84 108 138 180 235 289 343
#     4  10  19  33  50  71 105 143 182 220 263 318
#     4  11  26  42  56  80 108 138 180 230 296 361
#     4   9  17  29  49  75 101 131 170 213 258 307
#     4  10  19  30  46  72 105 141 178 213 260 318
#
# _framework density 17.879214999999999
#
# number of rings (size 3 to 8) (size 9 to 14) (size 15 to 20)
#    0.000    2.200    0.000    4.000    4.667    3.733 
#    0.000    3.333    0.000    0.000    0.000    0.000 
#    0.000    0.533    0.000    5.600    0.000    3.067 
#
# Total GULP energy -669311.200242 kJ/mol
# GULP energy per Si atom -5577.593335 kJ/mol
# Density = 1.783852 g / cm^3
# Si number density = 17.879215 Si / 1000 Ang^3
#
#
#
# Elastic Constant Matrix: (Units=GPa)
#
#
# Indices 1 2 3 4 5 6 
#
# 1 47.5198 22.2167 13.1408 0.0000 0.0000 0.0000
# 2 22.2167 47.5282 13.1409 0.0000 0.0000 0.0000
# 3 13.1408 13.1409 45.5270 0.0000 0.0000 0.0000
# 4 0.0000 0.0000 0.0000 25.1228 0.0000 0.0000
# 5 0.0000 0.0000 0.0000 0.0000 25.1226 0.0000
# 6 0.0000 0.0000 0.0000 0.0000 0.0000 16.3402
#
#
#
# Elastic Compliance Matrix: (Units=1/GPa)
#
#
# Indices 1 2 3 4 5 6 
#
# 1 0.027804 -0.011713 -0.004645 0.000000 0.000000 0.000000
# 2 -0.011713 0.027799 -0.004643 0.000000 0.000000 0.000000
# 3 -0.004645 -0.004643 0.024646 0.000000 0.000000 0.000000
# 4 0.000000 0.000000 0.000000 0.039804 0.000000 0.000000
# 5 0.000000 0.000000 0.000000 0.000000 0.039805 0.000000
# 6 0.000000 0.000000 0.000000 0.000000 0.000000 0.061199
#
#
# Mechanical properties :
#
#
# Convention : Reuss Voigt Hill
#
# Bulk Modulus (GPa) = 26.14514 26.39687 26.27100
# Shear Modulus (GPa) = 18.12860 19.45555 18.79207
#
# Velocity S-wave (km/s) = 3.18771 3.30231 3.24552
# Velocity P-wave (km/s) = 5.31071 5.41631 5.36377
#
# Compressibility (1/GPa) = 0.03824803
#
# Stress axis : x y z
#
# Youngs Moduli (GPa) = 35.96572 35.97261 40.57493
#
# Poissons Ratio (x) = 0.42134 0.18845
# Poissons Ratio (y) = 0.42126 0.18840
# Poissons Ratio (z) = 0.16704 0.16703
#
# Static dielectric constant tensor:
#      x y z
#    x 1.636280 0.000000 0.000000 
#    y 0.000000 1.636270 0.000000 
#    z 0.000000 0.000000 1.609950 
# 
# From -- ./inp_files/1771.got.cif
#   From: 2010.05.17/outbox.cif.g08.bks.cpg/sg128_1_cif.got.tgz:1771.got - 2010.05.20 12:07:25.
