data_PCOD9564438
_publ_section_title
;
Structure prediction by ZEFSAII (Michael W. Deem and Ramdas Pophale) SiO2 
 PCOD9564438
Probable space group: P 4/M B M
;
_chemical_formula_sum "Si O2"
_cell_formula_units_Z 84
_cell_length_a 12.672177
_cell_length_b 12.672177
_cell_length_c 27.534561
_cell_angle_alpha 90.000000
_cell_angle_beta 90.000000
_cell_angle_gamma 90.000000
_cell_volume 4421.611869
_symmetry_space_group_name_H-M "P 4/M B M"
_symmetry_group_IT_number 127
_symmetry_cell_setting 'tetragonal'
loop_
_space_group_symop_operation_xyz
x,y,z
-y,x,z
-x,-y,z
y,-x,z
1/2+x,1/2-y,-z
1/2-x,1/2+y,-z
1/2+y,1/2+x,-z
1/2-y,1/2-x,-z
-x,-y,-z
y,-x,-z
x,y,-z
-y,x,-z
1/2-x,1/2+y,z
1/2+x,1/2-y,z
1/2-y,1/2-x,z
1/2+y,1/2+x,z
loop_
_atom_site_type_symbol
_atom_site_label
_atom_site_fract_x
_atom_site_fract_y
_atom_site_fract_z
Si Si1 0.174910 0.977348 0.354425
Si Si2 0.056213 0.832047 0.927859
Si Si3 0.170026 0.042531 0.186693
Si Si4 0.334697 0.165304 0.000000
Si Si5 0.004131 0.675722 0.555409
Si Si6 0.000682 0.668468 0.266826
O O1 0.254225 0.967225 0.309634
O O2 0.113575 0.088043 0.351159
O O3 0.237558 0.977950 0.404873
O O4 0.055915 0.806802 0.870379
O O5 0.100778 0.734899 0.958220
O O6 0.935786 0.870757 0.937992
O O7 0.266967 0.051399 0.222651
O O8 0.074279 0.122759 0.196183
O O9 0.010272 0.716227 0.500000
O O10 0.912579 0.587422 0.556641
O O11 0.112827 0.612827 0.566265
O O12 0.087396 0.587396 0.286838
O O13 0.901739 0.598262 0.249727
#
# Coordination Sequence:
#
# PCOD9564438 Si02
#       6
#    16  16  16   4  16  16
#     4  11  24  39  56  83 117 152 197 246 289 343
#     4   9  20  39  60  85 121 157 196 246 290 343
#     4   9  19  38  62  86 114 152 195 238 286 342
#     4  12  20  30  64  94 112 150 208 238 282 348
#     4   9  19  37  60  85 115 152 194 241 293 351
#     4  11  24  39  58  86 119 151 185 240 299 351
#
# _framework density 18.997596000000001
#
# number of rings (size 3 to 8) (size 9 to 14) (size 15 to 20)
#    0.000    2.095    0.000    4.571    1.333    9.905 
#    5.143    2.857    0.000    4.571    0.000    0.000 
#    0.000    0.000    0.000    0.000    0.000    0.000 
#
# Total GULP energy -467878.285308 kJ/mol
# GULP energy per Si atom -5569.979587 kJ/mol
# Density = 1.895436 g / cm^3
# Si number density = 18.997596 Si / 1000 Ang^3
#
#
#
# Elastic Constant Matrix: (Units=GPa)
#
#
# Indices 1 2 3 4 5 6 
#
# 1 63.2686 11.1697 27.0430 0.0000 0.0000 0.0000
# 2 11.1697 63.2687 27.0431 0.0000 0.0000 0.0000
# 3 27.0430 27.0431 68.2904 0.0000 0.0000 0.0000
# 4 0.0000 0.0000 0.0000 40.9815 0.0000 0.0000
# 5 0.0000 0.0000 0.0000 0.0000 40.9815 0.0000
# 6 0.0000 0.0000 0.0000 0.0000 0.0000 6.8063
#
#
#
# Elastic Compliance Matrix: (Units=1/GPa)
#
#
# Indices 1 2 3 4 5 6 
#
# 1 0.019028 -0.000167 -0.007469 0.000000 0.000000 0.000000
# 2 -0.000167 0.019027 -0.007469 0.000000 0.000000 0.000000
# 3 -0.007469 -0.007469 0.020559 0.000000 0.000000 0.000000
# 4 0.000000 0.000000 0.000000 0.024401 0.000000 0.000000
# 5 0.000000 0.000000 0.000000 0.000000 0.024401 0.000000
# 6 0.000000 0.000000 0.000000 0.000000 0.000000 0.146922
#
#
# Mechanical properties :
#
#
# Convention : Reuss Voigt Hill
#
# Bulk Modulus (GPa) = 35.20544 36.14882 35.67713
# Shear Modulus (GPa) = 17.00589 26.39199 21.69894
#
# Velocity S-wave (km/s) = 2.99517 3.73128 3.38330
# Velocity P-wave (km/s) = 5.52568 6.13455 5.83806
#
# Compressibility (1/GPa) = 0.02840470
#
# Stress axis : x y z
#
# Youngs Moduli (GPa) = 52.55545 52.55557 48.64114
#
# Poissons Ratio (x) = 0.00876 0.36329
# Poissons Ratio (y) = 0.00876 0.36329
# Poissons Ratio (z) = 0.39253 0.39253
#
# Static dielectric constant tensor:
#      x y z
#    x 1.826710 0.000000 0.000000 
#    y 0.000000 1.826710 0.000000 
#    z 0.000000 0.000000 1.649690 
# 
# From -- ./inp_files/6489.got.cif
#   From: 2010.05.17/outbox.cif.g08.bks.cpg/sg127_4_cif.got.tgz:6489.got - 2010.05.20 12:03:00.
