data_PCOD9564331
_publ_section_title
;
Structure prediction by ZEFSAII (Michael W. Deem and Ramdas Pophale) SiO2 
 PCOD9564331
Probable space group: P 4/M B M
;
_chemical_formula_sum "Si O2"
_cell_formula_units_Z 72
_cell_length_a 15.326671
_cell_length_b 15.326671
_cell_length_c 18.021158
_cell_angle_alpha 90.000000
_cell_angle_beta 90.000000
_cell_angle_gamma 90.000000
_cell_volume 4233.293350
_symmetry_space_group_name_H-M "P 4/M B M"
_symmetry_group_IT_number 127
_symmetry_cell_setting 'tetragonal'
loop_
_space_group_symop_operation_xyz
x,y,z
-y,x,z
-x,-y,z
y,-x,z
1/2+x,1/2-y,-z
1/2-x,1/2+y,-z
1/2+y,1/2+x,-z
1/2-y,1/2-x,-z
-x,-y,-z
y,-x,-z
x,y,-z
-y,x,-z
1/2-x,1/2+y,z
1/2+x,1/2-y,z
1/2-y,1/2-x,z
1/2+y,1/2+x,z
loop_
_atom_site_type_symbol
_atom_site_label
_atom_site_fract_x
_atom_site_fract_y
_atom_site_fract_z
Si Si1 0.454831 0.640429 0.500000
Si Si2 0.099709 0.107893 0.083788
Si Si3 0.641097 0.545340 0.663300
Si Si4 0.144780 0.504648 0.083305
Si Si5 0.748092 0.605817 0.196658
O O1 0.395219 0.553783 0.500000
O O2 0.441556 0.681705 0.580876
O O3 0.141483 0.169465 0.145036
O O4 0.994750 0.116648 0.092200
O O5 0.123753 0.133839 0.000000
O O6 0.553892 0.605254 0.669504
O O7 0.706652 0.569190 0.728414
O O8 0.068439 0.431562 0.080127
O O9 0.207223 0.470418 0.147424
O O10 0.096070 0.596070 0.097201
O O11 0.184508 0.507191 0.000000
O O12 0.819968 0.680033 0.209929
#
# Coordination Sequence:
#
# PCOD9564331 Si02
#       5
#     8  16  16  16  16
#     4   7  12  26  51  76  88 105 145 187 218 261
#     4   9  18  33  50  64  82 115 157 196 236 279
#     4   9  17  32  53  72  91 116 147 183 225 274
#     4   8  15  29  46  61  82 119 163 197 222 251
#     4  11  20  28  43  70  99 123 150 187 230 272
#
# _framework density 17.008033999999999
#
# number of rings (size 3 to 8) (size 9 to 14) (size 15 to 20)
#    0.000    3.000    0.000    4.667    0.000    3.111 
#    0.000    5.000    0.000    1.333    0.000    2.333 
#    0.000    3.556    0.000    0.000    0.000    0.000 
#
# Total GULP energy -401114.170345 kJ/mol
# GULP energy per Si atom -5571.030144 kJ/mol
# Density = 1.696932 g / cm^3
# Si number density = 17.008034 Si / 1000 Ang^3
#
#
#
# Elastic Constant Matrix: (Units=GPa)
#
#
# Indices 1 2 3 4 5 6 
#
# 1 54.7133 18.8469 55.4476 0.0000 0.0000 0.0000
# 2 18.8469 54.7133 55.4476 0.0000 0.0000 0.0000
# 3 55.4476 55.4476 174.1799 0.0000 0.0000 0.0000
# 4 0.0000 0.0000 0.0000 23.8655 0.0000 0.0000
# 5 0.0000 0.0000 0.0000 0.0000 23.8655 0.0000
# 6 0.0000 0.0000 0.0000 0.0000 0.0000 13.1256
#
#
#
# Elastic Compliance Matrix: (Units=1/GPa)
#
#
# Indices 1 2 3 4 5 6 
#
# 1 0.027010 -0.000872 -0.008321 0.000000 0.000000 0.000000
# 2 -0.000872 0.027010 -0.008321 0.000000 0.000000 0.000000
# 3 -0.008321 -0.008321 0.011039 0.000000 0.000000 0.000000
# 4 0.000000 0.000000 0.000000 0.041901 0.000000 0.000000
# 5 0.000000 0.000000 0.000000 0.000000 0.041901 0.000000
# 6 0.000000 0.000000 0.000000 0.000000 0.000000 0.076187
#
#
# Mechanical properties :
#
#
# Convention : Reuss Voigt Hill
#
# Bulk Modulus (GPa) = 33.29758 60.34343 46.82051
# Shear Modulus (GPa) = 18.51273 22.42896 20.47085
#
# Velocity S-wave (km/s) = 3.30278 3.63537 3.47306
# Velocity P-wave (km/s) = 5.84504 7.29230 6.60841
#
# Compressibility (1/GPa) = 0.03003221
#
# Stress axis : x y z
#
# Youngs Moduli (GPa) = 37.02376 37.02376 90.59014
#
# Poissons Ratio (x) = 0.03227 0.75377
# Poissons Ratio (y) = 0.03227 0.75377
# Poissons Ratio (z) = 0.30806 0.30806
#
# Static dielectric constant tensor:
#      x y z
#    x 1.591950 0.000000 0.000000 
#    y 0.000000 1.591950 0.000000 
#    z 0.000000 0.000000 1.596840 
# 
# From -- ./inp_files/4969.got.cif
#   From: 2010.05.17/outbox.cif.g08.bks.cpg/sg127_3_cif.got.tgz:4969.got - 2010.05.20 12:03:00.
