data_PCOD9564029
_publ_section_title
;
Structure prediction by ZEFSAII (Michael W. Deem and Ramdas Pophale) SiO2 
 PCOD9564029
Probable space group: P 4/M B M
;
_chemical_formula_sum "Si O2"
_cell_formula_units_Z 96
_cell_length_a 24.514572
_cell_length_b 24.514572
_cell_length_c 8.689546
_cell_angle_alpha 90.000000
_cell_angle_beta 90.000000
_cell_angle_gamma 90.000000
_cell_volume 5222.106411
_symmetry_space_group_name_H-M "P 4/M B M"
_symmetry_group_IT_number 127
_symmetry_cell_setting 'tetragonal'
loop_
_space_group_symop_operation_xyz
x,y,z
-y,x,z
-x,-y,z
y,-x,z
1/2+x,1/2-y,-z
1/2-x,1/2+y,-z
1/2+y,1/2+x,-z
1/2-y,1/2-x,-z
-x,-y,-z
y,-x,-z
x,y,-z
-y,x,-z
1/2-x,1/2+y,z
1/2+x,1/2-y,z
1/2-y,1/2-x,z
1/2+y,1/2+x,z
loop_
_atom_site_type_symbol
_atom_site_label
_atom_site_fract_x
_atom_site_fract_y
_atom_site_fract_z
Si Si1 0.563857 0.848461 0.685572
Si Si2 0.553154 0.141715 0.814239
Si Si3 0.777387 0.945717 0.316237
Si Si4 0.564083 0.267488 0.813825
Si Si5 0.639063 0.359896 0.176620
Si Si6 0.926370 0.053843 0.671581
O O1 0.562078 0.849548 0.500000
O O2 0.614252 0.885749 0.736863
O O3 0.506694 0.870571 0.749412
O O4 0.567738 0.784939 0.731777
O O5 0.598476 0.098476 0.763219
O O6 0.567090 0.203974 0.768276
O O7 0.550931 0.140637 0.000000
O O8 0.780228 0.949821 0.500000
O O9 0.816830 0.897150 0.262367
O O10 0.789755 0.006068 0.249172
O O11 0.617518 0.301457 0.763117
O O12 0.562232 0.270806 0.000000
O O13 0.583145 0.393909 0.195384
O O14 0.655988 0.354527 0.000000
O O15 0.905410 0.069336 0.500000
O O16 0.988930 0.072945 0.679922
#
# Coordination Sequence:
#
# PCOD9564029 Si02
#       6
#    16  16  16  16  16  16
#     4   9  19  36  56  78 105 135 165 200 246 299
#     4   9  18  34  56  80 106 135 166 202 245 295
#     4  10  20  34  53  74  98 132 171 210 252 297
#     4   9  19  35  52  72 101 135 170 209 252 298
#     4  11  21  31  46  69  96 129 169 209 250 295
#     4   9  18  31  45  63  89 121 159 206 257 303
#
# _framework density 18.383386000000002
#
# number of rings (size 3 to 8) (size 9 to 14) (size 15 to 20)
#    0.000    2.500    0.000    2.500    0.000    6.333 
#    0.000    3.333    0.000    1.000    0.000    0.000 
#    0.000    0.000    0.000    0.000    0.000    0.000 
#
# Total GULP energy -535160.213882 kJ/mol
# GULP energy per Si atom -5574.585561 kJ/mol
# Density = 1.834154 g / cm^3
# Si number density = 18.383386 Si / 1000 Ang^3
#
#
#
# Elastic Constant Matrix: (Units=GPa)
#
#
# Indices 1 2 3 4 5 6 
#
# 1 83.0676 58.5852 17.1277 0.0000 0.0000 0.0000
# 2 58.5852 83.0676 17.1277 0.0000 0.0000 0.0000
# 3 17.1277 17.1277 12.8145 0.0000 0.0000 0.0000
# 4 0.0000 0.0000 0.0000 23.4921 0.0000 0.0000
# 5 0.0000 0.0000 0.0000 0.0000 23.4921 0.0000
# 6 0.0000 0.0000 0.0000 0.0000 0.0000 37.8038
#
#
#
# Elastic Compliance Matrix: (Units=1/GPa)
#
#
# Indices 1 2 3 4 5 6 
#
# 1 0.025638 -0.015207 -0.013942 0.000000 0.000000 0.000000
# 2 -0.015207 0.025638 -0.013942 0.000000 0.000000 0.000000
# 3 -0.013942 -0.013942 0.115307 0.000000 0.000000 0.000000
# 4 0.000000 0.000000 0.000000 0.042568 0.000000 0.000000
# 5 0.000000 0.000000 0.000000 0.000000 0.042568 0.000000
# 6 0.000000 0.000000 0.000000 0.000000 0.000000 0.026452
#
#
# Mechanical properties :
#
#
# Convention : Reuss Voigt Hill
#
# Bulk Modulus (GPa) = 12.43775 40.51453 26.47614
# Shear Modulus (GPa) = 12.78269 22.69820 17.74044
#
# Velocity S-wave (km/s) = 2.63979 3.51766 3.10986
# Velocity P-wave (km/s) = 4.00896 6.21169 5.22766
#
# Compressibility (1/GPa) = 0.08040037
#
# Stress axis : x y z
#
# Youngs Moduli (GPa) = 39.00396 39.00396 8.67254
#
# Poissons Ratio (x) = 0.59315 0.12091
# Poissons Ratio (y) = 0.59315 0.12091
# Poissons Ratio (z) = 0.54380 0.54380
#
# Static dielectric constant tensor:
#      x y z
#    x 1.643810 0.000000 0.000000 
#    y 0.000000 1.643810 0.000000 
#    z 0.000000 0.000000 1.645880 
# 
# From -- ./inp_files/2013.got.cif
#   From: 2010.05.17/outbox.cif.g08.bks.cpg/sg127_2_cif.got.tgz:2013.got - 2010.05.20 12:03:00.
