data_PCOD9564754
_publ_section_title
;
Structure prediction by ZEFSAII (Michael W. Deem and Ramdas Pophale) SiO2 
 PCOD9564754
Probable space group: P 4/M N C
;
_chemical_formula_sum "Si O2"
_cell_formula_units_Z 96
_cell_length_a 14.592257
_cell_length_b 14.592257
_cell_length_c 23.141692
_cell_angle_alpha 90.000000
_cell_angle_beta 90.000000
_cell_angle_gamma 90.000000
_cell_volume 4927.652219
_symmetry_space_group_name_H-M "P 4/M N C"
_symmetry_group_IT_number 128
_symmetry_cell_setting 'tetragonal'
loop_
_space_group_symop_operation_xyz
x,y,z
-y,x,z
-x,-y,z
y,-x,z
1/2+x,1/2-y,1/2-z
1/2-x,1/2+y,1/2-z
1/2+y,1/2+x,1/2-z
1/2-y,1/2-x,1/2-z
-x,-y,-z
y,-x,-z
x,y,-z
-y,x,-z
1/2-x,1/2+y,1/2+z
1/2+x,1/2-y,1/2+z
1/2-y,1/2-x,1/2+z
1/2+y,1/2+x,1/2+z
loop_
_atom_site_type_symbol
_atom_site_label
_atom_site_fract_x
_atom_site_fract_y
_atom_site_fract_z
Si Si1 0.314413 0.340872 0.242725
Si Si2 0.832434 0.350305 0.379650
Si Si3 0.773826 0.396541 0.000000
Si Si4 0.742094 0.613238 0.000000
Si Si5 0.733696 0.986317 0.791312
Si Si6 0.773052 0.665083 0.131084
Si Si7 0.892722 0.515286 0.814845
O O1 0.230380 0.269621 0.250000
O O2 0.295668 0.424262 0.285917
O O3 0.405623 0.288508 0.258820
O O4 0.305895 0.373568 0.175660
O O5 0.861622 0.331950 0.445159
O O6 0.791965 0.444594 0.353548
O O7 0.756107 0.272064 0.367234
O O8 0.929269 0.341963 0.345927
O O9 0.753936 0.504220 0.000000
O O10 0.672136 0.351918 0.000000
O O11 0.779248 0.642050 0.063260
O O12 0.645535 0.006934 0.750532
O O13 0.859540 0.611716 0.158302
O O14 0.000000 0.500000 0.824878
#
# Coordination Sequence:
#
# PCOD9564754 Si02
#       7
#    16  16   8   8  16  16  16
#     4  11  22  41  62  92 129 170 211 270 332 393
#     4  11  21  40  60  88 126 172 208 272 325 394
#     4  10  22  39  62  84 128 172 226 269 335 390
#     4  10  20  37  60  84 120 175 211 266 326 392
#     4  11  24  39  64  90 132 166 215 270 335 393
#     4  10  21  39  57  85 128 167 207 261 333 384
#     4  11  23  37  64  94 123 164 219 270 327 401
#
# _framework density 19.481895999999999
#
# number of rings (size 3 to 8) (size 9 to 14) (size 15 to 20)
#    0.000    1.333    5.000    0.500    4.667    1.167 
#    0.000    1.667    0.000    3.500    0.000    0.000 
#    0.000    1.333    0.000    0.000    0.000    0.000 
#
# Total GULP energy -534466.064833 kJ/mol
# GULP energy per Si atom -5567.354842 kJ/mol
# Density = 1.943755 g / cm^3
# Si number density = 19.481896 Si / 1000 Ang^3
#
#
#
# Elastic Constant Matrix: (Units=GPa)
#
#
# Indices 1 2 3 4 5 6 
#
# 1 118.8362 64.4329 46.1673 0.0000 0.0000 0.0000
# 2 64.4329 118.8362 46.1671 0.0000 0.0000 0.0000
# 3 46.1673 46.1671 145.2510 0.0000 0.0000 0.0000
# 4 0.0000 0.0000 0.0000 28.7393 0.0000 0.0000
# 5 0.0000 0.0000 0.0000 0.0000 28.7396 0.0000
# 6 0.0000 0.0000 0.0000 0.0000 0.0000 31.2514
#
#
#
# Elastic Compliance Matrix: (Units=1/GPa)
#
#
# Indices 1 2 3 4 5 6 
#
# 1 0.012439 -0.005942 -0.002065 0.000000 0.000000 0.000000
# 2 -0.005942 0.012439 -0.002065 0.000000 0.000000 0.000000
# 3 -0.002065 -0.002065 0.008197 0.000000 0.000000 0.000000
# 4 0.000000 0.000000 0.000000 0.034796 0.000000 0.000000
# 5 0.000000 0.000000 0.000000 0.000000 0.034795 0.000000
# 6 0.000000 0.000000 0.000000 0.000000 0.000000 0.031999
#
#
# Mechanical properties :
#
#
# Convention : Reuss Voigt Hill
#
# Bulk Modulus (GPa) = 77.33319 77.38424 77.35872
# Shear Modulus (GPa) = 31.42293 32.82312 32.12302
#
# Velocity S-wave (km/s) = 4.02049 4.10909 4.06503
# Velocity P-wave (km/s) = 7.83157 7.89431 7.86300
#
# Compressibility (1/GPa) = 0.01293106
#
# Stress axis : x y z
#
# Youngs Moduli (GPa) = 80.39197 80.39209 121.99105
#
# Poissons Ratio (x) = 0.47771 0.25191
# Poissons Ratio (y) = 0.47771 0.25191
# Poissons Ratio (z) = 0.16601 0.16601
#
# Static dielectric constant tensor:
#      x y z
#    x 1.708550 0.000000 0.000000 
#    y 0.000000 1.708550 0.000000 
#    z 0.000000 0.000000 1.754410 
# 
# From -- ./inp_files/6394.got.cif
#   From: 2010.05.17/outbox.cif.g08.bks.cpg/sg128_4_cif.got.tgz:6394.got - 2010.05.20 12:07:25.
