data_PCOD9564297
_publ_section_title
;
Structure prediction by ZEFSAII (Michael W. Deem and Ramdas Pophale) SiO2 
 PCOD9564297
Probable space group: P 4/M B M
;
_chemical_formula_sum "Si O2"
_cell_formula_units_Z 44
_cell_length_a 12.055891
_cell_length_b 12.055891
_cell_length_c 16.341966
_cell_angle_alpha 90.000000
_cell_angle_beta 90.000000
_cell_angle_gamma 90.000000
_cell_volume 2375.215005
_symmetry_space_group_name_H-M "P 4/M B M"
_symmetry_group_IT_number 127
_symmetry_cell_setting 'tetragonal'
loop_
_space_group_symop_operation_xyz
x,y,z
-y,x,z
-x,-y,z
y,-x,z
1/2+x,1/2-y,-z
1/2-x,1/2+y,-z
1/2+y,1/2+x,-z
1/2-y,1/2-x,-z
-x,-y,-z
y,-x,-z
x,y,-z
-y,x,-z
1/2-x,1/2+y,z
1/2+x,1/2-y,z
1/2-y,1/2-x,z
1/2+y,1/2+x,z
loop_
_atom_site_type_symbol
_atom_site_label
_atom_site_fract_x
_atom_site_fract_y
_atom_site_fract_z
Si Si1 0.000000 0.500000 0.696576
Si Si2 0.682550 0.182550 0.361046
Si Si3 0.675420 0.824580 0.227081
Si Si4 0.072146 0.828398 0.090881
Si Si5 0.337432 0.412819 0.500000
O O1 0.089166 0.410835 0.658777
O O2 0.087415 0.587415 0.736735
O O3 0.749565 0.249565 0.289511
O O4 0.623608 0.272358 0.419198
O O5 0.755402 0.892407 0.166668
O O6 0.943252 0.860380 0.095089
O O7 0.092016 0.779639 0.000000
O O8 0.456341 0.354913 0.500000
#
# Coordination Sequence:
#
# PCOD9564297 Si02
#       5
#     4   8   8  16   8
#     4  12  26  39  59  94 124 156 206 246 299 373
#     4  11  24  41  62  88 124 159 193 249 309 362
#     4  12  22  38  59  88 123 159 198 251 309 363
#     4   9  19  36  57  81 113 157 205 251 302 359
#     4  10  22  41  64  88 114 153 202 244 296 366
#
# _framework density 18.524636999999998
#
# number of rings (size 3 to 8) (size 9 to 14) (size 15 to 20)
#    0.000    1.636    0.000    6.000    0.000    2.909 
#    0.000    7.273    0.000    0.000    0.000    0.000 
#    0.000    0.000    0.000    0.000    0.000    0.000 
#
# Total GULP energy -245136.998258 kJ/mol
# GULP energy per Si atom -5571.295415 kJ/mol
# Density = 1.848247 g / cm^3
# Si number density = 18.524637 Si / 1000 Ang^3
#
#
#
# Elastic Constant Matrix: (Units=GPa)
#
#
# Indices 1 2 3 4 5 6 
#
# 1 241.6394 -33.4391 80.5188 0.0000 0.0000 0.0000
# 2 -33.4391 241.6394 80.5188 0.0000 0.0000 0.0000
# 3 80.5188 80.5188 135.1739 0.0000 0.0000 0.0000
# 4 0.0000 0.0000 0.0000 -447.7371 0.0000 0.0000
# 5 0.0000 0.0000 0.0000 0.0000 -447.7371 0.0000
# 6 0.0000 0.0000 0.0000 0.0000 0.0000 77.4358
#
#
#
# Elastic Compliance Matrix: (Units=1/GPa)
#
#
# Indices 1 2 3 4 5 6 
#
# 1 0.006271 0.002636 -0.005305 0.000000 0.000000 0.000000
# 2 0.002636 0.006271 -0.005305 0.000000 0.000000 0.000000
# 3 -0.005305 -0.005305 0.013718 0.000000 0.000000 0.000000
# 4 0.000000 0.000000 0.000000 -0.002233 0.000000 0.000000
# 5 0.000000 0.000000 0.000000 0.000000 -0.002233 0.000000
# 6 0.000000 0.000000 0.000000 0.000000 0.000000 0.012914
#
#
# Mechanical properties :
#
#
# Convention : Reuss Voigt Hill
#
# Bulk Modulus (GPa) = 96.99245 97.07218 97.03232
# Shear Modulus (GPa) = 92.43088 -130.88408 -19.22660
#
# Velocity S-wave (km/s) = 7.07139 -8.41472 -3.22513
# Velocity P-wave (km/s) = 10.91535 6.47260 6.21492
#
# Compressibility (1/GPa) = 0.01031008
#
# Stress axis : x y z
#
# Youngs Moduli (GPa) = 159.46418 159.46418 72.89471
#
# Poissons Ratio (x) = -0.42030 0.38674
# Poissons Ratio (y) = -0.42030 0.38674
# Poissons Ratio (z) = 0.84602 0.84602
#
# Static dielectric constant tensor:
#      x y z
#    x 1.640500 0.000000 0.000000 
#    y 0.000000 1.640500 0.000000 
#    z 0.000000 0.000000 1.636310 
# 
# From -- ./inp_files/4814.got.cif
#   From: 2010.05.17/outbox.cif.g08.bks.cpg/sg127_3_cif.got.tgz:4814.got - 2010.05.20 12:03:00.
