data_PCOD9564781
_publ_section_title
;
Structure prediction by ZEFSAII (Michael W. Deem and Ramdas Pophale) SiO2 
 PCOD9564781
Probable space group: P 4/M N C
;
_chemical_formula_sum "Si O2"
_cell_formula_units_Z 40
_cell_length_a 17.866053
_cell_length_b 17.866053
_cell_length_c 5.476270
_cell_angle_alpha 90.000000
_cell_angle_beta 90.000000
_cell_angle_gamma 90.000000
_cell_volume 1748.002656
_symmetry_space_group_name_H-M "P 4/M N C"
_symmetry_group_IT_number 128
_symmetry_cell_setting 'tetragonal'
loop_
_space_group_symop_operation_xyz
x,y,z
-y,x,z
-x,-y,z
y,-x,z
1/2+x,1/2-y,1/2-z
1/2-x,1/2+y,1/2-z
1/2+y,1/2+x,1/2-z
1/2-y,1/2-x,1/2-z
-x,-y,-z
y,-x,-z
x,y,-z
-y,x,-z
1/2-x,1/2+y,1/2+z
1/2+x,1/2-y,1/2+z
1/2-y,1/2-x,1/2+z
1/2+y,1/2+x,1/2+z
loop_
_atom_site_type_symbol
_atom_site_label
_atom_site_fract_x
_atom_site_fract_y
_atom_site_fract_z
Si Si1 0.640880 0.075316 0.000000
Si Si2 0.187272 0.923517 0.000000
Si Si3 0.926187 0.896846 0.500000
Si Si4 0.931367 0.271898 0.000000
Si Si5 0.716718 0.783283 0.750000
O O1 0.601331 0.101331 0.750000
O O2 0.656340 0.985655 0.000000
O O3 0.727064 0.103577 0.000000
O O4 0.145352 0.903261 0.250121
O O5 0.201716 0.013331 0.000000
O O6 0.017280 0.899697 0.500000
O O7 0.872323 0.272266 0.780512
O O8 0.752726 0.758672 0.500000
#
# Coordination Sequence:
#
# PCOD9564781 Si02
#       5
#     8   8   8   8   8
#     4  10  21  33  53  84 115 160 205 239 275 327
#     4  10  22  36  63  86 116 161 183 228 302 361
#     4  11  23  41  65  97 119 133 179 248 316 371
#     4   8  20  29  55  74 114 152 205 222 297 318
#     4   8  16  28  47  72 110 152 196 244 270 322
#
# _framework density 22.883261000000001
#
# number of rings (size 3 to 8) (size 9 to 14) (size 15 to 20)
#    2.400    0.200    0.000    2.400    5.600    1.600 
#    0.000    3.000    0.000    0.000   52.000    0.000 
#    0.000    0.000    0.000    0.000    0.000    0.000 
#
# Total GULP energy -222868.461987 kJ/mol
# GULP energy per Si atom -5571.711550 kJ/mol
# Density = 2.283118 g / cm^3
# Si number density = 22.883261 Si / 1000 Ang^3
#
#
#
# Elastic Constant Matrix: (Units=GPa)
#
#
# Indices 1 2 3 4 5 6 
#
# 1 77.9960 24.3316 22.4079 0.0000 0.0000 0.0000
# 2 24.3316 78.0020 22.4088 0.0000 0.0000 0.0000
# 3 22.4079 22.4088 205.0840 0.0000 0.0000 0.0000
# 4 0.0000 0.0000 0.0000 78.3906 0.0000 0.0000
# 5 0.0000 0.0000 0.0000 0.0000 78.3965 0.0000
# 6 0.0000 0.0000 0.0000 0.0000 0.0000 32.3337
#
#
#
# Elastic Compliance Matrix: (Units=1/GPa)
#
#
# Indices 1 2 3 4 5 6 
#
# 1 0.014449 -0.004185 -0.001121 0.000000 0.000000 0.000000
# 2 -0.004185 0.014448 -0.001121 0.000000 0.000000 0.000000
# 3 -0.001121 -0.001121 0.005121 0.000000 0.000000 0.000000
# 4 0.000000 0.000000 0.000000 0.012757 0.000000 0.000000
# 5 0.000000 0.000000 0.000000 0.000000 0.012756 0.000000
# 6 0.000000 0.000000 0.000000 0.000000 0.000000 0.030928
#
#
# Mechanical properties :
#
#
# Convention : Reuss Voigt Hill
#
# Bulk Modulus (GPa) = 47.25408 55.48652 51.37030
# Shear Modulus (GPa) = 45.30331 57.28641 51.29486
#
# Velocity S-wave (km/s) = 4.45427 5.00885 4.73968
# Velocity P-wave (km/s) = 6.86651 7.59945 7.24226
#
# Compressibility (1/GPa) = 0.02116219
#
# Stress axis : x y z
#
# Youngs Moduli (GPa) = 69.20952 69.21482 195.27004
#
# Poissons Ratio (x) = 0.28966 0.21898
# Poissons Ratio (y) = 0.28964 0.21898
# Poissons Ratio (z) = 0.07761 0.07762
#
# Static dielectric constant tensor:
#      x y z
#    x 1.853760 0.000000 0.000000 
#    y 0.000000 1.853750 0.000000 
#    z 0.000000 0.000000 1.847620 
# 
# From -- ./inp_files/177.got.cif
#   From: 2010.05.17/outbox.cif.g08.bks.cpg/sg128_1_cif.got.tgz:177.got - 2010.05.20 12:07:25.
