data_PCOD9564615
_publ_section_title
;
Structure prediction by ZEFSAII (Michael W. Deem and Ramdas Pophale) SiO2 
 PCOD9564615
Probable space group: P 4/M N C
;
_chemical_formula_sum "Si O2"
_cell_formula_units_Z 96
_cell_length_a 16.668238
_cell_length_b 16.668238
_cell_length_c 19.461432
_cell_angle_alpha 90.000000
_cell_angle_beta 90.000000
_cell_angle_gamma 90.000000
_cell_volume 5406.972728
_symmetry_space_group_name_H-M "P 4/M N C"
_symmetry_group_IT_number 128
_symmetry_cell_setting 'tetragonal'
loop_
_space_group_symop_operation_xyz
x,y,z
-y,x,z
-x,-y,z
y,-x,z
1/2+x,1/2-y,1/2-z
1/2-x,1/2+y,1/2-z
1/2+y,1/2+x,1/2-z
1/2-y,1/2-x,1/2-z
-x,-y,-z
y,-x,-z
x,y,-z
-y,x,-z
1/2-x,1/2+y,1/2+z
1/2+x,1/2-y,1/2+z
1/2-y,1/2-x,1/2+z
1/2+y,1/2+x,1/2+z
loop_
_atom_site_type_symbol
_atom_site_label
_atom_site_fract_x
_atom_site_fract_y
_atom_site_fract_z
Si Si1 0.814409 0.491488 0.422860
Si Si2 0.617710 0.759672 0.213862
Si Si3 0.375258 0.993480 0.226315
Si Si4 0.200798 0.700771 0.577787
Si Si5 0.824250 0.122317 0.078677
Si Si6 0.083214 0.897906 0.214033
O O1 0.847262 0.507603 0.500000
O O2 0.867519 0.507896 0.355892
O O3 0.797323 0.396500 0.419212
O O4 0.736004 0.547358 0.415450
O O5 0.684218 0.815783 0.250000
O O6 0.531958 0.795757 0.239206
O O7 0.638294 0.768003 0.133765
O O8 0.625526 0.669972 0.241313
O O9 0.407083 0.907083 0.250000
O O10 0.442253 0.057748 0.250000
O O11 0.180222 0.724335 0.500000
O O12 0.293838 0.722891 0.591710
O O13 0.893810 0.116335 0.134574
O O14 0.854175 0.126005 0.000000
O O15 0.988809 0.891681 0.227826
#
# Coordination Sequence:
#
# PCOD9564615 Si02
#       6
#    16  16  16  16  16  16
#     4  10  19  34  54  80 117 153 185 230 285 341
#     4  11  19  38  58  80 113 147 188 234 284 333
#     4  10  19  34  54  80 109 147 189 230 281 342
#     4  10  19  34  56  79 109 150 189 229 281 343
#     4  10  19  32  53  82 117 152 185 221 273 341
#     4  11  23  37  55  83 116 150 190 231 276 332
#
# _framework density 17.754853000000001
#
# number of rings (size 3 to 8) (size 9 to 14) (size 15 to 20)
#    0.000    1.667    5.000    2.000    0.000    2.000 
#    6.000    3.333    0.000    1.000    0.000    1.167 
#    0.000    0.000    0.000    0.000    0.000    0.000 
#
# Total GULP energy -535091.658270 kJ/mol
# GULP energy per Si atom -5573.871440 kJ/mol
# Density = 1.771444 g / cm^3
# Si number density = 17.754853 Si / 1000 Ang^3
#
#
#
# Elastic Constant Matrix: (Units=GPa)
#
#
# Indices 1 2 3 4 5 6 
#
# 1 53.7413 37.1304 52.2815 0.0000 0.0000 0.0000
# 2 37.1304 53.7392 52.2822 0.0000 0.0000 0.0000
# 3 52.2815 52.2822 134.8036 0.0000 0.0000 0.0000
# 4 0.0000 0.0000 0.0000 32.3708 0.0000 0.0000
# 5 0.0000 0.0000 0.0000 0.0000 32.3711 0.0000
# 6 0.0000 0.0000 0.0000 0.0000 0.0000 12.7500
#
#
#
# Elastic Compliance Matrix: (Units=1/GPa)
#
#
# Indices 1 2 3 4 5 6 
#
# 1 0.040038 -0.020166 -0.007707 0.000000 0.000000 0.000000
# 2 -0.020166 0.040041 -0.007709 0.000000 0.000000 0.000000
# 3 -0.007707 -0.007709 0.013397 0.000000 0.000000 0.000000
# 4 0.000000 0.000000 0.000000 0.030892 0.000000 0.000000
# 5 0.000000 0.000000 0.000000 0.000000 0.030892 0.000000
# 6 0.000000 0.000000 0.000000 0.000000 0.000000 0.078432
#
#
# Mechanical properties :
#
#
# Convention : Reuss Voigt Hill
#
# Bulk Modulus (GPa) = 44.81591 58.40803 51.61197
# Shear Modulus (GPa) = 16.01065 22.20437 19.10751
#
# Velocity S-wave (km/s) = 3.00619 3.54023 3.28409
# Velocity P-wave (km/s) = 6.11113 7.04836 6.59641
#
# Compressibility (1/GPa) = 0.02231351
#
# Stress axis : x y z
#
# Youngs Moduli (GPa) = 24.97629 24.97428 74.64354
#
# Poissons Ratio (x) = 0.50362 0.57528
# Poissons Ratio (y) = 0.50366 0.57540
# Poissons Ratio (z) = 0.19249 0.19252
#
# Static dielectric constant tensor:
#      x y z
#    x 1.631900 0.000000 0.000000 
#    y 0.000000 1.631890 0.000000 
#    z 0.000000 0.000000 1.621910 
# 
# From -- ./inp_files/4798.got.cif
#   From: 2010.05.17/outbox.cif.g08.bks.cpg/sg128_3_cif.got.tgz:4798.got - 2010.05.20 12:07:25.
