data_PCOD9564664
_publ_section_title
;
Structure prediction by ZEFSAII (Michael W. Deem and Ramdas Pophale) SiO2 
 PCOD9564664
Probable space group: P 4/M N C
;
_chemical_formula_sum "Si O2"
_cell_formula_units_Z 88
_cell_length_a 12.501762
_cell_length_b 12.501762
_cell_length_c 29.554222
_cell_angle_alpha 90.000000
_cell_angle_beta 90.000000
_cell_angle_gamma 90.000000
_cell_volume 4619.149143
_symmetry_space_group_name_H-M "P 4/M N C"
_symmetry_group_IT_number 128
_symmetry_cell_setting 'tetragonal'
loop_
_space_group_symop_operation_xyz
x,y,z
-y,x,z
-x,-y,z
y,-x,z
1/2+x,1/2-y,1/2-z
1/2-x,1/2+y,1/2-z
1/2+y,1/2+x,1/2-z
1/2-y,1/2-x,1/2-z
-x,-y,-z
y,-x,-z
x,y,-z
-y,x,-z
1/2-x,1/2+y,1/2+z
1/2+x,1/2-y,1/2+z
1/2-y,1/2-x,1/2+z
1/2+y,1/2+x,1/2+z
loop_
_atom_site_type_symbol
_atom_site_label
_atom_site_fract_x
_atom_site_fract_y
_atom_site_fract_z
Si Si1 0.410361 0.344566 0.235332
Si Si2 0.000000 0.500000 0.664606
Si Si3 0.661387 0.768958 0.096345
Si Si4 0.672121 0.099090 0.000000
Si Si5 0.313525 0.141175 0.186986
Si Si6 0.320658 0.924730 0.594954
Si Si7 0.774562 0.350416 0.500000
O O1 0.538118 0.358783 0.230039
O O2 0.358030 0.257709 0.201732
O O3 0.386961 0.290578 0.284239
O O4 0.910166 0.441625 0.694240
O O5 0.940800 0.584950 0.631503
O O6 0.699943 0.855531 0.133121
O O7 0.737373 0.668986 0.104264
O O8 0.534765 0.754951 0.100096
O O9 0.672961 0.809777 0.045757
O O10 0.603663 0.130299 0.954872
O O11 0.784799 0.163296 0.000000
O O12 0.708969 0.976806 0.000000
#
# Coordination Sequence:
#
# PCOD9564664 Si02
#       7
#    16   8  16   8  16  16   8
#     4  10  24  42  61  90 121 156 200 253 318 367
#     4  10  22  36  58  92 112 158 204 235 298 359
#     4  10  22  37  60  92 119 165 197 249 298 359
#     4  10  19  36  60  78 124 161 195 267 280 370
#     4  10  23  39  64  88 119 160 200 252 298 366
#     4  10  21  36  57  87 120 155 206 240 301 351
#     4  10  21  38  58  90 124 160 209 238 310 344
#
# _framework density 19.051127000000001
#
# number of rings (size 3 to 8) (size 9 to 14) (size 15 to 20)
#    0.000    2.000    0.000    2.727    7.636    4.545 
#    0.000    0.000    0.000    3.273    0.000    0.000 
#    0.000    0.000    0.000    0.000    0.000    0.000 
#
# Total GULP energy -490587.681268 kJ/mol
# GULP energy per Si atom -5574.860014 kJ/mol
# Density = 1.900777 g / cm^3
# Si number density = 19.051127 Si / 1000 Ang^3
#
#
#
# Elastic Constant Matrix: (Units=GPa)
#
#
# Indices 1 2 3 4 5 6 
#
# 1 55.6448 72.0712 3.7091 0.0000 0.0000 0.0000
# 2 72.0712 55.6448 3.7091 0.0000 0.0000 0.0000
# 3 3.7091 3.7091 65.2073 0.0000 0.0000 0.0000
# 4 0.0000 0.0000 0.0000 26.3262 0.0000 0.0000
# 5 0.0000 0.0000 0.0000 0.0000 26.3262 0.0000
# 6 0.0000 0.0000 0.0000 0.0000 0.0000 68.0091
#
#
#
# Elastic Compliance Matrix: (Units=1/GPa)
#
#
# Indices 1 2 3 4 5 6 
#
# 1 -0.026511 0.034367 -0.000447 0.000000 0.000000 0.000000
# 2 0.034367 -0.026511 -0.000447 0.000000 0.000000 0.000000
# 3 -0.000447 -0.000447 0.015387 0.000000 0.000000 0.000000
# 4 0.000000 0.000000 0.000000 0.037985 0.000000 0.000000
# 5 0.000000 0.000000 0.000000 0.000000 0.037985 0.000000
# 6 0.000000 0.000000 0.000000 0.000000 0.000000 0.014704
#
#
# Mechanical properties :
#
#
# Convention : Reuss Voigt Hill
#
# Bulk Modulus (GPa) = 34.11714 37.27507 35.69611
# Shear Modulus (GPa) = -1208.50913 30.59946 -588.95484
#
# Velocity S-wave (km/s) = -25.21364 4.01206 -17.60158
# Velocity P-wave (km/s) = 28.80433 6.40862 19.85723
#
# Compressibility (1/GPa) = 0.02931078
#
# Stress axis : x y z
#
# Youngs Moduli (GPa) = -37.72026 -37.72026 64.99189
#
# Poissons Ratio (x) = 1.29632 0.02904
# Poissons Ratio (y) = 1.29632 0.02904
# Poissons Ratio (z) = -0.01686 -0.01686
#
# Static dielectric constant tensor:
#      x y z
#    x 1.674740 0.000000 0.000000 
#    y 0.000000 1.674740 0.000000 
#    z 0.000000 0.000000 1.852780 
# 
# From -- ./inp_files/7310.got.cif
#   From: 2010.05.17/outbox.cif.g08.bks.cpg/sg128_4_cif.got.tgz:7310.got - 2010.05.20 12:07:25.
