data_PCOD9564697
_publ_section_title
;
Structure prediction by ZEFSAII (Michael W. Deem and Ramdas Pophale) SiO2 
 PCOD9564697
Probable space group: P 4/M N C
;
_chemical_formula_sum "Si O2"
_cell_formula_units_Z 116
_cell_length_a 28.152695
_cell_length_b 28.152695
_cell_length_c 8.377508
_cell_angle_alpha 90.000000
_cell_angle_beta 90.000000
_cell_angle_gamma 90.000000
_cell_volume 6639.797001
_symmetry_space_group_name_H-M "P 4/M N C"
_symmetry_group_IT_number 128
_symmetry_cell_setting 'tetragonal'
loop_
_space_group_symop_operation_xyz
x,y,z
-y,x,z
-x,-y,z
y,-x,z
1/2+x,1/2-y,1/2-z
1/2-x,1/2+y,1/2-z
1/2+y,1/2+x,1/2-z
1/2-y,1/2-x,1/2-z
-x,-y,-z
y,-x,-z
x,y,-z
-y,x,-z
1/2-x,1/2+y,1/2+z
1/2+x,1/2-y,1/2+z
1/2-y,1/2-x,1/2+z
1/2+y,1/2+x,1/2+z
loop_
_atom_site_type_symbol
_atom_site_label
_atom_site_fract_x
_atom_site_fract_y
_atom_site_fract_z
Si Si1 0.551592 0.762540 0.692403
Si Si2 0.127884 0.447980 0.191143
Si Si3 0.500000 0.500000 0.294828
Si Si4 0.765065 0.555611 0.192820
Si Si5 0.869243 0.445142 0.691072
Si Si6 0.893617 0.002700 0.688459
Si Si7 0.831691 0.096805 0.308665
Si Si8 0.337262 0.588251 0.689990
O O1 0.550760 0.763553 0.500000
O O2 0.497974 0.754270 0.751920
O O3 0.566105 0.815294 0.747526
O O4 0.583244 0.717677 0.741424
O O5 0.088415 0.411586 0.250000
O O6 0.181209 0.433454 0.245931
O O7 0.119385 0.501574 0.250870
O O8 0.127729 0.448650 0.000000
O O9 0.557957 0.507002 0.285659
O O10 0.722427 0.589556 0.247370
O O11 0.764384 0.555874 0.000000
O O12 0.907183 0.407183 0.750000
O O13 0.869469 0.445311 0.500000
O O14 0.907006 0.003792 0.500000
O O15 0.866785 0.953798 0.725628
O O16 0.859407 0.047208 0.721711
O O17 0.831822 0.103652 0.500000
O O18 0.861924 0.138612 0.231233
O O19 0.339835 0.580228 0.500000
#
# Coordination Sequence:
#
# PCOD9564697 Si02
#       8
#    16  16   4  16  16  16  16  16
#     4   9  19  34  52  74 104 137 171 213 264 314
#     4  10  20  35  56  84 114 143 173 208 250 302
#     4  12  21  32  45  62  93 136 173 202 257 328
#     4   9  18  33  54  76  99 131 178 222 254 301
#     4  10  20  36  57  83 113 144 175 209 250 301
#     4  11  20  32  48  64  89 129 173 213 257 313
#     4  10  20  33  50  70  94 130 174 219 262 307
#     4  11  22  33  47  71 100 130 168 217 268 316
#
# _framework density 17.470413000000001
#
# number of rings (size 3 to 8) (size 9 to 14) (size 15 to 20)
#    0.000    1.931    2.759    1.862    0.000    3.034 
#    0.000    1.724    0.000    0.828    0.000    5.793 
#    0.000    0.000    0.000    0.000    0.000    0.000 
#
# Total GULP energy -646323.128769 kJ/mol
# GULP energy per Si atom -5571.751110 kJ/mol
# Density = 1.743065 g / cm^3
# Si number density = 17.470413 Si / 1000 Ang^3
#
#
#
# Elastic Constant Matrix: (Units=GPa)
#
#
# Indices 1 2 3 4 5 6 
#
# 1 106.1090 72.3488 19.6760 0.0000 0.0000 0.0000
# 2 72.3488 106.1007 19.6750 0.0000 0.0000 0.0000
# 3 19.6760 19.6750 16.7836 0.0000 0.0000 0.0000
# 4 0.0000 0.0000 0.0000 14.4816 0.0000 0.0000
# 5 0.0000 0.0000 0.0000 0.0000 14.4822 0.0000
# 6 0.0000 0.0000 0.0000 0.0000 0.0000 22.1598
#
#
#
# Elastic Compliance Matrix: (Units=1/GPa)
#
#
# Indices 1 2 3 4 5 6 
#
# 1 0.018590 -0.011033 -0.008860 0.000000 0.000000 0.000000
# 2 -0.011033 0.018591 -0.008859 0.000000 0.000000 0.000000
# 3 -0.008860 -0.008859 0.080354 0.000000 0.000000 0.000000
# 4 0.000000 0.000000 0.000000 0.069053 0.000000 0.000000
# 5 0.000000 0.000000 0.000000 0.000000 0.069050 0.000000
# 6 0.000000 0.000000 0.000000 0.000000 0.000000 0.045127
#
#
# Mechanical properties :
#
#
# Convention : Reuss Voigt Hill
#
# Bulk Modulus (GPa) = 16.65816 50.26589 33.46203
# Shear Modulus (GPa) = 13.21770 18.04430 15.63100
#
# Velocity S-wave (km/s) = 2.75358 3.21728 2.99442
# Velocity P-wave (km/s) = 4.43456 6.52960 5.58127
#
# Compressibility (1/GPa) = 0.06003062
#
# Stress axis : x y z
#
# Youngs Moduli (GPa) = 53.79198 53.78812 12.44495
#
# Poissons Ratio (x) = 0.59347 0.11026
# Poissons Ratio (y) = 0.59351 0.11025
# Poissons Ratio (z) = 0.47657 0.47653
#
# Static dielectric constant tensor:
#      x y z
#    x 1.587750 0.000000 0.000000 
#    y 0.000000 1.587750 0.000000 
#    z 0.000000 0.000000 1.664460 
# 
# From -- ./inp_files/1827.got.cif
#   From: 2010.05.17/outbox.cif.g08.bks.cpg/sg128_1_cif.got.tgz:1827.got - 2010.05.20 12:07:25.
