data_PCOD9564663
_publ_section_title
;
Structure prediction by ZEFSAII (Michael W. Deem and Ramdas Pophale) SiO2 
 PCOD9564663
Probable space group: P 4/M N C
;
_chemical_formula_sum "Si O2"
_cell_formula_units_Z 56
_cell_length_a 12.717992
_cell_length_b 12.717992
_cell_length_c 19.139614
_cell_angle_alpha 90.000000
_cell_angle_beta 90.000000
_cell_angle_gamma 90.000000
_cell_volume 3095.781280
_symmetry_space_group_name_H-M "P 4/M N C"
_symmetry_group_IT_number 128
_symmetry_cell_setting 'tetragonal'
loop_
_space_group_symop_operation_xyz
x,y,z
-y,x,z
-x,-y,z
y,-x,z
1/2+x,1/2-y,1/2-z
1/2-x,1/2+y,1/2-z
1/2+y,1/2+x,1/2-z
1/2-y,1/2-x,1/2-z
-x,-y,-z
y,-x,-z
x,y,-z
-y,x,-z
1/2-x,1/2+y,1/2+z
1/2+x,1/2-y,1/2+z
1/2-y,1/2-x,1/2+z
1/2+y,1/2+x,1/2+z
loop_
_atom_site_type_symbol
_atom_site_label
_atom_site_fract_x
_atom_site_fract_y
_atom_site_fract_z
Si Si1 0.247295 0.747295 0.250000
Si Si2 0.642071 0.197045 0.000000
Si Si3 0.860454 0.407703 0.155017
Si Si4 0.403503 0.849427 0.348421
Si Si5 0.397737 0.208450 0.000000
O O1 0.231699 0.649198 0.197627
O O2 0.345066 0.762086 0.302384
O O3 0.663392 0.127452 0.069670
O O4 0.521256 0.237320 0.000000
O O5 0.708646 0.303707 0.000000
O O6 0.857498 0.474057 0.328958
O O7 0.861704 0.532358 0.167929
O O8 0.852255 0.387953 0.072479
#
# Coordination Sequence:
#
# PCOD9564663 Si02
#       5
#     8   8  16  16   8
#     4  12  20  32  56  82 116 144 172 222 284 328
#     4  10  19  36  59  84 110 144 187 234 280 324
#     4  10  21  37  58  83 109 142 187 232 273 324
#     4  10  21  37  58  83 109 142 187 232 273 324
#     4  10  19  36  59  84 110 144 187 234 280 324
#
# _framework density 18.089131999999999
#
# number of rings (size 3 to 8) (size 9 to 14) (size 15 to 20)
#    0.000    1.714    2.857    2.571    0.000    6.000 
#    0.000    0.000    0.000   13.714    0.000    2.000 
#    0.000    0.000    0.000    0.000    0.000    0.000 
#
# Total GULP energy -311772.530363 kJ/mol
# GULP energy per Si atom -5567.366614 kJ/mol
# Density = 1.804796 g / cm^3
# Si number density = 18.089132 Si / 1000 Ang^3
#
#
#
# Elastic Constant Matrix: (Units=GPa)
#
#
# Indices 1 2 3 4 5 6 
#
# 1 56.6484 43.4604 27.6328 0.0000 0.0000 0.0000
# 2 43.4604 56.6484 27.6328 0.0000 0.0000 0.0000
# 3 27.6328 27.6328 127.9754 0.0000 0.0000 0.0000
# 4 0.0000 0.0000 0.0000 30.3164 0.0000 0.0000
# 5 0.0000 0.0000 0.0000 0.0000 30.3164 0.0000
# 6 0.0000 0.0000 0.0000 0.0000 0.0000 30.1725
#
#
#
# Elastic Compliance Matrix: (Units=1/GPa)
#
#
# Indices 1 2 3 4 5 6 
#
# 1 0.043584 -0.032243 -0.002449 0.000000 0.000000 0.000000
# 2 -0.032243 0.043584 -0.002449 0.000000 0.000000 0.000000
# 3 -0.002449 -0.002449 0.008871 0.000000 0.000000 0.000000
# 4 0.000000 0.000000 0.000000 0.032985 0.000000 0.000000
# 5 0.000000 0.000000 0.000000 0.000000 0.032985 0.000000
# 6 0.000000 0.000000 0.000000 0.000000 0.000000 0.033143
#
#
# Mechanical properties :
#
#
# Convention : Reuss Voigt Hill
#
# Bulk Modulus (GPa) = 45.95933 48.74713 47.35323
# Shear Modulus (GPa) = 18.07107 27.66414 22.86761
#
# Velocity S-wave (km/s) = 3.16413 3.91490 3.55936
# Velocity P-wave (km/s) = 6.22987 6.88782 6.56709
#
# Compressibility (1/GPa) = 0.02175837
#
# Stress axis : x y z
#
# Youngs Moduli (GPa) = 22.94444 22.94444 112.72053
#
# Poissons Ratio (x) = 0.73979 0.27603
# Poissons Ratio (y) = 0.73979 0.27603
# Poissons Ratio (z) = 0.05619 0.05619
#
# Static dielectric constant tensor:
#      x y z
#    x 1.597630 0.000000 0.000000 
#    y 0.000000 1.597630 0.000000 
#    z 0.000000 0.000000 1.708580 
# 
# From -- ./inp_files/4438.got.cif
#   From: 2010.05.17/outbox.cif.g08.bks.cpg/sg128_3_cif.got.tgz:4438.got - 2010.05.20 12:07:25.
