data_PCOD9564450
_publ_section_title
;
Structure prediction by ZEFSAII (Michael W. Deem and Ramdas Pophale) SiO2 
 PCOD9564450
Probable space group: P 4/M B M
;
_chemical_formula_sum "Si O2"
_cell_formula_units_Z 88
_cell_length_a 11.827684
_cell_length_b 11.827684
_cell_length_c 31.782205
_cell_angle_alpha 90.000000
_cell_angle_beta 90.000000
_cell_angle_gamma 90.000000
_cell_volume 4446.143244
_symmetry_space_group_name_H-M "P 4/M B M"
_symmetry_group_IT_number 127
_symmetry_cell_setting 'tetragonal'
loop_
_space_group_symop_operation_xyz
x,y,z
-y,x,z
-x,-y,z
y,-x,z
1/2+x,1/2-y,-z
1/2-x,1/2+y,-z
1/2+y,1/2+x,-z
1/2-y,1/2-x,-z
-x,-y,-z
y,-x,-z
x,y,-z
-y,x,-z
1/2-x,1/2+y,z
1/2+x,1/2-y,z
1/2-y,1/2-x,z
1/2+y,1/2+x,z
loop_
_atom_site_type_symbol
_atom_site_label
_atom_site_fract_x
_atom_site_fract_y
_atom_site_fract_z
Si Si1 0.185464 0.494774 0.631338
Si Si2 0.309865 0.005284 0.278898
Si Si3 0.315231 0.527171 0.100886
Si Si4 0.690301 0.003966 0.813194
Si Si5 0.975094 0.188501 0.454671
Si Si6 0.904438 0.404438 0.049049
O O1 0.084662 0.584662 0.637632
O O2 0.251180 0.495368 0.676002
O O3 0.245108 0.529464 0.588586
O O4 0.127262 0.372739 0.625447
O O5 0.374587 0.125414 0.277561
O O6 0.254440 0.990393 0.233293
O O7 0.408646 0.908646 0.280240
O O8 0.376004 0.407781 0.092988
O O9 0.274216 0.523936 0.149267
O O10 0.206809 0.550625 0.072407
O O11 0.594047 0.905954 0.812171
O O12 0.620328 0.120328 0.820956
O O13 0.967344 0.250469 0.500000
O O14 0.093682 0.121747 0.454456
O O15 0.000000 0.500000 0.052425
O O16 0.881978 0.381978 0.000000
#
# Coordination Sequence:
#
# PCOD9564450 Si02
#       6
#    16  16  16  16  16   8
#     4   9  17  30  49  74 104 131 164 213 268 324
#     4   7  12  25  46  75 107 141 178 219 265 324
#     4  11  25  42  63  95 134 169 205 258 314 360
#     4   9  16  30  58  87 113 151 201 241 282 344
#     4   9  19  35  50  63  85 123 170 216 265 324
#     4  11  26  46  72  99 125 165 215 258 307 375
#
# _framework density 19.792434
#
# number of rings (size 3 to 8) (size 9 to 14) (size 15 to 20)
#    0.000    2.818    0.909    3.273    2.545    2.182 
#    0.000    5.455    0.000    8.727    0.000    0.000 
#    0.000    0.000    0.000    0.000    0.000    0.000 
#
# Total GULP energy -490287.142993 kJ/mol
# GULP energy per Si atom -5571.444807 kJ/mol
# Density = 1.974739 g / cm^3
# Si number density = 19.792434 Si / 1000 Ang^3
#
#
#
# Elastic Constant Matrix: (Units=GPa)
#
#
# Indices 1 2 3 4 5 6 
#
# 1 51.7280 10.5432 50.4934 0.0000 0.0000 0.0000
# 2 10.5432 51.7280 50.4934 0.0000 0.0000 0.0000
# 3 50.4934 50.4934 194.1103 0.0000 0.0000 0.0000
# 4 0.0000 0.0000 0.0000 -52.5668 0.0000 0.0000
# 5 0.0000 0.0000 0.0000 0.0000 -52.5668 0.0000
# 6 0.0000 0.0000 0.0000 0.0000 0.0000 -6.6716
#
#
#
# Elastic Compliance Matrix: (Units=1/GPa)
#
#
# Indices 1 2 3 4 5 6 
#
# 1 0.026029 0.001748 -0.007225 0.000000 0.000000 0.000000
# 2 0.001748 0.026029 -0.007225 0.000000 0.000000 0.000000
# 3 -0.007225 -0.007225 0.008911 0.000000 0.000000 0.000000
# 4 0.000000 0.000000 0.000000 -0.019023 0.000000 0.000000
# 5 0.000000 0.000000 0.000000 0.000000 -0.019023 0.000000
# 6 0.000000 0.000000 0.000000 0.000000 0.000000 -0.149890
#
#
# Mechanical properties :
#
#
# Convention : Reuss Voigt Hill
#
# Bulk Modulus (GPa) = 28.11990 57.84736 42.98363
# Shear Modulus (GPa) = -55.73586 -9.95861 -32.84724
#
# Velocity S-wave (km/s) = -5.31237 -2.24554 -4.07822
# Velocity P-wave (km/s) = 4.83634 4.75049 0.64148
#
# Compressibility (1/GPa) = 0.03556200
#
# Stress axis : x y z
#
# Youngs Moduli (GPa) = 38.41927 38.41927 112.22383
#
# Poissons Ratio (x) = -0.06715 0.81086
# Poissons Ratio (y) = -0.06715 0.81086
# Poissons Ratio (z) = 0.27760 0.27760
#
# Static dielectric constant tensor:
#      x y z
#    x 1.697960 0.000000 0.000000 
#    y 0.000000 1.697960 0.000000 
#    z 0.000000 0.000000 1.745690 
# 
# From -- ./inp_files/6521.got.cif
#   From: 2010.05.17/outbox.cif.g08.bks.cpg/sg127_4_cif.got.tgz:6521.got - 2010.05.20 12:03:00.
