data_PCOD9564409
_publ_section_title
;
Structure prediction by ZEFSAII (Michael W. Deem and Ramdas Pophale) SiO2 
 PCOD9564409
Probable space group: P 4/M B M
;
_chemical_formula_sum "Si O2"
_cell_formula_units_Z 88
_cell_length_a 14.801340
_cell_length_b 14.801340
_cell_length_c 23.139998
_cell_angle_alpha 90.000000
_cell_angle_beta 90.000000
_cell_angle_gamma 90.000000
_cell_volume 5069.503028
_symmetry_space_group_name_H-M "P 4/M B M"
_symmetry_group_IT_number 127
_symmetry_cell_setting 'tetragonal'
loop_
_space_group_symop_operation_xyz
x,y,z
-y,x,z
-x,-y,z
y,-x,z
1/2+x,1/2-y,-z
1/2-x,1/2+y,-z
1/2+y,1/2+x,-z
1/2-y,1/2-x,-z
-x,-y,-z
y,-x,-z
x,y,-z
-y,x,-z
1/2-x,1/2+y,z
1/2+x,1/2-y,z
1/2-y,1/2-x,z
1/2+y,1/2+x,z
loop_
_atom_site_type_symbol
_atom_site_label
_atom_site_fract_x
_atom_site_fract_y
_atom_site_fract_z
Si Si1 0.851180 0.499830 0.430269
Si Si2 0.197288 0.155199 0.067872
Si Si3 0.574167 0.074167 0.064623
Si Si4 0.848010 0.002018 0.625261
Si Si5 0.849843 0.004874 0.762107
Si Si6 0.253530 0.472597 0.124783
O O1 0.846061 0.499579 0.500000
O O2 0.911237 0.411237 0.413489
O O3 0.749071 0.501407 0.405992
O O4 0.912425 0.587576 0.413720
O O5 0.292388 0.207613 0.075736
O O6 0.122291 0.205210 0.105275
O O7 0.200300 0.053410 0.089750
O O8 0.175183 0.159636 0.000000
O O9 0.531380 0.153064 0.101829
O O10 0.500000 0.000000 0.055981
O O11 0.605503 0.105503 0.000000
O O12 0.913517 0.088808 0.612788
O O13 0.828803 0.004089 0.694174
O O14 0.910293 0.916098 0.773351
O O15 0.769179 0.010736 0.807516
#
# Coordination Sequence:
#
# PCOD9564409 Si02
#       6
#    16  16   8  16  16  16
#     4   9  19  37  59  85 121 160 193 232 282 329
#     4  11  23  37  54  81 111 137 177 231 284 342
#     4  11  24  42  58  74 106 149 184 220 282 354
#     4   9  19  36  59  84 115 154 195 236 282 334
#     4   9  18  36  57  81 111 145 179 225 284 336
#     4  12  21  37  60  80 105 143 182 227 284 339
#
# _framework density 17.358702999999998
#
# number of rings (size 3 to 8) (size 9 to 14) (size 15 to 20)
#    0.000    1.909    2.727    3.818    0.000    3.273 
#    1.636    5.455    2.000    0.000    0.000    0.000 
#    0.000    0.000    0.000    0.000    0.000    0.000 
#
# Total GULP energy -490458.973554 kJ/mol
# GULP energy per Si atom -5573.397427 kJ/mol
# Density = 1.731919 g / cm^3
# Si number density = 17.358703 Si / 1000 Ang^3
#
#
#
# Elastic Constant Matrix: (Units=GPa)
#
#
# Indices 1 2 3 4 5 6 
#
# 1 108.2772 34.6514 46.0761 0.0000 0.0000 0.0000
# 2 34.6514 108.2772 46.0761 0.0000 0.0000 0.0000
# 3 46.0761 46.0761 68.9994 0.0000 0.0000 0.0000
# 4 0.0000 0.0000 0.0000 31.9356 0.0000 0.0000
# 5 0.0000 0.0000 0.0000 0.0000 31.9356 0.0000
# 6 0.0000 0.0000 0.0000 0.0000 0.0000 19.7565
#
#
#
# Elastic Compliance Matrix: (Units=1/GPa)
#
#
# Indices 1 2 3 4 5 6 
#
# 1 0.012934 -0.000648 -0.008205 0.000000 0.000000 0.000000
# 2 -0.000648 0.012934 -0.008205 0.000000 0.000000 0.000000
# 3 -0.008205 -0.008205 0.025450 0.000000 0.000000 0.000000
# 4 0.000000 0.000000 0.000000 0.031313 0.000000 0.000000
# 5 0.000000 0.000000 0.000000 0.000000 0.031313 0.000000
# 6 0.000000 0.000000 0.000000 0.000000 0.000000 0.050616
#
#
# Mechanical properties :
#
#
# Convention : Reuss Voigt Hill
#
# Bulk Modulus (GPa) = 58.12253 59.90677 59.01465
# Shear Modulus (GPa) = 24.46063 27.30889 25.88476
#
# Velocity S-wave (km/s) = 3.75791 3.97067 3.86576
# Velocity P-wave (km/s) = 7.23775 7.45706 7.34822
#
# Compressibility (1/GPa) = 0.01720503
#
# Stress axis : x y z
#
# Youngs Moduli (GPa) = 77.31409 77.31409 39.29206
#
# Poissons Ratio (x) = 0.05010 0.32237
# Poissons Ratio (y) = 0.05010 0.32237
# Poissons Ratio (z) = 0.63432 0.63432
#
# Static dielectric constant tensor:
#      x y z
#    x 1.610590 0.000000 0.000000 
#    y 0.000000 1.610590 0.000000 
#    z 0.000000 0.000000 1.578630 
# 
# From -- ./inp_files/5684.got.cif
#   From: 2010.05.17/outbox.cif.g08.bks.cpg/sg127_3_cif.got.tgz:5684.got - 2010.05.20 12:03:00.
