data_PCOD9564321
_publ_section_title
;
Structure prediction by ZEFSAII (Michael W. Deem and Ramdas Pophale) SiO2 
 PCOD9564321
Probable space group: P 4/M B M
;
_chemical_formula_sum "Si O2"
_cell_formula_units_Z 58
_cell_length_a 15.480812
_cell_length_b 15.480812
_cell_length_c 14.577481
_cell_angle_alpha 90.000000
_cell_angle_beta 90.000000
_cell_angle_gamma 90.000000
_cell_volume 3493.574084
_symmetry_space_group_name_H-M "P 4/M B M"
_symmetry_group_IT_number 127
_symmetry_cell_setting 'tetragonal'
loop_
_space_group_symop_operation_xyz
x,y,z
-y,x,z
-x,-y,z
y,-x,z
1/2+x,1/2-y,-z
1/2-x,1/2+y,-z
1/2+y,1/2+x,-z
1/2-y,1/2-x,-z
-x,-y,-z
y,-x,-z
x,y,-z
-y,x,-z
1/2-x,1/2+y,z
1/2+x,1/2-y,z
1/2-y,1/2-x,z
1/2+y,1/2+x,z
loop_
_atom_site_type_symbol
_atom_site_label
_atom_site_fract_x
_atom_site_fract_y
_atom_site_fract_z
Si Si1 0.433483 0.066518 0.810812
Si Si2 0.235821 0.019936 0.794461
Si Si3 0.308292 0.338057 0.110286
Si Si4 0.500000 0.000000 0.000000
Si Si5 0.354321 0.505920 0.399293
O O1 0.336161 0.042474 0.790305
O O2 0.500000 0.000000 0.764210
O O3 0.448115 0.051886 0.919148
O O4 0.188613 0.100536 0.844259
O O5 0.202547 0.009147 0.690943
O O6 0.220083 0.930837 0.849528
O O7 0.235088 0.264913 0.130259
O O8 0.316790 0.343144 0.000000
O O9 0.413853 0.420659 0.395671
O O10 0.311003 0.507740 0.500000
#
# Coordination Sequence:
#
# PCOD9564321 Si02
#       5
#     8  16  16   2  16
#     4  10  24  38  62  81 117 165 208 233 279 352
#     4  12  21  39  60  88 121 152 199 254 301 350
#     4  11  25  37  57  86 122 161 198 243 298 362
#     4   8  24  40  60  84 102 172 228 222 254 364
#     4   9  18  35  59  87 118 154 194 237 298 371
#
# _framework density 16.601908999999999
#
# number of rings (size 3 to 8) (size 9 to 14) (size 15 to 20)
#    0.414    1.103    4.138    2.483    3.862    0.552 
#    0.000    2.069    0.000    5.793    0.000    0.000 
#    0.000    0.000    0.000    0.000    0.000    0.000 
#
# Total GULP energy -322904.986863 kJ/mol
# GULP energy per Si atom -5567.327360 kJ/mol
# Density = 1.656412 g / cm^3
# Si number density = 16.601909 Si / 1000 Ang^3
#
#
#
# Elastic Constant Matrix: (Units=GPa)
#
#
# Indices 1 2 3 4 5 6 
#
# 1 80.0290 36.0808 34.8326 0.0000 0.0000 0.0000
# 2 36.0808 80.0290 34.8326 0.0000 0.0000 0.0000
# 3 34.8326 34.8326 140.3766 0.0000 0.0000 0.0000
# 4 0.0000 0.0000 0.0000 2.8806 0.0000 0.0000
# 5 0.0000 0.0000 0.0000 0.0000 2.8806 0.0000
# 6 0.0000 0.0000 0.0000 0.0000 0.0000 24.3761
#
#
#
# Elastic Compliance Matrix: (Units=1/GPa)
#
#
# Indices 1 2 3 4 5 6 
#
# 1 0.016437 -0.006318 -0.002511 0.000000 0.000000 0.000000
# 2 -0.006318 0.016437 -0.002511 0.000000 0.000000 0.000000
# 3 -0.002511 -0.002511 0.008370 0.000000 0.000000 0.000000
# 4 0.000000 0.000000 0.000000 0.347146 0.000000 0.000000
# 5 0.000000 0.000000 0.000000 0.000000 0.347146 0.000000
# 6 0.000000 0.000000 0.000000 0.000000 0.000000 0.041024
#
#
# Mechanical properties :
#
#
# Convention : Reuss Voigt Hill
#
# Bulk Modulus (GPa) = 53.86688 56.88073 55.37381
# Shear Modulus (GPa) = 6.20789 19.00672 12.60731
#
# Velocity S-wave (km/s) = 1.93582 3.38724 2.75869
# Velocity P-wave (km/s) = 6.12480 7.04512 6.60102
#
# Compressibility (1/GPa) = 0.01856428
#
# Stress axis : x y z
#
# Youngs Moduli (GPa) = 60.83992 60.83992 119.47725
#
# Poissons Ratio (x) = 0.38436 0.30000
# Poissons Ratio (y) = 0.38436 0.30000
# Poissons Ratio (z) = 0.15276 0.15276
#
# Static dielectric constant tensor:
#      x y z
#    x 1.561470 0.000000 0.000000 
#    y 0.000000 1.561470 0.000000 
#    z 0.000000 0.000000 1.545260 
# 
# From -- ./inp_files/4117.got.cif
#   From: 2010.05.17/outbox.cif.g08.bks.cpg/sg127_3_cif.got.tgz:4117.got - 2010.05.20 12:03:00.
