data_PCOD9564156
_publ_section_title
;
Structure prediction by ZEFSAII (Michael W. Deem and Ramdas Pophale) SiO2 
 PCOD9564156
Probable space group: P 4/M B M
;
_chemical_formula_sum "Si O2"
_cell_formula_units_Z 112
_cell_length_a 14.605824
_cell_length_b 14.605824
_cell_length_c 28.957736
_cell_angle_alpha 90.000000
_cell_angle_beta 90.000000
_cell_angle_gamma 90.000000
_cell_volume 6177.556564
_symmetry_space_group_name_H-M "P 4/M B M"
_symmetry_group_IT_number 127
_symmetry_cell_setting 'tetragonal'
loop_
_space_group_symop_operation_xyz
x,y,z
-y,x,z
-x,-y,z
y,-x,z
1/2+x,1/2-y,-z
1/2-x,1/2+y,-z
1/2+y,1/2+x,-z
1/2-y,1/2-x,-z
-x,-y,-z
y,-x,-z
x,y,-z
-y,x,-z
1/2-x,1/2+y,z
1/2+x,1/2-y,z
1/2-y,1/2-x,z
1/2+y,1/2+x,z
loop_
_atom_site_type_symbol
_atom_site_label
_atom_site_fract_x
_atom_site_fract_y
_atom_site_fract_z
Si Si1 0.493575 0.150256 0.868051
Si Si2 0.744957 0.398118 0.644247
Si Si3 0.756552 0.100802 0.688465
Si Si4 0.440038 0.357768 0.553279
Si Si5 0.395340 0.740918 0.203980
Si Si6 0.091343 0.254146 0.948332
Si Si7 0.897185 0.887930 0.875850
O O1 0.568278 0.068278 0.867745
O O2 0.521855 0.211267 0.824170
O O3 0.512355 0.202666 0.915945
O O4 0.394495 0.105506 0.864973
O O5 0.836693 0.336693 0.649611
O O6 0.752469 0.500815 0.665053
O O7 0.662489 0.339135 0.667705
O O8 0.715550 0.409427 0.590835
O O9 0.664579 0.164579 0.684083
O O10 0.776132 0.084915 0.742750
O O11 0.546934 0.384661 0.559834
O O12 0.427820 0.329164 0.500000
O O13 0.311893 0.811893 0.202025
O O14 0.368439 0.654181 0.172998
O O15 0.167012 0.332988 0.951566
O O16 0.135750 0.172032 0.918834
O O17 0.062499 0.227751 0.000000
O O18 0.006498 0.878429 0.878699
#
# Coordination Sequence:
#
# PCOD9564156 Si02
#       7
#    16  16  16  16  16  16  16
#     4   8  14  27  49  74  98 128 165 205 254 311
#     4  11  22  37  60  88 121 161 200 246 304 355
#     4  10  23  39  57  87 120 155 202 247 296 359
#     4   9  17  33  59  88 118 155 202 254 303 351
#     4   9  19  37  56  75 106 140 172 219 271 322
#     4   9  18  34  54  73  98 132 166 209 266 318
#     4  10  21  35  52  76 102 131 172 213 256 318
#
# _framework density 18.130144999999999
#
# number of rings (size 3 to 8) (size 9 to 14) (size 15 to 20)
#    0.000    2.571    1.429    1.714    2.000    2.286 
#    0.000    9.286    0.000    0.429    0.000    1.000 
#    0.000    0.000    0.000    0.000    0.000    0.000 
#
# Total GULP energy -623965.380154 kJ/mol
# GULP energy per Si atom -5571.119466 kJ/mol
# Density = 1.808888 g / cm^3
# Si number density = 18.130145 Si / 1000 Ang^3
#
#
#
# Elastic Constant Matrix: (Units=GPa)
#
#
# Indices 1 2 3 4 5 6 
#
# 1 78.1996 26.2129 37.8078 0.0000 0.0000 0.0000
# 2 26.2129 78.1996 37.8078 0.0000 0.0000 0.0000
# 3 37.8078 37.8078 132.9874 0.0000 0.0000 0.0000
# 4 0.0000 0.0000 0.0000 8.7750 0.0000 0.0000
# 5 0.0000 0.0000 0.0000 0.0000 8.7750 0.0000
# 6 0.0000 0.0000 0.0000 0.0000 0.0000 7.9454
#
#
#
# Elastic Compliance Matrix: (Units=1/GPa)
#
#
# Indices 1 2 3 4 5 6 
#
# 1 0.015648 -0.003588 -0.003429 0.000000 0.000000 0.000000
# 2 -0.003588 0.015648 -0.003429 0.000000 0.000000 0.000000
# 3 -0.003429 -0.003429 0.009469 0.000000 0.000000 0.000000
# 4 0.000000 0.000000 0.000000 0.113960 0.000000 0.000000
# 5 0.000000 0.000000 0.000000 0.000000 0.113960 0.000000
# 6 0.000000 0.000000 0.000000 0.000000 0.000000 0.125858
#
#
# Mechanical properties :
#
#
# Convention : Reuss Voigt Hill
#
# Bulk Modulus (GPa) = 50.31428 54.78260 52.54844
# Shear Modulus (GPa) = 11.84671 17.60298 14.72484
#
# Velocity S-wave (km/s) = 2.55899 3.11934 2.85296
# Velocity P-wave (km/s) = 6.04510 6.57690 6.31660
#
# Compressibility (1/GPa) = 0.01987507
#
# Stress axis : x y z
#
# Youngs Moduli (GPa) = 63.90554 63.90554 105.60697
#
# Poissons Ratio (x) = 0.22927 0.36210
# Poissons Ratio (y) = 0.22927 0.36210
# Poissons Ratio (z) = 0.21912 0.21912
#
# Static dielectric constant tensor:
#      x y z
#    x 1.641840 0.000000 0.000000 
#    y 0.000000 1.641840 0.000000 
#    z 0.000000 0.000000 1.648600 
# 
# From -- ./inp_files/6401.got.cif
#   From: 2010.05.17/outbox.cif.g08.bks.cpg/sg127_4_cif.got.tgz:6401.got - 2010.05.20 12:03:00.
