data_PCOD9564725
_publ_section_title
;
Structure prediction by ZEFSAII (Michael W. Deem and Ramdas Pophale) SiO2 
 PCOD9564725
Probable space group: P 4/M N C
;
_chemical_formula_sum "Si O2"
_cell_formula_units_Z 96
_cell_length_a 17.302491
_cell_length_b 17.302491
_cell_length_c 18.010194
_cell_angle_alpha 90.000000
_cell_angle_beta 90.000000
_cell_angle_gamma 90.000000
_cell_volume 5391.823347
_symmetry_space_group_name_H-M "P 4/M N C"
_symmetry_group_IT_number 128
_symmetry_cell_setting 'tetragonal'
loop_
_space_group_symop_operation_xyz
x,y,z
-y,x,z
-x,-y,z
y,-x,z
1/2+x,1/2-y,1/2-z
1/2-x,1/2+y,1/2-z
1/2+y,1/2+x,1/2-z
1/2-y,1/2-x,1/2-z
-x,-y,-z
y,-x,-z
x,y,-z
-y,x,-z
1/2-x,1/2+y,1/2+z
1/2+x,1/2-y,1/2+z
1/2-y,1/2-x,1/2+z
1/2+y,1/2+x,1/2+z
loop_
_atom_site_type_symbol
_atom_site_label
_atom_site_fract_x
_atom_site_fract_y
_atom_site_fract_z
Si Si1 0.587437 0.997886 0.585481
Si Si2 0.794826 0.184847 0.300648
Si Si3 0.739038 0.548005 0.697889
Si Si4 0.690388 0.919987 0.296802
Si Si5 0.668984 0.159730 0.086106
Si Si6 0.986652 0.129528 0.082357
O O1 0.581689 0.972568 0.500000
O O2 0.624656 0.082919 0.587811
O O3 0.500000 0.000000 0.616339
O O4 0.643078 0.942337 0.630618
O O5 0.740247 0.240247 0.250000
O O6 0.804799 0.106219 0.253694
O O7 0.874419 0.230199 0.313402
O O8 0.743416 0.170340 0.374132
O O9 0.795145 0.497106 0.748798
O O10 0.780098 0.601959 0.636459
O O11 0.687177 0.488786 0.650698
O O12 0.637631 0.862370 0.250000
O O13 0.694608 0.162953 0.000000
O O14 0.918695 0.066661 0.086468
O O15 0.982669 0.166265 0.000000
#
# Coordination Sequence:
#
# PCOD9564725 Si02
#       6
#    16  16  16  16  16  16
#     4  10  21  37  56  81 110 141 181 229 283 338
#     4   9  20  35  51  77 109 144 186 230 279 341
#     4  11  19  33  54  77 109 143 185 232 277 338
#     4  11  22  35  56  83 111 145 187 232 283 343
#     4  10  20  35  54  77 107 147 184 225 285 345
#     4   9  18  32  50  75 107 142 181 226 277 331
#
# _framework density 17.804736999999999
#
# number of rings (size 3 to 8) (size 9 to 14) (size 15 to 20)
#    0.000    2.000    1.667    3.000    0.000    2.333 
#    0.000    0.833    0.000    1.000    0.000    0.000 
#    0.000    2.667    0.000    0.000    0.000    0.000 
#
# Total GULP energy -535477.126783 kJ/mol
# GULP energy per Si atom -5577.886737 kJ/mol
# Density = 1.776421 g / cm^3
# Si number density = 17.804737 Si / 1000 Ang^3
#
#
#
# Elastic Constant Matrix: (Units=GPa)
#
#
# Indices 1 2 3 4 5 6 
#
# 1 47.2643 9.5932 36.0010 0.0000 0.0000 0.0000
# 2 9.5932 47.2641 36.0016 0.0000 0.0000 0.0000
# 3 36.0010 36.0016 94.1360 0.0000 0.0000 0.0000
# 4 0.0000 0.0000 0.0000 -32.2304 0.0000 0.0000
# 5 0.0000 0.0000 0.0000 0.0000 -31.9370 0.0000
# 6 0.0000 0.0000 0.0000 0.0000 0.0000 27.5882
#
#
#
# Elastic Compliance Matrix: (Units=1/GPa)
#
#
# Indices 1 2 3 4 5 6 
#
# 1 0.030325 0.003780 -0.013043 0.000000 0.000000 0.000000
# 2 0.003780 0.030326 -0.013043 0.000000 0.000000 0.000000
# 3 -0.013043 -0.013043 0.020599 0.000000 0.000000 0.000000
# 4 0.000000 0.000000 0.000000 -0.031027 0.000000 0.000000
# 5 0.000000 0.000000 0.000000 0.000000 -0.031312 0.000000
# 6 0.000000 0.000000 0.000000 0.000000 0.000000 0.036247
#
#
# Mechanical properties :
#
#
# Convention : Reuss Voigt Hill
#
# Bulk Modulus (GPa) = 27.29455 39.09510 33.19483
# Shear Modulus (GPa) = 44.64865 -0.17794 22.23536
#
# Velocity S-wave (km/s) = 5.01311 -0.31647 3.53773
# Velocity P-wave (km/s) = 6.99082 4.67673 5.94741
#
# Compressibility (1/GPa) = 0.03663735
#
# Stress axis : x y z
#
# Youngs Moduli (GPa) = 32.97576 32.97519 48.54492
#
# Poissons Ratio (x) = -0.12465 0.63318
# Poissons Ratio (y) = -0.12465 0.63319
# Poissons Ratio (z) = 0.43011 0.43011
#
# Static dielectric constant tensor:
#      x y z
#    x 1.602960 0.000000 0.000000 
#    y 0.000000 1.602960 0.000000 
#    z 0.000000 0.000000 1.610350 
# 
# From -- ./inp_files/4806.got.cif
#   From: 2010.05.17/outbox.cif.g08.bks.cpg/sg128_3_cif.got.tgz:4806.got - 2010.05.20 12:07:25.
