data_PCOD9564370
_publ_section_title
;
Structure prediction by ZEFSAII (Michael W. Deem and Ramdas Pophale) SiO2 
 PCOD9564370
Probable space group: P 4/M B M
;
_chemical_formula_sum "Si O2"
_cell_formula_units_Z 88
_cell_length_a 13.309281
_cell_length_b 13.309281
_cell_length_c 26.220061
_cell_angle_alpha 90.000000
_cell_angle_beta 90.000000
_cell_angle_gamma 90.000000
_cell_volume 4644.541916
_symmetry_space_group_name_H-M "P 4/M B M"
_symmetry_group_IT_number 127
_symmetry_cell_setting 'tetragonal'
loop_
_space_group_symop_operation_xyz
x,y,z
-y,x,z
-x,-y,z
y,-x,z
1/2+x,1/2-y,-z
1/2-x,1/2+y,-z
1/2+y,1/2+x,-z
1/2-y,1/2-x,-z
-x,-y,-z
y,-x,-z
x,y,-z
-y,x,-z
1/2-x,1/2+y,z
1/2+x,1/2-y,z
1/2-y,1/2-x,z
1/2+y,1/2+x,z
loop_
_atom_site_type_symbol
_atom_site_label
_atom_site_fract_x
_atom_site_fract_y
_atom_site_fract_z
Si Si1 0.524089 0.335030 0.560543
Si Si2 0.000775 0.336007 0.640272
Si Si3 0.245740 0.420418 0.110099
Si Si4 0.663141 0.467095 0.281575
Si Si5 0.660252 0.554977 0.000000
Si Si6 0.889716 0.223541 0.827993
O O1 0.609642 0.417925 0.571908
O O2 0.527404 0.315058 0.500000
O O3 0.532531 0.236081 0.593976
O O4 0.912108 0.412108 0.624981
O O5 0.961444 0.262454 0.684546
O O6 0.094660 0.405341 0.656932
O O7 0.148691 0.351310 0.116117
O O8 0.278800 0.424467 0.051425
O O9 0.334587 0.367816 0.142959
O O10 0.230737 0.530454 0.132783
O O11 0.614011 0.575941 0.292501
O O12 0.689678 0.448325 0.222568
O O13 0.560158 0.622894 0.000000
O O14 0.804383 0.304383 0.814210
#
# Coordination Sequence:
#
# PCOD9564370 Si02
#       6
#    16  16  16  16   8  16
#     4   9  19  38  64  92 121 156 204 259 309 359
#     4  11  25  41  57  85 127 167 203 248 302 363
#     4  11  23  40  62  89 125 161 196 248 304 357
#     4  11  23  40  66  92 117 154 201 253 303 355
#     4  11  21  36  64  91 118 158 204 255 298 348
#     4  11  23  40  64  91 120 157 202 246 301 366
#
# _framework density 18.946971000000001
#
# number of rings (size 3 to 8) (size 9 to 14) (size 15 to 20)
#    0.000    1.364    3.636    2.455    0.000    7.273 
#    0.000    3.182    0.000    1.091    0.000    0.000 
#    0.000    0.000    0.000    0.000    0.000    0.000 
#
# Total GULP energy -491653.410218 kJ/mol
# GULP energy per Si atom -5586.970571 kJ/mol
# Density = 1.890385 g / cm^3
# Si number density = 18.946971 Si / 1000 Ang^3
#
#
#
# Elastic Constant Matrix: (Units=GPa)
#
#
# Indices 1 2 3 4 5 6 
#
# 1 61.7418 3.4929 9.2729 0.0000 0.0000 0.0000
# 2 3.4929 61.7418 9.2729 0.0000 0.0000 0.0000
# 3 9.2729 9.2729 54.7346 0.0000 0.0000 0.0000
# 4 0.0000 0.0000 0.0000 17.2447 0.0000 0.0000
# 5 0.0000 0.0000 0.0000 0.0000 17.2447 0.0000
# 6 0.0000 0.0000 0.0000 0.0000 0.0000 10.2401
#
#
#
# Elastic Compliance Matrix: (Units=1/GPa)
#
#
# Indices 1 2 3 4 5 6 
#
# 1 0.016636 -0.000531 -0.002728 0.000000 0.000000 0.000000
# 2 -0.000531 0.016636 -0.002728 0.000000 0.000000 0.000000
# 3 -0.002728 -0.002728 0.019194 0.000000 0.000000 0.000000
# 4 0.000000 0.000000 0.000000 0.057989 0.000000 0.000000
# 5 0.000000 0.000000 0.000000 0.000000 0.057989 0.000000
# 6 0.000000 0.000000 0.000000 0.000000 0.000000 0.097655
#
#
# Mechanical properties :
#
#
# Convention : Reuss Voigt Hill
#
# Bulk Modulus (GPa) = 24.69707 24.69951 24.69829
# Shear Modulus (GPa) = 17.14833 19.35786 18.25309
#
# Velocity S-wave (km/s) = 3.01170 3.19985 3.10720
# Velocity P-wave (km/s) = 5.01567 5.16880 5.09281
#
# Compressibility (1/GPa) = 0.04049063
#
# Stress axis : x y z
#
# Youngs Moduli (GPa) = 60.10939 60.10939 52.09833
#
# Poissons Ratio (x) = 0.03194 0.14215
# Poissons Ratio (y) = 0.03194 0.14215
# Poissons Ratio (z) = 0.16400 0.16400
#
# Static dielectric constant tensor:
#      x y z
#    x 1.640270 0.000000 0.000000 
#    y 0.000000 1.640270 0.000000 
#    z 0.000000 0.000000 1.647590 
# 
# From -- ./inp_files/6524.got.cif
#   From: 2010.05.17/outbox.cif.g08.bks.cpg/sg127_4_cif.got.tgz:6524.got - 2010.05.20 12:03:00.
