data_PCOD9564199
_publ_section_title
;
Structure prediction by ZEFSAII (Michael W. Deem and Ramdas Pophale) SiO2 
 PCOD9564199
Probable space group: P 4/M B M
;
_chemical_formula_sum "Si O2"
_cell_formula_units_Z 72
_cell_length_a 21.372805
_cell_length_b 21.372805
_cell_length_c 7.301178
_cell_angle_alpha 90.000000
_cell_angle_beta 90.000000
_cell_angle_gamma 90.000000
_cell_volume 3335.154700
_symmetry_space_group_name_H-M "P 4/M B M"
_symmetry_group_IT_number 127
_symmetry_cell_setting 'tetragonal'
loop_
_space_group_symop_operation_xyz
x,y,z
-y,x,z
-x,-y,z
y,-x,z
1/2+x,1/2-y,-z
1/2-x,1/2+y,-z
1/2+y,1/2+x,-z
1/2-y,1/2-x,-z
-x,-y,-z
y,-x,-z
x,y,-z
-y,x,-z
1/2-x,1/2+y,z
1/2+x,1/2-y,z
1/2-y,1/2-x,z
1/2+y,1/2+x,z
loop_
_atom_site_type_symbol
_atom_site_label
_atom_site_fract_x
_atom_site_fract_y
_atom_site_fract_z
Si Si1 0.499091 0.100418 0.277222
Si Si2 0.424992 0.571038 0.000000
Si Si3 0.398623 0.325871 0.281216
Si Si4 0.738691 0.661126 0.277903
Si Si5 0.482231 0.757466 0.276813
O O1 0.499121 0.100952 0.500000
O O2 0.436961 0.063040 0.220425
O O3 0.504780 0.171436 0.218455
O O4 0.558192 0.058192 0.221467
O O5 0.415246 0.497152 0.000000
O O6 0.391870 0.595770 0.818972
O O7 0.401761 0.331863 0.500000
O O8 0.327619 0.305762 0.233542
O O9 0.458107 0.284469 0.221212
O O10 0.742308 0.659065 0.500000
O O11 0.797523 0.702478 0.215046
O O12 0.739763 0.588353 0.217497
O O13 0.481658 0.755392 0.500000
#
# Coordination Sequence:
#
# PCOD9564199 Si02
#       5
#    16   8  16  16  16
#     4   8  13  21  36  64 102 139 177 223 272 327
#     4  11  24  40  59  82 108 141 181 228 282 336
#     4  10  21  37  57  82 112 145 184 230 278 331
#     4   9  17  30  50  76 106 141 181 225 273 326
#     4   9  16  27  46  71 102 141 181 223 273 328
#
# _framework density 21.588201999999999
#
# number of rings (size 3 to 8) (size 9 to 14) (size 15 to 20)
#    0.000    2.778    0.000    2.667    0.000    6.222 
#    0.000    6.111    0.000    0.000    0.000    2.333 
#    0.000    1.778    0.000    0.222    0.000    0.000 
#
# Total GULP energy -401770.055127 kJ/mol
# GULP energy per Si atom -5580.139655 kJ/mol
# Density = 2.153907 g / cm^3
# Si number density = 21.588202 Si / 1000 Ang^3
#
#
#
# Elastic Constant Matrix: (Units=GPa)
#
#
# Indices 1 2 3 4 5 6 
#
# 1 180.5963 45.9344 12.5969 0.0000 0.0000 0.0000
# 2 45.9344 180.5963 12.5969 0.0000 0.0000 0.0000
# 3 12.5969 12.5969 78.1316 0.0000 0.0000 0.0000
# 4 0.0000 0.0000 0.0000 -96.8949 0.0000 0.0000
# 5 0.0000 0.0000 0.0000 0.0000 -96.8949 0.0000
# 6 0.0000 0.0000 0.0000 0.0000 0.0000 -3.9256
#
#
#
# Elastic Compliance Matrix: (Units=1/GPa)
#
#
# Indices 1 2 3 4 5 6 
#
# 1 0.005961 -0.001465 -0.000725 0.000000 0.000000 0.000000
# 2 -0.001465 0.005961 -0.000725 0.000000 0.000000 0.000000
# 3 -0.000725 -0.000725 0.013033 0.000000 0.000000 0.000000
# 4 0.000000 0.000000 0.000000 -0.010320 0.000000 0.000000
# 5 0.000000 0.000000 0.000000 0.000000 -0.010320 0.000000
# 6 0.000000 0.000000 0.000000 0.000000 0.000000 -0.254736
#
#
# Mechanical properties :
#
#
# Convention : Reuss Voigt Hill
#
# Bulk Modulus (GPa) = 52.29096 64.62008 58.45552
# Shear Modulus (GPa) = -20.98906 -14.99669 -17.99287
#
# Velocity S-wave (km/s) = -3.12147 -2.63852 -2.89010
# Velocity P-wave (km/s) = 3.35904 4.55145 3.99993
#
# Compressibility (1/GPa) = 0.01912376
#
# Stress axis : x y z
#
# Youngs Moduli (GPa) = 167.77093 167.77093 76.73060
#
# Poissons Ratio (x) = 0.24587 0.05561
# Poissons Ratio (y) = 0.24587 0.05561
# Poissons Ratio (z) = 0.12159 0.12159
#
# Static dielectric constant tensor:
#      x y z
#    x 1.764870 0.000000 0.000000 
#    y 0.000000 1.764870 0.000000 
#    z 0.000000 0.000000 1.787510 
# 
# From -- ./inp_files/1520.got.cif
#   From: 2010.05.17/outbox.cif.g08.bks.cpg/sg127_1_cif.got.tgz:1520.got - 2010.05.20 12:03:00.
