data_PCOD9564058
_publ_section_title
;
Structure prediction by ZEFSAII (Michael W. Deem and Ramdas Pophale) SiO2 
 PCOD9564058
Probable space group: P 4/M B M
;
_chemical_formula_sum "Si O2"
_cell_formula_units_Z 96
_cell_length_a 14.227822
_cell_length_b 14.227822
_cell_length_c 24.951300
_cell_angle_alpha 90.000000
_cell_angle_beta 90.000000
_cell_angle_gamma 90.000000
_cell_volume 5050.914586
_symmetry_space_group_name_H-M "P 4/M B M"
_symmetry_group_IT_number 127
_symmetry_cell_setting 'tetragonal'
loop_
_space_group_symop_operation_xyz
x,y,z
-y,x,z
-x,-y,z
y,-x,z
1/2+x,1/2-y,-z
1/2-x,1/2+y,-z
1/2+y,1/2+x,-z
1/2-y,1/2-x,-z
-x,-y,-z
y,-x,-z
x,y,-z
-y,x,-z
1/2-x,1/2+y,z
1/2+x,1/2-y,z
1/2-y,1/2-x,z
1/2+y,1/2+x,z
loop_
_atom_site_type_symbol
_atom_site_label
_atom_site_fract_x
_atom_site_fract_y
_atom_site_fract_z
Si Si1 0.848996 0.503664 0.097835
Si Si2 0.739615 0.606788 0.615036
Si Si3 0.864016 0.077369 0.278203
Si Si4 0.137813 0.797891 0.942332
Si Si5 0.628382 0.283108 0.836382
Si Si6 0.596070 0.747596 0.563484
O O1 0.911713 0.588288 0.072912
O O2 0.771407 0.451481 0.062351
O O3 0.792867 0.549938 0.146604
O O4 0.923153 0.423153 0.113962
O O5 0.833633 0.666368 0.606293
O O6 0.708335 0.611750 0.676991
O O7 0.657139 0.657891 0.581631
O O8 0.750784 0.500691 0.595527
O O9 0.833056 0.100038 0.217919
O O10 0.965976 0.123311 0.286212
O O11 0.228938 0.728938 0.942532
O O12 0.149684 0.858074 0.888341
O O13 0.135815 0.847894 0.000000
O O14 0.725300 0.225300 0.828726
O O15 0.577768 0.743711 0.500000
O O16 0.662030 0.837971 0.574438
#
# Coordination Sequence:
#
# PCOD9564058 Si02
#       6
#    16  16  16  16  16  16
#     4   9  18  33  53  78 107 139 181 231 283 346
#     4  11  22  40  63  91 127 167 210 257 307 357
#     4  11  22  38  59  83 113 151 202 256 301 357
#     4   9  18  32  50  75 108 143 181 229 287 353
#     4  10  20  35  55  80 109 147 189 233 295 360
#     4  10  22  40  64  96 131 168 209 251 301 364
#
# _framework density 19.006460000000001
#
# number of rings (size 3 to 8) (size 9 to 14) (size 15 to 20)
#    0.000    2.000    1.667    2.000    0.000    2.667 
#    0.000    6.667    0.000    2.000    0.000    3.500 
#    0.000    0.000    0.000    0.000    0.000    0.000 
#
# Total GULP energy -535693.681171 kJ/mol
# GULP energy per Si atom -5580.142512 kJ/mol
# Density = 1.896320 g / cm^3
# Si number density = 19.006460 Si / 1000 Ang^3
#
#
#
# Elastic Constant Matrix: (Units=GPa)
#
#
# Indices 1 2 3 4 5 6 
#
# 1 63.1158 37.8934 31.8522 0.0000 0.0000 0.0000
# 2 37.8934 63.1158 31.8522 0.0000 0.0000 0.0000
# 3 31.8522 31.8522 102.9681 0.0000 0.0000 0.0000
# 4 0.0000 0.0000 0.0000 17.6847 0.0000 0.0000
# 5 0.0000 0.0000 0.0000 0.0000 17.6847 0.0000
# 6 0.0000 0.0000 0.0000 0.0000 0.0000 10.3147
#
#
#
# Elastic Compliance Matrix: (Units=1/GPa)
#
#
# Indices 1 2 3 4 5 6 
#
# 1 0.025974 -0.013674 -0.003805 0.000000 0.000000 0.000000
# 2 -0.013674 0.025974 -0.003805 0.000000 0.000000 0.000000
# 3 -0.003805 -0.003805 0.012066 0.000000 0.000000 0.000000
# 4 0.000000 0.000000 0.000000 0.056546 0.000000 0.000000
# 5 0.000000 0.000000 0.000000 0.000000 0.056546 0.000000
# 6 0.000000 0.000000 0.000000 0.000000 0.000000 0.096949
#
#
# Mechanical properties :
#
#
# Convention : Reuss Voigt Hill
#
# Bulk Modulus (GPa) = 46.62895 48.04394 47.33645
# Shear Modulus (GPa) = 15.44310 17.64361 16.54335
#
# Velocity S-wave (km/s) = 2.85356 3.05010 2.95347
# Velocity P-wave (km/s) = 5.95345 6.14302 6.04898
#
# Compressibility (1/GPa) = 0.02144590
#
# Stress axis : x y z
#
# Youngs Moduli (GPa) = 38.50068 38.50068 82.87955
#
# Poissons Ratio (x) = 0.52645 0.31534
# Poissons Ratio (y) = 0.52645 0.31534
# Poissons Ratio (z) = 0.14649 0.14649
#
# Static dielectric constant tensor:
#      x y z
#    x 1.663470 0.000000 0.000000 
#    y 0.000000 1.663470 0.000000 
#    z 0.000000 0.000000 1.644280 
# 
# From -- ./inp_files/5756.got.cif
#   From: 2010.05.17/outbox.cif.g08.bks.cpg/sg127_3_cif.got.tgz:5756.got - 2010.05.20 12:03:00.
