data_PCOD9564978
_publ_section_title
;
Structure prediction by ZEFSAII (Michael W. Deem and Ramdas Pophale) SiO2 
 PCOD9564978
Probable space group: P 4/M N C
;
_chemical_formula_sum "Si O2"
_cell_formula_units_Z 64
_cell_length_a 14.928969
_cell_length_b 14.928969
_cell_length_c 14.267934
_cell_angle_alpha 90.000000
_cell_angle_beta 90.000000
_cell_angle_gamma 90.000000
_cell_volume 3179.953169
_symmetry_space_group_name_H-M "P 4/M N C"
_symmetry_group_IT_number 128
_symmetry_cell_setting 'tetragonal'
loop_
_space_group_symop_operation_xyz
x,y,z
-y,x,z
-x,-y,z
y,-x,z
1/2+x,1/2-y,1/2-z
1/2-x,1/2+y,1/2-z
1/2+y,1/2+x,1/2-z
1/2-y,1/2-x,1/2-z
-x,-y,-z
y,-x,-z
x,y,-z
-y,x,-z
1/2-x,1/2+y,1/2+z
1/2+x,1/2-y,1/2+z
1/2-y,1/2-x,1/2+z
1/2+y,1/2+x,1/2+z
loop_
_atom_site_type_symbol
_atom_site_label
_atom_site_fract_x
_atom_site_fract_y
_atom_site_fract_z
Si Si1 0.079171 0.230603 0.106162
Si Si2 0.391798 0.272181 0.305598
Si Si3 0.560155 0.083135 0.861283
Si Si4 0.605645 0.799067 0.891485
O O1 0.164797 0.183215 0.150615
O O2 0.089159 0.338399 0.104376
O O3 0.991835 0.203809 0.164994
O O4 0.067609 0.199200 0.000000
O O5 0.382278 0.271007 0.193196
O O6 0.375747 0.174116 0.353498
O O7 0.570689 0.070689 0.750000
O O8 0.496482 0.166820 0.883944
O O9 0.500000 0.000000 0.896189
O O10 0.625962 0.776917 0.000000
#
# Coordination Sequence:
#
# PCOD9564978 Si02
#       4
#    16  16  16  16
#     4  12  24  41  66  93 129 175 214 266 327 386
#     4  11  25  42  60  93 131 167 224 270 314 392
#     4  11  20  38  65 100 131 161 208 269 330 390
#     4  11  22  40  64  93 130 168 210 271 335 389
#
# _framework density 20.126083000000001
#
# number of rings (size 3 to 8) (size 9 to 14) (size 15 to 20)
#    0.000    0.750    5.000    4.500    3.500    1.500 
#    0.000    2.500    0.000    0.000    0.000    1.750 
#    0.000    0.000    0.000    0.000    0.000    0.000 
#
# Total GULP energy -357321.537293 kJ/mol
# GULP energy per Si atom -5583.149020 kJ/mol
# Density = 2.008028 g / cm^3
# Si number density = 20.126083 Si / 1000 Ang^3
#
#
#
# Elastic Constant Matrix: (Units=GPa)
#
#
# Indices 1 2 3 4 5 6 
#
# 1 60.0325 50.1466 19.8509 0.0000 0.0000 0.0000
# 2 50.1466 60.0325 19.8509 0.0000 0.0000 0.0000
# 3 19.8509 19.8509 198.0574 0.0000 0.0000 0.0000
# 4 0.0000 0.0000 0.0000 -11.1485 0.0000 0.0000
# 5 0.0000 0.0000 0.0000 0.0000 -11.1485 0.0000
# 6 0.0000 0.0000 0.0000 0.0000 0.0000 33.1203
#
#
#
# Elastic Compliance Matrix: (Units=1/GPa)
#
#
# Indices 1 2 3 4 5 6 
#
# 1 0.055285 -0.045869 -0.000944 0.000000 0.000000 0.000000
# 2 -0.045869 0.055285 -0.000944 0.000000 0.000000 0.000000
# 3 -0.000944 -0.000944 0.005238 0.000000 0.000000 0.000000
# 4 0.000000 0.000000 0.000000 -0.089698 0.000000 0.000000
# 5 0.000000 0.000000 0.000000 0.000000 -0.089698 0.000000
# 6 0.000000 0.000000 0.000000 0.000000 0.000000 0.030193
#
#
# Mechanical properties :
#
#
# Convention : Reuss Voigt Hill
#
# Bulk Modulus (GPa) = 49.27181 55.31322 52.29252
# Shear Modulus (GPa) = 72.58526 17.38292 44.98409
#
# Velocity S-wave (km/s) = 6.01195 2.94207 4.73283
# Velocity P-wave (km/s) = 8.52796 6.25172 7.47697
#
# Compressibility (1/GPa) = 0.02029558
#
# Stress axis : x y z
#
# Youngs Moduli (GPa) = 18.08798 18.08798 190.90433
#
# Poissons Ratio (x) = 0.82968 0.18017
# Poissons Ratio (y) = 0.82968 0.18017
# Poissons Ratio (z) = 0.01707 0.01707
#
# Static dielectric constant tensor:
#      x y z
#    x 1.726280 0.000000 0.000000 
#    y 0.000000 1.726280 0.000000 
#    z 0.000000 0.000000 1.734300 
# 
# From -- ./inp_files/3520.got.cif
#   From: 2010.05.17/outbox.cif.g08.bks.cpg/sg128_2_cif.got.tgz:3520.got - 2010.05.20 12:07:25.
