data_PCOD9564201
_publ_section_title
;
Structure prediction by ZEFSAII (Michael W. Deem and Ramdas Pophale) SiO2 
 PCOD9564201
Probable space group: P 4/M B M
;
_chemical_formula_sum "Si O2"
_cell_formula_units_Z 96
_cell_length_a 24.431104
_cell_length_b 24.431104
_cell_length_c 8.893059
_cell_angle_alpha 90.000000
_cell_angle_beta 90.000000
_cell_angle_gamma 90.000000
_cell_volume 5308.078764
_symmetry_space_group_name_H-M "P 4/M B M"
_symmetry_group_IT_number 127
_symmetry_cell_setting 'tetragonal'
loop_
_space_group_symop_operation_xyz
x,y,z
-y,x,z
-x,-y,z
y,-x,z
1/2+x,1/2-y,-z
1/2-x,1/2+y,-z
1/2+y,1/2+x,-z
1/2-y,1/2-x,-z
-x,-y,-z
y,-x,-z
x,y,-z
-y,x,-z
1/2-x,1/2+y,z
1/2+x,1/2-y,z
1/2-y,1/2-x,z
1/2+y,1/2+x,z
loop_
_atom_site_type_symbol
_atom_site_label
_atom_site_fract_x
_atom_site_fract_y
_atom_site_fract_z
Si Si1 0.937352 0.228900 0.180417
Si Si2 0.437215 0.728128 0.180225
Si Si3 0.434709 0.436225 0.165567
Si Si4 0.054229 0.355786 0.819516
Si Si5 0.939297 0.348753 0.320421
Si Si6 0.859861 0.139966 0.326636
O O1 0.930529 0.290386 0.240927
O O2 0.889212 0.190961 0.244991
O O3 0.000073 0.211220 0.224132
O O4 0.935793 0.228356 0.000000
O O5 0.432378 0.792515 0.217037
O O6 0.388721 0.693316 0.254178
O O7 0.433836 0.721984 0.000000
O O8 0.499138 0.426066 0.169619
O O9 0.404885 0.407195 0.300401
O O10 0.414634 0.416292 0.000000
O O11 0.103078 0.396923 0.781079
O O12 0.997921 0.370157 0.736934
O O13 0.045394 0.358065 0.000000
O O14 0.940716 0.341021 0.500000
O O15 0.891529 0.391529 0.283644
O O16 0.850471 0.152699 0.500000
#
# Coordination Sequence:
#
# PCOD9564201 Si02
#       6
#    16  16  16  16  16  16
#     4  10  21  38  59  79 104 144 190 232 272 318
#     4   9  19  36  56  77 104 141 184 229 275 321
#     4   9  18  32  48  66  92 129 173 222 274 325
#     4   9  19  37  61  87 113 144 184 225 263 313
#     4  10  21  37  58  86 119 148 174 213 269 329
#     4  12  23  32  48  75 105 139 180 226 276 328
#
# _framework density 18.085640000000001
#
# number of rings (size 3 to 8) (size 9 to 14) (size 15 to 20)
#    0.000    2.167    0.000    5.000    0.000   10.000 
#    0.000    3.333    0.000    3.000    0.000    0.000 
#    0.000    0.000    0.000    0.000    0.000    0.000 
#
# Total GULP energy -535540.176638 kJ/mol
# GULP energy per Si atom -5578.543507 kJ/mol
# Density = 1.804448 g / cm^3
# Si number density = 18.085640 Si / 1000 Ang^3
#
#
#
# Elastic Constant Matrix: (Units=GPa)
#
#
# Indices 1 2 3 4 5 6 
#
# 1 106.6669 77.2124 48.1040 0.0000 0.0000 0.0000
# 2 77.2124 106.6669 48.1040 0.0000 0.0000 0.0000
# 3 48.1040 48.1040 64.6156 0.0000 0.0000 0.0000
# 4 0.0000 0.0000 0.0000 16.2533 0.0000 0.0000
# 5 0.0000 0.0000 0.0000 0.0000 16.2533 0.0000
# 6 0.0000 0.0000 0.0000 0.0000 0.0000 36.4629
#
#
#
# Elastic Compliance Matrix: (Units=1/GPa)
#
#
# Indices 1 2 3 4 5 6 
#
# 1 0.021429 -0.012521 -0.006632 0.000000 0.000000 0.000000
# 2 -0.012521 0.021429 -0.006632 0.000000 0.000000 0.000000
# 3 -0.006632 -0.006632 0.025350 0.000000 0.000000 0.000000
# 4 0.000000 0.000000 0.000000 0.061526 0.000000 0.000000
# 5 0.000000 0.000000 0.000000 0.000000 0.061526 0.000000
# 6 0.000000 0.000000 0.000000 0.000000 0.000000 0.027425
#
#
# Mechanical properties :
#
#
# Convention : Reuss Voigt Hill
#
# Bulk Modulus (GPa) = 60.09790 69.42115 64.75952
# Shear Modulus (GPa) = 18.12887 20.76248 19.44568
#
# Velocity S-wave (km/s) = 3.16949 3.39190 3.28258
# Velocity P-wave (km/s) = 6.83345 7.33540 7.08886
#
# Compressibility (1/GPa) = 0.01663952
#
# Stress axis : x y z
#
# Youngs Moduli (GPa) = 46.66465 46.66465 39.44700
#
# Poissons Ratio (x) = 0.58430 0.26161
# Poissons Ratio (y) = 0.58430 0.26161
# Poissons Ratio (z) = 0.30947 0.30947
#
# Static dielectric constant tensor:
#      x y z
#    x 1.622720 0.000000 0.000000 
#    y 0.000000 1.622720 0.000000 
#    z 0.000000 0.000000 1.624100 
# 
# From -- ./inp_files/2044.got.cif
#   From: 2010.05.17/outbox.cif.g08.bks.cpg/sg127_2_cif.got.tgz:2044.got - 2010.05.20 12:03:00.
