data_PCOD9564567
_publ_section_title
;
Structure prediction by ZEFSAII (Michael W. Deem and Ramdas Pophale) SiO2 
 PCOD9564567
Probable space group: P 4/M N C
;
_chemical_formula_sum "Si O2"
_cell_formula_units_Z 116
_cell_length_a 30.259051
_cell_length_b 30.259051
_cell_length_c 8.676565
_cell_angle_alpha 90.000000
_cell_angle_beta 90.000000
_cell_angle_gamma 90.000000
_cell_volume 7944.351132
_symmetry_space_group_name_H-M "P 4/M N C"
_symmetry_group_IT_number 128
_symmetry_cell_setting 'tetragonal'
loop_
_space_group_symop_operation_xyz
x,y,z
-y,x,z
-x,-y,z
y,-x,z
1/2+x,1/2-y,1/2-z
1/2-x,1/2+y,1/2-z
1/2+y,1/2+x,1/2-z
1/2-y,1/2-x,1/2-z
-x,-y,-z
y,-x,-z
x,y,-z
-y,x,-z
1/2-x,1/2+y,1/2+z
1/2+x,1/2-y,1/2+z
1/2-y,1/2-x,1/2+z
1/2+y,1/2+x,1/2+z
loop_
_atom_site_type_symbol
_atom_site_label
_atom_site_fract_x
_atom_site_fract_y
_atom_site_fract_z
Si Si1 0.803008 0.995244 0.316528
Si Si2 0.016547 0.096749 0.317719
Si Si3 0.775115 0.086291 0.821121
Si Si4 0.761499 0.671991 0.817126
Si Si5 0.000000 0.000000 0.216328
Si Si6 0.606555 0.378783 0.679214
Si Si7 0.741584 0.308607 0.314593
Si Si8 0.792805 0.902857 0.815137
O O1 0.803063 0.999603 0.500000
O O2 0.855252 0.997565 0.268791
O O3 0.777852 0.036929 0.244508
O O4 0.782485 0.949074 0.264253
O O5 0.008005 0.089013 0.500000
O O6 0.068951 0.101503 0.287911
O O7 0.998529 0.054543 0.227266
O O8 0.745582 0.121436 0.730791
O O9 0.825802 0.103264 0.810557
O O10 0.762494 0.085966 0.000000
O O11 0.805553 0.694448 0.750000
O O12 0.721241 0.701028 0.746889
O O13 0.760812 0.676979 0.000000
O O14 0.597496 0.390857 0.500000
O O15 0.655816 0.392772 0.719929
O O16 0.785420 0.285420 0.250000
O O17 0.734541 0.359465 0.268266
O O18 0.806242 0.241017 0.000000
O O19 0.789047 0.907565 0.000000
#
# Coordination Sequence:
#
# PCOD9564567 Si02
#       8
#    16  16  16  16   4  16  16  16
#     4  10  21  33  46  66  84 106 146 186 221 270
#     4  10  20  32  44  58  75  98 133 175 225 274
#     4  10  18  33  50  65  88 117 145 182 226 270
#     4  11  20  30  47  71  96 120 147 180 222 272
#     4  12  21  32  45  54  73 100 125 174 233 276
#     4   9  18  32  47  60  79 105 135 175 224 271
#     4  10  19  32  47  68  93 117 147 181 225 275
#     4  10  19  32  47  63  85 114 145 177 222 273
#
# _framework density 14.601570000000001
#
# number of rings (size 3 to 8) (size 9 to 14) (size 15 to 20)
#    0.000    1.931    1.379    4.759    0.000    3.862 
#    0.000    1.034    0.000    0.000    0.000    0.000 
#    0.000    0.000    0.000    0.000    0.000    0.690 
#
# Total GULP energy -646476.970492 kJ/mol
# GULP energy per Si atom -5573.077332 kJ/mol
# Density = 1.456834 g / cm^3
# Si number density = 14.601570 Si / 1000 Ang^3
#
#
#
# Elastic Constant Matrix: (Units=GPa)
#
#
# Indices 1 2 3 4 5 6 
#
# 1 68.8951 43.1480 27.1345 0.0000 0.0000 0.0000
# 2 43.1480 68.8994 27.1340 0.0000 0.0000 0.0000
# 3 27.1345 27.1340 45.0079 0.0000 0.0000 0.0000
# 4 0.0000 0.0000 0.0000 9.3173 0.0000 0.0000
# 5 0.0000 0.0000 0.0000 0.0000 9.3167 0.0000
# 6 0.0000 0.0000 0.0000 0.0000 0.0000 15.0116
#
#
#
# Elastic Compliance Matrix: (Units=1/GPa)
#
#
# Indices 1 2 3 4 5 6 
#
# 1 0.025722 -0.013115 -0.007601 0.000000 0.000000 0.000000
# 2 -0.013115 0.025720 -0.007599 0.000000 0.000000 0.000000
# 3 -0.007601 -0.007599 0.031382 0.000000 0.000000 0.000000
# 4 0.000000 0.000000 0.000000 0.107327 0.000000 0.000000
# 5 0.000000 0.000000 0.000000 0.000000 0.107334 0.000000
# 6 0.000000 0.000000 0.000000 0.000000 0.000000 0.066615
#
#
# Mechanical properties :
#
#
# Convention : Reuss Voigt Hill
#
# Bulk Modulus (GPa) = 38.17613 41.95948 40.06781
# Shear Modulus (GPa) = 11.64252 12.42153 12.03202
#
# Velocity S-wave (km/s) = 2.82680 2.91984 2.87369
# Velocity P-wave (km/s) = 6.07094 6.33766 6.20573
#
# Compressibility (1/GPa) = 0.02619438
#
# Stress axis : x y z
#
# Youngs Moduli (GPa) = 38.87693 38.88060 31.86564
#
# Poissons Ratio (x) = 0.50992 0.24220
# Poissons Ratio (y) = 0.50987 0.24214
# Poissons Ratio (z) = 0.29549 0.29545
#
# Static dielectric constant tensor:
#      x y z
#    x 1.479370 0.000000 0.000000 
#    y 0.000000 1.479370 0.000000 
#    z 0.000000 0.000000 1.507270 
# 
# From -- ./inp_files/1796.got.cif
#   From: 2010.05.17/outbox.cif.g08.bks.cpg/sg128_1_cif.got.tgz:1796.got - 2010.05.20 12:07:25.
