data_PCOD9564135
_publ_section_title
;
Structure prediction by ZEFSAII (Michael W. Deem and Ramdas Pophale) SiO2 
 PCOD9564135
Probable space group: P 4/M B M
;
_chemical_formula_sum "Si O2"
_cell_formula_units_Z 48
_cell_length_a 14.546104
_cell_length_b 14.546104
_cell_length_c 13.867673
_cell_angle_alpha 90.000000
_cell_angle_beta 90.000000
_cell_angle_gamma 90.000000
_cell_volume 2934.249026
_symmetry_space_group_name_H-M "P 4/M B M"
_symmetry_group_IT_number 127
_symmetry_cell_setting 'tetragonal'
loop_
_space_group_symop_operation_xyz
x,y,z
-y,x,z
-x,-y,z
y,-x,z
1/2+x,1/2-y,-z
1/2-x,1/2+y,-z
1/2+y,1/2+x,-z
1/2-y,1/2-x,-z
-x,-y,-z
y,-x,-z
x,y,-z
-y,x,-z
1/2-x,1/2+y,z
1/2+x,1/2-y,z
1/2-y,1/2-x,z
1/2+y,1/2+x,z
loop_
_atom_site_type_symbol
_atom_site_label
_atom_site_fract_x
_atom_site_fract_y
_atom_site_fract_z
Si Si1 0.346092 0.506275 0.887568
Si Si2 0.221513 0.721513 0.613348
Si Si3 0.450114 0.195484 0.732180
Si Si4 0.623449 0.123449 0.386100
O O1 0.407664 0.415186 0.872330
O O2 0.261566 0.513580 0.815307
O O3 0.317920 0.507398 0.000000
O O4 0.206637 0.706637 0.500000
O O5 0.247259 0.625571 0.665432
O O6 0.298523 0.798523 0.625764
O O7 0.391149 0.108852 0.771503
O O8 0.531390 0.158193 0.665554
O O9 0.608365 0.108365 0.500000
#
# Coordination Sequence:
#
# PCOD9564135 Si02
#       4
#    16   8  16   8
#     4   9  18  35  58  81 108 145 187 229 276 328
#     4   9  20  34  51  79 107 144 188 225 269 325
#     4  10  21  33  54  80 112 142 184 224 273 326
#     4  11  21  36  57  78 111 150 184 228 278 326
#
# _framework density 16.358530999999999
#
# number of rings (size 3 to 8) (size 9 to 14) (size 15 to 20)
#    1.000    1.333    0.000    4.500    0.000    1.333 
#    0.000    0.833    0.000    2.000    0.000   14.000 
#    0.000    0.000    0.000    0.000    0.000    0.000 
#
# Total GULP energy -267350.566316 kJ/mol
# GULP energy per Si atom -5569.803465 kJ/mol
# Density = 1.632130 g / cm^3
# Si number density = 16.358531 Si / 1000 Ang^3
#
#
#
# Elastic Constant Matrix: (Units=GPa)
#
#
# Indices 1 2 3 4 5 6 
#
# 1 68.4545 39.1302 56.7581 0.0000 0.0000 0.0000
# 2 39.1302 68.4545 56.7581 0.0000 0.0000 0.0000
# 3 56.7581 56.7581 105.2671 0.0000 0.0000 0.0000
# 4 0.0000 0.0000 0.0000 26.2422 0.0000 0.0000
# 5 0.0000 0.0000 0.0000 0.0000 26.2422 0.0000
# 6 0.0000 0.0000 0.0000 0.0000 0.0000 15.3710
#
#
#
# Elastic Compliance Matrix: (Units=1/GPa)
#
#
# Indices 1 2 3 4 5 6 
#
# 1 0.027831 -0.006270 -0.011626 0.000000 0.000000 0.000000
# 2 -0.006270 0.027831 -0.011626 0.000000 0.000000 0.000000
# 3 -0.011626 -0.011626 0.022036 0.000000 0.000000 0.000000
# 4 0.000000 0.000000 0.000000 0.038107 0.000000 0.000000
# 5 0.000000 0.000000 0.000000 0.000000 0.038107 0.000000
# 6 0.000000 0.000000 0.000000 0.000000 0.000000 0.065058
#
#
# Mechanical properties :
#
#
# Convention : Reuss Voigt Hill
#
# Bulk Modulus (GPa) = 53.59923 60.82988 57.21455
# Shear Modulus (GPa) = 17.59132 19.53972 18.56552
#
# Velocity S-wave (km/s) = 3.28283 3.45986 3.37250
# Velocity P-wave (km/s) = 6.87064 7.29568 7.08635
#
# Compressibility (1/GPa) = 0.01865698
#
# Stress axis : x y z
#
# Youngs Moduli (GPa) = 35.93058 35.93058 45.37983
#
# Poissons Ratio (x) = 0.22528 0.52757
# Poissons Ratio (y) = 0.22528 0.52757
# Poissons Ratio (z) = 0.41771 0.41771
#
# Static dielectric constant tensor:
#      x y z
#    x 1.539520 0.000000 0.000000 
#    y 0.000000 1.539520 0.000000 
#    z 0.000000 0.000000 1.521870 
# 
# From -- ./inp_files/2746.got.cif
#   From: 2010.05.17/outbox.cif.g08.bks.cpg/sg127_2_cif.got.tgz:2746.got - 2010.05.20 12:03:00.
