data_PCOD9564693
_publ_section_title
;
Structure prediction by ZEFSAII (Michael W. Deem and Ramdas Pophale) SiO2 
 PCOD9564693
Probable space group: P 4/M N C
;
_chemical_formula_sum "Si O2"
_cell_formula_units_Z 96
_cell_length_a 27.218329
_cell_length_b 27.218329
_cell_length_c 9.019719
_cell_angle_alpha 90.000000
_cell_angle_beta 90.000000
_cell_angle_gamma 90.000000
_cell_volume 6682.145475
_symmetry_space_group_name_H-M "P 4/M N C"
_symmetry_group_IT_number 128
_symmetry_cell_setting 'tetragonal'
loop_
_space_group_symop_operation_xyz
x,y,z
-y,x,z
-x,-y,z
y,-x,z
1/2+x,1/2-y,1/2-z
1/2-x,1/2+y,1/2-z
1/2+y,1/2+x,1/2-z
1/2-y,1/2-x,1/2-z
-x,-y,-z
y,-x,-z
x,y,-z
-y,x,-z
1/2-x,1/2+y,1/2+z
1/2+x,1/2-y,1/2+z
1/2-y,1/2-x,1/2+z
1/2+y,1/2+x,1/2+z
loop_
_atom_site_type_symbol
_atom_site_label
_atom_site_fract_x
_atom_site_fract_y
_atom_site_fract_z
Si Si1 0.205729 0.078184 0.322870
Si Si2 0.330277 0.483547 0.328227
Si Si3 0.803965 0.766074 0.170080
Si Si4 0.219759 0.649907 0.330738
Si Si5 0.123216 0.160058 0.677500
Si Si6 0.491259 0.418441 0.838071
O O1 0.208708 0.076615 0.500000
O O2 0.203332 0.023735 0.254157
O O3 0.252186 0.107307 0.257120
O O4 0.156919 0.111788 0.285800
O O5 0.318002 0.478534 0.500000
O O6 0.336263 0.430336 0.251783
O O7 0.383285 0.508443 0.300538
O O8 0.781644 0.718357 0.250000
O O9 0.759517 0.805650 0.164300
O O10 0.845872 0.793328 0.263605
O O11 0.819062 0.756583 0.000000
O O12 0.172310 0.672310 0.250000
O O13 0.209282 0.635625 0.500000
O O14 0.118117 0.160703 0.500000
O O15 0.541862 0.448481 0.836355
O O16 0.488337 0.392255 0.000000
#
# Coordination Sequence:
#
# PCOD9564693 Si02
#       6
#    16  16  16  16  16  16
#     4  10  20  33  47  61  79 106 139 173 210 251
#     4  12  23  31  41  58  80 104 132 169 211 252
#     4   9  16  27  44  65  86 105 128 161 201 244
#     4   9  16  27  44  65  86 105 128 161 201 244
#     4  10  20  33  47  61  79 106 139 173 210 251
#     4   9  18  32  46  56  68  92 128 168 209 251
#
# _framework density 14.366643
#
# number of rings (size 3 to 8) (size 9 to 14) (size 15 to 20)
#    0.000    2.167    0.000    5.000    0.000   10.667 
#    0.000    0.833    0.000    0.000    0.000    0.000 
#    0.000    0.000    0.000    0.000    0.000    0.833 
#
# Total GULP energy -535022.576850 kJ/mol
# GULP energy per Si atom -5573.151842 kJ/mol
# Density = 1.433394 g / cm^3
# Si number density = 14.366643 Si / 1000 Ang^3
#
#
#
# Elastic Constant Matrix: (Units=GPa)
#
#
# Indices 1 2 3 4 5 6 
#
# 1 37.9451 22.3972 26.8338 0.0000 0.0000 0.0000
# 2 22.3972 37.9456 26.8343 0.0000 0.0000 0.0000
# 3 26.8338 26.8343 86.6956 0.0000 0.0000 0.0000
# 4 0.0000 0.0000 0.0000 17.9388 0.0000 0.0000
# 5 0.0000 0.0000 0.0000 0.0000 17.9390 0.0000
# 6 0.0000 0.0000 0.0000 0.0000 0.0000 11.2884
#
#
#
# Elastic Compliance Matrix: (Units=1/GPa)
#
#
# Indices 1 2 3 4 5 6 
#
# 1 0.043592 -0.020725 -0.007078 0.000000 0.000000 0.000000
# 2 -0.020725 0.043591 -0.007078 0.000000 0.000000 0.000000
# 3 -0.007078 -0.007078 0.015916 0.000000 0.000000 0.000000
# 4 0.000000 0.000000 0.000000 0.055745 0.000000 0.000000
# 5 0.000000 0.000000 0.000000 0.000000 0.055744 0.000000
# 6 0.000000 0.000000 0.000000 0.000000 0.000000 0.088586
#
#
# Mechanical properties :
#
#
# Convention : Reuss Voigt Hill
#
# Bulk Modulus (GPa) = 29.99503 34.96854 32.48178
# Shear Modulus (GPa) = 13.01918 15.20130 14.11024
#
# Velocity S-wave (km/s) = 3.01360 3.25637 3.13733
# Velocity P-wave (km/s) = 5.74740 6.20738 5.98181
#
# Compressibility (1/GPa) = 0.03333886
#
# Stress axis : x y z
#
# Youngs Moduli (GPa) = 22.94011 22.94028 62.82962
#
# Poissons Ratio (x) = 0.47543 0.44469
# Poissons Ratio (y) = 0.47542 0.44471
# Poissons Ratio (z) = 0.16236 0.16237
#
# Static dielectric constant tensor:
#      x y z
#    x 1.478350 0.000000 0.000000 
#    y 0.000000 1.478350 0.000000 
#    z 0.000000 0.000000 1.496000 
# 
# From -- ./inp_files/1418.got.cif
#   From: 2010.05.17/outbox.cif.g08.bks.cpg/sg128_1_cif.got.tgz:1418.got - 2010.05.20 12:07:25.
