data_PCOD9564759
_publ_section_title
;
Structure prediction by ZEFSAII (Michael W. Deem and Ramdas Pophale) SiO2 
 PCOD9564759
Probable space group: P 4/M N C
;
_chemical_formula_sum "Si O2"
_cell_formula_units_Z 88
_cell_length_a 12.493947
_cell_length_b 12.493947
_cell_length_c 33.274080
_cell_angle_alpha 90.000000
_cell_angle_beta 90.000000
_cell_angle_gamma 90.000000
_cell_volume 5194.041019
_symmetry_space_group_name_H-M "P 4/M N C"
_symmetry_group_IT_number 128
_symmetry_cell_setting 'tetragonal'
loop_
_space_group_symop_operation_xyz
x,y,z
-y,x,z
-x,-y,z
y,-x,z
1/2+x,1/2-y,1/2-z
1/2-x,1/2+y,1/2-z
1/2+y,1/2+x,1/2-z
1/2-y,1/2-x,1/2-z
-x,-y,-z
y,-x,-z
x,y,-z
-y,x,-z
1/2-x,1/2+y,1/2+z
1/2+x,1/2-y,1/2+z
1/2-y,1/2-x,1/2+z
1/2+y,1/2+x,1/2+z
loop_
_atom_site_type_symbol
_atom_site_label
_atom_site_fract_x
_atom_site_fract_y
_atom_site_fract_z
Si Si1 0.890970 0.390970 0.750000
Si Si2 0.706022 0.716145 0.916208
Si Si3 0.502886 0.222135 0.869016
Si Si4 0.667575 0.453971 0.786732
Si Si5 0.000000 0.500000 0.321404
Si Si6 0.632286 0.620812 0.000000
Si Si7 0.125463 0.872288 0.952430
O O1 0.773145 0.414741 0.765104
O O2 0.909693 0.467980 0.711378
O O3 0.741678 0.615045 0.888782
O O4 0.597347 0.770971 0.899553
O O5 0.681669 0.668188 0.959874
O O6 0.799175 0.802916 0.923601
O O7 0.466282 0.302857 0.833670
O O8 0.517014 0.104880 0.848743
O O9 0.626501 0.572246 0.776544
O O10 0.506404 0.645229 0.000000
O O11 0.998671 0.853681 0.946089
O O12 0.146882 0.850002 0.000000
#
# Coordination Sequence:
#
# PCOD9564759 Si02
#       7
#     8  16  16  16   8   8  16
#     4   9  20  40  64  85 118 152 190 235 286 354
#     4  12  22  36  57  86 117 157 197 250 293 361
#     4  11  23  36  57  85 122 156 193 234 304 344
#     4  10  20  37  61  90 116 151 195 233 280 353
#     4   9  22  42  56  89 116 150 188 237 294 354
#     4  11  22  36  52  77 120 158 196 243 296 352
#     4   9  20  39  60  80 108 153 207 254 300 353
#
# _framework density 16.942492000000001
#
# number of rings (size 3 to 8) (size 9 to 14) (size 15 to 20)
#    0.000    1.727    4.545    0.545    2.545    3.273 
#    0.000    0.000    0.000    4.364    0.000    0.000 
#    0.000    0.000    0.000    0.000    0.000    0.000 
#
# Total GULP energy -490324.233364 kJ/mol
# GULP energy per Si atom -5571.866288 kJ/mol
# Density = 1.690393 g / cm^3
# Si number density = 16.942492 Si / 1000 Ang^3
#
#
#
# Elastic Constant Matrix: (Units=GPa)
#
#
# Indices 1 2 3 4 5 6 
#
# 1 106.2890 71.8918 49.4567 0.0000 0.0000 0.0000
# 2 71.8918 106.2890 49.4567 0.0000 0.0000 0.0000
# 3 49.4567 49.4567 81.8063 0.0000 0.0000 0.0000
# 4 0.0000 0.0000 0.0000 15.9381 0.0000 0.0000
# 5 0.0000 0.0000 0.0000 0.0000 15.9381 0.0000
# 6 0.0000 0.0000 0.0000 0.0000 0.0000 17.1262
#
#
#
# Elastic Compliance Matrix: (Units=1/GPa)
#
#
# Indices 1 2 3 4 5 6 
#
# 1 0.018760 -0.010312 -0.005107 0.000000 0.000000 0.000000
# 2 -0.010312 0.018760 -0.005107 0.000000 0.000000 0.000000
# 3 -0.005107 -0.005107 0.018399 0.000000 0.000000 0.000000
# 4 0.000000 0.000000 0.000000 0.062743 0.000000 0.000000
# 5 0.000000 0.000000 0.000000 0.000000 0.062743 0.000000
# 6 0.000000 0.000000 0.000000 0.000000 0.000000 0.058390
#
#
# Mechanical properties :
#
#
# Convention : Reuss Voigt Hill
#
# Bulk Modulus (GPa) = 67.26824 70.66606 68.96715
# Shear Modulus (GPa) = 17.49469 18.03911 17.76690
#
# Velocity S-wave (km/s) = 3.21688 3.26655 3.24181
# Velocity P-wave (km/s) = 7.32037 7.48512 7.40321
#
# Compressibility (1/GPa) = 0.01486586
#
# Stress axis : x y z
#
# Youngs Moduli (GPa) = 53.30580 53.30580 54.35150
#
# Poissons Ratio (x) = 0.54971 0.27756
# Poissons Ratio (y) = 0.54971 0.27756
# Poissons Ratio (z) = 0.27222 0.27222
#
# Static dielectric constant tensor:
#      x y z
#    x 1.565760 0.000000 0.000000 
#    y 0.000000 1.565760 0.000000 
#    z 0.000000 0.000000 1.568580 
# 
# From -- ./inp_files/7323.got.cif
#   From: 2010.05.17/outbox.cif.g08.bks.cpg/sg128_4_cif.got.tgz:7323.got - 2010.05.20 12:07:25.
