data_PCOD9564919
_publ_section_title
;
Structure prediction by ZEFSAII (Michael W. Deem and Ramdas Pophale) SiO2 
 PCOD9564919
Probable space group: P 4/M N C
;
_chemical_formula_sum "Si O2"
_cell_formula_units_Z 56
_cell_length_a 10.877550
_cell_length_b 10.877550
_cell_length_c 21.225308
_cell_angle_alpha 90.000000
_cell_angle_beta 90.000000
_cell_angle_gamma 90.000000
_cell_volume 2511.401663
_symmetry_space_group_name_H-M "P 4/M N C"
_symmetry_group_IT_number 128
_symmetry_cell_setting 'tetragonal'
loop_
_space_group_symop_operation_xyz
x,y,z
-y,x,z
-x,-y,z
y,-x,z
1/2+x,1/2-y,1/2-z
1/2-x,1/2+y,1/2-z
1/2+y,1/2+x,1/2-z
1/2-y,1/2-x,1/2-z
-x,-y,-z
y,-x,-z
x,y,-z
-y,x,-z
1/2-x,1/2+y,1/2+z
1/2+x,1/2-y,1/2+z
1/2-y,1/2-x,1/2+z
1/2+y,1/2+x,1/2+z
loop_
_atom_site_type_symbol
_atom_site_label
_atom_site_fract_x
_atom_site_fract_y
_atom_site_fract_z
Si Si1 0.454166 0.303133 0.714348
Si Si2 0.866642 0.698889 0.572099
Si Si3 0.955608 0.799881 0.000000
Si Si4 0.892001 0.297364 0.649497
O O1 0.588111 0.356700 0.700523
O O2 0.412213 0.184300 0.676232
O O3 0.442658 0.271793 0.788316
O O4 0.887081 0.744854 0.500000
O O5 0.783951 0.577964 0.559510
O O6 0.790956 0.798838 0.611626
O O7 0.993981 0.670982 0.605491
O O8 0.088758 0.857884 0.000000
#
# Coordination Sequence:
#
# PCOD9564919 Si02
#       4
#    16  16   8  16
#     4  10  22  42  72 101 143 200 255 313 370 442
#     4  10  23  41  74 107 148 190 243 306 379 454
#     4   9  22  46  74 105 150 195 247 297 372 466
#     4  11  21  42  69 107 148 189 250 313 373 446
#
# _framework density 22.298303000000001
#
# number of rings (size 3 to 8) (size 9 to 14) (size 15 to 20)
#    0.857    1.000    2.857    0.857    0.000    2.857 
#    0.000   11.429    0.000    0.000    0.000    0.000 
#    0.000    0.000    0.000    0.000    0.000    0.000 
#
# Total GULP energy -313265.790613 kJ/mol
# GULP energy per Si atom -5594.031975 kJ/mol
# Density = 2.224755 g / cm^3
# Si number density = 22.298303 Si / 1000 Ang^3
#
#
#
# Elastic Constant Matrix: (Units=GPa)
#
#
# Indices 1 2 3 4 5 6 
#
# 1 47.1201 41.7771 41.6218 0.0000 0.0000 0.0000
# 2 41.7771 47.1201 41.6218 0.0000 0.0000 0.0000
# 3 41.6218 41.6218 140.2382 0.0000 0.0000 0.0000
# 4 0.0000 0.0000 0.0000 44.7006 0.0000 0.0000
# 5 0.0000 0.0000 0.0000 0.0000 44.7006 0.0000
# 6 0.0000 0.0000 0.0000 0.0000 0.0000 18.8222
#
#
#
# Elastic Compliance Matrix: (Units=1/GPa)
#
#
# Indices 1 2 3 4 5 6 
#
# 1 0.101368 -0.085790 -0.004624 0.000000 0.000000 0.000000
# 2 -0.085790 0.101368 -0.004624 0.000000 0.000000 0.000000
# 3 -0.004624 -0.004624 0.009875 0.000000 0.000000 0.000000
# 4 0.000000 0.000000 0.000000 0.022371 0.000000 0.000000
# 5 0.000000 0.000000 0.000000 0.000000 0.022371 0.000000
# 6 0.000000 0.000000 0.000000 0.000000 0.000000 0.053129
#
#
# Mechanical properties :
#
#
# Convention : Reuss Voigt Hill
#
# Bulk Modulus (GPa) = 44.36983 53.83555 49.10269
# Shear Modulus (GPa) = 9.84119 28.94187 19.39153
#
# Velocity S-wave (km/s) = 2.10309 3.60660 2.95217
# Velocity P-wave (km/s) = 5.08319 6.44509 5.80422
#
# Compressibility (1/GPa) = 0.02253783
#
# Stress axis : x y z
#
# Youngs Moduli (GPa) = 9.86503 9.86503 101.26341
#
# Poissons Ratio (x) = 0.84632 0.46820
# Poissons Ratio (y) = 0.84632 0.46820
# Poissons Ratio (z) = 0.04561 0.04561
#
# Static dielectric constant tensor:
#      x y z
#    x 1.790560 0.000000 0.000000 
#    y 0.000000 1.790560 0.000000 
#    z 0.000000 0.000000 1.829610 
# 
# From -- ./inp_files/5329.got.cif
#   From: 2010.05.17/outbox.cif.g08.bks.cpg/sg128_3_cif.got.tgz:5329.got - 2010.05.20 12:07:25.
