data_PCOD9564067
_publ_section_title
;
Structure prediction by ZEFSAII (Michael W. Deem and Ramdas Pophale) SiO2 
 PCOD9564067
Probable space group: P 4/M B M
;
_chemical_formula_sum "Si O2"
_cell_formula_units_Z 72
_cell_length_a 21.594579
_cell_length_b 21.594579
_cell_length_c 8.838912
_cell_angle_alpha 90.000000
_cell_angle_beta 90.000000
_cell_angle_gamma 90.000000
_cell_volume 4121.813082
_symmetry_space_group_name_H-M "P 4/M B M"
_symmetry_group_IT_number 127
_symmetry_cell_setting 'tetragonal'
loop_
_space_group_symop_operation_xyz
x,y,z
-y,x,z
-x,-y,z
y,-x,z
1/2+x,1/2-y,-z
1/2-x,1/2+y,-z
1/2+y,1/2+x,-z
1/2-y,1/2-x,-z
-x,-y,-z
y,-x,-z
x,y,-z
-y,x,-z
1/2-x,1/2+y,z
1/2+x,1/2-y,z
1/2-y,1/2-x,z
1/2+y,1/2+x,z
loop_
_atom_site_type_symbol
_atom_site_label
_atom_site_fract_x
_atom_site_fract_y
_atom_site_fract_z
Si Si1 0.142593 0.903828 0.679096
Si Si2 0.616597 0.216529 0.323579
Si Si3 0.948408 0.448408 0.681445
Si Si4 0.318275 0.010099 0.179238
Si Si5 0.178338 0.034883 0.181603
O O1 0.129609 0.907826 0.500000
O O2 0.210817 0.875163 0.700889
O O3 0.091832 0.861905 0.759604
O O4 0.149437 0.972416 0.748146
O O5 0.597498 0.208048 0.500000
O O6 0.678517 0.178517 0.298419
O O7 0.562034 0.190344 0.220219
O O8 0.948390 0.448390 0.500000
O O9 0.879950 0.465653 0.740226
O O10 0.000000 0.500000 0.730531
O O11 0.251348 0.038890 0.226072
O O12 0.325275 0.018761 0.000000
O O13 0.176248 0.030755 0.000000
#
# Coordination Sequence:
#
# PCOD9564067 Si02
#       5
#    16  16   8  16  16
#     4  10  20  35  57  82 109 141 182 224 269 325
#     4   9  18  34  55  79 108 140 177 221 268 319
#     4  11  23  37  55  81 111 147 189 229 275 326
#     4  10  21  36  55  79 110 144 180 224 272 322
#     4  10  21  38  57  79 111 144 179 223 277 326
#
# _framework density 17.468042000000001
#
# number of rings (size 3 to 8) (size 9 to 14) (size 15 to 20)
#    0.000    2.111    0.000    3.000    0.000    8.000 
#    2.000    2.222    0.000    0.000    0.000    0.000 
#    0.000    0.000    0.000    0.000    0.000    0.000 
#
# Total GULP energy -401746.595301 kJ/mol
# GULP energy per Si atom -5579.813824 kJ/mol
# Density = 1.742828 g / cm^3
# Si number density = 17.468042 Si / 1000 Ang^3
#
#
#
# Elastic Constant Matrix: (Units=GPa)
#
#
# Indices 1 2 3 4 5 6 
#
# 1 102.4934 93.1031 49.4838 0.0000 0.0000 0.0000
# 2 93.1031 102.4934 49.4838 0.0000 0.0000 0.0000
# 3 49.4838 49.4838 59.0562 0.0000 0.0000 0.0000
# 4 0.0000 0.0000 0.0000 28.7784 0.0000 0.0000
# 5 0.0000 0.0000 0.0000 0.0000 28.7784 0.0000
# 6 0.0000 0.0000 0.0000 0.0000 0.0000 32.8306
#
#
#
# Elastic Compliance Matrix: (Units=1/GPa)
#
#
# Indices 1 2 3 4 5 6 
#
# 1 0.057684 -0.048809 -0.007437 0.000000 0.000000 0.000000
# 2 -0.048809 0.057684 -0.007437 0.000000 0.000000 0.000000
# 3 -0.007437 -0.007437 0.029396 0.000000 0.000000 0.000000
# 4 0.000000 0.000000 0.000000 0.034748 0.000000 0.000000
# 5 0.000000 0.000000 0.000000 0.000000 0.034748 0.000000
# 6 0.000000 0.000000 0.000000 0.000000 0.000000 0.030459
#
#
# Mechanical properties :
#
#
# Convention : Reuss Voigt Hill
#
# Bulk Modulus (GPa) = 57.47326 72.02049 64.74688
# Shear Modulus (GPa) = 13.23158 22.87563 18.05361
#
# Velocity S-wave (km/s) = 2.75521 3.62272 3.21833
# Velocity P-wave (km/s) = 6.56467 7.66930 7.13839
#
# Compressibility (1/GPa) = 0.01739939
#
# Stress axis : x y z
#
# Youngs Moduli (GPa) = 17.33585 17.33585 34.01843
#
# Poissons Ratio (x) = 0.84614 0.25299
# Poissons Ratio (y) = 0.84614 0.25299
# Poissons Ratio (z) = 0.12892 0.12892
#
# Static dielectric constant tensor:
#      x y z
#    x 1.573070 0.000000 0.000000 
#    y 0.000000 1.573070 0.000000 
#    z 0.000000 0.000000 1.596530 
# 
# From -- ./inp_files/1555.got.cif
#   From: 2010.05.17/outbox.cif.g08.bks.cpg/sg127_1_cif.got.tgz:1555.got - 2010.05.20 12:03:00.
