data_PCOD9564519
_publ_section_title
;
Structure prediction by ZEFSAII (Michael W. Deem and Ramdas Pophale) SiO2 
 PCOD9564519
Probable space group: P 4/M N C
;
_chemical_formula_sum "Si O2"
_cell_formula_units_Z 72
_cell_length_a 19.511883
_cell_length_b 19.511883
_cell_length_c 9.596628
_cell_angle_alpha 90.000000
_cell_angle_beta 90.000000
_cell_angle_gamma 90.000000
_cell_volume 3653.566585
_symmetry_space_group_name_H-M "P 4/M N C"
_symmetry_group_IT_number 128
_symmetry_cell_setting 'tetragonal'
loop_
_space_group_symop_operation_xyz
x,y,z
-y,x,z
-x,-y,z
y,-x,z
1/2+x,1/2-y,1/2-z
1/2-x,1/2+y,1/2-z
1/2+y,1/2+x,1/2-z
1/2-y,1/2-x,1/2-z
-x,-y,-z
y,-x,-z
x,y,-z
-y,x,-z
1/2-x,1/2+y,1/2+z
1/2+x,1/2-y,1/2+z
1/2-y,1/2-x,1/2+z
1/2+y,1/2+x,1/2+z
loop_
_atom_site_type_symbol
_atom_site_label
_atom_site_fract_x
_atom_site_fract_y
_atom_site_fract_z
Si Si1 0.008107 0.351851 0.500000
Si Si2 0.802034 0.637590 0.500000
Si Si3 0.396871 0.896871 0.750000
Si Si4 0.390358 0.528387 0.000000
Si Si5 0.322518 0.620622 0.803296
Si Si6 0.608705 0.272767 0.000000
Si Si7 0.800923 0.846818 0.000000
Si Si8 0.697334 0.856713 0.500000
O O1 0.040296 0.388001 0.639466
O O2 0.039807 0.273549 0.500000
O O3 0.925688 0.348525 0.500000
O O4 0.832215 0.603982 0.641930
O O5 0.835397 0.712950 0.500000
O O6 0.722668 0.654141 0.500000
O O7 0.420890 0.454558 0.000000
O O8 0.346285 0.549107 0.132133
O O9 0.372650 0.679592 0.866979
O O10 0.320175 0.616219 0.640704
O O11 0.248455 0.638307 0.867663
O O12 0.718702 0.834740 0.000000
#
# Coordination Sequence:
#
# PCOD9564519 Si02
#       8
#     8   8   8   8  16   8   8   8
#     4  10  18  34  53  82 108 151 194 246 276 346
#     4  10  15  28  49  80 105 149 184 233 295 330
#     4   8  18  30  54  80 109 148 192 241 288 328
#     4   9  20  42  66  80 107 155 208 230 269 346
#     4  10  21  32  54  83 114 157 190 239 281 351
#     4   8  16  30  53  73 111 144 198 225 274 337
#     4  12  19  34  50  83 120 146 190 238 308 343
#     4  10  22  32  55  79 119 159 191 226 290 359
#
# _framework density 19.706769000000001
#
# number of rings (size 3 to 8) (size 9 to 14) (size 15 to 20)
#    0.000    2.778    2.222    3.333    6.222    0.000 
#    0.000    3.333    0.000    1.333    0.000    9.333 
#    0.000    0.000    0.000    0.000    0.000    0.000 
#
# Total GULP energy -400975.106162 kJ/mol
# GULP energy per Si atom -5569.098697 kJ/mol
# Density = 1.966192 g / cm^3
# Si number density = 19.706769 Si / 1000 Ang^3
#
#
#
# Elastic Constant Matrix: (Units=GPa)
#
#
# Indices 1 2 3 4 5 6 
#
# 1 374.1684 -331.9252 24.2449 0.0000 0.0000 0.0000
# 2 -331.9252 374.1684 24.2449 0.0000 0.0000 0.0000
# 3 24.2449 24.2449 180.8675 0.0000 0.0000 0.0000
# 4 0.0000 0.0000 0.0000 -4.4015 0.0000 0.0000
# 5 0.0000 0.0000 0.0000 0.0000 -4.4015 0.0000
# 6 0.0000 0.0000 0.0000 0.0000 0.0000 8.8942
#
#
#
# Elastic Compliance Matrix: (Units=1/GPa)
#
#
# Indices 1 2 3 4 5 6 
#
# 1 0.014697 0.013281 -0.003750 0.000000 0.000000 0.000000
# 2 0.013281 0.014697 -0.003750 0.000000 0.000000 0.000000
# 3 -0.003750 -0.003750 0.006534 0.000000 0.000000 0.000000
# 4 0.000000 0.000000 0.000000 -0.227194 0.000000 0.000000
# 5 0.000000 0.000000 0.000000 0.000000 -0.227194 0.000000
# 6 0.000000 0.000000 0.000000 0.000000 0.000000 0.112433
#
#
# Mechanical properties :
#
#
# Convention : Reuss Voigt Hill
#
# Bulk Modulus (GPa) = 21.05806 40.25926 30.65866
# Shear Modulus (GPa) = -16.56956 80.86087 32.14566
#
# Velocity S-wave (km/s) = -2.90281 6.41257 4.04319
# Velocity P-wave (km/s) = 0.72538 8.67765 6.11455
#
# Compressibility (1/GPa) = 0.04748775
#
# Stress axis : x y z
#
# Youngs Moduli (GPa) = 68.04221 68.04221 153.03751
#
# Poissons Ratio (x) = -0.90364 0.57393
# Poissons Ratio (y) = -0.90364 0.57393
# Poissons Ratio (z) = 0.25518 0.25518
#
# Static dielectric constant tensor:
#      x y z
#    x 1.731460 0.000000 0.000000 
#    y 0.000000 1.731460 0.000000 
#    z 0.000000 0.000000 1.698240 
# 
# From -- ./inp_files/1263.got.cif
#   From: 2010.05.17/outbox.cif.g08.bks.cpg/sg128_1_cif.got.tgz:1263.got - 2010.05.20 12:07:25.
