data_PCOD9564114
_publ_section_title
;
Structure prediction by ZEFSAII (Michael W. Deem and Ramdas Pophale) SiO2 
 PCOD9564114
Probable space group: P 4/M B M
;
_chemical_formula_sum "Si O2"
_cell_formula_units_Z 88
_cell_length_a 17.982156
_cell_length_b 17.982156
_cell_length_c 14.217353
_cell_angle_alpha 90.000000
_cell_angle_beta 90.000000
_cell_angle_gamma 90.000000
_cell_volume 4597.293899
_symmetry_space_group_name_H-M "P 4/M B M"
_symmetry_group_IT_number 127
_symmetry_cell_setting 'tetragonal'
loop_
_space_group_symop_operation_xyz
x,y,z
-y,x,z
-x,-y,z
y,-x,z
1/2+x,1/2-y,-z
1/2-x,1/2+y,-z
1/2+y,1/2+x,-z
1/2-y,1/2-x,-z
-x,-y,-z
y,-x,-z
x,y,-z
-y,x,-z
1/2-x,1/2+y,z
1/2+x,1/2-y,z
1/2-y,1/2-x,z
1/2+y,1/2+x,z
loop_
_atom_site_type_symbol
_atom_site_label
_atom_site_fract_x
_atom_site_fract_y
_atom_site_fract_z
Si Si1 0.060779 0.560779 0.695358
Si Si2 0.767500 0.075250 0.500000
Si Si3 0.395077 0.554610 0.287528
Si Si4 0.874391 0.991293 0.000000
Si Si5 0.886697 0.386697 0.890892
Si Si6 0.073796 0.859685 0.500000
Si Si7 0.446477 0.822805 0.685756
Si Si8 0.540132 0.735181 0.170809
O O1 0.069155 0.569155 0.808595
O O2 0.137017 0.525210 0.659276
O O3 0.000000 0.500000 0.670575
O O4 0.836166 0.133631 0.500000
O O5 0.721669 0.083147 0.403920
O O6 0.794627 0.988404 0.500000
O O7 0.403686 0.468946 0.255962
O O8 0.396366 0.556406 0.399870
O O9 0.317587 0.582208 0.246255
O O10 0.819827 0.984437 0.088559
O O11 0.933774 0.923492 0.000000
O O12 0.908842 0.301334 0.869719
O O13 0.904018 0.404018 0.000000
O O14 0.386600 0.886600 0.711252
O O15 0.470744 0.771939 0.773358
#
# Coordination Sequence:
#
# PCOD9564114 Si02
#       8
#     8   8  16   8   8   8  16  16
#     4   8  18  36  64  96 111 145 210 257 291 339
#     4  12  23  36  61  85 126 164 201 255 294 369
#     4  11  20  34  61  90 118 156 206 260 300 340
#     4  11  24  41  67  91 116 156 210 259 296 349
#     4  10  20  37  61  85 118 164 187 239 313 364
#     4  12  20  35  58  88 119 157 208 244 306 344
#     4  10  21  40  65  90 124 161 203 252 302 356
#     4  11  21  39  63  89 124 154 202 248 306 366
#
# _framework density 19.141696
#
# number of rings (size 3 to 8) (size 9 to 14) (size 15 to 20)
#    0.000    1.364    4.545    1.364    0.000    2.909 
#    0.000    1.818   26.000    0.000    0.000    0.000 
#    0.000    0.000    0.000    0.000    0.000    0.000 
#
# Total GULP energy -490027.414102 kJ/mol
# GULP energy per Si atom -5568.493342 kJ/mol
# Density = 1.909813 g / cm^3
# Si number density = 19.141696 Si / 1000 Ang^3
#
#
#
# Elastic Constant Matrix: (Units=GPa)
#
#
# Indices 1 2 3 4 5 6 
#
# 1 70.1298 20.5838 23.9737 0.0000 0.0000 0.0000
# 2 20.5838 70.1298 23.9737 0.0000 0.0000 0.0000
# 3 23.9737 23.9737 89.8098 0.0000 0.0000 0.0000
# 4 0.0000 0.0000 0.0000 -13.5014 0.0000 0.0000
# 5 0.0000 0.0000 0.0000 0.0000 -13.5014 0.0000
# 6 0.0000 0.0000 0.0000 0.0000 0.0000 22.9401
#
#
#
# Elastic Compliance Matrix: (Units=1/GPa)
#
#
# Indices 1 2 3 4 5 6 
#
# 1 0.016509 -0.003674 -0.003426 0.000000 0.000000 0.000000
# 2 -0.003674 0.016509 -0.003426 0.000000 0.000000 0.000000
# 3 -0.003426 -0.003426 0.012964 0.000000 0.000000 0.000000
# 4 0.000000 0.000000 0.000000 -0.074067 0.000000 0.000000
# 5 0.000000 0.000000 0.000000 0.000000 -0.074067 0.000000
# 6 0.000000 0.000000 0.000000 0.000000 0.000000 0.043592
#
#
# Mechanical properties :
#
#
# Convention : Reuss Voigt Hill
#
# Bulk Modulus (GPa) = 40.11441 40.79243 40.45342
# Shear Modulus (GPa) = -171.24866 9.95669 -80.64599
#
# Velocity S-wave (km/s) = -9.46879 2.28317 -6.49789
# Velocity P-wave (km/s) = 9.92682 5.32048 5.92597
#
# Compressibility (1/GPa) = 0.02492870
#
# Stress axis : x y z
#
# Youngs Moduli (GPa) = 60.57330 60.57330 77.13830
#
# Poissons Ratio (x) = 0.22257 0.26428
# Poissons Ratio (y) = 0.22257 0.26428
# Poissons Ratio (z) = 0.20753 0.20753
#
# Static dielectric constant tensor:
#      x y z
#    x 1.684180 0.000000 0.000000 
#    y 0.000000 1.684180 0.000000 
#    z 0.000000 0.000000 1.693070 
# 
# From -- ./inp_files/4461.got.cif
#   From: 2010.05.17/outbox.cif.g08.bks.cpg/sg127_3_cif.got.tgz:4461.got - 2010.05.20 12:03:00.
