data_PCOD9564828
_publ_section_title
;
Structure prediction by ZEFSAII (Michael W. Deem and Ramdas Pophale) SiO2 
 PCOD9564828
Probable space group: P 4/M N C
;
_chemical_formula_sum "Si O2"
_cell_formula_units_Z 76
_cell_length_a 12.195085
_cell_length_b 12.195085
_cell_length_c 27.362736
_cell_angle_alpha 90.000000
_cell_angle_beta 90.000000
_cell_angle_gamma 90.000000
_cell_volume 4069.388784
_symmetry_space_group_name_H-M "P 4/M N C"
_symmetry_group_IT_number 128
_symmetry_cell_setting 'tetragonal'
loop_
_space_group_symop_operation_xyz
x,y,z
-y,x,z
-x,-y,z
y,-x,z
1/2+x,1/2-y,1/2-z
1/2-x,1/2+y,1/2-z
1/2+y,1/2+x,1/2-z
1/2-y,1/2-x,1/2-z
-x,-y,-z
y,-x,-z
x,y,-z
-y,x,-z
1/2-x,1/2+y,1/2+z
1/2+x,1/2-y,1/2+z
1/2-y,1/2-x,1/2+z
1/2+y,1/2+x,1/2+z
loop_
_atom_site_type_symbol
_atom_site_label
_atom_site_fract_x
_atom_site_fract_y
_atom_site_fract_z
Si Si1 0.446281 0.838278 0.204915
Si Si2 0.000000 0.500000 0.618631
Si Si3 0.334580 0.168020 0.422063
Si Si4 0.672284 0.432314 0.000000
Si Si5 0.903246 0.156206 0.000000
Si Si6 0.000000 0.000000 0.646574
Si Si7 0.353534 0.291573 0.174215
O O1 0.414145 0.914145 0.250000
O O2 0.565222 0.780416 0.207857
O O3 0.355689 0.742923 0.200983
O O4 0.449308 0.908514 0.154920
O O5 0.091569 0.559695 0.586424
O O6 0.245190 0.099951 0.453387
O O7 0.364067 0.274666 0.453151
O O8 0.284377 0.192116 0.369059
O O9 0.636648 0.559208 0.000000
O O10 0.034506 0.145488 0.000000
O O11 0.931129 0.116130 0.649901
#
# Coordination Sequence:
#
# PCOD9564828 Si02
#       7
#    16   8  16   8   8   4  16
#     4  10  21  38  61  88 124 153 202 249 296 359
#     4  10  23  37  58  90 114 158 194 251 293 358
#     4  10  23  38  60  87 117 155 200 240 301 352
#     4  10  24  35  56  92 126 151 190 250 300 368
#     4  10  24  43  62  80 114 157 202 252 286 348
#     4   8  16  32  56  81 124 144 196 232 284 369
#     4   9  20  35  60  90 114 166 190 243 303 353
#
# _framework density 18.676022
#
# number of rings (size 3 to 8) (size 9 to 14) (size 15 to 20)
#    0.000    2.316    0.000    0.316   11.789    6.737 
#    0.000    0.000    0.000    0.000    0.000    0.000 
#    0.000    0.000    0.000    0.000    0.000    0.000 
#
# Total GULP energy -423210.608061 kJ/mol
# GULP energy per Si atom -5568.560632 kJ/mol
# Density = 1.863351 g / cm^3
# Si number density = 18.676022 Si / 1000 Ang^3
#
#
#
# Elastic Constant Matrix: (Units=GPa)
#
#
# Indices 1 2 3 4 5 6 
#
# 1 108.5082 59.5193 34.8798 0.0000 0.0000 0.0000
# 2 59.5193 108.5082 34.8798 0.0000 0.0000 0.0000
# 3 34.8798 34.8798 59.5532 0.0000 0.0000 0.0000
# 4 0.0000 0.0000 0.0000 17.4285 0.0000 0.0000
# 5 0.0000 0.0000 0.0000 0.0000 17.4285 0.0000
# 6 0.0000 0.0000 0.0000 0.0000 0.0000 37.7311
#
#
#
# Elastic Compliance Matrix: (Units=1/GPa)
#
#
# Indices 1 2 3 4 5 6 
#
# 1 0.014138 -0.006275 -0.004606 0.000000 0.000000 0.000000
# 2 -0.006275 0.014138 -0.004606 0.000000 0.000000 0.000000
# 3 -0.004606 -0.004606 0.022187 0.000000 0.000000 0.000000
# 4 0.000000 0.000000 0.000000 0.057377 0.000000 0.000000
# 5 0.000000 0.000000 0.000000 0.000000 0.057377 0.000000
# 6 0.000000 0.000000 0.000000 0.000000 0.000000 0.026503
#
#
# Mechanical properties :
#
#
# Convention : Reuss Voigt Hill
#
# Bulk Modulus (GPa) = 51.30501 59.45860 55.38180
# Shear Modulus (GPa) = 21.81602 24.33700 23.07651
#
# Velocity S-wave (km/s) = 3.42150 3.61378 3.51896
# Velocity P-wave (km/s) = 6.56807 7.02272 6.79920
#
# Compressibility (1/GPa) = 0.01949127
#
# Stress axis : x y z
#
# Youngs Moduli (GPa) = 70.73063 70.73063 45.07217
#
# Poissons Ratio (x) = 0.44381 0.20758
# Poissons Ratio (y) = 0.44381 0.20758
# Poissons Ratio (z) = 0.32576 0.32576
#
# Static dielectric constant tensor:
#      x y z
#    x 1.633850 0.000000 0.000000 
#    y 0.000000 1.633850 0.000000 
#    z 0.000000 0.000000 1.644680 
# 
# From -- ./inp_files/7237.got.cif
#   From: 2010.05.17/outbox.cif.g08.bks.cpg/sg128_4_cif.got.tgz:7237.got - 2010.05.20 12:07:25.
