data_PCOD9564729
_publ_section_title
;
Structure prediction by ZEFSAII (Michael W. Deem and Ramdas Pophale) SiO2 
 PCOD9564729
Probable space group: P 4/M N C
;
_chemical_formula_sum "Si O2"
_cell_formula_units_Z 60
_cell_length_a 18.709581
_cell_length_b 18.709581
_cell_length_c 9.142451
_cell_angle_alpha 90.000000
_cell_angle_beta 90.000000
_cell_angle_gamma 90.000000
_cell_volume 3200.300538
_symmetry_space_group_name_H-M "P 4/M N C"
_symmetry_group_IT_number 128
_symmetry_cell_setting 'tetragonal'
loop_
_space_group_symop_operation_xyz
x,y,z
-y,x,z
-x,-y,z
y,-x,z
1/2+x,1/2-y,1/2-z
1/2-x,1/2+y,1/2-z
1/2+y,1/2+x,1/2-z
1/2-y,1/2-x,1/2-z
-x,-y,-z
y,-x,-z
x,y,-z
-y,x,-z
1/2-x,1/2+y,1/2+z
1/2+x,1/2-y,1/2+z
1/2-y,1/2-x,1/2+z
1/2+y,1/2+x,1/2+z
loop_
_atom_site_type_symbol
_atom_site_label
_atom_site_fract_x
_atom_site_fract_y
_atom_site_fract_z
Si Si1 0.109330 0.953732 0.000000
Si Si2 0.500000 0.000000 0.750000
Si Si3 0.258001 0.552693 0.000000
Si Si4 0.814880 0.625300 0.500000
Si Si5 0.286026 0.317138 0.000000
Si Si6 0.484043 0.887655 0.000000
Si Si7 0.721579 0.564816 0.751793
O O1 0.090038 0.036817 0.000000
O O2 0.155476 0.937420 0.142322
O O3 0.502987 0.066789 0.856280
O O4 0.278551 0.636325 0.000000
O O5 0.173923 0.541709 0.000000
O O6 0.279548 0.505893 0.855146
O O7 0.781168 0.706169 0.500000
O O8 0.900638 0.635811 0.500000
O O9 0.788841 0.580997 0.643245
O O10 0.284818 0.368125 0.858921
#
# Coordination Sequence:
#
# PCOD9564729 Si02
#       7
#     8   4   8   8   8   8  16
#     4  10  20  35  55  82 120 159 198 248 312 379
#     4  10  24  38  64  90 120 150 220 258 320 382
#     4  11  22  38  62  90 130 157 206 261 327 365
#     4  11  21  40  70  89 115 174 226 253 311 404
#     4  11  22  36  59  96 118 156 208 273 305 385
#     4  11  21  41  62  90 119 163 203 264 316 386
#     4  10  21  37  61  89 118 165 211 259 311 386
#
# _framework density 18.748239000000002
#
# number of rings (size 3 to 8) (size 9 to 14) (size 15 to 20)
#    0.000    1.467    2.667    4.000    0.000    0.000 
#    4.800    0.000   11.733    6.400    0.000    0.000 
#    0.000    0.000    0.000    0.000    0.000    0.000 
#
# Total GULP energy -334529.821188 kJ/mol
# GULP energy per Si atom -5575.497020 kJ/mol
# Density = 1.870557 g / cm^3
# Si number density = 18.748239 Si / 1000 Ang^3
#
#
#
# Elastic Constant Matrix: (Units=GPa)
#
#
# Indices 1 2 3 4 5 6 
#
# 1 68.6437 11.0794 32.9890 0.0000 0.0000 0.0000
# 2 11.0794 68.6437 32.9890 0.0000 0.0000 0.0000
# 3 32.9890 32.9890 144.1774 0.0000 0.0000 0.0000
# 4 0.0000 0.0000 0.0000 17.5765 0.0000 0.0000
# 5 0.0000 0.0000 0.0000 0.0000 17.5765 0.0000
# 6 0.0000 0.0000 0.0000 0.0000 0.0000 29.7137
#
#
#
# Elastic Compliance Matrix: (Units=1/GPa)
#
#
# Indices 1 2 3 4 5 6 
#
# 1 0.016423 -0.000949 -0.003540 0.000000 0.000000 0.000000
# 2 -0.000949 0.016423 -0.003540 0.000000 0.000000 0.000000
# 3 -0.003540 -0.003540 0.008556 0.000000 0.000000 0.000000
# 4 0.000000 0.000000 0.000000 0.056894 0.000000 0.000000
# 5 0.000000 0.000000 0.000000 0.000000 0.056894 0.000000
# 6 0.000000 0.000000 0.000000 0.000000 0.000000 0.033655
#
#
# Mechanical properties :
#
#
# Convention : Reuss Voigt Hill
#
# Bulk Modulus (GPa) = 39.46149 48.39775 43.92962
# Shear Modulus (GPa) = 23.43550 26.60049 25.01799
#
# Velocity S-wave (km/s) = 3.53938 3.77082 3.65693
# Velocity P-wave (km/s) = 6.14791 6.69547 6.42752
#
# Compressibility (1/GPa) = 0.02534116
#
# Stress axis : x y z
#
# Youngs Moduli (GPa) = 60.89140 60.89140 116.87597
#
# Poissons Ratio (x) = 0.05780 0.41380
# Poissons Ratio (y) = 0.05780 0.41380
# Poissons Ratio (z) = 0.21558 0.21558
#
# Static dielectric constant tensor:
#      x y z
#    x 1.659690 0.000000 0.000000 
#    y 0.000000 1.659690 0.000000 
#    z 0.000000 0.000000 2.689160 
# 
# From -- ./inp_files/875.got.cif
#   From: 2010.05.17/outbox.cif.g08.bks.cpg/sg128_1_cif.got.tgz:875.got - 2010.05.20 12:07:25.
