data_PCOD9564991
_publ_section_title
;
Structure prediction by ZEFSAII (Michael W. Deem and Ramdas Pophale) SiO2 
 PCOD9564991
Probable space group: P 4/M N C
;
_chemical_formula_sum "Si O2"
_cell_formula_units_Z 112
_cell_length_a 14.289047
_cell_length_b 14.289047
_cell_length_c 28.142698
_cell_angle_alpha 90.000000
_cell_angle_beta 90.000000
_cell_angle_gamma 90.000000
_cell_volume 5746.087827
_symmetry_space_group_name_H-M "P 4/M N C"
_symmetry_group_IT_number 128
_symmetry_cell_setting 'tetragonal'
loop_
_space_group_symop_operation_xyz
x,y,z
-y,x,z
-x,-y,z
y,-x,z
1/2+x,1/2-y,1/2-z
1/2-x,1/2+y,1/2-z
1/2+y,1/2+x,1/2-z
1/2-y,1/2-x,1/2-z
-x,-y,-z
y,-x,-z
x,y,-z
-y,x,-z
1/2-x,1/2+y,1/2+z
1/2+x,1/2-y,1/2+z
1/2-y,1/2-x,1/2+z
1/2+y,1/2+x,1/2+z
loop_
_atom_site_type_symbol
_atom_site_label
_atom_site_fract_x
_atom_site_fract_y
_atom_site_fract_z
Si Si1 0.310684 0.944584 0.367502
Si Si2 0.655985 0.511674 0.943697
Si Si3 0.989469 0.155841 0.055379
Si Si4 0.421920 0.633082 0.697606
Si Si5 0.172141 0.219294 0.714422
Si Si6 0.206446 0.462854 0.364980
Si Si7 0.618722 0.871540 0.804067
O O1 0.246735 0.978641 0.410943
O O2 0.246508 0.883799 0.331984
O O3 0.397684 0.878803 0.381121
O O4 0.349676 0.029228 0.335909
O O5 0.583326 0.597072 0.934286
O O6 0.678011 0.513383 0.000000
O O7 0.990695 0.241994 0.090569
O O8 0.904687 0.083764 0.063781
O O9 0.987353 0.182426 0.000000
O O10 0.378207 0.532324 0.688248
O O11 0.391875 0.655049 0.751437
O O12 0.397251 0.718035 0.662747
O O13 0.194451 0.305550 0.750000
O O14 0.272805 0.174470 0.701354
O O15 0.173205 0.543962 0.329217
O O16 0.598046 0.901955 0.750000
#
# Coordination Sequence:
#
# PCOD9564991 Si02
#       7
#    16  16  16  16  16  16  16
#     4  12  24  38  62  93 126 169 220 257 316 393
#     4   9  20  43  72  98 127 163 211 279 347 395
#     4   9  20  40  66  94 123 157 202 262 326 382
#     4  11  22  37  59  88 119 162 214 271 323 369
#     4  11  21  39  59  87 122 162 216 271 314 374
#     4  12  24  38  61  89 130 172 212 253 320 394
#     4  11  26  42  61  87 131 177 218 261 321 384
#
# _framework density 19.491523000000001
#
# number of rings (size 3 to 8) (size 9 to 14) (size 15 to 20)
#    0.000    1.286    1.429    6.429    2.000    2.286 
#    0.000    2.143    0.000    1.714    0.000    0.000 
#    0.000    0.000    0.000    0.000    0.000    0.000 
#
# Total GULP energy -625687.378570 kJ/mol
# GULP energy per Si atom -5586.494452 kJ/mol
# Density = 1.944716 g / cm^3
# Si number density = 19.491523 Si / 1000 Ang^3
#
#
#
# Elastic Constant Matrix: (Units=GPa)
#
#
# Indices 1 2 3 4 5 6 
#
# 1 80.2021 38.7307 53.4440 0.0000 0.0000 0.0000
# 2 38.7307 80.2019 53.4439 0.0000 0.0000 0.0000
# 3 53.4440 53.4439 116.7303 0.0000 0.0000 0.0000
# 4 0.0000 0.0000 0.0000 35.5193 0.0000 0.0000
# 5 0.0000 0.0000 0.0000 0.0000 35.5193 0.0000
# 6 0.0000 0.0000 0.0000 0.0000 0.0000 19.8307
#
#
#
# Elastic Compliance Matrix: (Units=1/GPa)
#
#
# Indices 1 2 3 4 5 6 
#
# 1 0.019200 -0.004913 -0.006541 0.000000 0.000000 0.000000
# 2 -0.004913 0.019200 -0.006541 0.000000 0.000000 0.000000
# 3 -0.006541 -0.006541 0.014556 0.000000 0.000000 0.000000
# 4 0.000000 0.000000 0.000000 0.028154 0.000000 0.000000
# 5 0.000000 0.000000 0.000000 0.000000 0.028154 0.000000
# 6 0.000000 0.000000 0.000000 0.000000 0.000000 0.050427
#
#
# Mechanical properties :
#
#
# Convention : Reuss Voigt Hill
#
# Bulk Modulus (GPa) = 58.94303 63.15238 61.04770
# Shear Modulus (GPa) = 24.83412 26.94159 25.88786
#
# Velocity S-wave (km/s) = 3.57332 3.72186 3.64835
# Velocity P-wave (km/s) = 6.87974 7.13722 7.00966
#
# Compressibility (1/GPa) = 0.01696553
#
# Stress axis : x y z
#
# Youngs Moduli (GPa) = 52.08368 52.08363 68.69890
#
# Poissons Ratio (x) = 0.25589 0.44936
# Poissons Ratio (y) = 0.25590 0.44936
# Poissons Ratio (z) = 0.34068 0.34068
#
# Static dielectric constant tensor:
#      x y z
#    x 1.710470 0.000000 0.000000 
#    y 0.000000 1.710470 0.000000 
#    z 0.000000 0.000000 1.670410 
# 
# From -- ./inp_files/6436.got.cif
#   From: 2010.05.17/outbox.cif.g08.bks.cpg/sg128_4_cif.got.tgz:6436.got - 2010.05.20 12:07:25.
