data_PCOD9564777
_publ_section_title
;
Structure prediction by ZEFSAII (Michael W. Deem and Ramdas Pophale) SiO2 
 PCOD9564777
Probable space group: P 4/M N C
;
_chemical_formula_sum "Si O2"
_cell_formula_units_Z 96
_cell_length_a 14.370843
_cell_length_b 14.370843
_cell_length_c 22.579985
_cell_angle_alpha 90.000000
_cell_angle_beta 90.000000
_cell_angle_gamma 90.000000
_cell_volume 4663.243984
_symmetry_space_group_name_H-M "P 4/M N C"
_symmetry_group_IT_number 128
_symmetry_cell_setting 'tetragonal'
loop_
_space_group_symop_operation_xyz
x,y,z
-y,x,z
-x,-y,z
y,-x,z
1/2+x,1/2-y,1/2-z
1/2-x,1/2+y,1/2-z
1/2+y,1/2+x,1/2-z
1/2-y,1/2-x,1/2-z
-x,-y,-z
y,-x,-z
x,y,-z
-y,x,-z
1/2-x,1/2+y,1/2+z
1/2+x,1/2-y,1/2+z
1/2-y,1/2-x,1/2+z
1/2+y,1/2+x,1/2+z
loop_
_atom_site_type_symbol
_atom_site_label
_atom_site_fract_x
_atom_site_fract_y
_atom_site_fract_z
Si Si1 0.734847 0.982965 0.335667
Si Si2 0.149375 0.958631 0.561315
Si Si3 0.268275 0.224013 0.868484
Si Si4 0.629360 0.101229 0.126887
Si Si5 0.946945 0.710729 0.000000
Si Si6 0.059584 0.695418 0.212775
Si Si7 0.730226 0.338143 0.500000
O O1 0.636231 0.025636 0.357172
O O2 0.801177 0.044187 0.376741
O O3 0.747715 0.874317 0.350641
O O4 0.749320 0.992005 0.265791
O O5 0.205677 0.942639 0.500000
O O6 0.108608 0.062207 0.559166
O O7 0.186587 0.298922 0.859274
O O8 0.248839 0.133767 0.827157
O O9 0.271485 0.200806 0.938468
O O10 0.653331 0.015575 0.168966
O O11 0.649990 0.072884 0.059001
O O12 0.875097 0.797962 0.000000
O O13 0.051522 0.751116 0.000000
O O14 0.117523 0.617523 0.250000
#
# Coordination Sequence:
#
# PCOD9564777 Si02
#       7
#    16  16  16  16   8  16   8
#     4  11  23  35  59  88 120 163 209 242 311 383
#     4   9  19  35  53  76 110 149 195 251 298 348
#     4  10  23  40  62  92 126 163 209 267 322 375
#     4  11  23  41  64  93 130 165 212 272 321 384
#     4  10  22  40  69  95 122 172 210 275 341 377
#     4  10  23  42  62  88 124 165 208 253 318 376
#     4  10  20  42  65  93 126 158 216 273 325 393
#
# _framework density 20.586528000000001
#
# number of rings (size 3 to 8) (size 9 to 14) (size 15 to 20)
#    0.000    1.833    1.667    2.000    2.333   10.167 
#    0.000    0.833    0.000    0.500    0.000    0.000 
#    0.000    0.000    0.000    0.000    0.000    0.000 
#
# Total GULP energy -535297.212478 kJ/mol
# GULP energy per Si atom -5576.012630 kJ/mol
# Density = 2.053967 g / cm^3
# Si number density = 20.586528 Si / 1000 Ang^3
#
#
#
# Elastic Constant Matrix: (Units=GPa)
#
#
# Indices 1 2 3 4 5 6 
#
# 1 56.7472 12.9643 32.6134 0.0000 0.0000 0.0000
# 2 12.9643 56.7472 32.6134 0.0000 0.0000 0.0000
# 3 32.6134 32.6134 163.0383 0.0000 0.0000 0.0000
# 4 0.0000 0.0000 0.0000 17.8021 0.0000 0.0000
# 5 0.0000 0.0000 0.0000 0.0000 17.8021 0.0000
# 6 0.0000 0.0000 0.0000 0.0000 0.0000 13.7003
#
#
#
# Elastic Compliance Matrix: (Units=1/GPa)
#
#
# Indices 1 2 3 4 5 6 
#
# 1 0.020244 -0.002596 -0.003530 0.000000 0.000000 0.000000
# 2 -0.002596 0.020244 -0.003530 0.000000 0.000000 0.000000
# 3 -0.003530 -0.003530 0.007546 0.000000 0.000000 0.000000
# 4 0.000000 0.000000 0.000000 0.056173 0.000000 0.000000
# 5 0.000000 0.000000 0.000000 0.000000 0.056173 0.000000
# 6 0.000000 0.000000 0.000000 0.000000 0.000000 0.072991
#
#
# Mechanical properties :
#
#
# Convention : Reuss Voigt Hill
#
# Bulk Modulus (GPa) = 34.81785 48.10163 41.45974
# Shear Modulus (GPa) = 19.06521 23.08367 21.07444
#
# Velocity S-wave (km/s) = 3.04649 3.35221 3.20300
# Velocity P-wave (km/s) = 5.41521 6.19673 5.81910
#
# Compressibility (1/GPa) = 0.02872090
#
# Stress axis : x y z
#
# Youngs Moduli (GPa) = 49.39754 49.39754 132.52305
#
# Poissons Ratio (x) = 0.12824 0.46783
# Poissons Ratio (y) = 0.12824 0.46783
# Poissons Ratio (z) = 0.17438 0.17438
#
# Static dielectric constant tensor:
#      x y z
#    x 1.766520 0.000000 0.000000 
#    y 0.000000 1.766520 0.000000 
#    z 0.000000 0.000000 1.773390 
# 
# From -- ./inp_files/5798.got.cif
#   From: 2010.05.17/outbox.cif.g08.bks.cpg/sg128_3_cif.got.tgz:5798.got - 2010.05.20 12:07:25.
