data_PCOD9564032
_publ_section_title
;
Structure prediction by ZEFSAII (Michael W. Deem and Ramdas Pophale) SiO2 
 PCOD9564032
Probable space group: P 4/M B M
;
_chemical_formula_sum "Si O2"
_cell_formula_units_Z 96
_cell_length_a 24.593204
_cell_length_b 24.593204
_cell_length_c 8.545063
_cell_angle_alpha 90.000000
_cell_angle_beta 90.000000
_cell_angle_gamma 90.000000
_cell_volume 5168.273565
_symmetry_space_group_name_H-M "P 4/M B M"
_symmetry_group_IT_number 127
_symmetry_cell_setting 'tetragonal'
loop_
_space_group_symop_operation_xyz
x,y,z
-y,x,z
-x,-y,z
y,-x,z
1/2+x,1/2-y,-z
1/2-x,1/2+y,-z
1/2+y,1/2+x,-z
1/2-y,1/2-x,-z
-x,-y,-z
y,-x,-z
x,y,-z
-y,x,-z
1/2-x,1/2+y,z
1/2+x,1/2-y,z
1/2-y,1/2-x,z
1/2+y,1/2+x,z
loop_
_atom_site_type_symbol
_atom_site_label
_atom_site_fract_x
_atom_site_fract_y
_atom_site_fract_z
Si Si1 0.565608 0.847483 0.309648
Si Si2 0.556801 0.145004 0.689391
Si Si3 0.777135 0.946300 0.313119
Si Si4 0.565569 0.266609 0.812013
Si Si5 0.639063 0.359767 0.178454
Si Si6 0.926485 0.053420 0.675041
O O1 0.567832 0.847656 0.500000
O O2 0.613557 0.886444 0.252141
O O3 0.505468 0.868043 0.265134
O O4 0.568796 0.784364 0.261720
O O5 0.558191 0.147732 0.500000
O O6 0.599882 0.099882 0.741132
O O7 0.569511 0.204821 0.753872
O O8 0.778139 0.951453 0.500000
O O9 0.817682 0.898209 0.264092
O O10 0.788794 0.006757 0.246489
O O11 0.617699 0.301976 0.757056
O O12 0.565278 0.268547 0.000000
O O13 0.583008 0.393447 0.192013
O O14 0.656935 0.353208 0.000000
O O15 0.905959 0.068463 0.500000
O O16 0.988751 0.072684 0.684521
#
# Coordination Sequence:
#
# PCOD9564032 Si02
#       6
#    16  16  16  16  16  16
#     4   8  15  30  53  81 109 133 161 202 254 308
#     4   9  18  33  55  83 110 136 170 211 255 307
#     4  10  20  34  54  77 102 135 173 215 262 310
#     4  10  21  36  53  74 104 141 178 217 261 310
#     4  11  22  33  47  69  96 131 175 216 256 304
#     4   9  18  31  46  66  92 122 159 207 262 313
#
# _framework density 18.574867999999999
#
# number of rings (size 3 to 8) (size 9 to 14) (size 15 to 20)
#    0.000    2.500    0.000    4.000    0.000    6.667 
#    0.000    3.333    0.000   15.500    0.000    4.667 
#    0.000    0.000    0.000    0.000    0.000    0.000 
#
# Total GULP energy -535092.694715 kJ/mol
# GULP energy per Si atom -5573.882237 kJ/mol
# Density = 1.853259 g / cm^3
# Si number density = 18.574868 Si / 1000 Ang^3
#
#
#
# Elastic Constant Matrix: (Units=GPa)
#
#
# Indices 1 2 3 4 5 6 
#
# 1 85.2922 64.3156 17.1356 0.0000 0.0000 0.0000
# 2 64.3156 85.2922 17.1356 0.0000 0.0000 0.0000
# 3 17.1356 17.1356 23.1824 0.0000 0.0000 0.0000
# 4 0.0000 0.0000 0.0000 7.1742 0.0000 0.0000
# 5 0.0000 0.0000 0.0000 0.0000 7.1742 0.0000
# 6 0.0000 0.0000 0.0000 0.0000 0.0000 38.5168
#
#
#
# Elastic Compliance Matrix: (Units=1/GPa)
#
#
# Indices 1 2 3 4 5 6 
#
# 1 0.027859 -0.019813 -0.005948 0.000000 0.000000 0.000000
# 2 -0.019813 0.027859 -0.005948 0.000000 0.000000 0.000000
# 3 -0.005948 -0.005948 0.051929 0.000000 0.000000 0.000000
# 4 0.000000 0.000000 0.000000 0.139389 0.000000 0.000000
# 5 0.000000 0.000000 0.000000 0.000000 0.139389 0.000000
# 6 0.000000 0.000000 0.000000 0.000000 0.000000 0.025963
#
#
# Mechanical properties :
#
#
# Convention : Reuss Voigt Hill
#
# Bulk Modulus (GPa) = 22.60851 43.43782 33.02317
# Shear Modulus (GPa) = 10.19267 16.91836 13.55552
#
# Velocity S-wave (km/s) = 2.34505 3.02125 2.70437
# Velocity P-wave (km/s) = 4.41931 5.96713 5.25057
#
# Compressibility (1/GPa) = 0.04423113
#
# Stress axis : x y z
#
# Youngs Moduli (GPa) = 35.89454 35.89454 19.25708
#
# Poissons Ratio (x) = 0.71117 0.11454
# Poissons Ratio (y) = 0.71117 0.11454
# Poissons Ratio (z) = 0.21349 0.21349
#
# Static dielectric constant tensor:
#      x y z
#    x 1.650350 0.000000 0.000000 
#    y 0.000000 1.650350 0.000000 
#    z 0.000000 0.000000 1.659200 
# 
# From -- ./inp_files/2039.got.cif
#   From: 2010.05.17/outbox.cif.g08.bks.cpg/sg127_2_cif.got.tgz:2039.got - 2010.05.20 12:03:00.
