data_PCOD9564980
_publ_section_title
;
Structure prediction by ZEFSAII (Michael W. Deem and Ramdas Pophale) SiO2 
 PCOD9564980
Probable space group: P 4/M N C
;
_chemical_formula_sum "Si O2"
_cell_formula_units_Z 128
_cell_length_a 17.053505
_cell_length_b 17.053505
_cell_length_c 25.160561
_cell_angle_alpha 90.000000
_cell_angle_beta 90.000000
_cell_angle_gamma 90.000000
_cell_volume 7317.245496
_symmetry_space_group_name_H-M "P 4/M N C"
_symmetry_group_IT_number 128
_symmetry_cell_setting 'tetragonal'
loop_
_space_group_symop_operation_xyz
x,y,z
-y,x,z
-x,-y,z
y,-x,z
1/2+x,1/2-y,1/2-z
1/2-x,1/2+y,1/2-z
1/2+y,1/2+x,1/2-z
1/2-y,1/2-x,1/2-z
-x,-y,-z
y,-x,-z
x,y,-z
-y,x,-z
1/2-x,1/2+y,1/2+z
1/2+x,1/2-y,1/2+z
1/2-y,1/2-x,1/2+z
1/2+y,1/2+x,1/2+z
loop_
_atom_site_type_symbol
_atom_site_label
_atom_site_fract_x
_atom_site_fract_y
_atom_site_fract_z
Si Si1 0.297892 0.479053 0.663762
Si Si2 0.822368 0.402591 0.208285
Si Si3 0.881831 0.049320 0.728504
Si Si4 0.520662 0.370392 0.063517
Si Si5 0.688212 0.144081 0.809153
Si Si6 0.261715 0.649204 0.689139
Si Si7 0.742244 0.054729 0.348509
Si Si8 0.375503 0.454957 0.442139
O O1 0.359527 0.453459 0.709331
O O2 0.213665 0.445381 0.681170
O O3 0.295595 0.572865 0.661084
O O4 0.320845 0.442397 0.607810
O O5 0.895974 0.395974 0.250000
O O6 0.752143 0.378988 0.249399
O O7 0.833360 0.327188 0.170755
O O8 0.802623 0.479914 0.176542
O O9 0.807947 0.077346 0.695365
O O10 0.959258 0.097644 0.715438
O O11 0.586867 0.437106 0.075034
O O12 0.534355 0.293491 0.099393
O O13 0.523127 0.354683 0.000000
O O14 0.654775 0.154775 0.750000
O O15 0.770926 0.190459 0.812562
O O16 0.626562 0.181624 0.849947
O O17 0.454951 0.404732 0.439247
O O18 0.339020 0.441422 0.500000
#
# Coordination Sequence:
#
# PCOD9564980 Si02
#       8
#    16  16  16  16  16  16  16  16
#     4  12  21  34  53  75 109 150 184 228 276 340
#     4   8  18  34  49  72 106 151 177 220 275 325
#     4  11  21  28  46  80 108 133 170 221 278 353
#     4   9  20  37  57  84 118 153 188 236 297 356
#     4  12  22  33  52  81 114 144 187 236 287 341
#     4   9  19  34  52  72 112 151 175 220 288 330
#     4  12  22  33  56  79 110 151 193 231 283 350
#     4   9  18  33  54  79 107 141 177 219 281 345
#
# _framework density 17.492920999999999
#
# number of rings (size 3 to 8) (size 9 to 14) (size 15 to 20)
#    0.750    0.875    3.750    3.750    3.500    2.000 
#    0.000    1.250    2.750    1.500    0.000    0.000 
#    0.000    2.000    0.000    0.000    0.000    0.000 
#
# Total GULP energy -713350.553610 kJ/mol
# GULP energy per Si atom -5573.051200 kJ/mol
# Density = 1.745311 g / cm^3
# Si number density = 17.492921 Si / 1000 Ang^3
#
#
#
# Elastic Constant Matrix: (Units=GPa)
#
#
# Indices 1 2 3 4 5 6 
#
# 1 57.7798 16.2687 12.9935 0.0000 0.0000 0.0000
# 2 16.2687 57.7798 12.9935 0.0000 0.0000 0.0000
# 3 12.9935 12.9935 80.3279 0.0000 0.0000 0.0000
# 4 0.0000 0.0000 0.0000 20.7468 0.0000 0.0000
# 5 0.0000 0.0000 0.0000 0.0000 20.7468 0.0000
# 6 0.0000 0.0000 0.0000 0.0000 0.0000 29.7584
#
#
#
# Elastic Compliance Matrix: (Units=1/GPa)
#
#
# Indices 1 2 3 4 5 6 
#
# 1 0.019204 -0.004886 -0.002316 0.000000 0.000000 0.000000
# 2 -0.004886 0.019204 -0.002316 0.000000 0.000000 0.000000
# 3 -0.002316 -0.002316 0.013198 0.000000 0.000000 0.000000
# 4 0.000000 0.000000 0.000000 0.048200 0.000000 0.000000
# 5 0.000000 0.000000 0.000000 0.000000 0.048200 0.000000
# 6 0.000000 0.000000 0.000000 0.000000 0.000000 0.033604
#
#
# Mechanical properties :
#
#
# Convention : Reuss Voigt Hill
#
# Bulk Modulus (GPa) = 30.70373 31.15545 30.92959
# Shear Modulus (GPa) = 23.64037 24.49252 24.06645
#
# Velocity S-wave (km/s) = 3.68016 3.74590 3.71318
# Velocity P-wave (km/s) = 5.97062 6.04632 6.00859
#
# Compressibility (1/GPa) = 0.03256933
#
# Stress axis : x y z
#
# Youngs Moduli (GPa) = 52.07331 52.07331 75.76784
#
# Poissons Ratio (x) = 0.25444 0.17547
# Poissons Ratio (y) = 0.25444 0.17547
# Poissons Ratio (z) = 0.12060 0.12060
#
# Static dielectric constant tensor:
#      x y z
#    x 1.638960 0.000000 0.000000 
#    y 0.000000 1.638960 0.000000 
#    z 0.000000 0.000000 1.607120 
# 
# From -- ./inp_files/6605.got.cif
#   From: 2010.05.17/outbox.cif.g08.bks.cpg/sg128_4_cif.got.tgz:6605.got - 2010.05.20 12:07:25.
