data_PCOD9564891
_publ_section_title
;
Structure prediction by ZEFSAII (Michael W. Deem and Ramdas Pophale) SiO2 
 PCOD9564891
Probable space group: P 4/M N C
;
_chemical_formula_sum "Si O2"
_cell_formula_units_Z 80
_cell_length_a 15.582721
_cell_length_b 15.582721
_cell_length_c 18.567662
_cell_angle_alpha 90.000000
_cell_angle_beta 90.000000
_cell_angle_gamma 90.000000
_cell_volume 4508.621852
_symmetry_space_group_name_H-M "P 4/M N C"
_symmetry_group_IT_number 128
_symmetry_cell_setting 'tetragonal'
loop_
_space_group_symop_operation_xyz
x,y,z
-y,x,z
-x,-y,z
y,-x,z
1/2+x,1/2-y,1/2-z
1/2-x,1/2+y,1/2-z
1/2+y,1/2+x,1/2-z
1/2-y,1/2-x,1/2-z
-x,-y,-z
y,-x,-z
x,y,-z
-y,x,-z
1/2-x,1/2+y,1/2+z
1/2+x,1/2-y,1/2+z
1/2-y,1/2-x,1/2+z
1/2+y,1/2+x,1/2+z
loop_
_atom_site_type_symbol
_atom_site_label
_atom_site_fract_x
_atom_site_fract_y
_atom_site_fract_z
Si Si1 0.537371 0.093754 0.913456
Si Si2 0.726735 0.496789 0.129673
Si Si3 0.861150 0.038506 0.218114
Si Si4 0.203256 0.354761 0.329993
Si Si5 0.191338 0.820080 0.580113
O O1 0.487781 0.170159 0.871908
O O2 0.632354 0.102026 0.881052
O O3 0.500000 0.000000 0.899409
O O4 0.535192 0.107985 0.000000
O O5 0.681307 0.528618 0.202623
O O6 0.710055 0.578121 0.078711
O O7 0.690579 0.405970 0.105714
O O8 0.784456 0.082644 0.174091
O O9 0.942875 0.101153 0.207366
O O10 0.164911 0.335090 0.250000
O O11 0.219959 0.261263 0.365614
O O12 0.201346 0.784020 0.500000
#
# Coordination Sequence:
#
# PCOD9564891 Si02
#       5
#    16  16  16  16  16
#     4  10  22  39  59  85 121 159 198 249 305 363
#     4  11  19  37  57  85 124 155 198 249 303 370
#     4  11  22  39  59  85 120 156 197 249 306 358
#     4  11  20  38  57  84 119 159 204 247 294 357
#     4  11  22  35  59  90 125 164 202 248 307 373
#
# _framework density 17.743780999999998
#
# number of rings (size 3 to 8) (size 9 to 14) (size 15 to 20)
#    0.000    1.200    6.000    3.600    0.000    2.400 
#    0.000    3.000    0.000    3.600    0.000    5.600 
#    0.000    0.000    0.000    0.000    0.000    0.000 
#
# Total GULP energy -445499.858001 kJ/mol
# GULP energy per Si atom -5568.748225 kJ/mol
# Density = 1.770340 g / cm^3
# Si number density = 17.743781 Si / 1000 Ang^3
#
#
#
# Elastic Constant Matrix: (Units=GPa)
#
#
# Indices 1 2 3 4 5 6 
#
# 1 105.6974 47.5882 18.7586 0.0000 0.0000 0.0000
# 2 47.5882 105.6972 18.7583 0.0000 0.0000 0.0000
# 3 18.7586 18.7583 43.0043 0.0000 0.0000 0.0000
# 4 0.0000 0.0000 0.0000 12.7732 0.0000 0.0000
# 5 0.0000 0.0000 0.0000 0.0000 12.7728 0.0000
# 6 0.0000 0.0000 0.0000 0.0000 0.0000 33.3262
#
#
#
# Elastic Compliance Matrix: (Units=1/GPa)
#
#
# Indices 1 2 3 4 5 6 
#
# 1 0.012256 -0.004953 -0.003186 0.000000 0.000000 0.000000
# 2 -0.004953 0.012256 -0.003186 0.000000 0.000000 0.000000
# 3 -0.003186 -0.003186 0.026033 0.000000 0.000000 0.000000
# 4 0.000000 0.000000 0.000000 0.078289 0.000000 0.000000
# 5 0.000000 0.000000 0.000000 0.000000 0.078292 0.000000
# 6 0.000000 0.000000 0.000000 0.000000 0.000000 0.030006
#
#
# Mechanical properties :
#
#
# Convention : Reuss Voigt Hill
#
# Bulk Modulus (GPa) = 35.84664 47.17879 41.51271
# Shear Modulus (GPa) = 18.58185 23.06069 20.82127
#
# Velocity S-wave (km/s) = 3.23961 3.60898 3.42927
# Velocity P-wave (km/s) = 5.85146 6.63422 6.25510
#
# Compressibility (1/GPa) = 0.02789662
#
# Stress axis : x y z
#
# Youngs Moduli (GPa) = 81.59096 81.59105 38.41316
#
# Poissons Ratio (x) = 0.40410 0.12238
# Poissons Ratio (y) = 0.40410 0.12237
# Poissons Ratio (z) = 0.25994 0.25993
#
# Static dielectric constant tensor:
#      x y z
#    x 1.625310 0.000000 0.000000 
#    y 0.000000 1.625310 0.000000 
#    z 0.000000 0.000000 1.622310 
# 
# From -- ./inp_files/5540.got.cif
#   From: 2010.05.17/outbox.cif.g08.bks.cpg/sg128_3_cif.got.tgz:5540.got - 2010.05.20 12:07:25.
