data_PCOD9564996
_publ_section_title
;
Structure prediction by ZEFSAII (Michael W. Deem and Ramdas Pophale) SiO2 
 PCOD9564996
Probable space group: P 4/M N C
;
_chemical_formula_sum "Si O2"
_cell_formula_units_Z 64
_cell_length_a 19.754328
_cell_length_b 19.754328
_cell_length_c 9.149633
_cell_angle_alpha 90.000000
_cell_angle_beta 90.000000
_cell_angle_gamma 90.000000
_cell_volume 3570.493078
_symmetry_space_group_name_H-M "P 4/M N C"
_symmetry_group_IT_number 128
_symmetry_cell_setting 'tetragonal'
loop_
_space_group_symop_operation_xyz
x,y,z
-y,x,z
-x,-y,z
y,-x,z
1/2+x,1/2-y,1/2-z
1/2-x,1/2+y,1/2-z
1/2+y,1/2+x,1/2-z
1/2-y,1/2-x,1/2-z
-x,-y,-z
y,-x,-z
x,y,-z
-y,x,-z
1/2-x,1/2+y,1/2+z
1/2+x,1/2-y,1/2+z
1/2-y,1/2-x,1/2+z
1/2+y,1/2+x,1/2+z
loop_
_atom_site_type_symbol
_atom_site_label
_atom_site_fract_x
_atom_site_fract_y
_atom_site_fract_z
Si Si1 0.799747 0.800008 0.173519
Si Si2 0.933996 0.231222 0.330572
Si Si3 0.940412 0.725024 0.827051
Si Si4 0.379412 0.023176 0.668746
O O1 0.738136 0.761865 0.250000
O O2 0.804381 0.873158 0.247732
O O3 0.866273 0.754331 0.198239
O O4 0.789191 0.806437 0.000000
O O5 0.938441 0.211425 0.500000
O O6 0.004960 0.224133 0.245751
O O7 0.926359 0.313717 0.327845
O O8 0.958790 0.653693 0.750242
O O9 0.952234 0.718971 0.000000
O O10 0.441082 0.058918 0.750000
O O11 0.395037 0.008555 0.500000
#
# Coordination Sequence:
#
# PCOD9564996 Si02
#       4
#    16  16  16  16
#     4  11  22  34  54  81 110 142 175 220 268 315
#     4   9  19  32  51  76 103 137 173 214 260 309
#     4   9  19  34  50  74 107 140 175 216 265 315
#     4   9  17  28  47  73  97 130 168 209 254 301
#
# _framework density 17.924693999999999
#
# number of rings (size 3 to 8) (size 9 to 14) (size 15 to 20)
#    1.500    1.000    0.000    3.000    0.000    6.000 
#    0.000    0.000    0.000    1.500    0.000   10.500 
#    0.000    0.000    0.000    0.000    0.000    0.000 
#
# Total GULP energy -356316.595916 kJ/mol
# GULP energy per Si atom -5567.446811 kJ/mol
# Density = 1.788390 g / cm^3
# Si number density = 17.924694 Si / 1000 Ang^3
#
#
#
# Elastic Constant Matrix: (Units=GPa)
#
#
# Indices 1 2 3 4 5 6 
#
# 1 47.6933 11.0946 35.4367 0.0000 0.0000 0.0000
# 2 11.0946 47.6937 35.4293 0.0000 0.0000 0.0000
# 3 35.4367 35.4293 106.5760 0.0000 0.0000 0.0000
# 4 0.0000 0.0000 0.0000 -54.3327 0.0000 0.0000
# 5 0.0000 0.0000 0.0000 0.0000 -54.3299 0.0000
# 6 0.0000 0.0000 0.0000 0.0000 0.0000 33.7133
#
#
#
# Elastic Compliance Matrix: (Units=1/GPa)
#
#
# Indices 1 2 3 4 5 6 
#
# 1 0.027857 0.000532 -0.009439 0.000000 0.000000 0.000000
# 2 0.000532 0.027853 -0.009436 0.000000 0.000000 0.000000
# 3 -0.009439 -0.009436 0.015658 0.000000 0.000000 0.000000
# 4 0.000000 0.000000 0.000000 -0.018405 0.000000 0.000000
# 5 0.000000 0.000000 0.000000 0.000000 -0.018406 0.000000
# 6 0.000000 0.000000 0.000000 0.000000 0.000000 0.029662
#
#
# Mechanical properties :
#
#
# Convention : Reuss Voigt Hill
#
# Bulk Modulus (GPa) = 28.83386 40.65381 34.74383
# Shear Modulus (GPa) = 44.45749 -6.98969 18.73390
#
# Velocity S-wave (km/s) = 4.98560 -1.97685 3.23638
# Velocity P-wave (km/s) = 7.01874 4.18557 5.77848
#
# Compressibility (1/GPa) = 0.03468144
#
# Stress axis : x y z
#
# Youngs Moduli (GPa) = 35.89742 35.90272 63.86330
#
# Poissons Ratio (x) = -0.01910 0.60283
# Poissons Ratio (y) = -0.01909 0.60262
# Poissons Ratio (z) = 0.33885 0.33878
#
# Static dielectric constant tensor:
#      x y z
#    x 1.619880 0.000000 0.000000 
#    y 0.000000 1.619890 0.000000 
#    z 0.000000 0.000000 1.596900 
# 
# From -- ./inp_files/1031.got.cif
#   From: 2010.05.17/outbox.cif.g08.bks.cpg/sg128_1_cif.got.tgz:1031.got - 2010.05.20 12:07:25.
