data_PCOD9564706
_publ_section_title
;
Structure prediction by ZEFSAII (Michael W. Deem and Ramdas Pophale) SiO2 
 PCOD9564706
Probable space group: P 4/M N C
;
_chemical_formula_sum "Si O2"
_cell_formula_units_Z 96
_cell_length_a 18.656570
_cell_length_b 18.656570
_cell_length_c 15.727222
_cell_angle_alpha 90.000000
_cell_angle_beta 90.000000
_cell_angle_gamma 90.000000
_cell_volume 5474.136482
_symmetry_space_group_name_H-M "P 4/M N C"
_symmetry_group_IT_number 128
_symmetry_cell_setting 'tetragonal'
loop_
_space_group_symop_operation_xyz
x,y,z
-y,x,z
-x,-y,z
y,-x,z
1/2+x,1/2-y,1/2-z
1/2-x,1/2+y,1/2-z
1/2+y,1/2+x,1/2-z
1/2-y,1/2-x,1/2-z
-x,-y,-z
y,-x,-z
x,y,-z
-y,x,-z
1/2-x,1/2+y,1/2+z
1/2+x,1/2-y,1/2+z
1/2-y,1/2-x,1/2+z
1/2+y,1/2+x,1/2+z
loop_
_atom_site_type_symbol
_atom_site_label
_atom_site_fract_x
_atom_site_fract_y
_atom_site_fract_z
Si Si1 0.584126 0.781856 0.095876
Si Si2 0.273230 0.912437 0.408460
Si Si3 0.356253 0.916091 0.163011
Si Si4 0.429265 0.167954 0.400608
Si Si5 0.298972 0.582171 0.730483
Si Si6 0.302310 0.415640 0.735944
O O1 0.497909 0.784918 0.097106
O O2 0.615997 0.861152 0.107991
O O3 0.603582 0.733687 0.177244
O O4 0.605410 0.757333 0.000000
O O5 0.242001 0.894354 0.500000
O O6 0.350973 0.877308 0.397618
O O7 0.222183 0.893323 0.330735
O O8 0.399718 0.899718 0.250000
O O9 0.271536 0.910314 0.183259
O O10 0.367951 0.995741 0.127856
O O11 0.435150 0.188780 0.500000
O O12 0.416158 0.235545 0.338960
O O13 0.323659 0.499258 0.736348
O O14 0.362760 0.635596 0.706993
#
# Coordination Sequence:
#
# PCOD9564706 Si02
#       6
#    16  16  16  16  16  16
#     4   9  19  33  51  76 106 138 171 203 246 300
#     4   9  17  31  49  73 104 134 162 200 244 294
#     4   9  18  32  49  74 105 136 171 206 244 292
#     4  10  20  34  52  77 106 140 175 206 244 296
#     4  10  20  37  54  72 100 129 165 218 263 304
#     4   9  20  35  52  72  95 127 167 209 260 310
#
# _framework density 17.537013000000002
#
# number of rings (size 3 to 8) (size 9 to 14) (size 15 to 20)
#    0.000    2.667    0.000    2.000    0.000    5.667 
#    0.000   12.500    0.000    0.000    0.000    9.333 
#    0.000    0.000    0.000    0.000    0.000    0.000 
#
# Total GULP energy -535026.263148 kJ/mol
# GULP energy per Si atom -5573.190241 kJ/mol
# Density = 1.749710 g / cm^3
# Si number density = 17.537013 Si / 1000 Ang^3
#
#
#
# Elastic Constant Matrix: (Units=GPa)
#
#
# Indices 1 2 3 4 5 6 
#
# 1 42.7599 35.3689 15.3867 0.0000 0.0000 0.0000
# 2 35.3689 42.7599 15.3867 0.0000 0.0000 0.0000
# 3 15.3867 15.3867 66.0243 0.0000 0.0000 0.0000
# 4 0.0000 0.0000 0.0000 9.3047 0.0000 0.0000
# 5 0.0000 0.0000 0.0000 0.0000 9.3047 0.0000
# 6 0.0000 0.0000 0.0000 0.0000 0.0000 -23.1125
#
#
#
# Elastic Compliance Matrix: (Units=1/GPa)
#
#
# Indices 1 2 3 4 5 6 
#
# 1 0.074697 -0.060604 -0.003284 0.000000 0.000000 0.000000
# 2 -0.060604 0.074697 -0.003284 0.000000 0.000000 0.000000
# 3 -0.003284 -0.003284 0.016677 0.000000 0.000000 0.000000
# 4 0.000000 0.000000 0.000000 0.107473 0.000000 0.000000
# 5 0.000000 0.000000 0.000000 0.000000 0.107473 0.000000
# 6 0.000000 0.000000 0.000000 0.000000 0.000000 -0.043267
#
#
# Mechanical properties :
#
#
# Convention : Reuss Voigt Hill
#
# Bulk Modulus (GPa) = 31.52042 31.53653 31.52847
# Shear Modulus (GPa) = 10.35909 4.79283 7.57596
#
# Velocity S-wave (km/s) = 2.43307 1.65497 2.08071
# Velocity P-wave (km/s) = 5.08977 4.65551 4.87747
#
# Compressibility (1/GPa) = 0.03172546
#
# Stress axis : x y z
#
# Youngs Moduli (GPa) = 13.38751 13.38751 59.96379
#
# Poissons Ratio (x) = 0.81133 0.19694
# Poissons Ratio (y) = 0.81133 0.19694
# Poissons Ratio (z) = 0.04397 0.04397
#
# Static dielectric constant tensor:
#      x y z
#    x 1.573310 0.000000 0.000000 
#    y 0.000000 1.573310 0.000000 
#    z 0.000000 0.000000 1.640140 
# 
# From -- ./inp_files/4782.got.cif
#   From: 2010.05.17/outbox.cif.g08.bks.cpg/sg128_3_cif.got.tgz:4782.got - 2010.05.20 12:07:25.
