data_PCOD9564432
_publ_section_title
;
Structure prediction by ZEFSAII (Michael W. Deem and Ramdas Pophale) SiO2 
 PCOD9564432
Probable space group: P 4/M B M
;
_chemical_formula_sum "Si O2"
_cell_formula_units_Z 88
_cell_length_a 12.127696
_cell_length_b 12.127696
_cell_length_c 30.835391
_cell_angle_alpha 90.000000
_cell_angle_beta 90.000000
_cell_angle_gamma 90.000000
_cell_volume 4535.300460
_symmetry_space_group_name_H-M "P 4/M B M"
_symmetry_group_IT_number 127
_symmetry_cell_setting 'tetragonal'
loop_
_space_group_symop_operation_xyz
x,y,z
-y,x,z
-x,-y,z
y,-x,z
1/2+x,1/2-y,-z
1/2-x,1/2+y,-z
1/2+y,1/2+x,-z
1/2-y,1/2-x,-z
-x,-y,-z
y,-x,-z
x,y,-z
-y,x,-z
1/2-x,1/2+y,z
1/2+x,1/2-y,z
1/2-y,1/2-x,z
1/2+y,1/2+x,z
loop_
_atom_site_type_symbol
_atom_site_label
_atom_site_fract_x
_atom_site_fract_y
_atom_site_fract_z
Si Si1 0.592000 0.092000 0.448008
Si Si2 0.817057 0.038421 0.600592
Si Si3 0.501092 0.172378 0.779225
Si Si4 0.681387 0.458185 0.140762
Si Si5 0.541047 0.320103 0.300134
Si Si6 0.958093 0.183002 0.046653
O O1 0.596341 0.096341 0.500000
O O2 0.559194 0.212268 0.429539
O O3 0.500000 0.000000 0.435670
O O4 0.873950 0.917774 0.594678
O O5 0.777768 0.049221 0.650697
O O6 0.595143 0.095143 0.799539
O O7 0.448940 0.245308 0.816923
O O8 0.552866 0.239012 0.739724
O O9 0.407303 0.092698 0.760603
O O10 0.626642 0.579726 0.142502
O O11 0.738443 0.445169 0.093600
O O12 0.626621 0.419889 0.295995
O O13 0.079294 0.126386 0.046696
O O14 0.944773 0.241127 0.000000
#
# Coordination Sequence:
#
# PCOD9564432 Si02
#       6
#     8  16  16  16  16  16
#     4  11  26  42  62  97 135 169 211 260 307 357
#     4   9  21  43  68  94 125 165 209 256 311 368
#     4  11  24  36  46  70 106 142 180 216 262 316
#     4   9  17  30  50  74  98 127 165 211 262 318
#     4   9  19  38  62  86 110 137 179 228 277 335
#     4   7  10  19  39  68  96 118 148 199 261 316
#
# _framework density 19.403345000000002
#
# number of rings (size 3 to 8) (size 9 to 14) (size 15 to 20)
#    0.000    2.818    0.000    3.818    2.545    5.818 
#    3.273    0.909    0.000    1.091    0.000    6.364 
#    0.000    0.000    0.000    0.000    0.000    0.000 
#
# Total GULP energy -490334.842984 kJ/mol
# GULP energy per Si atom -5571.986852 kJ/mol
# Density = 1.935918 g / cm^3
# Si number density = 19.403345 Si / 1000 Ang^3
#
#
#
# Elastic Constant Matrix: (Units=GPa)
#
#
# Indices 1 2 3 4 5 6 
#
# 1 54.3709 16.5983 39.4576 0.0000 0.0000 0.0000
# 2 16.5983 54.3709 39.4576 0.0000 0.0000 0.0000
# 3 39.4576 39.4576 103.6551 0.0000 0.0000 0.0000
# 4 0.0000 0.0000 0.0000 -55.9288 0.0000 0.0000
# 5 0.0000 0.0000 0.0000 0.0000 -55.9288 0.0000
# 6 0.0000 0.0000 0.0000 0.0000 0.0000 -42.5008
#
#
#
# Elastic Compliance Matrix: (Units=1/GPa)
#
#
# Indices 1 2 3 4 5 6 
#
# 1 0.025453 -0.001021 -0.009301 0.000000 0.000000 0.000000
# 2 -0.001021 0.025453 -0.009301 0.000000 0.000000 0.000000
# 3 -0.009301 -0.009301 0.016728 0.000000 0.000000 0.000000
# 4 0.000000 0.000000 0.000000 -0.017880 0.000000 0.000000
# 5 0.000000 0.000000 0.000000 0.000000 -0.017880 0.000000
# 6 0.000000 0.000000 0.000000 0.000000 0.000000 -0.023529
#
#
# Mechanical properties :
#
#
# Convention : Reuss Voigt Hill
#
# Bulk Modulus (GPa) = 35.22250 44.82487 40.02368
# Shear Modulus (GPa) = 87.63716 -23.07946 32.27885
#
# Velocity S-wave (km/s) = 6.72786 -3.45259 4.08312
# Velocity P-wave (km/s) = 8.86252 2.69405 6.54989
#
# Compressibility (1/GPa) = 0.02839095
#
# Stress axis : x y z
#
# Youngs Moduli (GPa) = 39.28762 39.28762 59.77970
#
# Poissons Ratio (x) = 0.04011 0.55598
# Poissons Ratio (y) = 0.04011 0.55598
# Poissons Ratio (z) = 0.36540 0.36540
#
# Static dielectric constant tensor:
#      x y z
#    x 1.669540 0.000000 0.000000 
#    y 0.000000 1.669540 0.000000 
#    z 0.000000 0.000000 1.697220 
# 
# From -- ./inp_files/6491.got.cif
#   From: 2010.05.17/outbox.cif.g08.bks.cpg/sg127_4_cif.got.tgz:6491.got - 2010.05.20 12:03:00.
