data_PCOD9564937
_publ_section_title
;
Structure prediction by ZEFSAII (Michael W. Deem and Ramdas Pophale) SiO2 
 PCOD9564937
Probable space group: P 4/M N C
;
_chemical_formula_sum "Si O2"
_cell_formula_units_Z 108
_cell_length_a 15.004560
_cell_length_b 15.004560
_cell_length_c 26.470976
_cell_angle_alpha 90.000000
_cell_angle_beta 90.000000
_cell_angle_gamma 90.000000
_cell_volume 5959.591380
_symmetry_space_group_name_H-M "P 4/M N C"
_symmetry_group_IT_number 128
_symmetry_cell_setting 'tetragonal'
loop_
_space_group_symop_operation_xyz
x,y,z
-y,x,z
-x,-y,z
y,-x,z
1/2+x,1/2-y,1/2-z
1/2-x,1/2+y,1/2-z
1/2+y,1/2+x,1/2-z
1/2-y,1/2-x,1/2-z
-x,-y,-z
y,-x,-z
x,y,-z
-y,x,-z
1/2-x,1/2+y,1/2+z
1/2+x,1/2-y,1/2+z
1/2-y,1/2-x,1/2+z
1/2+y,1/2+x,1/2+z
loop_
_atom_site_type_symbol
_atom_site_label
_atom_site_fract_x
_atom_site_fract_y
_atom_site_fract_z
Si Si1 0.897630 0.810655 0.250000
Si Si2 0.040539 0.144422 0.056582
Si Si3 0.785749 0.569835 0.143668
Si Si4 0.072390 0.572397 0.331273
Si Si5 0.316320 0.183681 0.750000
Si Si6 0.355582 0.459448 0.943417
Si Si7 0.214254 0.430179 0.356330
Si Si8 0.500000 0.500000 0.750004
O O1 0.925339 0.755637 0.300055
O O2 0.790770 0.827554 0.249996
O O3 0.925352 0.755640 0.199947
O O4 0.946930 0.904194 0.250004
O O5 0.058274 0.211013 0.101757
O O6 0.940846 0.105215 0.060541
O O7 0.051338 0.182888 0.000000
O O8 0.857300 0.489996 0.139985
O O9 0.711015 0.558294 0.101756
O O10 0.838934 0.661076 0.135751
O O11 0.133800 0.633813 0.295745
O O12 0.142699 0.510014 0.360013
O O13 0.000000 0.500000 0.308755
O O14 0.440855 0.394779 0.939455
O O15 0.317122 0.448646 0.000000
#
# Coordination Sequence:
#
# PCOD9564937 Si02
#       8
#    16  16  16  16   8  16  16   4
#     4  12  26  39  55  96 126 158 203 255 304 361
#     4   9  21  41  64  89 120 160 201 250 313 367
#     4  11  23  41  62  89 125 159 206 251 301 363
#     4  10  23  40  61  84 118 174 203 234 305 374
#     4  12  23  42  60  83 132 160 210 254 292 361
#     4   9  21  41  64  89 120 160 201 250 313 367
#     4  11  23  41  62  89 125 159 206 251 301 363
#     4  12  28  36  56  88 122 164 200 240 308 362
#
# _framework density 18.122049000000001
#
# number of rings (size 3 to 8) (size 9 to 14) (size 15 to 20)
#    0.000    1.481    1.481    3.778    8.296    2.963 
#    0.000    0.741    0.000    2.667    0.000    0.000 
#    0.000    0.000    0.000    0.000    0.000    0.000 
#
# Total GULP energy -601696.598540 kJ/mol
# GULP energy per Si atom -5571.264801 kJ/mol
# Density = 1.808080 g / cm^3
# Si number density = 18.122049 Si / 1000 Ang^3
#
#
#
# Elastic Constant Matrix: (Units=GPa)
#
#
# Indices 1 2 3 4 5 6 
#
# 1 88.2018 60.6431 62.8272 0.0000 0.0000 0.0000
# 2 60.6431 88.2021 62.8273 0.0000 0.0000 0.0000
# 3 62.8272 62.8273 157.2146 0.0000 0.0000 0.0000
# 4 0.0000 0.0000 0.0000 10.3214 0.0000 0.0000
# 5 0.0000 0.0000 0.0000 0.0000 10.3198 0.0000
# 6 0.0000 0.0000 0.0000 0.0000 0.0000 30.7601
#
#
#
# Elastic Compliance Matrix: (Units=1/GPa)
#
#
# Indices 1 2 3 4 5 6 
#
# 1 0.023212 -0.013074 -0.004052 0.000000 0.000000 0.000000
# 2 -0.013074 0.023212 -0.004052 0.000000 0.000000 0.000000
# 3 -0.004052 -0.004052 0.009599 0.000000 0.000000 0.000000
# 4 0.000000 0.000000 0.000000 0.096886 0.000000 0.000000
# 5 0.000000 0.000000 0.000000 0.000000 0.096901 0.000000
# 6 0.000000 0.000000 0.000000 0.000000 0.000000 0.032510
#
#
# Mechanical properties :
#
#
# Convention : Reuss Voigt Hill
#
# Bulk Modulus (GPa) = 73.15394 78.46820 75.81107
# Shear Modulus (GPa) = 15.18688 20.10166 17.64427
#
# Velocity S-wave (km/s) = 2.89802 3.33413 3.12370
# Velocity P-wave (km/s) = 7.18700 7.62993 7.41178
#
# Compressibility (1/GPa) = 0.01366980
#
# Stress axis : x y z
#
# Youngs Moduli (GPa) = 43.08024 43.08041 104.17599
#
# Poissons Ratio (x) = 0.56321 0.42210
# Poissons Ratio (y) = 0.56321 0.42210
# Poissons Ratio (z) = 0.17455 0.17455
#
# Static dielectric constant tensor:
#      x y z
#    x 1.611900 0.000000 0.000000 
#    y 0.000000 1.611900 0.000000 
#    z 0.000000 0.000000 1.621410 
# 
# From -- ./inp_files/6516.got.cif
#   From: 2010.05.17/outbox.cif.g08.bks.cpg/sg128_4_cif.got.tgz:6516.got - 2010.05.20 12:07:25.
