data_PCOD9564259
_publ_section_title
;
Structure prediction by ZEFSAII (Michael W. Deem and Ramdas Pophale) SiO2 
 PCOD9564259
Probable space group: P 4/M B M
;
_chemical_formula_sum "Si O2"
_cell_formula_units_Z 112
_cell_length_a 14.702865
_cell_length_b 14.702865
_cell_length_c 26.525638
_cell_angle_alpha 90.000000
_cell_angle_beta 90.000000
_cell_angle_gamma 90.000000
_cell_volume 5734.159614
_symmetry_space_group_name_H-M "P 4/M B M"
_symmetry_group_IT_number 127
_symmetry_cell_setting 'tetragonal'
loop_
_space_group_symop_operation_xyz
x,y,z
-y,x,z
-x,-y,z
y,-x,z
1/2+x,1/2-y,-z
1/2-x,1/2+y,-z
1/2+y,1/2+x,-z
1/2-y,1/2-x,-z
-x,-y,-z
y,-x,-z
x,y,-z
-y,x,-z
1/2-x,1/2+y,z
1/2+x,1/2-y,z
1/2-y,1/2-x,z
1/2+y,1/2+x,z
loop_
_atom_site_type_symbol
_atom_site_label
_atom_site_fract_x
_atom_site_fract_y
_atom_site_fract_z
Si Si1 0.610279 0.606577 0.054857
Si Si2 0.711807 0.365784 0.845624
Si Si3 0.984432 0.721781 0.706739
Si Si4 0.146967 0.493034 0.819282
Si Si5 0.336664 0.314699 0.732981
Si Si6 0.499408 0.352900 0.439153
Si Si7 0.999231 0.646931 0.598866
O O1 0.501671 0.623001 0.056055
O O2 0.647185 0.652241 0.105044
O O3 0.644430 0.640031 0.000000
O O4 0.789844 0.289844 0.845794
O O5 0.763785 0.463522 0.844683
O O6 0.661113 0.354553 0.791909
O O7 0.891674 0.778391 0.706331
O O8 0.987462 0.669394 0.759931
O O9 0.068247 0.791876 0.707447
O O10 0.993901 0.656757 0.659337
O O11 0.068272 0.568272 0.826297
O O12 0.103612 0.396389 0.835536
O O13 0.277624 0.222376 0.732891
O O14 0.588100 0.411205 0.422967
O O15 0.499301 0.352234 0.500000
O O16 0.499499 0.249679 0.420843
O O17 0.088575 0.588575 0.585229
O O18 0.912195 0.587806 0.581663
#
# Coordination Sequence:
#
# PCOD9564259 Si02
#       7
#    16  16  16  16  16  16  16
#     4   9  19  35  53  72  97 133 173 213 268 338
#     4   9  19  33  51  79 106 132 176 230 275 322
#     4  11  22  37  55  79 121 159 190 238 288 337
#     4   9  17  32  53  73 101 146 189 222 267 330
#     4  10  22  37  54  82 114 151 197 238 281 343
#     4   9  21  44  70  94 123 161 205 253 309 369
#     4  11  24  39  61  93 125 164 210 251 297 356
#
# _framework density 19.532069
#
# number of rings (size 3 to 8) (size 9 to 14) (size 15 to 20)
#    0.000    2.286    0.000    4.286    6.000    2.857 
#    0.000    2.143    0.000    1.286    0.000    2.000 
#    0.000    0.000    0.000    0.000    0.000    0.000 
#
# Total GULP energy -625042.054199 kJ/mol
# GULP energy per Si atom -5580.732627 kJ/mol
# Density = 1.948761 g / cm^3
# Si number density = 19.532069 Si / 1000 Ang^3
#
#
#
# Elastic Constant Matrix: (Units=GPa)
#
#
# Indices 1 2 3 4 5 6 
#
# 1 91.8085 37.7961 17.5723 0.0000 0.0000 0.0000
# 2 37.7961 91.8085 17.5723 0.0000 0.0000 0.0000
# 3 17.5723 17.5723 33.0512 0.0000 0.0000 0.0000
# 4 0.0000 0.0000 0.0000 14.2682 0.0000 0.0000
# 5 0.0000 0.0000 0.0000 0.0000 14.2682 0.0000
# 6 0.0000 0.0000 0.0000 0.0000 0.0000 13.9936
#
#
#
# Elastic Compliance Matrix: (Units=1/GPa)
#
#
# Indices 1 2 3 4 5 6 
#
# 1 0.013765 -0.004749 -0.004793 0.000000 0.000000 0.000000
# 2 -0.004749 0.013765 -0.004793 0.000000 0.000000 0.000000
# 3 -0.004793 -0.004793 0.035353 0.000000 0.000000 0.000000
# 4 0.000000 0.000000 0.000000 0.070086 0.000000 0.000000
# 5 0.000000 0.000000 0.000000 0.000000 0.070086 0.000000
# 6 0.000000 0.000000 0.000000 0.000000 0.000000 0.071461
#
#
# Mechanical properties :
#
#
# Convention : Reuss Voigt Hill
#
# Bulk Modulus (GPa) = 29.23042 40.28330 34.75686
# Shear Modulus (GPa) = 15.89361 18.08781 16.99071
#
# Velocity S-wave (km/s) = 2.85567 3.04642 2.95259
# Velocity P-wave (km/s) = 5.08635 5.74832 5.42744
#
# Compressibility (1/GPa) = 0.03421094
#
# Stress axis : x y z
#
# Youngs Moduli (GPa) = 72.64845 72.64845 28.28610
#
# Poissons Ratio (x) = 0.34503 0.13558
# Poissons Ratio (y) = 0.34503 0.13558
# Poissons Ratio (z) = 0.34823 0.34823
#
# Static dielectric constant tensor:
#      x y z
#    x 1.691780 0.000000 0.000000 
#    y 0.000000 1.691780 0.000000 
#    z 0.000000 0.000000 1.690170 
# 
# From -- ./inp_files/6404.got.cif
#   From: 2010.05.17/outbox.cif.g08.bks.cpg/sg127_4_cif.got.tgz:6404.got - 2010.05.20 12:03:00.
