data_PCOD9564490
_publ_section_title
;
Structure prediction by ZEFSAII (Michael W. Deem and Ramdas Pophale) SiO2 
 PCOD9564490
Probable space group: P 4/M B M
;
_chemical_formula_sum "Si O2"
_cell_formula_units_Z 104
_cell_length_a 27.000000
_cell_length_b 27.000000
_cell_length_c 9.000000
_cell_angle_alpha 90.000000
_cell_angle_beta 90.000000
_cell_angle_gamma 90.000000
_cell_volume 6561.000000
_symmetry_space_group_name_H-M "P 4/M B M"
_symmetry_group_IT_number 127
_symmetry_cell_setting 'tetragonal'
loop_
_space_group_symop_operation_xyz
x,y,z
-y,x,z
-x,-y,z
y,-x,z
1/2+x,1/2-y,-z
1/2-x,1/2+y,-z
1/2+y,1/2+x,-z
1/2-y,1/2-x,-z
-x,-y,-z
y,-x,-z
x,y,-z
-y,x,-z
1/2-x,1/2+y,z
1/2+x,1/2-y,z
1/2-y,1/2-x,z
1/2+y,1/2+x,z
loop_
_atom_site_type_symbol
_atom_site_label
_atom_site_fract_x
_atom_site_fract_y
_atom_site_fract_z
Si Si1 0.964447 0.249216 0.827630
Si Si2 0.417194 0.727361 0.168892
Si Si3 0.324378 0.904257 0.673493
Si Si4 0.569447 0.372287 0.322038
Si Si5 0.354402 0.543576 0.319734
Si Si6 0.041965 0.541965 0.820613
Si Si7 0.980287 0.351240 0.675549
O O1 0.944503 0.199812 0.746748
O O2 0.955345 0.302062 0.747676
O O3 0.023954 0.239822 0.824376
O O4 0.949207 0.251407 0.000000
O O5 0.392296 0.776415 0.230992
O O6 0.408285 0.679423 0.267587
O O7 0.403898 0.717016 0.000000
O O8 0.312248 0.897103 0.500000
O O9 0.369607 0.869607 0.715071
O O10 0.340696 0.961074 0.689762
O O11 0.568730 0.373738 0.500000
O O12 0.511876 0.371335 0.273374
O O13 0.603694 0.417529 0.271790
O O14 0.350519 0.543973 0.500000
O O15 0.029692 0.596553 0.756046
O O16 0.000000 0.500000 0.779609
O O17 0.043529 0.543529 0.000000
O O18 0.968149 0.354693 0.500000
#
# Coordination Sequence:
#
# PCOD9564490 Si02
#       7
#    16  16  16  16  16   8  16
#     4   9  17  30  47  67  91 120 156 196 234 274
#     4   9  17  28  43  64  90 119 152 189 229 275
#     4   9  17  29  46  68  92 119 151 189 233 279
#     4   9  17  29  45  66  94 125 158 195 234 278
#     4   9  17  29  46  69  95 125 159 195 236 282
#     4  11  23  35  47  69 103 137 163 193 237 285
#     4  10  19  32  50  70  94 125 162 199 233 276
#
# _framework density 15.851241999999999
#
# number of rings (size 3 to 8) (size 9 to 14) (size 15 to 20)
#    0.000    2.692    0.000    2.077    0.000    6.769 
#    0.000    1.538    0.000    0.000    2.000    4.308 
#    0.000    0.000    0.000    0.000    0.000    0.000 
#
# Total GULP energy -579033.263078 kJ/mol
# GULP energy per Si atom -5567.627530 kJ/mol
# Density = 1.581516 g / cm^3
# Si number density = 15.851242 Si / 1000 Ang^3
#
#
#
# Elastic Constant Matrix: (Units=GPa)
#
#
# Indices 1 2 3 4 5 6 
#
# 1 70.7145 36.7565 36.6503 0.0000 0.0000 0.0000
# 2 36.7565 70.7145 36.6503 0.0000 0.0000 0.0000
# 3 36.6503 36.6503 42.4290 0.0000 0.0000 0.0000
# 4 0.0000 0.0000 0.0000 17.9435 0.0000 0.0000
# 5 0.0000 0.0000 0.0000 0.0000 17.9435 0.0000
# 6 0.0000 0.0000 0.0000 0.0000 0.0000 11.1508
#
#
#
# Elastic Compliance Matrix: (Units=1/GPa)
#
#
# Indices 1 2 3 4 5 6 
#
# 1 0.026048 -0.003400 -0.019563 0.000000 0.000000 0.000000
# 2 -0.003400 0.026048 -0.019563 0.000000 0.000000 0.000000
# 3 -0.019563 -0.019563 0.057367 0.000000 0.000000 0.000000
# 4 0.000000 0.000000 0.000000 0.055731 0.000000 0.000000
# 5 0.000000 0.000000 0.000000 0.000000 0.055731 0.000000
# 6 0.000000 0.000000 0.000000 0.000000 0.000000 0.089680
#
#
# Mechanical properties :
#
#
# Convention : Reuss Voigt Hill
#
# Bulk Modulus (GPa) = 40.96846 44.88579 42.92712
# Shear Modulus (GPa) = 12.38254 14.32760 13.35507
#
# Velocity S-wave (km/s) = 2.79798 3.00972 2.90578
# Velocity P-wave (km/s) = 6.02826 6.36052 6.19662
#
# Compressibility (1/GPa) = 0.02440902
#
# Stress axis : x y z
#
# Youngs Moduli (GPa) = 38.39052 38.39052 17.43174
#
# Poissons Ratio (x) = 0.13053 0.34102
# Poissons Ratio (y) = 0.13053 0.34102
# Poissons Ratio (z) = 0.75105 0.75105
#
# Static dielectric constant tensor:
#      x y z
#    x 1.520030 0.000000 0.000000 
#    y 0.000000 1.520030 0.000000 
#    z 0.000000 0.000000 1.539030 
# 
# From -- ./inp_files/2299.got.cif
#   From: 2010.05.17/outbox.ucp.g08.bks.cvg/sg127_2_cif.got.tgz:2299.got - 2010.06.11 11:37:05.
