data_PCOD9564637
_publ_section_title
;
Structure prediction by ZEFSAII (Michael W. Deem and Ramdas Pophale) SiO2 
 PCOD9564637
Probable space group: P 4/M N C
;
_chemical_formula_sum "Si O2"
_cell_formula_units_Z 72
_cell_length_a 20.678757
_cell_length_b 20.678757
_cell_length_c 9.541263
_cell_angle_alpha 90.000000
_cell_angle_beta 90.000000
_cell_angle_gamma 90.000000
_cell_volume 4079.948927
_symmetry_space_group_name_H-M "P 4/M N C"
_symmetry_group_IT_number 128
_symmetry_cell_setting 'tetragonal'
loop_
_space_group_symop_operation_xyz
x,y,z
-y,x,z
-x,-y,z
y,-x,z
1/2+x,1/2-y,1/2-z
1/2-x,1/2+y,1/2-z
1/2+y,1/2+x,1/2-z
1/2-y,1/2-x,1/2-z
-x,-y,-z
y,-x,-z
x,y,-z
-y,x,-z
1/2-x,1/2+y,1/2+z
1/2+x,1/2-y,1/2+z
1/2-y,1/2-x,1/2+z
1/2+y,1/2+x,1/2+z
loop_
_atom_site_type_symbol
_atom_site_label
_atom_site_fract_x
_atom_site_fract_y
_atom_site_fract_z
Si Si1 0.977251 0.397374 0.649222
Si Si2 0.241271 0.916283 0.160913
Si Si3 0.677452 0.723736 0.669411
Si Si4 0.454705 0.251848 0.168299
Si Si5 0.385331 0.885331 0.250000
O O1 0.950150 0.450150 0.750000
O O2 0.949748 0.414676 0.500000
O O3 0.953958 0.325809 0.686092
O O4 0.054152 0.393324 0.647846
O O5 0.202950 0.849785 0.186563
O O6 0.316072 0.895235 0.180276
O O7 0.226737 0.976419 0.264403
O O8 0.230861 0.937105 0.000000
O O9 0.725848 0.774152 0.750000
O O10 0.675308 0.737715 0.500000
O O11 0.607356 0.725349 0.743840
O O12 0.451561 0.265508 0.000000
#
# Coordination Sequence:
#
# PCOD9564637 Si02
#       5
#    16  16  16  16   8
#     4  10  21  33  48  71 104 145 186 225 268 323
#     4  10  21  37  58  83 112 148 188 237 291 344
#     4  11  22  37  60  88 117 151 194 240 291 348
#     4  10  22  38  56  80 112 150 190 238 292 345
#     4  10  19  34  52  76 108 142 188 229 276 330
#
# _framework density 17.647279999999999
#
# number of rings (size 3 to 8) (size 9 to 14) (size 15 to 20)
#    0.000    1.778    1.111    3.000    0.000   10.667 
#    0.000    0.000    0.000    0.667    0.000    4.667 
#    0.000    0.000    0.000    0.000    0.000    0.000 
#
# Total GULP energy -401259.799017 kJ/mol
# GULP energy per Si atom -5573.052764 kJ/mol
# Density = 1.760711 g / cm^3
# Si number density = 17.647280 Si / 1000 Ang^3
#
#
#
# Elastic Constant Matrix: (Units=GPa)
#
#
# Indices 1 2 3 4 5 6 
#
# 1 102.6951 57.3408 75.3623 0.0000 0.0000 0.0000
# 2 57.3408 102.6956 75.3612 0.0000 0.0000 0.0000
# 3 75.3623 75.3612 109.4243 0.0000 0.0000 0.0000
# 4 0.0000 0.0000 0.0000 55.8176 0.0000 0.0000
# 5 0.0000 0.0000 0.0000 0.0000 55.8182 0.0000
# 6 0.0000 0.0000 0.0000 0.0000 0.0000 34.2790
#
#
#
# Elastic Compliance Matrix: (Units=1/GPa)
#
#
# Indices 1 2 3 4 5 6 
#
# 1 0.019916 -0.002132 -0.012248 0.000000 0.000000 0.000000
# 2 -0.002132 0.019916 -0.012247 0.000000 0.000000 0.000000
# 3 -0.012248 -0.012247 0.026009 0.000000 0.000000 0.000000
# 4 0.000000 0.000000 0.000000 0.017915 0.000000 0.000000
# 5 0.000000 0.000000 0.000000 0.000000 0.017915 0.000000
# 6 0.000000 0.000000 0.000000 0.000000 0.000000 0.029172
#
#
# Mechanical properties :
#
#
# Convention : Reuss Voigt Hill
#
# Bulk Modulus (GPa) = 79.45810 81.21595 80.33703
# Shear Modulus (GPa) = 26.55397 36.29969 31.42683
#
# Velocity S-wave (km/s) = 3.88326 4.54029 4.22457
# Velocity P-wave (km/s) = 8.07649 8.57947 8.33178
#
# Compressibility (1/GPa) = 0.01258525
#
# Stress axis : x y z
#
# Youngs Moduli (GPa) = 50.20967 50.21163 38.44795
#
# Poissons Ratio (x) = 0.10707 0.47092
# Poissons Ratio (y) = 0.10707 0.47089
# Poissons Ratio (z) = 0.61498 0.61497
#
# Static dielectric constant tensor:
#      x y z
#    x 1.594430 0.000000 0.000000 
#    y 0.000000 1.594430 0.000000 
#    z 0.000000 0.000000 1.635530 
# 
# From -- ./inp_files/1185.got.cif
#   From: 2010.05.17/outbox.cif.g08.bks.cpg/sg128_1_cif.got.tgz:1185.got - 2010.05.20 12:07:25.
