data_PCOD9564437
_publ_section_title
;
Structure prediction by ZEFSAII (Michael W. Deem and Ramdas Pophale) SiO2 
 PCOD9564437
Probable space group: P 4/M B M
;
_chemical_formula_sum "Si O2"
_cell_formula_units_Z 88
_cell_length_a 12.461339
_cell_length_b 12.461339
_cell_length_c 29.043942
_cell_angle_alpha 90.000000
_cell_angle_beta 90.000000
_cell_angle_gamma 90.000000
_cell_volume 4510.087653
_symmetry_space_group_name_H-M "P 4/M B M"
_symmetry_group_IT_number 127
_symmetry_cell_setting 'tetragonal'
loop_
_space_group_symop_operation_xyz
x,y,z
-y,x,z
-x,-y,z
y,-x,z
1/2+x,1/2-y,-z
1/2-x,1/2+y,-z
1/2+y,1/2+x,-z
1/2-y,1/2-x,-z
-x,-y,-z
y,-x,-z
x,y,-z
-y,x,-z
1/2-x,1/2+y,z
1/2+x,1/2-y,z
1/2-y,1/2-x,z
1/2+y,1/2+x,z
loop_
_atom_site_type_symbol
_atom_site_label
_atom_site_fract_x
_atom_site_fract_y
_atom_site_fract_z
Si Si1 0.530752 0.679367 0.349794
Si Si2 0.972861 0.178385 0.000000
Si Si3 0.178245 0.972812 0.824380
Si Si4 0.468303 0.320277 0.549462
Si Si5 0.174853 0.501632 0.262954
Si Si6 0.999544 0.675495 0.087850
O O1 0.415577 0.618809 0.346837
O O2 0.540740 0.732874 0.400486
O O3 0.538307 0.759530 0.307575
O O4 0.966413 0.250382 0.045444
O O5 0.882501 0.087029 0.000000
O O6 0.117526 0.086981 0.825522
O O7 0.246211 0.967269 0.777768
O O8 0.253920 0.965501 0.868649
O O9 0.583268 0.381104 0.549414
O O10 0.457915 0.262505 0.500000
O O11 0.097080 0.402921 0.275143
O O12 0.098489 0.598489 0.246577
O O13 0.901442 0.598559 0.073491
O O14 0.097569 0.597569 0.101111
#
# Coordination Sequence:
#
# PCOD9564437 Si02
#       6
#    16   8  16  16  16  16
#     4   9  17  30  51  79 106 133 171 218 267 321
#     4  11  24  41  62  90 122 157 200 243 280 322
#     4  11  24  41  62  88 114 141 179 226 275 329
#     4   7  10  19  39  69 102 131 161 205 261 315
#     4  11  24  39  54  75 105 142 183 223 266 321
#     4  11  24  41  62  90 122 155 192 231 274 327
#
# _framework density 19.511816
#
# number of rings (size 3 to 8) (size 9 to 14) (size 15 to 20)
#    0.000    2.091    0.000    5.455    0.000   13.091 
#    0.000    0.000    0.000    1.091    0.000    6.364 
#    0.000    0.000    0.000    0.000    0.000    0.000 
#
# Total GULP energy -491284.841326 kJ/mol
# GULP energy per Si atom -5582.782288 kJ/mol
# Density = 1.946741 g / cm^3
# Si number density = 19.511816 Si / 1000 Ang^3
#
#
#
# Elastic Constant Matrix: (Units=GPa)
#
#
# Indices 1 2 3 4 5 6 
#
# 1 47.9032 -5.6020 -13.2877 0.0000 0.0000 0.0000
# 2 -5.6020 47.9032 -13.2877 0.0000 0.0000 0.0000
# 3 -13.2877 -13.2877 69.2857 0.0000 0.0000 0.0000
# 4 0.0000 0.0000 0.0000 182.0896 0.0000 0.0000
# 5 0.0000 0.0000 0.0000 0.0000 182.0896 0.0000
# 6 0.0000 0.0000 0.0000 0.0000 0.0000 -0.0437
#
#
#
# Elastic Compliance Matrix: (Units=1/GPa)
#
#
# Indices 1 2 3 4 5 6 
#
# 1 0.022784 0.004094 0.005155 0.000000 0.000000 0.000000
# 2 0.004094 0.022784 0.005155 0.000000 0.000000 0.000000
# 3 0.005155 0.005155 0.016410 0.000000 0.000000 0.000000
# 4 0.000000 0.000000 0.000000 0.005492 0.000000 0.000000
# 5 0.000000 0.000000 0.000000 0.000000 0.005492 0.000000
# 6 0.000000 0.000000 0.000000 0.000000 0.000000-22.869778
#
#
# Mechanical properties :
#
#
# Convention : Reuss Voigt Hill
#
# Bulk Modulus (GPa) = 11.01492 11.19306 11.10399
# Shear Modulus (GPa) = -0.21934 85.97840 42.87953
#
# Velocity S-wave (km/s) = -0.33565 6.64533 4.69296
# Velocity P-wave (km/s) = 2.34676 8.03925 5.92186
#
# Compressibility (1/GPa) = 0.09078598
#
# Stress axis : x y z
#
# Youngs Moduli (GPa) = 43.89031 43.89031 60.93788
#
# Poissons Ratio (x) = -0.17970 -0.31412
# Poissons Ratio (y) = -0.17970 -0.31412
# Poissons Ratio (z) = -0.22624 -0.22624
#
# Static dielectric constant tensor:
#      x y z
#    x 1.663320 0.000000 0.000000 
#    y 0.000000 1.663320 0.000000 
#    z 0.000000 0.000000 1.681670 
# 
# From -- ./inp_files/6537.got.cif
#   From: 2010.05.17/outbox.cif.g08.bks.cpg/sg127_4_cif.got.tgz:6537.got - 2010.05.20 12:03:00.
