data_PCOD9564523
_publ_section_title
;
Structure prediction by ZEFSAII (Michael W. Deem and Ramdas Pophale) SiO2 
 PCOD9564523
Probable space group: P 4/M N C
;
_chemical_formula_sum "Si O2"
_cell_formula_units_Z 128
_cell_length_a 21.148205
_cell_length_b 21.148205
_cell_length_c 17.444371
_cell_angle_alpha 90.000000
_cell_angle_beta 90.000000
_cell_angle_gamma 90.000000
_cell_volume 7801.935178
_symmetry_space_group_name_H-M "P 4/M N C"
_symmetry_group_IT_number 128
_symmetry_cell_setting 'tetragonal'
loop_
_space_group_symop_operation_xyz
x,y,z
-y,x,z
-x,-y,z
y,-x,z
1/2+x,1/2-y,1/2-z
1/2-x,1/2+y,1/2-z
1/2+y,1/2+x,1/2-z
1/2-y,1/2-x,1/2-z
-x,-y,-z
y,-x,-z
x,y,-z
-y,x,-z
1/2-x,1/2+y,1/2+z
1/2+x,1/2-y,1/2+z
1/2-y,1/2-x,1/2+z
1/2+y,1/2+x,1/2+z
loop_
_atom_site_type_symbol
_atom_site_label
_atom_site_fract_x
_atom_site_fract_y
_atom_site_fract_z
Si Si1 0.819534 0.540813 0.190737
Si Si2 0.324341 0.751748 0.679532
Si Si3 0.618726 0.308572 0.815930
Si Si4 0.155647 0.604755 0.828928
Si Si5 0.359034 0.914480 0.860253
Si Si6 0.750012 0.799144 0.408542
Si Si7 0.027791 0.566854 0.912844
Si Si8 0.055270 0.090541 0.585123
O O1 0.752849 0.574308 0.174930
O O2 0.816932 0.465854 0.181979
O O3 0.869641 0.579201 0.139321
O O4 0.844207 0.556615 0.276231
O O5 0.295450 0.795450 0.750000
O O6 0.359141 0.697021 0.727451
O O7 0.369942 0.797486 0.630025
O O8 0.267449 0.727523 0.627714
O O9 0.681117 0.306955 0.869304
O O10 0.580577 0.368327 0.845466
O O11 0.141968 0.641968 0.750000
O O12 0.202793 0.646193 0.880286
O O13 0.087434 0.591716 0.866356
O O14 0.379633 0.973623 0.910691
O O15 0.754198 0.797558 0.500000
O O16 0.000000 0.500000 0.881223
O O17 0.047505 0.554054 0.000000
O O18 0.071422 0.117281 0.500000
O O19 0.979816 0.083415 0.588417
#
# Coordination Sequence:
#
# PCOD9564523 Si02
#       8
#    16  16  16  16  16  16  16  16
#     4  10  19  32  57  81  99 134 189 229 262 313
#     4   9  17  35  55  75 100 130 178 224 264 314
#     4  10  19  36  55  80 106 134 184 234 259 312
#     4  12  23  36  56  79 106 147 190 226 277 331
#     4  10  16  35  54  73 100 134 175 222 266 318
#     4  11  23  38  53  75 111 149 179 225 283 324
#     4  11  23  34  47  75 113 143 176 225 275 331
#     4   9  19  35  52  75 112 149 173 208 273 334
#
# _framework density 16.406186999999999
#
# number of rings (size 3 to 8) (size 9 to 14) (size 15 to 20)
#    0.000    1.750    6.250    2.250    1.750    0.750 
#    0.000    1.875    0.000    0.000    0.000    0.000 
#    0.000    0.000    0.000    1.375    0.000    0.000 
#
# Total GULP energy -713059.383336 kJ/mol
# GULP energy per Si atom -5570.776432 kJ/mol
# Density = 1.636885 g / cm^3
# Si number density = 16.406187 Si / 1000 Ang^3
#
#
#
# Elastic Constant Matrix: (Units=GPa)
#
#
# Indices 1 2 3 4 5 6 
#
# 1 57.8733 66.6888 33.0008 0.0000 0.0000 0.0000
# 2 66.6888 57.8733 33.0008 0.0000 0.0000 0.0000
# 3 33.0008 33.0008 48.1974 0.0000 0.0000 0.0000
# 4 0.0000 0.0000 0.0000 17.8614 0.0000 0.0000
# 5 0.0000 0.0000 0.0000 0.0000 17.8614 0.0000
# 6 0.0000 0.0000 0.0000 0.0000 0.0000 32.1114
#
#
#
# Elastic Compliance Matrix: (Units=1/GPa)
#
#
# Indices 1 2 3 4 5 6 
#
# 1 -0.050419 0.063018 -0.008627 0.000000 0.000000 0.000000
# 2 0.063018 -0.050419 -0.008627 0.000000 0.000000 0.000000
# 3 -0.008627 -0.008627 0.032561 0.000000 0.000000 0.000000
# 4 0.000000 0.000000 0.000000 0.055987 0.000000 0.000000
# 5 0.000000 0.000000 0.000000 0.000000 0.055987 0.000000
# 6 0.000000 0.000000 0.000000 0.000000 0.000000 0.031142
#
#
# Mechanical properties :
#
#
# Convention : Reuss Voigt Hill
#
# Bulk Modulus (GPa) = 43.00514 47.70277 45.35395
# Shear Modulus (GPa) = -559.32715 15.65042 -271.83836
#
# Velocity S-wave (km/s) = -18.48417 3.09193 -12.88613
# Velocity P-wave (km/s) = 20.71915 6.47193 13.91757
#
# Compressibility (1/GPa) = 0.02325304
#
# Stress axis : x y z
#
# Youngs Moduli (GPa) = -19.83392 -19.83392 30.71132
#
# Poissons Ratio (x) = 1.24989 0.26493
# Poissons Ratio (y) = 1.24989 0.26493
# Poissons Ratio (z) = -0.17110 -0.17110
#
# Static dielectric constant tensor:
#      x y z
#    x 1.565520 0.000000 0.000000 
#    y 0.000000 1.565520 0.000000 
#    z 0.000000 0.000000 1.552190 
# 
# From -- ./inp_files/5126.got.cif
#   From: 2010.05.17/outbox.cif.g08.bks.cpg/sg128_3_cif.got.tgz:5126.got - 2010.05.20 12:07:25.
