data_PCOD9564430
_publ_section_title
;
Structure prediction by ZEFSAII (Michael W. Deem and Ramdas Pophale) SiO2 
 PCOD9564430
Probable space group: P 4/M B M
;
_chemical_formula_sum "Si O2"
_cell_formula_units_Z 56
_cell_length_a 18.853274
_cell_length_b 18.853274
_cell_length_c 7.954389
_cell_angle_alpha 90.000000
_cell_angle_beta 90.000000
_cell_angle_gamma 90.000000
_cell_volume 2827.355279
_symmetry_space_group_name_H-M "P 4/M B M"
_symmetry_group_IT_number 127
_symmetry_cell_setting 'tetragonal'
loop_
_space_group_symop_operation_xyz
x,y,z
-y,x,z
-x,-y,z
y,-x,z
1/2+x,1/2-y,-z
1/2-x,1/2+y,-z
1/2+y,1/2+x,-z
1/2-y,1/2-x,-z
-x,-y,-z
y,-x,-z
x,y,-z
-y,x,-z
1/2-x,1/2+y,z
1/2+x,1/2-y,z
1/2-y,1/2-x,z
1/2+y,1/2+x,z
loop_
_atom_site_type_symbol
_atom_site_label
_atom_site_fract_x
_atom_site_fract_y
_atom_site_fract_z
Si Si1 0.377917 0.877917 0.800036
Si Si2 0.395424 0.556317 0.500000
Si Si3 0.892957 0.198344 0.811388
Si Si4 0.844320 0.461035 0.701024
Si Si5 0.763436 0.736565 0.302780
O O1 0.458095 0.860016 0.747258
O O2 0.323175 0.823175 0.716871
O O3 0.371189 0.871189 0.000000
O O4 0.407009 0.472119 0.500000
O O5 0.352894 0.579305 0.334336
O O6 0.931847 0.273846 0.788605
O O7 0.809559 0.211347 0.780748
O O8 0.904966 0.171225 0.000000
O O9 0.833661 0.455623 0.500000
O O10 0.910524 0.410524 0.746023
O O11 0.749518 0.750483 0.500000
#
# Coordination Sequence:
#
# PCOD9564430 Si02
#       5
#     8   8  16  16   8
#     4  12  27  41  64 103 141 180 233 289 340 405
#     4  11  28  51  74 102 135 182 237 294 356 414
#     4  12  25  44  73 105 140 183 231 287 348 418
#     4  11  23  43  67  98 139 188 231 275 344 418
#     4  12  24  45  69 100 138 183 237 286 340 412
#
# _framework density 19.806497
#
# number of rings (size 3 to 8) (size 9 to 14) (size 15 to 20)
#    0.000    0.429    4.286    3.857    4.000    4.571 
#    0.000    1.429    0.000    0.000    0.000    0.000 
#    0.000    0.000    0.000    0.000    0.000    0.000 
#
# Total GULP energy -313590.681450 kJ/mol
# GULP energy per Si atom -5599.833597 kJ/mol
# Density = 1.976142 g / cm^3
# Si number density = 19.806497 Si / 1000 Ang^3
#
#
#
# Elastic Constant Matrix: (Units=GPa)
#
#
# Indices 1 2 3 4 5 6 
#
# 1 121.4307 95.9221 46.2948 0.0000 0.0000 0.0000
# 2 95.9221 121.4253 46.2910 0.0000 0.0000 0.0000
# 3 46.2948 46.2910 152.9628 0.0000 0.0000 0.0000
# 4 0.0000 0.0000 0.0000 -14.3496 0.0000 0.0000
# 5 0.0000 0.0000 0.0000 0.0000 -14.3425 0.0000
# 6 0.0000 0.0000 0.0000 0.0000 0.0000 31.1293
#
#
#
# Elastic Compliance Matrix: (Units=1/GPa)
#
#
# Indices 1 2 3 4 5 6 
#
# 1 0.022244 -0.016962 -0.001599 0.000000 0.000000 0.000000
# 2 -0.016962 0.022244 -0.001598 0.000000 0.000000 0.000000
# 3 -0.001599 -0.001598 0.007505 0.000000 0.000000 0.000000
# 4 0.000000 0.000000 0.000000 -0.069689 0.000000 0.000000
# 5 0.000000 0.000000 0.000000 0.000000 -0.069723 0.000000
# 6 0.000000 0.000000 0.000000 0.000000 0.000000 0.032124
#
#
# Mechanical properties :
#
#
# Convention : Reuss Voigt Hill
#
# Bulk Modulus (GPa) = 85.65530 85.87049 85.76290
# Shear Modulus (GPa) = -451.12232 14.30817 -218.40707
#
# Velocity S-wave (km/s) = -15.10825 2.69066 -10.51236
# Velocity P-wave (km/s) = 16.15567 7.28709 10.19569
#
# Compressibility (1/GPa) = 0.01167470
#
# Stress axis : x y z
#
# Youngs Moduli (GPa) = 44.95624 44.95496 133.24312
#
# Poissons Ratio (x) = 0.76254 0.21304
# Poissons Ratio (y) = 0.76256 0.21293
# Poissons Ratio (z) = 0.07188 0.07184
#
# Static dielectric constant tensor:
#      x y z
#    x 1.656950 0.000000 0.000000 
#    y 0.000000 1.656950 0.000000 
#    z 0.000000 0.000000 1.697800 
# 
# From -- ./inp_files/1144.got.cif
#   From: 2010.05.17/outbox.cif.g08.bks.cpg/sg127_1_cif.got.tgz:1144.got - 2010.05.20 12:03:00.
