data_PCOD9564832
_publ_section_title
;
Structure prediction by ZEFSAII (Michael W. Deem and Ramdas Pophale) SiO2 
 PCOD9564832
Probable space group: P 4/M N C
;
_chemical_formula_sum "Si O2"
_cell_formula_units_Z 96
_cell_length_a 22.894874
_cell_length_b 22.894874
_cell_length_c 9.407987
_cell_angle_alpha 90.000000
_cell_angle_beta 90.000000
_cell_angle_gamma 90.000000
_cell_volume 4931.433989
_symmetry_space_group_name_H-M "P 4/M N C"
_symmetry_group_IT_number 128
_symmetry_cell_setting 'tetragonal'
loop_
_space_group_symop_operation_xyz
x,y,z
-y,x,z
-x,-y,z
y,-x,z
1/2+x,1/2-y,1/2-z
1/2-x,1/2+y,1/2-z
1/2+y,1/2+x,1/2-z
1/2-y,1/2-x,1/2-z
-x,-y,-z
y,-x,-z
x,y,-z
-y,x,-z
1/2-x,1/2+y,1/2+z
1/2+x,1/2-y,1/2+z
1/2-y,1/2-x,1/2+z
1/2+y,1/2+x,1/2+z
loop_
_atom_site_type_symbol
_atom_site_label
_atom_site_fract_x
_atom_site_fract_y
_atom_site_fract_z
Si Si1 0.658600 0.280153 0.340845
Si Si2 0.334719 0.916698 0.829593
Si Si3 0.579786 0.555557 0.000000
Si Si4 0.017801 0.726235 0.337601
Si Si5 0.045644 0.159267 0.752507
Si Si6 0.902731 0.992877 0.000000
Si Si7 0.655086 0.760446 0.171109
O O1 0.684186 0.276502 0.500000
O O2 0.630616 0.217493 0.301215
O O3 0.600257 0.318979 0.342685
O O4 0.704624 0.309824 0.234841
O O5 0.391036 0.891036 0.750000
O O6 0.314555 0.979015 0.765459
O O7 0.341536 0.920003 0.000000
O O8 0.514638 0.578023 0.000000
O O9 0.613116 0.571277 0.857942
O O10 0.016451 0.703976 0.500000
O O11 0.085418 0.737972 0.298258
O O12 0.983442 0.787621 0.331347
O O13 0.996781 0.134271 0.857520
O O14 0.947865 0.940693 0.000000
O O15 0.684929 0.815072 0.250000
O O16 0.661816 0.761941 0.000000
#
# Coordination Sequence:
#
# PCOD9564832 Si02
#       7
#    16  16   8  16  16   8  16
#     4  10  22  37  57  87 119 159 199 245 293 348
#     4  10  21  38  62  91 123 157 196 240 291 349
#     4  11  24  36  52  76 112 162 212 259 303 343
#     4  10  23  40  60  87 117 152 195 241 296 358
#     4  11  22  37  57  82 114 156 207 253 299 348
#     4  11  24  38  52  76 114 162 212 263 305 341
#     4  11  25  42  63  90 119 155 194 242 300 355
#
# _framework density 19.466954999999999
#
# number of rings (size 3 to 8) (size 9 to 14) (size 15 to 20)
#    0.000    1.500    1.667    2.500    7.000    5.333 
#    0.000    0.000    0.000    0.500    0.000    3.500 
#    0.000    0.000    0.000    0.000    0.000    0.000 
#
# Total GULP energy -535906.147956 kJ/mol
# GULP energy per Si atom -5582.355708 kJ/mol
# Density = 1.942265 g / cm^3
# Si number density = 19.466955 Si / 1000 Ang^3
#
#
#
# Elastic Constant Matrix: (Units=GPa)
#
#
# Indices 1 2 3 4 5 6 
#
# 1 58.5103 19.8146 30.5114 0.0000 0.0000 0.0000
# 2 19.8146 58.5036 30.5118 0.0000 0.0000 0.0000
# 3 30.5114 30.5118 95.9275 0.0000 0.0000 0.0000
# 4 0.0000 0.0000 0.0000 30.1086 0.0000 0.0000
# 5 0.0000 0.0000 0.0000 0.0000 30.1094 0.0000
# 6 0.0000 0.0000 0.0000 0.0000 0.0000 47.1534
#
#
#
# Elastic Compliance Matrix: (Units=1/GPa)
#
#
# Indices 1 2 3 4 5 6 
#
# 1 0.021408 -0.004435 -0.005399 0.000000 0.000000 0.000000
# 2 -0.004435 0.021411 -0.005400 0.000000 0.000000 0.000000
# 3 -0.005399 -0.005400 0.013859 0.000000 0.000000 0.000000
# 4 0.000000 0.000000 0.000000 0.033213 0.000000 0.000000
# 5 0.000000 0.000000 0.000000 0.000000 0.033212 0.000000
# 6 0.000000 0.000000 0.000000 0.000000 0.000000 0.021207
#
#
# Mechanical properties :
#
#
# Convention : Reuss Voigt Hill
#
# Bulk Modulus (GPa) = 38.15077 41.62412 39.88744
# Shear Modulus (GPa) = 27.24572 30.28119 28.76345
#
# Velocity S-wave (km/s) = 3.74517 3.94828 3.84806
# Velocity P-wave (km/s) = 6.19209 6.49720 6.34648
#
# Compressibility (1/GPa) = 0.02621179
#
# Stress axis : x y z
#
# Youngs Moduli (GPa) = 46.71114 46.70453 72.15479
#
# Poissons Ratio (x) = 0.20714 0.38953
# Poissons Ratio (y) = 0.20717 0.38961
# Poissons Ratio (z) = 0.25217 0.25219
#
# Static dielectric constant tensor:
#      x y z
#    x 1.673530 0.000000 0.000000 
#    y 0.000000 1.673530 0.000000 
#    z 0.000000 0.000000 1.714480 
# 
# From -- ./inp_files/1569.got.cif
#   From: 2010.05.17/outbox.cif.g08.bks.cpg/sg128_1_cif.got.tgz:1569.got - 2010.05.20 12:07:25.
