data_PCOD9564995
_publ_section_title
;
Structure prediction by ZEFSAII (Michael W. Deem and Ramdas Pophale) SiO2 
 PCOD9564995
Probable space group: P 4/M N C
;
_chemical_formula_sum "Si O2"
_cell_formula_units_Z 64
_cell_length_a 14.421945
_cell_length_b 14.421945
_cell_length_c 15.015914
_cell_angle_alpha 90.000000
_cell_angle_beta 90.000000
_cell_angle_gamma 90.000000
_cell_volume 3123.197456
_symmetry_space_group_name_H-M "P 4/M N C"
_symmetry_group_IT_number 128
_symmetry_cell_setting 'tetragonal'
loop_
_space_group_symop_operation_xyz
x,y,z
-y,x,z
-x,-y,z
y,-x,z
1/2+x,1/2-y,1/2-z
1/2-x,1/2+y,1/2-z
1/2+y,1/2+x,1/2-z
1/2-y,1/2-x,1/2-z
-x,-y,-z
y,-x,-z
x,y,-z
-y,x,-z
1/2-x,1/2+y,1/2+z
1/2+x,1/2-y,1/2+z
1/2-y,1/2-x,1/2+z
1/2+y,1/2+x,1/2+z
loop_
_atom_site_type_symbol
_atom_site_label
_atom_site_fract_x
_atom_site_fract_y
_atom_site_fract_z
Si Si1 0.623027 0.408256 0.104687
Si Si2 0.880596 0.312566 0.342564
Si Si3 0.412487 0.776641 0.500000
Si Si4 0.062673 0.408442 0.645767
Si Si5 0.376025 0.251086 0.500000
O O1 0.622981 0.518589 0.120380
O O2 0.703008 0.362298 0.162363
O O3 0.644721 0.391847 0.000000
O O4 0.863492 0.363492 0.250000
O O5 0.812524 0.355312 0.414683
O O6 0.987314 0.328002 0.370776
O O7 0.403786 0.847141 0.584041
O O8 0.514263 0.730131 0.500000
O O9 0.335913 0.696050 0.500000
O O10 0.088961 0.411040 0.750000
O O11 0.000000 0.500000 0.626199
#
# Coordination Sequence:
#
# PCOD9564995 Si02
#       5
#    16  16   8  16   8
#     4   9  20  39  64  95 134 168 204 265 339 394
#     4  12  23  40  66  98 131 165 218 274 321 394
#     4  12  26  44  70  94 128 180 216 271 325 391
#     4  11  21  42  70  97 129 159 209 277 338 376
#     4  12  27  45  63  92 132 174 229 262 321 383
#
# _framework density 20.491820000000001
#
# number of rings (size 3 to 8) (size 9 to 14) (size 15 to 20)
#    0.000    1.000    6.250    1.875    3.500    1.250 
#    4.500    0.000    0.000    0.000    0.000    0.000 
#    0.000    0.000    0.000    0.000    0.000    0.000 
#
# Total GULP energy -357724.839680 kJ/mol
# GULP energy per Si atom -5589.450620 kJ/mol
# Density = 2.044518 g / cm^3
# Si number density = 20.491820 Si / 1000 Ang^3
#
#
#
# Elastic Constant Matrix: (Units=GPa)
#
#
# Indices 1 2 3 4 5 6 
#
# 1 98.8925 64.7840 51.0785 0.0000 0.0000 0.0000
# 2 64.7840 98.8928 51.0780 0.0000 0.0000 0.0000
# 3 51.0785 51.0780 85.7091 0.0000 0.0000 0.0000
# 4 0.0000 0.0000 0.0000 13.9220 0.0000 0.0000
# 5 0.0000 0.0000 0.0000 0.0000 13.9212 0.0000
# 6 0.0000 0.0000 0.0000 0.0000 0.0000 26.9263
#
#
#
# Elastic Compliance Matrix: (Units=1/GPa)
#
#
# Indices 1 2 3 4 5 6 
#
# 1 0.019523 -0.009795 -0.005798 0.000000 0.000000 0.000000
# 2 -0.009795 0.019523 -0.005797 0.000000 0.000000 0.000000
# 3 -0.005798 -0.005797 0.018577 0.000000 0.000000 0.000000
# 4 0.000000 0.000000 0.000000 0.071829 0.000000 0.000000
# 5 0.000000 0.000000 0.000000 0.000000 0.071833 0.000000
# 6 0.000000 0.000000 0.000000 0.000000 0.000000 0.037138
#
#
# Mechanical properties :
#
#
# Convention : Reuss Voigt Hill
#
# Bulk Modulus (GPa) = 67.36867 68.59725 67.98296
# Shear Modulus (GPa) = 17.47328 18.72415 18.09871
#
# Velocity S-wave (km/s) = 2.92326 3.02609 2.97512
# Velocity P-wave (km/s) = 6.65892 6.76445 6.71189
#
# Compressibility (1/GPa) = 0.01484369
#
# Stress axis : x y z
#
# Youngs Moduli (GPa) = 51.22130 51.22193 53.82931
#
# Poissons Ratio (x) = 0.50172 0.31208
# Poissons Ratio (y) = 0.50172 0.31206
# Poissons Ratio (z) = 0.29696 0.29694
#
# Static dielectric constant tensor:
#      x y z
#    x 1.756750 0.000000 0.000000 
#    y 0.000000 1.756750 0.000000 
#    z 0.000000 0.000000 1.704840 
# 
# From -- ./inp_files/4508.got.cif
#   From: 2010.05.17/outbox.cif.g08.bks.cpg/sg128_3_cif.got.tgz:4508.got - 2010.05.20 12:07:25.
