data_PCOD9564969
_publ_section_title
;
Structure prediction by ZEFSAII (Michael W. Deem and Ramdas Pophale) SiO2 
 PCOD9564969
Probable space group: P 4/M N C
;
_chemical_formula_sum "Si O2"
_cell_formula_units_Z 72
_cell_length_a 21.135691
_cell_length_b 21.135691
_cell_length_c 9.927220
_cell_angle_alpha 90.000000
_cell_angle_beta 90.000000
_cell_angle_gamma 90.000000
_cell_volume 4434.662246
_symmetry_space_group_name_H-M "P 4/M N C"
_symmetry_group_IT_number 128
_symmetry_cell_setting 'tetragonal'
loop_
_space_group_symop_operation_xyz
x,y,z
-y,x,z
-x,-y,z
y,-x,z
1/2+x,1/2-y,1/2-z
1/2-x,1/2+y,1/2-z
1/2+y,1/2+x,1/2-z
1/2-y,1/2-x,1/2-z
-x,-y,-z
y,-x,-z
x,y,-z
-y,x,-z
1/2-x,1/2+y,1/2+z
1/2+x,1/2-y,1/2+z
1/2-y,1/2-x,1/2+z
1/2+y,1/2+x,1/2+z
loop_
_atom_site_type_symbol
_atom_site_label
_atom_site_fract_x
_atom_site_fract_y
_atom_site_fract_z
Si Si1 0.917912 0.821683 0.854131
Si Si2 0.037827 0.901580 0.500000
Si Si3 0.644188 0.771724 0.841521
Si Si4 0.438537 0.331984 0.723762
Si Si5 0.163797 0.253914 0.655006
O O1 0.876411 0.885997 0.846053
O O2 0.895004 0.778553 0.730560
O O3 0.992778 0.833314 0.843608
O O4 0.903250 0.792001 0.000000
O O5 0.053203 0.862390 0.630313
O O6 0.965110 0.921495 0.500000
O O7 0.671680 0.828321 0.750000
O O8 0.588967 0.737439 0.755939
O O9 0.699877 0.718540 0.847347
O O10 0.629361 0.786382 0.000000
O O11 0.190771 0.309230 0.750000
O O12 0.151211 0.271666 0.500000
#
# Coordination Sequence:
#
# PCOD9564969 Si02
#       5
#    16   8  16  16  16
#     4  11  23  34  47  69  99 133 166 206 245 288
#     4  11  20  32  50  70  90 132 178 213 241 294
#     4   9  18  30  48  67  89 119 157 201 247 294
#     4  11  21  33  50  67  97 130 170 204 250 289
#     4   9  18  32  51  70  91 121 159 202 246 293
#
# _framework density 16.235734000000001
#
# number of rings (size 3 to 8) (size 9 to 14) (size 15 to 20)
#    0.000    1.889    3.333    1.333    3.111    6.667 
#    0.000    1.111    0.000    0.000    0.000    0.000 
#    0.000    0.889    0.000    6.222    0.000    2.000 
#
# Total GULP energy -401252.054064 kJ/mol
# GULP energy per Si atom -5572.945195 kJ/mol
# Density = 1.619878 g / cm^3
# Si number density = 16.235734 Si / 1000 Ang^3
#
#
#
# Elastic Constant Matrix: (Units=GPa)
#
#
# Indices 1 2 3 4 5 6 
#
# 1 45.8899 39.6398 29.4570 0.0000 0.0000 0.0000
# 2 39.6398 45.8905 29.4566 0.0000 0.0000 0.0000
# 3 29.4570 29.4566 131.4426 0.0000 0.0000 0.0000
# 4 0.0000 0.0000 0.0000 6.4404 0.0000 0.0000
# 5 0.0000 0.0000 0.0000 0.0000 6.4384 0.0000
# 6 0.0000 0.0000 0.0000 0.0000 0.0000 22.8474
#
#
#
# Elastic Compliance Matrix: (Units=1/GPa)
#
#
# Indices 1 2 3 4 5 6 
#
# 1 0.086909 -0.073082 -0.003099 0.000000 0.000000 0.000000
# 2 -0.073082 0.086907 -0.003098 0.000000 0.000000 0.000000
# 3 -0.003099 -0.003098 0.008997 0.000000 0.000000 0.000000
# 4 0.000000 0.000000 0.000000 0.155270 0.000000 0.000000
# 5 0.000000 0.000000 0.000000 0.000000 0.155317 0.000000
# 6 0.000000 0.000000 0.000000 0.000000 0.000000 0.043769
#
#
# Mechanical properties :
#
#
# Convention : Reuss Voigt Hill
#
# Bulk Modulus (GPa) = 41.22884 46.70329 43.96607
# Shear Modulus (GPa) = 7.10417 15.45655 11.28036
#
# Velocity S-wave (km/s) = 2.09407 3.08881 2.63874
# Velocity P-wave (km/s) = 5.59427 6.44587 6.03511
#
# Compressibility (1/GPa) = 0.02425487
#
# Stress axis : x y z
#
# Youngs Moduli (GPa) = 11.50629 11.50651 111.15261
#
# Poissons Ratio (x) = 0.84092 0.34445
# Poissons Ratio (y) = 0.84090 0.34435
# Poissons Ratio (z) = 0.03566 0.03565
#
# Static dielectric constant tensor:
#      x y z
#    x 1.556060 0.000000 0.000000 
#    y 0.000000 1.556070 0.000000 
#    z 0.000000 0.000000 1.562740 
# 
# From -- ./inp_files/1136.got.cif
#   From: 2010.05.17/outbox.cif.g08.bks.cpg/sg128_1_cif.got.tgz:1136.got - 2010.05.20 12:07:25.
