data_PCOD9564424
_publ_section_title
;
Structure prediction by ZEFSAII (Michael W. Deem and Ramdas Pophale) SiO2 
 PCOD9564424
Probable space group: P 4/M B M
;
_chemical_formula_sum "Si O2"
_cell_formula_units_Z 80
_cell_length_a 11.333097
_cell_length_b 11.333097
_cell_length_c 29.434274
_cell_angle_alpha 90.000000
_cell_angle_beta 90.000000
_cell_angle_gamma 90.000000
_cell_volume 3780.511297
_symmetry_space_group_name_H-M "P 4/M B M"
_symmetry_group_IT_number 127
_symmetry_cell_setting 'tetragonal'
loop_
_space_group_symop_operation_xyz
x,y,z
-y,x,z
-x,-y,z
y,-x,z
1/2+x,1/2-y,-z
1/2-x,1/2+y,-z
1/2+y,1/2+x,-z
1/2-y,1/2-x,-z
-x,-y,-z
y,-x,-z
x,y,-z
-y,x,-z
1/2-x,1/2+y,z
1/2+x,1/2-y,z
1/2-y,1/2-x,z
1/2+y,1/2+x,z
loop_
_atom_site_type_symbol
_atom_site_label
_atom_site_fract_x
_atom_site_fract_y
_atom_site_fract_z
Si Si1 0.306244 0.469965 0.381706
Si Si2 0.805175 0.502226 0.283295
Si Si3 0.887437 0.387437 0.876144
Si Si4 0.195836 0.023282 0.946386
Si Si5 0.599580 0.099580 0.551741
Si Si6 0.519325 0.691543 0.810912
O O1 0.404795 0.369831 0.386455
O O2 0.252277 0.465923 0.331237
O O3 0.208468 0.450394 0.419616
O O4 0.890219 0.609782 0.269069
O O5 0.714019 0.479578 0.242965
O O6 0.887915 0.387915 0.289419
O O7 0.954775 0.307779 0.915299
O O8 0.812711 0.459257 0.836758
O O9 0.099592 0.127144 0.937485
O O10 0.223833 0.026177 0.000000
O O11 0.631346 0.131346 0.500000
O O12 0.500000 0.000000 0.550508
O O13 0.397966 0.625540 0.823130
#
# Coordination Sequence:
#
# PCOD9564424 Si02
#       6
#    16  16   8  16   8  16
#     4  11  25  44  72 106 138 183 238 290 344 413
#     4  11  23  41  68 101 134 169 227 279 334 392
#     4  12  21  36  60  92 125 169 209 261 324 391
#     4   9  19  38  64  92 121 160 216 272 321 387
#     4  11  26  46  71 104 144 186 232 291 358 419
#     4  11  25  42  60  89 128 172 220 267 324 393
#
# _framework density 21.161158
#
# number of rings (size 3 to 8) (size 9 to 14) (size 15 to 20)
#    0.000    1.300    2.000    3.900    4.200    5.600 
#    0.000    1.000    0.000    0.000    0.000    5.600 
#    0.000    0.000    0.000    0.000    0.000    0.000 
#
# Total GULP energy -445651.000003 kJ/mol
# GULP energy per Si atom -5570.637500 kJ/mol
# Density = 2.111299 g / cm^3
# Si number density = 21.161158 Si / 1000 Ang^3
#
#
#
# Elastic Constant Matrix: (Units=GPa)
#
#
# Indices 1 2 3 4 5 6 
#
# 1 56.0093 24.7459 28.2278 0.0000 0.0000 0.0000
# 2 24.7459 56.0093 28.2278 0.0000 0.0000 0.0000
# 3 28.2278 28.2278 157.8295 0.0000 0.0000 0.0000
# 4 0.0000 0.0000 0.0000 -206.3878 0.0000 0.0000
# 5 0.0000 0.0000 0.0000 0.0000 -206.3878 0.0000
# 6 0.0000 0.0000 0.0000 0.0000 0.0000 -8.9660
#
#
#
# Elastic Compliance Matrix: (Units=1/GPa)
#
#
# Indices 1 2 3 4 5 6 
#
# 1 0.023069 -0.008917 -0.002531 0.000000 0.000000 0.000000
# 2 -0.008917 0.023069 -0.002531 0.000000 0.000000 0.000000
# 3 -0.002531 -0.002531 0.007241 0.000000 0.000000 0.000000
# 4 0.000000 0.000000 0.000000 -0.004845 0.000000 0.000000
# 5 0.000000 0.000000 0.000000 0.000000 -0.004845 0.000000
# 6 0.000000 0.000000 0.000000 0.000000 0.000000 -0.111532
#
#
# Mechanical properties :
#
#
# Convention : Reuss Voigt Hill
#
# Bulk Modulus (GPa) = 39.33621 48.02791 43.68206
# Shear Modulus (GPa) = -159.18546 -71.77190 -115.47868
#
# Velocity S-wave (km/s) = -8.68266 -5.83013 -7.39524
# Velocity P-wave (km/s) = 9.04925 4.75132 7.22717
#
# Compressibility (1/GPa) = 0.02542187
#
# Stress axis : x y z
#
# Youngs Moduli (GPa) = 43.34740 43.34740 138.09548
#
# Poissons Ratio (x) = 0.38652 0.34955
# Poissons Ratio (y) = 0.38652 0.34955
# Poissons Ratio (z) = 0.10972 0.10972
#
# Static dielectric constant tensor:
#      x y z
#    x 1.754210 0.000000 0.000000 
#    y 0.000000 1.754210 0.000000 
#    z 0.000000 0.000000 1.730410 
# 
# From -- ./inp_files/6459.got.cif
#   From: 2010.05.17/outbox.cif.g08.bks.cpg/sg127_4_cif.got.tgz:6459.got - 2010.05.20 12:03:00.
