data_PCOD9564838
_publ_section_title
;
Structure prediction by ZEFSAII (Michael W. Deem and Ramdas Pophale) SiO2 
 PCOD9564838
Probable space group: P 4/M N C
;
_chemical_formula_sum "Si O2"
_cell_formula_units_Z 80
_cell_length_a 14.767663
_cell_length_b 14.767663
_cell_length_c 21.196928
_cell_angle_alpha 90.000000
_cell_angle_beta 90.000000
_cell_angle_gamma 90.000000
_cell_volume 4622.708101
_symmetry_space_group_name_H-M "P 4/M N C"
_symmetry_group_IT_number 128
_symmetry_cell_setting 'tetragonal'
loop_
_space_group_symop_operation_xyz
x,y,z
-y,x,z
-x,-y,z
y,-x,z
1/2+x,1/2-y,1/2-z
1/2-x,1/2+y,1/2-z
1/2+y,1/2+x,1/2-z
1/2-y,1/2-x,1/2-z
-x,-y,-z
y,-x,-z
x,y,-z
-y,x,-z
1/2-x,1/2+y,1/2+z
1/2+x,1/2-y,1/2+z
1/2-y,1/2-x,1/2+z
1/2+y,1/2+x,1/2+z
loop_
_atom_site_type_symbol
_atom_site_label
_atom_site_fract_x
_atom_site_fract_y
_atom_site_fract_z
Si Si1 0.206763 0.104106 0.865174
Si Si2 0.098888 0.662609 0.684562
Si Si3 0.581664 0.244645 0.573691
Si Si4 0.861263 0.948958 0.268875
Si Si5 0.102861 0.466371 0.072407
O O1 0.301609 0.146355 0.843135
O O2 0.144750 0.183554 0.891618
O O3 0.155791 0.059298 0.805878
O O4 0.231289 0.022523 0.911970
O O5 0.102326 0.602326 0.750000
O O6 0.083586 0.767270 0.701884
O O7 0.025824 0.641225 0.630105
O O8 0.598571 0.253163 0.500000
O O9 0.602002 0.139930 0.590353
O O10 0.947928 0.887329 0.285431
O O11 0.000000 0.500000 0.067371
O O12 0.141490 0.476603 0.000000
#
# Coordination Sequence:
#
# PCOD9564838 Si02
#       5
#    16  16  16  16  16
#     4  11  21  39  57  87 122 152 200 247 298 355
#     4  10  23  39  61  92 116 155 204 250 294 356
#     4  11  23  37  60  88 118 161 200 240 296 365
#     4  10  21  39  59  82 118 158 193 247 310 358
#     4  10  21  40  61  84 119 158 194 246 303 348
#
# _framework density 17.305872000000001
#
# number of rings (size 3 to 8) (size 9 to 14) (size 15 to 20)
#    0.000    1.600    4.000    0.600    2.800    1.600 
#    0.000    1.000    0.000    0.000    0.000    1.400 
#    0.000    0.000    0.000    0.000    0.000    0.000 
#
# Total GULP energy -445858.698952 kJ/mol
# GULP energy per Si atom -5573.233737 kJ/mol
# Density = 1.726648 g / cm^3
# Si number density = 17.305872 Si / 1000 Ang^3
#
#
#
# Elastic Constant Matrix: (Units=GPa)
#
#
# Indices 1 2 3 4 5 6 
#
# 1 95.4975 61.9377 56.9193 0.0000 0.0000 0.0000
# 2 61.9377 95.4975 56.9193 0.0000 0.0000 0.0000
# 3 56.9193 56.9193 85.7624 0.0000 0.0000 0.0000
# 4 0.0000 0.0000 0.0000 8.5309 0.0000 0.0000
# 5 0.0000 0.0000 0.0000 0.0000 8.5309 0.0000
# 6 0.0000 0.0000 0.0000 0.0000 0.0000 25.6744
#
#
#
# Elastic Compliance Matrix: (Units=1/GPa)
#
#
# Indices 1 2 3 4 5 6 
#
# 1 0.021005 -0.008792 -0.008105 0.000000 0.000000 0.000000
# 2 -0.008792 0.021005 -0.008105 0.000000 0.000000 0.000000
# 3 -0.008105 -0.008105 0.022419 0.000000 0.000000 0.000000
# 4 0.000000 0.000000 0.000000 0.117221 0.000000 0.000000
# 5 0.000000 0.000000 0.000000 0.000000 0.117221 0.000000
# 6 0.000000 0.000000 0.000000 0.000000 0.000000 0.038949
#
#
# Mechanical properties :
#
#
# Convention : Reuss Voigt Hill
#
# Bulk Modulus (GPa) = 69.33461 69.81218 69.57340
# Shear Modulus (GPa) = 12.73449 15.27931 14.00690
#
# Velocity S-wave (km/s) = 2.71559 2.97458 2.84803
# Velocity P-wave (km/s) = 7.06992 7.22670 7.14874
#
# Compressibility (1/GPa) = 0.01442281
#
# Stress axis : x y z
#
# Youngs Moduli (GPa) = 47.60744 47.60744 44.60507
#
# Poissons Ratio (x) = 0.41859 0.36154
# Poissons Ratio (y) = 0.41859 0.36154
# Poissons Ratio (z) = 0.38588 0.38588
#
# Static dielectric constant tensor:
#      x y z
#    x 1.574740 0.000000 0.000000 
#    y 0.000000 1.574740 0.000000 
#    z 0.000000 0.000000 1.612940 
# 
# From -- ./inp_files/5546.got.cif
#   From: 2010.05.17/outbox.cif.g08.bks.cpg/sg128_3_cif.got.tgz:5546.got - 2010.05.20 12:07:25.
