data_PCOD9564102
_publ_section_title
;
Structure prediction by ZEFSAII (Michael W. Deem and Ramdas Pophale) SiO2 
 PCOD9564102
Probable space group: P 4/M B M
;
_chemical_formula_sum "Si O2"
_cell_formula_units_Z 120
_cell_length_a 20.065659
_cell_length_b 20.065659
_cell_length_c 15.168443
_cell_angle_alpha 90.000000
_cell_angle_beta 90.000000
_cell_angle_gamma 90.000000
_cell_volume 6107.280385
_symmetry_space_group_name_H-M "P 4/M B M"
_symmetry_group_IT_number 127
_symmetry_cell_setting 'tetragonal'
loop_
_space_group_symop_operation_xyz
x,y,z
-y,x,z
-x,-y,z
y,-x,z
1/2+x,1/2-y,-z
1/2-x,1/2+y,-z
1/2+y,1/2+x,-z
1/2-y,1/2-x,-z
-x,-y,-z
y,-x,-z
x,y,-z
-y,x,-z
1/2-x,1/2+y,z
1/2+x,1/2-y,z
1/2-y,1/2-x,z
1/2+y,1/2+x,z
loop_
_atom_site_type_symbol
_atom_site_label
_atom_site_fract_x
_atom_site_fract_y
_atom_site_fract_z
Si Si1 0.817398 0.421509 0.591956
Si Si2 0.898204 0.207436 0.728214
Si Si3 0.502547 0.109353 0.826152
Si Si4 0.330580 0.719787 0.604990
Si Si5 0.112745 0.005692 0.000000
Si Si6 0.213941 0.600756 0.900918
Si Si7 0.832137 0.564017 0.352744
Si Si8 0.009926 0.887525 0.804670
O O1 0.786594 0.395766 0.500000
O O2 0.889963 0.389963 0.597900
O O3 0.776295 0.402061 0.676383
O O4 0.818483 0.499658 0.591285
O O5 0.843352 0.169259 0.670298
O O6 0.884390 0.229353 0.828472
O O7 0.968350 0.168035 0.734560
O O8 0.561546 0.061546 0.866124
O O9 0.464379 0.167675 0.879807
O O10 0.536413 0.146218 0.743160
O O11 0.443799 0.056202 0.801091
O O12 0.341665 0.706593 0.500000
O O13 0.260270 0.760270 0.612057
O O14 0.386552 0.770106 0.641397
O O15 0.066827 0.939500 0.000000
O O16 0.144453 0.007247 0.096930
O O17 0.162101 0.662101 0.898033
O O18 0.241023 0.595190 0.000000
O O19 0.894360 0.605640 0.387531
O O20 0.942314 0.930206 0.796754
#
# Coordination Sequence:
#
# PCOD9564102 Si02
#       8
#    16  16  16  16   8  16  16  16
#     4  11  23  38  58  85 117 153 196 243 295 356
#     4  12  23  35  62  82 115 152 194 239 293 349
#     4   9  17  32  57  87 121 160 197 239 298 360
#     4  10  22  40  60  83 114 153 196 237 285 354
#     4   7  12  30  56  78 105 136 170 221 284 347
#     4  10  21  36  54  82 120 159 202 246 286 341
#     4  10  20  36  60  88 119 152 192 243 295 352
#     4   9  20  37  58  84 111 141 182 235 293 347
#
# _framework density 19.648681
#
# number of rings (size 3 to 8) (size 9 to 14) (size 15 to 20)
#    0.000    2.067    1.333    3.200    2.800    2.933 
#    0.000    2.000    0.000    0.800    0.000    5.600 
#    0.000    0.000    0.000    0.000    0.000    0.000 
#
# Total GULP energy -668234.633656 kJ/mol
# GULP energy per Si atom -5568.621947 kJ/mol
# Density = 1.960396 g / cm^3
# Si number density = 19.648681 Si / 1000 Ang^3
#
#
#
# Elastic Constant Matrix: (Units=GPa)
#
#
# Indices 1 2 3 4 5 6 
#
# 1 34.8655 -3.0288 11.8497 0.0000 0.0000 0.0000
# 2 -3.0288 34.8655 11.8497 0.0000 0.0000 0.0000
# 3 11.8497 11.8497 95.3687 0.0000 0.0000 0.0000
# 4 0.0000 0.0000 0.0000 5.5736 0.0000 0.0000
# 5 0.0000 0.0000 0.0000 0.0000 5.5736 0.0000
# 6 0.0000 0.0000 0.0000 0.0000 0.0000 20.6578
#
#
#
# Elastic Compliance Matrix: (Units=1/GPa)
#
#
# Indices 1 2 3 4 5 6 
#
# 1 0.030500 0.004111 -0.004301 0.000000 0.000000 0.000000
# 2 0.004111 0.030500 -0.004301 0.000000 0.000000 0.000000
# 3 -0.004301 -0.004301 0.011554 0.000000 0.000000 0.000000
# 4 0.000000 0.000000 0.000000 0.179416 0.000000 0.000000
# 5 0.000000 0.000000 0.000000 0.000000 0.179416 0.000000
# 6 0.000000 0.000000 0.000000 0.000000 0.000000 0.048408
#
#
# Mechanical properties :
#
#
# Convention : Reuss Voigt Hill
#
# Bulk Modulus (GPa) = 15.72933 22.93786 19.33360
# Shear Modulus (GPa) = 9.80456 15.98962 12.89709
#
# Velocity S-wave (km/s) = 2.23624 2.85577 2.56478
# Velocity P-wave (km/s) = 3.83280 4.75113 4.31646
#
# Compressibility (1/GPa) = 0.06357548
#
# Stress axis : x y z
#
# Youngs Moduli (GPa) = 32.78642 32.78642 86.54771
#
# Poissons Ratio (x) = -0.13479 0.37220
# Poissons Ratio (y) = -0.13479 0.37220
# Poissons Ratio (z) = 0.14100 0.14100
#
# Static dielectric constant tensor:
#      x y z
#    x 1.706660 0.000000 0.000000 
#    y 0.000000 1.706660 0.000000 
#    z 0.000000 0.000000 1.742650 
# 
# From -- ./inp_files/4648.got.cif
#   From: 2010.05.17/outbox.cif.g08.bks.cpg/sg127_3_cif.got.tgz:4648.got - 2010.05.20 12:03:00.
