data_PCOD9564515
_publ_section_title
;
Structure prediction by ZEFSAII (Michael W. Deem and Ramdas Pophale) SiO2 
 PCOD9564515
Probable space group: P 4/M B M
;
_chemical_formula_sum "Si O2"
_cell_formula_units_Z 88
_cell_length_a 12.000000
_cell_length_b 12.000000
_cell_length_c 30.000000
_cell_angle_alpha 90.000000
_cell_angle_beta 90.000000
_cell_angle_gamma 90.000000
_cell_volume 4320.000000
_symmetry_space_group_name_H-M "P 4/M B M"
_symmetry_group_IT_number 127
_symmetry_cell_setting 'tetragonal'
loop_
_space_group_symop_operation_xyz
x,y,z
-y,x,z
-x,-y,z
y,-x,z
1/2+x,1/2-y,-z
1/2-x,1/2+y,-z
1/2+y,1/2+x,-z
1/2-y,1/2-x,-z
-x,-y,-z
y,-x,-z
x,y,-z
-y,x,-z
1/2-x,1/2+y,z
1/2+x,1/2-y,z
1/2-y,1/2-x,z
1/2+y,1/2+x,z
loop_
_atom_site_type_symbol
_atom_site_label
_atom_site_fract_x
_atom_site_fract_y
_atom_site_fract_z
Si Si1 0.204479 0.879745 0.803628
Si Si2 0.187855 0.005422 0.644500
Si Si3 0.445889 0.239716 0.257919
Si Si4 0.005690 0.810053 0.451840
Si Si5 0.537575 0.325417 0.098107
Si Si6 0.406196 0.906196 0.947191
O O1 0.265897 0.765897 0.818028
O O2 0.109434 0.847348 0.767325
O O3 0.176954 0.947826 0.848121
O O4 0.287426 0.954901 0.775019
O O5 0.247522 0.012076 0.691685
O O6 0.249210 0.007438 0.596385
O O7 0.104009 0.110628 0.644687
O O8 0.350844 0.149157 0.258720
O O9 0.007531 0.750196 0.500000
O O10 0.896474 0.890085 0.451843
O O11 0.628235 0.417415 0.084521
O O12 0.557439 0.207194 0.076568
O O13 0.500000 0.000000 0.941133
O O14 0.389462 0.889462 0.000000
#
# Coordination Sequence:
#
# PCOD9564515 Si02
#       6
#    16  16  16  16  16   8
#     4  11  22  37  58  87 118 154 193 238 296 356
#     4   9  15  25  44  66  93 133 175 225 287 343
#     4  11  22  33  51  76 112 151 190 236 289 352
#     4   7  10  17  32  58  88 118 160 215 279 347
#     4  11  24  43  73 105 134 172 220 273 323 380
#     4  11  28  50  74 103 141 183 219 266 327 381
#
# _framework density 20.370370000000001
#
# number of rings (size 3 to 8) (size 9 to 14) (size 15 to 20)
#    0.000    2.091    4.545    1.636    1.273    2.182 
#    0.000    0.909    0.000    0.545    0.000    0.000 
#    0.000    0.727    0.000    1.636    0.000    0.000 
#
# Total GULP energy -489919.600427 kJ/mol
# GULP energy per Si atom -5567.268187 kJ/mol
# Density = 2.032401 g / cm^3
# Si number density = 20.370370 Si / 1000 Ang^3
#
#
#
# Elastic Constant Matrix: (Units=GPa)
#
#
# Indices 1 2 3 4 5 6 
#
# 1 81.8733 -40.8857 44.0468 0.0000 0.0000 0.0000
# 2 -40.8857 81.8733 44.0468 0.0000 0.0000 0.0000
# 3 44.0468 44.0468 122.8203 0.0000 0.0000 0.0000
# 4 0.0000 0.0000 0.0000 5.2927 0.0000 0.0000
# 5 0.0000 0.0000 0.0000 0.0000 5.2927 0.0000
# 6 0.0000 0.0000 0.0000 0.0000 0.0000 12.0400
#
#
#
# Elastic Compliance Matrix: (Units=1/GPa)
#
#
# Indices 1 2 3 4 5 6 
#
# 1 0.057294 0.049148 -0.038173 0.000000 0.000000 0.000000
# 2 0.049148 0.057294 -0.038173 0.000000 0.000000 0.000000
# 3 -0.038173 -0.038173 0.035522 0.000000 0.000000 0.000000
# 4 0.000000 0.000000 0.000000 0.188939 0.000000 0.000000
# 5 0.000000 0.000000 0.000000 0.000000 0.188939 0.000000
# 6 0.000000 0.000000 0.000000 0.000000 0.000000 0.083056
#
#
# Mechanical properties :
#
#
# Convention : Reuss Voigt Hill
#
# Bulk Modulus (GPa) = 10.44778 42.33143 26.38961
# Shear Modulus (GPa) = 7.17003 20.48235 13.82619
#
# Velocity S-wave (km/s) = 1.87816 3.17440 2.60809
# Velocity P-wave (km/s) = 3.13741 5.85335 4.69601
#
# Compressibility (1/GPa) = 0.09571411
#
# Stress axis : x y z
#
# Youngs Moduli (GPa) = 17.45371 17.45371 28.15150
#
# Poissons Ratio (x) = -0.85782 1.07464
# Poissons Ratio (y) = -0.85782 1.07464
# Poissons Ratio (z) = 0.66627 0.66627
#
# Static dielectric constant tensor:
#      x y z
#    x 1.761630 0.000000 0.000000 
#    y 0.000000 1.761630 0.000000 
#    z 0.000000 0.000000 1.751610 
# 
# From -- ./inp_files/6527.got.cif
#   From: 2010.05.17/outbox.ucp.g08.bks.cvg/sg127_4_cif.got.tgz:6527.got - 2010.06.11 11:37:05.
