data_PCOD9564481
_publ_section_title
;
Structure prediction by ZEFSAII (Michael W. Deem and Ramdas Pophale) SiO2 
 PCOD9564481
Probable space group: P 4/M B M
;
_chemical_formula_sum "Si O2"
_cell_formula_units_Z 56
_cell_length_a 17.686409
_cell_length_b 17.686409
_cell_length_c 7.769795
_cell_angle_alpha 90.000000
_cell_angle_beta 90.000000
_cell_angle_gamma 90.000000
_cell_volume 2430.462296
_symmetry_space_group_name_H-M "P 4/M B M"
_symmetry_group_IT_number 127
_symmetry_cell_setting 'tetragonal'
loop_
_space_group_symop_operation_xyz
x,y,z
-y,x,z
-x,-y,z
y,-x,z
1/2+x,1/2-y,-z
1/2-x,1/2+y,-z
1/2+y,1/2+x,-z
1/2-y,1/2-x,-z
-x,-y,-z
y,-x,-z
x,y,-z
-y,x,-z
1/2-x,1/2+y,z
1/2+x,1/2-y,z
1/2-y,1/2-x,z
1/2+y,1/2+x,z
loop_
_atom_site_type_symbol
_atom_site_label
_atom_site_fract_x
_atom_site_fract_y
_atom_site_fract_z
Si Si1 0.549726 0.609112 0.793478
Si Si2 0.996019 0.372890 0.000000
Si Si3 0.202159 0.426266 0.695275
Si Si4 0.818103 0.201000 0.705831
O O1 0.464689 0.596296 0.730249
O O2 0.595718 0.683290 0.746801
O O3 0.546703 0.606113 0.000000
O O4 0.011056 0.322415 0.168499
O O5 0.061843 0.438158 0.000000
O O6 0.917370 0.417370 0.000000
O O7 0.219317 0.452423 0.500000
O O8 0.130721 0.369280 0.681606
O O9 0.268072 0.371092 0.765898
O O10 0.810910 0.200465 0.500000
O O11 0.776723 0.276723 0.770264
#
# Coordination Sequence:
#
# PCOD9564481 Si02
#       4
#    16   8  16  16
#     4   9  19  35  54  81 116 148 181 227 282 337
#     4   9  16  24  38  62  88 123 172 216 265 328
#     4   8  15  27  41  63  96 127 163 217 269 314
#     4   9  18  32  52  80 109 139 181 229 277 333
#
# _framework density 23.040883000000001
#
# number of rings (size 3 to 8) (size 9 to 14) (size 15 to 20)
#    0.000    3.286    0.000    2.571    2.000    2.286 
#    0.000    4.286    0.000    1.714    0.000    0.000 
#    0.000    0.000    0.000    0.000    0.000    0.000 
#
# Total GULP energy -312527.770655 kJ/mol
# GULP energy per Si atom -5580.853047 kJ/mol
# Density = 2.298844 g / cm^3
# Si number density = 23.040883 Si / 1000 Ang^3
#
#
#
# Elastic Constant Matrix: (Units=GPa)
#
#
# Indices 1 2 3 4 5 6 
#
# 1 65.5758 71.0829 9.2129 0.0000 0.0000 0.0000
# 2 71.0829 65.5759 9.2130 0.0000 0.0000 0.0000
# 3 9.2129 9.2130 52.6621 0.0000 0.0000 0.0000
# 4 0.0000 0.0000 0.0000 15.2722 0.0000 0.0000
# 5 0.0000 0.0000 0.0000 0.0000 15.2721 0.0000
# 6 0.0000 0.0000 0.0000 0.0000 0.0000 27.8747
#
#
#
# Elastic Compliance Matrix: (Units=1/GPa)
#
#
# Indices 1 2 3 4 5 6 
#
# 1 -0.087046 0.094540 -0.001311 0.000000 0.000000 0.000000
# 2 0.094540 -0.087046 -0.001311 0.000000 0.000000 0.000000
# 3 -0.001311 -0.001311 0.019448 0.000000 0.000000 0.000000
# 4 0.000000 0.000000 0.000000 0.065478 0.000000 0.000000
# 5 0.000000 0.000000 0.000000 0.000000 0.065479 0.000000
# 6 0.000000 0.000000 0.000000 0.000000 0.000000 0.035875
#
#
# Mechanical properties :
#
#
# Convention : Reuss Voigt Hill
#
# Bulk Modulus (GPa) = 34.25601 40.31458 37.28529
# Shear Modulus (GPa) = -30.87965 17.97083 -6.45441
#
# Velocity S-wave (km/s) = -3.66486 2.79580 -1.67552
# Velocity P-wave (km/s) = 1.73451 5.28743 3.53188
#
# Compressibility (1/GPa) = 0.02919195
#
# Stress axis : x y z
#
# Youngs Moduli (GPa) = -11.48814 -11.48816 51.41989
#
# Poissons Ratio (x) = 1.08610 0.06743
# Poissons Ratio (y) = 1.08609 0.06740
# Poissons Ratio (z) = -0.01506 -0.01506
#
# Static dielectric constant tensor:
#      x y z
#    x 1.873180 0.000000 0.000000 
#    y 0.000000 1.873180 0.000000 
#    z 0.000000 0.000000 1.837460 
# 
# From -- ./inp_files/1061.got.cif
#   From: 2010.05.17/outbox.cif.g08.bks.cpg/sg127_1_cif.got.tgz:1061.got - 2010.05.20 12:03:00.
