data_PCOD9564160
_publ_section_title
;
Structure prediction by ZEFSAII (Michael W. Deem and Ramdas Pophale) SiO2 
 PCOD9564160
Probable space group: P 4/M B M
;
_chemical_formula_sum "Si O2"
_cell_formula_units_Z 72
_cell_length_a 11.710412
_cell_length_b 11.710412
_cell_length_c 23.867395
_cell_angle_alpha 90.000000
_cell_angle_beta 90.000000
_cell_angle_gamma 90.000000
_cell_volume 3273.025360
_symmetry_space_group_name_H-M "P 4/M B M"
_symmetry_group_IT_number 127
_symmetry_cell_setting 'tetragonal'
loop_
_space_group_symop_operation_xyz
x,y,z
-y,x,z
-x,-y,z
y,-x,z
1/2+x,1/2-y,-z
1/2-x,1/2+y,-z
1/2+y,1/2+x,-z
1/2-y,1/2-x,-z
-x,-y,-z
y,-x,-z
x,y,-z
-y,x,-z
1/2-x,1/2+y,z
1/2+x,1/2-y,z
1/2-y,1/2-x,z
1/2+y,1/2+x,z
loop_
_atom_site_type_symbol
_atom_site_label
_atom_site_fract_x
_atom_site_fract_y
_atom_site_fract_z
Si Si1 0.485112 0.313743 0.869662
Si Si2 0.808502 0.505520 0.435865
Si Si3 0.068205 0.243037 0.746985
Si Si4 0.095584 0.595584 0.063110
Si Si5 0.783077 0.898361 0.334312
O O1 0.600968 0.381247 0.883098
O O2 0.502225 0.290039 0.803494
O O3 0.459187 0.199846 0.902949
O O4 0.768476 0.513463 0.500000
O O5 0.905145 0.405145 0.433763
O O6 0.711189 0.469439 0.391824
O O7 0.878121 0.621880 0.422357
O O8 0.173018 0.326983 0.761011
O O9 0.116080 0.139280 0.707972
O O10 0.977725 0.297008 0.704607
O O11 0.000000 0.500000 0.058973
O O12 0.130221 0.630221 0.000000
O O13 0.719243 0.780758 0.347469
#
# Coordination Sequence:
#
# PCOD9564160 Si02
#       5
#    16  16  16   8  16
#     4  11  25  46  74 106 144 191 237 286 357 427
#     4   8  14  28  51  77 110 156 213 277 343 412
#     4  11  22  36  59  91 126 168 218 278 343 417
#     4  11  28  50  78 113 149 189 238 297 349 416
#     4  10  21  35  53  82 121 164 215 277 346 414
#
# _framework density 21.997995
#
# number of rings (size 3 to 8) (size 9 to 14) (size 15 to 20)
#    0.000    1.889    2.222    2.000    4.667    2.667 
#    0.000    2.222    0.000    4.000    0.000    1.556 
#    0.000    0.000    0.000    0.000    0.000    0.000 
#
# Total GULP energy -401474.879868 kJ/mol
# GULP energy per Si atom -5576.039998 kJ/mol
# Density = 2.194793 g / cm^3
# Si number density = 21.997995 Si / 1000 Ang^3
#
#
#
# Elastic Constant Matrix: (Units=GPa)
#
#
# Indices 1 2 3 4 5 6 
#
# 1 44.9930 92.2611 71.3638 0.0000 0.0000 0.0000
# 2 92.2611 44.9930 71.3638 0.0000 0.0000 0.0000
# 3 71.3638 71.3638 168.4563 0.0000 0.0000 0.0000
# 4 0.0000 0.0000 0.0000 6.8589 0.0000 0.0000
# 5 0.0000 0.0000 0.0000 0.0000 6.8589 0.0000
# 6 0.0000 0.0000 0.0000 0.0000 0.0000 17.4401
#
#
#
# Elastic Compliance Matrix: (Units=1/GPa)
#
#
# Indices 1 2 3 4 5 6 
#
# 1 -0.004067 0.017089 -0.005517 0.000000 0.000000 0.000000
# 2 0.017089 -0.004067 -0.005517 0.000000 0.000000 0.000000
# 3 -0.005517 -0.005517 0.010610 0.000000 0.000000 0.000000
# 4 0.000000 0.000000 0.000000 0.145795 0.000000 0.000000
# 5 0.000000 0.000000 0.000000 0.000000 0.145795 0.000000
# 6 0.000000 0.000000 0.000000 0.000000 0.000000 0.057339
#
#
# Mechanical properties :
#
#
# Convention : Reuss Voigt Hill
#
# Bulk Modulus (GPa) = 68.54768 80.93552 74.74160
# Shear Modulus (GPa) = 14.52818 7.79515 11.16167
#
# Velocity S-wave (km/s) = 2.57268 1.88448 2.25499
# Velocity P-wave (km/s) = 6.32878 6.45036 6.38986
#
# Compressibility (1/GPa) = 0.01458839
#
# Stress axis : x y z
#
# Youngs Moduli (GPa) = -245.90135 -245.90135 94.24655
#
# Poissons Ratio (x) = 4.20226 0.51994
# Poissons Ratio (y) = 4.20226 0.51994
# Poissons Ratio (z) = -1.35659 -1.35659
#
# Static dielectric constant tensor:
#      x y z
#    x 1.863600 0.000000 0.000000 
#    y 0.000000 1.863600 0.000000 
#    z 0.000000 0.000000 1.806450 
# 
# From -- ./inp_files/6300.got.cif
#   From: 2010.05.17/outbox.cif.g08.bks.cpg/sg127_4_cif.got.tgz:6300.got - 2010.05.20 12:03:00.
