data_PCOD9564724
_publ_section_title
;
Structure prediction by ZEFSAII (Michael W. Deem and Ramdas Pophale) SiO2 
 PCOD9564724
Probable space group: P 4/M N C
;
_chemical_formula_sum "Si O2"
_cell_formula_units_Z 96
_cell_length_a 24.763657
_cell_length_b 24.763657
_cell_length_c 8.607282
_cell_angle_alpha 90.000000
_cell_angle_beta 90.000000
_cell_angle_gamma 90.000000
_cell_volume 5278.318493
_symmetry_space_group_name_H-M "P 4/M N C"
_symmetry_group_IT_number 128
_symmetry_cell_setting 'tetragonal'
loop_
_space_group_symop_operation_xyz
x,y,z
-y,x,z
-x,-y,z
y,-x,z
1/2+x,1/2-y,1/2-z
1/2-x,1/2+y,1/2-z
1/2+y,1/2+x,1/2-z
1/2-y,1/2-x,1/2-z
-x,-y,-z
y,-x,-z
x,y,-z
-y,x,-z
1/2-x,1/2+y,1/2+z
1/2+x,1/2-y,1/2+z
1/2-y,1/2-x,1/2+z
1/2+y,1/2+x,1/2+z
loop_
_atom_site_type_symbol
_atom_site_label
_atom_site_fract_x
_atom_site_fract_y
_atom_site_fract_z
Si Si1 0.349601 0.353832 0.813436
Si Si2 0.560887 0.857616 0.187023
Si Si3 0.351859 0.230395 0.187255
Si Si4 0.561434 0.436753 0.312377
Si Si5 0.770009 0.647413 0.314678
Si Si6 0.437190 0.856255 0.187146
O O1 0.361551 0.291915 0.764371
O O2 0.393445 0.396519 0.752956
O O3 0.289413 0.363515 0.750260
O O4 0.348953 0.356091 0.000000
O O5 0.588241 0.911760 0.250000
O O6 0.599134 0.808282 0.238950
O O7 0.499223 0.850815 0.234513
O O8 0.562307 0.858931 0.000000
O O9 0.297321 0.202680 0.250000
O O10 0.349191 0.229417 0.000000
O O11 0.574188 0.498916 0.266090
O O12 0.563288 0.434740 0.500000
O O13 0.797839 0.702162 0.250000
O O14 0.769136 0.650339 0.500000
O O15 0.809113 0.599496 0.258181
O O16 0.411514 0.911514 0.250000
O O17 0.432955 0.854518 0.000000
#
# Coordination Sequence:
#
# PCOD9564724 Si02
#       6
#    16  16  16  16  16  16
#     4  11  22  35  56  85 112 141 180 222 267 328
#     4   9  19  35  54  76 105 140 178 222 269 317
#     4   9  19  35  53  76 106 139 174 216 266 316
#     4   9  20  40  61  81 110 145 181 225 275 325
#     4  11  22  37  56  79 110 145 181 224 274 326
#     4  10  20  35  54  77 107 142 181 226 272 319
#
# _framework density 18.187609999999999
#
# number of rings (size 3 to 8) (size 9 to 14) (size 15 to 20)
#    0.000    2.167    0.000    4.500    0.000    6.333 
#    0.000    4.167    0.000    0.000    0.000    0.000 
#    0.000    0.000    0.000    0.000    0.000    0.000 
#
# Total GULP energy -535844.183851 kJ/mol
# GULP energy per Si atom -5581.710248 kJ/mol
# Density = 1.814621 g / cm^3
# Si number density = 18.187610 Si / 1000 Ang^3
#
#
#
# Elastic Constant Matrix: (Units=GPa)
#
#
# Indices 1 2 3 4 5 6 
#
# 1 164.3085 87.9055 41.9014 0.0000 0.0000 0.0000
# 2 87.9055 164.2851 41.9019 0.0000 0.0000 0.0000
# 3 41.9014 41.9019 49.4750 0.0000 0.0000 0.0000
# 4 0.0000 0.0000 0.0000 28.3880 0.0000 0.0000
# 5 0.0000 0.0000 0.0000 0.0000 28.3891 0.0000
# 6 0.0000 0.0000 0.0000 0.0000 0.0000 27.1654
#
#
#
# Elastic Compliance Matrix: (Units=1/GPa)
#
#
# Indices 1 2 3 4 5 6 
#
# 1 0.009303 -0.003786 -0.004672 0.000000 0.000000 0.000000
# 2 -0.003786 0.009305 -0.004674 0.000000 0.000000 0.000000
# 3 -0.004672 -0.004674 0.028128 0.000000 0.000000 0.000000
# 4 0.000000 0.000000 0.000000 0.035226 0.000000 0.000000
# 5 0.000000 0.000000 0.000000 0.000000 0.035225 0.000000
# 6 0.000000 0.000000 0.000000 0.000000 0.000000 0.036812
#
#
# Mechanical properties :
#
#
# Convention : Reuss Voigt Hill
#
# Bulk Modulus (GPa) = 48.85000 80.16513 64.50757
# Shear Modulus (GPa) = 26.72534 30.54581 28.63557
#
# Velocity S-wave (km/s) = 3.83747 4.10260 3.97224
# Velocity P-wave (km/s) = 6.82291 8.16175 7.52218
#
# Compressibility (1/GPa) = 0.02047083
#
# Stress axis : x y z
#
# Youngs Moduli (GPa) = 107.48827 107.46808 35.55163
#
# Poissons Ratio (x) = 0.40690 0.16611
# Poissons Ratio (y) = 0.40698 0.16617
# Poissons Ratio (z) = 0.50224 0.50232
#
# Static dielectric constant tensor:
#      x y z
#    x 1.614090 0.000000 0.000000 
#    y 0.000000 1.614090 0.000000 
#    z 0.000000 0.000000 1.617430 
# 
# From -- ./inp_files/1474.got.cif
#   From: 2010.05.17/outbox.cif.g08.bks.cpg/sg128_1_cif.got.tgz:1474.got - 2010.05.20 12:07:25.
