data_PCOD9564317
_publ_section_title
;
Structure prediction by ZEFSAII (Michael W. Deem and Ramdas Pophale) SiO2 
 PCOD9564317
Probable space group: P 4/M B M
;
_chemical_formula_sum "Si O2"
_cell_formula_units_Z 60
_cell_length_a 11.811589
_cell_length_b 11.811589
_cell_length_c 23.281148
_cell_angle_alpha 90.000000
_cell_angle_beta 90.000000
_cell_angle_gamma 90.000000
_cell_volume 3248.037578
_symmetry_space_group_name_H-M "P 4/M B M"
_symmetry_group_IT_number 127
_symmetry_cell_setting 'tetragonal'
loop_
_space_group_symop_operation_xyz
x,y,z
-y,x,z
-x,-y,z
y,-x,z
1/2+x,1/2-y,-z
1/2-x,1/2+y,-z
1/2+y,1/2+x,-z
1/2-y,1/2-x,-z
-x,-y,-z
y,-x,-z
x,y,-z
-y,x,-z
1/2-x,1/2+y,z
1/2+x,1/2-y,z
1/2-y,1/2-x,z
1/2+y,1/2+x,z
loop_
_atom_site_type_symbol
_atom_site_label
_atom_site_fract_x
_atom_site_fract_y
_atom_site_fract_z
Si Si1 0.181520 0.057901 0.641034
Si Si2 0.083757 0.169353 0.063113
Si Si3 0.905274 0.405274 0.431266
Si Si4 0.000000 0.500000 0.792006
Si Si5 0.818319 0.681682 0.837052
Si Si6 0.322290 0.177711 0.739725
O O1 0.281246 0.068194 0.594204
O O2 0.238602 0.102657 0.699912
O O3 0.070388 0.136663 0.636450
O O4 0.119989 0.232404 0.120004
O O5 0.950821 0.145896 0.064397
O O6 0.107283 0.220883 0.000000
O O7 0.903636 0.403636 0.500000
O O8 0.000000 0.500000 0.413256
O O9 0.911575 0.588426 0.820235
O O10 0.912931 0.412931 0.762357
O O11 0.750902 0.749099 0.786282
#
# Coordination Sequence:
#
# PCOD9564317 Si02
#       6
#    16  16   8   4   8   8
#     4  10  23  42  66  94 126 170 219 263 315 377
#     4   9  19  36  57  80 111 154 201 252 315 385
#     4  10  24  41  66  98 133 170 208 257 318 374
#     4  12  26  38  57  90 121 156 208 260 320 388
#     4  12  22  38  58  88 120 159 200 262 324 386
#     4  11  24  40  63  87 127 167 210 265 323 381
#
# _framework density 18.472694000000001
#
# number of rings (size 3 to 8) (size 9 to 14) (size 15 to 20)
#    0.000    1.733    0.000    4.400    7.467    1.067 
#    0.000    6.667    0.000    0.000    0.000    0.000 
#    0.000    0.000    0.000    0.000    0.000    0.000 
#
# Total GULP energy -334053.724028 kJ/mol
# GULP energy per Si atom -5567.562067 kJ/mol
# Density = 1.843065 g / cm^3
# Si number density = 18.472694 Si / 1000 Ang^3
#
#
#
# Elastic Constant Matrix: (Units=GPa)
#
#
# Indices 1 2 3 4 5 6 
#
# 1 145.5790 104.3142 83.7262 0.0000 0.0000 0.0000
# 2 104.3142 145.5790 83.7262 0.0000 0.0000 0.0000
# 3 83.7262 83.7262 133.7580 0.0000 0.0000 0.0000
# 4 0.0000 0.0000 0.0000 20.4317 0.0000 0.0000
# 5 0.0000 0.0000 0.0000 0.0000 20.4317 0.0000
# 6 0.0000 0.0000 0.0000 0.0000 0.0000 42.7714
#
#
#
# Elastic Compliance Matrix: (Units=1/GPa)
#
#
# Indices 1 2 3 4 5 6 
#
# 1 0.015563 -0.008670 -0.004315 0.000000 0.000000 0.000000
# 2 -0.008670 0.015563 -0.004315 0.000000 0.000000 0.000000
# 3 -0.004315 -0.004315 0.012878 0.000000 0.000000 0.000000
# 4 0.000000 0.000000 0.000000 0.048944 0.000000 0.000000
# 5 0.000000 0.000000 0.000000 0.000000 0.048944 0.000000
# 6 0.000000 0.000000 0.000000 0.000000 0.000000 0.023380
#
#
# Mechanical properties :
#
#
# Convention : Reuss Voigt Hill
#
# Bulk Modulus (GPa) = 106.32655 107.60547 106.96601
# Shear Modulus (GPa) = 24.62981 26.93692 25.78336
#
# Velocity S-wave (km/s) = 3.65541 3.82278 3.74003
# Velocity P-wave (km/s) = 8.68906 8.82397 8.75678
#
# Compressibility (1/GPa) = 0.00940499
#
# Stress axis : x y z
#
# Youngs Moduli (GPa) = 64.25359 64.25359 77.65337
#
# Poissons Ratio (x) = 0.55710 0.33505
# Poissons Ratio (y) = 0.55710 0.33505
# Poissons Ratio (z) = 0.27723 0.27723
#
# Static dielectric constant tensor:
#      x y z
#    x 1.720850 0.000000 0.000000 
#    y 0.000000 1.720850 0.000000 
#    z 0.000000 0.000000 1.641700 
# 
# From -- ./inp_files/5574.got.cif
#   From: 2010.05.17/outbox.cif.g08.bks.cpg/sg127_3_cif.got.tgz:5574.got - 2010.05.20 12:03:00.
