data_PCOD9564359
_publ_section_title
;
Structure prediction by ZEFSAII (Michael W. Deem and Ramdas Pophale) SiO2 
 PCOD9564359
Probable space group: P 4/M B M
;
_chemical_formula_sum "Si O2"
_cell_formula_units_Z 96
_cell_length_a 24.968548
_cell_length_b 24.968548
_cell_length_c 7.474248
_cell_angle_alpha 90.000000
_cell_angle_beta 90.000000
_cell_angle_gamma 90.000000
_cell_volume 4659.658391
_symmetry_space_group_name_H-M "P 4/M B M"
_symmetry_group_IT_number 127
_symmetry_cell_setting 'tetragonal'
loop_
_space_group_symop_operation_xyz
x,y,z
-y,x,z
-x,-y,z
y,-x,z
1/2+x,1/2-y,-z
1/2-x,1/2+y,-z
1/2+y,1/2+x,-z
1/2-y,1/2-x,-z
-x,-y,-z
y,-x,-z
x,y,-z
-y,x,-z
1/2-x,1/2+y,z
1/2+x,1/2-y,z
1/2-y,1/2-x,z
1/2+y,1/2+x,z
loop_
_atom_site_type_symbol
_atom_site_label
_atom_site_fract_x
_atom_site_fract_y
_atom_site_fract_z
Si Si1 0.269784 0.402008 0.294253
Si Si2 0.654024 0.456186 0.000000
Si Si3 0.443292 0.143412 0.717927
Si Si4 0.857598 0.072769 0.000000
Si Si5 0.564343 0.151239 0.281902
Si Si6 0.699360 0.714886 0.215745
Si Si7 0.265323 0.577278 0.703888
O O1 0.277396 0.418381 0.500000
O O2 0.318914 0.418725 0.169882
O O3 0.212589 0.424150 0.228875
O O4 0.269984 0.337467 0.283533
O O5 0.693517 0.453096 0.830275
O O6 0.622951 0.511856 0.000000
O O7 0.615310 0.405179 0.000000
O O8 0.442070 0.142139 0.500000
O O9 0.400673 0.099328 0.780702
O O10 0.504686 0.133992 0.773006
O O11 0.427820 0.204061 0.768874
O O12 0.565550 0.151280 0.500000
O O13 0.610222 0.110222 0.221468
O O14 0.732490 0.767511 0.264157
O O15 0.639553 0.718409 0.288607
O O16 0.696165 0.711331 0.000000
O O17 0.267531 0.557714 0.500000
#
# Coordination Sequence:
#
# PCOD9564359 Si02
#       7
#    16   8  16   8  16  16  16
#     4  11  21  39  63  91 125 161 204 252 308 370
#     4  12  26  45  66  94 123 155 201 249 309 380
#     4   9  18  32  52  81 117 160 207 251 298 350
#     4  12  26  45  66  94 123 155 201 249 309 380
#     4   9  18  32  52  81 117 160 207 251 298 350
#     4  11  21  35  59  94 133 166 200 248 310 377
#     4  11  21  39  63  91 125 161 204 252 308 370
#
# _framework density 20.602368999999999
#
# number of rings (size 3 to 8) (size 9 to 14) (size 15 to 20)
#    0.000    1.500    3.333    2.500    0.000    5.167 
#    0.000    1.667    0.000    0.000    0.000    2.333 
#    0.000    4.000    0.000    0.333    0.000    0.000 
#
# Total GULP energy -536902.025684 kJ/mol
# GULP energy per Si atom -5592.729434 kJ/mol
# Density = 2.055548 g / cm^3
# Si number density = 20.602369 Si / 1000 Ang^3
#
#
#
# Elastic Constant Matrix: (Units=GPa)
#
#
# Indices 1 2 3 4 5 6 
#
# 1 101.2240 39.5604 20.1015 0.0000 0.0000 0.0000
# 2 39.5604 101.2240 20.1015 0.0000 0.0000 0.0000
# 3 20.1015 20.1015 92.6890 0.0000 0.0000 0.0000
# 4 0.0000 0.0000 0.0000 -8.9095 0.0000 0.0000
# 5 0.0000 0.0000 0.0000 0.0000 -8.9095 0.0000
# 6 0.0000 0.0000 0.0000 0.0000 0.0000 8.7243
#
#
#
# Elastic Compliance Matrix: (Units=1/GPa)
#
#
# Indices 1 2 3 4 5 6 
#
# 1 0.011895 -0.004323 -0.001642 0.000000 0.000000 0.000000
# 2 -0.004323 0.011895 -0.001642 0.000000 0.000000 0.000000
# 3 -0.001642 -0.001642 0.011501 0.000000 0.000000 0.000000
# 4 0.000000 0.000000 0.000000 -0.112240 0.000000 0.000000
# 5 0.000000 0.000000 0.000000 0.000000 -0.112240 0.000000
# 6 0.000000 0.000000 0.000000 0.000000 0.000000 0.114623
#
#
# Mechanical properties :
#
#
# Convention : Reuss Voigt Hill
#
# Bulk Modulus (GPa) = 49.80959 50.51821 50.16390
# Shear Modulus (GPa) = -94.94704 12.53930 -41.20387
#
# Velocity S-wave (km/s) = -6.79599 2.46973 -4.47694
# Velocity P-wave (km/s) = 6.11160 5.71896 1.52398
#
# Compressibility (1/GPa) = 0.02007645
#
# Stress axis : x y z
#
# Youngs Moduli (GPa) = 84.07244 84.07244 86.94869
#
# Poissons Ratio (x) = 0.36340 0.14278
# Poissons Ratio (y) = 0.36340 0.14278
# Poissons Ratio (z) = 0.13806 0.13806
#
# Static dielectric constant tensor:
#      x y z
#    x 1.706010 0.000000 0.000000 
#    y 0.000000 1.706010 0.000000 
#    z 0.000000 0.000000 1.784120 
# 
# From -- ./inp_files/2053.got.cif
#   From: 2010.05.17/outbox.cif.g08.bks.cpg/sg127_2_cif.got.tgz:2053.got - 2010.05.20 12:03:00.
