data_PCOD9564894
_publ_section_title
;
Structure prediction by ZEFSAII (Michael W. Deem and Ramdas Pophale) SiO2 
 PCOD9564894
Probable space group: P 4/M N C
;
_chemical_formula_sum "Si O2"
_cell_formula_units_Z 80
_cell_length_a 15.185349
_cell_length_b 15.185349
_cell_length_c 16.144409
_cell_angle_alpha 90.000000
_cell_angle_beta 90.000000
_cell_angle_gamma 90.000000
_cell_volume 3722.817156
_symmetry_space_group_name_H-M "P 4/M N C"
_symmetry_group_IT_number 128
_symmetry_cell_setting 'tetragonal'
loop_
_space_group_symop_operation_xyz
x,y,z
-y,x,z
-x,-y,z
y,-x,z
1/2+x,1/2-y,1/2-z
1/2-x,1/2+y,1/2-z
1/2+y,1/2+x,1/2-z
1/2-y,1/2-x,1/2-z
-x,-y,-z
y,-x,-z
x,y,-z
-y,x,-z
1/2-x,1/2+y,1/2+z
1/2+x,1/2-y,1/2+z
1/2-y,1/2-x,1/2+z
1/2+y,1/2+x,1/2+z
loop_
_atom_site_type_symbol
_atom_site_label
_atom_site_fract_x
_atom_site_fract_y
_atom_site_fract_z
Si Si1 0.951181 0.412955 0.153947
Si Si2 0.780009 0.110247 0.594930
Si Si3 0.698029 0.120411 0.835764
Si Si4 0.378362 0.418173 0.598003
Si Si5 0.583571 0.753187 0.900172
O O1 0.933859 0.433859 0.250000
O O2 0.854862 0.395669 0.118040
O O3 0.000000 0.500000 0.117935
O O4 0.021198 0.334651 0.149695
O O5 0.808134 0.096683 0.500000
O O6 0.684009 0.152950 0.597654
O O7 0.846426 0.182000 0.632204
O O8 0.771741 0.013408 0.633563
O O9 0.658394 0.158394 0.750000
O O10 0.802391 0.123999 0.846627
O O11 0.476570 0.382494 0.612399
O O12 0.358019 0.404637 0.500000
O O13 0.582024 0.747287 0.000000
#
# Coordination Sequence:
#
# PCOD9564894 Si02
#       5
#    16  16  16  16  16
#     4  11  21  41  61  82 122 160 200 249 311 381
#     4  10  22  40  59  86 121 159 216 263 310 379
#     4  12  23  39  61  93 129 167 206 263 327 387
#     4   9  21  44  70  96 129 171 221 276 335 396
#     4  10  22  39  62  89 117 157 207 262 314 373
#
# _framework density 21.489103
#
# number of rings (size 3 to 8) (size 9 to 14) (size 15 to 20)
#    0.000    1.600    4.000    1.200    2.800    3.200 
#    3.600    2.000    0.000    0.000    0.000    0.000 
#    0.000    0.000    0.000    0.000    0.000    0.000 
#
# Total GULP energy -446692.251078 kJ/mol
# GULP energy per Si atom -5583.653138 kJ/mol
# Density = 2.144019 g / cm^3
# Si number density = 21.489103 Si / 1000 Ang^3
#
#
#
# Elastic Constant Matrix: (Units=GPa)
#
#
# Indices 1 2 3 4 5 6 
#
# 1 -198.0800 367.5537 25.3694 0.0000 0.0000 0.0000
# 2 367.5537 -198.0800 25.3694 0.0000 0.0000 0.0000
# 3 25.3694 25.3694 30.8856 0.0000 0.0000 0.0000
# 4 0.0000 0.0000 0.0000 17.7660 0.0000 0.0000
# 5 0.0000 0.0000 0.0000 0.0000 17.7660 0.0000
# 6 0.0000 0.0000 0.0000 0.0000 0.0000 27.9648
#
#
#
# Elastic Compliance Matrix: (Units=1/GPa)
#
#
# Indices 1 2 3 4 5 6 
#
# 1 0.003028 0.004796 -0.006427 0.000000 0.000000 0.000000
# 2 0.004796 0.003028 -0.006427 0.000000 0.000000 0.000000
# 3 -0.006427 -0.006427 0.042936 0.000000 0.000000 0.000000
# 4 0.000000 0.000000 0.000000 0.056287 0.000000 0.000000
# 5 0.000000 0.000000 0.000000 0.000000 0.056287 0.000000
# 6 0.000000 0.000000 0.000000 0.000000 0.000000 0.035759
#
#
# Mechanical properties :
#
#
# Convention : Reuss Voigt Hill
#
# Bulk Modulus (GPa) = 30.41663 52.36784 41.39223
# Shear Modulus (GPa) = 22.28139 -39.53841 -8.62851
#
# Velocity S-wave (km/s) = 3.22354 -4.29409 -2.00599
# Velocity P-wave (km/s) = 5.29529 0.40404 3.73342
#
# Compressibility (1/GPa) = 0.03287675
#
# Stress axis : x y z
#
# Youngs Moduli (GPa) = 330.19763 330.19763 23.29027
#
# Poissons Ratio (x) = -1.58377 0.14969
# Poissons Ratio (y) = -1.58377 0.14969
# Poissons Ratio (z) = 2.12230 2.12230
#
# Static dielectric constant tensor:
#      x y z
#    x 1.782820 0.000000 0.000000 
#    y 0.000000 1.782820 0.000000 
#    z 0.000000 0.000000 1.865220 
# 
# From -- ./inp_files/5522.got.cif
#   From: 2010.05.17/outbox.cif.g08.bks.cpg/sg128_3_cif.got.tgz:5522.got - 2010.05.20 12:07:25.
