data_PCOD9564538
_publ_section_title
;
Structure prediction by ZEFSAII (Michael W. Deem and Ramdas Pophale) SiO2 
 PCOD9564538
Probable space group: P 4/M N C
;
_chemical_formula_sum "Si O2"
_cell_formula_units_Z 128
_cell_length_a 18.111654
_cell_length_b 18.111654
_cell_length_c 21.927172
_cell_angle_alpha 90.000000
_cell_angle_beta 90.000000
_cell_angle_gamma 90.000000
_cell_volume 7192.814318
_symmetry_space_group_name_H-M "P 4/M N C"
_symmetry_group_IT_number 128
_symmetry_cell_setting 'tetragonal'
loop_
_space_group_symop_operation_xyz
x,y,z
-y,x,z
-x,-y,z
y,-x,z
1/2+x,1/2-y,1/2-z
1/2-x,1/2+y,1/2-z
1/2+y,1/2+x,1/2-z
1/2-y,1/2-x,1/2-z
-x,-y,-z
y,-x,-z
x,y,-z
-y,x,-z
1/2-x,1/2+y,1/2+z
1/2+x,1/2-y,1/2+z
1/2-y,1/2-x,1/2+z
1/2+y,1/2+x,1/2+z
loop_
_atom_site_type_symbol
_atom_site_label
_atom_site_fract_x
_atom_site_fract_y
_atom_site_fract_z
Si Si1 0.038303 0.665936 0.749358
Si Si2 0.800850 0.860653 0.744470
Si Si3 0.915565 0.524230 0.859346
Si Si4 0.174749 0.478243 0.613342
Si Si5 0.706743 0.636617 0.427844
Si Si6 0.880340 0.368077 0.569883
Si Si7 0.735236 0.774115 0.647314
Si Si8 0.089235 0.085000 0.161395
O O1 0.105311 0.605311 0.750000
O O2 0.072801 0.744235 0.730468
O O3 0.979892 0.633016 0.701641
O O4 0.004037 0.676688 0.816094
O O5 0.802831 0.809901 0.684486
O O6 0.760136 0.815813 0.799045
O O7 0.876250 0.886628 0.775041
O O8 0.924838 0.603488 0.890029
O O9 0.883092 0.461841 0.903751
O O10 0.000000 0.500000 0.843564
O O11 0.245698 0.434538 0.591268
O O12 0.160366 0.552818 0.575979
O O13 0.698621 0.642232 0.500000
O O14 0.747729 0.707987 0.399685
O O15 0.628463 0.629402 0.393327
O O16 0.881491 0.344363 0.500000
O O17 0.836684 0.310901 0.612215
O O18 0.002386 0.100639 0.157495
#
# Coordination Sequence:
#
# PCOD9564538 Si02
#       8
#    16  16  16  16  16  16  16  16
#     4  12  16  32  57  82 113 149 188 237 285 345
#     4  10  17  35  61  78 108 137 184 239 304 344
#     4  10  20  31  51  80 117 153 189 236 286 341
#     4  11  22  34  51  81 117 152 193 239 287 340
#     4  11  25  41  57  81 119 164 201 237 285 343
#     4  11  20  32  54  78 108 157 202 233 277 344
#     4  10  19  37  55  80 106 146 193 244 286 350
#     4  10  23  42  62  87 114 146 197 257 305 346
#
# _framework density 17.795538000000001
#
# number of rings (size 3 to 8) (size 9 to 14) (size 15 to 20)
#    0.000    1.375    6.250    1.875    1.750    3.250 
#   11.250    0.625    0.000    0.000    0.000    0.000 
#    0.000    0.000    0.000    5.500    0.250    0.000 
#
# Total GULP energy -714499.501176 kJ/mol
# GULP energy per Si atom -5582.027353 kJ/mol
# Density = 1.775504 g / cm^3
# Si number density = 17.795538 Si / 1000 Ang^3
#
#
#
# Elastic Constant Matrix: (Units=GPa)
#
#
# Indices 1 2 3 4 5 6 
#
# 1 49.4577 16.6653 36.8290 0.0000 0.0000 0.0000
# 2 16.6653 49.4577 36.8290 0.0000 0.0000 0.0000
# 3 36.8290 36.8290 122.2313 0.0000 0.0000 0.0000
# 4 0.0000 0.0000 0.0000 17.1404 0.0000 0.0000
# 5 0.0000 0.0000 0.0000 0.0000 17.1404 0.0000
# 6 0.0000 0.0000 0.0000 0.0000 0.0000 13.8574
#
#
#
# Elastic Compliance Matrix: (Units=1/GPa)
#
#
# Indices 1 2 3 4 5 6 
#
# 1 0.026629 -0.003866 -0.006859 0.000000 0.000000 0.000000
# 2 -0.003866 0.026629 -0.006859 0.000000 0.000000 0.000000
# 3 -0.006859 -0.006859 0.012314 0.000000 0.000000 0.000000
# 4 0.000000 0.000000 0.000000 0.058342 0.000000 0.000000
# 5 0.000000 0.000000 0.000000 0.000000 0.058342 0.000000
# 6 0.000000 0.000000 0.000000 0.000000 0.000000 0.072164
#
#
# Mechanical properties :
#
#
# Convention : Reuss Voigt Hill
#
# Bulk Modulus (GPa) = 32.88765 44.64371 38.76568
# Shear Modulus (GPa) = 16.68211 18.34919 17.51565
#
# Velocity S-wave (km/s) = 3.06507 3.21458 3.14071
# Velocity P-wave (km/s) = 5.57200 6.23855 5.91467
#
# Compressibility (1/GPa) = 0.03040655
#
# Stress axis : x y z
#
# Youngs Moduli (GPa) = 37.55261 37.55261 81.20556
#
# Poissons Ratio (x) = 0.14516 0.55698
# Poissons Ratio (y) = 0.14516 0.55698
# Poissons Ratio (z) = 0.25757 0.25757
#
# Static dielectric constant tensor:
#      x y z
#    x 1.631030 0.000000 0.000000 
#    y 0.000000 1.631030 0.000000 
#    z 0.000000 0.000000 1.605920 
# 
# From -- ./inp_files/6601.got.cif
#   From: 2010.05.17/outbox.cif.g08.bks.cpg/sg128_4_cif.got.tgz:6601.got - 2010.05.20 12:07:25.
