data_PCOD9564099
_publ_section_title
;
Structure prediction by ZEFSAII (Michael W. Deem and Ramdas Pophale) SiO2 
 PCOD9564099
Probable space group: P 4/M B M
;
_chemical_formula_sum "Si O2"
_cell_formula_units_Z 96
_cell_length_a 23.926661
_cell_length_b 23.926661
_cell_length_c 7.484167
_cell_angle_alpha 90.000000
_cell_angle_beta 90.000000
_cell_angle_gamma 90.000000
_cell_volume 4284.574143
_symmetry_space_group_name_H-M "P 4/M B M"
_symmetry_group_IT_number 127
_symmetry_cell_setting 'tetragonal'
loop_
_space_group_symop_operation_xyz
x,y,z
-y,x,z
-x,-y,z
y,-x,z
1/2+x,1/2-y,-z
1/2-x,1/2+y,-z
1/2+y,1/2+x,-z
1/2-y,1/2-x,-z
-x,-y,-z
y,-x,-z
x,y,-z
-y,x,-z
1/2-x,1/2+y,z
1/2+x,1/2-y,z
1/2-y,1/2-x,z
1/2+y,1/2+x,z
loop_
_atom_site_type_symbol
_atom_site_label
_atom_site_fract_x
_atom_site_fract_y
_atom_site_fract_z
Si Si1 0.275442 0.608038 0.710667
Si Si2 0.152944 0.652944 0.213932
Si Si3 0.630009 0.044547 0.216393
Si Si4 0.937741 0.437741 0.217688
Si Si5 0.481841 0.742151 0.290725
Si Si6 0.876654 0.824358 0.300537
Si Si7 0.556723 0.429549 0.215003
O O1 0.288854 0.603794 0.500000
O O2 0.213614 0.632810 0.726993
O O3 0.275210 0.543553 0.781852
O O4 0.318740 0.654338 0.786126
O O5 0.107740 0.607740 0.274362
O O6 0.152691 0.652691 0.000000
O O7 0.604409 0.104409 0.271600
O O8 0.585772 0.997316 0.274344
O O9 0.691326 0.026795 0.278107
O O10 0.632168 0.044021 0.000000
O O11 0.939724 0.439724 0.000000
O O12 0.482391 0.726197 0.500000
O O13 0.424910 0.714427 0.214235
O O14 0.864439 0.801351 0.500000
O O15 0.908136 0.883281 0.309646
O O16 0.575631 0.491743 0.260477
O O17 0.561843 0.423415 0.000000
#
# Coordination Sequence:
#
# PCOD9564099 Si02
#       7
#    16   8  16   8  16  16  16
#     4  10  21  38  59  82 113 149 188 237 286 333
#     4  11  21  36  61  87 110 146 194 234 276 333
#     4  10  20  36  59  85 114 147 182 225 280 341
#     4   9  17  33  58  87 113 139 177 223 272 332
#     4  10  21  37  57  82 113 149 189 235 284 335
#     4  10  21  37  56  80 108 147 193 233 277 331
#     4   9  18  32  50  76 110 143 177 226 286 337
#
# _framework density 22.405963
#
# number of rings (size 3 to 8) (size 9 to 14) (size 15 to 20)
#    0.000    2.167    1.667    2.000    0.000    4.667 
#    1.500    1.250    0.000    1.000    0.000    0.000 
#    0.000    0.000    0.000    0.000    0.000    0.000 
#
# Total GULP energy -535633.698308 kJ/mol
# GULP energy per Si atom -5579.517691 kJ/mol
# Density = 2.235497 g / cm^3
# Si number density = 22.405963 Si / 1000 Ang^3
#
#
#
# Elastic Constant Matrix: (Units=GPa)
#
#
# Indices 1 2 3 4 5 6 
#
# 1 139.9279 24.8169 0.5830 0.0000 0.0000 0.0000
# 2 24.8169 139.9279 0.5830 0.0000 0.0000 0.0000
# 3 0.5830 0.5830 58.8391 0.0000 0.0000 0.0000
# 4 0.0000 0.0000 0.0000 18.3147 0.0000 0.0000
# 5 0.0000 0.0000 0.0000 0.0000 18.3147 0.0000
# 6 0.0000 0.0000 0.0000 0.0000 0.0000 50.8991
#
#
#
# Elastic Compliance Matrix: (Units=1/GPa)
#
#
# Indices 1 2 3 4 5 6 
#
# 1 0.007379 -0.001308 -0.000060 0.000000 0.000000 0.000000
# 2 -0.001308 0.007379 -0.000060 0.000000 0.000000 0.000000
# 3 -0.000060 -0.000060 0.016997 0.000000 0.000000 0.000000
# 4 0.000000 0.000000 0.000000 0.054601 0.000000 0.000000
# 5 0.000000 0.000000 0.000000 0.000000 0.054601 0.000000
# 6 0.000000 0.000000 0.000000 0.000000 0.000000 0.019647
#
#
# Mechanical properties :
#
#
# Convention : Reuss Voigt Hill
#
# Bulk Modulus (GPa) = 34.60573 43.40673 39.00623
# Shear Modulus (GPa) = 28.88625 38.35316 33.61970
#
# Velocity S-wave (km/s) = 3.59447 4.14181 3.87781
# Velocity P-wave (km/s) = 5.71886 6.50289 6.12344
#
# Compressibility (1/GPa) = 0.02889695
#
# Stress axis : x y z
#
# Youngs Moduli (GPa) = 135.52257 135.52257 58.83496
#
# Poissons Ratio (x) = 0.17732 0.00354
# Poissons Ratio (y) = 0.17732 0.00354
# Poissons Ratio (z) = 0.00815 0.00815
#
# Static dielectric constant tensor:
#      x y z
#    x 1.832790 0.000000 0.000000 
#    y 0.000000 1.832790 0.000000 
#    z 0.000000 0.000000 1.861100 
# 
# From -- ./inp_files/2124.got.cif
#   From: 2010.05.17/outbox.cif.g08.bks.cpg/sg127_2_cif.got.tgz:2124.got - 2010.05.20 12:03:00.
