data_PCOD9564384
_publ_section_title
;
Structure prediction by ZEFSAII (Michael W. Deem and Ramdas Pophale) SiO2 
 PCOD9564384
Probable space group: P 4/M B M
;
_chemical_formula_sum "Si O2"
_cell_formula_units_Z 96
_cell_length_a 14.378108
_cell_length_b 14.378108
_cell_length_c 25.918298
_cell_angle_alpha 90.000000
_cell_angle_beta 90.000000
_cell_angle_gamma 90.000000
_cell_volume 5358.089478
_symmetry_space_group_name_H-M "P 4/M B M"
_symmetry_group_IT_number 127
_symmetry_cell_setting 'tetragonal'
loop_
_space_group_symop_operation_xyz
x,y,z
-y,x,z
-x,-y,z
y,-x,z
1/2+x,1/2-y,-z
1/2-x,1/2+y,-z
1/2+y,1/2+x,-z
1/2-y,1/2-x,-z
-x,-y,-z
y,-x,-z
x,y,-z
-y,x,-z
1/2-x,1/2+y,z
1/2+x,1/2-y,z
1/2-y,1/2-x,z
1/2+y,1/2+x,z
loop_
_atom_site_type_symbol
_atom_site_label
_atom_site_fract_x
_atom_site_fract_y
_atom_site_fract_z
Si Si1 0.720202 0.370653 0.659796
Si Si2 0.922400 0.577601 0.439743
Si Si3 0.996563 0.653240 0.938315
Si Si4 0.845143 0.977837 0.878460
Si Si5 0.649070 0.454343 0.758521
Si Si6 0.633765 0.578981 0.500000
Si Si7 0.560749 0.273308 0.606280
O O1 0.815347 0.315347 0.648074
O O2 0.721008 0.413943 0.717270
O O3 0.637128 0.297365 0.649218
O O4 0.693077 0.459950 0.624838
O O5 0.900306 0.599695 0.500000
O O6 0.954860 0.667220 0.408677
O O7 0.000000 0.500000 0.440308
O O8 0.080359 0.580359 0.929090
O O9 0.018018 0.750479 0.910682
O O10 0.901538 0.598463 0.922407
O O11 0.990664 0.667988 0.000000
O O12 0.821314 0.958984 0.818184
O O13 0.924056 0.898982 0.888063
O O14 0.610897 0.558526 0.750012
O O15 0.532361 0.622804 0.500000
O O16 0.684319 0.600815 0.553160
#
# Coordination Sequence:
#
# PCOD9564384 Si02
#       7
#    16   8  16  16  16   8  16
#     4  12  24  37  60  86 112 146 189 240 292 346
#     4  11  24  42  60  78 118 163 185 219 290 368
#     4   9  19  36  57  83 119 165 211 249 290 347
#     4   9  19  35  57  88 120 152 193 250 304 350
#     4   9  18  36  60  82 108 143 186 233 286 347
#     4  11  22  35  56  87 113 134 176 237 293 344
#     4  12  23  39  59  87 112 142 189 235 286 350
#
# _framework density 17.916833
#
# number of rings (size 3 to 8) (size 9 to 14) (size 15 to 20)
#    0.000    1.667    5.000    2.000    0.000    2.333 
#    0.000    5.833    1.833    0.000    0.000    0.000 
#    0.000    0.000    0.000    0.000    0.000    0.000 
#
# Total GULP energy -534461.177447 kJ/mol
# GULP energy per Si atom -5567.303932 kJ/mol
# Density = 1.787605 g / cm^3
# Si number density = 17.916833 Si / 1000 Ang^3
#
#
#
# Elastic Constant Matrix: (Units=GPa)
#
#
# Indices 1 2 3 4 5 6 
#
# 1 71.4243 11.9066 38.8330 0.0000 0.0000 0.0000
# 2 11.9066 71.4241 38.8330 0.0000 0.0000 0.0000
# 3 38.8330 38.8330 79.2941 0.0000 0.0000 0.0000
# 4 0.0000 0.0000 0.0000 25.2749 0.0000 0.0000
# 5 0.0000 0.0000 0.0000 0.0000 25.2748 0.0000
# 6 0.0000 0.0000 0.0000 0.0000 0.0000 24.6278
#
#
#
# Elastic Compliance Matrix: (Units=1/GPa)
#
#
# Indices 1 2 3 4 5 6 
#
# 1 0.019440 0.002638 -0.010812 0.000000 0.000000 0.000000
# 2 0.002638 0.019440 -0.010812 0.000000 0.000000 0.000000
# 3 -0.010812 -0.010812 0.023201 0.000000 0.000000 0.000000
# 4 0.000000 0.000000 0.000000 0.039565 0.000000 0.000000
# 5 0.000000 0.000000 0.000000 0.000000 0.039565 0.000000
# 6 0.000000 0.000000 0.000000 0.000000 0.000000 0.040605
#
#
# Mechanical properties :
#
#
# Convention : Reuss Voigt Hill
#
# Bulk Modulus (GPa) = 41.48009 44.58752 43.03381
# Shear Modulus (GPa) = 21.94679 23.87348 22.91014
#
# Velocity S-wave (km/s) = 3.50369 3.65425 3.57976
# Velocity P-wave (km/s) = 6.29043 6.53793 6.41538
#
# Compressibility (1/GPa) = 0.02410795
#
# Stress axis : x y z
#
# Youngs Moduli (GPa) = 51.44151 51.44129 43.10094
#
# Poissons Ratio (x) = -0.13569 0.46601
# Poissons Ratio (y) = -0.13569 0.46601
# Poissons Ratio (z) = 0.55619 0.55619
#
# Static dielectric constant tensor:
#      x y z
#    x 1.639550 0.000000 0.000000 
#    y 0.000000 1.639550 0.000000 
#    z 0.000000 0.000000 1.634390 
# 
# From -- ./inp_files/6361.got.cif
#   From: 2010.05.17/outbox.cif.g08.bks.cpg/sg127_4_cif.got.tgz:6361.got - 2010.05.20 12:03:00.
