data_PCOD9564274
_publ_section_title
;
Structure prediction by ZEFSAII (Michael W. Deem and Ramdas Pophale) SiO2 
 PCOD9564274
Probable space group: P 4/M B M
;
_chemical_formula_sum "Si O2"
_cell_formula_units_Z 64
_cell_length_a 14.477324
_cell_length_b 14.477324
_cell_length_c 13.161806
_cell_angle_alpha 90.000000
_cell_angle_beta 90.000000
_cell_angle_gamma 90.000000
_cell_volume 2758.621223
_symmetry_space_group_name_H-M "P 4/M B M"
_symmetry_group_IT_number 127
_symmetry_cell_setting 'tetragonal'
loop_
_space_group_symop_operation_xyz
x,y,z
-y,x,z
-x,-y,z
y,-x,z
1/2+x,1/2-y,-z
1/2-x,1/2+y,-z
1/2+y,1/2+x,-z
1/2-y,1/2-x,-z
-x,-y,-z
y,-x,-z
x,y,-z
-y,x,-z
1/2-x,1/2+y,z
1/2+x,1/2-y,z
1/2-y,1/2-x,z
1/2+y,1/2+x,z
loop_
_atom_site_type_symbol
_atom_site_label
_atom_site_fract_x
_atom_site_fract_y
_atom_site_fract_z
Si Si1 0.365898 0.706469 0.889636
Si Si2 0.514036 0.219364 0.389679
Si Si3 0.313907 0.661792 0.326567
Si Si4 0.853753 0.494064 0.167533
O O1 0.287547 0.787547 0.885594
O O2 0.346227 0.647128 0.789758
O O3 0.463573 0.760033 0.876834
O O4 0.360776 0.661587 0.000000
O O5 0.509032 0.173673 0.500000
O O6 0.433603 0.295653 0.381439
O O7 0.610702 0.271748 0.376395
O O8 0.499669 0.157526 0.289726
O O9 0.218259 0.718259 0.326665
O O10 0.893553 0.393553 0.138642
O O11 0.932247 0.567754 0.137613
#
# Coordination Sequence:
#
# PCOD9564274 Si02
#       4
#    16  16  16  16
#     4   8  15  31  54  76 104 143 178 216 272 330
#     4  11  22  36  56  78 107 151 193 231 280 330
#     4  10  22  39  57  82 114 144 186 239 282 333
#     4   9  18  31  49  80 116 144 181 233 284 342
#
# _framework density 23.199995000000001
#
# number of rings (size 3 to 8) (size 9 to 14) (size 15 to 20)
#    0.000    2.500    0.000    3.750    0.000    6.000 
#    0.000   10.000    0.000    6.000    0.000    7.000 
#    0.000    0.000    0.000    0.000    0.000    0.000 
#
# Total GULP energy -357532.028706 kJ/mol
# GULP energy per Si atom -5586.437949 kJ/mol
# Density = 2.314719 g / cm^3
# Si number density = 23.199995 Si / 1000 Ang^3
#
#
#
# Elastic Constant Matrix: (Units=GPa)
#
#
# Indices 1 2 3 4 5 6 
#
# 1 309.5560 -235.2782 -1.0436 0.0000 0.0000 0.0000
# 2 -235.2782 309.5560 -1.0436 0.0000 0.0000 0.0000
# 3 -1.0436 -1.0436 144.1245 0.0000 0.0000 0.0000
# 4 0.0000 0.0000 0.0000 -102.4681 0.0000 0.0000
# 5 0.0000 0.0000 0.0000 0.0000 -102.4681 0.0000
# 6 0.0000 0.0000 0.0000 0.0000 0.0000 26.7234
#
#
#
# Elastic Compliance Matrix: (Units=1/GPa)
#
#
# Indices 1 2 3 4 5 6 
#
# 1 0.007651 0.005815 0.000098 0.000000 0.000000 0.000000
# 2 0.005815 0.007651 0.000098 0.000000 0.000000 0.000000
# 3 0.000098 0.000098 0.006940 0.000000 0.000000 0.000000
# 4 0.000000 0.000000 0.000000 -0.009759 0.000000 0.000000
# 5 0.000000 0.000000 0.000000 0.000000 -0.009759 0.000000
# 6 0.000000 0.000000 0.000000 0.000000 0.000000 0.037420
#
#
# Mechanical properties :
#
#
# Convention : Reuss Voigt Hill
#
# Bulk Modulus (GPa) = 29.18744 32.05618 30.62181
# Shear Modulus (GPa) = 126.44392 31.06423 78.75408
#
# Velocity S-wave (km/s) = 7.39054 3.66317 5.83262
# Velocity P-wave (km/s) = 9.24309 5.63375 7.65421
#
# Compressibility (1/GPa) = 0.03426132
#
# Stress axis : x y z
#
# Youngs Moduli (GPa) = 130.70922 130.70922 144.09514
#
# Poissons Ratio (x) = -0.76009 -0.01405
# Poissons Ratio (y) = -0.76009 -0.01405
# Poissons Ratio (z) = -0.01274 -0.01274
#
# Static dielectric constant tensor:
#      x y z
#    x 1.848300 0.000000 0.000000 
#    y 0.000000 1.848300 0.000000 
#    z 0.000000 0.000000 1.887440 
# 
# From -- ./inp_files/4078.got.cif
#   From: 2010.05.17/outbox.cif.g08.bks.cpg/sg127_3_cif.got.tgz:4078.got - 2010.05.20 12:03:00.
