data_PCOD9564537
_publ_section_title
;
Structure prediction by ZEFSAII (Michael W. Deem and Ramdas Pophale) SiO2 
 PCOD9564537
Probable space group: P 4/M N C
;
_chemical_formula_sum "Si O2"
_cell_formula_units_Z 120
_cell_length_a 13.762501
_cell_length_b 13.762501
_cell_length_c 30.011133
_cell_angle_alpha 90.000000
_cell_angle_beta 90.000000
_cell_angle_gamma 90.000000
_cell_volume 5684.301675
_symmetry_space_group_name_H-M "P 4/M N C"
_symmetry_group_IT_number 128
_symmetry_cell_setting 'tetragonal'
loop_
_space_group_symop_operation_xyz
x,y,z
-y,x,z
-x,-y,z
y,-x,z
1/2+x,1/2-y,1/2-z
1/2-x,1/2+y,1/2-z
1/2+y,1/2+x,1/2-z
1/2-y,1/2-x,1/2-z
-x,-y,-z
y,-x,-z
x,y,-z
-y,x,-z
1/2-x,1/2+y,1/2+z
1/2+x,1/2-y,1/2+z
1/2-y,1/2-x,1/2+z
1/2+y,1/2+x,1/2+z
loop_
_atom_site_type_symbol
_atom_site_label
_atom_site_fract_x
_atom_site_fract_y
_atom_site_fract_z
Si Si1 0.481083 0.663482 0.402772
Si Si2 0.169555 0.188657 0.420836
Si Si3 0.610285 0.612068 0.175463
Si Si4 0.656501 0.224590 0.353276
Si Si5 0.178000 0.698646 0.298896
Si Si6 0.514137 0.335849 0.500000
Si Si7 0.497880 0.886381 0.854511
Si Si8 0.984081 0.300064 0.548656
O O1 0.396820 0.580668 0.399641
O O2 0.451594 0.739658 0.364984
O O3 0.480590 0.713379 0.451812
O O4 0.133740 0.132741 0.376247
O O5 0.224428 0.281344 0.399529
O O6 0.238987 0.115483 0.446598
O O7 0.075707 0.226536 0.446887
O O8 0.498325 0.631557 0.183886
O O9 0.667475 0.685275 0.205880
O O10 0.715372 0.299599 0.321647
O O11 0.653267 0.109635 0.340606
O O12 0.159101 0.659101 0.250000
O O13 0.091503 0.663055 0.331234
O O14 0.600506 0.415541 0.500000
O O15 0.507478 0.866335 0.907478
O O16 0.500000 0.000000 0.844958
O O17 0.987461 0.347627 0.500000
#
# Coordination Sequence:
#
# PCOD9564537 Si02
#       8
#    16  16  16  16  16   8  16  16
#     4   9  18  34  59  88 121 163 212 272 327 376
#     4  10  18  34  55  87 123 169 214 256 318 380
#     4  10  17  34  66  91 123 164 199 255 328 393
#     4  10  22  40  66  89 125 169 211 269 327 399
#     4  11  23  44  67  93 122 163 217 271 321 399
#     4   7  12  28  52  82 117 153 207 268 317 373
#     4  11  25  46  66  92 132 179 218 265 340 402
#     4  11  21  36  59  90 131 169 221 275 321 392
#
# _framework density 21.110771
#
# number of rings (size 3 to 8) (size 9 to 14) (size 15 to 20)
#    0.000    1.933    4.000    2.800    1.867    0.800 
#   10.800    0.667    2.933    1.600    0.000    0.000 
#    0.000    0.000    0.000    0.000    0.000    0.000 
#
# Total GULP energy -668718.640009 kJ/mol
# GULP energy per Si atom -5572.655333 kJ/mol
# Density = 2.106272 g / cm^3
# Si number density = 21.110771 Si / 1000 Ang^3
#
#
#
# Elastic Constant Matrix: (Units=GPa)
#
#
# Indices 1 2 3 4 5 6 
#
# 1 -75.2844 133.7576 8.4820 0.0000 0.0000 0.0000
# 2 133.7576 -75.2844 8.4820 0.0000 0.0000 0.0000
# 3 8.4820 8.4820 72.3539 0.0000 0.0000 0.0000
# 4 0.0000 0.0000 0.0000 371.7483 0.0000 0.0000
# 5 0.0000 0.0000 0.0000 0.0000 371.7483 0.0000
# 6 0.0000 0.0000 0.0000 0.0000 0.0000 23.6794
#
#
#
# Elastic Compliance Matrix: (Units=1/GPa)
#
#
# Indices 1 2 3 4 5 6 
#
# 1 0.006460 0.011244 -0.002075 0.000000 0.000000 0.000000
# 2 0.011244 0.006460 -0.002075 0.000000 0.000000 0.000000
# 3 -0.002075 -0.002075 0.014308 0.000000 0.000000 0.000000
# 4 0.000000 0.000000 0.000000 0.002690 0.000000 0.000000
# 5 0.000000 0.000000 0.000000 0.000000 0.002690 0.000000
# 6 0.000000 0.000000 0.000000 0.000000 0.000000 0.042231
#
#
# Mechanical properties :
#
#
# Convention : Reuss Voigt Hill
#
# Bulk Modulus (GPa) = 24.14655 24.80315 24.47485
# Shear Modulus (GPa) = 67.15260 138.17276 102.66268
#
# Velocity S-wave (km/s) = 5.64612 8.09898 6.98112
# Velocity P-wave (km/s) = 7.34628 9.96155 8.75215
#
# Compressibility (1/GPa) = 0.04141379
#
# Stress axis : x y z
#
# Youngs Moduli (GPa) = 154.79573 154.79573 69.89308
#
# Poissons Ratio (x) = -1.74050 0.14506
# Poissons Ratio (y) = -1.74050 0.14506
# Poissons Ratio (z) = 0.32127 0.32127
#
# Static dielectric constant tensor:
#      x y z
#    x 1.789270 0.000000 0.000000 
#    y 0.000000 1.789270 0.000000 
#    z 0.000000 0.000000 1.802950 
# 
# From -- ./inp_files/7413.got.cif
#   From: 2010.05.17/outbox.cif.g08.bks.cpg/sg128_4_cif.got.tgz:7413.got - 2010.05.20 12:07:25.
