data_PCOD9564791
_publ_section_title
;
Structure prediction by ZEFSAII (Michael W. Deem and Ramdas Pophale) SiO2 
 PCOD9564791
Probable space group: P 4/M N C
;
_chemical_formula_sum "Si O2"
_cell_formula_units_Z 84
_cell_length_a 13.002748
_cell_length_b 13.002748
_cell_length_c 26.692374
_cell_angle_alpha 90.000000
_cell_angle_beta 90.000000
_cell_angle_gamma 90.000000
_cell_volume 4512.918524
_symmetry_space_group_name_H-M "P 4/M N C"
_symmetry_group_IT_number 128
_symmetry_cell_setting 'tetragonal'
loop_
_space_group_symop_operation_xyz
x,y,z
-y,x,z
-x,-y,z
y,-x,z
1/2+x,1/2-y,1/2-z
1/2-x,1/2+y,1/2-z
1/2+y,1/2+x,1/2-z
1/2-y,1/2-x,1/2-z
-x,-y,-z
y,-x,-z
x,y,-z
-y,x,-z
1/2-x,1/2+y,1/2+z
1/2+x,1/2-y,1/2+z
1/2-y,1/2-x,1/2+z
1/2+y,1/2+x,1/2+z
loop_
_atom_site_type_symbol
_atom_site_label
_atom_site_fract_x
_atom_site_fract_y
_atom_site_fract_z
Si Si1 0.300402 0.102929 0.704000
Si Si2 0.395353 0.713270 0.174523
Si Si3 0.200988 0.614235 0.000000
Si Si4 0.109578 0.701673 0.103417
Si Si5 0.867456 0.719268 0.101512
Si Si6 0.629513 0.214625 0.000000
Si Si7 0.000000 0.000000 0.640950
O O1 0.373060 0.126941 0.750000
O O2 0.196668 0.170156 0.708024
O O3 0.348126 0.134088 0.650048
O O4 0.263664 0.986646 0.705031
O O5 0.349915 0.800922 0.139123
O O6 0.441989 0.614591 0.144756
O O7 0.139711 0.647406 0.949496
O O8 0.308508 0.677389 0.000000
O O9 0.223160 0.493069 0.000000
O O10 0.170511 0.810271 0.103276
O O11 0.988643 0.719111 0.110261
O O12 0.846891 0.668754 0.047869
#
# Coordination Sequence:
#
# PCOD9564791 Si02
#       7
#    16  16   8  16  16   8   4
#     4  10  21  36  56  83 113 148 186 230 280 333
#     4   9  19  36  57  80 111 146 186 227 274 336
#     4  10  21  38  58  84 114 149 188 231 279 332
#     4  10  22  38  57  82 112 146 188 232 281 333
#     4  10  21  38  57  82 112 145 188 233 278 334
#     4  10  21  36  56  82 114 146 182 229 279 333
#     4   8  16  36  60  77 104 152 184 217 276 332
#
# _framework density 18.613233000000001
#
# number of rings (size 3 to 8) (size 9 to 14) (size 15 to 20)
#    0.000    2.286    0.000    1.714    0.000    8.952 
#    0.000    0.952    0.000    8.000    0.000    0.000 
#    0.000    0.000    0.000    0.000    0.000    0.000 
#
# Total GULP energy -467635.666809 kJ/mol
# GULP energy per Si atom -5567.091272 kJ/mol
# Density = 1.857087 g / cm^3
# Si number density = 18.613233 Si / 1000 Ang^3
#
#
#
# Elastic Constant Matrix: (Units=GPa)
#
#
# Indices 1 2 3 4 5 6 
#
# 1 144.1368 34.9847 21.4582 0.0000 0.0000 0.0000
# 2 34.9847 144.1356 21.4577 0.0000 0.0000 0.0000
# 3 21.4582 21.4577 64.3904 0.0000 0.0000 0.0000
# 4 0.0000 0.0000 0.0000 14.0500 0.0000 0.0000
# 5 0.0000 0.0000 0.0000 0.0000 14.0502 0.0000
# 6 0.0000 0.0000 0.0000 0.0000 0.0000 5.1098
#
#
#
# Elastic Compliance Matrix: (Units=1/GPa)
#
#
# Indices 1 2 3 4 5 6 
#
# 1 0.007614 -0.001547 -0.002022 0.000000 0.000000 0.000000
# 2 -0.001547 0.007614 -0.002022 0.000000 0.000000 0.000000
# 3 -0.002022 -0.002022 0.016878 0.000000 0.000000 0.000000
# 4 0.000000 0.000000 0.000000 0.071174 0.000000 0.000000
# 5 0.000000 0.000000 0.000000 0.000000 0.071173 0.000000
# 6 0.000000 0.000000 0.000000 0.000000 0.000000 0.195701
#
#
# Mechanical properties :
#
#
# Convention : Reuss Voigt Hill
#
# Bulk Modulus (GPa) = 47.79028 56.49602 52.14315
# Shear Modulus (GPa) = 12.87625 24.95950 18.91787
#
# Velocity S-wave (km/s) = 2.63302 3.66588 3.19151
# Velocity P-wave (km/s) = 5.91396 6.95246 6.45413
#
# Compressibility (1/GPa) = 0.02092476
#
# Stress axis : x y z
#
# Youngs Moduli (GPa) = 131.33032 131.32944 59.24925
#
# Poissons Ratio (x) = 0.20319 0.11980
# Poissons Ratio (y) = 0.20319 0.11979
# Poissons Ratio (z) = 0.26554 0.26553
#
# Static dielectric constant tensor:
#      x y z
#    x 1.640650 0.000000 0.000000 
#    y 0.000000 1.640650 0.000000 
#    z 0.000000 0.000000 1.658920 
# 
# From -- ./inp_files/7298.got.cif
#   From: 2010.05.17/outbox.cif.g08.bks.cpg/sg128_4_cif.got.tgz:7298.got - 2010.05.20 12:07:25.
