data_PCOD9564256
_publ_section_title
;
Structure prediction by ZEFSAII (Michael W. Deem and Ramdas Pophale) SiO2 
 PCOD9564256
Probable space group: P 4/M B M
;
_chemical_formula_sum "Si O2"
_cell_formula_units_Z 72
_cell_length_a 14.650749
_cell_length_b 14.650749
_cell_length_c 19.085456
_cell_angle_alpha 90.000000
_cell_angle_beta 90.000000
_cell_angle_gamma 90.000000
_cell_volume 4096.587135
_symmetry_space_group_name_H-M "P 4/M B M"
_symmetry_group_IT_number 127
_symmetry_cell_setting 'tetragonal'
loop_
_space_group_symop_operation_xyz
x,y,z
-y,x,z
-x,-y,z
y,-x,z
1/2+x,1/2-y,-z
1/2-x,1/2+y,-z
1/2+y,1/2+x,-z
1/2-y,1/2-x,-z
-x,-y,-z
y,-x,-z
x,y,-z
-y,x,-z
1/2-x,1/2+y,z
1/2+x,1/2-y,z
1/2-y,1/2-x,z
1/2+y,1/2+x,z
loop_
_atom_site_type_symbol
_atom_site_label
_atom_site_fract_x
_atom_site_fract_y
_atom_site_fract_z
Si Si1 0.248046 0.748046 0.856495
Si Si2 0.102473 0.602473 0.916284
Si Si3 0.574259 0.074259 0.708164
Si Si4 0.893691 0.606310 0.132860
Si Si5 0.997749 0.154280 0.500000
Si Si6 0.683498 0.674203 0.281009
Si Si7 0.497012 0.255938 0.650474
O O1 0.178423 0.678423 0.894578
O O2 0.318849 0.818849 0.893555
O O3 0.188080 0.809648 0.802306
O O4 0.125215 0.499332 0.888913
O O5 0.098024 0.598024 0.000000
O O6 0.611548 0.111548 0.782499
O O7 0.526629 0.152849 0.663886
O O8 0.500000 0.000000 0.729568
O O9 0.996903 0.213840 0.429830
O O10 0.910710 0.086728 0.500000
O O11 0.774882 0.725119 0.308504
O O12 0.599420 0.726312 0.314238
O O13 0.684301 0.571579 0.307351
#
# Coordination Sequence:
#
# PCOD9564256 Si02
#       7
#     8   8   8   8   8  16  16
#     4  10  22  37  63  94 125 157 198 254 308 348
#     4  11  24  39  65  98 126 165 202 241 296 371
#     4  12  22  39  65  90 123 153 195 263 313 350
#     4  11  20  40  66  94 123 164 207 247 301 364
#     4  11  24  39  56  81 117 164 204 249 313 374
#     4  10  22  36  60  91 116 150 208 249 306 350
#     4  12  21  40  59  88 118 158 204 259 306 368
#
# _framework density 17.575607000000002
#
# number of rings (size 3 to 8) (size 9 to 14) (size 15 to 20)
#    0.667    0.333    6.667    2.667    0.000    1.778 
#    0.000    3.889    0.000    0.667    0.000    1.556 
#    0.000    0.000    0.000    0.000    0.000    0.000 
#
# Total GULP energy -401332.120133 kJ/mol
# GULP energy per Si atom -5574.057224 kJ/mol
# Density = 1.753560 g / cm^3
# Si number density = 17.575607 Si / 1000 Ang^3
#
#
#
# Elastic Constant Matrix: (Units=GPa)
#
#
# Indices 1 2 3 4 5 6 
#
# 1 99.8090 34.4439 38.2478 0.0000 0.0000 0.0000
# 2 34.4439 99.8090 38.2478 0.0000 0.0000 0.0000
# 3 38.2478 38.2478 90.9905 0.0000 0.0000 0.0000
# 4 0.0000 0.0000 0.0000 29.8451 0.0000 0.0000
# 5 0.0000 0.0000 0.0000 0.0000 29.8451 0.0000
# 6 0.0000 0.0000 0.0000 0.0000 0.0000 40.3589
#
#
#
# Elastic Compliance Matrix: (Units=1/GPa)
#
#
# Indices 1 2 3 4 5 6 
#
# 1 0.012547 -0.002752 -0.004117 0.000000 0.000000 0.000000
# 2 -0.002752 0.012547 -0.004117 0.000000 0.000000 0.000000
# 3 -0.004117 -0.004117 0.014451 0.000000 0.000000 0.000000
# 4 0.000000 0.000000 0.000000 0.033506 0.000000 0.000000
# 5 0.000000 0.000000 0.000000 0.000000 0.033506 0.000000
# 6 0.000000 0.000000 0.000000 0.000000 0.000000 0.024778
#
#
# Mechanical properties :
#
#
# Convention : Reuss Voigt Hill
#
# Bulk Modulus (GPa) = 56.90880 56.94304 56.92592
# Shear Modulus (GPa) = 31.41397 31.98776 31.70087
#
# Velocity S-wave (km/s) = 4.23231 4.27078 4.25159
# Velocity P-wave (km/s) = 7.50553 7.53583 7.52069
#
# Compressibility (1/GPa) = 0.01757197
#
# Stress axis : x y z
#
# Youngs Moduli (GPa) = 79.70289 79.70289 69.19738
#
# Poissons Ratio (x) = 0.21935 0.28489
# Poissons Ratio (y) = 0.21935 0.28489
# Poissons Ratio (z) = 0.32815 0.32815
#
# Static dielectric constant tensor:
#      x y z
#    x 1.648600 0.000000 0.000000 
#    y 0.000000 1.648600 0.000000 
#    z 0.000000 0.000000 1.568040 
# 
# From -- ./inp_files/5014.got.cif
#   From: 2010.05.17/outbox.cif.g08.bks.cpg/sg127_3_cif.got.tgz:5014.got - 2010.05.20 12:03:00.
