data_PCOD9564426
_publ_section_title
;
Structure prediction by ZEFSAII (Michael W. Deem and Ramdas Pophale) SiO2 
 PCOD9564426
Probable space group: P 4/M B M
;
_chemical_formula_sum "Si O2"
_cell_formula_units_Z 60
_cell_length_a 11.474280
_cell_length_b 11.474280
_cell_length_c 22.091585
_cell_angle_alpha 90.000000
_cell_angle_beta 90.000000
_cell_angle_gamma 90.000000
_cell_volume 2908.558232
_symmetry_space_group_name_H-M "P 4/M B M"
_symmetry_group_IT_number 127
_symmetry_cell_setting 'tetragonal'
loop_
_space_group_symop_operation_xyz
x,y,z
-y,x,z
-x,-y,z
y,-x,z
1/2+x,1/2-y,-z
1/2-x,1/2+y,-z
1/2+y,1/2+x,-z
1/2-y,1/2-x,-z
-x,-y,-z
y,-x,-z
x,y,-z
-y,x,-z
1/2-x,1/2+y,z
1/2+x,1/2-y,z
1/2-y,1/2-x,z
1/2+y,1/2+x,z
loop_
_atom_site_type_symbol
_atom_site_label
_atom_site_fract_x
_atom_site_fract_y
_atom_site_fract_z
Si Si1 0.192562 0.502247 0.784940
Si Si2 0.382579 0.882579 0.000000
Si Si3 0.808484 0.968893 0.344586
Si Si4 0.901365 0.401365 0.430351
Si Si5 0.690111 0.524978 0.089820
O O1 0.108069 0.391932 0.774296
O O2 0.254944 0.535078 0.722675
O O3 0.280203 0.474279 0.839117
O O4 0.109511 0.609511 0.804036
O O5 0.306307 0.951431 0.947628
O O6 0.709295 0.948643 0.393767
O O7 0.906877 0.870786 0.351312
O O8 0.873389 0.373389 0.500000
O O9 0.000000 0.500000 0.429378
O O10 0.597053 0.626814 0.075466
#
# Coordination Sequence:
#
# PCOD9564426 Si02
#       5
#    16   4  16   8  16
#     4  11  23  41  69 107 138 173 229 291 350 413
#     4  12  24  46  67  91 128 176 216 274 338 405
#     4  11  25  44  72 107 142 186 238 294 355 422
#     4  11  26  46  71 104 146 192 237 289 349 420
#     4  11  25  45  68  98 131 175 228 278 343 416
#
# _framework density 20.628775999999998
#
# number of rings (size 3 to 8) (size 9 to 14) (size 15 to 20)
#    0.000    0.933    2.667    3.200    5.600    6.400 
#    0.000    2.000    0.000    0.000    0.000    0.000 
#    0.000    0.000    0.000    0.000    0.000    0.000 
#
# Total GULP energy -334847.769616 kJ/mol
# GULP energy per Si atom -5580.796160 kJ/mol
# Density = 2.058182 g / cm^3
# Si number density = 20.628776 Si / 1000 Ang^3
#
#
#
# Elastic Constant Matrix: (Units=GPa)
#
#
# Indices 1 2 3 4 5 6 
#
# 1 65.5149 51.5313 40.5890 0.0000 0.0000 0.0000
# 2 51.5313 65.5149 40.5890 0.0000 0.0000 0.0000
# 3 40.5890 40.5890 170.4103 0.0000 0.0000 0.0000
# 4 0.0000 0.0000 0.0000 81.4166 0.0000 0.0000
# 5 0.0000 0.0000 0.0000 0.0000 81.4166 0.0000
# 6 0.0000 0.0000 0.0000 0.0000 0.0000 8.4643
#
#
#
# Elastic Compliance Matrix: (Units=1/GPa)
#
#
# Indices 1 2 3 4 5 6 
#
# 1 0.040873 -0.030639 -0.002438 0.000000 0.000000 0.000000
# 2 -0.030639 0.040873 -0.002438 0.000000 0.000000 0.000000
# 3 -0.002438 -0.002438 0.007029 0.000000 0.000000 0.000000
# 4 0.000000 0.000000 0.000000 0.012283 0.000000 0.000000
# 5 0.000000 0.000000 0.000000 0.000000 0.012283 0.000000
# 6 0.000000 0.000000 0.000000 0.000000 0.000000 0.118143
#
#
# Mechanical properties :
#
#
# Convention : Reuss Voigt Hill
#
# Bulk Modulus (GPa) = 56.34631 62.98431 59.66531
# Shear Modulus (GPa) = 16.21122 45.50823 30.85972
#
# Velocity S-wave (km/s) = 2.80635 4.70196 3.87195
# Velocity P-wave (km/s) = 6.15423 7.75090 6.99825
#
# Compressibility (1/GPa) = 0.01774739
#
# Stress axis : x y z
#
# Youngs Moduli (GPa) = 24.46592 24.46592 142.25954
#
# Poissons Ratio (x) = 0.74961 0.34678
# Poissons Ratio (y) = 0.74961 0.34678
# Poissons Ratio (z) = 0.05964 0.05964
#
# Static dielectric constant tensor:
#      x y z
#    x 1.734960 0.000000 0.000000 
#    y 0.000000 1.734960 0.000000 
#    z 0.000000 0.000000 1.698500 
# 
# From -- ./inp_files/5538.got.cif
#   From: 2010.05.17/outbox.cif.g08.bks.cpg/sg127_3_cif.got.tgz:5538.got - 2010.05.20 12:03:00.
