data_PCOD9564513
_publ_section_title
;
Structure prediction by ZEFSAII (Michael W. Deem and Ramdas Pophale) SiO2 
 PCOD9564513
Probable space group: P 4/M B M
;
_chemical_formula_sum "Si O2"
_cell_formula_units_Z 96
_cell_length_a 15.000000
_cell_length_b 15.000000
_cell_length_c 24.000000
_cell_angle_alpha 90.000000
_cell_angle_beta 90.000000
_cell_angle_gamma 90.000000
_cell_volume 5400.000000
_symmetry_space_group_name_H-M "P 4/M B M"
_symmetry_group_IT_number 127
_symmetry_cell_setting 'tetragonal'
loop_
_space_group_symop_operation_xyz
x,y,z
-y,x,z
-x,-y,z
y,-x,z
1/2+x,1/2-y,-z
1/2-x,1/2+y,-z
1/2+y,1/2+x,-z
1/2-y,1/2-x,-z
-x,-y,-z
y,-x,-z
x,y,-z
-y,x,-z
1/2-x,1/2+y,z
1/2+x,1/2-y,z
1/2-y,1/2-x,z
1/2+y,1/2+x,z
loop_
_atom_site_type_symbol
_atom_site_label
_atom_site_fract_x
_atom_site_fract_y
_atom_site_fract_z
Si Si1 0.365719 0.567806 0.500000
Si Si2 0.643825 0.003969 0.319977
Si Si3 0.226914 0.123241 0.386672
Si Si4 0.737306 0.094587 0.785838
Si Si5 0.897933 0.890649 0.286679
Si Si6 0.012442 0.151070 0.121726
Si Si7 0.150121 0.988325 0.000000
O O1 0.384984 0.462247 0.500000
O O2 0.311041 0.596227 0.554073
O O3 0.585284 0.085284 0.344955
O O4 0.690932 0.042464 0.265168
O O5 0.573254 0.926747 0.304627
O O6 0.714210 0.957237 0.360661
O O7 0.290680 0.209321 0.388604
O O8 0.143476 0.137697 0.345372
O O9 0.667348 0.167348 0.807187
O O10 0.824470 0.142013 0.758993
O O11 0.774990 0.028663 0.832200
O O12 0.004430 0.880741 0.280915
O O13 0.015314 0.194410 0.060181
O O14 0.922604 0.092116 0.126964
O O15 0.078057 0.908755 0.000000
#
# Coordination Sequence:
#
# PCOD9564513 Si02
#       7
#     8  16  16  16  16  16   8
#     4  11  25  44  60  81 113 147 176 209 264 331
#     4   9  20  39  59  78 107 145 182 221 268 318
#     4  11  22  40  62  84 107 138 182 224 265 314
#     4  11  21  33  50  79 110 140 183 225 266 318
#     4  11  21  35  53  77 109 144 173 210 271 326
#     4   9  17  31  50  75 104 138 178 223 272 325
#     4   7  12  26  49  70  96 137 181 217 262 323
#
# _framework density 17.777778000000001
#
# number of rings (size 3 to 8) (size 9 to 14) (size 15 to 20)
#    0.000    2.000    1.667    3.750    0.000    2.667 
#    0.000    1.667    0.000    2.000    0.000    1.750 
#    0.000    2.667    0.000    0.000    0.000    0.000 
#
# Total GULP energy -535163.106653 kJ/mol
# GULP energy per Si atom -5574.615694 kJ/mol
# Density = 1.773731 g / cm^3
# Si number density = 17.777778 Si / 1000 Ang^3
#
#
#
# Elastic Constant Matrix: (Units=GPa)
#
#
# Indices 1 2 3 4 5 6 
#
# 1 42.3387 -3.5977 -2.4251 0.0000 0.0000 0.0000
# 2 -3.5977 42.3387 -2.4251 0.0000 0.0000 0.0000
# 3 -2.4251 -2.4251 71.8828 0.0000 0.0000 0.0000
# 4 0.0000 0.0000 0.0000 -3.5289 0.0000 0.0000
# 5 0.0000 0.0000 0.0000 0.0000 -3.5289 0.0000
# 6 0.0000 0.0000 0.0000 0.0000 0.0000 18.3985
#
#
#
# Elastic Compliance Matrix: (Units=1/GPa)
#
#
# Indices 1 2 3 4 5 6 
#
# 1 0.023846 0.002076 0.000875 0.000000 0.000000 0.000000
# 2 0.002076 0.023846 0.000875 0.000000 0.000000 0.000000
# 3 0.000875 0.000875 0.013971 0.000000 0.000000 0.000000
# 4 0.000000 0.000000 0.000000 -0.283378 0.000000 0.000000
# 5 0.000000 0.000000 0.000000 0.000000 -0.283378 0.000000
# 6 0.000000 0.000000 0.000000 0.000000 0.000000 0.054352
#
#
# Mechanical properties :
#
#
# Convention : Reuss Voigt Hill
#
# Bulk Modulus (GPa) = 14.42742 15.51827 14.97284
# Shear Modulus (GPa) = -11.48661 13.26870 0.89105
#
# Velocity S-wave (km/s) = -2.54465 2.73493 0.70873
# Velocity P-wave (km/s) = 0.70754 4.32679 3.01832
#
# Compressibility (1/GPa) = 0.06931247
#
# Stress axis : x y z
#
# Youngs Moduli (GPa) = 41.93652 41.93652 71.57919
#
# Poissons Ratio (x) = -0.08707 -0.06260
# Poissons Ratio (y) = -0.08707 -0.06260
# Poissons Ratio (z) = -0.03667 -0.03667
#
# Static dielectric constant tensor:
#      x y z
#    x 1.616850 0.000000 0.000000 
#    y 0.000000 1.616850 0.000000 
#    z 0.000000 0.000000 1.634390 
# 
# From -- ./inp_files/5814.got.cif
#   From: 2010.05.17/outbox.ucp.g08.bks.cvg/sg127_3_cif.got.tgz:5814.got - 2010.06.11 11:37:05.
