data_PCOD9564161
_publ_section_title
;
Structure prediction by ZEFSAII (Michael W. Deem and Ramdas Pophale) SiO2 
 PCOD9564161
Probable space group: P 4/M B M
;
_chemical_formula_sum "Si O2"
_cell_formula_units_Z 88
_cell_length_a 15.258157
_cell_length_b 15.258157
_cell_length_c 22.308179
_cell_angle_alpha 90.000000
_cell_angle_beta 90.000000
_cell_angle_gamma 90.000000
_cell_volume 5193.597381
_symmetry_space_group_name_H-M "P 4/M B M"
_symmetry_group_IT_number 127
_symmetry_cell_setting 'tetragonal'
loop_
_space_group_symop_operation_xyz
x,y,z
-y,x,z
-x,-y,z
y,-x,z
1/2+x,1/2-y,-z
1/2-x,1/2+y,-z
1/2+y,1/2+x,-z
1/2-y,1/2-x,-z
-x,-y,-z
y,-x,-z
x,y,-z
-y,x,-z
1/2-x,1/2+y,z
1/2+x,1/2-y,z
1/2-y,1/2-x,z
1/2+y,1/2+x,z
loop_
_atom_site_type_symbol
_atom_site_label
_atom_site_fract_x
_atom_site_fract_y
_atom_site_fract_z
Si Si1 0.976144 0.268380 0.844901
Si Si2 0.493029 0.142897 0.715549
Si Si3 0.276370 0.371811 0.678752
Si Si4 0.599240 0.390502 0.434012
Si Si5 0.573818 0.926183 0.929150
Si Si6 0.690575 0.659620 0.814939
O O1 0.957625 0.337178 0.897296
O O2 0.898731 0.197652 0.841246
O O3 0.973594 0.321643 0.781964
O O4 0.071651 0.224579 0.846608
O O5 0.569340 0.069340 0.720487
O O6 0.536222 0.222567 0.679106
O O7 0.406746 0.093255 0.691795
O O8 0.204480 0.295521 0.675373
O O9 0.340681 0.364238 0.623192
O O10 0.320634 0.362764 0.744146
O O11 0.618404 0.493801 0.431267
O O12 0.628164 0.358107 0.500000
O O13 0.500000 0.000000 0.918751
O O14 0.585390 0.914611 0.000000
O O15 0.765721 0.734280 0.818882
#
# Coordination Sequence:
#
# PCOD9564161 Si02
#       6
#    16  16  16  16   8  16
#     4  11  20  36  57  79 123 151 179 238 287 333
#     4   9  16  29  51  75 101 143 176 217 281 328
#     4   9  19  31  48  78 106 130 176 224 272 338
#     4   9  19  35  51  66  94 138 180 218 263 322
#     4  11  22  38  64  92 110 151 214 244 266 326
#     4  10  21  35  54  87 118 152 186 230 295 350
#
# _framework density 16.943940000000001
#
# number of rings (size 3 to 8) (size 9 to 14) (size 15 to 20)
#    0.000    2.273    1.818    3.273    5.091    0.727 
#    0.000    0.909    0.000    1.636    0.000    3.818 
#    0.000    0.000    0.000    0.000    0.000    0.000 
#
# Total GULP energy -490766.308969 kJ/mol
# GULP energy per Si atom -5576.889875 kJ/mol
# Density = 1.690537 g / cm^3
# Si number density = 16.943940 Si / 1000 Ang^3
#
#
#
# Elastic Constant Matrix: (Units=GPa)
#
#
# Indices 1 2 3 4 5 6 
#
# 1 57.7754 16.9142 34.3312 0.0000 0.0000 0.0000
# 2 16.9142 57.7755 34.3311 0.0000 0.0000 0.0000
# 3 34.3312 34.3311 81.0759 0.0000 0.0000 0.0000
# 4 0.0000 0.0000 0.0000 18.3187 0.0000 0.0000
# 5 0.0000 0.0000 0.0000 0.0000 18.3188 0.0000
# 6 0.0000 0.0000 0.0000 0.0000 0.0000 16.7855
#
#
#
# Elastic Compliance Matrix: (Units=1/GPa)
#
#
# Indices 1 2 3 4 5 6 
#
# 1 0.023198 -0.001275 -0.009283 0.000000 0.000000 0.000000
# 2 -0.001275 0.023198 -0.009283 0.000000 0.000000 0.000000
# 3 -0.009283 -0.009283 0.020196 0.000000 0.000000 0.000000
# 4 0.000000 0.000000 0.000000 0.054589 0.000000 0.000000
# 5 0.000000 0.000000 0.000000 0.000000 0.054589 0.000000
# 6 0.000000 0.000000 0.000000 0.000000 0.000000 0.059575
#
#
# Mechanical properties :
#
#
# Convention : Reuss Voigt Hill
#
# Bulk Modulus (GPa) = 37.16232 40.86445 39.01338
# Shear Modulus (GPa) = 17.60584 18.08796 17.84690
#
# Velocity S-wave (km/s) = 3.22695 3.27083 3.24897
# Velocity P-wave (km/s) = 5.98869 6.19954 6.09503
#
# Compressibility (1/GPa) = 0.02690898
#
# Stress axis : x y z
#
# Youngs Moduli (GPa) = 43.10737 43.10751 49.51522
#
# Poissons Ratio (x) = 0.05497 0.45965
# Poissons Ratio (y) = 0.05497 0.45965
# Poissons Ratio (z) = 0.40017 0.40017
#
# Static dielectric constant tensor:
#      x y z
#    x 1.581940 0.000000 0.000000 
#    y 0.000000 1.581940 0.000000 
#    z 0.000000 0.000000 1.548220 
# 
# From -- ./inp_files/5677.got.cif
#   From: 2010.05.17/outbox.cif.g08.bks.cpg/sg127_3_cif.got.tgz:5677.got - 2010.05.20 12:03:00.
