data_PCOD9564350
_publ_section_title
;
Structure prediction by ZEFSAII (Michael W. Deem and Ramdas Pophale) SiO2 
 PCOD9564350
Probable space group: P 4/M B M
;
_chemical_formula_sum "Si O2"
_cell_formula_units_Z 104
_cell_length_a 27.395952
_cell_length_b 27.395952
_cell_length_c 8.101729
_cell_angle_alpha 90.000000
_cell_angle_beta 90.000000
_cell_angle_gamma 90.000000
_cell_volume 6080.656987
_symmetry_space_group_name_H-M "P 4/M B M"
_symmetry_group_IT_number 127
_symmetry_cell_setting 'tetragonal'
loop_
_space_group_symop_operation_xyz
x,y,z
-y,x,z
-x,-y,z
y,-x,z
1/2+x,1/2-y,-z
1/2-x,1/2+y,-z
1/2+y,1/2+x,-z
1/2-y,1/2-x,-z
-x,-y,-z
y,-x,-z
x,y,-z
-y,x,-z
1/2-x,1/2+y,z
1/2+x,1/2-y,z
1/2-y,1/2-x,z
1/2+y,1/2+x,z
loop_
_atom_site_type_symbol
_atom_site_label
_atom_site_fract_x
_atom_site_fract_y
_atom_site_fract_z
Si Si1 0.078101 0.499806 0.198435
Si Si2 0.494963 0.292219 0.302137
Si Si3 0.320628 0.612034 0.192277
Si Si4 0.870104 0.077294 0.310709
Si Si5 0.934245 0.047726 0.000000
Si Si6 0.473301 0.184452 0.698344
Si Si7 0.287351 0.134625 0.300133
O O1 0.047571 0.452430 0.256054
O O2 0.134318 0.502584 0.246383
O O3 0.047318 0.547318 0.256834
O O4 0.075959 0.499982 0.000000
O O5 0.487081 0.291703 0.500000
O O6 0.446197 0.316618 0.228080
O O7 0.543674 0.323152 0.271949
O O8 0.496978 0.235802 0.245706
O O9 0.364542 0.635883 0.294713
O O10 0.267822 0.633523 0.237045
O O11 0.330662 0.619232 0.000000
O O12 0.885181 0.065838 0.500000
O O13 0.908644 0.064984 0.167977
O O14 0.989406 0.065923 0.000000
O O15 0.474018 0.184432 0.500000
O O16 0.416557 0.187709 0.751448
O O17 0.285818 0.134646 0.500000
O O18 0.320040 0.179960 0.244862
#
# Coordination Sequence:
#
# PCOD9564350 Si02
#       7
#    16  16  16  16   8  16  16
#     4   9  18  31  45  66 101 141 175 208 256 318
#     4   9  20  36  54  75 101 137 176 213 265 324
#     4  11  21  33  53  80 108 136 175 223 265 319
#     4  11  22  38  58  77 107 147 181 222 274 323
#     4  11  24  38  54  82 111 136 178 223 263 324
#     4   9  17  31  50  75 102 129 172 221 259 308
#     4   9  18  33  52  75 106 140 172 213 269 326
#
# _framework density 17.103414000000001
#
# number of rings (size 3 to 8) (size 9 to 14) (size 15 to 20)
#    0.000    2.231    0.769    4.154    1.077    5.846 
#    0.000    1.538    0.000    0.923    0.000    2.154 
#    0.000    0.000    0.000    0.000    0.000    0.000 
#
# Total GULP energy -579968.026103 kJ/mol
# GULP energy per Si atom -5576.615636 kJ/mol
# Density = 1.706449 g / cm^3
# Si number density = 17.103414 Si / 1000 Ang^3
#
#
#
# Elastic Constant Matrix: (Units=GPa)
#
#
# Indices 1 2 3 4 5 6 
#
# 1 114.1752 45.8945 23.2173 0.0000 0.0000 0.0000
# 2 45.8945 114.1752 23.2173 0.0000 0.0000 0.0000
# 3 23.2173 23.2173 44.7856 0.0000 0.0000 0.0000
# 4 0.0000 0.0000 0.0000 24.7112 0.0000 0.0000
# 5 0.0000 0.0000 0.0000 0.0000 24.7112 0.0000
# 6 0.0000 0.0000 0.0000 0.0000 0.0000 32.6808
#
#
#
# Elastic Compliance Matrix: (Units=1/GPa)
#
#
# Indices 1 2 3 4 5 6 
#
# 1 0.010999 -0.003646 -0.003812 0.000000 0.000000 0.000000
# 2 -0.003646 0.010999 -0.003812 0.000000 0.000000 0.000000
# 3 -0.003812 -0.003812 0.026281 0.000000 0.000000 0.000000
# 4 0.000000 0.000000 0.000000 0.040468 0.000000 0.000000
# 5 0.000000 0.000000 0.000000 0.000000 0.040468 0.000000
# 6 0.000000 0.000000 0.000000 0.000000 0.000000 0.030599
#
#
# Mechanical properties :
#
#
# Convention : Reuss Voigt Hill
#
# Bulk Modulus (GPa) = 38.85096 50.86601 44.85849
# Shear Modulus (GPa) = 26.18718 28.47442 27.33080
#
# Velocity S-wave (km/s) = 3.91718 4.08467 4.00180
# Velocity P-wave (km/s) = 6.57448 7.21463 6.90198
#
# Compressibility (1/GPa) = 0.02573939
#
# Stress axis : x y z
#
# Youngs Moduli (GPa) = 90.91526 90.91526 38.05054
#
# Poissons Ratio (x) = 0.33149 0.14504
# Poissons Ratio (y) = 0.33149 0.14504
# Poissons Ratio (z) = 0.34656 0.34656
#
# Static dielectric constant tensor:
#      x y z
#    x 1.578450 0.000000 0.000000 
#    y 0.000000 1.578450 0.000000 
#    z 0.000000 0.000000 1.599960 
# 
# From -- ./inp_files/2309.got.cif
#   From: 2010.05.17/outbox.cif.g08.bks.cpg/sg127_2_cif.got.tgz:2309.got - 2010.05.20 12:03:00.
