data_PCOD9564257
_publ_section_title
;
Structure prediction by ZEFSAII (Michael W. Deem and Ramdas Pophale) SiO2 
 PCOD9564257
Probable space group: P 4/M B M
;
_chemical_formula_sum "Si O2"
_cell_formula_units_Z 104
_cell_length_a 19.583011
_cell_length_b 19.583011
_cell_length_c 16.055579
_cell_angle_alpha 90.000000
_cell_angle_beta 90.000000
_cell_angle_gamma 90.000000
_cell_volume 6157.223348
_symmetry_space_group_name_H-M "P 4/M B M"
_symmetry_group_IT_number 127
_symmetry_cell_setting 'tetragonal'
loop_
_space_group_symop_operation_xyz
x,y,z
-y,x,z
-x,-y,z
y,-x,z
1/2+x,1/2-y,-z
1/2-x,1/2+y,-z
1/2+y,1/2+x,-z
1/2-y,1/2-x,-z
-x,-y,-z
y,-x,-z
x,y,-z
-y,x,-z
1/2-x,1/2+y,z
1/2+x,1/2-y,z
1/2-y,1/2-x,z
1/2+y,1/2+x,z
loop_
_atom_site_type_symbol
_atom_site_label
_atom_site_fract_x
_atom_site_fract_y
_atom_site_fract_z
Si Si1 0.951580 0.663826 0.732163
Si Si2 0.110570 0.970678 0.095616
Si Si3 0.498062 0.115206 0.906770
Si Si4 0.080025 0.831787 0.333922
Si Si5 0.932595 0.819014 0.254104
Si Si6 0.681598 0.933774 0.401549
Si Si7 0.589876 0.430134 0.500000
O O1 0.893438 0.606563 0.729531
O O2 0.989655 0.657686 0.822260
O O3 0.921490 0.740046 0.725609
O O4 0.003583 0.654873 0.654986
O O5 0.169820 0.952718 0.158492
O O6 0.046209 0.920173 0.109669
O O7 0.131173 0.965353 0.000000
O O8 0.558927 0.058927 0.907538
O O9 0.428244 0.071757 0.899283
O O10 0.498725 0.147963 0.000000
O O11 0.133409 0.867516 0.272242
O O12 0.087378 0.752361 0.356614
O O13 0.093713 0.872375 0.418398
O O14 0.001584 0.842192 0.303595
O O15 0.693655 0.951086 0.500000
O O16 0.627085 0.872916 0.399249
O O17 0.591908 0.511975 0.500000
#
# Coordination Sequence:
#
# PCOD9564257 Si02
#       7
#    16  16  16  16  16  16   8
#     4  10  22  37  54  81 111 142 183 231 283 332
#     4   9  17  30  51  79 111 144 182 220 254 304
#     4   8  14  28  53  81 105 130 165 215 271 322
#     4  11  21  34  53  78 109 137 178 223 265 325
#     4  11  21  33  54  77 109 148 180 222 271 319
#     4  10  22  39  59  79 103 141 184 228 280 337
#     4  11  20  30  51  80 104 133 168 217 273 315
#
# _framework density 16.890730000000001
#
# number of rings (size 3 to 8) (size 9 to 14) (size 15 to 20)
#    0.000    2.077    3.846    1.385    0.000    2.769 
#    0.000    0.769    0.000    0.000    0.000    0.000 
#    0.000    0.000    0.000    0.000    0.000    0.000 
#
# Total GULP energy -579277.435084 kJ/mol
# GULP energy per Si atom -5569.975337 kJ/mol
# Density = 1.685229 g / cm^3
# Si number density = 16.890730 Si / 1000 Ang^3
#
#
#
# Elastic Constant Matrix: (Units=GPa)
#
#
# Indices 1 2 3 4 5 6 
#
# 1 53.1465 30.6436 31.4901 0.0000 0.0000 0.0000
# 2 30.6436 53.1465 31.4901 0.0000 0.0000 0.0000
# 3 31.4901 31.4901 94.1348 0.0000 0.0000 0.0000
# 4 0.0000 0.0000 0.0000 16.6139 0.0000 0.0000
# 5 0.0000 0.0000 0.0000 0.0000 16.6139 0.0000
# 6 0.0000 0.0000 0.0000 0.0000 0.0000 20.7576
#
#
#
# Elastic Compliance Matrix: (Units=1/GPa)
#
#
# Indices 1 2 3 4 5 6 
#
# 1 0.030191 -0.014248 -0.005333 0.000000 0.000000 0.000000
# 2 -0.014248 0.030191 -0.005333 0.000000 0.000000 0.000000
# 3 -0.005333 -0.005333 0.014191 0.000000 0.000000 0.000000
# 4 0.000000 0.000000 0.000000 0.060191 0.000000 0.000000
# 5 0.000000 0.000000 0.000000 0.000000 0.060191 0.000000
# 6 0.000000 0.000000 0.000000 0.000000 0.000000 0.048175
#
#
# Mechanical properties :
#
#
# Convention : Reuss Voigt Hill
#
# Bulk Modulus (GPa) = 40.41299 43.07504 41.74402
# Shear Modulus (GPa) = 16.59988 17.91735 17.25861
#
# Velocity S-wave (km/s) = 3.13833 3.26050 3.20000
# Velocity P-wave (km/s) = 6.09182 6.30333 6.19848
#
# Compressibility (1/GPa) = 0.02474452
#
# Stress axis : x y z
#
# Youngs Moduli (GPa) = 33.12232 33.12232 70.46554
#
# Poissons Ratio (x) = 0.47192 0.37582
# Poissons Ratio (y) = 0.47192 0.37582
# Poissons Ratio (z) = 0.17665 0.17665
#
# Static dielectric constant tensor:
#      x y z
#    x 1.560290 0.000000 0.000000 
#    y 0.000000 1.560290 0.000000 
#    z 0.000000 0.000000 1.598090 
# 
# From -- ./inp_files/4611.got.cif
#   From: 2010.05.17/outbox.cif.g08.bks.cpg/sg127_3_cif.got.tgz:4611.got - 2010.05.20 12:03:00.
