data_PCOD9564405
_publ_section_title
;
Structure prediction by ZEFSAII (Michael W. Deem and Ramdas Pophale) SiO2 
 PCOD9564405
Probable space group: P 4/M B M
;
_chemical_formula_sum "Si O2"
_cell_formula_units_Z 72
_cell_length_a 15.273048
_cell_length_b 15.273048
_cell_length_c 19.806581
_cell_angle_alpha 90.000000
_cell_angle_beta 90.000000
_cell_angle_gamma 90.000000
_cell_volume 4620.201829
_symmetry_space_group_name_H-M "P 4/M B M"
_symmetry_group_IT_number 127
_symmetry_cell_setting 'tetragonal'
loop_
_space_group_symop_operation_xyz
x,y,z
-y,x,z
-x,-y,z
y,-x,z
1/2+x,1/2-y,-z
1/2-x,1/2+y,-z
1/2+y,1/2+x,-z
1/2-y,1/2-x,-z
-x,-y,-z
y,-x,-z
x,y,-z
-y,x,-z
1/2-x,1/2+y,z
1/2+x,1/2-y,z
1/2-y,1/2-x,z
1/2+y,1/2+x,z
loop_
_atom_site_type_symbol
_atom_site_label
_atom_site_fract_x
_atom_site_fract_y
_atom_site_fract_z
Si Si1 0.755379 0.012952 0.859553
Si Si2 0.351222 0.488179 0.278272
Si Si3 0.814447 0.829455 0.080505
Si Si4 0.488071 0.648038 0.427465
Si Si5 0.926044 0.573957 0.078701
O O1 0.780568 0.016636 0.780838
O O2 0.776903 0.916862 0.886601
O O3 0.814523 0.086850 0.895361
O O4 0.657830 0.037549 0.882032
O O5 0.422754 0.409470 0.272073
O O6 0.309840 0.484726 0.353493
O O7 0.753954 0.746047 0.099594
O O8 0.811454 0.837680 0.000000
O O9 0.409930 0.576640 0.427728
O O10 0.484175 0.696131 0.500000
O O11 0.000000 0.500000 0.076143
O O12 0.903043 0.596958 0.000000
#
# Coordination Sequence:
#
# PCOD9564405 Si02
#       5
#    16  16  16  16   8
#     4  12  21  35  54  75 101 130 165 208 264 310
#     4   9  16  27  42  70 107 134 156 193 247 301
#     4  11  23  37  52  72  98 129 170 215 256 308
#     4   7  10  18  35  59  93 135 166 184 218 284
#     4  11  24  42  58  70  91 132 182 222 251 289
#
# _framework density 15.583734
#
# number of rings (size 3 to 8) (size 9 to 14) (size 15 to 20)
#    0.000    2.111    3.333    4.667    0.000    2.222 
#    0.000    1.111    0.000    0.000    0.000    0.778 
#    0.000    6.222    0.000    0.000    0.000    0.000 
#
# Total GULP energy -400952.940133 kJ/mol
# GULP energy per Si atom -5568.790835 kJ/mol
# Density = 1.554826 g / cm^3
# Si number density = 15.583734 Si / 1000 Ang^3
#
#
#
# Elastic Constant Matrix: (Units=GPa)
#
#
# Indices 1 2 3 4 5 6 
#
# 1 48.9737 -3.0000 30.7415 0.0000 0.0000 0.0000
# 2 -3.0000 48.9737 30.7415 0.0000 0.0000 0.0000
# 3 30.7415 30.7415 162.0364 0.0000 0.0000 0.0000
# 4 0.0000 0.0000 0.0000 5.0586 0.0000 0.0000
# 5 0.0000 0.0000 0.0000 0.0000 5.0583 0.0000
# 6 0.0000 0.0000 0.0000 0.0000 0.0000 19.4814
#
#
#
# Elastic Compliance Matrix: (Units=1/GPa)
#
#
# Indices 1 2 3 4 5 6 
#
# 1 0.024194 0.004953 -0.005530 0.000000 0.000000 0.000000
# 2 0.004953 0.024194 -0.005530 0.000000 0.000000 0.000000
# 3 -0.005530 -0.005530 0.008270 0.000000 0.000000 0.000000
# 4 0.000000 0.000000 0.000000 0.197685 0.000000 0.000000
# 5 0.000000 0.000000 0.000000 0.000000 0.197696 0.000000
# 6 0.000000 0.000000 0.000000 0.000000 0.000000 0.051331
#
#
# Mechanical properties :
#
#
# Convention : Reuss Voigt Hill
#
# Bulk Modulus (GPa) = 22.50013 41.88333 32.19173
# Shear Modulus (GPa) = 9.42692 19.35302 14.38997
#
# Velocity S-wave (km/s) = 2.46218 3.52785 3.04204
# Velocity P-wave (km/s) = 4.74897 6.59764 5.74811
#
# Compressibility (1/GPa) = 0.04444419
#
# Stress axis : x y z
#
# Youngs Moduli (GPa) = 41.33328 41.33325 120.92421
#
# Poissons Ratio (x) = -0.20473 0.66867
# Poissons Ratio (y) = -0.20473 0.66868
# Poissons Ratio (z) = 0.22856 0.22856
#
# Static dielectric constant tensor:
#      x y z
#    x 1.508870 0.000000 0.000000 
#    y 0.000000 1.508870 0.000000 
#    z 0.000000 0.000000 1.558740 
# 
# From -- ./inp_files/4951.got.cif
#   From: 2010.05.17/outbox.cif.g08.bks.cpg/sg127_3_cif.got.tgz:4951.got - 2010.05.20 12:03:00.
