data_PCOD9564122
_publ_section_title
;
Structure prediction by ZEFSAII (Michael W. Deem and Ramdas Pophale) SiO2 
 PCOD9564122
Probable space group: P 4/M B M
;
_chemical_formula_sum "Si O2"
_cell_formula_units_Z 96
_cell_length_a 14.075788
_cell_length_b 14.075788
_cell_length_c 23.277765
_cell_angle_alpha 90.000000
_cell_angle_beta 90.000000
_cell_angle_gamma 90.000000
_cell_volume 4611.972550
_symmetry_space_group_name_H-M "P 4/M B M"
_symmetry_group_IT_number 127
_symmetry_cell_setting 'tetragonal'
loop_
_space_group_symop_operation_xyz
x,y,z
-y,x,z
-x,-y,z
y,-x,z
1/2+x,1/2-y,-z
1/2-x,1/2+y,-z
1/2+y,1/2+x,-z
1/2-y,1/2-x,-z
-x,-y,-z
y,-x,-z
x,y,-z
-y,x,-z
1/2-x,1/2+y,z
1/2+x,1/2-y,z
1/2-y,1/2-x,z
1/2+y,1/2+x,z
loop_
_atom_site_type_symbol
_atom_site_label
_atom_site_fract_x
_atom_site_fract_y
_atom_site_fract_z
Si Si1 0.458583 0.194876 0.770973
Si Si2 0.156948 0.003950 0.431397
Si Si3 0.141622 0.196416 0.936640
Si Si4 0.998152 0.659206 0.646908
Si Si5 0.654721 0.997188 0.900664
Si Si6 0.589435 0.629102 0.819064
O O1 0.402484 0.097517 0.765216
O O2 0.513934 0.201386 0.711592
O O3 0.506952 0.181355 0.833213
O O4 0.384810 0.281992 0.779711
O O5 0.173534 0.004391 0.500000
O O6 0.094002 0.910545 0.417874
O O7 0.253948 0.005547 0.396635
O O8 0.225208 0.274793 0.930003
O O9 0.148424 0.123156 0.884130
O O10 0.042573 0.255383 0.932708
O O11 0.149446 0.153332 0.000000
O O12 0.092460 0.592460 0.644052
O O13 0.909958 0.590043 0.634565
O O14 0.607840 0.892161 0.910829
O O15 0.570148 0.070148 0.913806
O O16 0.476297 0.625224 0.807979
#
# Coordination Sequence:
#
# PCOD9564122 Si02
#       6
#    16  16  16  16  16  16
#     4  10  20  38  60  82 112 149 191 239 295 361
#     4   9  20  41  66  92 130 182 233 275 315 367
#     4  10  21  38  59  83 110 141 185 241 300 363
#     4  10  22  39  62  98 137 170 211 268 332 389
#     4   9  17  33  59  84 107 140 182 236 300 357
#     4  11  23  39  56  77 107 146 189 232 286 352
#
# _framework density 20.815387999999999
#
# number of rings (size 3 to 8) (size 9 to 14) (size 15 to 20)
#    0.000    2.167    1.667    1.500    0.000    5.667 
#    0.000    8.333    0.000    0.000    0.000    0.000 
#    0.000    0.000    0.000    0.000    0.000    0.000 
#
# Total GULP energy -535108.676696 kJ/mol
# GULP energy per Si atom -5574.048716 kJ/mol
# Density = 2.076801 g / cm^3
# Si number density = 20.815388 Si / 1000 Ang^3
#
#
#
# Elastic Constant Matrix: (Units=GPa)
#
#
# Indices 1 2 3 4 5 6 
#
# 1 83.2026 6.6470 35.0050 0.0000 0.0000 0.0000
# 2 6.6470 83.2026 35.0050 0.0000 0.0000 0.0000
# 3 35.0050 35.0050 74.0109 0.0000 0.0000 0.0000
# 4 0.0000 0.0000 0.0000 32.2610 0.0000 0.0000
# 5 0.0000 0.0000 0.0000 0.0000 32.2610 0.0000
# 6 0.0000 0.0000 0.0000 0.0000 0.0000 17.8161
#
#
#
# Elastic Compliance Matrix: (Units=1/GPa)
#
#
# Indices 1 2 3 4 5 6 
#
# 1 0.015344 0.002281 -0.008336 0.000000 0.000000 0.000000
# 2 0.002281 0.015344 -0.008336 0.000000 0.000000 0.000000
# 3 -0.008336 -0.008336 0.021397 0.000000 0.000000 0.000000
# 4 0.000000 0.000000 0.000000 0.030997 0.000000 0.000000
# 5 0.000000 0.000000 0.000000 0.000000 0.030997 0.000000
# 6 0.000000 0.000000 0.000000 0.000000 0.000000 0.056129
#
#
# Mechanical properties :
#
#
# Convention : Reuss Voigt Hill
#
# Bulk Modulus (GPa) = 42.91351 43.74776 43.33064
# Shear Modulus (GPa) = 24.18290 27.38488 25.78389
#
# Velocity S-wave (km/s) = 3.41219 3.63107 3.52333
# Velocity P-wave (km/s) = 6.01540 6.21628 6.11667
#
# Compressibility (1/GPa) = 0.02330268
#
# Stress axis : x y z
#
# Youngs Moduli (GPa) = 65.17289 65.17289 46.73537
#
# Poissons Ratio (x) = -0.14869 0.38960
# Poissons Ratio (y) = -0.14869 0.38960
# Poissons Ratio (z) = 0.54329 0.54329
#
# Static dielectric constant tensor:
#      x y z
#    x 1.793870 0.000000 0.000000 
#    y 0.000000 1.793870 0.000000 
#    z 0.000000 0.000000 1.757430 
# 
# From -- ./inp_files/5780.got.cif
#   From: 2010.05.17/outbox.cif.g08.bks.cpg/sg127_3_cif.got.tgz:5780.got - 2010.05.20 12:03:00.
