data_PCOD9564487
_publ_section_title
;
Structure prediction by ZEFSAII (Michael W. Deem and Ramdas Pophale) SiO2 
 PCOD9564487
Probable space group: P 4/M B M
;
_chemical_formula_sum "Si O2"
_cell_formula_units_Z 80
_cell_length_a 24.000000
_cell_length_b 24.000000
_cell_length_c 9.000000
_cell_angle_alpha 90.000000
_cell_angle_beta 90.000000
_cell_angle_gamma 90.000000
_cell_volume 5184.000000
_symmetry_space_group_name_H-M "P 4/M B M"
_symmetry_group_IT_number 127
_symmetry_cell_setting 'tetragonal'
loop_
_space_group_symop_operation_xyz
x,y,z
-y,x,z
-x,-y,z
y,-x,z
1/2+x,1/2-y,-z
1/2-x,1/2+y,-z
1/2+y,1/2+x,-z
1/2-y,1/2-x,-z
-x,-y,-z
y,-x,-z
x,y,-z
-y,x,-z
1/2-x,1/2+y,z
1/2+x,1/2-y,z
1/2-y,1/2-x,z
1/2+y,1/2+x,z
loop_
_atom_site_type_symbol
_atom_site_label
_atom_site_fract_x
_atom_site_fract_y
_atom_site_fract_z
Si Si1 0.807608 0.307608 0.824903
Si Si2 0.775065 0.724936 0.675962
Si Si3 0.361180 0.693950 0.179217
Si Si4 0.803566 0.016427 0.327880
Si Si5 0.595372 0.728037 0.175913
Si Si6 0.494994 0.407268 0.163521
O O1 0.771451 0.271451 0.711501
O O2 0.869885 0.285361 0.803035
O O3 0.793426 0.293426 0.000000
O O4 0.783042 0.716959 0.500000
O O5 0.828855 0.752386 0.754149
O O6 0.423923 0.695891 0.243465
O O7 0.323387 0.638355 0.218031
O O8 0.362405 0.695910 0.000000
O O9 0.790247 0.024492 0.500000
O O10 0.866166 0.994739 0.299585
O O11 0.770564 0.963901 0.258174
O O12 0.585965 0.721678 0.000000
O O13 0.550514 0.443938 0.167444
O O14 0.493908 0.378864 0.000000
#
# Coordination Sequence:
#
# PCOD9564487 Si02
#       6
#     8   8  16  16  16  16
#     4   8  16  32  52  70  88 119 160 191 224 280
#     4  10  18  30  50  74  96 115 144 191 242 282
#     4  10  20  35  52  67  89 125 164 194 226 276
#     4  12  23  30  41  66  95 119 148 190 238 277
#     4   9  18  33  51  68  88 119 158 195 230 274
#     4   9  18  32  46  57  75 112 158 194 225 266
#
# _framework density 15.432098999999999
#
# number of rings (size 3 to 8) (size 9 to 14) (size 15 to 20)
#    0.000    2.200    0.000    6.300    0.000    9.600 
#    0.000    1.000    0.000    0.000    0.000    0.000 
#    0.000    0.800    0.000    8.600    0.000    3.800 
#
# Total GULP energy -445437.074915 kJ/mol
# GULP energy per Si atom -5567.963436 kJ/mol
# Density = 1.539697 g / cm^3
# Si number density = 15.432099 Si / 1000 Ang^3
#
#
#
# Elastic Constant Matrix: (Units=GPa)
#
#
# Indices 1 2 3 4 5 6 
#
# 1 39.5080 1.1235 13.3662 0.0000 0.0000 0.0000
# 2 1.1235 39.5080 13.3663 0.0000 0.0000 0.0000
# 3 13.3662 13.3663 68.3360 0.0000 0.0000 0.0000
# 4 0.0000 0.0000 0.0000 15.4698 0.0000 0.0000
# 5 0.0000 0.0000 0.0000 0.0000 15.4699 0.0000
# 6 0.0000 0.0000 0.0000 0.0000 0.0000 -69.7158
#
#
#
# Elastic Compliance Matrix: (Units=1/GPa)
#
#
# Indices 1 2 3 4 5 6 
#
# 1 0.027149 0.001097 -0.005525 0.000000 0.000000 0.000000
# 2 0.001097 0.027149 -0.005525 0.000000 0.000000 0.000000
# 3 -0.005525 -0.005525 0.016795 0.000000 0.000000 0.000000
# 4 0.000000 0.000000 0.000000 0.064642 0.000000 0.000000
# 5 0.000000 0.000000 0.000000 0.000000 0.064642 0.000000
# 6 0.000000 0.000000 0.000000 0.000000 0.000000 -0.014344
#
#
# Mechanical properties :
#
#
# Convention : Reuss Voigt Hill
#
# Bulk Modulus (GPa) = 19.53578 22.56267 21.04922
# Shear Modulus (GPa) = 22.42136 0.21116 11.31626
#
# Velocity S-wave (km/s) = 3.81583 0.37031 2.71088
# Velocity P-wave (km/s) = 5.66575 3.85165 4.84438
#
# Compressibility (1/GPa) = 0.05118813
#
# Stress axis : x y z
#
# Youngs Moduli (GPa) = 36.83343 36.83330 59.54198
#
# Poissons Ratio (x) = -0.04041 0.32896
# Poissons Ratio (y) = -0.04041 0.32896
# Poissons Ratio (z) = 0.20350 0.20350
#
# Static dielectric constant tensor:
#      x y z
#    x 1.542690 0.000000 0.000000 
#    y 0.000000 1.542690 0.000000 
#    z 0.000000 0.000000 1.531610 
# 
# From -- ./inp_files/1854.got.cif
#   From: 2010.05.17/outbox.ucp.g08.bks.cvg/sg127_1_cif.got.tgz:1854.got - 2010.06.11 11:37:05.
