data_PCOD9564610
_publ_section_title
;
Structure prediction by ZEFSAII (Michael W. Deem and Ramdas Pophale) SiO2 
 PCOD9564610
Probable space group: P 4/M N C
;
_chemical_formula_sum "Si O2"
_cell_formula_units_Z 96
_cell_length_a 25.967306
_cell_length_b 25.967306
_cell_length_c 8.870725
_cell_angle_alpha 90.000000
_cell_angle_beta 90.000000
_cell_angle_gamma 90.000000
_cell_volume 5981.538569
_symmetry_space_group_name_H-M "P 4/M N C"
_symmetry_group_IT_number 128
_symmetry_cell_setting 'tetragonal'
loop_
_space_group_symop_operation_xyz
x,y,z
-y,x,z
-x,-y,z
y,-x,z
1/2+x,1/2-y,1/2-z
1/2-x,1/2+y,1/2-z
1/2+y,1/2+x,1/2-z
1/2-y,1/2-x,1/2-z
-x,-y,-z
y,-x,-z
x,y,-z
-y,x,-z
1/2-x,1/2+y,1/2+z
1/2+x,1/2-y,1/2+z
1/2-y,1/2-x,1/2+z
1/2+y,1/2+x,1/2+z
loop_
_atom_site_type_symbol
_atom_site_label
_atom_site_fract_x
_atom_site_fract_y
_atom_site_fract_z
Si Si1 0.050169 0.750471 0.179017
Si Si2 0.057208 0.864999 0.179090
Si Si3 0.862065 0.057006 0.680905
Si Si4 0.637465 0.941496 0.179471
Si Si5 0.141167 0.438181 0.680255
Si Si6 0.938686 0.747737 0.322279
O O1 0.075933 0.805788 0.202920
O O2 0.077193 0.696113 0.211664
O O3 0.999096 0.750444 0.279903
O O4 0.035142 0.748659 0.000000
O O5 0.093772 0.905126 0.262072
O O6 0.998895 0.867899 0.241676
O O7 0.056875 0.874921 0.000000
O O8 0.863957 0.050598 0.500000
O O9 0.805225 0.079683 0.719395
O O10 0.594586 0.905415 0.250000
O O11 0.634557 0.001669 0.227092
O O12 0.630691 0.940760 0.000000
O O13 0.097057 0.402943 0.750000
O O14 0.139212 0.436369 0.500000
O O15 0.197444 0.419436 0.735182
O O16 0.931551 0.740051 0.500000
#
# Coordination Sequence:
#
# PCOD9564610 Si02
#       6
#    16  16  16  16  16  16
#     4   8  16  31  48  67  92 122 159 198 232 272
#     4  10  19  32  51  72  95 126 163 197 234 283
#     4  10  20  33  49  72 101 127 155 195 241 285
#     4   9  18  31  47  69  96 125 155 191 234 278
#     4  10  20  33  49  70  97 126 158 196 237 281
#     4   9  17  30  49  70  92 122 159 195 234 281
#
# _framework density 16.049382999999999
#
# number of rings (size 3 to 8) (size 9 to 14) (size 15 to 20)
#    0.000    2.667    0.000    3.000    0.000    6.667 
#    0.000    3.333    0.000    1.000    0.000    4.667 
#    0.000    0.000    0.000    0.000    0.000    0.000 
#
# Total GULP energy -534417.535068 kJ/mol
# GULP energy per Si atom -5566.849324 kJ/mol
# Density = 1.601285 g / cm^3
# Si number density = 16.049383 Si / 1000 Ang^3
#
#
#
# Elastic Constant Matrix: (Units=GPa)
#
#
# Indices 1 2 3 4 5 6 
#
# 1 91.4005 61.6907 32.6522 0.0000 0.0000 0.0000
# 2 61.6907 91.3971 32.6516 0.0000 0.0000 0.0000
# 3 32.6522 32.6516 40.4869 0.0000 0.0000 0.0000
# 4 0.0000 0.0000 0.0000 23.3474 0.0000 0.0000
# 5 0.0000 0.0000 0.0000 0.0000 23.3477 0.0000
# 6 0.0000 0.0000 0.0000 0.0000 0.0000 -3.1492
#
#
#
# Elastic Compliance Matrix: (Units=1/GPa)
#
#
# Indices 1 2 3 4 5 6 
#
# 1 0.021809 -0.011852 -0.008031 0.000000 0.000000 0.000000
# 2 -0.011852 0.021810 -0.008031 0.000000 0.000000 0.000000
# 3 -0.008031 -0.008031 0.037653 0.000000 0.000000 0.000000
# 4 0.000000 0.000000 0.000000 0.042831 0.000000 0.000000
# 5 0.000000 0.000000 0.000000 0.000000 0.042831 0.000000
# 6 0.000000 0.000000 0.000000 0.000000 0.000000 -0.317542
#
#
# Mechanical properties :
#
#
# Convention : Reuss Voigt Hill
#
# Bulk Modulus (GPa) = 39.30017 53.03039 46.16528
# Shear Modulus (GPa) = -57.93759 15.12850 -21.40455
#
# Velocity S-wave (km/s) = -6.01481 3.07355 -3.65590
# Velocity P-wave (km/s) = 4.86796 6.76087 3.31755
#
# Compressibility (1/GPa) = 0.02544518
#
# Stress axis : x y z
#
# Youngs Moduli (GPa) = 45.85269 45.85094 26.55849
#
# Poissons Ratio (x) = 0.54340 0.21328
# Poissons Ratio (y) = 0.54342 0.21329
# Poissons Ratio (z) = 0.36823 0.36822
#
# Static dielectric constant tensor:
#      x y z
#    x 1.540440 0.000000 0.000000 
#    y 0.000000 1.540440 0.000000 
#    z 0.000000 0.000000 1.540820 
# 
# From -- ./inp_files/1512.got.cif
#   From: 2010.05.17/outbox.cif.g08.bks.cpg/sg128_1_cif.got.tgz:1512.got - 2010.05.20 12:07:25.
