data_PCOD9564772
_publ_section_title
;
Structure prediction by ZEFSAII (Michael W. Deem and Ramdas Pophale) SiO2 
 PCOD9564772
Probable space group: P 4/M N C
;
_chemical_formula_sum "Si O2"
_cell_formula_units_Z 88
_cell_length_a 15.705601
_cell_length_b 15.705601
_cell_length_c 19.765090
_cell_angle_alpha 90.000000
_cell_angle_beta 90.000000
_cell_angle_gamma 90.000000
_cell_volume 4875.373768
_symmetry_space_group_name_H-M "P 4/M N C"
_symmetry_group_IT_number 128
_symmetry_cell_setting 'tetragonal'
loop_
_space_group_symop_operation_xyz
x,y,z
-y,x,z
-x,-y,z
y,-x,z
1/2+x,1/2-y,1/2-z
1/2-x,1/2+y,1/2-z
1/2+y,1/2+x,1/2-z
1/2-y,1/2-x,1/2-z
-x,-y,-z
y,-x,-z
x,y,-z
-y,x,-z
1/2-x,1/2+y,1/2+z
1/2+x,1/2-y,1/2+z
1/2-y,1/2-x,1/2+z
1/2+y,1/2+x,1/2+z
loop_
_atom_site_type_symbol
_atom_site_label
_atom_site_fract_x
_atom_site_fract_y
_atom_site_fract_z
Si Si1 0.358039 0.531575 0.000000
Si Si2 0.581210 0.054713 0.330792
Si Si3 0.234522 0.350367 0.345371
Si Si4 0.183008 0.847311 0.696811
Si Si5 0.890054 0.078407 0.919122
Si Si6 0.269797 0.520231 0.143099
O O1 0.401704 0.437113 0.000000
O O2 0.299618 0.541818 0.066961
O O3 0.568422 0.068422 0.250000
O O4 0.590827 0.151687 0.356808
O O5 0.500000 0.000000 0.354910
O O6 0.671006 0.007977 0.347586
O O7 0.200675 0.254418 0.347183
O O8 0.275382 0.360258 0.270533
O O9 0.309460 0.369822 0.395983
O O10 0.098102 0.792737 0.692399
O O11 0.172739 0.940166 0.665452
O O12 0.980527 0.114851 0.894604
O O13 0.893552 0.076734 0.000000
#
# Coordination Sequence:
#
# PCOD9564772 Si02
#       6
#     8  16  16  16  16  16
#     4  11  22  38  61  84 118 166 193 236 304 355
#     4  10  21  39  62  84 115 157 192 238 296 346
#     4  10  20  39  57  88 116 150 192 239 293 350
#     4  10  22  36  57  89 118 145 194 244 290 344
#     4   9  20  38  59  84 113 149 191 239 297 355
#     4  11  21  40  58  86 119 152 198 243 291 356
#
# _framework density 18.049897999999999
#
# number of rings (size 3 to 8) (size 9 to 14) (size 15 to 20)
#    0.000    1.909    5.455    0.545    2.545    4.727 
#    8.182    0.455    0.000    0.000    0.000    0.000 
#    0.000    0.000    0.000    0.000    0.000    0.000 
#
# Total GULP energy -490402.688669 kJ/mol
# GULP energy per Si atom -5572.757826 kJ/mol
# Density = 1.800882 g / cm^3
# Si number density = 18.049898 Si / 1000 Ang^3
#
#
#
# Elastic Constant Matrix: (Units=GPa)
#
#
# Indices 1 2 3 4 5 6 
#
# 1 76.1280 37.4859 19.7643 0.0000 0.0000 0.0000
# 2 37.4859 76.1280 19.7643 0.0000 0.0000 0.0000
# 3 19.7643 19.7643 28.9207 0.0000 0.0000 0.0000
# 4 0.0000 0.0000 0.0000 23.7320 0.0000 0.0000
# 5 0.0000 0.0000 0.0000 0.0000 23.7320 0.0000
# 6 0.0000 0.0000 0.0000 0.0000 0.0000 26.6464
#
#
#
# Elastic Compliance Matrix: (Units=1/GPa)
#
#
# Indices 1 2 3 4 5 6 
#
# 1 0.018713 -0.007166 -0.007891 0.000000 0.000000 0.000000
# 2 -0.007166 0.018713 -0.007891 0.000000 0.000000 0.000000
# 3 -0.007891 -0.007891 0.045363 0.000000 0.000000 0.000000
# 4 0.000000 0.000000 0.000000 0.042137 0.000000 0.000000
# 5 0.000000 0.000000 0.000000 0.000000 0.042137 0.000000
# 6 0.000000 0.000000 0.000000 0.000000 0.000000 0.037529
#
#
# Mechanical properties :
#
#
# Convention : Reuss Voigt Hill
#
# Bulk Modulus (GPa) = 27.10593 37.24508 32.17550
# Shear Modulus (GPa) = 19.02686 21.76621 20.39653
#
# Velocity S-wave (km/s) = 3.25025 3.47636 3.36521
# Velocity P-wave (km/s) = 5.39772 6.06570 5.74143
#
# Compressibility (1/GPa) = 0.03689230
#
# Stress axis : x y z
#
# Youngs Moduli (GPa) = 53.43907 53.43907 22.04427
#
# Poissons Ratio (x) = 0.38292 0.17396
# Poissons Ratio (y) = 0.38292 0.17396
# Poissons Ratio (z) = 0.42171 0.42171
#
# Static dielectric constant tensor:
#      x y z
#    x 1.621630 0.000000 0.000000 
#    y 0.000000 1.621630 0.000000 
#    z 0.000000 0.000000 1.633650 
# 
# From -- ./inp_files/5654.got.cif
#   From: 2010.05.17/outbox.cif.g08.bks.cpg/sg128_3_cif.got.tgz:5654.got - 2010.05.20 12:07:25.
