data_PCOD9564711
_publ_section_title
;
Structure prediction by ZEFSAII (Michael W. Deem and Ramdas Pophale) SiO2 
 PCOD9564711
Probable space group: P 4/M N C
;
_chemical_formula_sum "Si O2"
_cell_formula_units_Z 116
_cell_length_a 28.044384
_cell_length_b 28.044384
_cell_length_c 8.465720
_cell_angle_alpha 90.000000
_cell_angle_beta 90.000000
_cell_angle_gamma 90.000000
_cell_volume 6658.182738
_symmetry_space_group_name_H-M "P 4/M N C"
_symmetry_group_IT_number 128
_symmetry_cell_setting 'tetragonal'
loop_
_space_group_symop_operation_xyz
x,y,z
-y,x,z
-x,-y,z
y,-x,z
1/2+x,1/2-y,1/2-z
1/2-x,1/2+y,1/2-z
1/2+y,1/2+x,1/2-z
1/2-y,1/2-x,1/2-z
-x,-y,-z
y,-x,-z
x,y,-z
-y,x,-z
1/2-x,1/2+y,1/2+z
1/2+x,1/2-y,1/2+z
1/2-y,1/2-x,1/2+z
1/2+y,1/2+x,1/2+z
loop_
_atom_site_type_symbol
_atom_site_label
_atom_site_fract_x
_atom_site_fract_y
_atom_site_fract_z
Si Si1 0.410387 0.331487 0.312613
Si Si2 0.000000 0.000000 0.791235
Si Si3 0.127421 0.551596 0.810726
Si Si4 0.130958 0.444826 0.688928
Si Si5 0.893640 0.996676 0.314930
Si Si6 0.338379 0.411841 0.310202
Si Si7 0.235544 0.557834 0.188475
Si Si8 0.950827 0.738502 0.190615
O O1 0.419392 0.335155 0.500000
O O2 0.453967 0.357527 0.223919
O O3 0.363004 0.361511 0.274598
O O4 0.409989 0.276397 0.264529
O O5 0.009793 0.942129 0.782442
O O6 0.087933 0.587933 0.750000
O O7 0.119333 0.497950 0.749468
O O8 0.181004 0.566775 0.759831
O O9 0.126720 0.550515 0.000000
O O10 0.093834 0.406167 0.750000
O O11 0.129497 0.445359 0.500000
O O12 0.185691 0.434280 0.739344
O O13 0.907250 0.996047 0.500000
O O14 0.868100 0.046145 0.272433
O O15 0.341885 0.419335 0.500000
O O16 0.283038 0.417719 0.265533
O O17 0.246292 0.503227 0.237640
O O18 0.238078 0.561913 0.000000
O O19 0.955674 0.738394 0.000000
#
# Coordination Sequence:
#
# PCOD9564711 Si02
#       8
#    16   4  16  16  16  16  16  16
#     4  11  22  34  49  72 101 135 178 226 273 324
#     4  12  25  36  45  66 105 144 177 218 285 348
#     4  10  21  37  58  86 117 146 180 216 257 314
#     4  10  20  35  57  85 116 149 179 213 258 310
#     4  12  22  34  48  66  95 134 176 222 274 328
#     4  10  21  35  50  72  98 131 177 226 272 320
#     4  10  20  34  54  79 105 137 179 224 267 318
#     4   9  18  34  55  76 103 138 178 222 269 318
#
# _framework density 17.422172
#
# number of rings (size 3 to 8) (size 9 to 14) (size 15 to 20)
#    0.000    1.655    2.759    2.690    0.000    3.034 
#    0.000    2.759    0.000    0.828    0.000    3.862 
#    0.000    0.000    0.000    0.000    0.000    0.000 
#
# Total GULP energy -646637.712893 kJ/mol
# GULP energy per Si atom -5574.463042 kJ/mol
# Density = 1.738252 g / cm^3
# Si number density = 17.422172 Si / 1000 Ang^3
#
#
#
# Elastic Constant Matrix: (Units=GPa)
#
#
# Indices 1 2 3 4 5 6 
#
# 1 103.8329 70.2055 24.1078 0.0000 0.0000 0.0000
# 2 70.2055 103.8377 24.1074 0.0000 0.0000 0.0000
# 3 24.1078 24.1074 26.5099 0.0000 0.0000 0.0000
# 4 0.0000 0.0000 0.0000 8.4670 0.0000 0.0000
# 5 0.0000 0.0000 0.0000 0.0000 8.4675 0.0000
# 6 0.0000 0.0000 0.0000 0.0000 0.0000 22.9302
#
#
#
# Elastic Compliance Matrix: (Units=1/GPa)
#
#
# Indices 1 2 3 4 5 6 
#
# 1 0.018709 -0.011027 -0.006986 0.000000 0.000000 0.000000
# 2 -0.011027 0.018708 -0.006984 0.000000 0.000000 0.000000
# 3 -0.006986 -0.006984 0.050425 0.000000 0.000000 0.000000
# 4 0.000000 0.000000 0.000000 0.118105 0.000000 0.000000
# 5 0.000000 0.000000 0.000000 0.000000 0.118098 0.000000
# 6 0.000000 0.000000 0.000000 0.000000 0.000000 0.043611
#
#
# Mechanical properties :
#
#
# Convention : Reuss Voigt Hill
#
# Bulk Modulus (GPa) = 26.42157 52.33576 39.37867
# Shear Modulus (GPa) = 11.62073 15.69028 13.65550
#
# Velocity S-wave (km/s) = 2.58545 3.00424 2.80268
# Velocity P-wave (km/s) = 4.91031 6.49145 5.75544
#
# Compressibility (1/GPa) = 0.03784786
#
# Stress axis : x y z
#
# Youngs Moduli (GPa) = 53.45084 53.45443 19.83131
#
# Poissons Ratio (x) = 0.58946 0.13853
# Poissons Ratio (y) = 0.58942 0.13850
# Poissons Ratio (z) = 0.37338 0.37333
#
# Static dielectric constant tensor:
#      x y z
#    x 1.583210 0.000000 0.000000 
#    y 0.000000 1.583210 0.000000 
#    z 0.000000 0.000000 1.645750 
# 
# From -- ./inp_files/1764.got.cif
#   From: 2010.05.17/outbox.cif.g08.bks.cpg/sg128_1_cif.got.tgz:1764.got - 2010.05.20 12:07:25.
