data_PCOD9564758
_publ_section_title
;
Structure prediction by ZEFSAII (Michael W. Deem and Ramdas Pophale) SiO2 
 PCOD9564758
Probable space group: P 4/M N C
;
_chemical_formula_sum "Si O2"
_cell_formula_units_Z 96
_cell_length_a 23.333806
_cell_length_b 23.333806
_cell_length_c 8.438904
_cell_angle_alpha 90.000000
_cell_angle_beta 90.000000
_cell_angle_gamma 90.000000
_cell_volume 4594.700545
_symmetry_space_group_name_H-M "P 4/M N C"
_symmetry_group_IT_number 128
_symmetry_cell_setting 'tetragonal'
loop_
_space_group_symop_operation_xyz
x,y,z
-y,x,z
-x,-y,z
y,-x,z
1/2+x,1/2-y,1/2-z
1/2-x,1/2+y,1/2-z
1/2+y,1/2+x,1/2-z
1/2-y,1/2-x,1/2-z
-x,-y,-z
y,-x,-z
x,y,-z
-y,x,-z
1/2-x,1/2+y,1/2+z
1/2+x,1/2-y,1/2+z
1/2-y,1/2-x,1/2+z
1/2+y,1/2+x,1/2+z
loop_
_atom_site_type_symbol
_atom_site_label
_atom_site_fract_x
_atom_site_fract_y
_atom_site_fract_z
Si Si1 0.293964 0.423022 0.810876
Si Si2 0.204450 0.612918 0.190048
Si Si3 0.022444 0.614128 0.691354
Si Si4 0.792287 0.800563 0.308033
Si Si5 0.909049 0.020453 0.808991
Si Si6 0.414863 0.830135 0.314290
O O1 0.299292 0.357320 0.752019
O O2 0.345798 0.461886 0.747227
O O3 0.228647 0.436307 0.764776
O O4 0.298401 0.423935 0.000000
O O5 0.161598 0.661598 0.250000
O O6 0.172632 0.555845 0.241311
O O7 0.265213 0.637941 0.241601
O O8 0.204881 0.611184 0.000000
O O9 0.060888 0.560888 0.750000
O O10 0.017431 0.611749 0.500000
O O11 0.961967 0.622007 0.773116
O O12 0.751135 0.748866 0.250000
O O13 0.792140 0.797446 0.500000
O O14 0.957893 0.066822 0.757790
O O15 0.908774 0.020257 0.000000
O O16 0.354390 0.854390 0.250000
O O17 0.409847 0.821556 0.500000
#
# Coordination Sequence:
#
# PCOD9564758 Si02
#       6
#    16  16  16  16  16  16
#     4  11  23  38  59  89 122 158 202 250 303 363
#     4   8  15  29  50  77 110 144 181 229 283 340
#     4  10  20  37  61  89 120 155 197 246 301 359
#     4   9  18  32  51  78 113 154 197 243 296 354
#     4   9  20  41  66  92 125 163 203 249 301 358
#     4  12  26  44  63  85 117 157 202 253 307 360
#
# _framework density 20.893636999999998
#
# number of rings (size 3 to 8) (size 9 to 14) (size 15 to 20)
#    0.000    2.167    0.000    3.500    0.000    5.667 
#    0.000    4.167    0.000    0.000    0.000    0.000 
#    0.000    0.000    0.000    0.000    0.000    0.000 
#
# Total GULP energy -535311.288041 kJ/mol
# GULP energy per Si atom -5576.159250 kJ/mol
# Density = 2.084608 g / cm^3
# Si number density = 20.893637 Si / 1000 Ang^3
#
#
#
# Elastic Constant Matrix: (Units=GPa)
#
#
# Indices 1 2 3 4 5 6 
#
# 1 93.0974 35.1953 1.6870 0.0000 0.0000 0.0000
# 2 35.1953 93.0975 1.6864 0.0000 0.0000 0.0000
# 3 1.6870 1.6864 24.8353 0.0000 0.0000 0.0000
# 4 0.0000 0.0000 0.0000 24.5467 0.0000 0.0000
# 5 0.0000 0.0000 0.0000 0.0000 24.5465 0.0000
# 6 0.0000 0.0000 0.0000 0.0000 0.0000 38.2539
#
#
#
# Elastic Compliance Matrix: (Units=1/GPa)
#
#
# Indices 1 2 3 4 5 6 
#
# 1 0.012540 -0.004731 -0.000531 0.000000 0.000000 0.000000
# 2 -0.004731 0.012540 -0.000530 0.000000 0.000000 0.000000
# 3 -0.000531 -0.000530 0.040337 0.000000 0.000000 0.000000
# 4 0.000000 0.000000 0.000000 0.040739 0.000000 0.000000
# 5 0.000000 0.000000 0.000000 0.000000 0.040739 0.000000
# 6 0.000000 0.000000 0.000000 0.000000 0.000000 0.026141
#
#
# Mechanical properties :
#
#
# Convention : Reuss Voigt Hill
#
# Bulk Modulus (GPa) = 18.57587 32.01862 25.29725
# Shear Modulus (GPa) = 24.68368 28.96684 26.82526
#
# Velocity S-wave (km/s) = 3.44087 3.72747 3.58704
# Velocity P-wave (km/s) = 4.96952 5.82093 5.41200
#
# Compressibility (1/GPa) = 0.05383329
#
# Stress axis : x y z
#
# Youngs Moduli (GPa) = 79.74751 79.74768 24.79092
#
# Poissons Ratio (x) = 0.37728 0.01315
# Poissons Ratio (y) = 0.37728 0.01314
# Poissons Ratio (z) = 0.04231 0.04227
#
# Static dielectric constant tensor:
#      x y z
#    x 1.794660 0.000000 0.000000 
#    y 0.000000 1.794660 0.000000 
#    z 0.000000 0.000000 1.273650 
# 
# From -- ./inp_files/1431.got.cif
#   From: 2010.05.17/outbox.cif.g08.bks.cpg/sg128_1_cif.got.tgz:1431.got - 2010.05.20 12:07:25.
