data_PCOD9564499
_publ_section_title
;
Structure prediction by ZEFSAII (Michael W. Deem and Ramdas Pophale) SiO2 
 PCOD9564499
Probable space group: P 4/M B M
;
_chemical_formula_sum "Si O2"
_cell_formula_units_Z 96
_cell_length_a 24.000000
_cell_length_b 24.000000
_cell_length_c 9.000000
_cell_angle_alpha 90.000000
_cell_angle_beta 90.000000
_cell_angle_gamma 90.000000
_cell_volume 5184.000000
_symmetry_space_group_name_H-M "P 4/M B M"
_symmetry_group_IT_number 127
_symmetry_cell_setting 'tetragonal'
loop_
_space_group_symop_operation_xyz
x,y,z
-y,x,z
-x,-y,z
y,-x,z
1/2+x,1/2-y,-z
1/2-x,1/2+y,-z
1/2+y,1/2+x,-z
1/2-y,1/2-x,-z
-x,-y,-z
y,-x,-z
x,y,-z
-y,x,-z
1/2-x,1/2+y,z
1/2+x,1/2-y,z
1/2-y,1/2-x,z
1/2+y,1/2+x,z
loop_
_atom_site_type_symbol
_atom_site_label
_atom_site_fract_x
_atom_site_fract_y
_atom_site_fract_z
Si Si1 0.589662 0.001508 0.680828
Si Si2 0.559271 0.300532 0.321494
Si Si3 0.530771 0.787932 0.320415
Si Si4 0.259829 0.145533 0.170022
Si Si5 0.270236 0.319444 0.678243
Si Si6 0.582756 0.537070 0.178620
O O1 0.590222 0.002448 0.500000
O O2 0.551163 0.948838 0.723790
O O3 0.652775 0.993893 0.730505
O O4 0.556955 0.056955 0.729548
O O5 0.556930 0.306044 0.500000
O O6 0.507486 0.263352 0.271831
O O7 0.615984 0.268272 0.283873
O O8 0.558702 0.361279 0.251277
O O9 0.531906 0.788664 0.500000
O O10 0.592024 0.779197 0.259037
O O11 0.309427 0.190574 0.171732
O O12 0.208118 0.176098 0.246701
O O13 0.246887 0.131148 0.000000
O O14 0.275657 0.314415 0.500000
O O15 0.216432 0.283569 0.723691
O O16 0.527328 0.571200 0.221061
O O17 0.586991 0.539175 0.000000
#
# Coordination Sequence:
#
# PCOD9564499 Si02
#       6
#    16  16  16  16  16  16
#     4   8  14  26  47  75 104 136 175 215 254 301
#     4  10  22  35  52  82 112 140 176 218 266 319
#     4  10  20  33  51  79 112 141 172 214 266 321
#     4  10  21  36  55  79 105 137 181 228 267 307
#     4   9  19  37  57  76 105 144 180 216 264 319
#     4   9  20  39  59  78 102 137 180 220 267 325
#
# _framework density 18.518519000000001
#
# number of rings (size 3 to 8) (size 9 to 14) (size 15 to 20)
#    0.000    2.667    0.000    2.000    2.333    4.333 
#    0.000    4.167    0.000    0.500    0.000    4.667 
#    0.000    0.000    0.000    0.000    0.000    0.000 
#
# Total GULP energy -535309.636403 kJ/mol
# GULP energy per Si atom -5576.142046 kJ/mol
# Density = 1.847637 g / cm^3
# Si number density = 18.518519 Si / 1000 Ang^3
#
#
#
# Elastic Constant Matrix: (Units=GPa)
#
#
# Indices 1 2 3 4 5 6 
#
# 1 -177.6512 214.6095 13.0047 0.0000 0.0000 0.0000
# 2 214.6095 -177.6512 13.0047 0.0000 0.0000 0.0000
# 3 13.0047 13.0047 2.4148 0.0000 0.0000 0.0000
# 4 0.0000 0.0000 0.0000 1.8925 0.0000 0.0000
# 5 0.0000 0.0000 0.0000 0.0000 1.8925 0.0000
# 6 0.0000 0.0000 0.0000 0.0000 0.0000 5.2509
#
#
#
# Elastic Compliance Matrix: (Units=1/GPa)
#
#
# Indices 1 2 3 4 5 6 
#
# 1 -0.006124 -0.003574 0.052229 0.000000 0.000000 0.000000
# 2 -0.003574 -0.006124 0.052229 0.000000 0.000000 0.000000
# 3 0.052229 0.052229 -0.148430 0.000000 0.000000 0.000000
# 4 0.000000 0.000000 0.000000 0.528403 0.000000 0.000000
# 5 0.000000 0.000000 0.000000 0.000000 0.528403 0.000000
# 6 0.000000 0.000000 0.000000 0.000000 0.000000 0.190445
#
#
# Mechanical properties :
#
#
# Convention : Reuss Voigt Hill
#
# Bulk Modulus (GPa) = 24.33794 14.26113 19.29953
# Shear Modulus (GPa) = 5.56481 -37.75993 -16.09756
#
# Velocity S-wave (km/s) = 1.73537 -4.52047 -2.95153
# Velocity P-wave (km/s) = 4.14565 4.41910 1.08214
#
# Compressibility (1/GPa) = 0.04108811
#
# Stress axis : x y z
#
# Youngs Moduli (GPa) = -163.29670 -163.29670 -6.73719
#
# Poissons Ratio (x) = -0.58370 0.35187
# Poissons Ratio (y) = -0.58370 0.35187
# Poissons Ratio (z) = 8.52877 8.52877
#
# Static dielectric constant tensor:
#      x y z
#    x 1.622630 0.000000 0.000000 
#    y 0.000000 1.622630 0.000000 
#    z 0.000000 0.000000 1.628360 
# 
# From -- ./inp_files/1987.got.cif
#   From: 2010.05.17/outbox.ucp.g08.bks.cvg/sg127_1_cif.got.tgz:1987.got - 2010.06.11 11:37:05.
