data_PCOD9564173
_publ_section_title
;
Structure prediction by ZEFSAII (Michael W. Deem and Ramdas Pophale) SiO2 
 PCOD9564173
Probable space group: P 4/M B M
;
_chemical_formula_sum "Si O2"
_cell_formula_units_Z 64
_cell_length_a 19.923994
_cell_length_b 19.923994
_cell_length_c 8.804302
_cell_angle_alpha 90.000000
_cell_angle_beta 90.000000
_cell_angle_gamma 90.000000
_cell_volume 3495.004471
_symmetry_space_group_name_H-M "P 4/M B M"
_symmetry_group_IT_number 127
_symmetry_cell_setting 'tetragonal'
loop_
_space_group_symop_operation_xyz
x,y,z
-y,x,z
-x,-y,z
y,-x,z
1/2+x,1/2-y,-z
1/2-x,1/2+y,-z
1/2+y,1/2+x,-z
1/2-y,1/2-x,-z
-x,-y,-z
y,-x,-z
x,y,-z
-y,x,-z
1/2-x,1/2+y,z
1/2+x,1/2-y,z
1/2-y,1/2-x,z
1/2+y,1/2+x,z
loop_
_atom_site_type_symbol
_atom_site_label
_atom_site_fract_x
_atom_site_fract_y
_atom_site_fract_z
Si Si1 0.982066 0.758268 0.175343
Si Si2 0.273458 0.117323 0.318689
Si Si3 0.217813 0.830629 0.818896
Si Si4 0.992317 0.111866 0.330640
O O1 0.905309 0.761656 0.234891
O O2 0.006547 0.834564 0.198910
O O3 0.041468 0.718863 0.259501
O O4 0.980016 0.738235 0.000000
O O5 0.271583 0.117516 0.500000
O O6 0.334670 0.165331 0.267288
O O7 0.205627 0.154427 0.259660
O O8 0.280244 0.780244 0.796453
O O9 0.204039 0.835191 0.000000
O O10 0.990090 0.144021 0.500000
O O11 0.931867 0.059722 0.322061
#
# Coordination Sequence:
#
# PCOD9564173 Si02
#       4
#    16  16  16  16
#     4  11  21  31  49  75  99 128 165 205 252 300
#     4  10  21  36  54  76 102 134 171 209 251 300
#     4   9  19  36  55  76 104 135 169 210 253 300
#     4   9  18  31  45  64  95 133 166 197 237 287
#
# _framework density 18.31185
#
# number of rings (size 3 to 8) (size 9 to 14) (size 15 to 20)
#    0.000    2.250    0.000    3.750    0.000    8.500 
#    0.000    1.250    0.000    0.750    0.000    5.250 
#    0.000    0.000    0.000    0.000    0.000    0.000 
#
# Total GULP energy -356823.699383 kJ/mol
# GULP energy per Si atom -5575.370303 kJ/mol
# Density = 1.827017 g / cm^3
# Si number density = 18.311850 Si / 1000 Ang^3
#
#
#
# Elastic Constant Matrix: (Units=GPa)
#
#
# Indices 1 2 3 4 5 6 
#
# 1 62.4780 -8.2411 9.7647 0.0000 0.0000 0.0000
# 2 -8.2411 62.4780 9.7647 0.0000 0.0000 0.0000
# 3 9.7647 9.7647 29.6188 0.0000 0.0000 0.0000
# 4 0.0000 0.0000 0.0000 21.8598 0.0000 0.0000
# 5 0.0000 0.0000 0.0000 0.0000 21.8598 0.0000
# 6 0.0000 0.0000 0.0000 0.0000 0.0000 15.5338
#
#
#
# Elastic Compliance Matrix: (Units=1/GPa)
#
#
# Indices 1 2 3 4 5 6 
#
# 1 0.017531 0.003390 -0.006897 0.000000 0.000000 0.000000
# 2 0.003390 0.017531 -0.006897 0.000000 0.000000 0.000000
# 3 -0.006897 -0.006897 0.038310 0.000000 0.000000 0.000000
# 4 0.000000 0.000000 0.000000 0.045746 0.000000 0.000000
# 5 0.000000 0.000000 0.000000 0.000000 0.045746 0.000000
# 6 0.000000 0.000000 0.000000 0.000000 0.000000 0.064376
#
#
# Mechanical properties :
#
#
# Convention : Reuss Voigt Hill
#
# Bulk Modulus (GPa) = 19.02468 19.68350 19.35409
# Shear Modulus (GPa) = 18.68674 21.40310 20.04492
#
# Velocity S-wave (km/s) = 3.19795 3.42250 3.31213
# Velocity P-wave (km/s) = 4.90384 5.13716 5.02185
#
# Compressibility (1/GPa) = 0.05256332
#
# Stress axis : x y z
#
# Youngs Moduli (GPa) = 57.04236 57.04236 26.10274
#
# Poissons Ratio (x) = -0.19339 0.18004
# Poissons Ratio (y) = -0.19339 0.18004
# Poissons Ratio (z) = 0.39344 0.39344
#
# Static dielectric constant tensor:
#      x y z
#    x 1.652080 0.000000 0.000000 
#    y 0.000000 1.652080 0.000000 
#    z 0.000000 0.000000 1.658680 
# 
# From -- ./inp_files/1362.got.cif
#   From: 2010.05.17/outbox.cif.g08.bks.cpg/sg127_1_cif.got.tgz:1362.got - 2010.05.20 12:03:00.
