data_PCOD9564774
_publ_section_title
;
Structure prediction by ZEFSAII (Michael W. Deem and Ramdas Pophale) SiO2 
 PCOD9564774
Probable space group: P 4/M N C
;
_chemical_formula_sum "Si O2"
_cell_formula_units_Z 116
_cell_length_a 26.343602
_cell_length_b 26.343602
_cell_length_c 8.496976
_cell_angle_alpha 90.000000
_cell_angle_beta 90.000000
_cell_angle_gamma 90.000000
_cell_volume 5896.777002
_symmetry_space_group_name_H-M "P 4/M N C"
_symmetry_group_IT_number 128
_symmetry_cell_setting 'tetragonal'
loop_
_space_group_symop_operation_xyz
x,y,z
-y,x,z
-x,-y,z
y,-x,z
1/2+x,1/2-y,1/2-z
1/2-x,1/2+y,1/2-z
1/2+y,1/2+x,1/2-z
1/2-y,1/2-x,1/2-z
-x,-y,-z
y,-x,-z
x,y,-z
-y,x,-z
1/2-x,1/2+y,1/2+z
1/2+x,1/2-y,1/2+z
1/2-y,1/2-x,1/2+z
1/2+y,1/2+x,1/2+z
loop_
_atom_site_type_symbol
_atom_site_label
_atom_site_fract_x
_atom_site_fract_y
_atom_site_fract_z
Si Si1 0.613382 0.732035 0.688062
Si Si2 0.179839 0.859070 0.187459
Si Si3 0.052780 0.101628 0.185735
Si Si4 0.157945 0.580594 0.688251
Si Si5 0.974766 0.703381 0.812126
Si Si6 0.000000 0.000000 0.283888
Si Si7 0.989129 0.189979 0.316683
Si Si8 0.130588 0.291966 0.685249
O O1 0.601888 0.729746 0.500000
O O2 0.663200 0.698994 0.713934
O O3 0.611636 0.790942 0.734732
O O4 0.568652 0.703481 0.778793
O O5 0.133375 0.896744 0.232968
O O6 0.232469 0.869037 0.272423
O O7 0.187178 0.867444 0.000000
O O8 0.038400 0.050015 0.274748
O O9 0.009054 0.143416 0.213764
O O10 0.056050 0.088211 0.000000
O O11 0.108481 0.608481 0.750000
O O12 0.155473 0.580874 0.500000
O O13 0.168752 0.522527 0.737844
O O14 0.982324 0.758335 0.732574
O O15 0.919600 0.684362 0.764616
O O16 0.977777 0.710316 0.000000
O O17 0.997258 0.178885 0.500000
O O18 0.180160 0.319841 0.750000
O O19 0.127521 0.298405 0.500000
#
# Coordination Sequence:
#
# PCOD9564774 Si02
#       8
#    16  16  16  16  16   4  16  16
#     4   9  19  36  56  81 113 153 197 240 291 348
#     4  10  21  38  61  85 116 160 205 256 314 369
#     4  11  21  36  58  80 112 153 208 268 312 368
#     4   9  19  34  57  87 120 153 190 234 279 338
#     4  10  20  39  63  88 118 155 198 243 291 348
#     4  12  25  40  61  90 113 164 233 274 321 380
#     4  11  21  34  56  84 113 152 200 252 308 362
#     4  12  25  41  64  93 124 156 196 245 301 368
#
# _framework density 19.671762000000001
#
# number of rings (size 3 to 8) (size 9 to 14) (size 15 to 20)
#    0.000    1.655    1.379    5.172    0.000    4.966 
#    0.000    3.793    0.000    0.414    0.000    2.897 
#    0.000    0.000    0.000    0.000    0.000    0.000 
#
# Total GULP energy -646743.116484 kJ/mol
# GULP energy per Si atom -5575.371694 kJ/mol
# Density = 1.962699 g / cm^3
# Si number density = 19.671762 Si / 1000 Ang^3
#
#
#
# Elastic Constant Matrix: (Units=GPa)
#
#
# Indices 1 2 3 4 5 6 
#
# 1 50.5270 49.9882 14.5096 0.0000 0.0000 0.0000
# 2 49.9882 50.5407 14.5037 0.0000 0.0000 0.0000
# 3 14.5096 14.5037 24.2767 0.0000 0.0000 0.0000
# 4 0.0000 0.0000 0.0000 -6.2857 0.0000 0.0000
# 5 0.0000 0.0000 0.0000 0.0000 -6.2839 0.0000
# 6 0.0000 0.0000 0.0000 0.0000 0.0000 29.6693
#
#
#
# Elastic Compliance Matrix: (Units=1/GPa)
#
#
# Indices 1 2 3 4 5 6 
#
# 1 0.922653 -0.910404 -0.007540 0.000000 0.000000 0.000000
# 2 -0.910404 0.922198 -0.006827 0.000000 0.000000 0.000000
# 3 -0.007540 -0.006827 0.049777 0.000000 0.000000 0.000000
# 4 0.000000 0.000000 0.000000 -0.159090 0.000000 0.000000
# 5 0.000000 0.000000 0.000000 0.000000 -0.159138 0.000000
# 6 0.000000 0.000000 0.000000 0.000000 0.000000 0.033705
#
#
# Mechanical properties :
#
#
# Convention : Reuss Voigt Hill
#
# Bulk Modulus (GPa) = 22.17992 31.48306 26.83149
# Shear Modulus (GPa) = 1.43898 6.50945 3.97422
#
# Velocity S-wave (km/s) = 0.85620 1.82105 1.42290
# Velocity P-wave (km/s) = 3.50384 4.52333 4.04583
#
# Compressibility (1/GPa) = 0.04508583
#
# Stress axis : x y z
#
# Youngs Moduli (GPa) = 1.08383 1.08437 20.08961
#
# Poissons Ratio (x) = 0.98721 0.15148
# Poissons Ratio (y) = 0.98672 0.13715
# Poissons Ratio (z) = 0.00817 0.00740
#
# Static dielectric constant tensor:
#      x y z
#    x 1.708920 0.000000 0.000000 
#    y 0.000000 1.708920 0.000000 
#    z 0.000000 0.000000 1.688350 
# 
# From -- ./inp_files/1816.got.cif
#   From: 2010.05.17/outbox.cif.g08.bks.cpg/sg128_1_cif.got.tgz:1816.got - 2010.05.20 12:07:25.
