data_PCOD9564868
_publ_section_title
;
Structure prediction by ZEFSAII (Michael W. Deem and Ramdas Pophale) SiO2 
 PCOD9564868
Probable space group: P 4/M N C
;
_chemical_formula_sum "Si O2"
_cell_formula_units_Z 108
_cell_length_a 14.088252
_cell_length_b 14.088252
_cell_length_c 20.868929
_cell_angle_alpha 90.000000
_cell_angle_beta 90.000000
_cell_angle_gamma 90.000000
_cell_volume 4142.040912
_symmetry_space_group_name_H-M "P 4/M N C"
_symmetry_group_IT_number 128
_symmetry_cell_setting 'tetragonal'
loop_
_space_group_symop_operation_xyz
x,y,z
-y,x,z
-x,-y,z
y,-x,z
1/2+x,1/2-y,1/2-z
1/2-x,1/2+y,1/2-z
1/2+y,1/2+x,1/2-z
1/2-y,1/2-x,1/2-z
-x,-y,-z
y,-x,-z
x,y,-z
-y,x,-z
1/2-x,1/2+y,1/2+z
1/2+x,1/2-y,1/2+z
1/2-y,1/2-x,1/2+z
1/2+y,1/2+x,1/2+z
loop_
_atom_site_type_symbol
_atom_site_label
_atom_site_fract_x
_atom_site_fract_y
_atom_site_fract_z
Si Si1 0.287818 0.727920 0.500000
Si Si2 0.214017 0.449676 0.405081
Si Si3 0.381430 0.307762 0.735687
Si Si4 0.500000 0.500000 0.707491
Si Si5 0.955747 0.855155 0.577829
Si Si6 0.808738 0.347235 0.610478
Si Si7 0.283102 0.933079 0.753861
Si Si8 0.857185 0.516096 0.075631
O O1 0.371753 0.730855 0.444947
O O2 0.207742 0.732285 0.557460
O O3 0.235795 0.558007 0.423325
O O4 0.232886 0.439582 0.330276
O O5 0.102464 0.429092 0.416283
O O6 0.441165 0.398385 0.710647
O O7 0.340347 0.243034 0.678109
O O8 0.293842 0.357378 0.772097
O O9 0.461436 0.242627 0.769604
O O10 0.954687 0.859894 0.500000
O O11 0.060920 0.887192 0.601054
O O12 0.940983 0.745706 0.593021
O O13 0.919958 0.369875 0.614323
O O14 0.387707 0.887707 0.750000
O O15 0.857385 0.492034 0.000000
#
# Coordination Sequence:
#
# PCOD9564868 Si02
#       8
#     8  16  16   4  16  16  16  16
#     4  12  22  36  60  87 125 170 212 261 318 387
#     4  11  24  40  59  90 129 166 214 266 323 392
#     4   9  19  39  66  94 122 159 212 266 326 391
#     4   8  16  36  68  93 120 164 204 265 336 384
#     4   8  16  28  45  72 103 141 197 252 288 338
#     4  11  23  38  57  89 128 169 212 262 321 389
#     4  10  21  42  67  92 124 164 211 271 329 387
#     4  11  22  33  57  80 122 169 209 246 309 380
#
# _framework density 26.074103999999998
#
# number of rings (size 3 to 8) (size 9 to 14) (size 15 to 20)
#    0.000    1.926    2.963    1.333    2.074    0.593 
#    2.667    0.000    0.000    1.333    0.000    0.000 
#    0.000    0.000    0.000    0.000    0.000    0.000 
#
# Total GULP energy -601334.453039 kJ/mol
# GULP energy per Si atom -5567.911602 kJ/mol
# Density = 2.601476 g / cm^3
# Si number density = 26.074104 Si / 1000 Ang^3
#
#
#
# Elastic Constant Matrix: (Units=GPa)
#
#
# Indices 1 2 3 4 5 6 
#
# 1 76.6122 29.9205 17.7709 0.0000 0.0000 0.0000
# 2 29.9205 76.6122 17.7709 0.0000 0.0000 0.0000
# 3 17.7709 17.7709 88.7619 0.0000 0.0000 0.0000
# 4 0.0000 0.0000 0.0000 20.2578 0.0000 0.0000
# 5 0.0000 0.0000 0.0000 0.0000 20.2578 0.0000
# 6 0.0000 0.0000 0.0000 0.0000 0.0000 51.2227
#
#
#
# Elastic Compliance Matrix: (Units=1/GPa)
#
#
# Indices 1 2 3 4 5 6 
#
# 1 0.015738 -0.005679 -0.002014 0.000000 0.000000 0.000000
# 2 -0.005679 0.015738 -0.002014 0.000000 0.000000 0.000000
# 3 -0.002014 -0.002014 0.012072 0.000000 0.000000 0.000000
# 4 0.000000 0.000000 0.000000 0.049364 0.000000 0.000000
# 5 0.000000 0.000000 0.000000 0.000000 0.049364 0.000000
# 6 0.000000 0.000000 0.000000 0.000000 0.000000 0.019523
#
#
# Mechanical properties :
#
#
# Convention : Reuss Voigt Hill
#
# Bulk Modulus (GPa) = 41.43455 41.43455 41.43455
# Shear Modulus (GPa) = 26.41912 30.11591 28.26751
#
# Velocity S-wave (km/s) = 3.18658 3.40223 3.29617
# Velocity P-wave (km/s) = 5.42814 5.59993 5.51470
#
# Compressibility (1/GPa) = 0.02413445
#
# Stress axis : x y z
#
# Youngs Moduli (GPa) = 63.54097 63.54097 82.83308
#
# Poissons Ratio (x) = 0.36086 0.16681
# Poissons Ratio (y) = 0.36086 0.16681
# Poissons Ratio (z) = 0.12796 0.12796
#
# Static dielectric constant tensor:
#      x y z
#    x 2.100390 0.000000 0.000000 
#    y 0.000000 2.100390 0.000000 
#    z 0.000000 0.000000 2.077940 
# 
# From -- ./inp_files/6951.got.cif
#   From: 2010.05.17/outbox.cif.g08.bks.cpg/sg128_4_cif.got.tgz:6951.got - 2010.05.20 12:07:25.
