data_PCOD9564349
_publ_section_title
;
Structure prediction by ZEFSAII (Michael W. Deem and Ramdas Pophale) SiO2 
 PCOD9564349
Probable space group: P 4/M B M
;
_chemical_formula_sum "Si O2"
_cell_formula_units_Z 50
_cell_length_a 15.656591
_cell_length_b 15.656591
_cell_length_c 11.856341
_cell_angle_alpha 90.000000
_cell_angle_beta 90.000000
_cell_angle_gamma 90.000000
_cell_volume 2906.331137
_symmetry_space_group_name_H-M "P 4/M B M"
_symmetry_group_IT_number 127
_symmetry_cell_setting 'tetragonal'
loop_
_space_group_symop_operation_xyz
x,y,z
-y,x,z
-x,-y,z
y,-x,z
1/2+x,1/2-y,-z
1/2-x,1/2+y,-z
1/2+y,1/2+x,-z
1/2-y,1/2-x,-z
-x,-y,-z
y,-x,-z
x,y,-z
-y,x,-z
1/2-x,1/2+y,z
1/2+x,1/2-y,z
1/2-y,1/2-x,z
1/2+y,1/2+x,z
loop_
_atom_site_type_symbol
_atom_site_label
_atom_site_fract_x
_atom_site_fract_y
_atom_site_fract_z
Si Si1 0.638978 0.528141 0.633677
Si Si2 0.829551 0.468743 0.000000
Si Si3 0.266140 0.904588 0.812601
Si Si4 0.000000 0.000000 0.000000
Si Si5 0.654926 0.367059 0.000000
O O1 0.563868 0.596755 0.658586
O O2 0.656491 0.531664 0.500000
O O3 0.719442 0.548543 0.710095
O O4 0.816646 0.528809 0.108645
O O5 0.750507 0.402477 0.000000
O O6 0.916876 0.416876 0.000000
O O7 0.330083 0.830083 0.775788
O O8 0.192317 0.864694 0.892340
O O9 0.948340 0.092049 0.000000
#
# Coordination Sequence:
#
# PCOD9564349 Si02
#       5
#    16   8  16   2   8
#     4   9  19  35  57  82 106 136 176 223 277 330
#     4  11  22  37  55  77 110 146 183 224 267 317
#     4  11  22  34  52  79 110 143 182 221 263 319
#     4  12  20  32  56  80 110 144 160 228 292 334
#     4  11  21  33  52  84 108 137 176 222 280 329
#
# _framework density 17.203821999999999
#
# number of rings (size 3 to 8) (size 9 to 14) (size 15 to 20)
#    0.000    1.600    3.200    5.760    0.000    1.920 
#    0.000    0.000    0.000    2.880    0.000    2.240 
#    0.000    0.000    0.000    0.000    0.000    0.000 
#
# Total GULP energy -278842.652975 kJ/mol
# GULP energy per Si atom -5576.853060 kJ/mol
# Density = 1.716467 g / cm^3
# Si number density = 17.203822 Si / 1000 Ang^3
#
#
#
# Elastic Constant Matrix: (Units=GPa)
#
#
# Indices 1 2 3 4 5 6 
#
# 1 63.8580 41.5067 45.3282 0.0000 0.0000 0.0000
# 2 41.5067 63.8580 45.3282 0.0000 0.0000 0.0000
# 3 45.3282 45.3282 75.3593 0.0000 0.0000 0.0000
# 4 0.0000 0.0000 0.0000 -7.2622 0.0000 0.0000
# 5 0.0000 0.0000 0.0000 0.0000 -7.2622 0.0000
# 6 0.0000 0.0000 0.0000 0.0000 0.0000 41.8034
#
#
#
# Elastic Compliance Matrix: (Units=1/GPa)
#
#
# Indices 1 2 3 4 5 6 
#
# 1 0.032206 -0.012534 -0.011832 0.000000 0.000000 0.000000
# 2 -0.012534 0.032206 -0.011832 0.000000 0.000000 0.000000
# 3 -0.011832 -0.011832 0.027504 0.000000 0.000000 0.000000
# 4 0.000000 0.000000 0.000000 -0.137700 0.000000 0.000000
# 5 0.000000 0.000000 0.000000 0.000000 -0.137700 0.000000
# 6 0.000000 0.000000 0.000000 0.000000 0.000000 0.023922
#
#
# Mechanical properties :
#
#
# Convention : Reuss Voigt Hill
#
# Bulk Modulus (GPa) = 51.23569 51.93349 51.58459
# Shear Modulus (GPa) = -61.98871 10.18329 -25.90271
#
# Velocity S-wave (km/s) = -6.00917 2.43558 -3.88446
# Velocity P-wave (km/s) = 4.27793 6.17755 3.15131
#
# Compressibility (1/GPa) = 0.01951765
#
# Stress axis : x y z
#
# Youngs Moduli (GPa) = 31.05042 31.05042 36.35863
#
# Poissons Ratio (x) = 0.38920 0.43020
# Poissons Ratio (y) = 0.38920 0.43020
# Poissons Ratio (z) = 0.36739 0.36739
#
# Static dielectric constant tensor:
#      x y z
#    x 1.572960 0.000000 0.000000 
#    y 0.000000 1.572960 0.000000 
#    z 0.000000 0.000000 1.591470 
# 
# From -- ./inp_files/2794.got.cif
#   From: 2010.05.17/outbox.cif.g08.bks.cpg/sg127_2_cif.got.tgz:2794.got - 2010.05.20 12:03:00.
