data_PCOD9564231
_publ_section_title
;
Structure prediction by ZEFSAII (Michael W. Deem and Ramdas Pophale) SiO2 
 PCOD9564231
Probable space group: P 4/M B M
;
_chemical_formula_sum "Si O2"
_cell_formula_units_Z 104
_cell_length_a 26.349712
_cell_length_b 26.349712
_cell_length_c 7.546087
_cell_angle_alpha 90.000000
_cell_angle_beta 90.000000
_cell_angle_gamma 90.000000
_cell_volume 5239.303460
_symmetry_space_group_name_H-M "P 4/M B M"
_symmetry_group_IT_number 127
_symmetry_cell_setting 'tetragonal'
loop_
_space_group_symop_operation_xyz
x,y,z
-y,x,z
-x,-y,z
y,-x,z
1/2+x,1/2-y,-z
1/2-x,1/2+y,-z
1/2+y,1/2+x,-z
1/2-y,1/2-x,-z
-x,-y,-z
y,-x,-z
x,y,-z
-y,x,-z
1/2-x,1/2+y,z
1/2+x,1/2-y,z
1/2-y,1/2-x,z
1/2+y,1/2+x,z
loop_
_atom_site_type_symbol
_atom_site_label
_atom_site_fract_x
_atom_site_fract_y
_atom_site_fract_z
Si Si1 0.779386 0.509338 0.788017
Si Si2 0.634663 0.318304 0.715255
Si Si3 0.797595 0.621866 0.712047
Si Si4 0.085328 0.005658 0.500000
Si Si5 0.021710 0.162862 0.204876
Si Si6 0.327181 0.252586 0.285610
Si Si7 0.089930 0.668044 0.791634
O O1 0.805691 0.562892 0.750936
O O2 0.720555 0.511305 0.727435
O O3 0.811774 0.462664 0.714935
O O4 0.775694 0.503689 0.000000
O O5 0.632092 0.320505 0.500000
O O6 0.633631 0.259379 0.773704
O O7 0.583004 0.343295 0.783192
O O8 0.689949 0.337359 0.772581
O O9 0.796312 0.627794 0.500000
O O10 0.839936 0.660065 0.782505
O O11 0.121880 0.004641 0.329580
O O12 0.051874 0.954118 0.500000
O O13 0.006271 0.158557 0.000000
O O14 0.327315 0.253117 0.500000
O O15 0.273295 0.226706 0.232612
O O16 0.370437 0.214345 0.223421
O O17 0.119105 0.619105 0.715193
O O18 0.081601 0.657819 0.000000
#
# Coordination Sequence:
#
# PCOD9564231 Si02
#       7
#    16  16  16   8  16  16  16
#     4   9  19  34  53  79 107 140 182 225 273 327
#     4   9  16  30  51  77 111 145 174 215 271 333
#     4   9  17  29  49  76 104 139 178 217 271 329
#     4  11  26  46  64  84 110 144 190 235 284 340
#     4  10  21  39  61  86 113 142 184 235 281 330
#     4   9  17  28  44  71 106 140 174 212 262 327
#     4   9  18  33  50  70 102 141 181 224 269 322
#
# _framework density 19.849969000000002
#
# number of rings (size 3 to 8) (size 9 to 14) (size 15 to 20)
#    0.000    2.692    0.769    0.462    1.077    5.231 
#    0.000    2.308    0.000    3.231    0.000    3.231 
#    0.000    0.000    0.000    0.000    0.000    0.000 
#
# Total GULP energy -580205.283838 kJ/mol
# GULP energy per Si atom -5578.896960 kJ/mol
# Density = 1.980479 g / cm^3
# Si number density = 19.849969 Si / 1000 Ang^3
#
#
#
# Elastic Constant Matrix: (Units=GPa)
#
#
# Indices 1 2 3 4 5 6 
#
# 1 56.0180 -11.7345 5.8775 0.0000 0.0000 0.0000
# 2 -11.7345 56.0180 5.8775 0.0000 0.0000 0.0000
# 3 5.8775 5.8775 67.3328 0.0000 0.0000 0.0000
# 4 0.0000 0.0000 0.0000 11.4682 0.0000 0.0000
# 5 0.0000 0.0000 0.0000 0.0000 11.4682 0.0000
# 6 0.0000 0.0000 0.0000 0.0000 0.0000 15.6210
#
#
#
# Elastic Compliance Matrix: (Units=1/GPa)
#
#
# Indices 1 2 3 4 5 6 
#
# 1 0.018939 0.004179 -0.002018 0.000000 0.000000 0.000000
# 2 0.004179 0.018939 -0.002018 0.000000 0.000000 0.000000
# 3 -0.002018 -0.002018 0.015204 0.000000 0.000000 0.000000
# 4 0.000000 0.000000 0.000000 0.087197 0.000000 0.000000
# 5 0.000000 0.000000 0.000000 0.000000 0.087197 0.000000
# 6 0.000000 0.000000 0.000000 0.000000 0.000000 0.064016
#
#
# Mechanical properties :
#
#
# Convention : Reuss Voigt Hill
#
# Bulk Modulus (GPa) = 18.73817 19.93444 19.33631
# Shear Modulus (GPa) = 16.18150 19.66804 17.92477
#
# Velocity S-wave (km/s) = 2.85825 3.15117 3.00828
# Velocity P-wave (km/s) = 4.51145 4.82744 4.67212
#
# Compressibility (1/GPa) = 0.05336700
#
# Stress axis : x y z
#
# Youngs Moduli (GPa) = 52.80244 52.80244 65.77256
#
# Poissons Ratio (x) = -0.22066 0.13273
# Poissons Ratio (y) = -0.22066 0.13273
# Poissons Ratio (z) = 0.10655 0.10655
#
# Static dielectric constant tensor:
#      x y z
#    x 1.703280 0.000000 0.000000 
#    y 0.000000 1.703280 0.000000 
#    z 0.000000 0.000000 1.736070 
# 
# From -- ./inp_files/2322.got.cif
#   From: 2010.05.17/outbox.cif.g08.bks.cpg/sg127_2_cif.got.tgz:2322.got - 2010.05.20 12:03:00.
