data_PCOD9564981
_publ_section_title
;
Structure prediction by ZEFSAII (Michael W. Deem and Ramdas Pophale) SiO2 
 PCOD9564981
Probable space group: P 4/M N C
;
_chemical_formula_sum "Si O2"
_cell_formula_units_Z 80
_cell_length_a 15.605929
_cell_length_b 15.605929
_cell_length_c 15.523310
_cell_angle_alpha 90.000000
_cell_angle_beta 90.000000
_cell_angle_gamma 90.000000
_cell_volume 3780.624844
_symmetry_space_group_name_H-M "P 4/M N C"
_symmetry_group_IT_number 128
_symmetry_cell_setting 'tetragonal'
loop_
_space_group_symop_operation_xyz
x,y,z
-y,x,z
-x,-y,z
y,-x,z
1/2+x,1/2-y,1/2-z
1/2-x,1/2+y,1/2-z
1/2+y,1/2+x,1/2-z
1/2-y,1/2-x,1/2-z
-x,-y,-z
y,-x,-z
x,y,-z
-y,x,-z
1/2-x,1/2+y,1/2+z
1/2+x,1/2-y,1/2+z
1/2-y,1/2-x,1/2+z
1/2+y,1/2+x,1/2+z
loop_
_atom_site_type_symbol
_atom_site_label
_atom_site_fract_x
_atom_site_fract_y
_atom_site_fract_z
Si Si1 0.616776 0.415087 0.404515
Si Si2 0.837033 0.805930 0.250000
Si Si3 0.426036 0.073964 0.398917
Si Si4 0.883224 0.915087 0.595485
Si Si5 0.480806 0.833647 0.250000
O O1 0.613934 0.517419 0.396290
O O2 0.647190 0.393177 0.500000
O O3 0.667383 0.366267 0.332229
O O4 0.762761 0.737240 0.250000
O O5 0.832617 0.866267 0.332229
O O6 0.926810 0.753406 0.250000
O O7 0.405806 0.094194 0.500000
O O8 0.465331 0.149024 0.337729
O O9 0.500000 0.000000 0.402608
O O10 0.350976 0.034669 0.337729
O O11 0.852810 0.893176 0.500000
O O12 0.982581 0.886066 0.603710
O O13 0.409615 0.909615 0.250000
#
# Coordination Sequence:
#
# PCOD9564981 Si02
#       5
#    16  16  16  16  16
#     4   9  19  38  64  87 106 141 196 245 281 329
#     4  11  21  31  52  88 123 149 173 223 298 355
#     4   8  13  25  44  59  83 132 187 231 258 287
#     4   9  19  38  64  87 106 141 196 245 281 329
#     4   8  16  27  39  66 100 131 177 219 252 314
#
# _framework density 21.160523999999999
#
# number of rings (size 3 to 8) (size 9 to 14) (size 15 to 20)
#    0.000    3.000    0.000    3.600    0.000    4.000 
#    0.000    4.000   17.600    0.000    0.000    0.000 
#    0.000    0.000    0.000    0.000    0.000    0.000 
#
# Total GULP energy -446705.439437 kJ/mol
# GULP energy per Si atom -5583.817993 kJ/mol
# Density = 2.111236 g / cm^3
# Si number density = 21.160524 Si / 1000 Ang^3
#
#
#
# Elastic Constant Matrix: (Units=GPa)
#
#
# Indices 1 2 3 4 5 6 
#
# 1 40.9619 18.6468 54.2087 0.0000 0.0000 0.0000
# 2 18.6468 40.9624 54.2094 0.0000 0.0000 0.0000
# 3 54.2087 54.2094 210.3932 0.0000 0.0000 0.0000
# 4 0.0000 0.0000 0.0000 242.5674 0.0000 0.0000
# 5 0.0000 0.0000 0.0000 0.0000 242.2514 0.0000
# 6 0.0000 0.0000 0.0000 0.0000 0.0000 24.0031
#
#
#
# Elastic Compliance Matrix: (Units=1/GPa)
#
#
# Indices 1 2 3 4 5 6 
#
# 1 0.038192 -0.006621 -0.008134 0.000000 0.000000 0.000000
# 2 -0.006621 0.038192 -0.008135 0.000000 0.000000 0.000000
# 3 -0.008134 -0.008135 0.008945 0.000000 0.000000 0.000000
# 4 0.000000 0.000000 0.000000 0.004123 0.000000 0.000000
# 5 0.000000 0.000000 0.000000 0.000000 0.004128 0.000000
# 6 0.000000 0.000000 0.000000 0.000000 0.000000 0.041661
#
#
# Mechanical properties :
#
#
# Convention : Reuss Voigt Hill
#
# Bulk Modulus (GPa) = 25.28496 60.71636 43.00066
# Shear Modulus (GPa) = 25.74634 112.78120 69.26377
#
# Velocity S-wave (km/s) = 3.49193 7.30846 5.72744
# Velocity P-wave (km/s) = 5.31349 9.99868 8.00646
#
# Compressibility (1/GPa) = 0.03954921
#
# Stress axis : x y z
#
# Youngs Moduli (GPa) = 26.18356 26.18372 111.79671
#
# Poissons Ratio (x) = 0.17335 0.90941
# Poissons Ratio (y) = 0.17335 0.90942
# Poissons Ratio (z) = 0.21299 0.21299
#
# Static dielectric constant tensor:
#      x y z
#    x 1.762760 0.000000 0.000000 
#    y 0.000000 1.762760 0.000000 
#    z 0.000000 0.000000 1.742370 
# 
# From -- ./inp_files/3731.got.cif
#   From: 2010.05.17/outbox.cif.g08.bks.cpg/sg128_2_cif.got.tgz:3731.got - 2010.05.20 12:07:25.
