data_PCOD9564196
_publ_section_title
;
Structure prediction by ZEFSAII (Michael W. Deem and Ramdas Pophale) SiO2 
 PCOD9564196
Probable space group: P 4/M B M
;
_chemical_formula_sum "Si O2"
_cell_formula_units_Z 96
_cell_length_a 14.874197
_cell_length_b 14.874197
_cell_length_c 25.002127
_cell_angle_alpha 90.000000
_cell_angle_beta 90.000000
_cell_angle_gamma 90.000000
_cell_volume 5531.513991
_symmetry_space_group_name_H-M "P 4/M B M"
_symmetry_group_IT_number 127
_symmetry_cell_setting 'tetragonal'
loop_
_space_group_symop_operation_xyz
x,y,z
-y,x,z
-x,-y,z
y,-x,z
1/2+x,1/2-y,-z
1/2-x,1/2+y,-z
1/2+y,1/2+x,-z
1/2-y,1/2-x,-z
-x,-y,-z
y,-x,-z
x,y,-z
-y,x,-z
1/2-x,1/2+y,z
1/2+x,1/2-y,z
1/2-y,1/2-x,z
1/2+y,1/2+x,z
loop_
_atom_site_type_symbol
_atom_site_label
_atom_site_fract_x
_atom_site_fract_y
_atom_site_fract_z
Si Si1 0.288021 0.362879 0.385151
Si Si2 0.433850 0.781249 0.728309
Si Si3 0.854824 0.046367 0.824949
Si Si4 0.453289 0.645299 0.942510
Si Si5 0.427406 0.072595 0.577673
Si Si6 0.573915 0.926086 0.706115
Si Si7 0.722149 0.451391 0.440447
O O1 0.202980 0.297021 0.397356
O O2 0.269186 0.404169 0.326408
O O3 0.301174 0.448211 0.423376
O O4 0.378375 0.306747 0.396059
O O5 0.359256 0.859256 0.735549
O O6 0.434333 0.713299 0.777486
O O7 0.531172 0.830876 0.723439
O O8 0.943948 0.108393 0.821267
O O9 0.812122 0.060215 0.884217
O O10 0.391977 0.555475 0.942669
O O11 0.438111 0.692334 0.000000
O O12 0.425607 0.074394 0.642036
O O13 0.329330 0.048865 0.558419
O O14 0.500000 0.000000 0.561263
O O15 0.500000 0.000000 0.723336
O O16 0.688348 0.428003 0.500000
#
# Coordination Sequence:
#
# PCOD9564196 Si02
#       7
#    16  16  16  16   8   8  16
#     4  11  25  43  60  84 114 147 186 231 282 341
#     4  10  21  37  57  79 109 147 185 228 272 324
#     4   9  18  31  49  79 113 141 176 223 272 324
#     4   7  10  20  41  69 102 139 176 215 262 315
#     4  11  21  38  63  90 108 134 184 232 281 331
#     4   9  18  37  60  81 103 134 180 227 267 312
#     4  12  25  41  63  85 112 144 179 228 285 344
#
# _framework density 17.355104999999998
#
# number of rings (size 3 to 8) (size 9 to 14) (size 15 to 20)
#    0.000    2.167    2.500    2.750    2.333    2.667 
#    1.500    0.833    0.000    0.500    0.000    0.583 
#    0.000    2.000    0.000    0.000    0.000    0.000 
#
# Total GULP energy -534565.168374 kJ/mol
# GULP energy per Si atom -5568.387171 kJ/mol
# Density = 1.731560 g / cm^3
# Si number density = 17.355105 Si / 1000 Ang^3
#
#
#
# Elastic Constant Matrix: (Units=GPa)
#
#
# Indices 1 2 3 4 5 6 
#
# 1 70.4388 23.4676 38.5003 0.0000 0.0000 0.0000
# 2 23.4676 70.4388 38.5003 0.0000 0.0000 0.0000
# 3 38.5003 38.5003 117.8870 0.0000 0.0000 0.0000
# 4 0.0000 0.0000 0.0000 40.1287 0.0000 0.0000
# 5 0.0000 0.0000 0.0000 0.0000 40.1287 0.0000
# 6 0.0000 0.0000 0.0000 0.0000 0.0000 18.4998
#
#
#
# Elastic Compliance Matrix: (Units=1/GPa)
#
#
# Indices 1 2 3 4 5 6 
#
# 1 0.017917 -0.003373 -0.004750 0.000000 0.000000 0.000000
# 2 -0.003373 0.017917 -0.004750 0.000000 0.000000 0.000000
# 3 -0.004750 -0.004750 0.011585 0.000000 0.000000 0.000000
# 4 0.000000 0.000000 0.000000 0.024920 0.000000 0.000000
# 5 0.000000 0.000000 0.000000 0.000000 0.024920 0.000000
# 6 0.000000 0.000000 0.000000 0.000000 0.000000 0.054055
#
#
# Mechanical properties :
#
#
# Convention : Reuss Voigt Hill
#
# Bulk Modulus (GPa) = 46.13976 51.07787 48.60881
# Shear Modulus (GPa) = 27.13234 30.30456 28.71845
#
# Velocity S-wave (km/s) = 3.95823 4.18323 4.07228
# Velocity P-wave (km/s) = 6.89446 7.26825 7.08382
#
# Compressibility (1/GPa) = 0.02167328
#
# Stress axis : x y z
#
# Youngs Moduli (GPa) = 55.81426 55.81426 86.31790
#
# Poissons Ratio (x) = 0.18826 0.40999
# Poissons Ratio (y) = 0.18826 0.40999
# Poissons Ratio (z) = 0.26510 0.26510
#
# Static dielectric constant tensor:
#      x y z
#    x 1.577410 0.000000 0.000000 
#    y 0.000000 1.577410 0.000000 
#    z 0.000000 0.000000 1.620460 
# 
# From -- ./inp_files/6121.got.cif
#   From: 2010.05.17/outbox.cif.g08.bks.cpg/sg127_4_cif.got.tgz:6121.got - 2010.05.20 12:03:00.
