data_PCOD9564203
_publ_section_title
;
Structure prediction by ZEFSAII (Michael W. Deem and Ramdas Pophale) SiO2 
 PCOD9564203
Probable space group: P 4/M B M
;
_chemical_formula_sum "Si O2"
_cell_formula_units_Z 88
_cell_length_a 11.992602
_cell_length_b 11.992602
_cell_length_c 29.303983
_cell_angle_alpha 90.000000
_cell_angle_beta 90.000000
_cell_angle_gamma 90.000000
_cell_volume 4214.572175
_symmetry_space_group_name_H-M "P 4/M B M"
_symmetry_group_IT_number 127
_symmetry_cell_setting 'tetragonal'
loop_
_space_group_symop_operation_xyz
x,y,z
-y,x,z
-x,-y,z
y,-x,z
1/2+x,1/2-y,-z
1/2-x,1/2+y,-z
1/2+y,1/2+x,-z
1/2-y,1/2-x,-z
-x,-y,-z
y,-x,-z
x,y,-z
-y,x,-z
1/2-x,1/2+y,z
1/2+x,1/2-y,z
1/2-y,1/2-x,z
1/2+y,1/2+x,z
loop_
_atom_site_type_symbol
_atom_site_label
_atom_site_fract_x
_atom_site_fract_y
_atom_site_fract_z
Si Si1 0.313634 0.486519 0.713705
Si Si2 0.473379 0.686156 0.391705
Si Si3 0.737054 0.425208 0.948361
Si Si4 0.681579 0.995065 0.803956
Si Si5 0.594015 0.094015 0.445979
Si Si6 0.719584 0.601388 0.884694
O O1 0.400498 0.385221 0.719700
O O2 0.275614 0.476278 0.661308
O O3 0.221113 0.488867 0.752319
O O4 0.378286 0.591080 0.398507
O O5 0.447735 0.791013 0.423256
O O6 0.825035 0.325035 0.950668
O O7 0.788222 0.529112 0.921722
O O8 0.638509 0.386223 0.914470
O O9 0.702534 0.451704 0.000000
O O10 0.584183 0.084183 0.813350
O O11 0.780538 0.027970 0.838706
O O12 0.626099 0.873902 0.810996
O O13 0.609910 0.109910 0.500000
O O14 0.500000 0.000000 0.438989
O O15 0.785784 0.714217 0.873417
#
# Coordination Sequence:
#
# PCOD9564203 Si02
#       6
#    16  16  16  16   8  16
#     4   9  20  39  62  90 124 160 206 253 301 371
#     4   9  21  44  69  94 131 182 231 278 341 406
#     4  10  21  37  59  83 105 139 186 232 287 350
#     4  10  22  37  55  85 119 155 199 237 291 362
#     4  11  26  42  64 103 143 177 227 290 343 395
#     4  10  22  39  56  78 114 148 182 234 289 350
#
# _framework density 20.879937999999999
#
# number of rings (size 3 to 8) (size 9 to 14) (size 15 to 20)
#    0.000    2.273    0.000    2.182    5.091    4.727 
#    3.273    2.727    0.000    0.000    0.000    0.000 
#    0.000    0.000    0.000    0.000    0.000    0.000 
#
# Total GULP energy -490804.755248 kJ/mol
# GULP energy per Si atom -5577.326764 kJ/mol
# Density = 2.083241 g / cm^3
# Si number density = 20.879938 Si / 1000 Ang^3
#
#
#
# Elastic Constant Matrix: (Units=GPa)
#
#
# Indices 1 2 3 4 5 6 
#
# 1 71.5305 21.1395 63.2635 0.0000 0.0000 0.0000
# 2 21.1395 71.5305 63.2635 0.0000 0.0000 0.0000
# 3 63.2635 63.2635 141.8561 0.0000 0.0000 0.0000
# 4 0.0000 0.0000 0.0000 25.4735 0.0000 0.0000
# 5 0.0000 0.0000 0.0000 0.0000 25.4735 0.0000
# 6 0.0000 0.0000 0.0000 0.0000 0.0000 5.5098
#
#
#
# Elastic Compliance Matrix: (Units=1/GPa)
#
#
# Indices 1 2 3 4 5 6 
#
# 1 0.023718 0.003873 -0.012305 0.000000 0.000000 0.000000
# 2 0.003873 0.023718 -0.012305 0.000000 0.000000 0.000000
# 3 -0.012305 -0.012305 0.018025 0.000000 0.000000 0.000000
# 4 0.000000 0.000000 0.000000 0.039257 0.000000 0.000000
# 5 0.000000 0.000000 0.000000 0.000000 0.039257 0.000000
# 6 0.000000 0.000000 0.000000 0.000000 0.000000 0.181494
#
#
# Mechanical properties :
#
#
# Convention : Reuss Voigt Hill
#
# Bulk Modulus (GPa) = 41.68765 64.47225 53.07995
# Shear Modulus (GPa) = 13.33553 20.44138 16.88846
#
# Velocity S-wave (km/s) = 2.52995 3.13229 2.84709
# Velocity P-wave (km/s) = 5.34256 6.63523 6.02367
#
# Compressibility (1/GPa) = 0.02398792
#
# Stress axis : x y z
#
# Youngs Moduli (GPa) = 42.16163 42.16163 55.47926
#
# Poissons Ratio (x) = -0.16331 0.68268
# Poissons Ratio (y) = -0.16331 0.68268
# Poissons Ratio (z) = 0.51880 0.51880
#
# Static dielectric constant tensor:
#      x y z
#    x 1.806540 0.000000 0.000000 
#    y 0.000000 1.806540 0.000000 
#    z 0.000000 0.000000 1.728680 
# 
# From -- ./inp_files/6488.got.cif
#   From: 2010.05.17/outbox.cif.g08.bks.cpg/sg127_4_cif.got.tgz:6488.got - 2010.05.20 12:03:00.
