data_PCOD9564858
_publ_section_title
;
Structure prediction by ZEFSAII (Michael W. Deem and Ramdas Pophale) SiO2 
 PCOD9564858
Probable space group: P 4/M N C
;
_chemical_formula_sum "Si O2"
_cell_formula_units_Z 96
_cell_length_a 24.483369
_cell_length_b 24.483369
_cell_length_c 8.539141
_cell_angle_alpha 90.000000
_cell_angle_beta 90.000000
_cell_angle_gamma 90.000000
_cell_volume 5118.663039
_symmetry_space_group_name_H-M "P 4/M N C"
_symmetry_group_IT_number 128
_symmetry_cell_setting 'tetragonal'
loop_
_space_group_symop_operation_xyz
x,y,z
-y,x,z
-x,-y,z
y,-x,z
1/2+x,1/2-y,1/2-z
1/2-x,1/2+y,1/2-z
1/2+y,1/2+x,1/2-z
1/2-y,1/2-x,1/2-z
-x,-y,-z
y,-x,-z
x,y,-z
-y,x,-z
1/2-x,1/2+y,1/2+z
1/2+x,1/2-y,1/2+z
1/2-y,1/2-x,1/2+z
1/2+y,1/2+x,1/2+z
loop_
_atom_site_type_symbol
_atom_site_label
_atom_site_fract_x
_atom_site_fract_y
_atom_site_fract_z
Si Si1 0.222408 0.193326 0.811962
Si Si2 0.582665 0.469043 0.809310
Si Si3 0.498717 0.914502 0.812824
Si Si4 0.782651 0.633783 0.688369
Si Si5 0.792839 0.509579 0.311638
Si Si6 0.298677 0.572450 0.811886
O O1 0.276670 0.223331 0.750000
O O2 0.171777 0.232066 0.761077
O O3 0.214037 0.133124 0.746991
O O4 0.223953 0.192030 0.000000
O O5 0.568386 0.531138 0.760683
O O6 0.641309 0.447414 0.756535
O O7 0.583041 0.468854 0.000000
O O8 0.443836 0.943836 0.750000
O O9 0.503306 0.853062 0.752038
O O10 0.548324 0.951677 0.750000
O O11 0.498290 0.915878 0.000000
O O12 0.837129 0.662872 0.750000
O O13 0.784208 0.634672 0.500000
O O14 0.778482 0.571392 0.739500
O O15 0.793929 0.507688 0.500000
O O16 0.747713 0.468172 0.249258
O O17 0.298662 0.572015 0.000000
#
# Coordination Sequence:
#
# PCOD9564858 Si02
#       6
#    16  16  16  16  16  16
#     4  10  21  40  61  83 113 151 192 237 287 344
#     4   8  16  33  56  83 116 152 192 240 292 346
#     4  11  22  39  62  89 119 155 196 239 289 346
#     4   9  20  37  60  86 113 149 190 236 289 340
#     4  11  23  39  57  84 120 156 193 239 290 343
#     4  11  23  36  57  89 118 154 198 241 293 348
#
# _framework density 18.754898000000001
#
# number of rings (size 3 to 8) (size 9 to 14) (size 15 to 20)
#    0.000    2.000    0.000    4.500    2.333    4.000 
#    0.000    3.333    0.000    0.000    0.000    4.667 
#    0.000    0.000    0.000    0.000    0.000    0.000 
#
# Total GULP energy -536296.364675 kJ/mol
# GULP energy per Si atom -5586.420465 kJ/mol
# Density = 1.871221 g / cm^3
# Si number density = 18.754898 Si / 1000 Ang^3
#
#
#
# Elastic Constant Matrix: (Units=GPa)
#
#
# Indices 1 2 3 4 5 6 
#
# 1 219.6576 69.5613 42.9098 0.0000 0.0000 0.0000
# 2 69.5613 219.7327 42.9063 0.0000 0.0000 0.0000
# 3 42.9098 42.9063 66.6876 0.0000 0.0000 0.0000
# 4 0.0000 0.0000 0.0000 20.2446 0.0000 0.0000
# 5 0.0000 0.0000 0.0000 0.0000 20.2428 0.0000
# 6 0.0000 0.0000 0.0000 0.0000 0.0000 18.6400
#
#
#
# Elastic Compliance Matrix: (Units=1/GPa)
#
#
# Indices 1 2 3 4 5 6 
#
# 1 0.005468 -0.001194 -0.002750 0.000000 0.000000 0.000000
# 2 -0.001194 0.005466 -0.002748 0.000000 0.000000 0.000000
# 3 -0.002750 -0.002748 0.018533 0.000000 0.000000 0.000000
# 4 0.000000 0.000000 0.000000 0.049396 0.000000 0.000000
# 5 0.000000 0.000000 0.000000 0.000000 0.049400 0.000000
# 6 0.000000 0.000000 0.000000 0.000000 0.000000 0.053648
#
#
# Mechanical properties :
#
#
# Convention : Reuss Voigt Hill
#
# Bulk Modulus (GPa) = 62.18186 90.75920 76.47053
# Shear Modulus (GPa) = 24.91824 35.20550 30.06187
#
# Velocity S-wave (km/s) = 3.64899 4.33729 4.00794
# Velocity P-wave (km/s) = 7.14006 8.57789 7.89179
#
# Compressibility (1/GPa) = 0.01608186
#
# Stress axis : x y z
#
# Youngs Moduli (GPa) = 182.88643 182.96217 53.95767
#
# Poissons Ratio (x) = 0.21845 0.14839
# Poissons Ratio (y) = 0.21836 0.14829
# Poissons Ratio (z) = 0.50295 0.50283
#
# Static dielectric constant tensor:
#      x y z
#    x 1.628340 0.000000 0.000000 
#    y 0.000000 1.628340 0.000000 
#    z 0.000000 0.000000 1.639690 
# 
# From -- ./inp_files/1419.got.cif
#   From: 2010.05.17/outbox.cif.g08.bks.cpg/sg128_1_cif.got.tgz:1419.got - 2010.05.20 12:07:25.
