data_PCOD9564571
_publ_section_title
;
Structure prediction by ZEFSAII (Michael W. Deem and Ramdas Pophale) SiO2 
 PCOD9564571
Probable space group: P 4/M N C
;
_chemical_formula_sum "Si O2"
_cell_formula_units_Z 56
_cell_length_a 13.296285
_cell_length_b 13.296285
_cell_length_c 16.080607
_cell_angle_alpha 90.000000
_cell_angle_beta 90.000000
_cell_angle_gamma 90.000000
_cell_volume 2842.909725
_symmetry_space_group_name_H-M "P 4/M N C"
_symmetry_group_IT_number 128
_symmetry_cell_setting 'tetragonal'
loop_
_space_group_symop_operation_xyz
x,y,z
-y,x,z
-x,-y,z
y,-x,z
1/2+x,1/2-y,1/2-z
1/2-x,1/2+y,1/2-z
1/2+y,1/2+x,1/2-z
1/2-y,1/2-x,1/2-z
-x,-y,-z
y,-x,-z
x,y,-z
-y,x,-z
1/2-x,1/2+y,1/2+z
1/2+x,1/2-y,1/2+z
1/2-y,1/2-x,1/2+z
1/2+y,1/2+x,1/2+z
loop_
_atom_site_type_symbol
_atom_site_label
_atom_site_fract_x
_atom_site_fract_y
_atom_site_fract_z
Si Si1 0.563652 0.772827 0.219305
Si Si2 0.664385 0.164385 0.250000
Si Si3 0.757297 0.283240 0.092148
Si Si4 0.147013 0.071709 0.127674
O O1 0.642874 0.857127 0.250000
O O2 0.453345 0.812806 0.239586
O O3 0.602730 0.753070 0.126223
O O4 0.576147 0.671791 0.273912
O O5 0.710349 0.214244 0.165952
O O6 0.871739 0.241535 0.088806
O O7 0.713458 0.271985 0.000000
O O8 0.044321 0.129296 0.105900
#
# Coordination Sequence:
#
# PCOD9564571 Si02
#       4
#    16   8  16  16
#     4  10  20  39  61  87 121 163 205 252 316 378
#     4  12  21  42  66  85 122 174 206 252 318 387
#     4  11  23  38  60  93 126 160 211 265 315 379
#     4  10  18  35  61  86 116 157 206 259 312 365
#
# _framework density 19.698128000000001
#
# number of rings (size 3 to 8) (size 9 to 14) (size 15 to 20)
#    0.000    1.429    7.143    0.429    0.000    2.286 
#    0.000    1.429    0.000    5.143    0.000    6.000 
#    0.000    0.000    0.000    0.000    0.000    0.000 
#
# Total GULP energy -311845.096613 kJ/mol
# GULP energy per Si atom -5568.662440 kJ/mol
# Density = 1.965329 g / cm^3
# Si number density = 19.698128 Si / 1000 Ang^3
#
#
#
# Elastic Constant Matrix: (Units=GPa)
#
#
# Indices 1 2 3 4 5 6 
#
# 1 63.1283 29.7561 32.1986 0.0000 0.0000 0.0000
# 2 29.7561 63.1251 32.1971 0.0000 0.0000 0.0000
# 3 32.1986 32.1971 148.7875 0.0000 0.0000 0.0000
# 4 0.0000 0.0000 0.0000 5.5874 0.0000 0.0000
# 5 0.0000 0.0000 0.0000 0.0000 5.5876 0.0000
# 6 0.0000 0.0000 0.0000 0.0000 0.0000 25.8004
#
#
#
# Elastic Compliance Matrix: (Units=1/GPa)
#
#
# Indices 1 2 3 4 5 6 
#
# 1 0.021316 -0.008650 -0.002741 0.000000 0.000000 0.000000
# 2 -0.008650 0.021317 -0.002741 0.000000 0.000000 0.000000
# 3 -0.002741 -0.002741 0.007907 0.000000 0.000000 0.000000
# 4 0.000000 0.000000 0.000000 0.178974 0.000000 0.000000
# 5 0.000000 0.000000 0.000000 0.000000 0.178968 0.000000
# 6 0.000000 0.000000 0.000000 0.000000 0.000000 0.038759
#
#
# Mechanical properties :
#
#
# Convention : Reuss Voigt Hill
#
# Bulk Modulus (GPa) = 44.89073 51.48272 48.18672
# Shear Modulus (GPa) = 10.35343 19.45434 14.90389
#
# Velocity S-wave (km/s) = 2.29509 3.14606 2.75365
# Velocity P-wave (km/s) = 5.46462 6.27610 5.88437
#
# Compressibility (1/GPa) = 0.02227632
#
# Stress axis : x y z
#
# Youngs Moduli (GPa) = 46.91291 46.91081 126.46470
#
# Poissons Ratio (x) = 0.40577 0.34666
# Poissons Ratio (y) = 0.40579 0.34664
# Poissons Ratio (z) = 0.12859 0.12858
#
# Static dielectric constant tensor:
#      x y z
#    x 1.723780 0.000000 0.000000 
#    y 0.000000 1.723780 0.000000 
#    z 0.000000 0.000000 1.777010 
# 
# From -- ./inp_files/3382.got.cif
#   From: 2010.05.17/outbox.cif.g08.bks.cpg/sg128_2_cif.got.tgz:3382.got - 2010.05.20 12:07:25.
