data_PCOD9564304
_publ_section_title
;
Structure prediction by ZEFSAII (Michael W. Deem and Ramdas Pophale) SiO2 
 PCOD9564304
Probable space group: P 4/M B M
;
_chemical_formula_sum "Si O2"
_cell_formula_units_Z 84
_cell_length_a 12.031948
_cell_length_b 12.031948
_cell_length_c 28.953597
_cell_angle_alpha 90.000000
_cell_angle_beta 90.000000
_cell_angle_gamma 90.000000
_cell_volume 4191.547749
_symmetry_space_group_name_H-M "P 4/M B M"
_symmetry_group_IT_number 127
_symmetry_cell_setting 'tetragonal'
loop_
_space_group_symop_operation_xyz
x,y,z
-y,x,z
-x,-y,z
y,-x,z
1/2+x,1/2-y,-z
1/2-x,1/2+y,-z
1/2+y,1/2+x,-z
1/2-y,1/2-x,-z
-x,-y,-z
y,-x,-z
x,y,-z
-y,x,-z
1/2-x,1/2+y,z
1/2+x,1/2-y,z
1/2-y,1/2-x,z
1/2+y,1/2+x,z
loop_
_atom_site_type_symbol
_atom_site_label
_atom_site_fract_x
_atom_site_fract_y
_atom_site_fract_z
Si Si1 0.178001 0.054639 0.227666
Si Si2 0.328766 0.171235 0.152623
Si Si3 0.002125 0.324718 0.687351
Si Si4 0.956568 0.816173 0.500000
Si Si5 0.406776 0.658792 0.000000
Si Si6 0.685532 0.185532 0.921523
Si Si7 0.000000 0.500000 0.104986
Si Si8 0.456430 0.682810 0.399652
O O1 0.253770 0.093927 0.185657
O O2 0.070924 0.133467 0.225953
O O3 0.245822 0.056319 0.275429
O O4 0.249053 0.250948 0.120896
O O5 0.412876 0.087125 0.127537
O O6 0.098535 0.401466 0.709840
O O7 0.909229 0.409229 0.668888
O O8 0.053926 0.258261 0.644942
O O9 0.943253 0.760472 0.549979
O O10 0.872139 0.921008 0.500000
O O11 0.353053 0.538183 0.000000
O O12 0.369372 0.721471 0.954003
O O13 0.590698 0.090698 0.914675
O O14 0.371688 0.579465 0.397555
#
# Coordination Sequence:
#
# PCOD9564304 Si02
#       8
#    16   8  16   8   8   8   4  16
#     4  11  25  42  64  93 122 162 216 272 330 398
#     4  12  25  44  69  97 138 179 225 280 346 396
#     4  11  24  39  57  81 114 159 205 261 322 402
#     4   7  12  26  50  79 110 144 184 241 306 382
#     4  10  22  41  70 102 144 189 234 284 330 384
#     4  11  24  44  68 106 142 188 235 283 338 394
#     4  12  26  41  70 100 140 188 234 285 336 414
#     4   9  17  32  56  84 112 145 193 249 315 387
#
# _framework density 20.040327999999999
#
# number of rings (size 3 to 8) (size 9 to 14) (size 15 to 20)
#    0.000    1.714    0.952    4.571    2.667    5.333 
#    0.000    2.857    0.000    4.571    0.000    0.000 
#    0.000    0.000    0.000    0.000    0.000    0.000 
#
# Total GULP energy -468307.913057 kJ/mol
# GULP energy per Si atom -5575.094203 kJ/mol
# Density = 1.999472 g / cm^3
# Si number density = 20.040328 Si / 1000 Ang^3
#
#
#
# Elastic Constant Matrix: (Units=GPa)
#
#
# Indices 1 2 3 4 5 6 
#
# 1 61.1916 82.2562 50.1891 0.0000 0.0000 0.0000
# 2 82.2562 61.1916 50.1891 0.0000 0.0000 0.0000
# 3 50.1891 50.1891 119.1701 0.0000 0.0000 0.0000
# 4 0.0000 0.0000 0.0000 -46.2705 0.0000 0.0000
# 5 0.0000 0.0000 0.0000 0.0000 -46.2705 0.0000
# 6 0.0000 0.0000 0.0000 0.0000 0.0000 21.1971
#
#
#
# Elastic Compliance Matrix: (Units=1/GPa)
#
#
# Indices 1 2 3 4 5 6 
#
# 1 -0.018794 0.028678 -0.004163 0.000000 0.000000 0.000000
# 2 0.028678 -0.018794 -0.004163 0.000000 0.000000 0.000000
# 3 -0.004163 -0.004163 0.011898 0.000000 0.000000 0.000000
# 4 0.000000 0.000000 0.000000 -0.021612 0.000000 0.000000
# 5 0.000000 0.000000 0.000000 0.000000 -0.021612 0.000000
# 6 0.000000 0.000000 0.000000 0.000000 0.000000 0.047176
#
#
# Mechanical properties :
#
#
# Convention : Reuss Voigt Hill
#
# Bulk Modulus (GPa) = 66.60050 67.42467 67.01258
# Shear Modulus (GPa) = -87.04717 -10.34086 -48.69402
#
# Velocity S-wave (km/s) = -6.59775 -2.27403 -4.93465
# Velocity P-wave (km/s) = 4.97343 5.17905 1.02165
#
# Compressibility (1/GPa) = 0.01501490
#
# Stress axis : x y z
#
# Youngs Moduli (GPa) = -53.20728 -53.20728 84.05009
#
# Poissons Ratio (x) = 1.52590 0.34988
# Poissons Ratio (y) = 1.52590 0.34988
# Poissons Ratio (z) = -0.22149 -0.22149
#
# Static dielectric constant tensor:
#      x y z
#    x 1.715660 0.000000 0.000000 
#    y 0.000000 1.715660 0.000000 
#    z 0.000000 0.000000 1.710380 
# 
# From -- ./inp_files/6605.got.cif
#   From: 2010.05.17/outbox.cif.g08.bks.cpg/sg127_4_cif.got.tgz:6605.got - 2010.05.20 12:03:00.
