data_PCOD9564000
_publ_section_title
;
Structure prediction by ZEFSAII (Michael W. Deem and Ramdas Pophale) SiO2 
 PCOD9564000
Probable space group: P 4/M B M
;
_chemical_formula_sum "Si O2"
_cell_formula_units_Z 120
_cell_length_a 27.652876
_cell_length_b 27.652876
_cell_length_c 8.566773
_cell_angle_alpha 90.000000
_cell_angle_beta 90.000000
_cell_angle_gamma 90.000000
_cell_volume 6550.853265
_symmetry_space_group_name_H-M "P 4/M B M"
_symmetry_group_IT_number 127
_symmetry_cell_setting 'tetragonal'
loop_
_space_group_symop_operation_xyz
x,y,z
-y,x,z
-x,-y,z
y,-x,z
1/2+x,1/2-y,-z
1/2-x,1/2+y,-z
1/2+y,1/2+x,-z
1/2-y,1/2-x,-z
-x,-y,-z
y,-x,-z
x,y,-z
-y,x,-z
1/2-x,1/2+y,z
1/2+x,1/2-y,z
1/2-y,1/2-x,z
1/2+y,1/2+x,z
loop_
_atom_site_type_symbol
_atom_site_label
_atom_site_fract_x
_atom_site_fract_y
_atom_site_fract_z
Si Si1 0.151203 0.525598 0.313567
Si Si2 0.263058 0.841618 0.688708
Si Si3 0.052102 0.273681 0.813332
Si Si4 0.407644 0.231470 0.183928
Si Si5 0.959993 0.459993 0.309331
Si Si6 0.077944 0.008934 0.190478
Si Si7 0.188178 0.016399 0.189650
Si Si8 0.187693 0.769291 0.322344
O O1 0.150531 0.522425 0.500000
O O2 0.182228 0.480688 0.248123
O O3 0.183232 0.572219 0.265294
O O4 0.095295 0.527973 0.259953
O O5 0.262297 0.841760 0.500000
O O6 0.305243 0.805243 0.740203
O O7 0.274332 0.894088 0.750944
O O8 0.211386 0.818998 0.738181
O O9 0.028282 0.222424 0.764584
O O10 0.051247 0.275649 0.000000
O O11 0.438083 0.278735 0.236874
O O12 0.352950 0.244519 0.220113
O O13 0.416151 0.225210 0.000000
O O14 0.960221 0.460221 0.500000
O O15 0.000000 0.500000 0.259896
O O16 0.041420 0.052095 0.237188
O O17 0.133050 0.014623 0.246282
O O18 0.078846 0.009082 0.000000
O O19 0.185611 0.017083 0.000000
O O20 0.169368 0.775877 0.500000
O O21 0.232609 0.732609 0.331094
#
# Coordination Sequence:
#
# PCOD9564000 Si02
#       8
#    16  16  16  16   8  16  16  16
#     4  10  20  36  58  80 105 141 179 218 268 327
#     4   9  19  36  55  75 101 136 177 219 260 312
#     4  10  20  34  52  77 108 139 173 216 265 321
#     4  10  20  33  50  76 108 139 173 216 266 322
#     4   9  20  38  59  83 105 129 175 229 267 317
#     4   8  13  22  38  60  87 124 169 209 245 290
#     4   8  16  29  42  63  99 133 163 202 249 304
#     4   9  19  35  53  74 102 135 175 218 260 314
#
# _framework density 18.318225000000002
#
# number of rings (size 3 to 8) (size 9 to 14) (size 15 to 20)
#    0.000    2.867    0.000    3.200    0.933    2.667 
#    0.000    6.333    0.000    2.800    0.000    0.000 
#    0.000    0.000    0.000   52.800    0.000   47.467 
#
# Total GULP energy -668526.546306 kJ/mol
# GULP energy per Si atom -5571.054553 kJ/mol
# Density = 1.827653 g / cm^3
# Si number density = 18.318225 Si / 1000 Ang^3
#
#
#
# Elastic Constant Matrix: (Units=GPa)
#
#
# Indices 1 2 3 4 5 6 
#
# 1 124.0362 50.4253 12.2775 0.0000 0.0000 0.0000
# 2 50.4253 124.0362 12.2775 0.0000 0.0000 0.0000
# 3 12.2775 12.2775 14.5914 0.0000 0.0000 0.0000
# 4 0.0000 0.0000 0.0000 16.4076 0.0000 0.0000
# 5 0.0000 0.0000 0.0000 0.0000 16.4076 0.0000
# 6 0.0000 0.0000 0.0000 0.0000 0.0000 11.1554
#
#
#
# Elastic Compliance Matrix: (Units=1/GPa)
#
#
# Indices 1 2 3 4 5 6 
#
# 1 0.010043 -0.003542 -0.005471 0.000000 0.000000 0.000000
# 2 -0.003542 0.010043 -0.005471 0.000000 0.000000 0.000000
# 3 -0.005471 -0.005471 0.077740 0.000000 0.000000 0.000000
# 4 0.000000 0.000000 0.000000 0.060948 0.000000 0.000000
# 5 0.000000 0.000000 0.000000 0.000000 0.060948 0.000000
# 6 0.000000 0.000000 0.000000 0.000000 0.000000 0.089642
#
#
# Mechanical properties :
#
#
# Convention : Reuss Voigt Hill
#
# Bulk Modulus (GPa) = 14.52211 45.84714 30.18462
# Shear Modulus (GPa) = 13.83951 21.30634 17.57292
#
# Velocity S-wave (km/s) = 2.75163 3.41416 3.10064
# Velocity P-wave (km/s) = 4.24737 6.37373 5.41593
#
# Compressibility (1/GPa) = 0.06886053
#
# Stress axis : x y z
#
# Youngs Moduli (GPa) = 99.56744 99.56744 12.86338
#
# Poissons Ratio (x) = 0.35262 0.07037
# Poissons Ratio (y) = 0.35262 0.07037
# Poissons Ratio (z) = 0.54472 0.54472
#
# Static dielectric constant tensor:
#      x y z
#    x 1.632200 0.000000 0.000000 
#    y 0.000000 1.632200 0.000000 
#    z 0.000000 0.000000 1.629050 
# 
# From -- ./inp_files/2409.got.cif
#   From: 2010.05.17/outbox.cif.g08.bks.cpg/sg127_2_cif.got.tgz:2409.got - 2010.05.20 12:03:00.
