data_PCOD9564086
_publ_section_title
;
Structure prediction by ZEFSAII (Michael W. Deem and Ramdas Pophale) SiO2 
 PCOD9564086
Probable space group: P 4/M B M
;
_chemical_formula_sum "Si O2"
_cell_formula_units_Z 64
_cell_length_a 20.553904
_cell_length_b 20.553904
_cell_length_c 8.380053
_cell_angle_alpha 90.000000
_cell_angle_beta 90.000000
_cell_angle_gamma 90.000000
_cell_volume 3540.262076
_symmetry_space_group_name_H-M "P 4/M B M"
_symmetry_group_IT_number 127
_symmetry_cell_setting 'tetragonal'
loop_
_space_group_symop_operation_xyz
x,y,z
-y,x,z
-x,-y,z
y,-x,z
1/2+x,1/2-y,-z
1/2-x,1/2+y,-z
1/2+y,1/2+x,-z
1/2-y,1/2-x,-z
-x,-y,-z
y,-x,-z
x,y,-z
-y,x,-z
1/2-x,1/2+y,z
1/2+x,1/2-y,z
1/2-y,1/2-x,z
1/2+y,1/2+x,z
loop_
_atom_site_type_symbol
_atom_site_label
_atom_site_fract_x
_atom_site_fract_y
_atom_site_fract_z
Si Si1 0.681054 0.075323 0.693339
Si Si2 0.326659 0.576635 0.689181
Si Si3 0.567071 0.324601 0.187227
Si Si4 0.926679 0.321851 0.694484
O O1 0.683941 0.076391 0.500000
O O2 0.627479 0.127479 0.745178
O O3 0.752977 0.089636 0.757708
O O4 0.664134 0.001223 0.741970
O O5 0.330302 0.588390 0.500000
O O6 0.378470 0.622466 0.773551
O O7 0.339219 0.500581 0.722984
O O8 0.252153 0.589341 0.742912
O O9 0.553289 0.323547 0.000000
O O10 0.925646 0.322530 0.500000
O O11 0.874905 0.374905 0.751108
#
# Coordination Sequence:
#
# PCOD9564086 Si02
#       4
#    16  16  16  16
#     4   9  18  33  53  77 106 142 182 220 261 313
#     4  10  20  36  56  78 105 138 175 215 262 319
#     4  11  22  36  54  78 107 138 174 218 267 316
#     4   8  15  29  51  79 106 132 169 219 265 302
#
# _framework density 18.077756999999998
#
# number of rings (size 3 to 8) (size 9 to 14) (size 15 to 20)
#    0.000    2.500    0.000    4.500    0.000    2.500 
#    0.000    7.500    0.000   18.000    0.000    7.000 
#    0.000    0.000    0.000    0.000    0.000    0.000 
#
# Total GULP energy -357064.069472 kJ/mol
# GULP energy per Si atom -5579.126085 kJ/mol
# Density = 1.803661 g / cm^3
# Si number density = 18.077757 Si / 1000 Ang^3
#
#
#
# Elastic Constant Matrix: (Units=GPa)
#
#
# Indices 1 2 3 4 5 6 
#
# 1 87.2359 77.4226 -10.4884 0.0000 0.0000 0.0000
# 2 77.4226 87.2359 -10.4884 0.0000 0.0000 0.0000
# 3 -10.4884 -10.4884 15.0851 0.0000 0.0000 0.0000
# 4 0.0000 0.0000 0.0000 -3.4637 0.0000 0.0000
# 5 0.0000 0.0000 0.0000 0.0000 -3.4637 0.0000
# 6 0.0000 0.0000 0.0000 0.0000 0.0000 41.6581
#
#
#
# Elastic Compliance Matrix: (Units=1/GPa)
#
#
# Indices 1 2 3 4 5 6 
#
# 1 0.054283 -0.047620 0.004633 0.000000 0.000000 0.000000
# 2 -0.047620 0.054283 0.004633 0.000000 0.000000 0.000000
# 3 0.004633 0.004633 0.072733 0.000000 0.000000 0.000000
# 4 0.000000 0.000000 0.000000 -0.288708 0.000000 0.000000
# 5 0.000000 0.000000 0.000000 0.000000 -0.288708 0.000000
# 6 0.000000 0.000000 0.000000 0.000000 0.000000 0.024005
#
#
# Mechanical properties :
#
#
# Convention : Reuss Voigt Hill
#
# Bulk Modulus (GPa) = 9.56103 33.60539 21.58321
# Shear Modulus (GPa) = -19.19092 15.82021 -1.68536
#
# Velocity S-wave (km/s) = -3.26172 2.96145 -0.96660
# Velocity P-wave (km/s) = 2.98073 5.50666 3.27403
#
# Compressibility (1/GPa) = 0.10459122
#
# Stress axis : x y z
#
# Youngs Moduli (GPa) = 18.42196 18.42196 13.74896
#
# Poissons Ratio (x) = 0.87725 -0.06370
# Poissons Ratio (y) = 0.87725 -0.06370
# Poissons Ratio (z) = -0.08535 -0.08535
#
# Static dielectric constant tensor:
#      x y z
#    x 1.599810 0.000000 0.000000 
#    y 0.000000 1.599810 0.000000 
#    z 0.000000 0.000000 1.609300 
# 
# From -- ./inp_files/1356.got.cif
#   From: 2010.05.17/outbox.cif.g08.bks.cpg/sg127_1_cif.got.tgz:1356.got - 2010.05.20 12:03:00.
