data_PCOD9564090
_publ_section_title
;
Structure prediction by ZEFSAII (Michael W. Deem and Ramdas Pophale) SiO2 
 PCOD9564090
Probable space group: P 4/M B M
;
_chemical_formula_sum "Si O2"
_cell_formula_units_Z 56
_cell_length_a 14.321947
_cell_length_b 14.321947
_cell_length_c 13.722255
_cell_angle_alpha 90.000000
_cell_angle_beta 90.000000
_cell_angle_gamma 90.000000
_cell_volume 2814.683777
_symmetry_space_group_name_H-M "P 4/M B M"
_symmetry_group_IT_number 127
_symmetry_cell_setting 'tetragonal'
loop_
_space_group_symop_operation_xyz
x,y,z
-y,x,z
-x,-y,z
y,-x,z
1/2+x,1/2-y,-z
1/2-x,1/2+y,-z
1/2+y,1/2+x,-z
1/2-y,1/2-x,-z
-x,-y,-z
y,-x,-z
x,y,-z
-y,x,-z
1/2-x,1/2+y,z
1/2+x,1/2-y,z
1/2-y,1/2-x,z
1/2+y,1/2+x,z
loop_
_atom_site_type_symbol
_atom_site_label
_atom_site_fract_x
_atom_site_fract_y
_atom_site_fract_z
Si Si1 0.999983 0.652033 0.797613
Si Si2 0.710849 0.366681 0.703947
Si Si3 0.708441 0.632983 0.893992
Si Si4 0.883246 0.897774 0.500000
O O1 0.084287 0.584287 0.832939
O O2 0.044679 0.720668 0.717814
O O3 0.917716 0.582285 0.762781
O O4 0.952710 0.720187 0.876021
O O5 0.777213 0.277213 0.706035
O O6 0.645506 0.357468 0.799838
O O7 0.660168 0.365055 0.601364
O O8 0.775376 0.724625 0.896576
O O9 0.662328 0.625127 0.000000
O O10 0.991148 0.873111 0.500000
#
# Coordination Sequence:
#
# PCOD9564090 Si02
#       4
#    16  16  16   8
#     4   9  18  33  54  81 112 144 180 225 274 322
#     4  10  20  36  57  80 109 143 180 222 272 330
#     4   9  18  32  51  78 112 148 183 219 264 321
#     4  11  23  38  56  77 103 139 184 229 272 323
#
# _framework density 19.895662999999999
#
# number of rings (size 3 to 8) (size 9 to 14) (size 15 to 20)
#    0.000    2.429    0.000    2.143    0.000    1.714 
#    0.000    7.857    0.000    3.429    0.000    6.000 
#    0.000    0.000    0.000    0.000    0.000    0.000 
#
# Total GULP energy -312053.512745 kJ/mol
# GULP energy per Si atom -5572.384156 kJ/mol
# Density = 1.985038 g / cm^3
# Si number density = 19.895663 Si / 1000 Ang^3
#
#
#
# Elastic Constant Matrix: (Units=GPa)
#
#
# Indices 1 2 3 4 5 6 
#
# 1 52.4632 3.6956 27.3653 0.0000 0.0000 0.0000
# 2 3.6956 52.4632 27.3653 0.0000 0.0000 0.0000
# 3 27.3653 27.3653 146.7581 0.0000 0.0000 0.0000
# 4 0.0000 0.0000 0.0000 48.0220 0.0000 0.0000
# 5 0.0000 0.0000 0.0000 0.0000 48.0220 0.0000
# 6 0.0000 0.0000 0.0000 0.0000 0.0000 15.1877
#
#
#
# Elastic Compliance Matrix: (Units=1/GPa)
#
#
# Indices 1 2 3 4 5 6 
#
# 1 0.021133 0.000628 -0.004058 0.000000 0.000000 0.000000
# 2 0.000628 0.021133 -0.004058 0.000000 0.000000 0.000000
# 3 -0.004058 -0.004058 0.008327 0.000000 0.000000 0.000000
# 4 0.000000 0.000000 0.000000 0.020824 0.000000 0.000000
# 5 0.000000 0.000000 0.000000 0.000000 0.020824 0.000000
# 6 0.000000 0.000000 0.000000 0.000000 0.000000 0.065843
#
#
# Mechanical properties :
#
#
# Convention : Reuss Voigt Hill
#
# Bulk Modulus (GPa) = 28.07515 40.94852 34.51184
# Shear Modulus (GPa) = 27.03698 35.13024 31.08361
#
# Velocity S-wave (km/s) = 3.69038 4.20661 3.95692
# Velocity P-wave (km/s) = 5.68334 6.64984 6.18550
#
# Compressibility (1/GPa) = 0.03561868
#
# Stress axis : x y z
#
# Youngs Moduli (GPa) = 47.31869 47.31869 120.08884
#
# Poissons Ratio (x) = -0.02971 0.48728
# Poissons Ratio (y) = -0.02971 0.48728
# Poissons Ratio (z) = 0.19200 0.19200
#
# Static dielectric constant tensor:
#      x y z
#    x 1.721260 0.000000 0.000000 
#    y 0.000000 1.721260 0.000000 
#    z 0.000000 0.000000 1.724600 
# 
# From -- ./inp_files/2856.got.cif
#   From: 2010.05.17/outbox.cif.g08.bks.cpg/sg127_2_cif.got.tgz:2856.got - 2010.05.20 12:03:00.
