data_PCOD9564472
_publ_section_title
;
Structure prediction by ZEFSAII (Michael W. Deem and Ramdas Pophale) SiO2 
 PCOD9564472
Probable space group: P 4/M B M
;
_chemical_formula_sum "Si O2"
_cell_formula_units_Z 64
_cell_length_a 16.717528
_cell_length_b 16.717528
_cell_length_c 10.690967
_cell_angle_alpha 90.000000
_cell_angle_beta 90.000000
_cell_angle_gamma 90.000000
_cell_volume 2987.865940
_symmetry_space_group_name_H-M "P 4/M B M"
_symmetry_group_IT_number 127
_symmetry_cell_setting 'tetragonal'
loop_
_space_group_symop_operation_xyz
x,y,z
-y,x,z
-x,-y,z
y,-x,z
1/2+x,1/2-y,-z
1/2-x,1/2+y,-z
1/2+y,1/2+x,-z
1/2-y,1/2-x,-z
-x,-y,-z
y,-x,-z
x,y,-z
-y,x,-z
1/2-x,1/2+y,z
1/2+x,1/2-y,z
1/2-y,1/2-x,z
1/2+y,1/2+x,z
loop_
_atom_site_type_symbol
_atom_site_label
_atom_site_fract_x
_atom_site_fract_y
_atom_site_fract_z
Si Si1 0.496332 0.134134 0.136678
Si Si2 0.160989 0.792644 0.645472
Si Si3 0.380226 0.562994 0.854781
Si Si4 0.795779 0.570931 0.365812
O O1 0.414781 0.085220 0.153315
O O2 0.514605 0.192918 0.248542
O O3 0.566377 0.066377 0.134802
O O4 0.497183 0.173015 0.000000
O O5 0.133137 0.790141 0.500000
O O6 0.210894 0.710894 0.670902
O O7 0.099364 0.820717 0.751650
O O8 0.226479 0.864290 0.648532
O O9 0.395861 0.468040 0.838661
O O10 0.356226 0.577476 0.000000
O O11 0.786842 0.529856 0.500000
O O12 0.876728 0.623273 0.370855
#
# Coordination Sequence:
#
# PCOD9564472 Si02
#       4
#    16  16  16  16
#     4   8  13  20  30  47  73 106 148 199 249 296
#     4   9  18  32  51  79 113 144 178 224 276 333
#     4   9  19  36  57  83 115 148 185 233 286 339
#     4   8  14  24  37  56  85 119 154 195 244 297
#
# _framework density 21.419971
#
# number of rings (size 3 to 8) (size 9 to 14) (size 15 to 20)
#    0.000    3.500    0.000    3.000    0.000    3.000 
#    0.000    6.250    0.000    1.500    0.000    0.000 
#    0.000    0.000    0.000    0.000    0.000    0.000 
#
# Total GULP energy -357046.192148 kJ/mol
# GULP energy per Si atom -5578.846752 kJ/mol
# Density = 2.137122 g / cm^3
# Si number density = 21.419971 Si / 1000 Ang^3
#
#
#
# Elastic Constant Matrix: (Units=GPa)
#
#
# Indices 1 2 3 4 5 6 
#
# 1 79.3901 58.2975 90.8089 0.0000 0.0000 0.0000
# 2 58.2975 79.3901 90.8089 0.0000 0.0000 0.0000
# 3 90.8089 90.8089 179.9059 0.0000 0.0000 0.0000
# 4 0.0000 0.0000 0.0000 10.5896 0.0000 0.0000
# 5 0.0000 0.0000 0.0000 0.0000 10.5896 0.0000
# 6 0.0000 0.0000 0.0000 0.0000 0.0000 43.6944
#
#
#
# Elastic Compliance Matrix: (Units=1/GPa)
#
#
# Indices 1 2 3 4 5 6 
#
# 1 0.034571 -0.012839 -0.010970 0.000000 0.000000 0.000000
# 2 -0.012839 0.034571 -0.010970 0.000000 0.000000 0.000000
# 3 -0.010970 -0.010970 0.016632 0.000000 0.000000 0.000000
# 4 0.000000 0.000000 0.000000 0.094432 0.000000 0.000000
# 5 0.000000 0.000000 0.000000 0.000000 0.094432 0.000000
# 6 0.000000 0.000000 0.000000 0.000000 0.000000 0.022886
#
#
# Mechanical properties :
#
#
# Convention : Reuss Voigt Hill
#
# Bulk Modulus (GPa) = 61.65694 90.94629 76.30162
# Shear Modulus (GPa) = 13.42330 19.55946 16.49138
#
# Velocity S-wave (km/s) = 2.50606 3.02510 2.77773
# Velocity P-wave (km/s) = 6.10091 7.39949 6.78135
#
# Compressibility (1/GPa) = 0.01621877
#
# Stress axis : x y z
#
# Youngs Moduli (GPa) = 28.92590 28.92590 60.12371
#
# Poissons Ratio (x) = 0.37137 0.65953
# Poissons Ratio (y) = 0.37137 0.65953
# Poissons Ratio (z) = 0.31730 0.31730
#
# Static dielectric constant tensor:
#      x y z
#    x 1.768360 0.000000 0.000000 
#    y 0.000000 1.768360 0.000000 
#    z 0.000000 0.000000 1.781240 
# 
# From -- ./inp_files/3040.got.cif
#   From: 2010.05.17/outbox.cif.g08.bks.cpg/sg127_2_cif.got.tgz:3040.got - 2010.05.20 12:03:00.
