data_PCOD9564536
_publ_section_title
;
Structure prediction by ZEFSAII (Michael W. Deem and Ramdas Pophale) SiO2 
 PCOD9564536
Probable space group: P 4/M N C
;
_chemical_formula_sum "Si O2"
_cell_formula_units_Z 96
_cell_length_a 16.504928
_cell_length_b 16.504928
_cell_length_c 19.236496
_cell_angle_alpha 90.000000
_cell_angle_beta 90.000000
_cell_angle_gamma 90.000000
_cell_volume 5240.264819
_symmetry_space_group_name_H-M "P 4/M N C"
_symmetry_group_IT_number 128
_symmetry_cell_setting 'tetragonal'
loop_
_space_group_symop_operation_xyz
x,y,z
-y,x,z
-x,-y,z
y,-x,z
1/2+x,1/2-y,1/2-z
1/2-x,1/2+y,1/2-z
1/2+y,1/2+x,1/2-z
1/2-y,1/2-x,1/2-z
-x,-y,-z
y,-x,-z
x,y,-z
-y,x,-z
1/2-x,1/2+y,1/2+z
1/2+x,1/2-y,1/2+z
1/2-y,1/2-x,1/2+z
1/2+y,1/2+x,1/2+z
loop_
_atom_site_type_symbol
_atom_site_label
_atom_site_fract_x
_atom_site_fract_y
_atom_site_fract_z
Si Si1 0.160340 0.232896 0.349526
Si Si2 0.870634 0.041841 0.579265
Si Si3 0.419080 0.898335 0.149881
Si Si4 0.802337 0.302337 0.750000
Si Si5 0.397132 0.085397 0.153128
Si Si6 0.753243 0.741685 0.000000
Si Si7 0.162010 0.594952 0.500000
Si Si8 0.586875 0.147553 0.500000
O O1 0.073664 0.191602 0.364080
O O2 0.140951 0.325899 0.330336
O O3 0.216982 0.194410 0.290639
O O4 0.203704 0.223800 0.425855
O O5 0.838673 0.049519 0.500000
O O6 0.950299 0.098279 0.585978
O O7 0.512107 0.885266 0.171435
O O8 0.394777 0.989686 0.169891
O O9 0.409230 0.901127 0.066446
O O10 0.868813 0.324867 0.808041
O O11 0.387922 0.101792 0.071120
O O12 0.729091 0.835346 0.000000
O O13 0.847132 0.718008 0.000000
O O14 0.188039 0.501238 0.500000
#
# Coordination Sequence:
#
# PCOD9564536 Si02
#       8
#    16  16  16   8  16   8   8   8
#     4  11  22  37  54  84 112 148 188 233 281 334
#     4   9  19  36  59  87 114 143 185 229 279 342
#     4   9  20  37  60  82 117 145 184 233 289 337
#     4  12  26  35  50  81 114 144 202 226 268 342
#     4  10  21  38  59  86 110 150 186 230 287 345
#     4  10  18  34  56  80 108 140 184 226 285 335
#     4  10  17  34  61  80 114 141 177 234 283 336
#     4   8  17  32  55  92 108 135 183 230 282 346
#
# _framework density 18.319683999999999
#
# number of rings (size 3 to 8) (size 9 to 14) (size 15 to 20)
#    0.000    2.167    2.500    1.000    2.333    4.667 
#    0.000    0.000    0.000    0.250    0.000    0.000 
#    0.000    0.000    0.000    0.000    0.000    0.000 
#
# Total GULP energy -534875.524554 kJ/mol
# GULP energy per Si atom -5571.620047 kJ/mol
# Density = 1.827799 g / cm^3
# Si number density = 18.319684 Si / 1000 Ang^3
#
#
#
# Elastic Constant Matrix: (Units=GPa)
#
#
# Indices 1 2 3 4 5 6 
#
# 1 54.4032 39.3953 23.7272 0.0000 0.0000 0.0000
# 2 39.3953 54.4032 23.7272 0.0000 0.0000 0.0000
# 3 23.7272 23.7272 99.8069 0.0000 0.0000 0.0000
# 4 0.0000 0.0000 0.0000 3.6198 0.0000 0.0000
# 5 0.0000 0.0000 0.0000 0.0000 3.6198 0.0000
# 6 0.0000 0.0000 0.0000 0.0000 0.0000 24.1193
#
#
#
# Elastic Compliance Matrix: (Units=1/GPa)
#
#
# Indices 1 2 3 4 5 6 
#
# 1 0.039375 -0.027256 -0.002881 0.000000 0.000000 0.000000
# 2 -0.027256 0.039375 -0.002881 0.000000 0.000000 0.000000
# 3 -0.002881 -0.002881 0.011389 0.000000 0.000000 0.000000
# 4 0.000000 0.000000 0.000000 0.276259 0.000000 0.000000
# 5 0.000000 0.000000 0.000000 0.000000 0.276259 0.000000
# 6 0.000000 0.000000 0.000000 0.000000 0.000000 0.041461
#
#
# Mechanical properties :
#
#
# Convention : Reuss Voigt Hill
#
# Bulk Modulus (GPa) = 41.48934 42.47919 41.98426
# Shear Modulus (GPa) = 6.59465 14.38936 10.49201
#
# Velocity S-wave (km/s) = 1.89936 2.80564 2.39575
# Velocity P-wave (km/s) = 5.24468 5.80806 5.53355
#
# Compressibility (1/GPa) = 0.02410258
#
# Stress axis : x y z
#
# Youngs Moduli (GPa) = 25.39671 25.39671 87.80289
#
# Poissons Ratio (x) = 0.69223 0.25296
# Poissons Ratio (y) = 0.69223 0.25296
# Poissons Ratio (z) = 0.07317 0.07317
#
# Static dielectric constant tensor:
#      x y z
#    x 1.629150 0.000000 0.000000 
#    y 0.000000 1.629150 0.000000 
#    z 0.000000 0.000000 1.681210 
# 
# From -- ./inp_files/4854.got.cif
#   From: 2010.05.17/outbox.cif.g08.bks.cpg/sg128_3_cif.got.tgz:4854.got - 2010.05.20 12:07:25.
