data_PCOD9564862
_publ_section_title
;
Structure prediction by ZEFSAII (Michael W. Deem and Ramdas Pophale) SiO2 
 PCOD9564862
Probable space group: P 4/M N C
;
_chemical_formula_sum "Si O2"
_cell_formula_units_Z 64
_cell_length_a 13.904566
_cell_length_b 13.904566
_cell_length_c 14.463290
_cell_angle_alpha 90.000000
_cell_angle_beta 90.000000
_cell_angle_gamma 90.000000
_cell_volume 2796.288457
_symmetry_space_group_name_H-M "P 4/M N C"
_symmetry_group_IT_number 128
_symmetry_cell_setting 'tetragonal'
loop_
_space_group_symop_operation_xyz
x,y,z
-y,x,z
-x,-y,z
y,-x,z
1/2+x,1/2-y,1/2-z
1/2-x,1/2+y,1/2-z
1/2+y,1/2+x,1/2-z
1/2-y,1/2-x,1/2-z
-x,-y,-z
y,-x,-z
x,y,-z
-y,x,-z
1/2-x,1/2+y,1/2+z
1/2+x,1/2-y,1/2+z
1/2-y,1/2-x,1/2+z
1/2+y,1/2+x,1/2+z
loop_
_atom_site_type_symbol
_atom_site_label
_atom_site_fract_x
_atom_site_fract_y
_atom_site_fract_z
Si Si1 0.419195 0.702224 0.103482
Si Si2 0.910811 0.879719 0.797555
Si Si3 0.104897 0.537378 0.888009
Si Si4 0.693747 0.762254 0.604269
O O1 0.428791 0.629870 0.188234
O O2 0.468196 0.804000 0.132610
O O3 0.304592 0.709371 0.096006
O O4 0.457250 0.677919 0.000000
O O5 0.830412 0.807581 0.830884
O O6 0.018582 0.870367 0.833372
O O7 0.132892 0.646238 0.859871
O O8 0.000000 0.500000 0.856469
O O9 0.100909 0.539857 0.000000
O O10 0.659817 0.738035 0.500000
#
# Coordination Sequence:
#
# PCOD9564862 Si02
#       4
#    16  16  16  16
#     4  10  21  40  67  94 127 170 217 278 341 397
#     4  11  25  41  61  90 129 175 221 268 321 399
#     4   9  19  37  66 102 131 165 222 283 346 412
#     4  10  22  40  65  93 132 177 216 272 335 394
#
# _framework density 22.88748
#
# number of rings (size 3 to 8) (size 9 to 14) (size 15 to 20)
#    0.000    2.000    0.000    2.250    3.500    4.000 
#    0.000    2.500    0.000    0.000    0.000    0.000 
#    0.000    0.000    0.000    0.000    0.000    0.000 
#
# Total GULP energy -357054.791629 kJ/mol
# GULP energy per Si atom -5578.981119 kJ/mol
# Density = 2.283539 g / cm^3
# Si number density = 22.887480 Si / 1000 Ang^3
#
#
#
# Elastic Constant Matrix: (Units=GPa)
#
#
# Indices 1 2 3 4 5 6 
#
# 1 31.7653 23.7245 8.2444 0.0000 0.0000 0.0000
# 2 23.7245 31.7653 8.2444 0.0000 0.0000 0.0000
# 3 8.2444 8.2444 62.8003 0.0000 0.0000 0.0000
# 4 0.0000 0.0000 0.0000 27.7394 0.0000 0.0000
# 5 0.0000 0.0000 0.0000 0.0000 27.7394 0.0000
# 6 0.0000 0.0000 0.0000 0.0000 0.0000 34.1133
#
#
#
# Elastic Compliance Matrix: (Units=1/GPa)
#
#
# Indices 1 2 3 4 5 6 
#
# 1 0.071559 -0.052807 -0.002462 0.000000 0.000000 0.000000
# 2 -0.052807 0.071559 -0.002462 0.000000 0.000000 0.000000
# 3 -0.002462 -0.002462 0.016570 0.000000 0.000000 0.000000
# 4 0.000000 0.000000 0.000000 0.036050 0.000000 0.000000
# 5 0.000000 0.000000 0.000000 0.000000 0.036050 0.000000
# 6 0.000000 0.000000 0.000000 0.000000 0.000000 0.029314
#
#
# Mechanical properties :
#
#
# Convention : Reuss Voigt Hill
#
# Bulk Modulus (GPa) = 22.61005 22.97307 22.79156
# Shear Modulus (GPa) = 12.77772 23.65959 18.21866
#
# Velocity S-wave (km/s) = 2.36537 3.21866 2.82443
# Velocity P-wave (km/s) = 4.16656 4.88592 4.54051
#
# Compressibility (1/GPa) = 0.04422812
#
# Stress axis : x y z
#
# Youngs Moduli (GPa) = 13.97439 13.97439 60.35041
#
# Poissons Ratio (x) = 0.73794 0.14858
# Poissons Ratio (y) = 0.73794 0.14858
# Poissons Ratio (z) = 0.03440 0.03440
#
# Static dielectric constant tensor:
#      x y z
#    x 1.841650 0.000000 0.000000 
#    y 0.000000 1.841650 0.000000 
#    z 0.000000 0.000000 2.072560 
# 
# From -- ./inp_files/3517.got.cif
#   From: 2010.05.17/outbox.cif.g08.bks.cpg/sg128_2_cif.got.tgz:3517.got - 2010.05.20 12:07:25.
