data_PCOD9564695
_publ_section_title
;
Structure prediction by ZEFSAII (Michael W. Deem and Ramdas Pophale) SiO2 
 PCOD9564695
Probable space group: P 4/M N C
;
_chemical_formula_sum "Si O2"
_cell_formula_units_Z 120
_cell_length_a 15.919978
_cell_length_b 15.919978
_cell_length_c 29.750327
_cell_angle_alpha 90.000000
_cell_angle_beta 90.000000
_cell_angle_gamma 90.000000
_cell_volume 7540.092437
_symmetry_space_group_name_H-M "P 4/M N C"
_symmetry_group_IT_number 128
_symmetry_cell_setting 'tetragonal'
loop_
_space_group_symop_operation_xyz
x,y,z
-y,x,z
-x,-y,z
y,-x,z
1/2+x,1/2-y,1/2-z
1/2-x,1/2+y,1/2-z
1/2+y,1/2+x,1/2-z
1/2-y,1/2-x,1/2-z
-x,-y,-z
y,-x,-z
x,y,-z
-y,x,-z
1/2-x,1/2+y,1/2+z
1/2+x,1/2-y,1/2+z
1/2-y,1/2-x,1/2+z
1/2+y,1/2+x,1/2+z
loop_
_atom_site_type_symbol
_atom_site_label
_atom_site_fract_x
_atom_site_fract_y
_atom_site_fract_z
Si Si1 0.209455 0.902245 0.404873
Si Si2 0.661245 0.966520 0.189317
Si Si3 0.367409 0.444874 0.000000
Si Si4 0.732821 0.311641 0.706630
Si Si5 0.402597 0.406574 0.240474
Si Si6 0.659460 0.980024 0.296159
Si Si7 0.317867 0.574833 0.149523
Si Si8 0.156279 0.348318 0.656116
O O1 0.186553 0.921503 0.456084
O O2 0.147600 0.829567 0.386673
O O3 0.303298 0.873530 0.390269
O O4 0.184018 0.987594 0.377801
O O5 0.725953 0.889903 0.180376
O O6 0.670469 0.983811 0.242711
O O7 0.568406 0.924475 0.188086
O O8 0.673595 0.051302 0.160432
O O9 0.456461 0.394279 0.000000
O O10 0.790445 0.290445 0.750000
O O11 0.648915 0.340490 0.731547
O O12 0.706882 0.232261 0.676632
O O13 0.497990 0.385362 0.252263
O O14 0.404403 0.388846 0.187093
O O15 0.734716 0.929370 0.320048
O O16 0.662688 0.074936 0.312532
#
# Coordination Sequence:
#
# PCOD9564695 Si02
#       8
#    16  16   8  16  16  16  16  16
#     4  11  22  35  53  80 108 140 182 221 280 334
#     4  11  19  34  49  70 104 148 194 235 264 306
#     4  11  22  38  62  86 113 139 169 220 287 353
#     4  12  21  33  47  68 103 142 188 234 268 305
#     4  11  21  30  45  68 102 146 185 225 264 312
#     4  10  20  33  49  72 105 143 196 236 263 303
#     4  11  19  31  48  76 110 145 182 225 263 326
#     4  11  24  33  52  73 101 141 185 236 276 323
#
# _framework density 15.914925
#
# number of rings (size 3 to 8) (size 9 to 14) (size 15 to 20)
#    0.000    1.000    5.333    4.000    1.867    1.333 
#    0.000    0.000    0.000    0.000    0.000   11.200 
#    0.000    0.000    0.000    0.000    0.000   12.133 
#
# Total GULP energy -669022.087803 kJ/mol
# GULP energy per Si atom -5575.184065 kJ/mol
# Density = 1.587870 g / cm^3
# Si number density = 15.914925 Si / 1000 Ang^3
#
#
#
# Elastic Constant Matrix: (Units=GPa)
#
#
# Indices 1 2 3 4 5 6 
#
# 1 98.7865 9.2004 40.6834 0.0000 0.0000 0.0000
# 2 9.2004 98.7865 40.6834 0.0000 0.0000 0.0000
# 3 40.6834 40.6834 84.7576 0.0000 0.0000 0.0000
# 4 0.0000 0.0000 0.0000 17.6175 0.0000 0.0000
# 5 0.0000 0.0000 0.0000 0.0000 17.6175 0.0000
# 6 0.0000 0.0000 0.0000 0.0000 0.0000 29.2941
#
#
#
# Elastic Compliance Matrix: (Units=1/GPa)
#
#
# Indices 1 2 3 4 5 6 
#
# 1 0.012835 0.001672 -0.006963 0.000000 0.000000 0.000000
# 2 0.001672 0.012835 -0.006963 0.000000 0.000000 0.000000
# 3 -0.006963 -0.006963 0.018483 0.000000 0.000000 0.000000
# 4 0.000000 0.000000 0.000000 0.056762 0.000000 0.000000
# 5 0.000000 0.000000 0.000000 0.000000 0.056762 0.000000
# 6 0.000000 0.000000 0.000000 0.000000 0.000000 0.034137
#
#
# Mechanical properties :
#
#
# Convention : Reuss Voigt Hill
#
# Bulk Modulus (GPa) = 50.90624 51.49612 51.20118
# Shear Modulus (GPa) = 22.43458 25.69002 24.06230
#
# Velocity S-wave (km/s) = 3.75861 4.02208 3.89258
# Velocity P-wave (km/s) = 7.13387 7.34826 7.24186
#
# Compressibility (1/GPa) = 0.01964396
#
# Stress axis : x y z
#
# Youngs Moduli (GPa) = 77.91281 77.91281 54.10308
#
# Poissons Ratio (x) = -0.13030 0.37674
# Poissons Ratio (y) = -0.13030 0.37674
# Poissons Ratio (z) = 0.54254 0.54254
#
# Static dielectric constant tensor:
#      x y z
#    x 1.593110 0.000000 0.000000 
#    y 0.000000 1.593110 0.000000 
#    z 0.000000 0.000000 1.498970 
# 
# From -- ./inp_files/7437.got.cif
#   From: 2010.05.17/outbox.cif.g08.bks.cpg/sg128_4_cif.got.tgz:7437.got - 2010.05.20 12:07:25.
