data_PCOD9564993
_publ_section_title
;
Structure prediction by ZEFSAII (Michael W. Deem and Ramdas Pophale) SiO2 
 PCOD9564993
Probable space group: P 4/M N C
;
_chemical_formula_sum "Si O2"
_cell_formula_units_Z 88
_cell_length_a 12.457349
_cell_length_b 12.457349
_cell_length_c 27.430630
_cell_angle_alpha 90.000000
_cell_angle_beta 90.000000
_cell_angle_gamma 90.000000
_cell_volume 4256.837242
_symmetry_space_group_name_H-M "P 4/M N C"
_symmetry_group_IT_number 128
_symmetry_cell_setting 'tetragonal'
loop_
_space_group_symop_operation_xyz
x,y,z
-y,x,z
-x,-y,z
y,-x,z
1/2+x,1/2-y,1/2-z
1/2-x,1/2+y,1/2-z
1/2+y,1/2+x,1/2-z
1/2-y,1/2-x,1/2-z
-x,-y,-z
y,-x,-z
x,y,-z
-y,x,-z
1/2-x,1/2+y,1/2+z
1/2+x,1/2-y,1/2+z
1/2-y,1/2-x,1/2+z
1/2+y,1/2+x,1/2+z
loop_
_atom_site_type_symbol
_atom_site_label
_atom_site_fract_x
_atom_site_fract_y
_atom_site_fract_z
Si Si1 0.447952 0.329471 0.000000
Si Si2 0.492916 0.322143 0.172485
Si Si3 0.176570 0.498999 0.262462
Si Si4 0.827236 0.527088 0.442284
Si Si5 0.669645 0.980621 0.415915
Si Si6 0.987933 0.821706 0.854003
O O1 0.569031 0.372171 0.000000
O O2 0.435286 0.259328 0.047954
O O3 0.599193 0.392636 0.163255
O O4 0.494694 0.279377 0.227388
O O5 0.487094 0.219609 0.137433
O O6 0.104967 0.395034 0.250000
O O7 0.221071 0.490486 0.317180
O O8 0.100810 0.600810 0.250000
O O9 0.808493 0.515372 0.500000
O O10 0.901537 0.430125 0.422701
O O11 0.722805 0.524703 0.408770
O O12 0.901549 0.631488 0.433189
O O13 0.096581 0.889505 0.845679
#
# Coordination Sequence:
#
# PCOD9564993 Si02
#       6
#     8  16  16  16  16  16
#     4  11  22  35  56  88 126 163 200 247 310 374
#     4  11  24  40  62  95 133 169 207 254 311 384
#     4  11  24  43  67  98 127 162 208 259 314 379
#     4  11  23  43  66  91 122 168 221 268 316 372
#     4  11  21  41  62  91 128 163 207 265 314 370
#     4  11  26  45  64  92 130 166 209 267 318 370
#
# _framework density 20.672626000000001
#
# number of rings (size 3 to 8) (size 9 to 14) (size 15 to 20)
#    0.000    1.000    1.818    4.909    0.000   15.273 
#    0.000    0.909    0.000    0.000    0.000    0.000 
#    0.000    0.000    0.000    0.000    0.000    0.000 
#
# Total GULP energy -492181.654474 kJ/mol
# GULP energy per Si atom -5592.973346 kJ/mol
# Density = 2.062557 g / cm^3
# Si number density = 20.672626 Si / 1000 Ang^3
#
#
#
# Elastic Constant Matrix: (Units=GPa)
#
#
# Indices 1 2 3 4 5 6 
#
# 1 76.8232 20.2645 25.9704 0.0000 0.0000 0.0000
# 2 20.2645 76.8254 25.9709 0.0000 0.0000 0.0000
# 3 25.9704 25.9709 121.1438 0.0000 0.0000 0.0000
# 4 0.0000 0.0000 0.0000 24.3382 0.0000 0.0000
# 5 0.0000 0.0000 0.0000 0.0000 24.3357 0.0000
# 6 0.0000 0.0000 0.0000 0.0000 0.0000 99.1326
#
#
#
# Elastic Compliance Matrix: (Units=1/GPa)
#
#
# Indices 1 2 3 4 5 6 
#
# 1 0.014657 -0.003023 -0.002494 0.000000 0.000000 0.000000
# 2 -0.003023 0.014657 -0.002494 0.000000 0.000000 0.000000
# 3 -0.002494 -0.002494 0.009324 0.000000 0.000000 0.000000
# 4 0.000000 0.000000 0.000000 0.041088 0.000000 0.000000
# 5 0.000000 0.000000 0.000000 0.000000 0.041092 0.000000
# 6 0.000000 0.000000 0.000000 0.000000 0.000000 0.010088
#
#
# Mechanical properties :
#
#
# Convention : Reuss Voigt Hill
#
# Bulk Modulus (GPa) = 44.21668 46.57822 45.39745
# Shear Modulus (GPa) = 32.36939 43.06707 37.71823
#
# Velocity S-wave (km/s) = 3.96132 4.56926 4.27611
# Velocity P-wave (km/s) = 6.50832 7.10055 6.81087
#
# Compressibility (1/GPa) = 0.02261590
#
# Stress axis : x y z
#
# Youngs Moduli (GPa) = 68.22449 68.22639 107.24982
#
# Poissons Ratio (x) = 0.20626 0.26749
# Poissons Ratio (y) = 0.20625 0.26749
# Poissons Ratio (z) = 0.17016 0.17016
#
# Static dielectric constant tensor:
#      x y z
#    x 1.733620 0.000000 0.000000 
#    y 0.000000 1.733610 0.000000 
#    z 0.000000 0.000000 1.737820 
# 
# From -- ./inp_files/7240.got.cif
#   From: 2010.05.17/outbox.cif.g08.bks.cpg/sg128_4_cif.got.tgz:7240.got - 2010.05.20 12:07:25.
