data_PCOD9564623
_publ_section_title
;
Structure prediction by ZEFSAII (Michael W. Deem and Ramdas Pophale) SiO2 
 PCOD9564623
Probable space group: P 4/M N C
;
_chemical_formula_sum "Si O2"
_cell_formula_units_Z 96
_cell_length_a 24.700646
_cell_length_b 24.700646
_cell_length_c 7.903147
_cell_angle_alpha 90.000000
_cell_angle_beta 90.000000
_cell_angle_gamma 90.000000
_cell_volume 4821.883165
_symmetry_space_group_name_H-M "P 4/M N C"
_symmetry_group_IT_number 128
_symmetry_cell_setting 'tetragonal'
loop_
_space_group_symop_operation_xyz
x,y,z
-y,x,z
-x,-y,z
y,-x,z
1/2+x,1/2-y,1/2-z
1/2-x,1/2+y,1/2-z
1/2+y,1/2+x,1/2-z
1/2-y,1/2-x,1/2-z
-x,-y,-z
y,-x,-z
x,y,-z
-y,x,-z
1/2-x,1/2+y,1/2+z
1/2+x,1/2-y,1/2+z
1/2-y,1/2-x,1/2+z
1/2+y,1/2+x,1/2+z
loop_
_atom_site_type_symbol
_atom_site_label
_atom_site_fract_x
_atom_site_fract_y
_atom_site_fract_z
Si Si1 0.307249 0.277747 0.204099
Si Si2 0.635129 0.219864 0.203411
Si Si3 0.587527 0.000296 0.299167
Si Si4 0.709659 0.012909 0.708025
Si Si5 0.418545 0.531046 0.295870
Si Si6 0.299662 0.571803 0.203297
O O1 0.278763 0.221238 0.250000
O O2 0.267242 0.325286 0.267589
O O3 0.367856 0.286926 0.267624
O O4 0.308212 0.280951 0.000000
O O5 0.663380 0.163380 0.250000
O O6 0.573824 0.223456 0.263346
O O7 0.634220 0.223414 0.000000
O O8 0.553750 0.053750 0.250000
O O9 0.591021 0.000651 0.500000
O O10 0.648790 0.999342 0.233372
O O11 0.551054 0.948947 0.250000
O O12 0.709646 0.012484 0.500000
O O13 0.754972 0.970765 0.765837
O O14 0.432048 0.469531 0.239264
O O15 0.419368 0.530766 0.500000
O O16 0.360480 0.552731 0.241277
O O17 0.294601 0.573589 0.000000
#
# Coordination Sequence:
#
# PCOD9564623 Si02
#       6
#    16  16  16  16  16  16
#     4   9  19  34  53  76 103 137 175 213 256 308
#     4   9  17  32  52  73  99 131 166 210 255 298
#     4  10  19  33  52  74 101 138 175 217 264 312
#     4   9  19  33  50  74 107 135 164 211 265 308
#     4   9  20  39  58  78 109 145 178 218 271 326
#     4  10  21  35  55  83 109 139 180 223 267 316
#
# _framework density 19.909234999999999
#
# number of rings (size 3 to 8) (size 9 to 14) (size 15 to 20)
#    0.000    2.667    0.000    2.000    2.333    2.000 
#    0.000    4.167    0.000    0.000    0.000    0.000 
#    0.000    0.000    0.000    0.000    0.000    0.000 
#
# Total GULP energy -535729.435786 kJ/mol
# GULP energy per Si atom -5580.514956 kJ/mol
# Density = 1.986392 g / cm^3
# Si number density = 19.909235 Si / 1000 Ang^3
#
#
#
# Elastic Constant Matrix: (Units=GPa)
#
#
# Indices 1 2 3 4 5 6 
#
# 1 172.2139 133.9285 5.4395 0.0000 0.0000 0.0000
# 2 133.9285 172.2051 5.4364 0.0000 0.0000 0.0000
# 3 5.4395 5.4364 18.2590 0.0000 0.0000 0.0000
# 4 0.0000 0.0000 0.0000 24.6344 0.0000 0.0000
# 5 0.0000 0.0000 0.0000 0.0000 24.6322 0.0000
# 6 0.0000 0.0000 0.0000 0.0000 0.0000 19.2579
#
#
#
# Elastic Compliance Matrix: (Units=1/GPa)
#
#
# Indices 1 2 3 4 5 6 
#
# 1 0.014712 -0.011411 -0.000985 0.000000 0.000000 0.000000
# 2 -0.011411 0.014712 -0.000981 0.000000 0.000000 0.000000
# 3 -0.000985 -0.000981 0.055353 0.000000 0.000000 0.000000
# 4 0.000000 0.000000 0.000000 0.040594 0.000000 0.000000
# 5 0.000000 0.000000 0.000000 0.000000 0.040597 0.000000
# 6 0.000000 0.000000 0.000000 0.000000 0.000000 0.051927
#
#
# Mechanical properties :
#
#
# Convention : Reuss Voigt Hill
#
# Bulk Modulus (GPa) = 17.23451 72.47630 44.85541
# Shear Modulus (GPa) = 18.94010 28.22981 23.58496
#
# Velocity S-wave (km/s) = 3.08770 3.76962 3.44557
# Velocity P-wave (km/s) = 4.62463 7.44507 6.19743
#
# Compressibility (1/GPa) = 0.05802311
#
# Stress axis : x y z
#
# Youngs Moduli (GPa) = 67.97302 67.97028 18.06580
#
# Poissons Ratio (x) = 0.77558 0.01780
# Poissons Ratio (y) = 0.77561 0.01772
# Poissons Ratio (z) = 0.06698 0.06668
#
# Static dielectric constant tensor:
#      x y z
#    x 1.692650 0.000000 0.000000 
#    y 0.000000 1.692650 0.000000 
#    z 0.000000 0.000000 1.725780 
# 
# From -- ./inp_files/1438.got.cif
#   From: 2010.05.17/outbox.cif.g08.bks.cpg/sg128_1_cif.got.tgz:1438.got - 2010.05.20 12:07:25.
