data_PCOD9564999
_publ_section_title
;
Structure prediction by ZEFSAII (Michael W. Deem and Ramdas Pophale) SiO2 
 PCOD9564999
Probable space group: P 4/M N C
;
_chemical_formula_sum "Si O2"
_cell_formula_units_Z 96
_cell_length_a 15.223736
_cell_length_b 15.223736
_cell_length_c 21.596929
_cell_angle_alpha 90.000000
_cell_angle_beta 90.000000
_cell_angle_gamma 90.000000
_cell_volume 5005.350435
_symmetry_space_group_name_H-M "P 4/M N C"
_symmetry_group_IT_number 128
_symmetry_cell_setting 'tetragonal'
loop_
_space_group_symop_operation_xyz
x,y,z
-y,x,z
-x,-y,z
y,-x,z
1/2+x,1/2-y,1/2-z
1/2-x,1/2+y,1/2-z
1/2+y,1/2+x,1/2-z
1/2-y,1/2-x,1/2-z
-x,-y,-z
y,-x,-z
x,y,-z
-y,x,-z
1/2-x,1/2+y,1/2+z
1/2+x,1/2-y,1/2+z
1/2-y,1/2-x,1/2+z
1/2+y,1/2+x,1/2+z
loop_
_atom_site_type_symbol
_atom_site_label
_atom_site_fract_x
_atom_site_fract_y
_atom_site_fract_z
Si Si1 0.876577 0.924545 0.603990
Si Si2 0.389805 0.190994 0.070125
Si Si3 0.445746 0.913867 0.925341
Si Si4 0.928464 0.127179 0.249320
Si Si5 0.385353 0.278254 0.630409
Si Si6 0.256185 0.424061 0.574700
O O1 0.795334 0.880839 0.570439
O O2 0.858320 0.917059 0.677602
O O3 0.971669 0.884425 0.589732
O O4 0.489199 0.166479 0.089305
O O5 0.318931 0.147394 0.114337
O O6 0.375615 0.156453 0.000000
O O7 0.345336 0.910147 0.903851
O O8 0.500000 0.000000 0.904597
O O9 0.439836 0.918598 0.000000
O O10 0.891167 0.198967 0.202861
O O11 0.032282 0.115112 0.236649
O O12 0.318446 0.347020 0.599302
O O13 0.482026 0.287468 0.600627
O O14 0.258387 0.425157 0.500000
#
# Coordination Sequence:
#
# PCOD9564999 Si02
#       6
#    16  16  16  16  16  16
#     4   9  21  41  63  84 111 147 197 257 307 353
#     4  11  23  37  58  89 118 153 199 241 297 365
#     4   9  18  36  56  74 110 158 192 224 276 348
#     4   9  18  38  61  83 112 155 200 237 294 358
#     4  12  22  35  58  88 120 157 199 244 286 357
#     4  11  22  35  53  86 124 158 192 238 293 350
#
# _framework density 19.179476000000001
#
# number of rings (size 3 to 8) (size 9 to 14) (size 15 to 20)
#    0.000    1.833    3.333    2.500    2.333    1.667 
#    0.000    1.667    0.000    1.000    0.000    0.000 
#    0.000    0.000    0.000    0.000    0.000    0.000 
#
# Total GULP energy -535832.584850 kJ/mol
# GULP energy per Si atom -5581.589426 kJ/mol
# Density = 1.913582 g / cm^3
# Si number density = 19.179476 Si / 1000 Ang^3
#
#
#
# Elastic Constant Matrix: (Units=GPa)
#
#
# Indices 1 2 3 4 5 6 
#
# 1 76.5228 39.0065 12.5690 0.0000 0.0000 0.0000
# 2 39.0065 76.5228 12.5690 0.0000 0.0000 0.0000
# 3 12.5690 12.5690 28.5358 0.0000 0.0000 0.0000
# 4 0.0000 0.0000 0.0000 22.2964 0.0000 0.0000
# 5 0.0000 0.0000 0.0000 0.0000 22.2964 0.0000
# 6 0.0000 0.0000 0.0000 0.0000 0.0000 18.9617
#
#
#
# Elastic Compliance Matrix: (Units=1/GPa)
#
#
# Indices 1 2 3 4 5 6 
#
# 1 0.018114 -0.008541 -0.004217 0.000000 0.000000 0.000000
# 2 -0.008541 0.018114 -0.004217 0.000000 0.000000 0.000000
# 3 -0.004217 -0.004217 0.038758 0.000000 0.000000 0.000000
# 4 0.000000 0.000000 0.000000 0.044850 0.000000 0.000000
# 5 0.000000 0.000000 0.000000 0.000000 0.044850 0.000000
# 6 0.000000 0.000000 0.000000 0.000000 0.000000 0.052738
#
#
# Mechanical properties :
#
#
# Convention : Reuss Voigt Hill
#
# Bulk Modulus (GPa) = 24.36761 34.43007 29.39884
# Shear Modulus (GPa) = 18.86417 20.54005 19.70211
#
# Velocity S-wave (km/s) = 3.13958 3.27607 3.20855
# Velocity P-wave (km/s) = 5.08677 5.68337 5.39332
#
# Compressibility (1/GPa) = 0.04103808
#
# Stress axis : x y z
#
# Youngs Moduli (GPa) = 55.20539 55.20539 25.80093
#
# Poissons Ratio (x) = 0.47150 0.10880
# Poissons Ratio (y) = 0.47150 0.10880
# Poissons Ratio (z) = 0.23279 0.23279
#
# Static dielectric constant tensor:
#      x y z
#    x 1.673850 0.000000 0.000000 
#    y 0.000000 1.673850 0.000000 
#    z 0.000000 0.000000 1.661800 
# 
# From -- ./inp_files/5726.got.cif
#   From: 2010.05.17/outbox.cif.g08.bks.cpg/sg128_3_cif.got.tgz:5726.got - 2010.05.20 12:07:25.
