data_PCOD9564089
_publ_section_title
;
Structure prediction by ZEFSAII (Michael W. Deem and Ramdas Pophale) SiO2 
 PCOD9564089
Probable space group: P 4/M B M
;
_chemical_formula_sum "Si O2"
_cell_formula_units_Z 104
_cell_length_a 27.601387
_cell_length_b 27.601387
_cell_length_c 7.866153
_cell_angle_alpha 90.000000
_cell_angle_beta 90.000000
_cell_angle_gamma 90.000000
_cell_volume 5992.722976
_symmetry_space_group_name_H-M "P 4/M B M"
_symmetry_group_IT_number 127
_symmetry_cell_setting 'tetragonal'
loop_
_space_group_symop_operation_xyz
x,y,z
-y,x,z
-x,-y,z
y,-x,z
1/2+x,1/2-y,-z
1/2-x,1/2+y,-z
1/2+y,1/2+x,-z
1/2-y,1/2-x,-z
-x,-y,-z
y,-x,-z
x,y,-z
-y,x,-z
1/2-x,1/2+y,z
1/2+x,1/2-y,z
1/2-y,1/2-x,z
1/2+y,1/2+x,z
loop_
_atom_site_type_symbol
_atom_site_label
_atom_site_fract_x
_atom_site_fract_y
_atom_site_fract_z
Si Si1 0.363248 0.422534 0.704872
Si Si2 0.637203 0.786767 0.301507
Si Si3 0.502458 0.283205 0.703945
Si Si4 0.818862 0.465435 0.805339
Si Si5 0.572419 0.535170 0.000000
Si Si6 0.577740 0.001054 0.294871
Si Si7 0.183908 0.102787 0.706641
O O1 0.372258 0.428196 0.500000
O O2 0.311971 0.448446 0.742745
O O3 0.370456 0.365972 0.749341
O O4 0.399910 0.450287 0.828119
O O5 0.648950 0.779786 0.500000
O O6 0.678682 0.821319 0.226301
O O7 0.584951 0.813026 0.294891
O O8 0.628513 0.732957 0.228712
O O9 0.499580 0.279364 0.500000
O O10 0.496955 0.229213 0.773919
O O11 0.453854 0.312553 0.760160
O O12 0.867704 0.493661 0.762879
O O13 0.820168 0.450494 0.000000
O O14 0.521543 0.562539 0.000000
O O15 0.577576 0.001133 0.500000
O O16 0.544374 0.955627 0.239546
O O17 0.549429 0.049429 0.238140
O O18 0.185940 0.102257 0.500000
#
# Coordination Sequence:
#
# PCOD9564089 Si02
#       7
#    16  16  16  16   8  16  16
#     4  10  20  36  57  76 103 141 178 220 264 313
#     4   9  17  31  51  73 101 134 168 211 259 310
#     4   9  18  33  53  73  97 132 172 212 254 306
#     4  11  21  30  46  73 105 135 166 210 256 306
#     4  11  24  36  50  78 109 136 174 215 259 322
#     4   9  18  33  52  72  97 133 173 209 250 305
#     4   8  15  30  50  74  97 126 171 211 256 309
#
# _framework density 17.354382000000001
#
# number of rings (size 3 to 8) (size 9 to 14) (size 15 to 20)
#    0.000    2.538    0.000    4.154    1.077    4.615 
#    5.538    1.538    0.000    0.923    0.000    4.308 
#    0.000    0.000    0.000    0.000    0.000    0.000 
#
# Total GULP energy -579496.819112 kJ/mol
# GULP energy per Si atom -5572.084799 kJ/mol
# Density = 1.731488 g / cm^3
# Si number density = 17.354382 Si / 1000 Ang^3
#
#
#
# Elastic Constant Matrix: (Units=GPa)
#
#
# Indices 1 2 3 4 5 6 
#
# 1 115.7340 47.8148 13.8770 0.0000 0.0000 0.0000
# 2 47.8148 115.7340 13.8770 0.0000 0.0000 0.0000
# 3 13.8770 13.8770 31.5111 0.0000 0.0000 0.0000
# 4 0.0000 0.0000 0.0000 2.2574 0.0000 0.0000
# 5 0.0000 0.0000 0.0000 0.0000 2.2574 0.0000
# 6 0.0000 0.0000 0.0000 0.0000 0.0000 33.0518
#
#
#
# Elastic Compliance Matrix: (Units=1/GPa)
#
#
# Indices 1 2 3 4 5 6 
#
# 1 0.010666 -0.004058 -0.002910 0.000000 0.000000 0.000000
# 2 -0.004058 0.010666 -0.002910 0.000000 0.000000 0.000000
# 3 -0.002910 -0.002910 0.034298 0.000000 0.000000 0.000000
# 4 0.000000 0.000000 0.000000 0.442993 0.000000 0.000000
# 5 0.000000 0.000000 0.000000 0.000000 0.442993 0.000000
# 6 0.000000 0.000000 0.000000 0.000000 0.000000 0.030256
#
#
# Mechanical properties :
#
#
# Convention : Reuss Voigt Hill
#
# Bulk Modulus (GPa) = 27.87547 46.01298 36.94422
# Shear Modulus (GPa) = 4.98214 20.00733 12.49473
#
# Velocity S-wave (km/s) = 1.69619 3.39908 2.68615
# Velocity P-wave (km/s) = 4.46469 6.47891 5.56371
#
# Compressibility (1/GPa) = 0.03587383
#
# Stress axis : x y z
#
# Youngs Moduli (GPa) = 93.75762 93.75762 29.15618
#
# Poissons Ratio (x) = 0.38043 0.08485
# Poissons Ratio (y) = 0.38043 0.08485
# Poissons Ratio (z) = 0.27285 0.27285
#
# Static dielectric constant tensor:
#      x y z
#    x 1.591560 0.000000 0.000000 
#    y 0.000000 1.591560 0.000000 
#    z 0.000000 0.000000 1.610680 
# 
# From -- ./inp_files/2325.got.cif
#   From: 2010.05.17/outbox.cif.g08.bks.cpg/sg127_2_cif.got.tgz:2325.got - 2010.05.20 12:03:00.
