data_PCOD9564783
_publ_section_title
;
Structure prediction by ZEFSAII (Michael W. Deem and Ramdas Pophale) SiO2 
 PCOD9564783
Probable space group: P 4/M N C
;
_chemical_formula_sum "Si O2"
_cell_formula_units_Z 76
_cell_length_a 17.817557
_cell_length_b 17.817557
_cell_length_c 13.796708
_cell_angle_alpha 90.000000
_cell_angle_beta 90.000000
_cell_angle_gamma 90.000000
_cell_volume 4379.976561
_symmetry_space_group_name_H-M "P 4/M N C"
_symmetry_group_IT_number 128
_symmetry_cell_setting 'tetragonal'
loop_
_space_group_symop_operation_xyz
x,y,z
-y,x,z
-x,-y,z
y,-x,z
1/2+x,1/2-y,1/2-z
1/2-x,1/2+y,1/2-z
1/2+y,1/2+x,1/2-z
1/2-y,1/2-x,1/2-z
-x,-y,-z
y,-x,-z
x,y,-z
-y,x,-z
1/2-x,1/2+y,1/2+z
1/2+x,1/2-y,1/2+z
1/2-y,1/2-x,1/2+z
1/2+y,1/2+x,1/2+z
loop_
_atom_site_type_symbol
_atom_site_label
_atom_site_fract_x
_atom_site_fract_y
_atom_site_fract_z
Si Si1 0.029139 0.357953 0.616435
Si Si2 0.324933 0.356359 0.262816
Si Si3 0.975953 0.201638 0.299090
Si Si4 0.619512 0.463478 0.000000
Si Si5 0.000000 0.500000 0.250000
Si Si6 0.305163 0.796164 0.888337
O O1 0.012328 0.359718 0.500000
O O2 0.003817 0.429662 0.677065
O O3 0.119379 0.345827 0.624914
O O4 0.991991 0.287063 0.670691
O O5 0.405720 0.317059 0.269596
O O6 0.330475 0.445353 0.241979
O O7 0.278802 0.319826 0.173272
O O8 0.268225 0.339067 0.350680
O O9 0.954310 0.163631 0.401021
O O10 0.590470 0.548647 0.000000
O O11 0.298793 0.776756 0.000000
#
# Coordination Sequence:
#
# PCOD9564783 Si02
#       6
#    16  16  16   8   4  16
#     4  10  21  36  57  76 104 145 183 221 276 322
#     4  10  21  34  54  84 110 138 177 221 268 322
#     4  11  20  33  53  80 113 143 173 218 269 326
#     4  11  20  30  50  85 116 142 168 219 274 326
#     4  12  22  36  52  82 112 132 182 244 276 318
#     4   9  20  40  59  74 101 146 188 219 258 322
#
# _framework density 17.351690999999999
#
# number of rings (size 3 to 8) (size 9 to 14) (size 15 to 20)
#    0.000    1.789    3.158    2.842    2.947    2.105 
#    0.000    1.053    0.000    1.263    0.000    1.474 
#    0.000    0.000    0.000    0.000    0.000    0.000 
#
# Total GULP energy -423840.107002 kJ/mol
# GULP energy per Si atom -5576.843513 kJ/mol
# Density = 1.731220 g / cm^3
# Si number density = 17.351691 Si / 1000 Ang^3
#
#
#
# Elastic Constant Matrix: (Units=GPa)
#
#
# Indices 1 2 3 4 5 6 
#
# 1 88.3713 33.7938 15.3611 0.0000 0.0000 0.0000
# 2 33.7938 88.3713 15.3611 0.0000 0.0000 0.0000
# 3 15.3611 15.3611 37.0369 0.0000 0.0000 0.0000
# 4 0.0000 0.0000 0.0000 91.8174 0.0000 0.0000
# 5 0.0000 0.0000 0.0000 0.0000 91.8174 0.0000
# 6 0.0000 0.0000 0.0000 0.0000 0.0000 18.5666
#
#
#
# Elastic Compliance Matrix: (Units=1/GPa)
#
#
# Indices 1 2 3 4 5 6 
#
# 1 0.013731 -0.004592 -0.003790 0.000000 0.000000 0.000000
# 2 -0.004592 0.013731 -0.003790 0.000000 0.000000 0.000000
# 3 -0.003790 -0.003790 0.030144 0.000000 0.000000 0.000000
# 4 0.000000 0.000000 0.000000 0.010891 0.000000 0.000000
# 5 0.000000 0.000000 0.000000 0.000000 0.010891 0.000000
# 6 0.000000 0.000000 0.000000 0.000000 0.000000 0.053860
#
#
# Mechanical properties :
#
#
# Convention : Reuss Voigt Hill
#
# Bulk Modulus (GPa) = 30.06571 38.09018 34.07795
# Shear Modulus (GPa) = 29.64188 50.39116 40.01652
#
# Velocity S-wave (km/s) = 4.13764 5.39482 4.80750
# Velocity P-wave (km/s) = 6.33969 7.79776 7.10622
#
# Compressibility (1/GPa) = 0.03326048
#
# Stress axis : x y z
#
# Youngs Moduli (GPa) = 72.82949 72.82949 33.17387
#
# Poissons Ratio (x) = 0.33442 0.12574
# Poissons Ratio (y) = 0.33442 0.12574
# Poissons Ratio (z) = 0.27605 0.27605
#
# Static dielectric constant tensor:
#      x y z
#    x 1.603940 0.000000 0.000000 
#    y 0.000000 1.603940 0.000000 
#    z 0.000000 0.000000 1.582800 
# 
# From -- ./inp_files/3763.got.cif
#   From: 2010.05.17/outbox.cif.g08.bks.cpg/sg128_2_cif.got.tgz:3763.got - 2010.05.20 12:07:25.
