data_PCOD9564587
_publ_section_title
;
Structure prediction by ZEFSAII (Michael W. Deem and Ramdas Pophale) SiO2 
 PCOD9564587
Probable space group: P 4/M N C
;
_chemical_formula_sum "Si O2"
_cell_formula_units_Z 52
_cell_length_a 11.653835
_cell_length_b 11.653835
_cell_length_c 23.627901
_cell_angle_alpha 90.000000
_cell_angle_beta 90.000000
_cell_angle_gamma 90.000000
_cell_volume 3208.949424
_symmetry_space_group_name_H-M "P 4/M N C"
_symmetry_group_IT_number 128
_symmetry_cell_setting 'tetragonal'
loop_
_space_group_symop_operation_xyz
x,y,z
-y,x,z
-x,-y,z
y,-x,z
1/2+x,1/2-y,1/2-z
1/2-x,1/2+y,1/2-z
1/2+y,1/2+x,1/2-z
1/2-y,1/2-x,1/2-z
-x,-y,-z
y,-x,-z
x,y,-z
-y,x,-z
1/2-x,1/2+y,1/2+z
1/2+x,1/2-y,1/2+z
1/2-y,1/2-x,1/2+z
1/2+y,1/2+x,1/2+z
loop_
_atom_site_type_symbol
_atom_site_label
_atom_site_fract_x
_atom_site_fract_y
_atom_site_fract_z
Si Si1 0.587453 0.333991 0.213142
Si Si2 0.539640 0.310492 0.436572
Si Si3 0.500000 0.000000 0.250000
Si Si4 0.403423 0.802303 0.321591
O O1 0.649940 0.453150 0.199712
O O2 0.599145 0.308172 0.280410
O O3 0.640499 0.222579 0.183063
O O4 0.630500 0.414907 0.431981
O O5 0.549978 0.260955 0.500000
O O6 0.561200 0.226495 0.384697
O O7 0.490591 0.889513 0.290249
#
# Coordination Sequence:
#
# PCOD9564587 Si02
#       4
#    16  16   4  16
#     4   9  18  30  45  68  94 124 158 189 233 293
#     4   9  18  32  50  72  96 125 162 197 233 283
#     4   8  20  32  42  72 100 118 152 192 232 288
#     4  10  19  30  49  70  97 126 151 197 244 276
#
# _framework density 16.20468
#
# number of rings (size 3 to 8) (size 9 to 14) (size 15 to 20)
#    0.000    3.077    0.000    2.769    0.000   17.231 
#    0.000    0.769    0.000    1.846    0.000    2.154 
#    0.000    0.000    0.000    0.000    0.000    0.000 
#
# Total GULP energy -289721.781865 kJ/mol
# GULP energy per Si atom -5571.572728 kJ/mol
# Density = 1.616780 g / cm^3
# Si number density = 16.204680 Si / 1000 Ang^3
#
#
#
# Elastic Constant Matrix: (Units=GPa)
#
#
# Indices 1 2 3 4 5 6 
#
# 1 60.8075 37.5202 38.7011 0.0000 0.0000 0.0000
# 2 37.5202 60.8075 38.7011 0.0000 0.0000 0.0000
# 3 38.7011 38.7011 150.3318 0.0000 0.0000 0.0000
# 4 0.0000 0.0000 0.0000 20.4260 0.0000 0.0000
# 5 0.0000 0.0000 0.0000 0.0000 20.4260 0.0000
# 6 0.0000 0.0000 0.0000 0.0000 0.0000 16.9415
#
#
#
# Elastic Compliance Matrix: (Units=1/GPa)
#
#
# Indices 1 2 3 4 5 6 
#
# 1 0.027848 -0.015094 -0.003284 0.000000 0.000000 0.000000
# 2 -0.015094 0.027848 -0.003284 0.000000 0.000000 0.000000
# 3 -0.003284 -0.003284 0.008343 0.000000 0.000000 0.000000
# 4 0.000000 0.000000 0.000000 0.048957 0.000000 0.000000
# 5 0.000000 0.000000 0.000000 0.000000 0.048957 0.000000
# 6 0.000000 0.000000 0.000000 0.000000 0.000000 0.059027
#
#
# Mechanical properties :
#
#
# Convention : Reuss Voigt Hill
#
# Bulk Modulus (GPa) = 48.26723 55.75460 52.01092
# Shear Modulus (GPa) = 18.43604 22.02698 20.23151
#
# Velocity S-wave (km/s) = 3.37664 3.69087 3.53724
# Velocity P-wave (km/s) = 6.71214 7.25565 6.98918
#
# Compressibility (1/GPa) = 0.02071799
#
# Stress axis : x y z
#
# Youngs Moduli (GPa) = 35.90871 35.90871 119.86689
#
# Poissons Ratio (x) = 0.54199 0.39359
# Poissons Ratio (y) = 0.54199 0.39359
# Poissons Ratio (z) = 0.11791 0.11791
#
# Static dielectric constant tensor:
#      x y z
#    x 1.560080 0.000000 0.000000 
#    y 0.000000 1.560080 0.000000 
#    z 0.000000 0.000000 1.533500 
# 
# From -- ./inp_files/5317.got.cif
#   From: 2010.05.17/outbox.cif.g08.bks.cpg/sg128_3_cif.got.tgz:5317.got - 2010.05.20 12:07:25.
