data_PCOD9564338
_publ_section_title
;
Structure prediction by ZEFSAII (Michael W. Deem and Ramdas Pophale) SiO2 
 PCOD9564338
Probable space group: P 4/M B M
;
_chemical_formula_sum "Si O2"
_cell_formula_units_Z 96
_cell_length_a 15.262345
_cell_length_b 15.262345
_cell_length_c 23.424888
_cell_angle_alpha 90.000000
_cell_angle_beta 90.000000
_cell_angle_gamma 90.000000
_cell_volume 5456.574083
_symmetry_space_group_name_H-M "P 4/M B M"
_symmetry_group_IT_number 127
_symmetry_cell_setting 'tetragonal'
loop_
_space_group_symop_operation_xyz
x,y,z
-y,x,z
-x,-y,z
y,-x,z
1/2+x,1/2-y,-z
1/2-x,1/2+y,-z
1/2+y,1/2+x,-z
1/2-y,1/2-x,-z
-x,-y,-z
y,-x,-z
x,y,-z
-y,x,-z
1/2-x,1/2+y,z
1/2+x,1/2-y,z
1/2-y,1/2-x,z
1/2+y,1/2+x,z
loop_
_atom_site_type_symbol
_atom_site_label
_atom_site_fract_x
_atom_site_fract_y
_atom_site_fract_z
Si Si1 0.621426 0.121426 0.930220
Si Si2 0.980244 0.856159 0.000000
Si Si3 0.731242 0.768759 0.931846
Si Si4 0.259856 0.028176 0.896494
Si Si5 0.429465 0.929465 0.430962
Si Si6 0.645811 0.476279 0.786424
Si Si7 0.457192 0.359284 0.656566
Si Si8 0.289335 0.060736 0.566969
O O1 0.695884 0.195884 0.913323
O O2 0.526972 0.151196 0.905481
O O3 0.617739 0.117739 0.000000
O O4 0.072220 0.905731 0.000000
O O5 0.977610 0.800804 0.942553
O O6 0.745451 0.869636 0.913304
O O7 0.734328 0.765673 0.000000
O O8 0.221062 0.024820 0.833229
O O9 0.433184 0.933184 0.500000
O O10 0.468361 0.835706 0.416397
O O11 0.500000 0.000000 0.409128
O O12 0.596118 0.569263 0.794144
O O13 0.676064 0.458660 0.721569
O O14 0.555919 0.395504 0.649981
O O15 0.428297 0.289765 0.609869
O O16 0.263875 0.057510 0.500000
O O17 0.362638 0.137363 0.571726
#
# Coordination Sequence:
#
# PCOD9564338 Si02
#       8
#     8   8   8  16   8  16  16  16
#     4  11  22  37  56  80 114 147 178 229 279 334
#     4  11  20  30  52  81 102 128 174 233 284 317
#     4  11  22  37  55  80 112 144 177 224 280 333
#     4  12  22  36  55  78 110 145 180 222 274 331
#     4   7  12  26  49  74 102 139 175 212 262 307
#     4   9  18  35  58  79 102 136 184 236 277 319
#     4   9  19  36  55  77 111 148 180 223 281 336
#     4   9  17  32  54  80 110 143 184 228 268 320
#
# _framework density 17.593456
#
# number of rings (size 3 to 8) (size 9 to 14) (size 15 to 20)
#    0.000    2.167    1.667    5.000    0.000    2.333 
#    3.000    2.500    3.667    0.000    0.000    0.000 
#    0.000    0.000    0.000    0.000    0.000    0.000 
#
# Total GULP energy -534682.513337 kJ/mol
# GULP energy per Si atom -5569.609514 kJ/mol
# Density = 1.755341 g / cm^3
# Si number density = 17.593456 Si / 1000 Ang^3
#
#
#
# Elastic Constant Matrix: (Units=GPa)
#
#
# Indices 1 2 3 4 5 6 
#
# 1 38.9431 5.5599 32.7609 0.0000 0.0000 0.0000
# 2 5.5599 38.9430 32.7614 0.0000 0.0000 0.0000
# 3 32.7609 32.7614 103.4122 0.0000 0.0000 0.0000
# 4 0.0000 0.0000 0.0000 18.9645 0.0000 0.0000
# 5 0.0000 0.0000 0.0000 0.0000 18.9641 0.0000
# 6 0.0000 0.0000 0.0000 0.0000 0.0000 3.8331
#
#
#
# Elastic Compliance Matrix: (Units=1/GPa)
#
#
# Indices 1 2 3 4 5 6 
#
# 1 0.036034 0.006079 -0.013341 0.000000 0.000000 0.000000
# 2 0.006079 0.036035 -0.013342 0.000000 0.000000 0.000000
# 3 -0.013341 -0.013342 0.018123 0.000000 0.000000 0.000000
# 4 0.000000 0.000000 0.000000 0.052730 0.000000 0.000000
# 5 0.000000 0.000000 0.000000 0.000000 0.052731 0.000000
# 6 0.000000 0.000000 0.000000 0.000000 0.000000 0.260885
#
#
# Mechanical properties :
#
#
# Convention : Reuss Voigt Hill
#
# Bulk Modulus (GPa) = 20.41491 35.94029 28.17760
# Shear Modulus (GPa) = 9.72621 15.70008 12.71314
#
# Velocity S-wave (km/s) = 2.35379 2.99052 2.69105
# Velocity P-wave (km/s) = 4.36073 5.69182 5.07015
#
# Compressibility (1/GPa) = 0.04898380
#
# Stress axis : x y z
#
# Youngs Moduli (GPa) = 27.75146 27.75116 55.17755
#
# Poissons Ratio (x) = -0.16870 0.73615
# Poissons Ratio (y) = -0.16870 0.73616
# Poissons Ratio (z) = 0.37025 0.37025
#
# Static dielectric constant tensor:
#      x y z
#    x 1.629770 0.000000 0.000000 
#    y 0.000000 1.629770 0.000000 
#    z 0.000000 0.000000 1.572660 
# 
# From -- ./inp_files/5852.got.cif
#   From: 2010.05.17/outbox.cif.g08.bks.cpg/sg127_3_cif.got.tgz:5852.got - 2010.05.20 12:03:00.
