data_PCOD9564060
_publ_section_title
;
Structure prediction by ZEFSAII (Michael W. Deem and Ramdas Pophale) SiO2 
 PCOD9564060
Probable space group: P 4/M B M
;
_chemical_formula_sum "Si O2"
_cell_formula_units_Z 92
_cell_length_a 25.625732
_cell_length_b 25.625732
_cell_length_c 7.518390
_cell_angle_alpha 90.000000
_cell_angle_beta 90.000000
_cell_angle_gamma 90.000000
_cell_volume 4937.162365
_symmetry_space_group_name_H-M "P 4/M B M"
_symmetry_group_IT_number 127
_symmetry_cell_setting 'tetragonal'
loop_
_space_group_symop_operation_xyz
x,y,z
-y,x,z
-x,-y,z
y,-x,z
1/2+x,1/2-y,-z
1/2-x,1/2+y,-z
1/2+y,1/2+x,-z
1/2-y,1/2-x,-z
-x,-y,-z
y,-x,-z
x,y,-z
-y,x,-z
1/2-x,1/2+y,z
1/2+x,1/2-y,z
1/2-y,1/2-x,z
1/2+y,1/2+x,z
loop_
_atom_site_type_symbol
_atom_site_label
_atom_site_fract_x
_atom_site_fract_y
_atom_site_fract_z
Si Si1 0.150109 0.132099 0.789975
Si Si2 0.666050 0.249826 0.213140
Si Si3 0.316753 0.020540 0.500000
Si Si4 0.415951 0.247366 0.789337
Si Si5 0.661477 0.838524 0.203968
Si Si6 0.934423 0.051716 0.285966
Si Si7 0.099397 0.599397 0.500000
Si Si8 0.102829 0.313936 0.500000
O O1 0.160115 0.190564 0.724439
O O2 0.193556 0.091261 0.723464
O O3 0.092277 0.110218 0.764119
O O4 0.160326 0.134852 0.000000
O O5 0.722441 0.222441 0.242621
O O6 0.625570 0.215990 0.327581
O O7 0.656022 0.247334 0.000000
O O8 0.286096 0.044833 0.330318
O O9 0.376709 0.041587 0.500000
O O10 0.314628 0.958908 0.500000
O O11 0.358563 0.220114 0.768427
O O12 0.429555 0.245367 0.000000
O O13 0.626519 0.873482 0.331124
O O14 0.649247 0.850754 0.000000
O O15 0.935641 0.050255 0.500000
O O16 0.991787 0.071191 0.224692
O O17 0.129155 0.370846 0.500000
#
# Coordination Sequence:
#
# PCOD9564060 Si02
#       8
#    16  16   8  16   8  16   4   8
#     4  10  21  34  53  82 107 135 178 221 266 321
#     4   9  20  38  57  80 113 147 180 221 267 319
#     4  10  20  35  56  77 109 145 175 226 277 322
#     4   9  19  32  50  81 111 139 175 213 266 327
#     4   8  14  28  48  69 105 145 166 198 254 318
#     4   9  20  38  55  70  96 138 181 221 268 315
#     4   8  16  32  49  76 104 130 176 216 266 326
#     4  10  22  39  57  79 105 146 193 222 263 323
#
# _framework density 18.634186
#
# number of rings (size 3 to 8) (size 9 to 14) (size 15 to 20)
#    0.000    2.783    0.000    0.522    3.652    2.783 
#    0.000    4.565    0.000    0.000    0.000    0.000 
#    0.000    9.739    0.000    0.000    0.000    0.000 
#
# Total GULP energy -512496.627440 kJ/mol
# GULP energy per Si atom -5570.615516 kJ/mol
# Density = 1.859177 g / cm^3
# Si number density = 18.634186 Si / 1000 Ang^3
#
#
#
# Elastic Constant Matrix: (Units=GPa)
#
#
# Indices 1 2 3 4 5 6 
#
# 1 112.6190 49.5184 21.3504 0.0000 0.0000 0.0000
# 2 49.5184 112.6171 21.3504 0.0000 0.0000 0.0000
# 3 21.3504 21.3504 59.1247 0.0000 0.0000 0.0000
# 4 0.0000 0.0000 0.0000 19.5378 0.0000 0.0000
# 5 0.0000 0.0000 0.0000 0.0000 19.5387 0.0000
# 6 0.0000 0.0000 0.0000 0.0000 0.0000 18.5932
#
#
#
# Elastic Compliance Matrix: (Units=1/GPa)
#
#
# Indices 1 2 3 4 5 6 
#
# 1 0.011332 -0.004516 -0.002461 0.000000 0.000000 0.000000
# 2 -0.004516 0.011332 -0.002461 0.000000 0.000000 0.000000
# 3 -0.002461 -0.002461 0.018691 0.000000 0.000000 0.000000
# 4 0.000000 0.000000 0.000000 0.051183 0.000000 0.000000
# 5 0.000000 0.000000 0.000000 0.000000 0.051180 0.000000
# 6 0.000000 0.000000 0.000000 0.000000 0.000000 0.053783
#
#
# Mechanical properties :
#
#
# Convention : Reuss Voigt Hill
#
# Bulk Modulus (GPa) = 44.48866 52.08879 48.28872
# Shear Modulus (GPa) = 22.33433 24.34340 23.33887
#
# Velocity S-wave (km/s) = 3.46579 3.61831 3.54287
# Velocity P-wave (km/s) = 6.31998 6.74317 6.53500
#
# Compressibility (1/GPa) = 0.02247764
#
# Stress axis : x y z
#
# Youngs Moduli (GPa) = 88.24723 88.24559 53.50180
#
# Poissons Ratio (x) = 0.39852 0.13168
# Poissons Ratio (y) = 0.39853 0.13168
# Poissons Ratio (z) = 0.21719 0.21720
#
# Static dielectric constant tensor:
#      x y z
#    x 1.652530 0.000000 0.000000 
#    y 0.000000 1.652530 0.000000 
#    z 0.000000 0.000000 1.670720 
# 
# From -- ./inp_files/2144.got.cif
#   From: 2010.05.17/outbox.cif.g08.bks.cpg/sg127_2_cif.got.tgz:2144.got - 2010.05.20 12:03:00.
