data_PCOD9564503
_publ_section_title
;
Structure prediction by ZEFSAII (Michael W. Deem and Ramdas Pophale) SiO2 
 PCOD9564503
Probable space group: P 4/M B M
;
_chemical_formula_sum "Si O2"
_cell_formula_units_Z 88
_cell_length_a 15.000000
_cell_length_b 15.000000
_cell_length_c 21.000000
_cell_angle_alpha 90.000000
_cell_angle_beta 90.000000
_cell_angle_gamma 90.000000
_cell_volume 4725.000000
_symmetry_space_group_name_H-M "P 4/M B M"
_symmetry_group_IT_number 127
_symmetry_cell_setting 'tetragonal'
loop_
_space_group_symop_operation_xyz
x,y,z
-y,x,z
-x,-y,z
y,-x,z
1/2+x,1/2-y,-z
1/2-x,1/2+y,-z
1/2+y,1/2+x,-z
1/2-y,1/2-x,-z
-x,-y,-z
y,-x,-z
x,y,-z
-y,x,-z
1/2-x,1/2+y,z
1/2+x,1/2-y,z
1/2-y,1/2-x,z
1/2+y,1/2+x,z
loop_
_atom_site_type_symbol
_atom_site_label
_atom_site_fract_x
_atom_site_fract_y
_atom_site_fract_z
Si Si1 0.970710 0.148648 0.640573
Si Si2 0.595117 0.760643 0.243248
Si Si3 0.852150 0.970933 0.500000
Si Si4 0.680286 0.675762 0.868782
Si Si5 0.496331 0.854990 0.000000
Si Si6 0.597671 0.612299 0.000000
Si Si7 0.170874 0.471847 0.138864
O O1 0.952037 0.219125 0.695772
O O2 0.962414 0.191041 0.569582
O O3 0.067399 0.100922 0.645832
O O4 0.684612 0.815389 0.260662
O O5 0.616695 0.682907 0.191978
O O6 0.534555 0.823643 0.199263
O O7 0.932878 0.900029 0.500000
O O8 0.729354 0.770647 0.874660
O O9 0.637658 0.651879 0.935717
O O10 0.754606 0.603152 0.853127
O O11 0.511298 0.810330 0.068414
O O12 0.394469 0.894469 0.000000
O O13 0.564074 0.935927 0.000000
O O14 0.492005 0.620503 0.000000
O O15 0.075721 0.424280 0.134393
#
# Coordination Sequence:
#
# PCOD9564503 Si02
#       7
#    16  16   8  16   8   8  16
#     4   9  17  32  55  79 103 132 166 202 241 291
#     4  11  22  33  48  74 105 132 163 204 251 300
#     4   7  12  26  51  80 102 125 163 205 238 275
#     4  10  21  36  51  67  92 126 164 208 252 293
#     4   9  17  30  48  66  82 110 161 213 244 275
#     4  11  22  34  50  70  93 122 158 200 250 313
#     4  10  20  35  53  70  94 130 169 209 253 301
#
# _framework density 18.624338999999999
#
# number of rings (size 3 to 8) (size 9 to 14) (size 15 to 20)
#    0.000    2.273    0.000    4.636    0.000    3.273 
#    0.000    3.182    0.000    0.000    0.000    1.909 
#    0.000    1.455    0.000    0.000    0.000    0.000 
#
# Total GULP energy -490499.608669 kJ/mol
# GULP energy per Si atom -5573.859189 kJ/mol
# Density = 1.858195 g / cm^3
# Si number density = 18.624339 Si / 1000 Ang^3
#
#
#
# Elastic Constant Matrix: (Units=GPa)
#
#
# Indices 1 2 3 4 5 6 
#
# 1 46.2745 16.5638 34.6812 0.0000 0.0000 0.0000
# 2 16.5638 46.2744 34.6811 0.0000 0.0000 0.0000
# 3 34.6812 34.6811 169.4533 0.0000 0.0000 0.0000
# 4 0.0000 0.0000 0.0000 10.8546 0.0000 0.0000
# 5 0.0000 0.0000 0.0000 0.0000 10.8605 0.0000
# 6 0.0000 0.0000 0.0000 0.0000 0.0000 26.7755
#
#
#
# Elastic Compliance Matrix: (Units=1/GPa)
#
#
# Indices 1 2 3 4 5 6 
#
# 1 0.027108 -0.006550 -0.004208 0.000000 0.000000 0.000000
# 2 -0.006550 0.027108 -0.004208 0.000000 0.000000 0.000000
# 3 -0.004208 -0.004208 0.007624 0.000000 0.000000 0.000000
# 4 0.000000 0.000000 0.000000 0.092127 0.000000 0.000000
# 5 0.000000 0.000000 0.000000 0.000000 0.092077 0.000000
# 6 0.000000 0.000000 0.000000 0.000000 0.000000 0.037348
#
#
# Mechanical properties :
#
#
# Convention : Reuss Voigt Hill
#
# Bulk Modulus (GPa) = 31.33820 48.20603 39.77212
# Shear Modulus (GPa) = 15.43412 21.43652 18.43532
#
# Velocity S-wave (km/s) = 2.88185 3.39631 3.14960
# Velocity P-wave (km/s) = 5.28549 6.42802 5.88455
#
# Compressibility (1/GPa) = 0.03190993
#
# Stress axis : x y z
#
# Youngs Moduli (GPa) = 36.88934 36.88930 131.17146
#
# Poissons Ratio (x) = 0.24162 0.55191
# Poissons Ratio (y) = 0.24162 0.55191
# Poissons Ratio (z) = 0.15521 0.15521
#
# Static dielectric constant tensor:
#      x y z
#    x 1.693510 0.000000 0.000000 
#    y 0.000000 1.693510 0.000000 
#    z 0.000000 0.000000 1.650900 
# 
# From -- ./inp_files/5722.got.cif
#   From: 2010.05.17/outbox.ucp.g08.bks.cvg/sg127_3_cif.got.tgz:5722.got - 2010.06.11 11:37:05.
