data_PCOD9564356
_publ_section_title
;
Structure prediction by ZEFSAII (Michael W. Deem and Ramdas Pophale) SiO2 
 PCOD9564356
Probable space group: P 4/M B M
;
_chemical_formula_sum "Si O2"
_cell_formula_units_Z 96
_cell_length_a 16.466180
_cell_length_b 16.466180
_cell_length_c 19.205289
_cell_angle_alpha 90.000000
_cell_angle_beta 90.000000
_cell_angle_gamma 90.000000
_cell_volume 5207.227642
_symmetry_space_group_name_H-M "P 4/M B M"
_symmetry_group_IT_number 127
_symmetry_cell_setting 'tetragonal'
loop_
_space_group_symop_operation_xyz
x,y,z
-y,x,z
-x,-y,z
y,-x,z
1/2+x,1/2-y,-z
1/2-x,1/2+y,-z
1/2+y,1/2+x,-z
1/2-y,1/2-x,-z
-x,-y,-z
y,-x,-z
x,y,-z
-y,x,-z
1/2-x,1/2+y,z
1/2+x,1/2-y,z
1/2-y,1/2-x,z
1/2+y,1/2+x,z
loop_
_atom_site_type_symbol
_atom_site_label
_atom_site_fract_x
_atom_site_fract_y
_atom_site_fract_z
Si Si1 0.159579 0.201706 0.279960
Si Si2 0.130444 0.030465 0.916294
Si Si3 0.661147 0.976191 0.577012
Si Si4 0.160499 0.798966 0.425471
Si Si5 0.732780 0.897850 0.176628
Si Si6 0.463902 0.832152 0.732685
O O1 0.226884 0.273117 0.285979
O O2 0.147334 0.166708 0.357127
O O3 0.199666 0.137202 0.229484
O O4 0.080883 0.246968 0.253061
O O5 0.215340 0.054486 0.880955
O O6 0.058666 0.094859 0.897562
O O7 0.138354 0.032143 0.000000
O O8 0.661662 0.016900 0.500000
O O9 0.582103 0.917898 0.578769
O O10 0.738855 0.916422 0.579595
O O11 0.661646 0.024946 0.648915
O O12 0.158578 0.842217 0.500000
O O13 0.237710 0.737710 0.426178
O O14 0.677331 0.822670 0.150332
O O15 0.674894 0.954543 0.223596
O O16 0.406791 0.906791 0.754189
#
# Coordination Sequence:
#
# PCOD9564356 Si02
#       6
#    16  16  16  16  16  16
#     4   9  18  31  47  70  98 133 178 224 265 311
#     4   9  19  38  64  91 115 139 174 222 269 311
#     4   9  17  30  47  67  95 133 177 224 275 327
#     4   8  13  25  45  64  87 125 172 221 273 322
#     4  11  21  35  55  79 113 150 180 211 261 326
#     4  11  22  33  49  76 107 138 182 232 273 320
#
# _framework density 18.435912999999999
#
# number of rings (size 3 to 8) (size 9 to 14) (size 15 to 20)
#    0.000    2.500    1.667    3.000    0.000    2.667 
#    0.000    2.500    0.000    1.500    0.000    1.167 
#    0.000    2.667    0.000    0.000    0.000    0.000 
#
# Total GULP energy -534913.402670 kJ/mol
# GULP energy per Si atom -5572.014611 kJ/mol
# Density = 1.839395 g / cm^3
# Si number density = 18.435913 Si / 1000 Ang^3
#
#
#
# Elastic Constant Matrix: (Units=GPa)
#
#
# Indices 1 2 3 4 5 6 
#
# 1 62.0713 22.5357 30.0460 0.0000 0.0000 0.0000
# 2 22.5357 62.0713 30.0460 0.0000 0.0000 0.0000
# 3 30.0460 30.0460 55.5863 0.0000 0.0000 0.0000
# 4 0.0000 0.0000 0.0000 26.2038 0.0000 0.0000
# 5 0.0000 0.0000 0.0000 0.0000 26.2038 0.0000
# 6 0.0000 0.0000 0.0000 0.0000 0.0000 20.7985
#
#
#
# Elastic Compliance Matrix: (Units=1/GPa)
#
#
# Indices 1 2 3 4 5 6 
#
# 1 0.022239 -0.003055 -0.010370 0.000000 0.000000 0.000000
# 2 -0.003055 0.022239 -0.010370 0.000000 0.000000 0.000000
# 3 -0.010370 -0.010370 0.029200 0.000000 0.000000 0.000000
# 4 0.000000 0.000000 0.000000 0.038162 0.000000 0.000000
# 5 0.000000 0.000000 0.000000 0.000000 0.038162 0.000000
# 6 0.000000 0.000000 0.000000 0.000000 0.000000 0.048080
#
#
# Mechanical properties :
#
#
# Convention : Reuss Voigt Hill
#
# Bulk Modulus (GPa) = 38.32848 38.33157 38.33002
# Shear Modulus (GPa) = 19.65653 21.11464 20.38558
#
# Velocity S-wave (km/s) = 3.26883 3.38790 3.32890
# Velocity P-wave (km/s) = 5.92302 6.01172 5.96754
#
# Compressibility (1/GPa) = 0.02609026
#
# Stress axis : x y z
#
# Youngs Moduli (GPa) = 44.96595 44.96595 34.24624
#
# Poissons Ratio (x) = 0.13735 0.35512
# Poissons Ratio (y) = 0.13735 0.35512
# Poissons Ratio (z) = 0.46628 0.46628
#
# Static dielectric constant tensor:
#      x y z
#    x 1.652510 0.000000 0.000000 
#    y 0.000000 1.652510 0.000000 
#    z 0.000000 0.000000 1.649440 
# 
# From -- ./inp_files/5794.got.cif
#   From: 2010.05.17/outbox.cif.g08.bks.cpg/sg127_3_cif.got.tgz:5794.got - 2010.05.20 12:03:00.
