data_PCOD9564887
_publ_section_title
;
Structure prediction by ZEFSAII (Michael W. Deem and Ramdas Pophale) SiO2 
 PCOD9564887
Probable space group: P 4/M N C
;
_chemical_formula_sum "Si O2"
_cell_formula_units_Z 96
_cell_length_a 13.774199
_cell_length_b 13.774199
_cell_length_c 23.603835
_cell_angle_alpha 90.000000
_cell_angle_beta 90.000000
_cell_angle_gamma 90.000000
_cell_volume 4478.321580
_symmetry_space_group_name_H-M "P 4/M N C"
_symmetry_group_IT_number 128
_symmetry_cell_setting 'tetragonal'
loop_
_space_group_symop_operation_xyz
x,y,z
-y,x,z
-x,-y,z
y,-x,z
1/2+x,1/2-y,1/2-z
1/2-x,1/2+y,1/2-z
1/2+y,1/2+x,1/2-z
1/2-y,1/2-x,1/2-z
-x,-y,-z
y,-x,-z
x,y,-z
-y,x,-z
1/2-x,1/2+y,1/2+z
1/2+x,1/2-y,1/2+z
1/2-y,1/2-x,1/2+z
1/2+y,1/2+x,1/2+z
loop_
_atom_site_type_symbol
_atom_site_label
_atom_site_fract_x
_atom_site_fract_y
_atom_site_fract_z
Si Si1 0.223273 0.879048 0.182540
Si Si2 0.749366 0.925480 0.880771
Si Si3 0.741058 0.592381 0.189595
Si Si4 0.472887 0.112486 0.886369
Si Si5 0.297743 0.930482 0.500000
Si Si6 0.633161 0.585296 0.918486
Si Si7 0.150886 0.061201 0.000000
O O1 0.128027 0.825153 0.160326
O O2 0.305817 0.797286 0.185683
O O3 0.215231 0.924260 0.245255
O O4 0.254726 0.962939 0.139160
O O5 0.642874 0.879987 0.881439
O O6 0.790020 0.918129 0.943791
O O7 0.816225 0.517117 0.161202
O O8 0.649183 0.595285 0.148100
O O9 0.500000 0.000000 0.875778
O O10 0.514177 0.142727 0.948245
O O11 0.226732 0.877532 0.548723
O O12 0.529484 0.629291 0.934480
O O13 0.051805 0.121619 0.000000
#
# Coordination Sequence:
#
# PCOD9564887 Si02
#       7
#    16  16  16  16   8  16   8
#     4  11  26  44  69 103 139 183 238 296 354 434
#     4  12  25  46  73 105 139 185 239 294 365 433
#     4  10  25  45  65 102 141 180 237 292 348 426
#     4  11  23  45  71 103 139 188 234 289 361 426
#     4  10  22  38  65  96 136 174 232 291 338 421
#     4  10  22  41  65  95 134 185 232 285 356 422
#     4  11  23  45  72 102 144 185 231 299 358 428
#
# _framework density 21.436602000000001
#
# number of rings (size 3 to 8) (size 9 to 14) (size 15 to 20)
#    0.000    1.250    3.333    1.250    7.000    3.000 
#    0.000    0.833    0.000    0.000    0.000    0.000 
#    0.000    0.000    0.000    0.000    0.000    0.000 
#
# Total GULP energy -534701.632537 kJ/mol
# GULP energy per Si atom -5569.808672 kJ/mol
# Density = 2.138781 g / cm^3
# Si number density = 21.436602 Si / 1000 Ang^3
#
#
#
# Elastic Constant Matrix: (Units=GPa)
#
#
# Indices 1 2 3 4 5 6 
#
# 1 56.5959 -16.4143 36.6092 0.0000 0.0000 0.0000
# 2 -16.4143 56.5959 36.6092 0.0000 0.0000 0.0000
# 3 36.6092 36.6092 152.6941 0.0000 0.0000 0.0000
# 4 0.0000 0.0000 0.0000 89.9008 0.0000 0.0000
# 5 0.0000 0.0000 0.0000 0.0000 89.9008 0.0000
# 6 0.0000 0.0000 0.0000 0.0000 0.0000 29.4278
#
#
#
# Elastic Compliance Matrix: (Units=1/GPa)
#
#
# Indices 1 2 3 4 5 6 
#
# 1 0.028946 0.015249 -0.010596 0.000000 0.000000 0.000000
# 2 0.015249 0.028946 -0.010596 0.000000 0.000000 0.000000
# 3 -0.010596 -0.010596 0.011630 0.000000 0.000000 0.000000
# 4 0.000000 0.000000 0.000000 0.011123 0.000000 0.000000
# 5 0.000000 0.000000 0.000000 0.000000 0.011123 0.000000
# 6 0.000000 0.000000 0.000000 0.000000 0.000000 0.033982
#
#
# Mechanical properties :
#
#
# Convention : Reuss Voigt Hill
#
# Bulk Modulus (GPa) = 17.35036 42.16601 29.75819
# Shear Modulus (GPa) = 31.87818 55.78465 43.83142
#
# Velocity S-wave (km/s) = 3.86047 5.10682 4.52674
# Velocity P-wave (km/s) = 5.28983 7.38143 6.42137
#
# Compressibility (1/GPa) = 0.05763568
#
# Stress axis : x y z
#
# Youngs Moduli (GPa) = 34.54744 34.54744 85.98540
#
# Poissons Ratio (x) = -0.52681 0.91109
# Poissons Ratio (y) = -0.52681 0.91109
# Poissons Ratio (z) = 0.36606 0.36606
#
# Static dielectric constant tensor:
#      x y z
#    x 1.791820 0.000000 0.000000 
#    y 0.000000 1.791820 0.000000 
#    z 0.000000 0.000000 1.823530 
# 
# From -- ./inp_files/5823.got.cif
#   From: 2010.05.17/outbox.cif.g08.bks.cpg/sg128_3_cif.got.tgz:5823.got - 2010.05.20 12:07:25.
