data_PCOD9564770
_publ_section_title
;
Structure prediction by ZEFSAII (Michael W. Deem and Ramdas Pophale) SiO2 
 PCOD9564770
Probable space group: P 4/M N C
;
_chemical_formula_sum "Si O2"
_cell_formula_units_Z 84
_cell_length_a 11.499269
_cell_length_b 11.499269
_cell_length_c 30.832602
_cell_angle_alpha 90.000000
_cell_angle_beta 90.000000
_cell_angle_gamma 90.000000
_cell_volume 4077.093242
_symmetry_space_group_name_H-M "P 4/M N C"
_symmetry_group_IT_number 128
_symmetry_cell_setting 'tetragonal'
loop_
_space_group_symop_operation_xyz
x,y,z
-y,x,z
-x,-y,z
y,-x,z
1/2+x,1/2-y,1/2-z
1/2-x,1/2+y,1/2-z
1/2+y,1/2+x,1/2-z
1/2-y,1/2-x,1/2-z
-x,-y,-z
y,-x,-z
x,y,-z
-y,x,-z
1/2-x,1/2+y,1/2+z
1/2+x,1/2-y,1/2+z
1/2-y,1/2-x,1/2+z
1/2+y,1/2+x,1/2+z
loop_
_atom_site_type_symbol
_atom_site_label
_atom_site_fract_x
_atom_site_fract_y
_atom_site_fract_z
Si Si1 0.597968 0.332656 0.500000
Si Si2 0.184181 0.712659 0.800851
Si Si3 0.397043 0.335571 0.870388
Si Si4 0.536744 0.305991 0.000000
Si Si5 0.260777 0.945967 0.152335
Si Si6 0.000000 0.000000 0.125185
Si Si7 0.672299 0.196972 0.925807
O O1 0.651956 0.460298 0.500000
O O2 0.638997 0.263408 0.541911
O O3 0.190653 0.690653 0.750000
O O4 0.275881 0.630614 0.825161
O O5 0.222934 0.843840 0.814154
O O6 0.056617 0.692189 0.821358
O O7 0.533732 0.347404 0.874813
O O8 0.316671 0.273851 0.906174
O O9 0.631363 0.412125 0.000000
O O10 0.564955 0.230862 0.042762
O O11 0.342583 0.887383 0.115709
O O12 0.142880 0.987691 0.128684
#
# Coordination Sequence:
#
# PCOD9564770 Si02
#       7
#     8  16  16   8  16   4  16
#     4  10  24  36  62  94 127 170 218 268 307 383
#     4  10  22  38  64  90 130 164 219 270 330 385
#     4  10  22  41  66  91 117 164 220 270 312 385
#     4  10  20  38  68  98 125 170 220 275 317 385
#     4   9  20  37  60  94 123 170 211 270 322 395
#     4   8  16  32  60  85 108 156 228 260 304 353
#     4  10  21  37  61  93 130 159 211 263 328 376
#
# _framework density 20.602913000000001
#
# number of rings (size 3 to 8) (size 9 to 14) (size 15 to 20)
#    0.000    2.286    0.000    1.143   10.667    1.524 
#    0.000    3.810    8.381    5.714    0.000    0.000 
#    0.000    0.000    0.000    0.000    0.000    0.000 
#
# Total GULP energy -467652.154019 kJ/mol
# GULP energy per Si atom -5567.287548 kJ/mol
# Density = 2.055602 g / cm^3
# Si number density = 20.602913 Si / 1000 Ang^3
#
#
#
# Elastic Constant Matrix: (Units=GPa)
#
#
# Indices 1 2 3 4 5 6 
#
# 1 52.3202 -9.6838 28.7644 0.0000 0.0000 0.0000
# 2 -9.6838 52.3202 28.7644 0.0000 0.0000 0.0000
# 3 28.7644 28.7644 155.8954 0.0000 0.0000 0.0000
# 4 0.0000 0.0000 0.0000 23.8220 0.0000 0.0000
# 5 0.0000 0.0000 0.0000 0.0000 23.8220 0.0000
# 6 0.0000 0.0000 0.0000 0.0000 0.0000 38.0234
#
#
#
# Elastic Compliance Matrix: (Units=1/GPa)
#
#
# Indices 1 2 3 4 5 6 
#
# 1 0.023678 0.007550 -0.005762 0.000000 0.000000 0.000000
# 2 0.007550 0.023678 -0.005762 0.000000 0.000000 0.000000
# 3 -0.005762 -0.005762 0.008541 0.000000 0.000000 0.000000
# 4 0.000000 0.000000 0.000000 0.041978 0.000000 0.000000
# 5 0.000000 0.000000 0.000000 0.000000 0.041978 0.000000
# 6 0.000000 0.000000 0.000000 0.000000 0.000000 0.026300
#
#
# Mechanical properties :
#
#
# Convention : Reuss Voigt Hill
#
# Bulk Modulus (GPa) = 20.85492 39.58061 30.21776
# Shear Modulus (GPa) = 26.30417 31.31289 28.80853
#
# Velocity S-wave (km/s) = 3.57700 3.90273 3.74341
# Velocity P-wave (km/s) = 5.21576 6.28977 5.77778
#
# Compressibility (1/GPa) = 0.04795033
#
# Stress axis : x y z
#
# Youngs Moduli (GPa) = 42.23258 42.23258 117.08401
#
# Poissons Ratio (x) = -0.31887 0.67464
# Poissons Ratio (y) = -0.31887 0.67464
# Poissons Ratio (z) = 0.24335 0.24335
#
# Static dielectric constant tensor:
#      x y z
#    x 1.746370 0.000000 0.000000 
#    y 0.000000 1.746370 0.000000 
#    z 0.000000 0.000000 1.750450 
# 
# From -- ./inp_files/7318.got.cif
#   From: 2010.05.17/outbox.cif.g08.bks.cpg/sg128_4_cif.got.tgz:7318.got - 2010.05.20 12:07:25.
