data_PCOD9564454
_publ_section_title
;
Structure prediction by ZEFSAII (Michael W. Deem and Ramdas Pophale) SiO2 
 PCOD9564454
Probable space group: P 4/M B M
;
_chemical_formula_sum "Si O2"
_cell_formula_units_Z 88
_cell_length_a 11.404184
_cell_length_b 11.404184
_cell_length_c 35.365390
_cell_angle_alpha 90.000000
_cell_angle_beta 90.000000
_cell_angle_gamma 90.000000
_cell_volume 4599.460392
_symmetry_space_group_name_H-M "P 4/M B M"
_symmetry_group_IT_number 127
_symmetry_cell_setting 'tetragonal'
loop_
_space_group_symop_operation_xyz
x,y,z
-y,x,z
-x,-y,z
y,-x,z
1/2+x,1/2-y,-z
1/2-x,1/2+y,-z
1/2+y,1/2+x,-z
1/2-y,1/2-x,-z
-x,-y,-z
y,-x,-z
x,y,-z
-y,x,-z
1/2-x,1/2+y,z
1/2+x,1/2-y,z
1/2-y,1/2-x,z
1/2+y,1/2+x,z
loop_
_atom_site_type_symbol
_atom_site_label
_atom_site_fract_x
_atom_site_fract_y
_atom_site_fract_z
Si Si1 0.402145 0.097856 0.735239
Si Si2 0.900569 0.400569 0.179059
Si Si3 0.987031 0.802971 0.403992
Si Si4 0.197051 0.012938 0.681694
Si Si5 0.525874 0.697613 0.040586
Si Si6 0.598068 0.098068 0.457545
Si Si7 0.470779 0.303689 0.123690
O O1 0.367671 0.132330 0.777909
O O2 0.459833 0.203386 0.711681
O O3 0.500000 0.000000 0.738987
O O4 0.789528 0.449859 0.156187
O O5 0.000000 0.500000 0.179296
O O6 0.999959 0.754981 0.361152
O O7 0.959819 0.703610 0.434040
O O8 0.104581 0.880156 0.407992
O O9 0.119839 0.895383 0.685700
O O10 0.403183 0.626041 0.040462
O O11 0.534917 0.754669 0.081761
O O12 0.533614 0.761164 0.000000
O O13 0.634679 0.134679 0.500000
O O14 0.500000 0.000000 0.460833
O O15 0.594777 0.371681 0.126169
#
# Coordination Sequence:
#
# PCOD9564454 Si02
#       7
#     8   8  16  16  16   8  16
#     4  11  26  39  59  89 118 154 195 241 301 357
#     4  11  26  42  54  82 121 154 194 243 289 343
#     4   9  21  41  65  91 120 160 203 247 301 354
#     4   9  21  41  65  94 121 149 192 246 303 359
#     4   7  10  21  47  82 110 133 178 238 283 332
#     4  11  26  39  56  91 129 166 211 253 292 344
#     4   9  19  37  62  85 108 153 200 232 286 353
#
# _framework density 19.132680000000001
#
# number of rings (size 3 to 8) (size 9 to 14) (size 15 to 20)
#    0.000    2.818    0.000    2.727    6.364    3.636 
#    0.000    3.182    0.000    1.091    0.000    0.000 
#    0.000    0.000    0.000    0.000    0.000    0.000 
#
# Total GULP energy -490387.626932 kJ/mol
# GULP energy per Si atom -5572.586670 kJ/mol
# Density = 1.908913 g / cm^3
# Si number density = 19.132680 Si / 1000 Ang^3
#
#
#
# Elastic Constant Matrix: (Units=GPa)
#
#
# Indices 1 2 3 4 5 6 
#
# 1 -71.3858 147.8897 67.2491 0.0000 0.0000 0.0000
# 2 147.8897 -71.3858 67.2491 0.0000 0.0000 0.0000
# 3 67.2491 67.2491 211.2882 0.0000 0.0000 0.0000
# 4 0.0000 0.0000 0.0000 29.4723 0.0000 0.0000
# 5 0.0000 0.0000 0.0000 0.0000 29.4723 0.0000
# 6 0.0000 0.0000 0.0000 0.0000 0.0000 7.3512
#
#
#
# Elastic Compliance Matrix: (Units=1/GPa)
#
#
# Indices 1 2 3 4 5 6 
#
# 1 0.012558 0.017119 -0.009446 0.000000 0.000000 0.000000
# 2 0.017119 0.012558 -0.009446 0.000000 0.000000 0.000000
# 3 -0.009446 -0.009446 0.010746 0.000000 0.000000 0.000000
# 4 0.000000 0.000000 0.000000 0.033930 0.000000 0.000000
# 5 0.000000 0.000000 0.000000 0.000000 0.033930 0.000000
# 6 0.000000 0.000000 0.000000 0.000000 0.000000 0.136033
#
#
# Mechanical properties :
#
#
# Convention : Reuss Voigt Hill
#
# Bulk Modulus (GPa) = 30.94308 70.36583 50.65445
# Shear Modulus (GPa) = 19.67937 -0.99892 9.34022
#
# Velocity S-wave (km/s) = 3.21062 -0.72335 2.21188
# Velocity P-wave (km/s) = 5.47285 6.01332 5.74944
#
# Compressibility (1/GPa) = 0.03231740
#
# Stress axis : x y z
#
# Youngs Moduli (GPa) = 79.62774 79.62774 93.06069
#
# Poissons Ratio (x) = -1.36314 0.87903
# Poissons Ratio (y) = -1.36314 0.87903
# Poissons Ratio (z) = 0.75214 0.75214
#
# Static dielectric constant tensor:
#      x y z
#    x 1.659590 0.000000 0.000000 
#    y 0.000000 1.659590 0.000000 
#    z 0.000000 0.000000 1.696350 
# 
# From -- ./inp_files/6560.got.cif
#   From: 2010.05.17/outbox.cif.g08.bks.cpg/sg127_4_cif.got.tgz:6560.got - 2010.05.20 12:03:00.
