data_PCOD9564967
_publ_section_title
;
Structure prediction by ZEFSAII (Michael W. Deem and Ramdas Pophale) SiO2 
 PCOD9564967
Probable space group: P 4/M N C
;
_chemical_formula_sum "Si O2"
_cell_formula_units_Z 112
_cell_length_a 14.827196
_cell_length_b 14.827196
_cell_length_c 25.552775
_cell_angle_alpha 90.000000
_cell_angle_beta 90.000000
_cell_angle_gamma 90.000000
_cell_volume 5617.668760
_symmetry_space_group_name_H-M "P 4/M N C"
_symmetry_group_IT_number 128
_symmetry_cell_setting 'tetragonal'
loop_
_space_group_symop_operation_xyz
x,y,z
-y,x,z
-x,-y,z
y,-x,z
1/2+x,1/2-y,1/2-z
1/2-x,1/2+y,1/2-z
1/2+y,1/2+x,1/2-z
1/2-y,1/2-x,1/2-z
-x,-y,-z
y,-x,-z
x,y,-z
-y,x,-z
1/2-x,1/2+y,1/2+z
1/2+x,1/2-y,1/2+z
1/2-y,1/2-x,1/2+z
1/2+y,1/2+x,1/2+z
loop_
_atom_site_type_symbol
_atom_site_label
_atom_site_fract_x
_atom_site_fract_y
_atom_site_fract_z
Si Si1 0.354149 0.833260 0.063775
Si Si2 0.924532 0.131012 0.192398
Si Si3 0.139990 0.060071 0.687283
Si Si4 0.836386 0.199372 0.909351
Si Si5 0.136375 0.547401 0.559736
Si Si6 0.077528 0.125843 0.000000
Si Si7 0.442019 0.357143 0.000000
Si Si8 0.952040 0.274018 0.403742
O O1 0.269280 0.781492 0.089226
O O2 0.441823 0.785664 0.086642
O O3 0.359513 0.942100 0.075718
O O4 0.350601 0.825701 0.000000
O O5 0.917678 0.162493 0.252280
O O6 0.877491 0.188901 0.147862
O O7 0.031504 0.118017 0.184880
O O8 0.045604 0.113017 0.678896
O O9 0.222939 0.076097 0.648870
O O10 0.902598 0.267462 0.938708
O O11 0.832846 0.110434 0.945889
O O12 0.101450 0.548604 0.500000
O O13 0.081437 0.622340 0.592224
O O14 0.973063 0.116623 0.000000
O O15 0.548331 0.387193 0.000000
O O16 0.421885 0.292971 0.049395
#
# Coordination Sequence:
#
# PCOD9564967 Si02
#       8
#    16  16  16  16  16   8   8  16
#     4  11  23  39  58  90 132 173 211 256 314 387
#     4   9  18  36  62  90 120 157 199 254 321 376
#     4   9  20  39  64  90 120 154 204 271 328 376
#     4  12  22  35  61  88 125 161 207 260 302 378
#     4  11  23  39  57  86 127 170 210 250 309 385
#     4  11  20  30  50  86 126 158 185 236 314 378
#     4  11  24  36  57  92 126 158 205 266 330 385
#     4  12  23  38  63  83 125 169 215 256 320 385
#
# _framework density 19.937094999999999
#
# number of rings (size 3 to 8) (size 9 to 14) (size 15 to 20)
#    0.000    1.286    2.857    4.714    4.000    3.429 
#    0.000    0.714    0.000    2.571    0.000    6.000 
#    0.000    0.000    0.000    0.000    0.000    0.000 
#
# Total GULP energy -624729.124271 kJ/mol
# GULP energy per Si atom -5577.938610 kJ/mol
# Density = 1.989172 g / cm^3
# Si number density = 19.937095 Si / 1000 Ang^3
#
#
#
# Elastic Constant Matrix: (Units=GPa)
#
#
# Indices 1 2 3 4 5 6 
#
# 1 88.2184 15.7012 44.3397 0.0000 0.0000 0.0000
# 2 15.7012 88.2184 44.3397 0.0000 0.0000 0.0000
# 3 44.3397 44.3397 107.3477 0.0000 0.0000 0.0000
# 4 0.0000 0.0000 0.0000 12.0464 0.0000 0.0000
# 5 0.0000 0.0000 0.0000 0.0000 12.0464 0.0000
# 6 0.0000 0.0000 0.0000 0.0000 0.0000 26.1809
#
#
#
# Elastic Compliance Matrix: (Units=1/GPa)
#
#
# Indices 1 2 3 4 5 6 
#
# 1 0.014325 0.000536 -0.006138 0.000000 0.000000 0.000000
# 2 0.000536 0.014325 -0.006138 0.000000 0.000000 0.000000
# 3 -0.006138 -0.006138 0.014386 0.000000 0.000000 0.000000
# 4 0.000000 0.000000 0.000000 0.083012 0.000000 0.000000
# 5 0.000000 0.000000 0.000000 0.000000 0.083012 0.000000
# 6 0.000000 0.000000 0.000000 0.000000 0.000000 0.038196
#
#
# Mechanical properties :
#
#
# Convention : Reuss Voigt Hill
#
# Bulk Modulus (GPa) = 51.13765 54.72728 52.93246
# Shear Modulus (GPa) = 18.03380 22.01502 20.02441
#
# Velocity S-wave (km/s) = 3.01081 3.32659 3.17263
# Velocity P-wave (km/s) = 6.14751 6.50112 6.32678
#
# Compressibility (1/GPa) = 0.01955507
#
# Stress axis : x y z
#
# Youngs Moduli (GPa) = 69.80628 69.80628 69.51059
#
# Poissons Ratio (x) = -0.03738 0.42667
# Poissons Ratio (y) = -0.03738 0.42667
# Poissons Ratio (z) = 0.42849 0.42849
#
# Static dielectric constant tensor:
#      x y z
#    x 1.755660 0.000000 0.000000 
#    y 0.000000 1.755660 0.000000 
#    z 0.000000 0.000000 1.727050 
# 
# From -- ./inp_files/6957.got.cif
#   From: 2010.05.17/outbox.cif.g08.bks.cpg/sg128_4_cif.got.tgz:6957.got - 2010.05.20 12:07:25.
