data_PCOD9564764
_publ_section_title
;
Structure prediction by ZEFSAII (Michael W. Deem and Ramdas Pophale) SiO2 
 PCOD9564764
Probable space group: P 4/M N C
;
_chemical_formula_sum "Si O2"
_cell_formula_units_Z 80
_cell_length_a 18.043968
_cell_length_b 18.043968
_cell_length_c 14.577931
_cell_angle_alpha 90.000000
_cell_angle_beta 90.000000
_cell_angle_gamma 90.000000
_cell_volume 4746.352475
_symmetry_space_group_name_H-M "P 4/M N C"
_symmetry_group_IT_number 128
_symmetry_cell_setting 'tetragonal'
loop_
_space_group_symop_operation_xyz
x,y,z
-y,x,z
-x,-y,z
y,-x,z
1/2+x,1/2-y,1/2-z
1/2-x,1/2+y,1/2-z
1/2+y,1/2+x,1/2-z
1/2-y,1/2-x,1/2-z
-x,-y,-z
y,-x,-z
x,y,-z
-y,x,-z
1/2-x,1/2+y,1/2+z
1/2+x,1/2-y,1/2+z
1/2-y,1/2-x,1/2+z
1/2+y,1/2+x,1/2+z
loop_
_atom_site_type_symbol
_atom_site_label
_atom_site_fract_x
_atom_site_fract_y
_atom_site_fract_z
Si Si1 0.771413 0.480816 0.604440
Si Si2 0.859634 0.234771 0.750000
Si Si3 0.771413 0.480816 0.895560
Si Si4 0.765591 0.610247 0.250000
Si Si5 0.939537 0.439537 0.860926
O O1 0.745209 0.486044 0.500000
O O2 0.735100 0.413713 0.662091
O O3 0.762251 0.556237 0.662147
O O4 0.858830 0.462495 0.605577
O O5 0.809653 0.309653 0.750000
O O6 0.913713 0.235100 0.662090
O O7 0.802443 0.167281 0.750000
O O8 0.762251 0.556237 0.837853
O O9 0.858830 0.462495 0.894423
O O10 0.745209 0.486044 0.000000
O O11 0.841027 0.658974 0.250000
O O12 0.937247 0.437247 0.750000
O O13 0.000000 0.500000 0.888077
#
# Coordination Sequence:
#
# PCOD9564764 Si02
#       5
#    16  16  16  16  16
#     4  11  21  35  55  81 110 145 184 223 273 326
#     4  10  20  38  56  77 110 149 186 224 271 324
#     4  11  21  35  55  81 110 145 184 223 273 326
#     4  10  22  37  55  80 115 147 180 227 273 324
#     4  11  19  31  53  80 115 149 176 211 265 335
#
# _framework density 16.855049000000001
#
# number of rings (size 3 to 8) (size 9 to 14) (size 15 to 20)
#    0.000    1.400    6.000    1.800    0.000    5.600 
#    0.000    4.000    0.000    9.600    0.000   11.200 
#    0.000    0.000    0.000    0.000    0.000    0.000 
#
# Total GULP energy -446707.709148 kJ/mol
# GULP energy per Si atom -5583.846364 kJ/mol
# Density = 1.681669 g / cm^3
# Si number density = 16.855049 Si / 1000 Ang^3
#
#
#
# Elastic Constant Matrix: (Units=GPa)
#
#
# Indices 1 2 3 4 5 6 
#
# 1 66.0227 85.7806 50.2947 0.0000 0.0000 0.0000
# 2 85.7806 66.0130 50.2927 0.0000 0.0000 0.0000
# 3 50.2947 50.2927 174.7957 0.0000 0.0000 0.0000
# 4 0.0000 0.0000 0.0000 -4.1432 0.0000 0.0000
# 5 0.0000 0.0000 0.0000 0.0000 -4.1421 0.0000
# 6 0.0000 0.0000 0.0000 0.0000 0.0000 32.0186
#
#
#
# Elastic Compliance Matrix: (Units=1/GPa)
#
#
# Indices 1 2 3 4 5 6 
#
# 1 -0.021229 0.029370 -0.002342 0.000000 0.000000 0.000000
# 2 0.029370 -0.021232 -0.002342 0.000000 0.000000 0.000000
# 3 -0.002342 -0.002342 0.007069 0.000000 0.000000 0.000000
# 4 0.000000 0.000000 0.000000 -0.241362 0.000000 0.000000
# 5 0.000000 0.000000 0.000000 0.000000 -0.241425 0.000000
# 6 0.000000 0.000000 0.000000 0.000000 0.000000 0.031232
#
#
# Mechanical properties :
#
#
# Convention : Reuss Voigt Hill
#
# Bulk Modulus (GPa) = 71.53138 75.50748 73.51943
# Shear Modulus (GPa) = -9.40451 12.77756 1.68653
#
# Velocity S-wave (km/s) = -2.36469 2.75632 1.00139
# Velocity P-wave (km/s) = 5.92247 7.41789 6.71196
#
# Compressibility (1/GPa) = 0.01397988
#
# Stress axis : x y z
#
# Youngs Moduli (GPa) = -47.10628 -47.09847 141.46919
#
# Poissons Ratio (x) = 1.38328 0.33135
# Poissons Ratio (y) = 1.38351 0.33129
# Poissons Ratio (z) = -0.11033 -0.11029
#
# Static dielectric constant tensor:
#      x y z
#    x 1.547240 0.000000 0.000000 
#    y 0.000000 1.547240 0.000000 
#    z 0.000000 0.000000 1.605040 
# 
# From -- ./inp_files/3722.got.cif
#   From: 2010.05.17/outbox.cif.g08.bks.cpg/sg128_2_cif.got.tgz:3722.got - 2010.05.20 12:07:25.
