data_PCOD9564040
_publ_section_title
;
Structure prediction by ZEFSAII (Michael W. Deem and Ramdas Pophale) SiO2 
 PCOD9564040
Probable space group: P 4/M B M
;
_chemical_formula_sum "Si O2"
_cell_formula_units_Z 56
_cell_length_a 20.068866
_cell_length_b 20.068866
_cell_length_c 7.949915
_cell_angle_alpha 90.000000
_cell_angle_beta 90.000000
_cell_angle_gamma 90.000000
_cell_volume 3201.902857
_symmetry_space_group_name_H-M "P 4/M B M"
_symmetry_group_IT_number 127
_symmetry_cell_setting 'tetragonal'
loop_
_space_group_symop_operation_xyz
x,y,z
-y,x,z
-x,-y,z
y,-x,z
1/2+x,1/2-y,-z
1/2-x,1/2+y,-z
1/2+y,1/2+x,-z
1/2-y,1/2-x,-z
-x,-y,-z
y,-x,-z
x,y,-z
-y,x,-z
1/2-x,1/2+y,z
1/2+x,1/2-y,z
1/2-y,1/2-x,z
1/2+y,1/2+x,z
loop_
_atom_site_type_symbol
_atom_site_label
_atom_site_fract_x
_atom_site_fract_y
_atom_site_fract_z
Si Si1 0.210489 0.492524 0.193772
Si Si2 0.997569 0.390250 0.500000
Si Si3 0.243315 0.634575 0.302045
Si Si4 0.651254 0.258738 0.201424
O O1 0.152460 0.495635 0.331070
O O2 0.246259 0.563982 0.209798
O O3 0.253124 0.426830 0.239365
O O4 0.187914 0.483634 0.000000
O O5 0.926830 0.426830 0.500000
O O6 0.054340 0.445661 0.500000
O O7 0.234191 0.621531 0.500000
O O8 0.181193 0.681193 0.243736
O O9 0.308703 0.679682 0.278289
O O10 0.691483 0.191483 0.252985
O O11 0.657682 0.264428 0.000000
#
# Coordination Sequence:
#
# PCOD9564040 Si02
#       4
#    16   8  16  16
#     4  11  22  37  58  82 112 150 188 230 283 336
#     4  11  24  38  52  78 114 149 190 232 272 329
#     4  10  20  34  55  83 112 145 187 234 282 331
#     4   9  19  35  55  81 109 142 188 235 280 331
#
# _framework density 17.489599999999999
#
# number of rings (size 3 to 8) (size 9 to 14) (size 15 to 20)
#    0.000    1.857    1.429    2.571    2.000    5.143 
#    0.000    1.429    0.000    0.857    0.000    6.000 
#    0.000    0.000    0.000    0.000    0.000    0.000 
#
# Total GULP energy -312478.442920 kJ/mol
# GULP energy per Si atom -5579.972195 kJ/mol
# Density = 1.744979 g / cm^3
# Si number density = 17.489600 Si / 1000 Ang^3
#
#
#
# Elastic Constant Matrix: (Units=GPa)
#
#
# Indices 1 2 3 4 5 6 
#
# 1 105.8802 60.4339 32.4367 0.0000 0.0000 0.0000
# 2 60.4339 105.8755 32.4350 0.0000 0.0000 0.0000
# 3 32.4367 32.4350 70.3543 0.0000 0.0000 0.0000
# 4 0.0000 0.0000 0.0000 27.5883 0.0000 0.0000
# 5 0.0000 0.0000 0.0000 0.0000 27.5886 0.0000
# 6 0.0000 0.0000 0.0000 0.0000 0.0000 21.9536
#
#
#
# Elastic Compliance Matrix: (Units=1/GPa)
#
#
# Indices 1 2 3 4 5 6 
#
# 1 0.014668 -0.007337 -0.003380 0.000000 0.000000 0.000000
# 2 -0.007337 0.014668 -0.003380 0.000000 0.000000 0.000000
# 3 -0.003380 -0.003380 0.017330 0.000000 0.000000 0.000000
# 4 0.000000 0.000000 0.000000 0.036247 0.000000 0.000000
# 5 0.000000 0.000000 0.000000 0.000000 0.036247 0.000000
# 6 0.000000 0.000000 0.000000 0.000000 0.000000 0.045551
#
#
# Mechanical properties :
#
#
# Convention : Reuss Voigt Hill
#
# Bulk Modulus (GPa) = 54.13326 59.19125 56.66225
# Shear Modulus (GPa) = 25.11771 25.87972 25.49871
#
# Velocity S-wave (km/s) = 3.79377 3.85089 3.82243
# Velocity P-wave (km/s) = 7.08584 7.32732 7.20759
#
# Compressibility (1/GPa) = 0.01847293
#
# Stress axis : x y z
#
# Youngs Moduli (GPa) = 68.17610 68.17373 57.70236
#
# Poissons Ratio (x) = 0.50019 0.19504
# Poissons Ratio (y) = 0.50021 0.19502
# Poissons Ratio (z) = 0.23044 0.23041
#
# Static dielectric constant tensor:
#      x y z
#    x 1.596480 0.000000 0.000000 
#    y 0.000000 1.596480 0.000000 
#    z 0.000000 0.000000 1.611650 
# 
# From -- ./inp_files/1098.got.cif
#   From: 2010.05.17/outbox.cif.g08.bks.cpg/sg127_1_cif.got.tgz:1098.got - 2010.05.20 12:03:00.
