data_PCOD9564807
_publ_section_title
;
Structure prediction by ZEFSAII (Michael W. Deem and Ramdas Pophale) SiO2 
 PCOD9564807
Probable space group: P 4/M N C
;
_chemical_formula_sum "Si O2"
_cell_formula_units_Z 96
_cell_length_a 24.494913
_cell_length_b 24.494913
_cell_length_c 8.606644
_cell_angle_alpha 90.000000
_cell_angle_beta 90.000000
_cell_angle_gamma 90.000000
_cell_volume 5163.992966
_symmetry_space_group_name_H-M "P 4/M N C"
_symmetry_group_IT_number 128
_symmetry_cell_setting 'tetragonal'
loop_
_space_group_symop_operation_xyz
x,y,z
-y,x,z
-x,-y,z
y,-x,z
1/2+x,1/2-y,1/2-z
1/2-x,1/2+y,1/2-z
1/2+y,1/2+x,1/2-z
1/2-y,1/2-x,1/2-z
-x,-y,-z
y,-x,-z
x,y,-z
-y,x,-z
1/2-x,1/2+y,1/2+z
1/2+x,1/2-y,1/2+z
1/2-y,1/2-x,1/2+z
1/2+y,1/2+x,1/2+z
loop_
_atom_site_type_symbol
_atom_site_label
_atom_site_fract_x
_atom_site_fract_y
_atom_site_fract_z
Si Si1 0.584895 0.001329 0.314564
Si Si2 0.417183 0.530388 0.810789
Si Si3 0.702089 0.429681 0.188308
Si Si4 0.281222 0.864640 0.186068
Si Si5 0.220920 0.195341 0.313722
Si Si6 0.705623 0.009960 0.186271
O O1 0.556135 0.056135 0.250000
O O2 0.582069 0.001830 0.500000
O O3 0.548274 0.951727 0.250000
O O4 0.646707 0.996893 0.257936
O O5 0.431849 0.468423 0.762727
O O6 0.358292 0.551480 0.759363
O O7 0.416865 0.530778 0.000000
O O8 0.714293 0.367322 0.234307
O O9 0.748155 0.469324 0.253873
O O10 0.703142 0.432126 0.000000
O O11 0.335579 0.835579 0.250000
O O12 0.231084 0.829846 0.253143
O O13 0.279421 0.927837 0.230253
O O14 0.280966 0.860069 0.000000
O O15 0.274969 0.225032 0.250000
O O16 0.221728 0.198119 0.500000
O O17 0.701751 0.007141 0.000000
#
# Coordination Sequence:
#
# PCOD9564807 Si02
#       6
#    16  16  16  16  16  16
#     4  11  22  39  63  89 119 155 194 239 288 345
#     4   8  15  30  54  83 112 142 182 237 296 352
#     4  10  22  36  56  86 114 150 196 240 293 348
#     4  10  21  37  59  85 112 148 191 237 289 338
#     4  10  21  37  58  83 111 149 192 236 287 344
#     4  11  24  39  56  84 119 156 195 238 288 341
#
# _framework density 18.590266
#
# number of rings (size 3 to 8) (size 9 to 14) (size 15 to 20)
#    0.000    2.000    0.000    5.500    2.333    6.000 
#    0.000    1.667    0.000    0.000    0.000    1.167 
#    0.000    0.000    0.000    0.000    0.000    0.000 
#
# Total GULP energy -536278.848969 kJ/mol
# GULP energy per Si atom -5586.238010 kJ/mol
# Density = 1.854795 g / cm^3
# Si number density = 18.590266 Si / 1000 Ang^3
#
#
#
# Elastic Constant Matrix: (Units=GPa)
#
#
# Indices 1 2 3 4 5 6 
#
# 1 176.6308 114.4454 47.8483 0.0000 0.0000 0.0000
# 2 114.4454 176.6147 47.8602 0.0000 0.0000 0.0000
# 3 47.8483 47.8602 52.2749 0.0000 0.0000 0.0000
# 4 0.0000 0.0000 0.0000 20.5898 0.0000 0.0000
# 5 0.0000 0.0000 0.0000 0.0000 20.5901 0.0000
# 6 0.0000 0.0000 0.0000 0.0000 0.0000 14.9898
#
#
#
# Elastic Compliance Matrix: (Units=1/GPa)
#
#
# Indices 1 2 3 4 5 6 
#
# 1 0.010498 -0.005584 -0.004496 0.000000 0.000000 0.000000
# 2 -0.005584 0.010501 -0.004503 0.000000 0.000000 0.000000
# 3 -0.004496 -0.004503 0.027368 0.000000 0.000000 0.000000
# 4 0.000000 0.000000 0.000000 0.048568 0.000000 0.000000
# 5 0.000000 0.000000 0.000000 0.000000 0.048567 0.000000
# 6 0.000000 0.000000 0.000000 0.000000 0.000000 0.066712
#
#
# Mechanical properties :
#
#
# Convention : Reuss Voigt Hill
#
# Bulk Modulus (GPa) = 52.08346 91.75868 71.92107
# Shear Modulus (GPa) = 20.17933 24.25838 22.21885
#
# Velocity S-wave (km/s) = 3.29823 3.61625 3.46090
# Velocity P-wave (km/s) = 6.52547 8.17936 7.39878
#
# Compressibility (1/GPa) = 0.01919995
#
# Stress axis : x y z
#
# Youngs Moduli (GPa) = 95.26001 95.23287 36.53950
#
# Poissons Ratio (x) = 0.53177 0.16429
# Poissons Ratio (y) = 0.53193 0.16453
# Poissons Ratio (z) = 0.42832 0.42880
#
# Static dielectric constant tensor:
#      x y z
#    x 1.621030 0.000000 0.000000 
#    y 0.000000 1.621030 0.000000 
#    z 0.000000 0.000000 1.632130 
# 
# From -- ./inp_files/1509.got.cif
#   From: 2010.05.17/outbox.cif.g08.bks.cpg/sg128_1_cif.got.tgz:1509.got - 2010.05.20 12:07:25.
