data_PCOD9564056
_publ_section_title
;
Structure prediction by ZEFSAII (Michael W. Deem and Ramdas Pophale) SiO2 
 PCOD9564056
Probable space group: P 4/M B M
;
_chemical_formula_sum "Si O2"
_cell_formula_units_Z 88
_cell_length_a 19.313786
_cell_length_b 19.313786
_cell_length_c 14.177549
_cell_angle_alpha 90.000000
_cell_angle_beta 90.000000
_cell_angle_gamma 90.000000
_cell_volume 5288.542357
_symmetry_space_group_name_H-M "P 4/M B M"
_symmetry_group_IT_number 127
_symmetry_cell_setting 'tetragonal'
loop_
_space_group_symop_operation_xyz
x,y,z
-y,x,z
-x,-y,z
y,-x,z
1/2+x,1/2-y,-z
1/2-x,1/2+y,-z
1/2+y,1/2+x,-z
1/2-y,1/2-x,-z
-x,-y,-z
y,-x,-z
x,y,-z
-y,x,-z
1/2-x,1/2+y,z
1/2+x,1/2-y,z
1/2-y,1/2-x,z
1/2+y,1/2+x,z
loop_
_atom_site_type_symbol
_atom_site_label
_atom_site_fract_x
_atom_site_fract_y
_atom_site_fract_z
Si Si1 0.745970 0.132835 0.793171
Si Si2 0.173929 0.881370 0.608855
Si Si3 0.711222 0.461630 0.390586
Si Si4 0.940852 0.440852 0.113565
Si Si5 0.293230 0.024573 0.206807
Si Si6 0.732269 0.345679 0.111798
O O1 0.679695 0.179695 0.814018
O O2 0.769363 0.141772 0.684612
O O3 0.809221 0.162741 0.853504
O O4 0.729157 0.053690 0.812472
O O5 0.193054 0.867632 0.500000
O O6 0.102461 0.840631 0.627702
O O7 0.171158 0.964908 0.620069
O O8 0.733720 0.457023 0.500000
O O9 0.775293 0.462089 0.317420
O O10 0.963915 0.370366 0.166547
O O11 0.000000 0.500000 0.120983
O O12 0.928618 0.428618 0.000000
O O13 0.245024 0.079453 0.153697
O O14 0.795398 0.295398 0.144633
O O15 0.734381 0.348098 0.000000
#
# Coordination Sequence:
#
# PCOD9564056 Si02
#       6
#    16  16  16   8  16  16
#     4  10  21  35  53  80 110 141 180 226 277 332
#     4   9  17  31  51  78 109 142 180 224 271 323
#     4   9  18  32  53  81 112 145 184 224 270 330
#     4  11  24  40  61  85 107 143 194 239 286 335
#     4  11  20  36  58  80 113 146 180 234 281 328
#     4  10  20  35  55  78 105 141 182 226 281 335
#
# _framework density 16.639745000000001
#
# number of rings (size 3 to 8) (size 9 to 14) (size 15 to 20)
#    0.000    2.091    2.727    1.091    0.000    2.182 
#    0.000    4.091    0.000    2.727    0.000    1.273 
#    0.000    0.000    0.000    0.000    0.000    0.000 
#
# Total GULP energy -490311.159817 kJ/mol
# GULP energy per Si atom -5571.717725 kJ/mol
# Density = 1.660187 g / cm^3
# Si number density = 16.639745 Si / 1000 Ang^3
#
#
#
# Elastic Constant Matrix: (Units=GPa)
#
#
# Indices 1 2 3 4 5 6 
#
# 1 98.2665 70.2056 53.5353 0.0000 0.0000 0.0000
# 2 70.2056 98.2665 53.5353 0.0000 0.0000 0.0000
# 3 53.5353 53.5353 84.6161 0.0000 0.0000 0.0000
# 4 0.0000 0.0000 0.0000 26.1427 0.0000 0.0000
# 5 0.0000 0.0000 0.0000 0.0000 26.1427 0.0000
# 6 0.0000 0.0000 0.0000 0.0000 0.0000 18.2833
#
#
#
# Elastic Compliance Matrix: (Units=1/GPa)
#
#
# Indices 1 2 3 4 5 6 
#
# 1 0.022782 -0.012855 -0.006281 0.000000 0.000000 0.000000
# 2 -0.012855 0.022782 -0.006281 0.000000 0.000000 0.000000
# 3 -0.006281 -0.006281 0.019766 0.000000 0.000000 0.000000
# 4 0.000000 0.000000 0.000000 0.038252 0.000000 0.000000
# 5 0.000000 0.000000 0.000000 0.000000 0.038252 0.000000
# 6 0.000000 0.000000 0.000000 0.000000 0.000000 0.054695
#
#
# Mechanical properties :
#
#
# Convention : Reuss Voigt Hill
#
# Bulk Modulus (GPa) = 68.98011 70.63351 69.80681
# Shear Modulus (GPa) = 19.82605 21.03862 20.43233
#
# Velocity S-wave (km/s) = 3.45554 3.55964 3.50798
# Velocity P-wave (km/s) = 7.58063 7.70945 7.64531
#
# Compressibility (1/GPa) = 0.01449693
#
# Stress axis : x y z
#
# Youngs Moduli (GPa) = 43.89396 43.89396 50.59234
#
# Poissons Ratio (x) = 0.56424 0.31777
# Poissons Ratio (y) = 0.56424 0.31777
# Poissons Ratio (z) = 0.27570 0.27570
#
# Static dielectric constant tensor:
#      x y z
#    x 1.547610 0.000000 0.000000 
#    y 0.000000 1.547610 0.000000 
#    z 0.000000 0.000000 1.575920 
# 
# From -- ./inp_files/4373.got.cif
#   From: 2010.05.17/outbox.cif.g08.bks.cpg/sg127_3_cif.got.tgz:4373.got - 2010.05.20 12:03:00.
