data_PCOD9564188
_publ_section_title
;
Structure prediction by ZEFSAII (Michael W. Deem and Ramdas Pophale) SiO2 
 PCOD9564188
Probable space group: P 4/M B M
;
_chemical_formula_sum "Si O2"
_cell_formula_units_Z 96
_cell_length_a 26.823120
_cell_length_b 26.823120
_cell_length_c 8.013758
_cell_angle_alpha 90.000000
_cell_angle_beta 90.000000
_cell_angle_gamma 90.000000
_cell_volume 5765.736735
_symmetry_space_group_name_H-M "P 4/M B M"
_symmetry_group_IT_number 127
_symmetry_cell_setting 'tetragonal'
loop_
_space_group_symop_operation_xyz
x,y,z
-y,x,z
-x,-y,z
y,-x,z
1/2+x,1/2-y,-z
1/2-x,1/2+y,-z
1/2+y,1/2+x,-z
1/2-y,1/2-x,-z
-x,-y,-z
y,-x,-z
x,y,-z
-y,x,-z
1/2-x,1/2+y,z
1/2+x,1/2-y,z
1/2-y,1/2-x,z
1/2+y,1/2+x,z
loop_
_atom_site_type_symbol
_atom_site_label
_atom_site_fract_x
_atom_site_fract_y
_atom_site_fract_z
Si Si1 0.870915 0.931760 0.189472
Si Si2 0.852940 0.730006 0.805955
Si Si3 0.461630 0.630850 0.314396
Si Si4 0.428362 0.253150 0.799806
Si Si5 0.361608 0.223044 0.500000
Si Si6 0.280448 0.304560 0.500000
Si Si7 0.758876 0.041008 0.803206
O O1 0.912327 0.901369 0.288349
O O2 0.812826 0.924733 0.237096
O O3 0.881215 0.991020 0.199100
O O4 0.875492 0.914181 0.000000
O O5 0.819368 0.680633 0.783589
O O6 0.834801 0.770013 0.669530
O O7 0.911837 0.723258 0.777251
O O8 0.846022 0.746227 0.000000
O O9 0.481107 0.623022 0.500000
O O10 0.449807 0.689071 0.288993
O O11 0.393688 0.224176 0.670131
O O12 0.486062 0.239410 0.763555
O O13 0.418529 0.246280 0.000000
O O14 0.321963 0.178038 0.500000
O O15 0.331703 0.275344 0.500000
O O16 0.238176 0.261825 0.500000
O O17 0.771445 0.039307 0.000000
#
# Coordination Sequence:
#
# PCOD9564188 Si02
#       7
#    16  16  16  16   8   8  16
#     4  10  21  37  51  68  96 130 168 214 264 312
#     4   9  18  32  51  75 105 137 167 203 250 306
#     4  11  22  32  50  73  93 124 170 219 262 308
#     4   9  21  37  54  74 101 133 168 211 256 304
#     4  11  24  37  54  76 101 133 175 218 252 299
#     4   9  20  33  44  70 104 131 168 207 248 292
#     4   9  19  34  51  74 101 132 167 203 251 307
#
# _framework density 16.650082999999999
#
# number of rings (size 3 to 8) (size 9 to 14) (size 15 to 20)
#    0.000    2.333    0.000    3.000    9.333    1.333 
#    0.000    3.333    0.000    0.000    0.000    0.000 
#    0.000    1.333    0.000    6.500    0.000    0.000 
#
# Total GULP energy -534957.660967 kJ/mol
# GULP energy per Si atom -5572.475635 kJ/mol
# Density = 1.661219 g / cm^3
# Si number density = 16.650083 Si / 1000 Ang^3
#
#
#
# Elastic Constant Matrix: (Units=GPa)
#
#
# Indices 1 2 3 4 5 6 
#
# 1 72.1787 40.5869 43.1894 0.0000 0.0000 0.0000
# 2 40.5869 72.1780 43.1893 0.0000 0.0000 0.0000
# 3 43.1894 43.1893 71.5945 0.0000 0.0000 0.0000
# 4 0.0000 0.0000 0.0000 32.5336 0.0000 0.0000
# 5 0.0000 0.0000 0.0000 0.0000 32.5207 0.0000
# 6 0.0000 0.0000 0.0000 0.0000 0.0000 25.0204
#
#
#
# Elastic Compliance Matrix: (Units=1/GPa)
#
#
# Indices 1 2 3 4 5 6 
#
# 1 0.024070 -0.007584 -0.009945 0.000000 0.000000 0.000000
# 2 -0.007584 0.024070 -0.009945 0.000000 0.000000 0.000000
# 3 -0.009945 -0.009945 0.025966 0.000000 0.000000 0.000000
# 4 0.000000 0.000000 0.000000 0.030737 0.000000 0.000000
# 5 0.000000 0.000000 0.000000 0.000000 0.030750 0.000000
# 6 0.000000 0.000000 0.000000 0.000000 0.000000 0.039967
#
#
# Mechanical properties :
#
#
# Convention : Reuss Voigt Hill
#
# Bulk Modulus (GPa) = 52.19826 52.20914 52.20370
# Shear Modulus (GPa) = 21.10633 23.94731 22.52682
#
# Velocity S-wave (km/s) = 3.56426 3.79657 3.68224
# Velocity P-wave (km/s) = 6.95390 7.11641 7.03563
#
# Compressibility (1/GPa) = 0.01915773
#
# Stress axis : x y z
#
# Youngs Moduli (GPa) = 41.54559 41.54516 38.51133
#
# Poissons Ratio (x) = 0.31508 0.38300
# Poissons Ratio (y) = 0.31508 0.38300
# Poissons Ratio (z) = 0.41318 0.41318
#
# Static dielectric constant tensor:
#      x y z
#    x 1.556290 0.000000 0.000000 
#    y 0.000000 1.556290 0.000000 
#    z 0.000000 0.000000 1.584850 
# 
# From -- ./inp_files/2120.got.cif
#   From: 2010.05.17/outbox.cif.g08.bks.cpg/sg127_2_cif.got.tgz:2120.got - 2010.05.20 12:03:00.
