data_PCOD9564601
_publ_section_title
;
Structure prediction by ZEFSAII (Michael W. Deem and Ramdas Pophale) SiO2 
 PCOD9564601
Probable space group: P 4/M N C
;
_chemical_formula_sum "Si O2"
_cell_formula_units_Z 72
_cell_length_a 13.584598
_cell_length_b 13.584598
_cell_length_c 21.722042
_cell_angle_alpha 90.000000
_cell_angle_beta 90.000000
_cell_angle_gamma 90.000000
_cell_volume 4008.613931
_symmetry_space_group_name_H-M "P 4/M N C"
_symmetry_group_IT_number 128
_symmetry_cell_setting 'tetragonal'
loop_
_space_group_symop_operation_xyz
x,y,z
-y,x,z
-x,-y,z
y,-x,z
1/2+x,1/2-y,1/2-z
1/2-x,1/2+y,1/2-z
1/2+y,1/2+x,1/2-z
1/2-y,1/2-x,1/2-z
-x,-y,-z
y,-x,-z
x,y,-z
-y,x,-z
1/2-x,1/2+y,1/2+z
1/2+x,1/2-y,1/2+z
1/2-y,1/2-x,1/2+z
1/2+y,1/2+x,1/2+z
loop_
_atom_site_type_symbol
_atom_site_label
_atom_site_fract_x
_atom_site_fract_y
_atom_site_fract_z
Si Si1 0.418216 0.354567 0.000000
Si Si2 0.165850 0.751576 0.379426
Si Si3 0.905558 0.133106 0.739637
Si Si4 0.450004 0.106564 0.320272
Si Si5 0.731388 0.146429 0.814795
O O1 0.535927 0.370998 0.000000
O O2 0.382594 0.295340 0.059848
O O3 0.124372 0.807967 0.319946
O O4 0.135898 0.638377 0.366073
O O5 0.281372 0.781565 0.372800
O O6 0.846647 0.167124 0.799433
O O7 0.021451 0.131364 0.738527
O O8 0.406489 0.093512 0.250000
O O9 0.537863 0.187179 0.323388
O O10 0.500000 0.000000 0.333921
O O11 0.681249 0.181249 0.750000
#
# Coordination Sequence:
#
# PCOD9564601 Si02
#       5
#     8  16  16  16  16
#     4  11  26  44  61  79 111 154 203 249 287 335
#     4  11  23  37  58  81 116 157 201 240 290 345
#     4  10  19  31  55  85 116 150 190 234 290 355
#     4  11  21  35  59  92 127 154 186 241 308 361
#     4  10  19  34  55  84 119 152 185 233 293 357
#
# _framework density 17.961319
#
# number of rings (size 3 to 8) (size 9 to 14) (size 15 to 20)
#    0.000    1.444    2.222    6.000    6.222    1.778 
#    0.000    1.667    0.000    0.000    0.000    0.000 
#    0.000    5.333    0.000    0.000    0.000    0.000 
#
# Total GULP energy -400990.205181 kJ/mol
# GULP energy per Si atom -5569.308405 kJ/mol
# Density = 1.792044 g / cm^3
# Si number density = 17.961319 Si / 1000 Ang^3
#
#
#
# Elastic Constant Matrix: (Units=GPa)
#
#
# Indices 1 2 3 4 5 6 
#
# 1 137.8811 26.5569 51.4500 0.0000 0.0000 0.0000
# 2 26.5569 137.8816 51.4504 0.0000 0.0000 0.0000
# 3 51.4500 51.4504 66.2176 0.0000 0.0000 0.0000
# 4 0.0000 0.0000 0.0000 19.5388 0.0000 0.0000
# 5 0.0000 0.0000 0.0000 0.0000 19.5387 0.0000
# 6 0.0000 0.0000 0.0000 0.0000 0.0000 28.6806
#
#
#
# Elastic Compliance Matrix: (Units=1/GPa)
#
#
# Indices 1 2 3 4 5 6 
#
# 1 0.010410 0.001427 -0.009197 0.000000 0.000000 0.000000
# 2 0.001427 0.010410 -0.009197 0.000000 0.000000 0.000000
# 3 -0.009197 -0.009197 0.029393 0.000000 0.000000 0.000000
# 4 0.000000 0.000000 0.000000 0.051180 0.000000 0.000000
# 5 0.000000 0.000000 0.000000 0.000000 0.051180 0.000000
# 6 0.000000 0.000000 0.000000 0.000000 0.000000 0.034867
#
#
# Mechanical properties :
#
#
# Convention : Reuss Voigt Hill
#
# Bulk Modulus (GPa) = 61.42855 66.76609 64.09732
# Shear Modulus (GPa) = 22.04597 27.71983 24.88290
#
# Velocity S-wave (km/s) = 3.50725 3.93276 3.72608
# Velocity P-wave (km/s) = 7.11869 7.60756 7.36718
#
# Compressibility (1/GPa) = 0.01627908
#
# Stress axis : x y z
#
# Youngs Moduli (GPa) = 96.06603 96.06592 34.02168
#
# Poissons Ratio (x) = -0.13706 0.31288
# Poissons Ratio (y) = -0.13706 0.31289
# Poissons Ratio (z) = 0.88348 0.88349
#
# Static dielectric constant tensor:
#      x y z
#    x 1.725550 0.000000 0.000000 
#    y 0.000000 1.725550 0.000000 
#    z 0.000000 0.000000 1.634310 
# 
# From -- ./inp_files/4548.got.cif
#   From: 2010.05.17/outbox.cif.g08.bks.cpg/sg128_3_cif.got.tgz:4548.got - 2010.05.20 12:07:25.
