data_PCOD9564649
_publ_section_title
;
Structure prediction by ZEFSAII (Michael W. Deem and Ramdas Pophale) SiO2 
 PCOD9564649
Probable space group: P 4/M N C
;
_chemical_formula_sum "Si O2"
_cell_formula_units_Z 112
_cell_length_a 15.673338
_cell_length_b 15.673338
_cell_length_c 22.740243
_cell_angle_alpha 90.000000
_cell_angle_beta 90.000000
_cell_angle_gamma 90.000000
_cell_volume 5586.220831
_symmetry_space_group_name_H-M "P 4/M N C"
_symmetry_group_IT_number 128
_symmetry_cell_setting 'tetragonal'
loop_
_space_group_symop_operation_xyz
x,y,z
-y,x,z
-x,-y,z
y,-x,z
1/2+x,1/2-y,1/2-z
1/2-x,1/2+y,1/2-z
1/2+y,1/2+x,1/2-z
1/2-y,1/2-x,1/2-z
-x,-y,-z
y,-x,-z
x,y,-z
-y,x,-z
1/2-x,1/2+y,1/2+z
1/2+x,1/2-y,1/2+z
1/2-y,1/2-x,1/2+z
1/2+y,1/2+x,1/2+z
loop_
_atom_site_type_symbol
_atom_site_label
_atom_site_fract_x
_atom_site_fract_y
_atom_site_fract_z
Si Si1 0.250012 0.890426 0.434846
Si Si2 0.999505 0.592186 0.596379
Si Si3 0.386566 0.161699 0.683002
Si Si4 0.358257 0.925330 0.806179
Si Si5 0.128546 0.934979 0.674643
Si Si6 0.761864 0.191923 0.136766
Si Si7 0.126746 0.933912 0.192099
O O1 0.210164 0.889254 0.500000
O O2 0.323147 0.963723 0.434855
O O3 0.187736 0.908296 0.379617
O O4 0.288644 0.796556 0.419532
O O5 0.923265 0.573570 0.640947
O O6 0.000000 0.500000 0.563875
O O7 0.082837 0.612934 0.636359
O O8 0.361528 0.138472 0.750000
O O9 0.485349 0.191242 0.690208
O O10 0.321140 0.231062 0.657664
O O11 0.417114 0.917114 0.750000
O O12 0.305899 0.838849 0.814390
O O13 0.161261 0.916222 0.741127
O O14 0.036432 0.889186 0.670543
O O15 0.820635 0.107652 0.138980
O O16 0.033953 0.890119 0.189237
#
# Coordination Sequence:
#
# PCOD9564649 Si02
#       7
#    16  16  16  16  16  16  16
#     4  11  26  43  60  82 121 168 215 264 296 340
#     4   9  21  38  59  85 114 158 202 243 296 361
#     4  11  21  33  58  89 120 155 194 242 306 379
#     4  10  19  35  53  80 123 157 183 232 300 370
#     4   9  21  40  62  90 123 160 199 244 307 376
#     4  11  24  35  55  91 122 154 201 250 310 364
#     4   9  19  37  63  95 131 158 184 241 318 395
#
# _framework density 20.049334000000002
#
# number of rings (size 3 to 8) (size 9 to 14) (size 15 to 20)
#    0.000    2.000    1.429    2.143    8.000    2.000 
#    0.000    0.714    0.000    9.429    0.000    1.000 
#    0.000    0.000    0.000    0.000    0.000    0.000 
#
# Total GULP energy -623600.015671 kJ/mol
# GULP energy per Si atom -5567.857283 kJ/mol
# Density = 2.000370 g / cm^3
# Si number density = 20.049334 Si / 1000 Ang^3
#
#
#
# Elastic Constant Matrix: (Units=GPa)
#
#
# Indices 1 2 3 4 5 6 
#
# 1 73.2182 43.2755 18.3403 0.0000 0.0000 0.0000
# 2 43.2755 73.2182 18.3403 0.0000 0.0000 0.0000
# 3 18.3403 18.3403 53.9210 0.0000 0.0000 0.0000
# 4 0.0000 0.0000 0.0000 -1.6781 0.0000 0.0000
# 5 0.0000 0.0000 0.0000 0.0000 -1.6781 0.0000
# 6 0.0000 0.0000 0.0000 0.0000 0.0000 35.2822
#
#
#
# Elastic Compliance Matrix: (Units=1/GPa)
#
#
# Indices 1 2 3 4 5 6 
#
# 1 0.021505 -0.011892 -0.003270 0.000000 0.000000 0.000000
# 2 -0.011892 0.021505 -0.003270 0.000000 0.000000 0.000000
# 3 -0.003270 -0.003270 0.020770 0.000000 0.000000 0.000000
# 4 0.000000 0.000000 0.000000 -0.595918 0.000000 0.000000
# 5 0.000000 0.000000 0.000000 0.000000 -0.595918 0.000000
# 6 0.000000 0.000000 0.000000 0.000000 0.000000 0.028343
#
#
# Mechanical properties :
#
#
# Convention : Reuss Voigt Hill
#
# Bulk Modulus (GPa) = 37.15015 40.02996 38.59005
# Shear Modulus (GPa) = -4.74439 14.41195 4.83378
#
# Velocity S-wave (km/s) = -1.53997 2.68400 1.55441
# Velocity P-wave (km/s) = 3.92525 5.44189 4.74457
#
# Compressibility (1/GPa) = 0.02691779
#
# Stress axis : x y z
#
# Youngs Moduli (GPa) = 46.49977 46.49977 48.14616
#
# Poissons Ratio (x) = 0.55296 0.15744
# Poissons Ratio (y) = 0.55296 0.15744
# Poissons Ratio (z) = 0.15205 0.15205
#
# Static dielectric constant tensor:
#      x y z
#    x 1.773200 0.000000 0.000000 
#    y 0.000000 1.773200 0.000000 
#    z 0.000000 0.000000 1.668400 
# 
# From -- ./inp_files/6431.got.cif
#   From: 2010.05.17/outbox.cif.g08.bks.cpg/sg128_4_cif.got.tgz:6431.got - 2010.05.20 12:07:25.
