data_PCOD9564545
_publ_section_title
;
Structure prediction by ZEFSAII (Michael W. Deem and Ramdas Pophale) SiO2 
 PCOD9564545
Probable space group: P 4/M N C
;
_chemical_formula_sum "Si O2"
_cell_formula_units_Z 96
_cell_length_a 23.696877
_cell_length_b 23.696877
_cell_length_c 8.524041
_cell_angle_alpha 90.000000
_cell_angle_beta 90.000000
_cell_angle_gamma 90.000000
_cell_volume 4786.606857
_symmetry_space_group_name_H-M "P 4/M N C"
_symmetry_group_IT_number 128
_symmetry_cell_setting 'tetragonal'
loop_
_space_group_symop_operation_xyz
x,y,z
-y,x,z
-x,-y,z
y,-x,z
1/2+x,1/2-y,1/2-z
1/2-x,1/2+y,1/2-z
1/2+y,1/2+x,1/2-z
1/2-y,1/2-x,1/2-z
-x,-y,-z
y,-x,-z
x,y,-z
-y,x,-z
1/2-x,1/2+y,1/2+z
1/2+x,1/2-y,1/2+z
1/2-y,1/2-x,1/2+z
1/2+y,1/2+x,1/2+z
loop_
_atom_site_type_symbol
_atom_site_label
_atom_site_fract_x
_atom_site_fract_y
_atom_site_fract_z
Si Si1 0.795601 0.378404 0.178533
Si Si2 0.499653 0.664099 0.812444
Si Si3 0.411350 0.000764 0.811032
Si Si4 0.494902 0.217076 0.318060
Si Si5 0.117805 0.120834 0.307164
Si Si6 0.801195 0.783110 0.677342
O O1 0.851208 0.351208 0.250000
O O2 0.777085 0.427858 0.292021
O O3 0.749252 0.329277 0.172181
O O4 0.803041 0.399352 0.000000
O O5 0.482501 0.727849 0.768059
O O6 0.447901 0.624276 0.763566
O O7 0.561894 0.645914 0.754227
O O8 0.503298 0.661573 0.000000
O O9 0.443031 0.056970 0.750000
O O10 0.346441 0.993471 0.758860
O O11 0.449409 0.949409 0.750000
O O12 0.411968 0.002653 0.000000
O O13 0.510303 0.219690 0.500000
O O14 0.122306 0.122137 0.500000
O O15 0.149303 0.178063 0.250055
O O16 0.772813 0.727188 0.750000
O O17 0.817961 0.768477 0.500000
#
# Coordination Sequence:
#
# PCOD9564545 Si02
#       6
#    16  16  16  16  16  16
#     4  10  18  29  49  77 110 142 176 219 270 323
#     4  10  20  37  60  82 110 146 184 237 291 345
#     4  10  21  36  55  80 112 149 189 231 274 326
#     4  11  22  35  52  80 112 145 188 230 277 336
#     4   9  18  35  58  85 112 141 186 233 284 343
#     4   9  17  31  50  78 110 141 177 218 267 328
#
# _framework density 20.055962000000001
#
# number of rings (size 3 to 8) (size 9 to 14) (size 15 to 20)
#    0.000    2.167    1.667    2.500    0.000    5.000 
#    0.000    4.167    0.000    4.000    0.000    1.167 
#    0.000    0.000    0.000    0.000    0.000    0.000 
#
# Total GULP energy -534846.264617 kJ/mol
# GULP energy per Si atom -5571.315256 kJ/mol
# Density = 2.001031 g / cm^3
# Si number density = 20.055962 Si / 1000 Ang^3
#
#
#
# Elastic Constant Matrix: (Units=GPa)
#
#
# Indices 1 2 3 4 5 6 
#
# 1 109.2088 37.8085 8.7159 0.0000 0.0000 0.0000
# 2 37.8085 109.2126 8.7200 0.0000 0.0000 0.0000
# 3 8.7159 8.7200 7.4601 0.0000 0.0000 0.0000
# 4 0.0000 0.0000 0.0000 12.2304 0.0000 0.0000
# 5 0.0000 0.0000 0.0000 0.0000 12.2333 0.0000
# 6 0.0000 0.0000 0.0000 0.0000 0.0000 30.4574
#
#
#
# Elastic Compliance Matrix: (Units=1/GPa)
#
#
# Indices 1 2 3 4 5 6 
#
# 1 0.010950 -0.003054 -0.009223 0.000000 0.000000 0.000000
# 2 -0.003054 0.010951 -0.009232 0.000000 0.000000 0.000000
# 3 -0.009223 -0.009232 0.155614 0.000000 0.000000 0.000000
# 4 0.000000 0.000000 0.000000 0.081764 0.000000 0.000000
# 5 0.000000 0.000000 0.000000 0.000000 0.081744 0.000000
# 6 0.000000 0.000000 0.000000 0.000000 0.000000 0.032833
#
#
# Mechanical properties :
#
#
# Convention : Reuss Voigt Hill
#
# Bulk Modulus (GPa) = 7.43515 37.37448 22.40482
# Shear Modulus (GPa) = 10.82935 22.36000 16.59468
#
# Velocity S-wave (km/s) = 2.32622 3.34261 2.87961
# Velocity P-wave (km/s) = 3.30610 5.79421 4.71716
#
# Compressibility (1/GPa) = 0.13449626
#
# Stress axis : x y z
#
# Youngs Moduli (GPa) = 91.32114 91.31577 6.42614
#
# Poissons Ratio (x) = 0.27892 0.05927
# Poissons Ratio (y) = 0.27894 0.05933
# Poissons Ratio (z) = 0.84229 0.84302
#
# Static dielectric constant tensor:
#      x y z
#    x 0.095840 0.000000 0.000000 
#    y 0.000000 0.096100 0.000000 
#    z 0.000000 0.000000 1.713490 
# 
# From -- ./inp_files/1486.got.cif
#   From: 2010.05.17/outbox.cif.g08.bks.cpg/sg128_1_cif.got.tgz:1486.got - 2010.05.20 12:07:25.
