data_PCOD9564211
_publ_section_title
;
Structure prediction by ZEFSAII (Michael W. Deem and Ramdas Pophale) SiO2 
 PCOD9564211
Probable space group: P 4/M B M
;
_chemical_formula_sum "Si O2"
_cell_formula_units_Z 120
_cell_length_a 25.158486
_cell_length_b 25.158486
_cell_length_c 8.447052
_cell_angle_alpha 90.000000
_cell_angle_beta 90.000000
_cell_angle_gamma 90.000000
_cell_volume 5346.556646
_symmetry_space_group_name_H-M "P 4/M B M"
_symmetry_group_IT_number 127
_symmetry_cell_setting 'tetragonal'
loop_
_space_group_symop_operation_xyz
x,y,z
-y,x,z
-x,-y,z
y,-x,z
1/2+x,1/2-y,-z
1/2-x,1/2+y,-z
1/2+y,1/2+x,-z
1/2-y,1/2-x,-z
-x,-y,-z
y,-x,-z
x,y,-z
-y,x,-z
1/2-x,1/2+y,z
1/2+x,1/2-y,z
1/2-y,1/2-x,z
1/2+y,1/2+x,z
loop_
_atom_site_type_symbol
_atom_site_label
_atom_site_fract_x
_atom_site_fract_y
_atom_site_fract_z
Si Si1 0.537679 0.123812 0.174539
Si Si2 0.407962 0.780095 0.312226
Si Si3 0.581810 0.387402 0.326305
Si Si4 0.307765 0.321451 0.315000
Si Si5 0.737894 0.470927 0.317273
Si Si6 0.366871 0.218168 0.188161
Si Si7 0.129197 0.022572 0.172181
Si Si8 0.910233 0.498588 0.500000
O O1 0.567032 0.067032 0.166584
O O2 0.582768 0.167867 0.208433
O O3 0.503168 0.122524 0.335999
O O4 0.513059 0.133863 0.000000
O O5 0.400940 0.792673 0.500000
O O6 0.358055 0.742896 0.264571
O O7 0.466914 0.753237 0.299456
O O8 0.560979 0.373850 0.500000
O O9 0.636241 0.355756 0.307037
O O10 0.593543 0.449117 0.303020
O O11 0.539769 0.371145 0.196826
O O12 0.298936 0.307795 0.500000
O O13 0.328486 0.268768 0.228799
O O14 0.721562 0.463826 0.500000
O O15 0.777986 0.423597 0.275074
O O16 0.689102 0.460080 0.201067
O O17 0.334124 0.165877 0.234303
O O18 0.375617 0.217789 0.000000
O O19 0.110075 0.038377 0.000000
O O20 0.950219 0.549782 0.500000
O O21 0.946948 0.446948 0.500000
#
# Coordination Sequence:
#
# PCOD9564211 Si02
#       8
#    16  16  16  16  16  16  16   8
#     4  10  21  37  60  92 129 166 203 252 317 381
#     4  10  21  39  63  92 124 162 210 265 320 381
#     4  11  22  40  62  87 119 158 203 251 303 365
#     4  10  21  38  63  90 119 158 210 258 305 373
#     4  11  22  40  65  90 120 164 216 262 312 381
#     4  11  25  43  62  90 130 170 214 269 324 377
#     4  12  24  38  60  91 125 159 200 255 316 372
#     4   9  18  36  62  88 120 160 200 244 295 364
#
# _framework density 22.444351000000001
#
# number of rings (size 3 to 8) (size 9 to 14) (size 15 to 20)
#    0.000    1.400    3.333    2.400    0.000    4.267 
#    0.000    6.000    0.000    0.000    0.000    0.000 
#    0.000    0.000    0.000    0.000    0.000    0.000 
#
# Total GULP energy -669770.393946 kJ/mol
# GULP energy per Si atom -5581.419950 kJ/mol
# Density = 2.239327 g / cm^3
# Si number density = 22.444351 Si / 1000 Ang^3
#
#
#
# Elastic Constant Matrix: (Units=GPa)
#
#
# Indices 1 2 3 4 5 6 
#
# 1 52.6206 1.0675 18.4917 0.0000 0.0000 0.0000
# 2 1.0675 52.6205 18.4918 0.0000 0.0000 0.0000
# 3 18.4917 18.4918 95.1164 0.0000 0.0000 0.0000
# 4 0.0000 0.0000 0.0000 19.3088 0.0000 0.0000
# 5 0.0000 0.0000 0.0000 0.0000 19.3086 0.0000
# 6 0.0000 0.0000 0.0000 0.0000 0.0000 36.0129
#
#
#
# Elastic Compliance Matrix: (Units=1/GPa)
#
#
# Indices 1 2 3 4 5 6 
#
# 1 0.020452 0.001054 -0.004181 0.000000 0.000000 0.000000
# 2 0.001054 0.020452 -0.004181 0.000000 0.000000 0.000000
# 3 -0.004181 -0.004181 0.012139 0.000000 0.000000 0.000000
# 4 0.000000 0.000000 0.000000 0.051790 0.000000 0.000000
# 5 0.000000 0.000000 0.000000 0.000000 0.051790 0.000000
# 6 0.000000 0.000000 0.000000 0.000000 0.000000 0.027768
#
#
# Mechanical properties :
#
#
# Convention : Reuss Voigt Hill
#
# Bulk Modulus (GPa) = 26.02310 30.71772 28.37041
# Shear Modulus (GPa) = 23.60541 25.74647 24.67594
#
# Velocity S-wave (km/s) = 3.24656 3.39060 3.31936
# Velocity P-wave (km/s) = 5.06687 5.38926 5.23055
#
# Compressibility (1/GPa) = 0.03842740
#
# Stress axis : x y z
#
# Youngs Moduli (GPa) = 48.89527 48.89514 82.37816
#
# Poissons Ratio (x) = -0.05155 0.34443
# Poissons Ratio (y) = -0.05155 0.34443
# Poissons Ratio (z) = 0.20443 0.20443
#
# Static dielectric constant tensor:
#      x y z
#    x 1.853760 0.000000 0.000000 
#    y 0.000000 1.853760 0.000000 
#    z 0.000000 0.000000 1.795590 
# 
# From -- ./inp_files/2369.got.cif
#   From: 2010.05.17/outbox.cif.g08.bks.cpg/sg127_2_cif.got.tgz:2369.got - 2010.05.20 12:03:00.
