data_PCOD9564392
_publ_section_title
;
Structure prediction by ZEFSAII (Michael W. Deem and Ramdas Pophale) SiO2 
 PCOD9564392
Probable space group: P 4/M B M
;
_chemical_formula_sum "Si O2"
_cell_formula_units_Z 56
_cell_length_a 11.737669
_cell_length_b 11.737669
_cell_length_c 21.928115
_cell_angle_alpha 90.000000
_cell_angle_beta 90.000000
_cell_angle_gamma 90.000000
_cell_volume 3021.099415
_symmetry_space_group_name_H-M "P 4/M B M"
_symmetry_group_IT_number 127
_symmetry_cell_setting 'tetragonal'
loop_
_space_group_symop_operation_xyz
x,y,z
-y,x,z
-x,-y,z
y,-x,z
1/2+x,1/2-y,-z
1/2-x,1/2+y,-z
1/2+y,1/2+x,-z
1/2-y,1/2-x,-z
-x,-y,-z
y,-x,-z
x,y,-z
-y,x,-z
1/2-x,1/2+y,z
1/2+x,1/2-y,z
1/2-y,1/2-x,z
1/2+y,1/2+x,z
loop_
_atom_site_type_symbol
_atom_site_label
_atom_site_fract_x
_atom_site_fract_y
_atom_site_fract_z
Si Si1 0.903743 0.596258 0.207874
Si Si2 0.596629 0.096629 0.650625
Si Si3 0.811888 0.032355 0.429181
Si Si4 0.188148 0.977145 0.129216
Si Si5 0.690409 0.997047 0.000000
O O1 0.878767 0.621234 0.278532
O O2 0.952022 0.706489 0.173216
O O3 0.000000 0.500000 0.205005
O O4 0.552993 0.208679 0.615991
O O5 0.500000 0.000000 0.647529
O O6 0.774324 0.038935 0.500000
O O7 0.910512 0.126927 0.420517
O O8 0.095855 0.877488 0.138857
O O9 0.235308 0.983663 0.060279
O O10 0.625395 0.874606 0.000000
O O11 0.591365 0.091365 0.000000
#
# Coordination Sequence:
#
# PCOD9564392 Si02
#       5
#     8   8  16  16   8
#     4  11  26  44  64  87 126 174 212 254 314 370
#     4  11  25  40  60  95 127 164 214 258 302 373
#     4   9  20  40  65  93 126 163 204 256 318 374
#     4  11  25  43  66  96 124 161 214 264 313 376
#     4  11  22  37  66  99 127 162 198 255 323 373
#
# _framework density 18.536299
#
# number of rings (size 3 to 8) (size 9 to 14) (size 15 to 20)
#    0.000    1.571    1.429    3.000    6.000    5.714 
#    0.000    2.857    0.000    0.000    0.000    0.000 
#    0.000    0.000    0.000    0.000    0.000    0.000 
#
# Total GULP energy -312989.336436 kJ/mol
# GULP energy per Si atom -5589.095294 kJ/mol
# Density = 1.849411 g / cm^3
# Si number density = 18.536299 Si / 1000 Ang^3
#
#
#
# Elastic Constant Matrix: (Units=GPa)
#
#
# Indices 1 2 3 4 5 6 
#
# 1 106.2457 53.3873 84.7974 0.0000 0.0000 0.0000
# 2 53.3873 106.2459 84.7974 0.0000 0.0000 0.0000
# 3 84.7974 84.7974 177.5449 0.0000 0.0000 0.0000
# 4 0.0000 0.0000 0.0000 68.7071 0.0000 0.0000
# 5 0.0000 0.0000 0.0000 0.0000 68.7351 0.0000
# 6 0.0000 0.0000 0.0000 0.0000 0.0000 13.7558
#
#
#
# Elastic Compliance Matrix: (Units=1/GPa)
#
#
# Indices 1 2 3 4 5 6 
#
# 1 0.015818 -0.003101 -0.006074 0.000000 0.000000 0.000000
# 2 -0.003101 0.015818 -0.006074 0.000000 0.000000 0.000000
# 3 -0.006074 -0.006074 0.011434 0.000000 0.000000 0.000000
# 4 0.000000 0.000000 0.000000 0.014555 0.000000 0.000000
# 5 0.000000 0.000000 0.000000 0.000000 0.014549 0.000000
# 6 0.000000 0.000000 0.000000 0.000000 0.000000 0.072697
#
#
# Mechanical properties :
#
#
# Convention : Reuss Voigt Hill
#
# Bulk Modulus (GPa) = 79.53390 92.88899 86.21144
# Shear Modulus (GPa) = 27.84618 41.37655 34.61137
#
# Velocity S-wave (km/s) = 3.88009 4.72973 4.32582
# Velocity P-wave (km/s) = 7.94190 8.94695 8.45936
#
# Compressibility (1/GPa) = 0.01257325
#
# Stress axis : x y z
#
# Youngs Moduli (GPa) = 63.21942 63.21962 87.45574
#
# Poissons Ratio (x) = 0.19602 0.53120
# Poissons Ratio (y) = 0.19601 0.53120
# Poissons Ratio (z) = 0.38399 0.38399
#
# Static dielectric constant tensor:
#      x y z
#    x 1.602010 0.000000 0.000000 
#    y 0.000000 1.602010 0.000000 
#    z 0.000000 0.000000 1.612700 
# 
# From -- ./inp_files/5473.got.cif
#   From: 2010.05.17/outbox.cif.g08.bks.cpg/sg127_3_cif.got.tgz:5473.got - 2010.05.20 12:03:00.
