data_PCOD9564195
_publ_section_title
;
Structure prediction by ZEFSAII (Michael W. Deem and Ramdas Pophale) SiO2 
 PCOD9564195
Probable space group: P 4/M B M
;
_chemical_formula_sum "Si O2"
_cell_formula_units_Z 96
_cell_length_a 25.800938
_cell_length_b 25.800938
_cell_length_c 7.505797
_cell_angle_alpha 90.000000
_cell_angle_beta 90.000000
_cell_angle_gamma 90.000000
_cell_volume 4996.522008
_symmetry_space_group_name_H-M "P 4/M B M"
_symmetry_group_IT_number 127
_symmetry_cell_setting 'tetragonal'
loop_
_space_group_symop_operation_xyz
x,y,z
-y,x,z
-x,-y,z
y,-x,z
1/2+x,1/2-y,-z
1/2-x,1/2+y,-z
1/2+y,1/2+x,-z
1/2-y,1/2-x,-z
-x,-y,-z
y,-x,-z
x,y,-z
-y,x,-z
1/2-x,1/2+y,z
1/2+x,1/2-y,z
1/2-y,1/2-x,z
1/2+y,1/2+x,z
loop_
_atom_site_type_symbol
_atom_site_label
_atom_site_fract_x
_atom_site_fract_y
_atom_site_fract_z
Si Si1 0.389595 0.806895 0.783941
Si Si2 0.457170 0.042831 0.781851
Si Si3 0.638862 0.407373 0.285451
Si Si4 0.032189 0.920294 0.000000
Si Si5 0.735819 0.466956 0.285782
Si Si6 0.805485 0.077828 0.292394
Si Si7 0.500103 0.847830 0.209266
O O1 0.340964 0.840964 0.726664
O O2 0.390195 0.747615 0.724134
O O3 0.443110 0.833363 0.718666
O O4 0.390787 0.806525 0.000000
O O5 0.400123 0.025633 0.718875
O O6 0.500000 0.000000 0.732476
O O7 0.455813 0.044188 0.000000
O O8 0.633880 0.412229 0.500000
O O9 0.609749 0.452200 0.178103
O O10 0.699175 0.418386 0.240738
O O11 0.611554 0.353928 0.225054
O O12 0.972771 0.934938 0.000000
O O13 0.737327 0.470723 0.500000
O O14 0.709206 0.520797 0.217091
O O15 0.795341 0.466561 0.226700
O O16 0.817241 0.068837 0.500000
O O17 0.492128 0.857513 0.000000
#
# Coordination Sequence:
#
# PCOD9564195 Si02
#       7
#    16   8  16   8  16  16  16
#     4   9  17  29  47  73 103 131 164 212 268 316
#     4   9  16  28  49  77 109 141 175 215 263 321
#     4  10  21  37  56  77 107 142 181 226 272 322
#     4  11  24  36  52  82 111 140 179 220 271 330
#     4   9  18  33  52  73  99 132 172 216 262 315
#     4   9  18  32  51  74  97 130 172 213 262 315
#     4   9  17  29  49  75 102 135 174 214 257 314
#
# _framework density 19.213363999999999
#
# number of rings (size 3 to 8) (size 9 to 14) (size 15 to 20)
#    0.000    2.667    0.000    1.500    2.333    4.333 
#    0.000    1.250    1.833    2.000    0.000    0.000 
#    0.000    0.000    0.000    0.000    0.000    0.000 
#
# Total GULP energy -535098.215987 kJ/mol
# GULP energy per Si atom -5573.939750 kJ/mol
# Density = 1.916963 g / cm^3
# Si number density = 19.213364 Si / 1000 Ang^3
#
#
#
# Elastic Constant Matrix: (Units=GPa)
#
#
# Indices 1 2 3 4 5 6 
#
# 1 -214.9772 370.4637 3.4219 0.0000 0.0000 0.0000
# 2 370.4637 -214.9729 3.4233 0.0000 0.0000 0.0000
# 3 3.4219 3.4233 45.5290 0.0000 0.0000 0.0000
# 4 0.0000 0.0000 0.0000 5.4027 0.0000 0.0000
# 5 0.0000 0.0000 0.0000 0.0000 5.4032 0.0000
# 6 0.0000 0.0000 0.0000 0.0000 0.0000 29.6039
#
#
#
# Elastic Compliance Matrix: (Units=1/GPa)
#
#
# Indices 1 2 3 4 5 6 
#
# 1 0.002372 0.004080 -0.000485 0.000000 0.000000 0.000000
# 2 0.004080 0.002372 -0.000485 0.000000 0.000000 0.000000
# 3 -0.000485 -0.000485 0.022037 0.000000 0.000000 0.000000
# 4 0.000000 0.000000 0.000000 0.185093 0.000000 0.000000
# 5 0.000000 0.000000 0.000000 0.000000 0.185076 0.000000
# 6 0.000000 0.000000 0.000000 0.000000 0.000000 0.033779
#
#
# Mechanical properties :
#
#
# Convention : Reuss Voigt Hill
#
# Bulk Modulus (GPa) = 30.30115 41.13296 35.71705
# Shear Modulus (GPa) = 11.48078 -42.70005 -15.60963
#
# Velocity S-wave (km/s) = 2.44712 -4.71936 -2.85342
# Velocity P-wave (km/s) = 4.87746 2.87081 2.78820
#
# Compressibility (1/GPa) = 0.03300205
#
# Stress axis : x y z
#
# Youngs Moduli (GPa) = 421.53832 421.53016 45.37828
#
# Poissons Ratio (x) = -1.72001 0.02201
# Poissons Ratio (y) = -1.72005 0.02201
# Poissons Ratio (z) = 0.20449 0.20446
#
# Static dielectric constant tensor:
#      x y z
#    x 1.668310 0.000000 0.000000 
#    y 0.000000 1.668310 0.000000 
#    z 0.000000 0.000000 1.760720 
# 
# From -- ./inp_files/2063.got.cif
#   From: 2010.05.17/outbox.cif.g08.bks.cpg/sg127_2_cif.got.tgz:2063.got - 2010.05.20 12:03:00.
