data_PCOD9564234
_publ_section_title
;
Structure prediction by ZEFSAII (Michael W. Deem and Ramdas Pophale) SiO2 
 PCOD9564234
Probable space group: P 4/M B M
;
_chemical_formula_sum "Si O2"
_cell_formula_units_Z 52
_cell_length_a 18.329124
_cell_length_b 18.329124
_cell_length_c 7.407170
_cell_angle_alpha 90.000000
_cell_angle_beta 90.000000
_cell_angle_gamma 90.000000
_cell_volume 2488.489031
_symmetry_space_group_name_H-M "P 4/M B M"
_symmetry_group_IT_number 127
_symmetry_cell_setting 'tetragonal'
loop_
_space_group_symop_operation_xyz
x,y,z
-y,x,z
-x,-y,z
y,-x,z
1/2+x,1/2-y,-z
1/2-x,1/2+y,-z
1/2+y,1/2+x,-z
1/2-y,1/2-x,-z
-x,-y,-z
y,-x,-z
x,y,-z
-y,x,-z
1/2-x,1/2+y,z
1/2+x,1/2-y,z
1/2-y,1/2-x,z
1/2+y,1/2+x,z
loop_
_atom_site_type_symbol
_atom_site_label
_atom_site_fract_x
_atom_site_fract_y
_atom_site_fract_z
Si Si1 0.272264 0.227737 0.287153
Si Si2 0.861145 0.522937 0.000000
Si Si3 0.616902 0.494561 0.280392
Si Si4 0.316872 0.816872 0.000000
Si Si5 0.556813 0.773689 0.715035
O O1 0.260114 0.239887 0.500000
O O2 0.260020 0.142187 0.248119
O O3 0.220810 0.279191 0.170851
O O4 0.840560 0.475034 0.172834
O O5 0.940674 0.559327 0.000000
O O6 0.809751 0.595499 0.000000
O O7 0.574168 0.567156 0.223071
O O8 0.616491 0.494398 0.500000
O O9 0.700204 0.485307 0.227949
O O10 0.549242 0.784954 0.500000
#
# Coordination Sequence:
#
# PCOD9564234 Si02
#       5
#     8   8  16   4  16
#     4  10  22  40  66  94 122 170 213 259 325 374
#     4  10  25  40  58  90 118 161 206 253 314 360
#     4   8  15  28  50  81 114 151 190 236 301 368
#     4  10  24  40  60  91 129 158 206 268 306 384
#     4  10  21  39  62  86 122 162 207 259 312 377
#
# _framework density 20.896214000000001
#
# number of rings (size 3 to 8) (size 9 to 14) (size 15 to 20)
#    0.462    2.154    0.000    1.846    4.308    1.846 
#    0.000    1.538    0.000    4.615    0.000    0.000 
#    0.000    0.000    0.000    0.000    0.000    0.000 
#
# Total GULP energy -290323.076110 kJ/mol
# GULP energy per Si atom -5583.136079 kJ/mol
# Density = 2.084865 g / cm^3
# Si number density = 20.896214 Si / 1000 Ang^3
#
#
#
# Elastic Constant Matrix: (Units=GPa)
#
#
# Indices 1 2 3 4 5 6 
#
# 1 53.5313 38.4341 29.2507 0.0000 0.0000 0.0000
# 2 38.4341 53.5328 29.2528 0.0000 0.0000 0.0000
# 3 29.2507 29.2528 80.9158 0.0000 0.0000 0.0000
# 4 0.0000 0.0000 0.0000 12.1733 0.0000 0.0000
# 5 0.0000 0.0000 0.0000 0.0000 12.1701 0.0000
# 6 0.0000 0.0000 0.0000 0.0000 0.0000 33.0487
#
#
#
# Elastic Compliance Matrix: (Units=1/GPa)
#
#
# Indices 1 2 3 4 5 6 
#
# 1 0.040178 -0.026057 -0.005104 0.000000 0.000000 0.000000
# 2 -0.026057 0.040178 -0.005106 0.000000 0.000000 0.000000
# 3 -0.005104 -0.005106 0.016049 0.000000 0.000000 0.000000
# 4 0.000000 0.000000 0.000000 0.082147 0.000000 0.000000
# 5 0.000000 0.000000 0.000000 0.000000 0.082169 0.000000
# 6 0.000000 0.000000 0.000000 0.000000 0.000000 0.030258
#
#
# Mechanical properties :
#
#
# Convention : Reuss Voigt Hill
#
# Bulk Modulus (GPa) = 41.89017 42.42837 42.15927
# Shear Modulus (GPa) = 13.46008 17.54789 15.50399
#
# Velocity S-wave (km/s) = 2.54074 2.90101 2.72683
# Velocity P-wave (km/s) = 5.35700 5.61868 5.48940
#
# Compressibility (1/GPa) = 0.02387195
#
# Stress axis : x y z
#
# Youngs Moduli (GPa) = 24.88950 24.88946 62.30753
#
# Poissons Ratio (x) = 0.64854 0.31802
# Poissons Ratio (y) = 0.64854 0.31813
# Poissons Ratio (z) = 0.12704 0.12708
#
# Static dielectric constant tensor:
#      x y z
#    x 1.738320 0.000000 0.000000 
#    y 0.000000 1.738320 0.000000 
#    z 0.000000 0.000000 1.753510 
# 
# From -- ./inp_files/1010.got.cif
#   From: 2010.05.17/outbox.cif.g08.bks.cpg/sg127_1_cif.got.tgz:1010.got - 2010.05.20 12:03:00.
