data_PCOD9564202
_publ_section_title
;
Structure prediction by ZEFSAII (Michael W. Deem and Ramdas Pophale) SiO2 
 PCOD9564202
Probable space group: P 4/M B M
;
_chemical_formula_sum "Si O2"
_cell_formula_units_Z 88
_cell_length_a 12.066837
_cell_length_b 12.066837
_cell_length_c 29.024645
_cell_angle_alpha 90.000000
_cell_angle_beta 90.000000
_cell_angle_gamma 90.000000
_cell_volume 4226.236623
_symmetry_space_group_name_H-M "P 4/M B M"
_symmetry_group_IT_number 127
_symmetry_cell_setting 'tetragonal'
loop_
_space_group_symop_operation_xyz
x,y,z
-y,x,z
-x,-y,z
y,-x,z
1/2+x,1/2-y,-z
1/2-x,1/2+y,-z
1/2+y,1/2+x,-z
1/2-y,1/2-x,-z
-x,-y,-z
y,-x,-z
x,y,-z
-y,x,-z
1/2-x,1/2+y,z
1/2+x,1/2-y,z
1/2-y,1/2-x,z
1/2+y,1/2+x,z
loop_
_atom_site_type_symbol
_atom_site_label
_atom_site_fract_x
_atom_site_fract_y
_atom_site_fract_z
Si Si1 0.316796 0.529650 0.714218
Si Si2 0.533538 0.683968 0.392255
Si Si3 0.926228 0.238935 0.947721
Si Si4 0.680839 0.992293 0.803699
Si Si5 0.907385 0.407385 0.555105
Si Si6 0.718258 0.603516 0.884227
O O1 0.377587 0.411337 0.719937
O O2 0.278670 0.538108 0.661317
O O3 0.226530 0.537525 0.753708
O O4 0.414041 0.624438 0.399082
O O5 0.556579 0.788992 0.424006
O O6 0.828290 0.328290 0.949423
O O7 0.887934 0.141211 0.913250
O O8 0.032736 0.286211 0.922030
O O9 0.949024 0.203417 0.000000
O O10 0.592341 0.092341 0.800300
O O11 0.778838 0.032170 0.837539
O O12 0.612480 0.887521 0.823009
O O13 0.899452 0.399452 0.500000
O O14 0.000000 0.500000 0.566494
O O15 0.785703 0.714298 0.872707
#
# Coordination Sequence:
#
# PCOD9564202 Si02
#       6
#    16  16  16  16   8  16
#     4   9  20  39  62  90 124 160 206 253 302 369
#     4   9  21  44  69  94 130 181 230 277 335 402
#     4  10  21  37  59  83 105 138 185 231 284 347
#     4  10  22  37  55  85 119 155 199 237 290 362
#     4  11  26  42  64 103 143 177 225 288 341 391
#     4  10  22  39  56  78 113 148 181 233 287 347
#
# _framework density 20.822309000000001
#
# number of rings (size 3 to 8) (size 9 to 14) (size 15 to 20)
#    0.000    2.273    0.000    2.182    5.091    4.727 
#    3.273    2.727    0.000    0.000    0.000    0.000 
#    0.000    0.000    0.000    0.000    0.000    0.000 
#
# Total GULP energy -490986.629213 kJ/mol
# GULP energy per Si atom -5579.393514 kJ/mol
# Density = 2.077492 g / cm^3
# Si number density = 20.822309 Si / 1000 Ang^3
#
#
#
# Elastic Constant Matrix: (Units=GPa)
#
#
# Indices 1 2 3 4 5 6 
#
# 1 73.4741 30.6814 58.5604 0.0000 0.0000 0.0000
# 2 30.6814 73.4741 58.5604 0.0000 0.0000 0.0000
# 3 58.5604 58.5604 121.9782 0.0000 0.0000 0.0000
# 4 0.0000 0.0000 0.0000 28.7006 0.0000 0.0000
# 5 0.0000 0.0000 0.0000 0.0000 28.7006 0.0000
# 6 0.0000 0.0000 0.0000 0.0000 0.0000 3.5222
#
#
#
# Elastic Compliance Matrix: (Units=1/GPa)
#
#
# Indices 1 2 3 4 5 6 
#
# 1 0.022117 -0.001252 -0.010017 0.000000 0.000000 0.000000
# 2 -0.001252 0.022117 -0.010017 0.000000 0.000000 0.000000
# 3 -0.010017 -0.010017 0.017816 0.000000 0.000000 0.000000
# 4 0.000000 0.000000 0.000000 0.034843 0.000000 0.000000
# 5 0.000000 0.000000 0.000000 0.000000 0.034843 0.000000
# 6 0.000000 0.000000 0.000000 0.000000 0.000000 0.283915
#
#
# Mechanical properties :
#
#
# Convention : Reuss Voigt Hill
#
# Bulk Modulus (GPa) = 51.33964 62.72562 57.03263
# Shear Modulus (GPa) = 10.75931 20.25961 15.50946
#
# Velocity S-wave (km/s) = 2.27561 3.12264 2.73215
# Velocity P-wave (km/s) = 5.62265 6.57197 6.11576
#
# Compressibility (1/GPa) = 0.01947813
#
# Stress axis : x y z
#
# Youngs Moduli (GPa) = 45.21465 45.21465 56.12825
#
# Poissons Ratio (x) = 0.05660 0.56224
# Poissons Ratio (y) = 0.05660 0.56224
# Poissons Ratio (z) = 0.45292 0.45292
#
# Static dielectric constant tensor:
#      x y z
#    x 1.791330 0.000000 0.000000 
#    y 0.000000 1.791330 0.000000 
#    z 0.000000 0.000000 1.721650 
# 
# From -- ./inp_files/6487.got.cif
#   From: 2010.05.17/outbox.cif.g08.bks.cpg/sg127_4_cif.got.tgz:6487.got - 2010.05.20 12:03:00.
