data_PCOD9564986
_publ_section_title
;
Structure prediction by ZEFSAII (Michael W. Deem and Ramdas Pophale) SiO2 
 PCOD9564986
Probable space group: P 4/M N C
;
_chemical_formula_sum "Si O2"
_cell_formula_units_Z 88
_cell_length_a 15.145117
_cell_length_b 15.145117
_cell_length_c 19.636432
_cell_angle_alpha 90.000000
_cell_angle_beta 90.000000
_cell_angle_gamma 90.000000
_cell_volume 4504.098126
_symmetry_space_group_name_H-M "P 4/M N C"
_symmetry_group_IT_number 128
_symmetry_cell_setting 'tetragonal'
loop_
_space_group_symop_operation_xyz
x,y,z
-y,x,z
-x,-y,z
y,-x,z
1/2+x,1/2-y,1/2-z
1/2-x,1/2+y,1/2-z
1/2+y,1/2+x,1/2-z
1/2-y,1/2-x,1/2-z
-x,-y,-z
y,-x,-z
x,y,-z
-y,x,-z
1/2-x,1/2+y,1/2+z
1/2+x,1/2-y,1/2+z
1/2-y,1/2-x,1/2+z
1/2+y,1/2+x,1/2+z
loop_
_atom_site_type_symbol
_atom_site_label
_atom_site_fract_x
_atom_site_fract_y
_atom_site_fract_z
Si Si1 0.952926 0.863299 0.772036
Si Si2 0.073024 0.578742 0.328468
Si Si3 0.453772 0.782041 0.623044
Si Si4 0.853143 0.022886 0.000000
Si Si5 0.559382 0.170789 0.923133
Si Si6 0.949834 0.865844 0.608294
O O1 0.930033 0.772618 0.809100
O O2 0.947939 0.856975 0.690525
O O3 0.053197 0.891644 0.791449
O O4 0.097220 0.597220 0.250000
O O5 0.159971 0.541470 0.364556
O O6 0.000000 0.500000 0.327245
O O7 0.022259 0.652722 0.371748
O O8 0.466677 0.709449 0.565140
O O9 0.381019 0.854298 0.602437
O O10 0.903020 0.929246 0.000000
O O11 0.578290 0.274183 0.922822
O O12 0.537805 0.140171 0.000000
O O13 0.050206 0.890695 0.589413
#
# Coordination Sequence:
#
# PCOD9564986 Si02
#       6
#    16  16  16   8  16  16
#     4   9  18  36  63  90 117 155 203 256 310 366
#     4   9  20  37  61  87 118 160 203 248 310 373
#     4  11  21  37  61  85 125 159 204 249 304 370
#     4  11  24  42  61  88 126 169 206 239 295 367
#     4  11  23  39  59  89 126 163 204 255 316 368
#     4   9  20  41  64  86 116 158 208 256 312 373
#
# _framework density 19.537761
#
# number of rings (size 3 to 8) (size 9 to 14) (size 15 to 20)
#    0.000    2.091    0.909    3.273    1.273    5.455 
#    6.545    0.909    0.000    0.000    0.000    0.000 
#    0.000    0.000    0.000    0.000    0.000    0.000 
#
# Total GULP energy -491325.126985 kJ/mol
# GULP energy per Si atom -5583.240079 kJ/mol
# Density = 1.949329 g / cm^3
# Si number density = 19.537761 Si / 1000 Ang^3
#
#
#
# Elastic Constant Matrix: (Units=GPa)
#
#
# Indices 1 2 3 4 5 6 
#
# 1 95.9986 40.8189 40.3905 0.0000 0.0000 0.0000
# 2 40.8189 95.9986 40.3905 0.0000 0.0000 0.0000
# 3 40.3905 40.3905 76.2825 0.0000 0.0000 0.0000
# 4 0.0000 0.0000 0.0000 -36.1842 0.0000 0.0000
# 5 0.0000 0.0000 0.0000 0.0000 -36.1842 0.0000
# 6 0.0000 0.0000 0.0000 0.0000 0.0000 8.9746
#
#
#
# Elastic Compliance Matrix: (Units=1/GPa)
#
#
# Indices 1 2 3 4 5 6 
#
# 1 0.014378 -0.003745 -0.005630 0.000000 0.000000 0.000000
# 2 -0.003745 0.014378 -0.005630 0.000000 0.000000 0.000000
# 3 -0.005630 -0.005630 0.019071 0.000000 0.000000 0.000000
# 4 0.000000 0.000000 0.000000 -0.027636 0.000000 0.000000
# 5 0.000000 0.000000 0.000000 0.000000 -0.027636 0.000000
# 6 0.000000 0.000000 0.000000 0.000000 0.000000 0.111426
#
#
# Mechanical properties :
#
#
# Convention : Reuss Voigt Hill
#
# Bulk Modulus (GPa) = 56.12554 56.83105 56.47829
# Shear Modulus (GPa) = 35.73240 -2.90010 16.41615
#
# Velocity S-wave (km/s) = 4.28119 -1.21966 2.90181
# Velocity P-wave (km/s) = 7.29570 5.21225 6.34014
#
# Compressibility (1/GPa) = 0.01781720
#
# Stress axis : x y z
#
# Youngs Moduli (GPa) = 69.55120 69.55120 52.43482
#
# Poissons Ratio (x) = 0.26045 0.29521
# Poissons Ratio (y) = 0.26045 0.29521
# Poissons Ratio (z) = 0.39158 0.39158
#
# Static dielectric constant tensor:
#      x y z
#    x 1.660890 0.000000 0.000000 
#    y 0.000000 1.660890 0.000000 
#    z 0.000000 0.000000 1.753530 
# 
# From -- ./inp_files/5660.got.cif
#   From: 2010.05.17/outbox.cif.g08.bks.cpg/sg128_3_cif.got.tgz:5660.got - 2010.05.20 12:07:25.
