data_PCOD9564643
_publ_section_title
;
Structure prediction by ZEFSAII (Michael W. Deem and Ramdas Pophale) SiO2 
 PCOD9564643
Probable space group: P 4/M N C
;
_chemical_formula_sum "Si O2"
_cell_formula_units_Z 64
_cell_length_a 16.239135
_cell_length_b 16.239135
_cell_length_c 13.464536
_cell_angle_alpha 90.000000
_cell_angle_beta 90.000000
_cell_angle_gamma 90.000000
_cell_volume 3550.726131
_symmetry_space_group_name_H-M "P 4/M N C"
_symmetry_group_IT_number 128
_symmetry_cell_setting 'tetragonal'
loop_
_space_group_symop_operation_xyz
x,y,z
-y,x,z
-x,-y,z
y,-x,z
1/2+x,1/2-y,1/2-z
1/2-x,1/2+y,1/2-z
1/2+y,1/2+x,1/2-z
1/2-y,1/2-x,1/2-z
-x,-y,-z
y,-x,-z
x,y,-z
-y,x,-z
1/2-x,1/2+y,1/2+z
1/2+x,1/2-y,1/2+z
1/2-y,1/2-x,1/2+z
1/2+y,1/2+x,1/2+z
loop_
_atom_site_type_symbol
_atom_site_label
_atom_site_fract_x
_atom_site_fract_y
_atom_site_fract_z
Si Si1 0.354574 0.780959 0.115944
Si Si2 0.642204 0.314548 0.311712
Si Si3 0.039004 0.413103 0.119392
Si Si4 0.970810 0.236760 0.882349
O O1 0.371542 0.711255 0.197051
O O2 0.260406 0.808847 0.135382
O O3 0.405836 0.863845 0.142077
O O4 0.366877 0.760519 0.000000
O O5 0.553700 0.315388 0.364150
O O6 0.694838 0.396102 0.325273
O O7 0.000000 0.500000 0.148099
O O8 0.992012 0.330136 0.152578
O O9 0.035121 0.408840 0.000000
O O10 0.952164 0.238675 0.000000
#
# Coordination Sequence:
#
# PCOD9564643 Si02
#       4
#    16  16  16  16
#     4   9  18  36  55  74 113 152 181 229 288 346
#     4  10  20  35  54  80 107 145 191 229 286 339
#     4   8  15  31  56  83 110 142 179 227 290 347
#     4  10  19  34  56  81 110 141 184 238 281 328
#
# _framework density 18.024483
#
# number of rings (size 3 to 8) (size 9 to 14) (size 15 to 20)
#    0.000    2.750    0.000    3.750    0.000    0.500 
#    9.000   11.250    0.000    0.000    0.000    1.750 
#    0.000    1.000    0.000    0.000    0.000    0.000 
#
# Total GULP energy -356852.856909 kJ/mol
# GULP energy per Si atom -5575.825889 kJ/mol
# Density = 1.798346 g / cm^3
# Si number density = 18.024483 Si / 1000 Ang^3
#
#
#
# Elastic Constant Matrix: (Units=GPa)
#
#
# Indices 1 2 3 4 5 6 
#
# 1 85.2984 69.8081 35.3115 0.0000 0.0000 0.0000
# 2 69.8081 85.2984 35.3115 0.0000 0.0000 0.0000
# 3 35.3115 35.3115 122.2818 0.0000 0.0000 0.0000
# 4 0.0000 0.0000 0.0000 21.0044 0.0000 0.0000
# 5 0.0000 0.0000 0.0000 0.0000 21.0044 0.0000
# 6 0.0000 0.0000 0.0000 0.0000 0.0000 24.7032
#
#
#
# Elastic Compliance Matrix: (Units=1/GPa)
#
#
# Indices 1 2 3 4 5 6 
#
# 1 0.035990 -0.028567 -0.002144 0.000000 0.000000 0.000000
# 2 -0.028567 0.035990 -0.002144 0.000000 0.000000 0.000000
# 3 -0.002144 -0.002144 0.009416 0.000000 0.000000 0.000000
# 4 0.000000 0.000000 0.000000 0.047609 0.000000 0.000000
# 5 0.000000 0.000000 0.000000 0.000000 0.047609 0.000000
# 6 0.000000 0.000000 0.000000 0.000000 0.000000 0.040481
#
#
# Mechanical properties :
#
#
# Convention : Reuss Voigt Hill
#
# Bulk Modulus (GPa) = 63.74368 63.74900 63.74634
# Shear Modulus (GPa) = 17.35920 23.50557 20.43238
#
# Velocity S-wave (km/s) = 3.10674 3.61514 3.37054
# Velocity P-wave (km/s) = 6.95060 7.27120 7.11271
#
# Compressibility (1/GPa) = 0.01568783
#
# Stress axis : x y z
#
# Youngs Moduli (GPa) = 27.78553 27.78553 106.20379
#
# Poissons Ratio (x) = 0.79374 0.22766
# Poissons Ratio (y) = 0.79374 0.22766
# Poissons Ratio (z) = 0.05956 0.05956
#
# Static dielectric constant tensor:
#      x y z
#    x 1.608090 0.000000 0.000000 
#    y 0.000000 1.608090 0.000000 
#    z 0.000000 0.000000 1.671470 
# 
# From -- ./inp_files/3531.got.cif
#   From: 2010.05.17/outbox.cif.g08.bks.cpg/sg128_2_cif.got.tgz:3531.got - 2010.05.20 12:07:25.
