data_PCOD9564225
_publ_section_title
;
Structure prediction by ZEFSAII (Michael W. Deem and Ramdas Pophale) SiO2 
 PCOD9564225
Probable space group: P 4/M B M
;
_chemical_formula_sum "Si O2"
_cell_formula_units_Z 96
_cell_length_a 24.465045
_cell_length_b 24.465045
_cell_length_c 8.284391
_cell_angle_alpha 90.000000
_cell_angle_beta 90.000000
_cell_angle_gamma 90.000000
_cell_volume 4958.526357
_symmetry_space_group_name_H-M "P 4/M B M"
_symmetry_group_IT_number 127
_symmetry_cell_setting 'tetragonal'
loop_
_space_group_symop_operation_xyz
x,y,z
-y,x,z
-x,-y,z
y,-x,z
1/2+x,1/2-y,-z
1/2-x,1/2+y,-z
1/2+y,1/2+x,-z
1/2-y,1/2-x,-z
-x,-y,-z
y,-x,-z
x,y,-z
-y,x,-z
1/2-x,1/2+y,z
1/2+x,1/2-y,z
1/2-y,1/2-x,z
1/2+y,1/2+x,z
loop_
_atom_site_type_symbol
_atom_site_label
_atom_site_fract_x
_atom_site_fract_y
_atom_site_fract_z
Si Si1 0.588131 0.999652 0.696812
Si Si2 0.573185 0.299996 0.191171
Si Si3 0.511850 0.788005 0.309414
Si Si4 0.277984 0.132981 0.190819
Si Si5 0.281006 0.306791 0.691180
Si Si6 0.581930 0.532867 0.196874
O O1 0.588868 0.998889 0.500000
O O2 0.552008 0.052008 0.745427
O O3 0.554168 0.945833 0.747921
O O4 0.650444 0.999965 0.751688
O O5 0.525460 0.256937 0.225200
O O6 0.629780 0.280467 0.267792
O O7 0.555427 0.360009 0.253159
O O8 0.581852 0.304506 0.000000
O O9 0.500005 0.786256 0.500000
O O10 0.575643 0.776850 0.280293
O O11 0.328992 0.171009 0.243988
O O12 0.224166 0.168953 0.222989
O O13 0.283199 0.123017 0.000000
O O14 0.288269 0.299858 0.500000
O O15 0.225971 0.274030 0.738501
O O16 0.529583 0.569077 0.246315
O O17 0.582764 0.532803 0.000000
#
# Coordination Sequence:
#
# PCOD9564225 Si02
#       6
#    16  16  16  16  16  16
#     4   8  15  30  53  79 106 141 188 238 285 334
#     4  11  23  36  57  87 118 154 194 240 292 349
#     4  11  22  35  54  84 120 155 192 236 288 349
#     4  10  21  38  61  87 115 149 193 246 299 350
#     4  10  22  41  62  83 112 152 196 240 292 355
#     4   8  16  33  56  81 108 142 185 232 283 341
#
# _framework density 19.360590999999999
#
# number of rings (size 3 to 8) (size 9 to 14) (size 15 to 20)
#    0.000    2.333    0.000    3.500    2.333    3.333 
#    0.000    1.667    0.000    1.500    0.000   10.500 
#    0.000    0.000    0.000    0.000    0.000    0.000 
#
# Total GULP energy -536004.682763 kJ/mol
# GULP energy per Si atom -5583.382112 kJ/mol
# Density = 1.931653 g / cm^3
# Si number density = 19.360591 Si / 1000 Ang^3
#
#
#
# Elastic Constant Matrix: (Units=GPa)
#
#
# Indices 1 2 3 4 5 6 
#
# 1 37.8513 116.5732 -1.0582 0.0000 0.0000 0.0000
# 2 116.5732 37.8513 -1.0582 0.0000 0.0000 0.0000
# 3 -1.0582 -1.0582 17.1725 0.0000 0.0000 0.0000
# 4 0.0000 0.0000 0.0000 22.0399 0.0000 0.0000
# 5 0.0000 0.0000 0.0000 0.0000 22.0399 0.0000
# 6 0.0000 0.0000 0.0000 0.0000 0.0000 12.2688
#
#
#
# Elastic Compliance Matrix: (Units=1/GPa)
#
#
# Indices 1 2 3 4 5 6 
#
# 1 -0.003111 0.009592 0.000399 0.000000 0.000000 0.000000
# 2 0.009592 -0.003111 0.000399 0.000000 0.000000 0.000000
# 3 0.000399 0.000399 0.058282 0.000000 0.000000 0.000000
# 4 0.000000 0.000000 0.000000 0.045372 0.000000 0.000000
# 5 0.000000 0.000000 0.000000 0.000000 0.045372 0.000000
# 6 0.000000 0.000000 0.000000 0.000000 0.000000 0.081507
#
#
# Mechanical properties :
#
#
# Convention : Reuss Voigt Hill
#
# Bulk Modulus (GPa) = 13.72843 35.75428 24.74135
# Shear Modulus (GPa) = 21.94804 9.83094 15.88949
#
# Velocity S-wave (km/s) = 3.37062 2.25584 2.86792
# Velocity P-wave (km/s) = 4.71746 5.02919 4.87582
#
# Compressibility (1/GPa) = 0.07284156
#
# Stress axis : x y z
#
# Youngs Moduli (GPa) = -321.45007 -321.45007 17.15803
#
# Poissons Ratio (x) = 3.08336 -0.00685
# Poissons Ratio (y) = 3.08336 -0.00685
# Poissons Ratio (z) = 0.12838 0.12838
#
# Static dielectric constant tensor:
#      x y z
#    x 1.654200 0.000000 0.000000 
#    y 0.000000 1.654200 0.000000 
#    z 0.000000 0.000000 1.676340 
# 
# From -- ./inp_files/1971.got.cif
#   From: 2010.05.17/outbox.cif.g08.bks.cpg/sg127_1_cif.got.tgz:1971.got - 2010.05.20 12:03:00.
