data_PCOD9564246
_publ_section_title
;
Structure prediction by ZEFSAII (Michael W. Deem and Ramdas Pophale) SiO2 
 PCOD9564246
Probable space group: P 4/M B M
;
_chemical_formula_sum "Si O2"
_cell_formula_units_Z 72
_cell_length_a 14.215337
_cell_length_b 14.215337
_cell_length_c 19.661407
_cell_angle_alpha 90.000000
_cell_angle_beta 90.000000
_cell_angle_gamma 90.000000
_cell_volume 3973.094667
_symmetry_space_group_name_H-M "P 4/M B M"
_symmetry_group_IT_number 127
_symmetry_cell_setting 'tetragonal'
loop_
_space_group_symop_operation_xyz
x,y,z
-y,x,z
-x,-y,z
y,-x,z
1/2+x,1/2-y,-z
1/2-x,1/2+y,-z
1/2+y,1/2+x,-z
1/2-y,1/2-x,-z
-x,-y,-z
y,-x,-z
x,y,-z
-y,x,-z
1/2-x,1/2+y,z
1/2+x,1/2-y,z
1/2-y,1/2-x,z
1/2+y,1/2+x,z
loop_
_atom_site_type_symbol
_atom_site_label
_atom_site_fract_x
_atom_site_fract_y
_atom_site_fract_z
Si Si1 0.575776 0.075776 0.691772
Si Si2 0.716031 0.013991 0.809208
Si Si3 0.386554 0.393850 0.612220
Si Si4 0.688971 0.188971 0.424944
Si Si5 0.421391 0.921391 0.924162
Si Si6 0.663964 0.680253 0.759022
O O1 0.524396 0.148522 0.742831
O O2 0.631852 0.131852 0.633348
O O3 0.500000 0.000000 0.665805
O O4 0.766533 0.915330 0.801078
O O5 0.658845 0.031913 0.877583
O O6 0.788061 0.099426 0.802544
O O7 0.495453 0.371263 0.595113
O O8 0.300086 0.334570 0.581537
O O9 0.377924 0.370327 0.692461
O O10 0.657868 0.157868 0.500000
O O11 0.500000 0.000000 0.930942
O O12 0.391531 0.891531 0.000000
O O13 0.744394 0.755607 0.738434
#
# Coordination Sequence:
#
# PCOD9564246 Si02
#       6
#     8  16  16   8   8  16
#     4  11  20  40  60  86 120 155 208 263 305 366
#     4  11  21  35  61  95 120 159 203 253 307 357
#     4  11  22  40  65  91 120 163 208 256 321 389
#     4  12  25  44  61  87 127 165 210 266 326 378
#     4  10  21  42  62  85 128 170 208 247 297 358
#     4  12  19  33  60  93 125 149 199 259 302 358
#
# _framework density 18.121893
#
# number of rings (size 3 to 8) (size 9 to 14) (size 15 to 20)
#    0.000    0.778    7.778    2.667    0.000    1.556 
#    2.000    2.222    0.000    0.000    0.000    1.556 
#    0.000    0.000    0.000    0.000    0.000    0.000 
#
# Total GULP energy -401887.119443 kJ/mol
# GULP energy per Si atom -5581.765548 kJ/mol
# Density = 1.808065 g / cm^3
# Si number density = 18.121893 Si / 1000 Ang^3
#
#
#
# Elastic Constant Matrix: (Units=GPa)
#
#
# Indices 1 2 3 4 5 6 
#
# 1 103.5754 60.9709 25.6330 0.0000 0.0000 0.0000
# 2 60.9709 103.5754 25.6330 0.0000 0.0000 0.0000
# 3 25.6330 25.6330 106.9462 0.0000 0.0000 0.0000
# 4 0.0000 0.0000 0.0000 2.5664 0.0000 0.0000
# 5 0.0000 0.0000 0.0000 0.0000 2.5664 0.0000
# 6 0.0000 0.0000 0.0000 0.0000 0.0000 45.8833
#
#
#
# Elastic Compliance Matrix: (Units=1/GPa)
#
#
# Indices 1 2 3 4 5 6 
#
# 1 0.015020 -0.008452 -0.001574 0.000000 0.000000 0.000000
# 2 -0.008452 0.015020 -0.001574 0.000000 0.000000 0.000000
# 3 -0.001574 -0.001574 0.010105 0.000000 0.000000 0.000000
# 4 0.000000 0.000000 0.000000 0.389644 0.000000 0.000000
# 5 0.000000 0.000000 0.000000 0.000000 0.389644 0.000000
# 6 0.000000 0.000000 0.000000 0.000000 0.000000 0.021794
#
#
# Mechanical properties :
#
#
# Convention : Reuss Voigt Hill
#
# Bulk Modulus (GPa) = 59.01812 59.84118 59.42965
# Shear Modulus (GPa) = 5.74663 23.66057 14.70360
#
# Velocity S-wave (km/s) = 1.78269 3.61728 2.85155
# Velocity P-wave (km/s) = 6.07251 7.10911 6.61116
#
# Compressibility (1/GPa) = 0.01694395
#
# Stress axis : x y z
#
# Youngs Moduli (GPa) = 66.57908 66.57908 98.95996
#
# Poissons Ratio (x) = 0.56272 0.15578
# Poissons Ratio (y) = 0.56272 0.15578
# Poissons Ratio (z) = 0.10481 0.10481
#
# Static dielectric constant tensor:
#      x y z
#    x 1.587620 0.000000 0.000000 
#    y 0.000000 1.587620 0.000000 
#    z 0.000000 0.000000 1.622160 
# 
# From -- ./inp_files/4994.got.cif
#   From: 2010.05.17/outbox.cif.g08.bks.cpg/sg127_3_cif.got.tgz:4994.got - 2010.05.20 12:03:00.
