data_PCOD9564072
_publ_section_title
;
Structure prediction by ZEFSAII (Michael W. Deem and Ramdas Pophale) SiO2 
 PCOD9564072
Probable space group: P 4/M B M
;
_chemical_formula_sum "Si O2"
_cell_formula_units_Z 64
_cell_length_a 19.106458
_cell_length_b 19.106458
_cell_length_c 8.339994
_cell_angle_alpha 90.000000
_cell_angle_beta 90.000000
_cell_angle_gamma 90.000000
_cell_volume 3044.570999
_symmetry_space_group_name_H-M "P 4/M B M"
_symmetry_group_IT_number 127
_symmetry_cell_setting 'tetragonal'
loop_
_space_group_symop_operation_xyz
x,y,z
-y,x,z
-x,-y,z
y,-x,z
1/2+x,1/2-y,-z
1/2-x,1/2+y,-z
1/2+y,1/2+x,-z
1/2-y,1/2-x,-z
-x,-y,-z
y,-x,-z
x,y,-z
-y,x,-z
1/2-x,1/2+y,z
1/2+x,1/2-y,z
1/2-y,1/2-x,z
1/2+y,1/2+x,z
loop_
_atom_site_type_symbol
_atom_site_label
_atom_site_fract_x
_atom_site_fract_y
_atom_site_fract_z
Si Si1 0.200007 0.816492 0.173280
Si Si2 0.269209 0.654541 0.500000
Si Si3 0.243932 0.448251 0.681577
Si Si4 0.995549 0.114752 0.807174
Si Si5 0.850684 0.463503 0.500000
O O1 0.247213 0.747213 0.165644
O O2 0.153194 0.809542 0.331651
O O3 0.250664 0.882699 0.201611
O O4 0.163736 0.824358 0.000000
O O5 0.229442 0.729442 0.500000
O O6 0.209199 0.596116 0.500000
O O7 0.257346 0.421663 0.500000
O O8 0.309080 0.497128 0.729851
O O9 0.171028 0.489425 0.654624
O O10 0.064933 0.069472 0.763650
O O11 0.996111 0.121892 0.000000
O O12 0.924819 0.424819 0.500000
#
# Coordination Sequence:
#
# PCOD9564072 Si02
#       5
#    16   8  16  16   8
#     4  10  20  35  57  84 112 143 184 234 285 332
#     4   9  17  34  56  78 111 145 180 225 271 330
#     4  10  21  32  54  78 104 142 189 224 278 325
#     4   9  19  34  49  72 111 152 187 226 266 316
#     4   9  21  38  55  76 112 150 186 232 282 333
#
# _framework density 21.021024000000001
#
# number of rings (size 3 to 8) (size 9 to 14) (size 15 to 20)
#    0.750    1.750    1.250    1.500    3.500    1.000 
#    0.000    2.500    0.000    6.000    0.000    1.750 
#    0.000    0.000    0.000    0.000    0.000    0.000 
#
# Total GULP energy -356523.878836 kJ/mol
# GULP energy per Si atom -5570.685607 kJ/mol
# Density = 2.097318 g / cm^3
# Si number density = 21.021024 Si / 1000 Ang^3
#
#
#
# Elastic Constant Matrix: (Units=GPa)
#
#
# Indices 1 2 3 4 5 6 
#
# 1 31.0432 -11.5380 7.1684 0.0000 0.0000 0.0000
# 2 -11.5380 31.0432 7.1684 0.0000 0.0000 0.0000
# 3 7.1684 7.1684 113.5233 0.0000 0.0000 0.0000
# 4 0.0000 0.0000 0.0000 14.8223 0.0000 0.0000
# 5 0.0000 0.0000 0.0000 0.0000 14.8223 0.0000
# 6 0.0000 0.0000 0.0000 0.0000 0.0000 35.0013
#
#
#
# Elastic Compliance Matrix: (Units=1/GPa)
#
#
# Indices 1 2 3 4 5 6 
#
# 1 0.038624 0.015140 -0.003395 0.000000 0.000000 0.000000
# 2 0.015140 0.038624 -0.003395 0.000000 0.000000 0.000000
# 3 -0.003395 -0.003395 0.009238 0.000000 0.000000 0.000000
# 4 0.000000 0.000000 0.000000 0.067466 0.000000 0.000000
# 5 0.000000 0.000000 0.000000 0.000000 0.067466 0.000000
# 6 0.000000 0.000000 0.000000 0.000000 0.000000 0.028570
#
#
# Mechanical properties :
#
#
# Convention : Reuss Voigt Hill
#
# Bulk Modulus (GPa) = 9.69129 20.13412 14.91270
# Shear Modulus (GPa) = 18.67876 24.44990 21.56433
#
# Velocity S-wave (km/s) = 2.98413 3.41415 3.20636
# Velocity P-wave (km/s) = 4.06124 5.01406 4.56259
#
# Compressibility (1/GPa) = 0.10318541
#
# Stress axis : x y z
#
# Youngs Moduli (GPa) = 25.89056 25.89056 108.25438
#
# Poissons Ratio (x) = -0.39197 0.36751
# Poissons Ratio (y) = -0.39197 0.36751
# Poissons Ratio (z) = 0.08790 0.08790
#
# Static dielectric constant tensor:
#      x y z
#    x 1.799450 0.000000 0.000000 
#    y 0.000000 1.799450 0.000000 
#    z 0.000000 0.000000 1.773130 
# 
# From -- ./inp_files/1430.got.cif
#   From: 2010.05.17/outbox.cif.g08.bks.cpg/sg127_1_cif.got.tgz:1430.got - 2010.05.20 12:03:00.
