data_PCOD9564753
_publ_section_title
;
Structure prediction by ZEFSAII (Michael W. Deem and Ramdas Pophale) SiO2 
 PCOD9564753
Probable space group: P 4/M N C
;
_chemical_formula_sum "Si O2"
_cell_formula_units_Z 64
_cell_length_a 11.879650
_cell_length_b 11.879650
_cell_length_c 26.348374
_cell_angle_alpha 90.000000
_cell_angle_beta 90.000000
_cell_angle_gamma 90.000000
_cell_volume 3718.442846
_symmetry_space_group_name_H-M "P 4/M N C"
_symmetry_group_IT_number 128
_symmetry_cell_setting 'tetragonal'
loop_
_space_group_symop_operation_xyz
x,y,z
-y,x,z
-x,-y,z
y,-x,z
1/2+x,1/2-y,1/2-z
1/2-x,1/2+y,1/2-z
1/2+y,1/2+x,1/2-z
1/2-y,1/2-x,1/2-z
-x,-y,-z
y,-x,-z
x,y,-z
-y,x,-z
1/2-x,1/2+y,1/2+z
1/2+x,1/2-y,1/2+z
1/2-y,1/2-x,1/2+z
1/2+y,1/2+x,1/2+z
loop_
_atom_site_type_symbol
_atom_site_label
_atom_site_fract_x
_atom_site_fract_y
_atom_site_fract_z
Si Si1 0.984104 0.370894 0.326349
Si Si2 0.203845 0.703845 0.250000
Si Si3 0.473337 0.310880 0.500000
Si Si4 0.260030 0.856240 0.161968
Si Si5 0.414181 0.212443 0.393572
O O1 0.903566 0.305548 0.287328
O O2 0.914588 0.381823 0.378797
O O3 0.000000 0.500000 0.307956
O O4 0.108478 0.324168 0.334158
O O5 0.206513 0.814487 0.214754
O O6 0.591486 0.377676 0.500000
O O7 0.458372 0.237297 0.449424
O O8 0.192619 0.789517 0.118909
O O9 0.255438 0.986850 0.146603
#
# Coordination Sequence:
#
# PCOD9564753 Si02
#       5
#    16   8   8  16  16
#     4   9  20  36  55  76 113 154 184 236 278 338
#     4  10  21  32  59  78 108 152 194 220 285 346
#     4  11  20  34  59  83 125 152 181 244 311 349
#     4  10  21  34  55  79 113 145 190 228 284 341
#     4  10  20  37  56  84 110 151 188 238 292 343
#
# _framework density 17.211506
#
# number of rings (size 3 to 8) (size 9 to 14) (size 15 to 20)
#    0.000    2.125    2.500    0.375   10.500    0.500 
#    0.000    6.875    0.000   12.000    0.000    0.000 
#    0.000    8.000    0.000    0.000    0.000    0.000 
#
# Total GULP energy -356623.841060 kJ/mol
# GULP energy per Si atom -5572.247517 kJ/mol
# Density = 1.717233 g / cm^3
# Si number density = 17.211506 Si / 1000 Ang^3
#
#
#
# Elastic Constant Matrix: (Units=GPa)
#
#
# Indices 1 2 3 4 5 6 
#
# 1 81.9011 40.5104 39.8543 0.0000 0.0000 0.0000
# 2 40.5104 81.9011 39.8543 0.0000 0.0000 0.0000
# 3 39.8543 39.8543 115.5355 0.0000 0.0000 0.0000
# 4 0.0000 0.0000 0.0000 22.7060 0.0000 0.0000
# 5 0.0000 0.0000 0.0000 0.0000 22.7060 0.0000
# 6 0.0000 0.0000 0.0000 0.0000 0.0000 23.9399
#
#
#
# Elastic Compliance Matrix: (Units=1/GPa)
#
#
# Indices 1 2 3 4 5 6 
#
# 1 0.017348 -0.006812 -0.003634 0.000000 0.000000 0.000000
# 2 -0.006812 0.017348 -0.003634 0.000000 0.000000 0.000000
# 3 -0.003634 -0.003634 0.011163 0.000000 0.000000 0.000000
# 4 0.000000 0.000000 0.000000 0.044041 0.000000 0.000000
# 5 0.000000 0.000000 0.000000 0.000000 0.044041 0.000000
# 6 0.000000 0.000000 0.000000 0.000000 0.000000 0.041771
#
#
# Mechanical properties :
#
#
# Convention : Reuss Voigt Hill
#
# Bulk Modulus (GPa) = 56.50748 57.75285 57.13017
# Shear Modulus (GPa) = 23.83533 24.47828 24.15681
#
# Velocity S-wave (km/s) = 3.72539 3.77530 3.75043
# Velocity P-wave (km/s) = 7.16988 7.25476 7.21245
#
# Compressibility (1/GPa) = 0.01769677
#
# Stress axis : x y z
#
# Youngs Moduli (GPa) = 57.64405 57.64405 89.58426
#
# Poissons Ratio (x) = 0.39268 0.32558
# Poissons Ratio (y) = 0.39268 0.32558
# Poissons Ratio (z) = 0.20950 0.20950
#
# Static dielectric constant tensor:
#      x y z
#    x 1.595680 0.000000 0.000000 
#    y 0.000000 1.595680 0.000000 
#    z 0.000000 0.000000 1.603270 
# 
# From -- ./inp_files/6729.got.cif
#   From: 2010.05.17/outbox.cif.g08.bks.cpg/sg128_4_cif.got.tgz:6729.got - 2010.05.20 12:07:25.
