data_PCOD9564271
_publ_section_title
;
Structure prediction by ZEFSAII (Michael W. Deem and Ramdas Pophale) SiO2 
 PCOD9564271
Probable space group: P 4/M B M
;
_chemical_formula_sum "Si O2"
_cell_formula_units_Z 112
_cell_length_a 14.609194
_cell_length_b 14.609194
_cell_length_c 29.552773
_cell_angle_alpha 90.000000
_cell_angle_beta 90.000000
_cell_angle_gamma 90.000000
_cell_volume 6307.405470
_symmetry_space_group_name_H-M "P 4/M B M"
_symmetry_group_IT_number 127
_symmetry_cell_setting 'tetragonal'
loop_
_space_group_symop_operation_xyz
x,y,z
-y,x,z
-x,-y,z
y,-x,z
1/2+x,1/2-y,-z
1/2-x,1/2+y,-z
1/2+y,1/2+x,-z
1/2-y,1/2-x,-z
-x,-y,-z
y,-x,-z
x,y,-z
-y,x,-z
1/2-x,1/2+y,z
1/2+x,1/2-y,z
1/2-y,1/2-x,z
1/2+y,1/2+x,z
loop_
_atom_site_type_symbol
_atom_site_label
_atom_site_fract_x
_atom_site_fract_y
_atom_site_fract_z
Si Si1 0.149855 0.965315 0.212055
Si Si2 0.253778 0.898915 0.872024
Si Si3 0.245398 0.103633 0.554174
Si Si4 0.166533 0.820430 0.951448
Si Si5 0.485660 0.164327 0.949814
Si Si6 0.599995 0.254676 0.404475
Si Si7 0.647968 0.545781 0.684860
O O1 0.222440 0.949021 0.172846
O O2 0.183085 0.950793 0.263521
O O3 0.065678 0.894224 0.207212
O O4 0.305309 0.805309 0.859144
O O5 0.169321 0.878612 0.906043
O O6 0.318992 0.954319 0.906023
O O7 0.234598 0.103655 0.500000
O O8 0.336528 0.163473 0.565170
O O9 0.160481 0.160927 0.575427
O O10 0.251801 0.998924 0.571131
O O11 0.260566 0.760566 0.951559
O O12 0.086659 0.747006 0.949659
O O13 0.159482 0.869602 0.000000
O O14 0.427526 0.072475 0.946541
O O15 0.529180 0.165864 0.000000
O O16 0.664411 0.164411 0.408756
O O17 0.576052 0.279868 0.352632
O O18 0.557914 0.609983 0.679232
#
# Coordination Sequence:
#
# PCOD9564271 Si02
#       7
#    16  16  16  16  16  16  16
#     4   9  19  35  55  76 100 130 167 215 267 317
#     4  11  20  29  46  71  99 126 159 203 251 305
#     4  10  22  38  56  86 125 160 200 245 290 345
#     4   8  15  28  44  62  86 118 155 194 238 289
#     4   9  18  32  48  66  92 127 164 201 245 304
#     4  11  21  35  59  86 117 159 203 246 292 344
#     4   9  17  34  58  81 105 135 178 234 290 334
#
# _framework density 17.756906000000001
#
# number of rings (size 3 to 8) (size 9 to 14) (size 15 to 20)
#    0.000    2.429    1.429    3.429    0.000    3.143 
#    0.000    2.143    0.000    1.714    0.000    8.000 
#    0.000    0.000    0.000    0.000    0.000    0.000 
#
# Total GULP energy -624023.333208 kJ/mol
# GULP energy per Si atom -5571.636904 kJ/mol
# Density = 1.771649 g / cm^3
# Si number density = 17.756906 Si / 1000 Ang^3
#
#
#
# Elastic Constant Matrix: (Units=GPa)
#
#
# Indices 1 2 3 4 5 6 
#
# 1 93.6559 28.3393 48.0564 0.0000 0.0000 0.0000
# 2 28.3393 93.6559 48.0564 0.0000 0.0000 0.0000
# 3 48.0564 48.0564 133.2228 0.0000 0.0000 0.0000
# 4 0.0000 0.0000 0.0000 -52.7779 0.0000 0.0000
# 5 0.0000 0.0000 0.0000 0.0000 -52.7779 0.0000
# 6 0.0000 0.0000 0.0000 0.0000 0.0000 25.0445
#
#
#
# Elastic Compliance Matrix: (Units=1/GPa)
#
#
# Indices 1 2 3 4 5 6 
#
# 1 0.013381 -0.001929 -0.004131 0.000000 0.000000 0.000000
# 2 -0.001929 0.013381 -0.004131 0.000000 0.000000 0.000000
# 3 -0.004131 -0.004131 0.010486 0.000000 0.000000 0.000000
# 4 0.000000 0.000000 0.000000 -0.018947 0.000000 0.000000
# 5 0.000000 0.000000 0.000000 0.000000 -0.018947 0.000000
# 6 0.000000 0.000000 0.000000 0.000000 0.000000 0.039929
#
#
# Mechanical properties :
#
#
# Convention : Reuss Voigt Hill
#
# Bulk Modulus (GPa) = 59.29057 63.27099 61.28078
# Shear Modulus (GPa) = 76.58630 -3.03008 36.77811
#
# Velocity S-wave (km/s) = 6.57450 -1.30772 4.55598
# Velocity P-wave (km/s) = 9.54436 5.78178 7.89062
#
# Compressibility (1/GPa) = 0.01686609
#
# Stress axis : x y z
#
# Youngs Moduli (GPa) = 74.73426 74.73426 95.36198
#
# Poissons Ratio (x) = 0.14418 0.39392
# Poissons Ratio (y) = 0.14418 0.39392
# Poissons Ratio (z) = 0.30871 0.30871
#
# Static dielectric constant tensor:
#      x y z
#    x 1.619250 0.000000 0.000000 
#    y 0.000000 1.619250 0.000000 
#    z 0.000000 0.000000 1.609410 
# 
# From -- ./inp_files/6406.got.cif
#   From: 2010.05.17/outbox.cif.g08.bks.cpg/sg127_4_cif.got.tgz:6406.got - 2010.05.20 12:03:00.
