data_PCOD9564291
_publ_section_title
;
Structure prediction by ZEFSAII (Michael W. Deem and Ramdas Pophale) SiO2 
 PCOD9564291
Probable space group: P 4/M B M
;
_chemical_formula_sum "Si O2"
_cell_formula_units_Z 112
_cell_length_a 14.475752
_cell_length_b 14.475752
_cell_length_c 26.969850
_cell_angle_alpha 90.000000
_cell_angle_beta 90.000000
_cell_angle_gamma 90.000000
_cell_volume 5651.461837
_symmetry_space_group_name_H-M "P 4/M B M"
_symmetry_group_IT_number 127
_symmetry_cell_setting 'tetragonal'
loop_
_space_group_symop_operation_xyz
x,y,z
-y,x,z
-x,-y,z
y,-x,z
1/2+x,1/2-y,-z
1/2-x,1/2+y,-z
1/2+y,1/2+x,-z
1/2-y,1/2-x,-z
-x,-y,-z
y,-x,-z
x,y,-z
-y,x,-z
1/2-x,1/2+y,z
1/2+x,1/2-y,z
1/2-y,1/2-x,z
1/2+y,1/2+x,z
loop_
_atom_site_type_symbol
_atom_site_label
_atom_site_fract_x
_atom_site_fract_y
_atom_site_fract_z
Si Si1 0.368759 0.288788 0.803702
Si Si2 0.733510 0.385478 0.399085
Si Si3 0.125888 0.089440 0.301049
Si Si4 0.335409 0.316064 0.913160
Si Si5 0.221735 0.486910 0.054039
Si Si6 0.243221 0.409069 0.441252
Si Si7 0.854487 0.507418 0.161665
O O1 0.288339 0.211662 0.798337
O O2 0.380185 0.344724 0.753772
O O3 0.347706 0.341970 0.855184
O O4 0.465960 0.236424 0.814050
O O5 0.827211 0.327211 0.405608
O O6 0.696071 0.375906 0.342920
O O7 0.654130 0.333502 0.430899
O O8 0.747774 0.492176 0.414248
O O9 0.021275 0.123577 0.307652
O O10 0.281006 0.218995 0.913292
O O11 0.274035 0.390338 0.940667
O O12 0.432501 0.297085 0.938632
O O13 0.158108 0.493923 0.102342
O O14 0.177716 0.495688 0.000000
O O15 0.235110 0.425675 0.500000
O O16 0.155066 0.344935 0.425750
O O17 0.891996 0.608005 0.176532
O O18 0.933291 0.433291 0.174124
#
# Coordination Sequence:
#
# PCOD9564291 Si02
#       7
#    16  16  16  16  16  16  16
#     4   9  20  39  59  82 111 150 193 238 300 362
#     4  11  22  41  65  93 133 175 214 264 321 373
#     4  11  23  39  61  90 122 157 204 259 309 364
#     4  10  23  40  58  82 113 147 187 235 286 348
#     4  11  22  36  56  80 110 148 185 228 286 348
#     4  10  22  40  65  98 132 174 225 267 311 368
#     4   9  19  36  56  80 110 143 187 241 290 349
#
# _framework density 19.817879999999999
#
# number of rings (size 3 to 8) (size 9 to 14) (size 15 to 20)
#    0.000    1.857    1.429    3.000    4.000    4.571 
#    0.000    4.286    0.000    1.714    0.000    0.000 
#    0.000    0.000    0.000    0.000    0.000    0.000 
#
# Total GULP energy -625216.472908 kJ/mol
# GULP energy per Si atom -5582.289937 kJ/mol
# Density = 1.977277 g / cm^3
# Si number density = 19.817880 Si / 1000 Ang^3
#
#
#
# Elastic Constant Matrix: (Units=GPa)
#
#
# Indices 1 2 3 4 5 6 
#
# 1 73.8529 24.7748 11.3373 0.0000 0.0000 0.0000
# 2 24.7748 73.8529 11.3373 0.0000 0.0000 0.0000
# 3 11.3373 11.3373 79.2950 0.0000 0.0000 0.0000
# 4 0.0000 0.0000 0.0000 68.3815 0.0000 0.0000
# 5 0.0000 0.0000 0.0000 0.0000 68.3815 0.0000
# 6 0.0000 0.0000 0.0000 0.0000 0.0000 14.7080
#
#
#
# Elastic Compliance Matrix: (Units=1/GPa)
#
#
# Indices 1 2 3 4 5 6 
#
# 1 0.015430 -0.004946 -0.001499 0.000000 0.000000 0.000000
# 2 -0.004946 0.015430 -0.001499 0.000000 0.000000 0.000000
# 3 -0.001499 -0.001499 0.013040 0.000000 0.000000 0.000000
# 4 0.000000 0.000000 0.000000 0.014624 0.000000 0.000000
# 5 0.000000 0.000000 0.000000 0.000000 0.014624 0.000000
# 6 0.000000 0.000000 0.000000 0.000000 0.000000 0.067990
#
#
# Mechanical properties :
#
#
# Convention : Reuss Voigt Hill
#
# Bulk Modulus (GPa) = 35.69957 35.76662 35.73310
# Shear Modulus (GPa) = 30.05495 42.26430 36.15962
#
# Velocity S-wave (km/s) = 3.89852 4.62306 4.27616
# Velocity P-wave (km/s) = 6.19012 6.82522 6.51542
#
# Compressibility (1/GPa) = 0.02801154
#
# Stress axis : x y z
#
# Youngs Moduli (GPa) = 64.81003 64.81003 76.68855
#
# Poissons Ratio (x) = 0.32055 0.11495
# Poissons Ratio (y) = 0.32055 0.11495
# Poissons Ratio (z) = 0.09715 0.09715
#
# Static dielectric constant tensor:
#      x y z
#    x 1.704570 0.000000 0.000000 
#    y 0.000000 1.704570 0.000000 
#    z 0.000000 0.000000 1.680380 
# 
# From -- ./inp_files/6181.got.cif
#   From: 2010.05.17/outbox.cif.g08.bks.cpg/sg127_4_cif.got.tgz:6181.got - 2010.05.20 12:03:00.
