data_PCOD9564841
_publ_section_title
;
Structure prediction by ZEFSAII (Michael W. Deem and Ramdas Pophale) SiO2 
 PCOD9564841
Probable space group: P 4/M N C
;
_chemical_formula_sum "Si O2"
_cell_formula_units_Z 112
_cell_length_a 15.383905
_cell_length_b 15.383905
_cell_length_c 22.964927
_cell_angle_alpha 90.000000
_cell_angle_beta 90.000000
_cell_angle_gamma 90.000000
_cell_volume 5434.983725
_symmetry_space_group_name_H-M "P 4/M N C"
_symmetry_group_IT_number 128
_symmetry_cell_setting 'tetragonal'
loop_
_space_group_symop_operation_xyz
x,y,z
-y,x,z
-x,-y,z
y,-x,z
1/2+x,1/2-y,1/2-z
1/2-x,1/2+y,1/2-z
1/2+y,1/2+x,1/2-z
1/2-y,1/2-x,1/2-z
-x,-y,-z
y,-x,-z
x,y,-z
-y,x,-z
1/2-x,1/2+y,1/2+z
1/2+x,1/2-y,1/2+z
1/2-y,1/2-x,1/2+z
1/2+y,1/2+x,1/2+z
loop_
_atom_site_type_symbol
_atom_site_label
_atom_site_fract_x
_atom_site_fract_y
_atom_site_fract_z
Si Si1 0.764689 0.460720 0.343733
Si Si2 0.984090 0.602021 0.933962
Si Si3 0.222536 0.732306 0.683478
Si Si4 0.479799 0.639734 0.929974
Si Si5 0.643230 0.527070 0.563747
Si Si6 0.305506 0.899085 0.375078
Si Si7 0.035246 0.664242 0.278785
O O1 0.849989 0.461250 0.384367
O O2 0.738156 0.359779 0.337816
O O3 0.702869 0.524099 0.380039
O O4 0.781130 0.492091 0.278306
O O5 0.883248 0.620137 0.919540
O O6 0.000000 0.500000 0.928905
O O7 0.007620 0.626748 0.000000
O O8 0.249850 0.749850 0.750000
O O9 0.256529 0.811918 0.645507
O O10 0.118164 0.712431 0.690138
O O11 0.404630 0.570830 0.912848
O O12 0.460260 0.732373 0.903245
O O13 0.479253 0.645485 0.000000
O O14 0.566891 0.596781 0.565292
O O15 0.686389 0.536170 0.500000
O O16 0.345776 0.954721 0.321676
O O17 0.078114 0.578114 0.250000
#
# Coordination Sequence:
#
# PCOD9564841 Si02
#       7
#    16  16  16  16  16  16  16
#     4  10  21  39  60  81 119 157 196 254 308 363
#     4  11  25  41  58  86 122 163 209 251 304 372
#     4   9  22  40  56  88 121 153 202 255 311 366
#     4   9  19  37  61  91 126 164 207 261 325 381
#     4   9  19  35  56  81 109 146 192 243 302 358
#     4  12  22  37  66  90 123 160 212 259 307 380
#     4   9  21  40  60  85 122 159 197 245 311 374
#
# _framework density 20.607236
#
# number of rings (size 3 to 8) (size 9 to 14) (size 15 to 20)
#    0.000    2.429    0.000    4.286    4.000    1.143 
#    0.000    7.143    0.000    1.714    0.000    0.000 
#    0.000    0.000    0.000    0.000    0.000    0.000 
#
# Total GULP energy -624985.031193 kJ/mol
# GULP energy per Si atom -5580.223493 kJ/mol
# Density = 2.056033 g / cm^3
# Si number density = 20.607236 Si / 1000 Ang^3
#
#
#
# Elastic Constant Matrix: (Units=GPa)
#
#
# Indices 1 2 3 4 5 6 
#
# 1 55.2804 -8.4628 7.3924 0.0000 0.0000 0.0000
# 2 -8.4628 55.2804 7.3924 0.0000 0.0000 0.0000
# 3 7.3924 7.3924 56.2807 0.0000 0.0000 0.0000
# 4 0.0000 0.0000 0.0000 14.6236 0.0000 0.0000
# 5 0.0000 0.0000 0.0000 0.0000 14.6236 0.0000
# 6 0.0000 0.0000 0.0000 0.0000 0.0000 20.1754
#
#
#
# Elastic Compliance Matrix: (Units=1/GPa)
#
#
# Indices 1 2 3 4 5 6 
#
# 1 0.018986 0.003298 -0.002927 0.000000 0.000000 0.000000
# 2 0.003298 0.018986 -0.002927 0.000000 0.000000 0.000000
# 3 -0.002927 -0.002927 0.018537 0.000000 0.000000 0.000000
# 4 0.000000 0.000000 0.000000 0.068383 0.000000 0.000000
# 5 0.000000 0.000000 0.000000 0.000000 0.068383 0.000000
# 6 0.000000 0.000000 0.000000 0.000000 0.000000 0.049565
#
#
# Mechanical properties :
#
#
# Convention : Reuss Voigt Hill
#
# Bulk Modulus (GPa) = 19.45645 19.94282 19.69964
# Shear Modulus (GPa) = 18.86200 20.58584 19.72392
#
# Velocity S-wave (km/s) = 3.02869 3.16406 3.09712
# Velocity P-wave (km/s) = 4.65754 4.80073 4.72968
#
# Compressibility (1/GPa) = 0.05139683
#
# Stress axis : x y z
#
# Youngs Moduli (GPa) = 52.67075 52.67075 53.94626
#
# Poissons Ratio (x) = -0.17370 0.15790
# Poissons Ratio (y) = -0.17370 0.15790
# Poissons Ratio (z) = 0.15416 0.15416
#
# Static dielectric constant tensor:
#      x y z
#    x 1.748710 0.000000 0.000000 
#    y 0.000000 1.748710 0.000000 
#    z 0.000000 0.000000 1.720100 
# 
# From -- ./inp_files/6479.got.cif
#   From: 2010.05.17/outbox.cif.g08.bks.cpg/sg128_4_cif.got.tgz:6479.got - 2010.05.20 12:07:25.
