data_PCOD9564574
_publ_section_title
;
Structure prediction by ZEFSAII (Michael W. Deem and Ramdas Pophale) SiO2 
 PCOD9564574
Probable space group: P 4/M N C
;
_chemical_formula_sum "Si O2"
_cell_formula_units_Z 64
_cell_length_a 11.917186
_cell_length_b 11.917186
_cell_length_c 25.600412
_cell_angle_alpha 90.000000
_cell_angle_beta 90.000000
_cell_angle_gamma 90.000000
_cell_volume 3635.753159
_symmetry_space_group_name_H-M "P 4/M N C"
_symmetry_group_IT_number 128
_symmetry_cell_setting 'tetragonal'
loop_
_space_group_symop_operation_xyz
x,y,z
-y,x,z
-x,-y,z
y,-x,z
1/2+x,1/2-y,1/2-z
1/2-x,1/2+y,1/2-z
1/2+y,1/2+x,1/2-z
1/2-y,1/2-x,1/2-z
-x,-y,-z
y,-x,-z
x,y,-z
-y,x,-z
1/2-x,1/2+y,1/2+z
1/2+x,1/2-y,1/2+z
1/2-y,1/2-x,1/2+z
1/2+y,1/2+x,1/2+z
loop_
_atom_site_type_symbol
_atom_site_label
_atom_site_fract_x
_atom_site_fract_y
_atom_site_fract_z
Si Si1 0.828817 0.929422 0.325374
Si Si2 0.826533 0.686949 0.000000
Si Si3 0.627813 0.872188 0.750000
Si Si4 0.816383 0.498607 0.085503
Si Si5 0.000000 0.500000 0.330073
Si Si6 0.670374 0.905878 0.000000
O O1 0.739494 0.886835 0.283289
O O2 0.940650 0.858940 0.317589
O O3 0.783663 0.932333 0.385197
O O4 0.793677 0.607162 0.950486
O O5 0.764751 0.807625 0.000000
O O6 0.962534 0.702979 0.000000
O O7 0.532249 0.895898 0.706730
O O8 0.896573 0.531353 0.133366
O O9 0.882060 0.409850 0.049462
#
# Coordination Sequence:
#
# PCOD9564574 Si02
#       6
#    16   8   8  16   8   8
#     4  10  21  36  55  83 113 140 178 229 282 326
#     4  11  21  34  56  82 117 143 186 226 274 340
#     4   9  20  32  56  81 104 142 178 225 276 316
#     4  10  18  36  57  80 104 144 187 226 270 321
#     4   9  16  33  56  80  98 133 196 219 254 334
#     4  11  21  34  54  84 111 147 184 228 274 333
#
# _framework density 17.602957
#
# number of rings (size 3 to 8) (size 9 to 14) (size 15 to 20)
#    0.000    2.000    2.500    2.250    0.000    4.250 
#    0.000    0.000    0.000    6.000    0.000    0.000 
#    0.000    0.000    0.000    0.000    0.000    0.000 
#
# Total GULP energy -356365.919616 kJ/mol
# GULP energy per Si atom -5568.217494 kJ/mol
# Density = 1.756289 g / cm^3
# Si number density = 17.602957 Si / 1000 Ang^3
#
#
#
# Elastic Constant Matrix: (Units=GPa)
#
#
# Indices 1 2 3 4 5 6 
#
# 1 81.2058 46.5864 38.5349 0.0000 0.0000 0.0000
# 2 46.5864 81.2057 38.5349 0.0000 0.0000 0.0000
# 3 38.5349 38.5349 106.2277 0.0000 0.0000 0.0000
# 4 0.0000 0.0000 0.0000 17.4067 0.0000 0.0000
# 5 0.0000 0.0000 0.0000 0.0000 17.4066 0.0000
# 6 0.0000 0.0000 0.0000 0.0000 0.0000 15.8506
#
#
#
# Elastic Compliance Matrix: (Units=1/GPa)
#
#
# Indices 1 2 3 4 5 6 
#
# 1 0.019451 -0.009434 -0.003634 0.000000 0.000000 0.000000
# 2 -0.009434 0.019451 -0.003634 0.000000 0.000000 0.000000
# 3 -0.003634 -0.003634 0.012050 0.000000 0.000000 0.000000
# 4 0.000000 0.000000 0.000000 0.057449 0.000000 0.000000
# 5 0.000000 0.000000 0.000000 0.000000 0.057450 0.000000
# 6 0.000000 0.000000 0.000000 0.000000 0.000000 0.063089
#
#
# Mechanical properties :
#
#
# Convention : Reuss Voigt Hill
#
# Bulk Modulus (GPa) = 56.98406 57.32795 57.15601
# Shear Modulus (GPa) = 18.64329 19.79830 19.22080
#
# Velocity S-wave (km/s) = 3.25791 3.35731 3.30799
# Velocity P-wave (km/s) = 6.82599 6.90411 6.86516
#
# Compressibility (1/GPa) = 0.01754877
#
# Stress axis : x y z
#
# Youngs Moduli (GPa) = 51.41106 51.41101 82.98783
#
# Poissons Ratio (x) = 0.48504 0.30154
# Poissons Ratio (y) = 0.48504 0.30154
# Poissons Ratio (z) = 0.18681 0.18681
#
# Static dielectric constant tensor:
#      x y z
#    x 1.618750 0.000000 0.000000 
#    y 0.000000 1.618750 0.000000 
#    z 0.000000 0.000000 1.619860 
# 
# From -- ./inp_files/6279.got.cif
#   From: 2010.05.17/outbox.cif.g08.bks.cpg/sg128_4_cif.got.tgz:6279.got - 2010.05.20 12:07:25.
