data_PCOD9564856
_publ_section_title
;
Structure prediction by ZEFSAII (Michael W. Deem and Ramdas Pophale) SiO2 
 PCOD9564856
Probable space group: P 4/M N C
;
_chemical_formula_sum "Si O2"
_cell_formula_units_Z 96
_cell_length_a 16.445703
_cell_length_b 16.445703
_cell_length_c 19.337715
_cell_angle_alpha 90.000000
_cell_angle_beta 90.000000
_cell_angle_gamma 90.000000
_cell_volume 5230.100582
_symmetry_space_group_name_H-M "P 4/M N C"
_symmetry_group_IT_number 128
_symmetry_cell_setting 'tetragonal'
loop_
_space_group_symop_operation_xyz
x,y,z
-y,x,z
-x,-y,z
y,-x,z
1/2+x,1/2-y,1/2-z
1/2-x,1/2+y,1/2-z
1/2+y,1/2+x,1/2-z
1/2-y,1/2-x,1/2-z
-x,-y,-z
y,-x,-z
x,y,-z
-y,x,-z
1/2-x,1/2+y,1/2+z
1/2+x,1/2-y,1/2+z
1/2-y,1/2-x,1/2+z
1/2+y,1/2+x,1/2+z
loop_
_atom_site_type_symbol
_atom_site_label
_atom_site_fract_x
_atom_site_fract_y
_atom_site_fract_z
Si Si1 0.081809 0.461803 0.856468
Si Si2 0.271261 0.904536 0.263349
Si Si3 0.881922 0.067865 0.355611
Si Si4 0.534893 0.855161 0.000000
Si Si5 0.321796 0.756484 0.500000
Si Si6 0.278374 0.093104 0.000000
Si Si7 0.582721 0.293354 0.000000
Si Si8 0.223328 0.456879 0.386922
O O1 0.159630 0.455402 0.805843
O O2 0.106139 0.502739 0.928749
O O3 0.053923 0.372353 0.877049
O O4 0.000000 0.500000 0.826279
O O5 0.319095 0.819095 0.250000
O O6 0.189937 0.897430 0.307849
O O7 0.246447 0.947693 0.191453
O O8 0.849989 0.082701 0.433044
O O9 0.970571 0.107358 0.344796
O O10 0.629525 0.874972 0.000000
O O11 0.497735 0.764027 0.000000
O O12 0.271600 0.674862 0.500000
O O13 0.267398 0.838851 0.500000
O O14 0.379841 0.753466 0.433407
O O15 0.261116 0.036870 0.932633
#
# Coordination Sequence:
#
# PCOD9564856 Si02
#       8
#    16  16  16   8   8   8   8  16
#     4  11  19  35  61  90 123 161 195 238 312 378
#     4  10  22  40  63  88 123 163 198 256 318 372
#     4  11  25  43  64  89 122 168 216 255 298 360
#     4  12  19  35  60  92 120 160 201 246 297 365
#     4  11  23  38  62  86 116 158 198 251 312 360
#     4  11  24  36  59  94 115 153 207 253 296 370
#     4  12  21  39  63  87 127 162 203 253 300 352
#     4  10  21  40  58  83 122 154 192 250 312 367
#
# _framework density 18.355286
#
# number of rings (size 3 to 8) (size 9 to 14) (size 15 to 20)
#    0.000    1.167    5.000    2.250    2.333    5.000 
#    0.000    0.000    3.667    4.000    0.000    0.000 
#    0.000    0.000    0.000    0.000    0.000    0.000 
#
# Total GULP energy -535570.681828 kJ/mol
# GULP energy per Si atom -5578.861269 kJ/mol
# Density = 1.831351 g / cm^3
# Si number density = 18.355286 Si / 1000 Ang^3
#
#
#
# Elastic Constant Matrix: (Units=GPa)
#
#
# Indices 1 2 3 4 5 6 
#
# 1 62.6884 17.4887 33.3658 0.0000 0.0000 0.0000
# 2 17.4887 62.6884 33.3658 0.0000 0.0000 0.0000
# 3 33.3658 33.3658 132.4976 0.0000 0.0000 0.0000
# 4 0.0000 0.0000 0.0000 45.2760 0.0000 0.0000
# 5 0.0000 0.0000 0.0000 0.0000 45.2760 0.0000
# 6 0.0000 0.0000 0.0000 0.0000 0.0000 16.1045
#
#
#
# Elastic Compliance Matrix: (Units=1/GPa)
#
#
# Indices 1 2 3 4 5 6 
#
# 1 0.018952 -0.003172 -0.003974 0.000000 0.000000 0.000000
# 2 -0.003172 0.018952 -0.003974 0.000000 0.000000 0.000000
# 3 -0.003974 -0.003974 0.009549 0.000000 0.000000 0.000000
# 4 0.000000 0.000000 0.000000 0.022087 0.000000 0.000000
# 5 0.000000 0.000000 0.000000 0.000000 0.022087 0.000000
# 6 0.000000 0.000000 0.000000 0.000000 0.000000 0.062094
#
#
# Mechanical properties :
#
#
# Convention : Reuss Voigt Hill
#
# Bulk Modulus (GPa) = 39.66159 47.36834 43.51496
# Shear Modulus (GPa) = 27.12031 32.90826 30.01429
#
# Velocity S-wave (km/s) = 3.84802 4.23880 4.04813
# Velocity P-wave (km/s) = 6.43410 7.05825 6.75339
#
# Compressibility (1/GPa) = 0.02521331
#
# Stress axis : x y z
#
# Youngs Moduli (GPa) = 52.76529 52.76529 104.72717
#
# Poissons Ratio (x) = 0.16738 0.41615
# Poissons Ratio (y) = 0.16738 0.41615
# Poissons Ratio (z) = 0.20967 0.20967
#
# Static dielectric constant tensor:
#      x y z
#    x 1.632760 0.000000 0.000000 
#    y 0.000000 1.632760 0.000000 
#    z 0.000000 0.000000 1.642540 
# 
# From -- ./inp_files/5847.got.cif
#   From: 2010.05.17/outbox.cif.g08.bks.cpg/sg128_3_cif.got.tgz:5847.got - 2010.05.20 12:07:25.
