data_PCOD9564902
_publ_section_title
;
Structure prediction by ZEFSAII (Michael W. Deem and Ramdas Pophale) SiO2 
 PCOD9564902
Probable space group: P 4/M N C
;
_chemical_formula_sum "Si O2"
_cell_formula_units_Z 108
_cell_length_a 14.235384
_cell_length_b 14.235384
_cell_length_c 23.019270
_cell_angle_alpha 90.000000
_cell_angle_beta 90.000000
_cell_angle_gamma 90.000000
_cell_volume 4664.766617
_symmetry_space_group_name_H-M "P 4/M N C"
_symmetry_group_IT_number 128
_symmetry_cell_setting 'tetragonal'
loop_
_space_group_symop_operation_xyz
x,y,z
-y,x,z
-x,-y,z
y,-x,z
1/2+x,1/2-y,1/2-z
1/2-x,1/2+y,1/2-z
1/2+y,1/2+x,1/2-z
1/2-y,1/2-x,1/2-z
-x,-y,-z
y,-x,-z
x,y,-z
-y,x,-z
1/2-x,1/2+y,1/2+z
1/2+x,1/2-y,1/2+z
1/2-y,1/2-x,1/2+z
1/2+y,1/2+x,1/2+z
loop_
_atom_site_type_symbol
_atom_site_label
_atom_site_fract_x
_atom_site_fract_y
_atom_site_fract_z
Si Si1 0.219856 0.185284 0.098518
Si Si2 0.968067 0.354911 0.871144
Si Si3 0.131903 0.912611 0.000000
Si Si4 0.035352 0.350399 0.377856
Si Si5 0.967396 0.272011 0.255506
Si Si6 0.657120 0.294756 0.269866
Si Si7 0.000000 0.000000 0.393509
Si Si8 0.126412 0.170288 0.431155
O O1 0.269078 0.083055 0.097978
O O2 0.133800 0.183676 0.054630
O O3 0.183625 0.195314 0.163634
O O4 0.294463 0.268286 0.084913
O O5 0.910165 0.444229 0.894562
O O6 0.955785 0.338477 0.801155
O O7 0.076961 0.378005 0.879346
O O8 0.024168 0.875897 0.000000
O O9 0.061846 0.260009 0.414942
O O10 0.008091 0.319773 0.312605
O O11 0.870396 0.217783 0.265630
O O12 0.046883 0.196467 0.238320
O O13 0.692896 0.192896 0.250000
O O14 0.085932 0.079325 0.398412
O O15 0.121393 0.149942 0.500000
#
# Coordination Sequence:
#
# PCOD9564902 Si02
#       8
#    16  16   8  16  16  16   4  16
#     4  11  24  44  72 100 144 180 239 296 366 424
#     4  10  22  40  66 102 130 182 226 291 351 435
#     4  11  28  48  74 108 141 189 245 297 368 446
#     4  11  23  41  67  97 138 176 238 286 358 418
#     4  11  22  40  65  95 138 179 224 283 355 426
#     4  11  24  41  66 102 137 181 229 288 352 439
#     4  12  29  48  68  88 132 172 244 276 352 413
#     4  12  25  45  68  98 131 191 231 300 349 428
#
# _framework density 23.152284999999999
#
# number of rings (size 3 to 8) (size 9 to 14) (size 15 to 20)
#    0.000    0.963    0.741    6.889    6.222    2.667 
#    1.333    0.741    0.000    0.000    0.000    0.000 
#    0.000    0.000    0.000    0.000    0.000    0.000 
#
# Total GULP energy -603268.919757 kJ/mol
# GULP energy per Si atom -5585.823331 kJ/mol
# Density = 2.309959 g / cm^3
# Si number density = 23.152285 Si / 1000 Ang^3
#
#
#
# Elastic Constant Matrix: (Units=GPa)
#
#
# Indices 1 2 3 4 5 6 
#
# 1 112.3632 14.9107 11.1834 0.0000 0.0000 0.0000
# 2 14.9107 112.3632 11.1834 0.0000 0.0000 0.0000
# 3 11.1834 11.1834 45.8164 0.0000 0.0000 0.0000
# 4 0.0000 0.0000 0.0000 -2.2278 0.0000 0.0000
# 5 0.0000 0.0000 0.0000 0.0000 -2.2278 0.0000
# 6 0.0000 0.0000 0.0000 0.0000 0.0000 51.5167
#
#
#
# Elastic Compliance Matrix: (Units=1/GPa)
#
#
# Indices 1 2 3 4 5 6 
#
# 1 0.009235 -0.001026 -0.002004 0.000000 0.000000 0.000000
# 2 -0.001026 0.009235 -0.002004 0.000000 0.000000 0.000000
# 3 -0.002004 -0.002004 0.022804 0.000000 0.000000 0.000000
# 4 0.000000 0.000000 0.000000 -0.448877 0.000000 0.000000
# 5 0.000000 0.000000 0.000000 0.000000 -0.448877 0.000000
# 6 0.000000 0.000000 0.000000 0.000000 0.000000 0.019411
#
#
# Mechanical properties :
#
#
# Convention : Reuss Voigt Hill
#
# Bulk Modulus (GPa) = 32.04338 38.34419 35.19379
# Shear Modulus (GPa) = -6.12297 24.96325 9.42014
#
# Velocity S-wave (km/s) = -1.62800 3.28719 2.01931
# Velocity P-wave (km/s) = 3.21504 5.56823 4.54652
#
# Compressibility (1/GPa) = 0.03120769
#
# Stress axis : x y z
#
# Youngs Moduli (GPa) = 108.28003 108.28003 43.85108
#
# Poissons Ratio (x) = 0.11111 0.08787
# Poissons Ratio (y) = 0.11111 0.08787
# Poissons Ratio (z) = 0.21697 0.21697
#
# Static dielectric constant tensor:
#      x y z
#    x 1.877150 0.000000 0.000000 
#    y 0.000000 1.877150 0.000000 
#    z 0.000000 0.000000 1.844930 
# 
# From -- ./inp_files/6503.got.cif
#   From: 2010.05.17/outbox.cif.g08.bks.cpg/sg128_4_cif.got.tgz:6503.got - 2010.05.20 12:07:25.
