data_PCOD9564313
_publ_section_title
;
Structure prediction by ZEFSAII (Michael W. Deem and Ramdas Pophale) SiO2 
 PCOD9564313
Probable space group: P 4/M B M
;
_chemical_formula_sum "Si O2"
_cell_formula_units_Z 72
_cell_length_a 21.521761
_cell_length_b 21.521761
_cell_length_c 7.638801
_cell_angle_alpha 90.000000
_cell_angle_beta 90.000000
_cell_angle_gamma 90.000000
_cell_volume 3538.187181
_symmetry_space_group_name_H-M "P 4/M B M"
_symmetry_group_IT_number 127
_symmetry_cell_setting 'tetragonal'
loop_
_space_group_symop_operation_xyz
x,y,z
-y,x,z
-x,-y,z
y,-x,z
1/2+x,1/2-y,-z
1/2-x,1/2+y,-z
1/2+y,1/2+x,-z
1/2-y,1/2-x,-z
-x,-y,-z
y,-x,-z
x,y,-z
-y,x,-z
1/2-x,1/2+y,z
1/2+x,1/2-y,z
1/2-y,1/2-x,z
1/2+y,1/2+x,z
loop_
_atom_site_type_symbol
_atom_site_label
_atom_site_fract_x
_atom_site_fract_y
_atom_site_fract_z
Si Si1 0.095863 0.959587 0.000000
Si Si2 0.319634 0.918298 0.707743
Si Si3 0.560145 0.840515 0.211127
Si Si4 0.239166 0.158773 0.211984
Si Si5 0.679058 0.597751 0.297468
O O1 0.134717 0.940832 0.170937
O O2 0.031831 0.921189 0.000000
O O3 0.315972 0.907546 0.500000
O O4 0.369096 0.869096 0.781203
O O5 0.249574 0.908965 0.772086
O O6 0.340199 0.989054 0.734774
O O7 0.600013 0.899988 0.271541
O O8 0.598547 0.779229 0.267024
O O9 0.561825 0.840577 0.000000
O O10 0.281103 0.218898 0.258649
O O11 0.170525 0.161854 0.287027
O O12 0.234189 0.157703 0.000000
O O13 0.675738 0.577227 0.500000
#
# Coordination Sequence:
#
# PCOD9564313 Si02
#       5
#     8  16  16  16  16
#     4  11  28  50  69  94 130 167 204 257 325 393
#     4  10  23  40  57  86 127 166 208 260 318 378
#     4   9  20  37  59  89 123 164 214 261 308 373
#     4   9  18  35  60  90 127 169 213 264 322 378
#     4  11  24  41  68  98 127 165 213 265 320 384
#
# _framework density 20.349402999999999
#
# number of rings (size 3 to 8) (size 9 to 14) (size 15 to 20)
#    0.000    2.111    1.111    2.000    4.667    4.444 
#    0.000    5.556    0.000    0.000    0.000    0.000 
#    0.000    0.000    0.000    0.000    0.000    0.000 
#
# Total GULP energy -402361.980373 kJ/mol
# GULP energy per Si atom -5588.360839 kJ/mol
# Density = 2.030309 g / cm^3
# Si number density = 20.349403 Si / 1000 Ang^3
#
#
#
# Elastic Constant Matrix: (Units=GPa)
#
#
# Indices 1 2 3 4 5 6 
#
# 1 134.7827 92.3721 28.2520 0.0000 0.0000 0.0000
# 2 92.3721 134.7827 28.2520 0.0000 0.0000 0.0000
# 3 28.2520 28.2520 68.6456 0.0000 0.0000 0.0000
# 4 0.0000 0.0000 0.0000 29.3102 0.0000 0.0000
# 5 0.0000 0.0000 0.0000 0.0000 29.3102 0.0000
# 6 0.0000 0.0000 0.0000 0.0000 0.0000 18.7565
#
#
#
# Elastic Compliance Matrix: (Units=1/GPa)
#
#
# Indices 1 2 3 4 5 6 
#
# 1 0.014242 -0.009337 -0.002018 0.000000 0.000000 0.000000
# 2 -0.009337 0.014242 -0.002018 0.000000 0.000000 0.000000
# 3 -0.002018 -0.002018 0.016229 0.000000 0.000000 0.000000
# 4 0.000000 0.000000 0.000000 0.034118 0.000000 0.000000
# 5 0.000000 0.000000 0.000000 0.000000 0.034118 0.000000
# 6 0.000000 0.000000 0.000000 0.000000 0.000000 0.053315
#
#
# Mechanical properties :
#
#
# Convention : Reuss Voigt Hill
#
# Bulk Modulus (GPa) = 55.66709 70.66257 63.16483
# Shear Modulus (GPa) = 25.12572 28.09772 26.61172
#
# Velocity S-wave (km/s) = 3.51766 3.71989 3.62019
# Velocity P-wave (km/s) = 6.62674 7.29727 6.97007
#
# Compressibility (1/GPa) = 0.01796394
#
# Stress axis : x y z
#
# Youngs Moduli (GPa) = 70.21646 70.21646 61.61798
#
# Poissons Ratio (x) = 0.65563 0.12437
# Poissons Ratio (y) = 0.65563 0.12437
# Poissons Ratio (z) = 0.14173 0.14173
#
# Static dielectric constant tensor:
#      x y z
#    x 1.702530 0.000000 0.000000 
#    y 0.000000 1.702530 0.000000 
#    z 0.000000 0.000000 1.771430 
# 
# From -- ./inp_files/1518.got.cif
#   From: 2010.05.17/outbox.cif.g08.bks.cpg/sg127_1_cif.got.tgz:1518.got - 2010.05.20 12:03:00.
