data_PCOD9564533
_publ_section_title
;
Structure prediction by ZEFSAII (Michael W. Deem and Ramdas Pophale) SiO2 
 PCOD9564533
Probable space group: P 4/M N C
;
_chemical_formula_sum "Si O2"
_cell_formula_units_Z 40
_cell_length_a 13.233270
_cell_length_b 13.233270
_cell_length_c 11.039855
_cell_angle_alpha 90.000000
_cell_angle_beta 90.000000
_cell_angle_gamma 90.000000
_cell_volume 1933.293169
_symmetry_space_group_name_H-M "P 4/M N C"
_symmetry_group_IT_number 128
_symmetry_cell_setting 'tetragonal'
loop_
_space_group_symop_operation_xyz
x,y,z
-y,x,z
-x,-y,z
y,-x,z
1/2+x,1/2-y,1/2-z
1/2-x,1/2+y,1/2-z
1/2+y,1/2+x,1/2-z
1/2-y,1/2-x,1/2-z
-x,-y,-z
y,-x,-z
x,y,-z
-y,x,-z
1/2-x,1/2+y,1/2+z
1/2+x,1/2-y,1/2+z
1/2-y,1/2-x,1/2+z
1/2+y,1/2+x,1/2+z
loop_
_atom_site_type_symbol
_atom_site_label
_atom_site_fract_x
_atom_site_fract_y
_atom_site_fract_z
Si Si1 0.599359 0.626944 0.144862
Si Si2 0.616554 0.035288 0.133849
Si Si3 0.172567 0.672567 0.250000
O O1 0.482624 0.637700 0.187387
O O2 0.663691 0.722963 0.180435
O O3 0.596584 0.622749 0.000000
O O4 0.610999 0.110999 0.250000
O O5 0.500000 0.000000 0.122242
O O6 0.669382 0.929387 0.168285
O O7 0.647990 0.074064 0.000000
#
# Coordination Sequence:
#
# PCOD9564533 Si02
#       3
#    16  16   8
#     4   9  19  37  59  82 112 152 199 245 291 355
#     4   8  15  27  45  73 110 145 177 227 286 339
#     4  10  17  30  56  83 112 144 196 240 298 349
#
# _framework density 20.690083999999999
#
# number of rings (size 3 to 8) (size 9 to 14) (size 15 to 20)
#    0.000    3.600    0.000    2.400    0.000    1.600 
#   14.400    0.000    0.000    7.200    0.000   11.200 
#    0.000    0.000    0.000    0.000    0.000    0.000 
#
# Total GULP energy -222670.379606 kJ/mol
# GULP energy per Si atom -5566.759490 kJ/mol
# Density = 2.064299 g / cm^3
# Si number density = 20.690084 Si / 1000 Ang^3
#
#
#
# Elastic Constant Matrix: (Units=GPa)
#
#
# Indices 1 2 3 4 5 6 
#
# 1 69.5912 70.8489 31.5961 0.0000 0.0000 0.0000
# 2 70.8489 69.5912 31.5961 0.0000 0.0000 0.0000
# 3 31.5961 31.5961 126.6811 0.0000 0.0000 0.0000
# 4 0.0000 0.0000 0.0000 64.3518 0.0000 0.0000
# 5 0.0000 0.0000 0.0000 0.0000 64.3518 0.0000
# 6 0.0000 0.0000 0.0000 0.0000 0.0000 17.2896
#
#
#
# Elastic Compliance Matrix: (Units=1/GPa)
#
#
# Indices 1 2 3 4 5 6 
#
# 1 -0.393532 0.401553 -0.002000 0.000000 0.000000 0.000000
# 2 0.401553 -0.393532 -0.002000 0.000000 0.000000 0.000000
# 3 -0.002000 -0.002000 0.008892 0.000000 0.000000 0.000000
# 4 0.000000 0.000000 0.000000 0.015540 0.000000 0.000000
# 5 0.000000 0.000000 0.000000 0.000000 0.015540 0.000000
# 6 0.000000 0.000000 0.000000 0.000000 0.000000 0.057838
#
#
# Mechanical properties :
#
#
# Convention : Reuss Voigt Hill
#
# Bulk Modulus (GPa) = 59.06290 59.32730 59.19510
# Shear Modulus (GPa) = -3.38131 37.98678 17.30273
#
# Velocity S-wave (km/s) = -1.27977 4.28949 2.89499
# Velocity P-wave (km/s) = 5.14050 7.29860 6.31246
#
# Compressibility (1/GPa) = 0.01693110
#
# Stress axis : x y z
#
# Youngs Moduli (GPa) = -2.54109 -2.54109 112.46411
#
# Poissons Ratio (x) = 1.02038 0.22498
# Poissons Ratio (y) = 1.02038 0.22498
# Poissons Ratio (z) = -0.00508 -0.00508
#
# Static dielectric constant tensor:
#      x y z
#    x 1.749950 0.000000 0.000000 
#    y 0.000000 1.749950 0.000000 
#    z 0.000000 0.000000 1.828840 
# 
# From -- ./inp_files/2097.got.cif
#   From: 2010.05.17/outbox.cif.g08.bks.cpg/sg128_2_cif.got.tgz:2097.got - 2010.05.20 12:07:25.
