data_PCOD9564385
_publ_section_title
;
Structure prediction by ZEFSAII (Michael W. Deem and Ramdas Pophale) SiO2 
 PCOD9564385
Probable space group: P 4/M B M
;
_chemical_formula_sum "Si O2"
_cell_formula_units_Z 72
_cell_length_a 18.998562
_cell_length_b 18.998562
_cell_length_c 10.809766
_cell_angle_alpha 90.000000
_cell_angle_beta 90.000000
_cell_angle_gamma 90.000000
_cell_volume 3901.734859
_symmetry_space_group_name_H-M "P 4/M B M"
_symmetry_group_IT_number 127
_symmetry_cell_setting 'tetragonal'
loop_
_space_group_symop_operation_xyz
x,y,z
-y,x,z
-x,-y,z
y,-x,z
1/2+x,1/2-y,-z
1/2-x,1/2+y,-z
1/2+y,1/2+x,-z
1/2-y,1/2-x,-z
-x,-y,-z
y,-x,-z
x,y,-z
-y,x,-z
1/2-x,1/2+y,z
1/2+x,1/2-y,z
1/2-y,1/2-x,z
1/2+y,1/2+x,z
loop_
_atom_site_type_symbol
_atom_site_label
_atom_site_fract_x
_atom_site_fract_y
_atom_site_fract_z
Si Si1 0.110430 0.610430 0.149363
Si Si2 0.271861 0.228139 0.150596
Si Si3 0.691455 0.512596 0.142805
Si Si4 0.155546 0.455935 0.849375
Si Si5 0.355753 0.633222 0.243490
Si Si6 0.592135 0.578079 0.500000
O O1 0.168759 0.668759 0.177112
O O2 0.130170 0.532647 0.192089
O O3 0.107696 0.607696 0.000000
O O4 0.305238 0.300118 0.206844
O O5 0.263935 0.236066 0.000000
O O6 0.763526 0.549675 0.184735
O O7 0.679943 0.441985 0.218182
O O8 0.635404 0.574307 0.158213
O O9 0.698809 0.491295 0.000000
O O10 0.105663 0.394338 0.803189
O O11 0.152169 0.454586 0.000000
O O12 0.387580 0.629574 0.380925
O O13 0.507676 0.595746 0.500000
#
# Coordination Sequence:
#
# PCOD9564385 Si02
#       6
#     8   8  16  16  16   8
#     4   9  15  28  50  77 116 158 192 233 290 362
#     4  11  22  38  61  96 136 162 195 262 339 398
#     4  11  22  36  56  90 126 161 202 254 325 392
#     4   9  17  29  48  78 118 160 196 232 289 371
#     4  12  24  41  64  88 123 168 209 263 318 387
#     4  11  24  47  68  88 118 166 229 282 315 358
#
# _framework density 18.453330000000001
#
# number of rings (size 3 to 8) (size 9 to 14) (size 15 to 20)
#    0.000    1.444    4.444    2.333    1.556    2.222 
#    0.000    1.111    0.000    0.000    0.000    0.000 
#    0.000    1.778    0.000    0.000    0.000    0.000 
#
# Total GULP energy -401339.863757 kJ/mol
# GULP energy per Si atom -5574.164774 kJ/mol
# Density = 1.841133 g / cm^3
# Si number density = 18.453330 Si / 1000 Ang^3
#
#
#
# Elastic Constant Matrix: (Units=GPa)
#
#
# Indices 1 2 3 4 5 6 
#
# 1 71.7326 28.0601 10.9001 0.0000 0.0000 0.0000
# 2 28.0601 71.7329 10.9003 0.0000 0.0000 0.0000
# 3 10.9001 10.9003 52.6198 0.0000 0.0000 0.0000
# 4 0.0000 0.0000 0.0000 18.0185 0.0000 0.0000
# 5 0.0000 0.0000 0.0000 0.0000 18.0185 0.0000
# 6 0.0000 0.0000 0.0000 0.0000 0.0000 32.1914
#
#
#
# Elastic Compliance Matrix: (Units=1/GPa)
#
#
# Indices 1 2 3 4 5 6 
#
# 1 0.016697 -0.006201 -0.002174 0.000000 0.000000 0.000000
# 2 -0.006201 0.016697 -0.002174 0.000000 0.000000 0.000000
# 3 -0.002174 -0.002174 0.019905 0.000000 0.000000 0.000000
# 4 0.000000 0.000000 0.000000 0.055499 0.000000 0.000000
# 5 0.000000 0.000000 0.000000 0.000000 0.055499 0.000000
# 6 0.000000 0.000000 0.000000 0.000000 0.000000 0.031064
#
#
# Mechanical properties :
#
#
# Convention : Reuss Voigt Hill
#
# Bulk Modulus (GPa) = 31.05616 32.86735 31.96175
# Shear Modulus (GPa) = 22.00786 23.39400 22.70093
#
# Velocity S-wave (km/s) = 3.45718 3.56439 3.51120
# Velocity P-wave (km/s) = 5.72733 5.89827 5.81343
#
# Compressibility (1/GPa) = 0.03219973
#
# Stress axis : x y z
#
# Youngs Moduli (GPa) = 59.89209 59.89226 50.23854
#
# Poissons Ratio (x) = 0.37139 0.10923
# Poissons Ratio (y) = 0.37139 0.10923
# Poissons Ratio (z) = 0.13021 0.13022
#
# Static dielectric constant tensor:
#      x y z
#    x 1.667000 0.000000 0.000000 
#    y 0.000000 1.667000 0.000000 
#    z 0.000000 0.000000 1.618210 
# 
# From -- ./inp_files/1620.got.cif
#   From: 2010.05.17/outbox.cif.g08.bks.cpg/sg127_1_cif.got.tgz:1620.got - 2010.05.20 12:03:00.
