data_PCOD9564897
_publ_section_title
;
Structure prediction by ZEFSAII (Michael W. Deem and Ramdas Pophale) SiO2 
 PCOD9564897
Probable space group: P 4/M N C
;
_chemical_formula_sum "Si O2"
_cell_formula_units_Z 64
_cell_length_a 11.214520
_cell_length_b 11.214520
_cell_length_c 25.163726
_cell_angle_alpha 90.000000
_cell_angle_beta 90.000000
_cell_angle_gamma 90.000000
_cell_volume 3164.727546
_symmetry_space_group_name_H-M "P 4/M N C"
_symmetry_group_IT_number 128
_symmetry_cell_setting 'tetragonal'
loop_
_space_group_symop_operation_xyz
x,y,z
-y,x,z
-x,-y,z
y,-x,z
1/2+x,1/2-y,1/2-z
1/2-x,1/2+y,1/2-z
1/2+y,1/2+x,1/2-z
1/2-y,1/2-x,1/2-z
-x,-y,-z
y,-x,-z
x,y,-z
-y,x,-z
1/2-x,1/2+y,1/2+z
1/2+x,1/2-y,1/2+z
1/2-y,1/2-x,1/2+z
1/2+y,1/2+x,1/2+z
loop_
_atom_site_type_symbol
_atom_site_label
_atom_site_fract_x
_atom_site_fract_y
_atom_site_fract_z
Si Si1 0.000000 0.500000 0.833874
Si Si2 0.851779 0.676410 0.592064
Si Si3 0.302325 0.475115 0.000000
Si Si4 0.152084 0.652084 0.750000
Si Si5 0.182459 0.918595 0.000000
Si Si6 0.652842 0.372478 0.829478
O O1 0.915044 0.583312 0.868917
O O2 0.923505 0.406672 0.798212
O O3 0.953254 0.727673 0.552708
O O4 0.757456 0.616924 0.552206
O O5 0.792467 0.783268 0.626722
O O6 0.401428 0.370919 0.000000
O O7 0.287066 0.645400 0.772020
O O8 0.058153 0.847662 0.000000
O O9 0.659689 0.513878 0.836246
#
# Coordination Sequence:
#
# PCOD9564897 Si02
#       6
#     8  16   8   8   8  16
#     4  11  26  45  66 102 136 189 224 285 334 424
#     4  11  24  42  72  97 136 180 226 280 351 410
#     4  10  22  39  64 102 133 165 213 283 337 413
#     4  11  26  44  66  95 146 176 238 277 344 398
#     4  10  26  47  68 102 137 179 230 289 344 434
#     4  11  24  43  69 100 135 178 228 290 339 401
#
# _framework density 20.222909999999999
#
# number of rings (size 3 to 8) (size 9 to 14) (size 15 to 20)
#    0.000    1.250    2.500    1.500    7.000    6.000 
#    0.000    0.000    0.000    0.000    0.000    0.000 
#    0.000    0.000    0.000    0.000    0.000    0.000 
#
# Total GULP energy -357028.283569 kJ/mol
# GULP energy per Si atom -5578.566931 kJ/mol
# Density = 2.017688 g / cm^3
# Si number density = 20.222910 Si / 1000 Ang^3
#
#
#
# Elastic Constant Matrix: (Units=GPa)
#
#
# Indices 1 2 3 4 5 6 
#
# 1 96.8391 60.3586 76.7071 0.0000 0.0000 0.0000
# 2 60.3586 96.8391 76.7071 0.0000 0.0000 0.0000
# 3 76.7071 76.7071 140.1257 0.0000 0.0000 0.0000
# 4 0.0000 0.0000 0.0000 -44.3215 0.0000 0.0000
# 5 0.0000 0.0000 0.0000 0.0000 -44.3215 0.0000
# 6 0.0000 0.0000 0.0000 0.0000 0.0000 -13.6056
#
#
#
# Elastic Compliance Matrix: (Units=1/GPa)
#
#
# Indices 1 2 3 4 5 6 
#
# 1 0.020535 -0.006877 -0.007477 0.000000 0.000000 0.000000
# 2 -0.006877 0.020535 -0.007477 0.000000 0.000000 0.000000
# 3 -0.007477 -0.007477 0.015322 0.000000 0.000000 0.000000
# 4 0.000000 0.000000 0.000000 -0.022562 0.000000 0.000000
# 5 0.000000 0.000000 0.000000 0.000000 -0.022562 0.000000
# 6 0.000000 0.000000 0.000000 0.000000 0.000000 -0.073499
#
#
# Mechanical properties :
#
#
# Convention : Reuss Voigt Hill
#
# Bulk Modulus (GPa) = 78.54403 84.59439 81.56921
# Shear Modulus (GPa) = -348.98857 -12.44766 -180.71811
#
# Velocity S-wave (km/s) = -13.15088 -2.48366 -9.46346
# Velocity P-wave (km/s) = 13.84451 5.80491 8.88745
#
# Compressibility (1/GPa) = 0.01273171
#
# Stress axis : x y z
#
# Youngs Moduli (GPa) = 48.69720 48.69720 65.26478
#
# Poissons Ratio (x) = 0.33488 0.48797
# Poissons Ratio (y) = 0.33488 0.48797
# Poissons Ratio (z) = 0.36410 0.36410
#
# Static dielectric constant tensor:
#      x y z
#    x 1.735460 0.000000 0.000000 
#    y 0.000000 1.735460 0.000000 
#    z 0.000000 0.000000 1.321690 
# 
# From -- ./inp_files/6280.got.cif
#   From: 2010.05.17/outbox.cif.g08.bks.cpg/sg128_4_cif.got.tgz:6280.got - 2010.05.20 12:07:25.
