data_PCOD9564616
_publ_section_title
;
Structure prediction by ZEFSAII (Michael W. Deem and Ramdas Pophale) SiO2 
 PCOD9564616
Probable space group: P 4/M N C
;
_chemical_formula_sum "Si O2"
_cell_formula_units_Z 80
_cell_length_a 15.465496
_cell_length_b 15.465496
_cell_length_c 14.571493
_cell_angle_alpha 90.000000
_cell_angle_beta 90.000000
_cell_angle_gamma 90.000000
_cell_volume 3485.232522
_symmetry_space_group_name_H-M "P 4/M N C"
_symmetry_group_IT_number 128
_symmetry_cell_setting 'tetragonal'
loop_
_space_group_symop_operation_xyz
x,y,z
-y,x,z
-x,-y,z
y,-x,z
1/2+x,1/2-y,1/2-z
1/2-x,1/2+y,1/2-z
1/2+y,1/2+x,1/2-z
1/2-y,1/2-x,1/2-z
-x,-y,-z
y,-x,-z
x,y,-z
-y,x,-z
1/2-x,1/2+y,1/2+z
1/2+x,1/2-y,1/2+z
1/2-y,1/2-x,1/2+z
1/2+y,1/2+x,1/2+z
loop_
_atom_site_type_symbol
_atom_site_label
_atom_site_fract_x
_atom_site_fract_y
_atom_site_fract_z
Si Si1 0.919798 0.557388 0.642688
Si Si2 0.381948 0.572380 0.612101
Si Si3 0.229125 0.108884 0.386915
Si Si4 0.303586 0.099110 0.109990
Si Si5 0.239047 0.917918 0.392533
O O1 0.935201 0.564800 0.750000
O O2 0.836908 0.497118 0.627966
O O3 0.910122 0.656484 0.611330
O O4 0.000000 0.500000 0.603585
O O5 0.385047 0.471811 0.639967
O O6 0.381756 0.574246 0.500000
O O7 0.293256 0.613793 0.644624
O O8 0.229599 0.107482 0.500000
O O9 0.326182 0.132839 0.356304
O O10 0.161581 0.182158 0.356114
O O11 0.211511 0.011513 0.354409
O O12 0.301233 0.107941 0.000000
O O13 0.217463 0.920405 0.500000
#
# Coordination Sequence:
#
# PCOD9564616 Si02
#       5
#    16  16  16  16  16
#     4  11  23  38  55  78 111 145 184 228 277 326
#     4   8  15  27  45  75 114 147 175 214 266 324
#     4   9  19  33  55  86 112 138 183 229 275 326
#     4  10  19  32  54  83 111 144 184 229 276 329
#     4  10  20  37  59  84 111 142 181 228 275 329
#
# _framework density 22.953990000000001
#
# number of rings (size 3 to 8) (size 9 to 14) (size 15 to 20)
#    0.000    2.400    2.000    1.200    2.800    1.200 
#    0.000    4.000    0.000    0.000    0.000    0.000 
#    0.000    0.000    0.000    0.000    0.000    0.000 
#
# Total GULP energy -446700.342970 kJ/mol
# GULP energy per Si atom -5583.754287 kJ/mol
# Density = 2.290175 g / cm^3
# Si number density = 22.953990 Si / 1000 Ang^3
#
#
#
# Elastic Constant Matrix: (Units=GPa)
#
#
# Indices 1 2 3 4 5 6 
#
# 1 110.5847 57.7470 1.1195 0.0000 0.0000 0.0000
# 2 57.7470 110.5851 1.1197 0.0000 0.0000 0.0000
# 3 1.1195 1.1197 48.9788 0.0000 0.0000 0.0000
# 4 0.0000 0.0000 0.0000 9.0907 0.0000 0.0000
# 5 0.0000 0.0000 0.0000 0.0000 9.0914 0.0000
# 6 0.0000 0.0000 0.0000 0.0000 0.0000 33.3082
#
#
#
# Elastic Compliance Matrix: (Units=1/GPa)
#
#
# Indices 1 2 3 4 5 6 
#
# 1 0.012434 -0.006492 -0.000136 0.000000 0.000000 0.000000
# 2 -0.006492 0.012434 -0.000136 0.000000 0.000000 0.000000
# 3 -0.000136 -0.000136 0.020423 0.000000 0.000000 0.000000
# 4 0.000000 0.000000 0.000000 0.110002 0.000000 0.000000
# 5 0.000000 0.000000 0.000000 0.000000 0.109995 0.000000
# 6 0.000000 0.000000 0.000000 0.000000 0.000000 0.030023
#
#
# Mechanical properties :
#
#
# Convention : Reuss Voigt Hill
#
# Bulk Modulus (GPa) = 31.48145 43.34679 37.41412
# Shear Modulus (GPa) = 15.65308 24.30888 19.98098
#
# Velocity S-wave (km/s) = 2.61422 3.25780 2.95359
# Velocity P-wave (km/s) = 4.78090 5.75119 5.28834
#
# Compressibility (1/GPa) = 0.03176474
#
# Stress axis : x y z
#
# Youngs Moduli (GPa) = 80.42372 80.42401 48.96395
#
# Poissons Ratio (x) = 0.52209 0.00665
# Poissons Ratio (y) = 0.52208 0.00665
# Poissons Ratio (z) = 0.01092 0.01093
#
# Static dielectric constant tensor:
#      x y z
#    x 1.885740 0.000000 0.000000 
#    y 0.000000 1.885720 0.000000 
#    z 0.000000 0.000000 1.885020 
# 
# From -- ./inp_files/5520.got.cif
#   From: 2010.05.17/outbox.cif.g08.bks.cpg/sg128_3_cif.got.tgz:5520.got - 2010.05.20 12:07:25.
