data_PCOD9564779
_publ_section_title
;
Structure prediction by ZEFSAII (Michael W. Deem and Ramdas Pophale) SiO2 
 PCOD9564779
Probable space group: P 4/M N C
;
_chemical_formula_sum "Si O2"
_cell_formula_units_Z 72
_cell_length_a 10.462286
_cell_length_b 10.462286
_cell_length_c 26.275326
_cell_angle_alpha 90.000000
_cell_angle_beta 90.000000
_cell_angle_gamma 90.000000
_cell_volume 2876.082164
_symmetry_space_group_name_H-M "P 4/M N C"
_symmetry_group_IT_number 128
_symmetry_cell_setting 'tetragonal'
loop_
_space_group_symop_operation_xyz
x,y,z
-y,x,z
-x,-y,z
y,-x,z
1/2+x,1/2-y,1/2-z
1/2-x,1/2+y,1/2-z
1/2+y,1/2+x,1/2-z
1/2-y,1/2-x,1/2-z
-x,-y,-z
y,-x,-z
x,y,-z
-y,x,-z
1/2-x,1/2+y,1/2+z
1/2+x,1/2-y,1/2+z
1/2-y,1/2-x,1/2+z
1/2+y,1/2+x,1/2+z
loop_
_atom_site_type_symbol
_atom_site_label
_atom_site_fract_x
_atom_site_fract_y
_atom_site_fract_z
Si Si1 0.284296 0.499495 0.369153
Si Si2 0.717941 0.501511 0.147146
Si Si3 0.716890 0.501055 0.741558
Si Si4 0.633708 0.887906 0.441503
Si Si5 0.847290 0.847340 0.500000
O O1 0.377063 0.378243 0.371266
O O2 0.218367 0.499175 0.313522
O O3 0.189793 0.521602 0.415409
O O4 0.621721 0.622203 0.144573
O O5 0.781182 0.501558 0.203295
O O6 0.815558 0.487351 0.100625
O O7 0.622182 0.623354 0.741549
O O8 0.600036 0.921173 0.500000
O O9 0.762987 0.803907 0.452521
O O10 0.996830 0.831281 0.500000
#
# Coordination Sequence:
#
# PCOD9564779 Si02
#       5
#    16  16  16  16   8
#     4   9  18  35  54  68  91 126 163 207 247 275
#     4   9  16  28  49  75 101 127 155 191 238 292
#     4   7  12  25  47  73  94 117 155 199 241 282
#     4  10  21  28  44  76  98 125 167 199 224 277
#     4   9  18  34  52  69  96 128 152 183 228 278
#
# _framework density 25.034054000000001
#
# number of rings (size 3 to 8) (size 9 to 14) (size 15 to 20)
#    0.667    2.556    0.000    4.000    0.000    3.556 
#    0.000    1.111    0.000    6.667    0.000    0.000 
#    0.000   21.333    0.000    0.000    0.000    0.000 
#
# Total GULP energy -401102.831875 kJ/mol
# GULP energy per Si atom -5570.872665 kJ/mol
# Density = 2.497708 g / cm^3
# Si number density = 25.034054 Si / 1000 Ang^3
#
#
#
# Elastic Constant Matrix: (Units=GPa)
#
#
# Indices 1 2 3 4 5 6 
#
# 1 36.0895 66.3972 47.0386 0.0000 0.0000 0.0000
# 2 66.3972 36.0895 47.0386 0.0000 0.0000 0.0000
# 3 47.0386 47.0386 212.9881 0.0000 0.0000 0.0000
# 4 0.0000 0.0000 0.0000 -36.3876 0.0000 0.0000
# 5 0.0000 0.0000 0.0000 0.0000 -36.3876 0.0000
# 6 0.0000 0.0000 0.0000 0.0000 0.0000 41.9585
#
#
#
# Elastic Compliance Matrix: (Units=1/GPa)
#
#
# Indices 1 2 3 4 5 6 
#
# 1 -0.010378 0.022617 -0.002703 0.000000 0.000000 0.000000
# 2 0.022617 -0.010378 -0.002703 0.000000 0.000000 0.000000
# 3 -0.002703 -0.002703 0.005889 0.000000 0.000000 0.000000
# 4 0.000000 0.000000 0.000000 -0.027482 0.000000 0.000000
# 5 0.000000 0.000000 0.000000 0.000000 -0.027482 0.000000
# 6 0.000000 0.000000 0.000000 0.000000 0.000000 0.023833
#
#
# Mechanical properties :
#
#
# Convention : Reuss Voigt Hill
#
# Bulk Modulus (GPa) = 51.13942 67.34622 59.24282
# Shear Modulus (GPa) = -67.65716 2.14951 -32.75382
#
# Velocity S-wave (km/s) = -5.20430 0.92763 -3.62106
# Velocity P-wave (km/s) = 3.95483 5.30166 2.49669
#
# Compressibility (1/GPa) = 0.01955439
#
# Stress axis : x y z
#
# Youngs Moduli (GPa) = -96.35542 -96.35542 169.80915
#
# Poissons Ratio (x) = 2.17924 0.45897
# Poissons Ratio (y) = 2.17924 0.45897
# Poissons Ratio (z) = -0.26044 -0.26044
#
# Static dielectric constant tensor:
#      x y z
#    x 1.985290 0.000000 0.000000 
#    y 0.000000 1.985290 0.000000 
#    z 0.000000 0.000000 1.966990 
# 
# From -- ./inp_files/6762.got.cif
#   From: 2010.05.17/outbox.cif.g08.bks.cpg/sg128_4_cif.got.tgz:6762.got - 2010.05.20 12:07:25.
