data_PCOD9564893
_publ_section_title
;
Structure prediction by ZEFSAII (Michael W. Deem and Ramdas Pophale) SiO2 
 PCOD9564893
Probable space group: P 4/M N C
;
_chemical_formula_sum "Si O2"
_cell_formula_units_Z 72
_cell_length_a 13.995335
_cell_length_b 13.995335
_cell_length_c 19.254814
_cell_angle_alpha 90.000000
_cell_angle_beta 90.000000
_cell_angle_gamma 90.000000
_cell_volume 3771.428899
_symmetry_space_group_name_H-M "P 4/M N C"
_symmetry_group_IT_number 128
_symmetry_cell_setting 'tetragonal'
loop_
_space_group_symop_operation_xyz
x,y,z
-y,x,z
-x,-y,z
y,-x,z
1/2+x,1/2-y,1/2-z
1/2-x,1/2+y,1/2-z
1/2+y,1/2+x,1/2-z
1/2-y,1/2-x,1/2-z
-x,-y,-z
y,-x,-z
x,y,-z
-y,x,-z
1/2-x,1/2+y,1/2+z
1/2+x,1/2-y,1/2+z
1/2-y,1/2-x,1/2+z
1/2+y,1/2+x,1/2+z
loop_
_atom_site_type_symbol
_atom_site_label
_atom_site_fract_x
_atom_site_fract_y
_atom_site_fract_z
Si Si1 0.252533 0.111143 0.583934
Si Si2 0.751062 0.096523 0.810328
Si Si3 0.903116 0.743436 0.351727
Si Si4 0.879675 0.895158 0.000000
Si Si5 0.236447 0.112009 0.134112
O O1 0.249909 0.122820 0.500000
O O2 0.165752 0.171383 0.619759
O O3 0.347572 0.159572 0.617098
O O4 0.253294 0.999689 0.603743
O O5 0.744990 0.068037 0.729603
O O6 0.661704 0.147268 0.848846
O O7 0.829799 0.180782 0.807227
O O8 0.771795 0.999222 0.850673
O O9 0.826140 0.859560 0.932667
O O10 0.990281 0.871373 0.000000
#
# Coordination Sequence:
#
# PCOD9564893 Si02
#       5
#    16  16  16   8  16
#     4  11  23  41  62  86 119 159 202 248 297 350
#     4  10  22  39  62  88 122 151 196 246 295 361
#     4  10  23  42  61  87 114 159 202 247 298 345
#     4  11  20  34  56  91 123 152 190 235 311 366
#     4  11  21  37  61  89 120 156 188 244 301 354
#
# _framework density 19.090907999999999
#
# number of rings (size 3 to 8) (size 9 to 14) (size 15 to 20)
#    0.000    1.444    3.333    2.000    0.000    4.444 
#    2.000    6.667    0.000    0.000    0.000    0.000 
#    0.000    0.000    0.000    0.000    0.000    0.000 
#
# Total GULP energy -401017.032425 kJ/mol
# GULP energy per Si atom -5569.681006 kJ/mol
# Density = 1.904746 g / cm^3
# Si number density = 19.090908 Si / 1000 Ang^3
#
#
#
# Elastic Constant Matrix: (Units=GPa)
#
#
# Indices 1 2 3 4 5 6 
#
# 1 89.7162 22.3180 26.3315 0.0000 0.0000 0.0000
# 2 22.3180 89.7162 26.3315 0.0000 0.0000 0.0000
# 3 26.3315 26.3315 68.7854 0.0000 0.0000 0.0000
# 4 0.0000 0.0000 0.0000 26.5929 0.0000 0.0000
# 5 0.0000 0.0000 0.0000 0.0000 26.5929 0.0000
# 6 0.0000 0.0000 0.0000 0.0000 0.0000 13.8846
#
#
#
# Elastic Compliance Matrix: (Units=1/GPa)
#
#
# Indices 1 2 3 4 5 6 
#
# 1 0.012861 -0.001976 -0.004167 0.000000 0.000000 0.000000
# 2 -0.001976 0.012861 -0.004167 0.000000 0.000000 0.000000
# 3 -0.004167 -0.004167 0.017728 0.000000 0.000000 0.000000
# 4 0.000000 0.000000 0.000000 0.037604 0.000000 0.000000
# 5 0.000000 0.000000 0.000000 0.000000 0.037604 0.000000
# 6 0.000000 0.000000 0.000000 0.000000 0.000000 0.072022
#
#
# Mechanical properties :
#
#
# Convention : Reuss Voigt Hill
#
# Bulk Modulus (GPa) = 43.80140 44.24220 44.02180
# Shear Modulus (GPa) = 22.84052 24.96320 23.90186
#
# Velocity S-wave (km/s) = 3.46267 3.61999 3.54220
# Velocity P-wave (km/s) = 6.24341 6.37944 6.31179
#
# Compressibility (1/GPa) = 0.02283032
#
# Stress axis : x y z
#
# Youngs Moduli (GPa) = 77.75559 77.75559 56.40800
#
# Poissons Ratio (x) = 0.15368 0.23503
# Poissons Ratio (y) = 0.15368 0.23503
# Poissons Ratio (z) = 0.32398 0.32398
#
# Static dielectric constant tensor:
#      x y z
#    x 1.653600 0.000000 0.000000 
#    y 0.000000 1.653600 0.000000 
#    z 0.000000 0.000000 1.685880 
# 
# From -- ./inp_files/4560.got.cif
#   From: 2010.05.17/outbox.cif.g08.bks.cpg/sg128_3_cif.got.tgz:4560.got - 2010.05.20 12:07:25.
