data_PCOD9564600
_publ_section_title
;
Structure prediction by ZEFSAII (Michael W. Deem and Ramdas Pophale) SiO2 
 PCOD9564600
Probable space group: P 4/M N C
;
_chemical_formula_sum "Si O2"
_cell_formula_units_Z 96
_cell_length_a 24.755440
_cell_length_b 24.755440
_cell_length_c 8.815108
_cell_angle_alpha 90.000000
_cell_angle_beta 90.000000
_cell_angle_gamma 90.000000
_cell_volume 5402.178587
_symmetry_space_group_name_H-M "P 4/M N C"
_symmetry_group_IT_number 128
_symmetry_cell_setting 'tetragonal'
loop_
_space_group_symop_operation_xyz
x,y,z
-y,x,z
-x,-y,z
y,-x,z
1/2+x,1/2-y,1/2-z
1/2-x,1/2+y,1/2-z
1/2+y,1/2+x,1/2-z
1/2-y,1/2-x,1/2-z
-x,-y,-z
y,-x,-z
x,y,-z
-y,x,-z
1/2-x,1/2+y,1/2+z
1/2+x,1/2-y,1/2+z
1/2-y,1/2-x,1/2+z
1/2+y,1/2+x,1/2+z
loop_
_atom_site_type_symbol
_atom_site_label
_atom_site_fract_x
_atom_site_fract_y
_atom_site_fract_z
Si Si1 0.563413 0.560358 0.184782
Si Si2 0.270944 0.852753 0.180409
Si Si3 0.769741 0.351141 0.182203
Si Si4 0.361449 0.942801 0.180416
Si Si5 0.346439 0.353874 0.183629
Si Si6 0.858102 0.439782 0.818283
O O1 0.501828 0.574329 0.231008
O O2 0.608462 0.603129 0.235352
O O3 0.563761 0.560960 0.000000
O O4 0.299901 0.799901 0.250000
O O5 0.311509 0.902467 0.211271
O O6 0.213039 0.864557 0.252346
O O7 0.266131 0.845734 0.000000
O O8 0.797956 0.297956 0.250000
O O9 0.707910 0.359422 0.228783
O O10 0.807534 0.401635 0.225675
O O11 0.771023 0.346392 0.000000
O O12 0.413891 0.913891 0.250000
O O13 0.352115 0.000619 0.254045
O O14 0.367485 0.947787 0.000000
O O15 0.344642 0.356002 0.000000
O O16 0.910651 0.410651 0.750000
O O17 0.861614 0.440824 0.000000
#
# Coordination Sequence:
#
# PCOD9564600 Si02
#       6
#    16  16  16  16  16  16
#     4   8  15  29  49  74 104 136 171 213 256 297
#     4  10  21  36  53  75 105 137 169 209 257 307
#     4   9  19  33  49  73 104 136 169 208 255 303
#     4  10  21  37  55  76 103 135 173 215 260 308
#     4  10  19  31  52  80 105 133 172 213 254 305
#     4  10  20  35  54  76 105 139 175 215 259 305
#
# _framework density 17.770607999999999
#
# number of rings (size 3 to 8) (size 9 to 14) (size 15 to 20)
#    0.000    2.500    0.000    2.500    0.000    6.333 
#    0.000    5.000    0.000    1.000    0.000    1.167 
#    0.000    0.000    0.000    0.000    0.000    0.000 
#
# Total GULP energy -535618.473456 kJ/mol
# GULP energy per Si atom -5579.359099 kJ/mol
# Density = 1.773016 g / cm^3
# Si number density = 17.770608 Si / 1000 Ang^3
#
#
#
# Elastic Constant Matrix: (Units=GPa)
#
#
# Indices 1 2 3 4 5 6 
#
# 1 144.8128 87.2576 42.5590 0.0000 0.0000 0.0000
# 2 87.2576 144.8128 42.5590 0.0000 0.0000 0.0000
# 3 42.5590 42.5590 21.7057 0.0000 0.0000 0.0000
# 4 0.0000 0.0000 0.0000 23.7554 0.0000 0.0000
# 5 0.0000 0.0000 0.0000 0.0000 23.7554 0.0000
# 6 0.0000 0.0000 0.0000 0.0000 0.0000 24.4567
#
#
#
# Elastic Compliance Matrix: (Units=1/GPa)
#
#
# Indices 1 2 3 4 5 6 
#
# 1 0.016359 -0.001016 -0.030083 0.000000 0.000000 0.000000
# 2 -0.001016 0.016359 -0.030083 0.000000 0.000000 0.000000
# 3 -0.030083 -0.030083 0.164039 0.000000 0.000000 0.000000
# 4 0.000000 0.000000 0.000000 0.042096 0.000000 0.000000
# 5 0.000000 0.000000 0.000000 0.000000 0.042096 0.000000
# 6 0.000000 0.000000 0.000000 0.000000 0.000000 0.040889
#
#
# Mechanical properties :
#
#
# Convention : Reuss Voigt Hill
#
# Bulk Modulus (GPa) = 13.44208 72.89802 43.17005
# Shear Modulus (GPa) = 10.66104 23.65723 17.15913
#
# Velocity S-wave (km/s) = 2.45199 3.65260 3.11077
# Velocity P-wave (km/s) = 3.94930 7.67459 6.10313
#
# Compressibility (1/GPa) = 0.07439325
#
# Stress axis : x y z
#
# Youngs Moduli (GPa) = 61.12966 61.12966 6.09610
#
# Poissons Ratio (x) = 0.06210 0.18339
# Poissons Ratio (y) = 0.06210 0.18339
# Poissons Ratio (z) = 1.83896 1.83896
#
# Static dielectric constant tensor:
#      x y z
#    x 1.594690 0.000000 0.000000 
#    y 0.000000 1.594690 0.000000 
#    z 0.000000 0.000000 1.595340 
# 
# From -- ./inp_files/1436.got.cif
#   From: 2010.05.17/outbox.cif.g08.bks.cpg/sg128_1_cif.got.tgz:1436.got - 2010.05.20 12:07:25.
