data_PCOD9564002
_publ_section_title
;
Structure prediction by ZEFSAII (Michael W. Deem and Ramdas Pophale) SiO2 
 PCOD9564002
Probable space group: P 4/M B M
;
_chemical_formula_sum "Si O2"
_cell_formula_units_Z 88
_cell_length_a 18.199153
_cell_length_b 18.199153
_cell_length_c 15.233568
_cell_angle_alpha 90.000000
_cell_angle_beta 90.000000
_cell_angle_gamma 90.000000
_cell_volume 5045.497412
_symmetry_space_group_name_H-M "P 4/M B M"
_symmetry_group_IT_number 127
_symmetry_cell_setting 'tetragonal'
loop_
_space_group_symop_operation_xyz
x,y,z
-y,x,z
-x,-y,z
y,-x,z
1/2+x,1/2-y,-z
1/2-x,1/2+y,-z
1/2+y,1/2+x,-z
1/2-y,1/2-x,-z
-x,-y,-z
y,-x,-z
x,y,-z
-y,x,-z
1/2-x,1/2+y,z
1/2+x,1/2-y,z
1/2-y,1/2-x,z
1/2+y,1/2+x,z
loop_
_atom_site_type_symbol
_atom_site_label
_atom_site_fract_x
_atom_site_fract_y
_atom_site_fract_z
Si Si1 0.203801 0.178895 0.897217
Si Si2 0.376913 0.762216 0.744357
Si Si3 0.830475 0.214010 0.399404
Si Si4 0.953051 0.110607 0.155141
Si Si5 0.031875 0.118407 0.500000
Si Si6 0.987640 0.188823 0.326536
O O1 0.285051 0.214950 0.878528
O O2 0.149696 0.225864 0.835261
O O3 0.181023 0.094076 0.877110
O O4 0.190437 0.190380 0.000000
O O5 0.344519 0.844519 0.740609
O O6 0.333437 0.716229 0.669622
O O7 0.462028 0.745902 0.726980
O O8 0.824800 0.186355 0.500000
O O9 0.793406 0.293406 0.398617
O O10 0.913381 0.219309 0.367502
O O11 0.037404 0.092943 0.128881
O O12 0.962494 0.124367 0.259800
O O13 0.035175 0.160764 0.408664
O O14 0.949930 0.085352 0.500000
#
# Coordination Sequence:
#
# PCOD9564002 Si02
#       6
#    16  16  16  16   8  16
#     4  10  21  38  57  75 102 144 188 224 263 319
#     4  10  21  37  55  76 104 140 185 229 263 312
#     4  10  20  33  51  75 104 138 177 220 267 317
#     4  11  21  34  52  80 116 146 173 214 271 330
#     4  11  22  30  44  74 110 145 178 212 257 316
#     4  12  20  33  53  75 106 148 181 219 267 322
#
# _framework density 17.441292000000001
#
# number of rings (size 3 to 8) (size 9 to 14) (size 15 to 20)
#    0.000    1.364    4.545    2.182    1.273    2.182 
#    0.000    0.909    0.000    0.545    0.000    1.273 
#    0.000    0.727    0.000   10.545    0.000    0.000 
#
# Total GULP energy -490176.977174 kJ/mol
# GULP energy per Si atom -5570.192922 kJ/mol
# Density = 1.740160 g / cm^3
# Si number density = 17.441292 Si / 1000 Ang^3
#
#
#
# Elastic Constant Matrix: (Units=GPa)
#
#
# Indices 1 2 3 4 5 6 
#
# 1 68.4847 39.8521 18.9476 0.0000 0.0000 0.0000
# 2 39.8521 68.4847 18.9476 0.0000 0.0000 0.0000
# 3 18.9476 18.9476 84.4450 0.0000 0.0000 0.0000
# 4 0.0000 0.0000 0.0000 13.7845 0.0000 0.0000
# 5 0.0000 0.0000 0.0000 0.0000 13.7845 0.0000
# 6 0.0000 0.0000 0.0000 0.0000 0.0000 41.5823
#
#
#
# Elastic Compliance Matrix: (Units=1/GPa)
#
#
# Indices 1 2 3 4 5 6 
#
# 1 0.022471 -0.012454 -0.002248 0.000000 0.000000 0.000000
# 2 -0.012454 0.022471 -0.002248 0.000000 0.000000 0.000000
# 3 -0.002248 -0.002248 0.012851 0.000000 0.000000 0.000000
# 4 0.000000 0.000000 0.000000 0.072546 0.000000 0.000000
# 5 0.000000 0.000000 0.000000 0.000000 0.072546 0.000000
# 6 0.000000 0.000000 0.000000 0.000000 0.000000 0.024049
#
#
# Mechanical properties :
#
#
# Convention : Reuss Voigt Hill
#
# Bulk Modulus (GPa) = 41.85183 41.87880 41.86532
# Shear Modulus (GPa) = 18.60151 23.40806 21.00478
#
# Velocity S-wave (km/s) = 3.26931 3.66745 3.47409
# Velocity P-wave (km/s) = 6.18863 6.48051 6.33625
#
# Compressibility (1/GPa) = 0.02389382
#
# Stress axis : x y z
#
# Youngs Moduli (GPa) = 44.50194 44.50194 77.81734
#
# Poissons Ratio (x) = 0.55424 0.17490
# Poissons Ratio (y) = 0.55424 0.17490
# Poissons Ratio (z) = 0.10002 0.10002
#
# Static dielectric constant tensor:
#      x y z
#    x 1.633220 0.000000 0.000000 
#    y 0.000000 1.633220 0.000000 
#    z 0.000000 0.000000 1.642420 
# 
# From -- ./inp_files/4362.got.cif
#   From: 2010.05.17/outbox.cif.g08.bks.cpg/sg127_3_cif.got.tgz:4362.got - 2010.05.20 12:03:00.
