data_PCOD9564839
_publ_section_title
;
Structure prediction by ZEFSAII (Michael W. Deem and Ramdas Pophale) SiO2 
 PCOD9564839
Probable space group: P 4/M N C
;
_chemical_formula_sum "Si O2"
_cell_formula_units_Z 112
_cell_length_a 14.803501
_cell_length_b 14.803501
_cell_length_c 27.309310
_cell_angle_alpha 90.000000
_cell_angle_beta 90.000000
_cell_angle_gamma 90.000000
_cell_volume 5984.661650
_symmetry_space_group_name_H-M "P 4/M N C"
_symmetry_group_IT_number 128
_symmetry_cell_setting 'tetragonal'
loop_
_space_group_symop_operation_xyz
x,y,z
-y,x,z
-x,-y,z
y,-x,z
1/2+x,1/2-y,1/2-z
1/2-x,1/2+y,1/2-z
1/2+y,1/2+x,1/2-z
1/2-y,1/2-x,1/2-z
-x,-y,-z
y,-x,-z
x,y,-z
-y,x,-z
1/2-x,1/2+y,1/2+z
1/2+x,1/2-y,1/2+z
1/2-y,1/2-x,1/2+z
1/2+y,1/2+x,1/2+z
loop_
_atom_site_type_symbol
_atom_site_label
_atom_site_fract_x
_atom_site_fract_y
_atom_site_fract_z
Si Si1 0.436730 0.922784 0.556468
Si Si2 0.316280 0.670917 0.396321
Si Si3 0.060199 0.241515 0.593517
Si Si4 0.728496 0.353531 0.056961
Si Si5 0.725773 0.505234 0.446106
Si Si6 0.870748 0.083359 0.801619
Si Si7 0.435015 0.638227 0.192080
O O1 0.411563 0.945909 0.500000
O O2 0.344864 0.911134 0.585750
O O3 0.496173 0.833464 0.554652
O O4 0.500000 0.000000 0.577317
O O5 0.221030 0.716601 0.410829
O O6 0.391816 0.703033 0.434590
O O7 0.309189 0.564073 0.406372
O O8 0.361419 0.683503 0.342957
O O9 0.124514 0.179372 0.560015
O O10 0.081301 0.206843 0.648142
O O11 0.954738 0.235641 0.578494
O O12 0.758745 0.351468 0.000000
O O13 0.692429 0.479560 0.500000
O O14 0.832046 0.092942 0.746622
O O15 0.974452 0.119202 0.805718
O O16 0.385225 0.541608 0.187312
#
# Coordination Sequence:
#
# PCOD9564839 Si02
#       7
#    16  16  16  16  16  16  16
#     4  10  21  39  59  82 119 171 215 242 293 379
#     4  12  22  38  59  88 122 163 207 260 313 369
#     4  12  22  39  63  89 122 164 206 263 323 376
#     4  12  25  39  58  89 129 166 211 262 314 386
#     4  11  22  35  55  84 123 161 198 247 306 369
#     4   9  18  36  62  89 116 152 198 254 315 379
#     4   9  18  36  62  91 119 150 192 254 324 383
#
# _framework density 18.714507000000001
#
# number of rings (size 3 to 8) (size 9 to 14) (size 15 to 20)
#    0.000    1.286    4.286    4.286    0.000    1.714 
#    0.000    2.143    0.000    0.000    0.000    1.000 
#    0.000    0.000    0.000    0.000    0.000    0.000 
#
# Total GULP energy -624458.559161 kJ/mol
# GULP energy per Si atom -5575.522850 kJ/mol
# Density = 1.867191 g / cm^3
# Si number density = 18.714507 Si / 1000 Ang^3
#
#
#
# Elastic Constant Matrix: (Units=GPa)
#
#
# Indices 1 2 3 4 5 6 
#
# 1 57.8248 -4.6165 24.3349 0.0000 0.0000 0.0000
# 2 -4.6165 57.8248 24.3349 0.0000 0.0000 0.0000
# 3 24.3349 24.3349 146.0145 0.0000 0.0000 0.0000
# 4 0.0000 0.0000 0.0000 25.3213 0.0000 0.0000
# 5 0.0000 0.0000 0.0000 0.0000 25.3213 0.0000
# 6 0.0000 0.0000 0.0000 0.0000 0.0000 26.3581
#
#
#
# Elastic Compliance Matrix: (Units=1/GPa)
#
#
# Indices 1 2 3 4 5 6 
#
# 1 0.019095 0.003080 -0.003696 0.000000 0.000000 0.000000
# 2 0.003080 0.019095 -0.003696 0.000000 0.000000 0.000000
# 3 -0.003696 -0.003696 0.008080 0.000000 0.000000 0.000000
# 4 0.000000 0.000000 0.000000 0.039493 0.000000 0.000000
# 5 0.000000 0.000000 0.000000 0.000000 0.039493 0.000000
# 6 0.000000 0.000000 0.000000 0.000000 0.000000 0.037939
#
#
# Mechanical properties :
#
#
# Convention : Reuss Voigt Hill
#
# Bulk Modulus (GPa) = 26.56260 38.86339 32.71300
# Shear Modulus (GPa) = 27.11997 29.90751 28.51374
#
# Velocity S-wave (km/s) = 3.81089 4.00195 3.90759
# Velocity P-wave (km/s) = 5.79554 6.49351 6.15443
#
# Compressibility (1/GPa) = 0.03764691
#
# Stress axis : x y z
#
# Youngs Moduli (GPa) = 52.37043 52.37043 123.75534
#
# Poissons Ratio (x) = -0.16128 0.45735
# Poissons Ratio (y) = -0.16128 0.45735
# Poissons Ratio (z) = 0.19354 0.19354
#
# Static dielectric constant tensor:
#      x y z
#    x 1.662650 0.000000 0.000000 
#    y 0.000000 1.662650 0.000000 
#    z 0.000000 0.000000 1.680210 
# 
# From -- ./inp_files/7379.got.cif
#   From: 2010.05.17/outbox.cif.g08.bks.cpg/sg128_4_cif.got.tgz:7379.got - 2010.05.20 12:07:25.
