data_PCOD9564629
_publ_section_title
;
Structure prediction by ZEFSAII (Michael W. Deem and Ramdas Pophale) SiO2 
 PCOD9564629
Probable space group: P 4/M N C
;
_chemical_formula_sum "Si O2"
_cell_formula_units_Z 128
_cell_length_a 16.209289
_cell_length_b 16.209289
_cell_length_c 24.512908
_cell_angle_alpha 90.000000
_cell_angle_beta 90.000000
_cell_angle_gamma 90.000000
_cell_volume 6440.547184
_symmetry_space_group_name_H-M "P 4/M N C"
_symmetry_group_IT_number 128
_symmetry_cell_setting 'tetragonal'
loop_
_space_group_symop_operation_xyz
x,y,z
-y,x,z
-x,-y,z
y,-x,z
1/2+x,1/2-y,1/2-z
1/2-x,1/2+y,1/2-z
1/2+y,1/2+x,1/2-z
1/2-y,1/2-x,1/2-z
-x,-y,-z
y,-x,-z
x,y,-z
-y,x,-z
1/2-x,1/2+y,1/2+z
1/2+x,1/2-y,1/2+z
1/2-y,1/2-x,1/2+z
1/2+y,1/2+x,1/2+z
loop_
_atom_site_type_symbol
_atom_site_label
_atom_site_fract_x
_atom_site_fract_y
_atom_site_fract_z
Si Si1 0.698313 0.338500 0.250469
Si Si2 0.812349 0.139936 0.564159
Si Si3 0.433113 0.208495 0.339762
Si Si4 0.494897 0.829608 0.062783
Si Si5 0.429894 0.795029 0.736436
Si Si6 0.426971 0.385426 0.157766
Si Si7 0.193747 0.679755 0.437471
Si Si8 0.979412 0.404508 0.676355
O O1 0.770503 0.270503 0.250000
O O2 0.722173 0.399806 0.298867
O O3 0.610284 0.294214 0.258767
O O4 0.685177 0.385976 0.194036
O O5 0.827923 0.145263 0.500000
O O6 0.748704 0.064821 0.573314
O O7 0.897385 0.128360 0.596128
O O8 0.775799 0.229479 0.581389
O O9 0.528830 0.198847 0.323177
O O10 0.395482 0.222056 0.399412
O O11 0.397426 0.118815 0.324917
O O12 0.593425 0.813192 0.063190
O O13 0.484312 0.888310 0.115585
O O14 0.475994 0.858536 0.000000
O O15 0.353855 0.853855 0.750000
O O16 0.491480 0.834228 0.781350
O O17 0.523413 0.390766 0.168792
O O18 0.218674 0.666436 0.500000
O O19 0.000000 0.500000 0.691243
#
# Coordination Sequence:
#
# PCOD9564629 Si02
#       8
#    16  16  16  16  16  16  16  16
#     4  11  23  37  56  83 111 147 191 244 293 346
#     4  10  19  33  54  80 113 153 196 240 284 340
#     4  11  22  38  61  83 111 154 196 239 297 354
#     4   9  19  34  53  81 115 151 193 242 291 342
#     4  11  22  36  56  83 117 147 194 243 287 347
#     4  11  23  37  54  79 116 156 193 239 290 346
#     4   9  19  36  58  82 111 151 194 238 293 352
#     4  11  21  35  57  82 113 157 197 239 290 350
#
# _framework density 19.874088
#
# number of rings (size 3 to 8) (size 9 to 14) (size 15 to 20)
#    0.000    1.625    1.250    4.125    0.000    5.750 
#    0.000    0.625    0.000    0.750    0.000    0.000 
#    0.000    0.000    0.000    3.875    0.000    0.000 
#
# Total GULP energy -713537.637856 kJ/mol
# GULP energy per Si atom -5574.512796 kJ/mol
# Density = 1.982885 g / cm^3
# Si number density = 19.874088 Si / 1000 Ang^3
#
#
#
# Elastic Constant Matrix: (Units=GPa)
#
#
# Indices 1 2 3 4 5 6 
#
# 1 27.9158 53.0461 36.3590 0.0000 0.0000 0.0000
# 2 53.0461 27.9158 36.3590 0.0000 0.0000 0.0000
# 3 36.3590 36.3590 95.9645 0.0000 0.0000 0.0000
# 4 0.0000 0.0000 0.0000 26.6845 0.0000 0.0000
# 5 0.0000 0.0000 0.0000 0.0000 26.6845 0.0000
# 6 0.0000 0.0000 0.0000 0.0000 0.0000 29.9594
#
#
#
# Elastic Compliance Matrix: (Units=1/GPa)
#
#
# Indices 1 2 3 4 5 6 
#
# 1 -0.010535 0.029258 -0.007094 0.000000 0.000000 0.000000
# 2 0.029258 -0.010535 -0.007094 0.000000 0.000000 0.000000
# 3 -0.007094 -0.007094 0.015796 0.000000 0.000000 0.000000
# 4 0.000000 0.000000 0.000000 0.037475 0.000000 0.000000
# 5 0.000000 0.000000 0.000000 0.000000 0.037475 0.000000
# 6 0.000000 0.000000 0.000000 0.000000 0.000000 0.033379
#
#
# Mechanical properties :
#
#
# Convention : Reuss Voigt Hill
#
# Bulk Modulus (GPa) = 40.21433 44.81380 42.51406
# Shear Modulus (GPa) = 61.57422 18.40114 39.98768
#
# Velocity S-wave (km/s) = 5.57220 3.04614 4.49046
# Velocity P-wave (km/s) = 7.85352 5.91352 6.95153
#
# Compressibility (1/GPa) = 0.02486676
#
# Stress axis : x y z
#
# Youngs Moduli (GPa) = -94.92284 -94.92284 63.30776
#
# Poissons Ratio (x) = 2.77723 0.44909
# Poissons Ratio (y) = 2.77723 0.44909
# Poissons Ratio (z) = -0.67336 -0.67336
#
# Static dielectric constant tensor:
#      x y z
#    x 1.762270 0.000000 0.000000 
#    y 0.000000 1.762270 0.000000 
#    z 0.000000 0.000000 1.744820 
# 
# From -- ./inp_files/6608.got.cif
#   From: 2010.05.17/outbox.cif.g08.bks.cpg/sg128_4_cif.got.tgz:6608.got - 2010.05.20 12:07:25.
