data_PCOD9564565
_publ_section_title
;
Structure prediction by ZEFSAII (Michael W. Deem and Ramdas Pophale) SiO2 
 PCOD9564565
Probable space group: P 4/M N C
;
_chemical_formula_sum "Si O2"
_cell_formula_units_Z 104
_cell_length_a 16.313974
_cell_length_b 16.313974
_cell_length_c 18.533318
_cell_angle_alpha 90.000000
_cell_angle_beta 90.000000
_cell_angle_gamma 90.000000
_cell_volume 4932.563776
_symmetry_space_group_name_H-M "P 4/M N C"
_symmetry_group_IT_number 128
_symmetry_cell_setting 'tetragonal'
loop_
_space_group_symop_operation_xyz
x,y,z
-y,x,z
-x,-y,z
y,-x,z
1/2+x,1/2-y,1/2-z
1/2-x,1/2+y,1/2-z
1/2+y,1/2+x,1/2-z
1/2-y,1/2-x,1/2-z
-x,-y,-z
y,-x,-z
x,y,-z
-y,x,-z
1/2-x,1/2+y,1/2+z
1/2+x,1/2-y,1/2+z
1/2-y,1/2-x,1/2+z
1/2+y,1/2+x,1/2+z
loop_
_atom_site_type_symbol
_atom_site_label
_atom_site_fract_x
_atom_site_fract_y
_atom_site_fract_z
Si Si1 0.938435 0.880549 0.702980
Si Si2 0.363063 0.506327 0.415963
Si Si3 0.742181 0.060558 0.194402
Si Si4 0.000000 0.500000 0.377134
Si Si5 0.367453 0.875861 0.076941
Si Si6 0.162389 0.566641 0.199634
Si Si7 0.004785 0.227322 0.582227
O O1 0.902182 0.810705 0.753441
O O2 0.948907 0.848674 0.620938
O O3 0.034569 0.895056 0.719731
O O4 0.418017 0.424603 0.403776
O O5 0.338977 0.508677 0.500000
O O6 0.287544 0.499391 0.362424
O O7 0.690663 0.121805 0.145753
O O8 0.687004 0.007071 0.247276
O O9 0.073370 0.455161 0.419009
O O10 0.041714 0.574471 0.333634
O O11 0.427346 0.798695 0.079277
O O12 0.322480 0.875745 0.000000
O O13 0.145894 0.645894 0.250000
O O14 0.231958 0.563535 0.136370
O O15 0.977209 0.210806 0.500000
#
# Coordination Sequence:
#
# PCOD9564565 Si02
#       7
#    16  16  16   8  16  16  16
#     4  10  22  40  65  91 108 140 200 263 310 345
#     4   9  18  34  56  79 107 145 190 242 292 338
#     4  11  20  31  55  83 119 147 186 241 289 350
#     4  10  18  32  52  76 111 151 204 248 260 308
#     4  10  20  33  55  86 120 161 198 231 280 344
#     4  10  19  31  51  79 112 146 185 230 277 325
#     4   9  21  38  59  85 117 151 190 242 297 349
#
# _framework density 21.084368999999999
#
# number of rings (size 3 to 8) (size 9 to 14) (size 15 to 20)
#    0.000    2.154    1.538    2.308    2.154    4.308 
#    0.000    0.769   20.308    0.000    0.000    0.000 
#    0.000    0.000    0.000    0.000    0.000    0.000 
#
# Total GULP energy -580013.909157 kJ/mol
# GULP energy per Si atom -5577.056819 kJ/mol
# Density = 2.103638 g / cm^3
# Si number density = 21.084369 Si / 1000 Ang^3
#
#
#
# Elastic Constant Matrix: (Units=GPa)
#
#
# Indices 1 2 3 4 5 6 
#
# 1 35.3346 -17.8323 -1.5292 0.0000 0.0000 0.0000
# 2 -17.8323 35.3346 -1.5292 0.0000 0.0000 0.0000
# 3 -1.5292 -1.5292 102.6850 0.0000 0.0000 0.0000
# 4 0.0000 0.0000 0.0000 11.8369 0.0000 0.0000
# 5 0.0000 0.0000 0.0000 0.0000 11.8369 0.0000
# 6 0.0000 0.0000 0.0000 0.0000 0.0000 4.7146
#
#
#
# Elastic Compliance Matrix: (Units=1/GPa)
#
#
# Indices 1 2 3 4 5 6 
#
# 1 0.038046 0.019238 0.000853 0.000000 0.000000 0.000000
# 2 0.019238 0.038046 0.000853 0.000000 0.000000 0.000000
# 3 0.000853 0.000853 0.009764 0.000000 0.000000 0.000000
# 4 0.000000 0.000000 0.000000 0.084482 0.000000 0.000000
# 5 0.000000 0.000000 0.000000 0.000000 0.084482 0.000000
# 6 0.000000 0.000000 0.000000 0.000000 0.000000 0.212107
#
#
# Mechanical properties :
#
#
# Convention : Reuss Voigt Hill
#
# Bulk Modulus (GPa) = 7.82812 14.61923 11.22367
# Shear Modulus (GPa) = 10.69242 18.62733 14.65988
#
# Velocity S-wave (km/s) = 2.25439 2.97554 2.63971
# Velocity P-wave (km/s) = 3.23993 4.33057 3.82433
#
# Compressibility (1/GPa) = 0.12774460
#
# Stress axis : x y z
#
# Youngs Moduli (GPa) = 26.28367 26.28367 102.41781
#
# Poissons Ratio (x) = -0.50564 -0.08737
# Poissons Ratio (y) = -0.50564 -0.08737
# Poissons Ratio (z) = -0.02242 -0.02242
#
# Static dielectric constant tensor:
#      x y z
#    x 1.772210 0.000000 0.000000 
#    y 0.000000 1.772210 0.000000 
#    z 0.000000 0.000000 1.839420 
# 
# From -- ./inp_files/4864.got.cif
#   From: 2010.05.17/outbox.cif.g08.bks.cpg/sg128_3_cif.got.tgz:4864.got - 2010.05.20 12:07:25.
