data_PCOD9564358
_publ_section_title
;
Structure prediction by ZEFSAII (Michael W. Deem and Ramdas Pophale) SiO2 
 PCOD9564358
Probable space group: P 4/M B M
;
_chemical_formula_sum "Si O2"
_cell_formula_units_Z 96
_cell_length_a 14.563017
_cell_length_b 14.563017
_cell_length_c 22.817409
_cell_angle_alpha 90.000000
_cell_angle_beta 90.000000
_cell_angle_gamma 90.000000
_cell_volume 4839.149509
_symmetry_space_group_name_H-M "P 4/M B M"
_symmetry_group_IT_number 127
_symmetry_cell_setting 'tetragonal'
loop_
_space_group_symop_operation_xyz
x,y,z
-y,x,z
-x,-y,z
y,-x,z
1/2+x,1/2-y,-z
1/2-x,1/2+y,-z
1/2+y,1/2+x,-z
1/2-y,1/2-x,-z
-x,-y,-z
y,-x,-z
x,y,-z
-y,x,-z
1/2-x,1/2+y,z
1/2+x,1/2-y,z
1/2-y,1/2-x,z
1/2+y,1/2+x,z
loop_
_atom_site_type_symbol
_atom_site_label
_atom_site_fract_x
_atom_site_fract_y
_atom_site_fract_z
Si Si1 0.609680 0.609364 0.435823
Si Si2 0.956484 0.851676 0.220366
Si Si3 0.106351 0.242253 0.660957
Si Si4 0.721184 0.064609 0.109865
Si Si5 0.078694 0.578694 0.932382
Si Si6 0.944534 0.854902 0.000000
Si Si7 0.151042 0.505351 0.565671
O O1 0.500881 0.621754 0.432172
O O2 0.642234 0.640498 0.500000
O O3 0.666355 0.650423 0.382497
O O4 0.937629 0.805863 0.283140
O O5 0.938286 0.778070 0.169655
O O6 0.059859 0.890261 0.215074
O O7 0.181809 0.318192 0.677631
O O8 0.029843 0.290587 0.620073
O O9 0.647209 0.147209 0.109318
O O10 0.664425 0.970059 0.098853
O O11 0.792923 0.074992 0.056726
O O12 0.000000 0.500000 0.934540
O O13 0.101871 0.601871 0.000000
O O14 0.051391 0.885942 0.000000
O O15 0.193399 0.504746 0.500000
O O16 0.069676 0.430325 0.562591
O O17 0.103343 0.603343 0.574780
#
# Coordination Sequence:
#
# PCOD9564358 Si02
#       7
#    16  16  16  16   8   8  16
#     4   9  18  34  56  80 108 149 198 244 305 385
#     4  11  25  47  66  83 118 168 213 258 317 374
#     4  11  21  35  57  86 115 149 199 257 312 368
#     4  11  22  43  68 100 134 166 213 263 310 365
#     4   9  18  38  68  98 138 174 193 237 313 374
#     4  11  23  41  64  97 142 185 218 253 307 362
#     4   8  15  30  52  78 112 153 190 232 300 377
#
# _framework density 19.838197000000001
#
# number of rings (size 3 to 8) (size 9 to 14) (size 15 to 20)
#    0.000    2.000    0.833    4.250    0.000    3.667 
#   10.500    2.500    0.000    1.000    0.000    0.000 
#    0.000    0.000    0.000    0.000    0.000    0.000 
#
# Total GULP energy -536081.350428 kJ/mol
# GULP energy per Si atom -5584.180734 kJ/mol
# Density = 1.979304 g / cm^3
# Si number density = 19.838197 Si / 1000 Ang^3
#
#
#
# Elastic Constant Matrix: (Units=GPa)
#
#
# Indices 1 2 3 4 5 6 
#
# 1 110.1895 50.1549 62.4165 0.0000 0.0000 0.0000
# 2 50.1549 110.1895 62.4165 0.0000 0.0000 0.0000
# 3 62.4165 62.4165 154.4043 0.0000 0.0000 0.0000
# 4 0.0000 0.0000 0.0000 21.5119 0.0000 0.0000
# 5 0.0000 0.0000 0.0000 0.0000 21.5119 0.0000
# 6 0.0000 0.0000 0.0000 0.0000 0.0000 20.9421
#
#
#
# Elastic Compliance Matrix: (Units=1/GPa)
#
#
# Indices 1 2 3 4 5 6 
#
# 1 0.012879 -0.003778 -0.003679 0.000000 0.000000 0.000000
# 2 -0.003778 0.012879 -0.003679 0.000000 0.000000 0.000000
# 3 -0.003679 -0.003679 0.009451 0.000000 0.000000 0.000000
# 4 0.000000 0.000000 0.000000 0.046486 0.000000 0.000000
# 5 0.000000 0.000000 0.000000 0.000000 0.046486 0.000000
# 6 0.000000 0.000000 0.000000 0.000000 0.000000 0.047751
#
#
# Mechanical properties :
#
#
# Convention : Reuss Voigt Hill
#
# Bulk Modulus (GPa) = 77.29944 80.52878 78.91411
# Shear Modulus (GPa) = 24.68952 26.11288 25.40120
#
# Velocity S-wave (km/s) = 3.53164 3.63201 3.58218
# Velocity P-wave (km/s) = 7.46187 7.63345 7.54815
#
# Compressibility (1/GPa) = 0.01293670
#
# Stress axis : x y z
#
# Youngs Moduli (GPa) = 77.64654 77.64654 105.81117
#
# Poissons Ratio (x) = 0.29336 0.38927
# Poissons Ratio (y) = 0.29336 0.38927
# Poissons Ratio (z) = 0.28565 0.28565
#
# Static dielectric constant tensor:
#      x y z
#    x 1.721040 0.000000 0.000000 
#    y 0.000000 1.721040 0.000000 
#    z 0.000000 0.000000 1.668610 
# 
# From -- ./inp_files/6136.got.cif
#   From: 2010.05.17/outbox.cif.g08.bks.cpg/sg127_4_cif.got.tgz:6136.got - 2010.05.20 12:03:00.
