data_PCOD9564820
_publ_section_title
;
Structure prediction by ZEFSAII (Michael W. Deem and Ramdas Pophale) SiO2 
 PCOD9564820
Probable space group: P 4/M N C
;
_chemical_formula_sum "Si O2"
_cell_formula_units_Z 88
_cell_length_a 16.610998
_cell_length_b 16.610998
_cell_length_c 16.466760
_cell_angle_alpha 90.000000
_cell_angle_beta 90.000000
_cell_angle_gamma 90.000000
_cell_volume 4543.594945
_symmetry_space_group_name_H-M "P 4/M N C"
_symmetry_group_IT_number 128
_symmetry_cell_setting 'tetragonal'
loop_
_space_group_symop_operation_xyz
x,y,z
-y,x,z
-x,-y,z
y,-x,z
1/2+x,1/2-y,1/2-z
1/2-x,1/2+y,1/2-z
1/2+y,1/2+x,1/2-z
1/2-y,1/2-x,1/2-z
-x,-y,-z
y,-x,-z
x,y,-z
-y,x,-z
1/2-x,1/2+y,1/2+z
1/2+x,1/2-y,1/2+z
1/2-y,1/2-x,1/2+z
1/2+y,1/2+x,1/2+z
loop_
_atom_site_type_symbol
_atom_site_label
_atom_site_fract_x
_atom_site_fract_y
_atom_site_fract_z
Si Si1 0.633376 0.497703 0.000000
Si Si2 0.230381 0.245899 0.405524
Si Si3 0.608926 0.220966 0.306515
Si Si4 0.659449 0.891288 0.340006
Si Si5 0.495554 0.906638 0.407212
Si Si6 0.740873 0.545606 0.146003
O O1 0.579028 0.576917 0.000000
O O2 0.682356 0.500402 0.083691
O O3 0.248317 0.238408 0.500000
O O4 0.263778 0.329043 0.367340
O O5 0.267612 0.169541 0.358943
O O6 0.133517 0.251087 0.394095
O O7 0.666912 0.166912 0.250000
O O8 0.554772 0.156584 0.354333
O O9 0.562280 0.276870 0.241517
O O10 0.626800 0.873201 0.250000
O O11 0.587129 0.876238 0.401985
O O12 0.684442 0.984448 0.348995
O O13 0.465276 0.908203 0.500000
O O14 0.500000 0.000000 0.377774
#
# Coordination Sequence:
#
# PCOD9564820 Si02
#       6
#     8  16  16  16  16  16
#     4  11  24  40  62  90 121 158 208 266 323 390
#     4  11  23  39  62  91 124 167 213 261 320 383
#     4  10  21  38  58  81 118 158 204 249 311 374
#     4  12  24  39  62  92 126 168 216 262 310 389
#     4  11  23  37  58  88 124 165 209 257 311 374
#     4  11  22  38  60  85 122 162 202 259 317 373
#
# _framework density 19.367923999999999
#
# number of rings (size 3 to 8) (size 9 to 14) (size 15 to 20)
#    0.000    1.000    2.727    6.000    2.545    1.455 
#    0.000    0.000    0.000    0.000    0.000    0.000 
#    0.000    0.000    0.000   11.273    0.000    0.000 
#
# Total GULP energy -490808.518979 kJ/mol
# GULP energy per Si atom -5577.369534 kJ/mol
# Density = 1.932384 g / cm^3
# Si number density = 19.367924 Si / 1000 Ang^3
#
#
#
# Elastic Constant Matrix: (Units=GPa)
#
#
# Indices 1 2 3 4 5 6 
#
# 1 54.6613 16.9360 15.5027 0.0000 0.0000 0.0000
# 2 16.9360 54.6609 15.5027 0.0000 0.0000 0.0000
# 3 15.5027 15.5027 89.7512 0.0000 0.0000 0.0000
# 4 0.0000 0.0000 0.0000 23.7381 0.0000 0.0000
# 5 0.0000 0.0000 0.0000 0.0000 23.7378 0.0000
# 6 0.0000 0.0000 0.0000 0.0000 0.0000 56.2223
#
#
#
# Elastic Compliance Matrix: (Units=1/GPa)
#
#
# Indices 1 2 3 4 5 6 
#
# 1 0.020802 -0.005706 -0.002608 0.000000 0.000000 0.000000
# 2 -0.005706 0.020802 -0.002608 0.000000 0.000000 0.000000
# 3 -0.002608 -0.002608 0.012043 0.000000 0.000000 0.000000
# 4 0.000000 0.000000 0.000000 0.042126 0.000000 0.000000
# 5 0.000000 0.000000 0.000000 0.000000 0.042127 0.000000
# 6 0.000000 0.000000 0.000000 0.000000 0.000000 0.017787
#
#
# Mechanical properties :
#
#
# Convention : Reuss Voigt Hill
#
# Bulk Modulus (GPa) = 31.44165 32.77293 32.10729
# Shear Modulus (GPa) = 26.57745 30.81512 28.69628
#
# Velocity S-wave (km/s) = 3.70840 3.99311 3.85338
# Velocity P-wave (km/s) = 5.88263 6.18206 6.03421
#
# Compressibility (1/GPa) = 0.03180495
#
# Stress axis : x y z
#
# Youngs Moduli (GPa) = 48.07273 48.07231 83.03769
#
# Poissons Ratio (x) = 0.27428 0.21653
# Poissons Ratio (y) = 0.27429 0.21653
# Poissons Ratio (z) = 0.12535 0.12535
#
# Static dielectric constant tensor:
#      x y z
#    x 1.708820 0.000000 0.000000 
#    y 0.000000 1.708820 0.000000 
#    z 0.000000 0.000000 1.730190 
# 
# From -- ./inp_files/3814.got.cif
#   From: 2010.05.17/outbox.cif.g08.bks.cpg/sg128_2_cif.got.tgz:3814.got - 2010.05.20 12:07:25.
