data_PCOD9564171
_publ_section_title
;
Structure prediction by ZEFSAII (Michael W. Deem and Ramdas Pophale) SiO2 
 PCOD9564171
Probable space group: P 4/M B M
;
_chemical_formula_sum "Si O2"
_cell_formula_units_Z 88
_cell_length_a 16.908180
_cell_length_b 16.908180
_cell_length_c 16.439810
_cell_angle_alpha 90.000000
_cell_angle_beta 90.000000
_cell_angle_gamma 90.000000
_cell_volume 4699.920579
_symmetry_space_group_name_H-M "P 4/M B M"
_symmetry_group_IT_number 127
_symmetry_cell_setting 'tetragonal'
loop_
_space_group_symop_operation_xyz
x,y,z
-y,x,z
-x,-y,z
y,-x,z
1/2+x,1/2-y,-z
1/2-x,1/2+y,-z
1/2+y,1/2+x,-z
1/2-y,1/2-x,-z
-x,-y,-z
y,-x,-z
x,y,-z
-y,x,-z
1/2-x,1/2+y,z
1/2+x,1/2-y,z
1/2-y,1/2-x,z
1/2+y,1/2+x,z
loop_
_atom_site_type_symbol
_atom_site_label
_atom_site_fract_x
_atom_site_fract_y
_atom_site_fract_z
Si Si1 0.740142 0.885127 0.296388
Si Si2 0.446621 0.382481 0.402758
Si Si3 0.326570 0.955990 0.322333
Si Si4 0.368657 0.002696 0.500000
Si Si5 0.852883 0.771532 0.207363
Si Si6 0.878196 0.047375 0.903270
O O1 0.679907 0.820094 0.330954
O O2 0.806739 0.913038 0.358838
O O3 0.789935 0.840301 0.227216
O O4 0.689082 0.962586 0.274296
O O5 0.537775 0.399357 0.380160
O O6 0.442757 0.374523 0.500000
O O7 0.410324 0.910324 0.311163
O O8 0.322578 0.982151 0.417083
O O9 0.261096 0.894523 0.289679
O O10 0.440521 0.940521 0.500000
O O11 0.410952 0.089049 0.500000
O O12 0.802632 0.697369 0.174064
O O13 0.918598 0.806531 0.148343
O O14 0.957088 0.098444 0.884509
O O15 0.864231 0.052885 0.000000
#
# Coordination Sequence:
#
# PCOD9564171 Si02
#       6
#    16  16  16   8  16  16
#     4  11  22  34  51  76 105 137 177 228 282 330
#     4   9  19  36  54  70  93 130 176 221 270 332
#     4  10  21  37  54  73 103 144 189 235 279 333
#     4   9  18  34  54  72  94 133 187 235 270 309
#     4  10  21  36  53  79 113 146 179 221 278 333
#     4   9  18  34  59  88 113 140 177 220 267 329
#
# _framework density 18.72372
#
# number of rings (size 3 to 8) (size 9 to 14) (size 15 to 20)
#    0.000    2.273    0.000    3.818    1.273    1.818 
#    1.636    1.818    0.000    0.000    0.000    0.000 
#    0.000    0.000    0.000   50.000    0.000    0.000 
#
# Total GULP energy -490719.643051 kJ/mol
# GULP energy per Si atom -5576.359580 kJ/mol
# Density = 1.868110 g / cm^3
# Si number density = 18.723720 Si / 1000 Ang^3
#
#
#
# Elastic Constant Matrix: (Units=GPa)
#
#
# Indices 1 2 3 4 5 6 
#
# 1 85.6547 42.2419 33.5933 0.0000 0.0000 0.0000
# 2 42.2419 85.6547 33.5933 0.0000 0.0000 0.0000
# 3 33.5933 33.5933 39.2797 0.0000 0.0000 0.0000
# 4 0.0000 0.0000 0.0000 23.7149 0.0000 0.0000
# 5 0.0000 0.0000 0.0000 0.0000 23.7151 0.0000
# 6 0.0000 0.0000 0.0000 0.0000 0.0000 46.7680
#
#
#
# Elastic Compliance Matrix: (Units=1/GPa)
#
#
# Indices 1 2 3 4 5 6 
#
# 1 0.018616 -0.004419 -0.012142 0.000000 0.000000 0.000000
# 2 -0.004419 0.018616 -0.012142 0.000000 0.000000 0.000000
# 3 -0.012142 -0.012142 0.046227 0.000000 0.000000 0.000000
# 4 0.000000 0.000000 0.000000 0.042168 0.000000 0.000000
# 5 0.000000 0.000000 0.000000 0.000000 0.042167 0.000000
# 6 0.000000 0.000000 0.000000 0.000000 0.000000 0.021382
#
#
# Mechanical properties :
#
#
# Convention : Reuss Voigt Hill
#
# Bulk Modulus (GPa) = 38.38253 47.71625 43.04939
# Shear Modulus (GPa) = 19.58744 25.58362 22.58553
#
# Velocity S-wave (km/s) = 3.23790 3.70046 3.47688
# Velocity P-wave (km/s) = 5.87559 6.61797 6.25780
#
# Compressibility (1/GPa) = 0.02605352
#
# Stress axis : x y z
#
# Youngs Moduli (GPa) = 53.71739 53.71732 21.63245
#
# Poissons Ratio (x) = 0.23736 0.26266
# Poissons Ratio (y) = 0.23736 0.26266
# Poissons Ratio (z) = 0.65223 0.65223
#
# Static dielectric constant tensor:
#      x y z
#    x 1.677390 0.000000 0.000000 
#    y 0.000000 1.677390 0.000000 
#    z 0.000000 0.000000 1.632640 
# 
# From -- ./inp_files/4418.got.cif
#   From: 2010.05.17/outbox.cif.g08.bks.cpg/sg127_3_cif.got.tgz:4418.got - 2010.05.20 12:03:00.
