data_PCOD9564375
_publ_section_title
;
Structure prediction by ZEFSAII (Michael W. Deem and Ramdas Pophale) SiO2 
 PCOD9564375
Probable space group: P 4/M B M
;
_chemical_formula_sum "Si O2"
_cell_formula_units_Z 96
_cell_length_a 25.033229
_cell_length_b 25.033229
_cell_length_c 7.868236
_cell_angle_alpha 90.000000
_cell_angle_beta 90.000000
_cell_angle_gamma 90.000000
_cell_volume 4930.728869
_symmetry_space_group_name_H-M "P 4/M B M"
_symmetry_group_IT_number 127
_symmetry_cell_setting 'tetragonal'
loop_
_space_group_symop_operation_xyz
x,y,z
-y,x,z
-x,-y,z
y,-x,z
1/2+x,1/2-y,-z
1/2-x,1/2+y,-z
1/2+y,1/2+x,-z
1/2-y,1/2-x,-z
-x,-y,-z
y,-x,-z
x,y,-z
-y,x,-z
1/2-x,1/2+y,z
1/2+x,1/2-y,z
1/2-y,1/2-x,z
1/2+y,1/2+x,z
loop_
_atom_site_type_symbol
_atom_site_label
_atom_site_fract_x
_atom_site_fract_y
_atom_site_fract_z
Si Si1 0.354400 0.230398 0.294390
Si Si2 0.642765 0.941300 0.707431
Si Si3 0.558097 0.562537 0.296481
Si Si4 0.061998 0.352853 0.294284
Si Si5 0.647852 0.352564 0.800834
Si Si6 0.266482 0.851295 0.796507
O O1 0.353403 0.232516 0.500000
O O2 0.299466 0.200535 0.239550
O O3 0.402720 0.191392 0.242749
O O4 0.363516 0.289567 0.227857
O O5 0.642911 0.942340 0.500000
O O6 0.588469 0.911532 0.759703
O O7 0.648037 0.001532 0.768267
O O8 0.497316 0.573708 0.234447
O O9 0.554975 0.559368 0.500000
O O10 0.601377 0.608116 0.260699
O O11 0.061082 0.352446 0.500000
O O12 0.094465 0.405535 0.240093
O O13 0.097227 0.302806 0.237016
O O14 0.640710 0.292882 0.725341
O O15 0.637258 0.348885 0.000000
O O16 0.300102 0.800102 0.729308
O O17 0.262171 0.843962 0.000000
#
# Coordination Sequence:
#
# PCOD9564375 Si02
#       6
#    16  16  16  16  16  16
#     4   9  18  33  52  73 100 136 175 213 253 299
#     4   8  15  29  48  71 100 131 163 203 250 293
#     4   9  20  40  61  78 100 132 168 206 250 302
#     4   9  17  29  48  74  99 126 165 209 247 286
#     4  11  22  34  53  80 105 131 166 207 254 310
#     4   9  19  35  50  66  97 137 167 197 244 296
#
# _framework density 19.469736999999999
#
# number of rings (size 3 to 8) (size 9 to 14) (size 15 to 20)
#    0.000    2.833    0.000    2.500    0.000    4.667 
#    0.000   10.000    0.000    1.500    0.000    2.333 
#    0.000    0.000    0.000    0.000    0.000    0.000 
#
# Total GULP energy -535228.389638 kJ/mol
# GULP energy per Si atom -5575.295725 kJ/mol
# Density = 1.942542 g / cm^3
# Si number density = 19.469737 Si / 1000 Ang^3
#
#
#
# Elastic Constant Matrix: (Units=GPa)
#
#
# Indices 1 2 3 4 5 6 
#
# 1 171.4079 86.2837 5.0177 0.0000 0.0000 0.0000
# 2 86.2837 171.4079 5.0177 0.0000 0.0000 0.0000
# 3 5.0177 5.0177 17.6746 0.0000 0.0000 0.0000
# 4 0.0000 0.0000 0.0000 33.5932 0.0000 0.0000
# 5 0.0000 0.0000 0.0000 0.0000 33.5932 0.0000
# 6 0.0000 0.0000 0.0000 0.0000 0.0000 21.7439
#
#
#
# Elastic Compliance Matrix: (Units=1/GPa)
#
#
# Indices 1 2 3 4 5 6 
#
# 1 0.007836 -0.003912 -0.001114 0.000000 0.000000 0.000000
# 2 -0.003912 0.007836 -0.001114 0.000000 0.000000 0.000000
# 3 -0.001114 -0.001114 0.057211 0.000000 0.000000 0.000000
# 4 0.000000 0.000000 0.000000 0.029768 0.000000 0.000000
# 5 0.000000 0.000000 0.000000 0.000000 0.029768 0.000000
# 6 0.000000 0.000000 0.000000 0.000000 0.000000 0.045990
#
#
# Mechanical properties :
#
#
# Convention : Reuss Voigt Hill
#
# Bulk Modulus (GPa) = 16.50084 61.45873 38.97978
# Shear Modulus (GPa) = 23.70916 35.39745 29.55331
#
# Velocity S-wave (km/s) = 3.49341 4.26852 3.90026
# Velocity P-wave (km/s) = 4.97648 7.47853 6.35192
#
# Compressibility (1/GPa) = 0.06060299
#
# Stress axis : x y z
#
# Youngs Moduli (GPa) = 127.61992 127.61992 17.47916
#
# Poissons Ratio (x) = 0.49922 0.01947
# Poissons Ratio (y) = 0.49922 0.01947
# Poissons Ratio (z) = 0.14217 0.14217
#
# Static dielectric constant tensor:
#      x y z
#    x 1.679390 0.000000 0.000000 
#    y 0.000000 1.679390 0.000000 
#    z 0.000000 0.000000 1.710220 
# 
# From -- ./inp_files/1938.got.cif
#   From: 2010.05.17/outbox.cif.g08.bks.cpg/sg127_1_cif.got.tgz:1938.got - 2010.05.20 12:03:00.
