data_PCOD9564132
_publ_section_title
;
Structure prediction by ZEFSAII (Michael W. Deem and Ramdas Pophale) SiO2 
 PCOD9564132
Probable space group: P 4/M B M
;
_chemical_formula_sum "Si O2"
_cell_formula_units_Z 96
_cell_length_a 19.925048
_cell_length_b 19.925048
_cell_length_c 14.637263
_cell_angle_alpha 90.000000
_cell_angle_beta 90.000000
_cell_angle_gamma 90.000000
_cell_volume 5811.103744
_symmetry_space_group_name_H-M "P 4/M B M"
_symmetry_group_IT_number 127
_symmetry_cell_setting 'tetragonal'
loop_
_space_group_symop_operation_xyz
x,y,z
-y,x,z
-x,-y,z
y,-x,z
1/2+x,1/2-y,-z
1/2-x,1/2+y,-z
1/2+y,1/2+x,-z
1/2-y,1/2-x,-z
-x,-y,-z
y,-x,-z
x,y,-z
-y,x,-z
1/2-x,1/2+y,z
1/2+x,1/2-y,z
1/2-y,1/2-x,z
1/2+y,1/2+x,z
loop_
_atom_site_type_symbol
_atom_site_label
_atom_site_fract_x
_atom_site_fract_y
_atom_site_fract_z
Si Si1 0.111631 0.496302 0.895391
Si Si2 0.573610 0.668518 0.706923
Si Si3 0.175423 0.563017 0.730051
Si Si4 0.101172 0.051337 0.101540
Si Si5 0.330359 0.938519 0.608864
Si Si6 0.326728 0.432017 0.390370
O O1 0.053824 0.553824 0.893989
O O2 0.167228 0.521736 0.824978
O O3 0.072399 0.427601 0.869923
O O4 0.135196 0.490184 0.000000
O O5 0.582771 0.748547 0.707975
O O6 0.572233 0.644057 0.811569
O O7 0.629667 0.627795 0.651605
O O8 0.501953 0.653740 0.658545
O O9 0.126479 0.626479 0.732470
O O10 0.152297 0.509051 0.654899
O O11 0.028326 0.086555 0.107103
O O12 0.129338 0.065595 0.000000
O O13 0.336034 0.944517 0.500000
O O14 0.380212 0.880212 0.640402
O O15 0.252521 0.922396 0.628974
O O16 0.335799 0.436726 0.500000
#
# Coordination Sequence:
#
# PCOD9564132 Si02
#       6
#    16  16  16  16  16  16
#     4   8  14  27  48  72  98 128 162 202 249 300
#     4  11  20  34  53  74 105 138 171 214 259 310
#     4  10  21  33  49  77 107 134 171 217 264 309
#     4   9  17  31  52  77 102 130 168 210 250 297
#     4   9  19  36  55  74  99 134 175 216 259 312
#     4  10  21  35  52  76 103 134 173 215 260 310
#
# _framework density 16.520098000000001
#
# number of rings (size 3 to 8) (size 9 to 14) (size 15 to 20)
#    0.000    2.500    1.667    2.000    0.000    3.667 
#    0.000    1.667    0.000    0.000    0.000    0.000 
#    0.000    0.000    0.000    0.000    0.000    0.000 
#
# Total GULP energy -534975.735136 kJ/mol
# GULP energy per Si atom -5572.663908 kJ/mol
# Density = 1.648250 g / cm^3
# Si number density = 16.520098 Si / 1000 Ang^3
#
#
#
# Elastic Constant Matrix: (Units=GPa)
#
#
# Indices 1 2 3 4 5 6 
#
# 1 47.4941 39.0430 32.3570 0.0000 0.0000 0.0000
# 2 39.0430 47.4941 32.3570 0.0000 0.0000 0.0000
# 3 32.3570 32.3570 78.2539 0.0000 0.0000 0.0000
# 4 0.0000 0.0000 0.0000 24.9446 0.0000 0.0000
# 5 0.0000 0.0000 0.0000 0.0000 24.9446 0.0000
# 6 0.0000 0.0000 0.0000 0.0000 0.0000 25.4555
#
#
#
# Elastic Compliance Matrix: (Units=1/GPa)
#
#
# Indices 1 2 3 4 5 6 
#
# 1 0.067528 -0.050800 -0.006917 0.000000 0.000000 0.000000
# 2 -0.050800 0.067528 -0.006917 0.000000 0.000000 0.000000
# 3 -0.006917 -0.006917 0.018499 0.000000 0.000000 0.000000
# 4 0.000000 0.000000 0.000000 0.040089 0.000000 0.000000
# 5 0.000000 0.000000 0.000000 0.000000 0.040089 0.000000
# 6 0.000000 0.000000 0.000000 0.000000 0.000000 0.039284
#
#
# Mechanical properties :
#
#
# Convention : Reuss Voigt Hill
#
# Bulk Modulus (GPa) = 41.17269 42.30623 41.73946
# Shear Modulus (GPa) = 12.18378 19.70129 15.94253
#
# Velocity S-wave (km/s) = 2.71866 3.45710 3.10988
# Velocity P-wave (km/s) = 5.90184 6.44980 6.18190
#
# Compressibility (1/GPa) = 0.02428794
#
# Stress axis : x y z
#
# Youngs Moduli (GPa) = 14.80858 14.80858 54.05674
#
# Poissons Ratio (x) = 0.75228 0.37391
# Poissons Ratio (y) = 0.75228 0.37391
# Poissons Ratio (z) = 0.10243 0.10243
#
# Static dielectric constant tensor:
#      x y z
#    x 1.537730 0.000000 0.000000 
#    y 0.000000 1.537730 0.000000 
#    z 0.000000 0.000000 1.571950 
# 
# From -- ./inp_files/4547.got.cif
#   From: 2010.05.17/outbox.cif.g08.bks.cpg/sg127_3_cif.got.tgz:4547.got - 2010.05.20 12:03:00.
