data_PCOD9564277
_publ_section_title
;
Structure prediction by ZEFSAII (Michael W. Deem and Ramdas Pophale) SiO2 
 PCOD9564277
Probable space group: P 4/M B M
;
_chemical_formula_sum "Si O2"
_cell_formula_units_Z 72
_cell_length_a 13.811776
_cell_length_b 13.811776
_cell_length_c 20.480415
_cell_angle_alpha 90.000000
_cell_angle_beta 90.000000
_cell_angle_gamma 90.000000
_cell_volume 3906.949568
_symmetry_space_group_name_H-M "P 4/M B M"
_symmetry_group_IT_number 127
_symmetry_cell_setting 'tetragonal'
loop_
_space_group_symop_operation_xyz
x,y,z
-y,x,z
-x,-y,z
y,-x,z
1/2+x,1/2-y,-z
1/2-x,1/2+y,-z
1/2+y,1/2+x,-z
1/2-y,1/2-x,-z
-x,-y,-z
y,-x,-z
x,y,-z
-y,x,-z
1/2-x,1/2+y,z
1/2+x,1/2-y,z
1/2-y,1/2-x,z
1/2+y,1/2+x,z
loop_
_atom_site_type_symbol
_atom_site_label
_atom_site_fract_x
_atom_site_fract_y
_atom_site_fract_z
Si Si1 0.397762 0.627307 0.000000
Si Si2 0.839692 0.499548 0.329628
Si Si3 0.984203 0.840789 0.421908
Si Si4 0.083694 0.742553 0.804624
Si Si5 0.775393 0.118302 0.136737
O O1 0.369517 0.514782 0.000000
O O2 0.362782 0.678663 0.065883
O O3 0.913769 0.413769 0.350094
O O4 0.759140 0.522058 0.383469
O O5 0.784518 0.461045 0.265316
O O6 0.907190 0.592811 0.315203
O O7 0.982498 0.825630 0.500000
O O8 0.084184 0.897567 0.406046
O O9 0.153828 0.653828 0.824103
O O10 0.150993 0.837327 0.809621
O O11 0.994089 0.758708 0.852141
O O12 0.675919 0.175919 0.142958
#
# Coordination Sequence:
#
# PCOD9564277 Si02
#       5
#     8  16  16  16  16
#     4  11  21  38  60  85 118 150 190 249 300 342
#     4  10  22  39  59  86 120 155 194 243 295 348
#     4   9  20  39  60  86 120 157 199 244 288 340
#     4  10  23  40  59  88 120 152 194 242 294 352
#     4  11  22  39  63  86 116 157 196 239 291 353
#
# _framework density 18.428699000000002
#
# number of rings (size 3 to 8) (size 9 to 14) (size 15 to 20)
#    0.000    1.889    2.222    1.667    3.111    3.556 
#    0.000    3.889    0.000    1.333    0.000    0.000 
#    0.000    0.000    0.000    0.000    0.000    0.000 
#
# Total GULP energy -401831.946448 kJ/mol
# GULP energy per Si atom -5580.999256 kJ/mol
# Density = 1.838675 g / cm^3
# Si number density = 18.428699 Si / 1000 Ang^3
#
#
#
# Elastic Constant Matrix: (Units=GPa)
#
#
# Indices 1 2 3 4 5 6 
#
# 1 87.3304 21.8583 28.5357 0.0000 0.0000 0.0000
# 2 21.8583 87.3304 28.5357 0.0000 0.0000 0.0000
# 3 28.5357 28.5357 49.4861 0.0000 0.0000 0.0000
# 4 0.0000 0.0000 0.0000 25.8130 0.0000 0.0000
# 5 0.0000 0.0000 0.0000 0.0000 25.8130 0.0000
# 6 0.0000 0.0000 0.0000 0.0000 0.0000 11.6581
#
#
#
# Elastic Compliance Matrix: (Units=1/GPa)
#
#
# Indices 1 2 3 4 5 6 
#
# 1 0.014192 -0.001082 -0.007560 0.000000 0.000000 0.000000
# 2 -0.001082 0.014192 -0.007560 0.000000 0.000000 0.000000
# 3 -0.007560 -0.007560 0.028926 0.000000 0.000000 0.000000
# 4 0.000000 0.000000 0.000000 0.038740 0.000000 0.000000
# 5 0.000000 0.000000 0.000000 0.000000 0.038740 0.000000
# 6 0.000000 0.000000 0.000000 0.000000 0.000000 0.085777
#
#
# Mechanical properties :
#
#
# Convention : Reuss Voigt Hill
#
# Bulk Modulus (GPa) = 40.14918 42.44513 41.29715
# Shear Modulus (GPa) = 19.13716 22.33798 20.73757
#
# Velocity S-wave (km/s) = 3.22598 3.48534 3.35817
# Velocity P-wave (km/s) = 5.97574 6.26729 6.12325
#
# Compressibility (1/GPa) = 0.02490711
#
# Stress axis : x y z
#
# Youngs Moduli (GPa) = 70.46361 70.46361 34.57092
#
# Poissons Ratio (x) = 0.07624 0.26134
# Poissons Ratio (y) = 0.07624 0.26134
# Poissons Ratio (z) = 0.53268 0.53268
#
# Static dielectric constant tensor:
#      x y z
#    x 1.614300 0.000000 0.000000 
#    y 0.000000 1.614300 0.000000 
#    z 0.000000 0.000000 1.622090 
# 
# From -- ./inp_files/4939.got.cif
#   From: 2010.05.17/outbox.cif.g08.bks.cpg/sg127_3_cif.got.tgz:4939.got - 2010.05.20 12:03:00.
