data_PCOD9564064
_publ_section_title
;
Structure prediction by ZEFSAII (Michael W. Deem and Ramdas Pophale) SiO2 
 PCOD9564064
Probable space group: P 4/M B M
;
_chemical_formula_sum "Si O2"
_cell_formula_units_Z 72
_cell_length_a 20.813315
_cell_length_b 20.813315
_cell_length_c 7.438366
_cell_angle_alpha 90.000000
_cell_angle_beta 90.000000
_cell_angle_gamma 90.000000
_cell_volume 3222.256126
_symmetry_space_group_name_H-M "P 4/M B M"
_symmetry_group_IT_number 127
_symmetry_cell_setting 'tetragonal'
loop_
_space_group_symop_operation_xyz
x,y,z
-y,x,z
-x,-y,z
y,-x,z
1/2+x,1/2-y,-z
1/2-x,1/2+y,-z
1/2+y,1/2+x,-z
1/2-y,1/2-x,-z
-x,-y,-z
y,-x,-z
x,y,-z
-y,x,-z
1/2-x,1/2+y,z
1/2+x,1/2-y,z
1/2-y,1/2-x,z
1/2+y,1/2+x,z
loop_
_atom_site_type_symbol
_atom_site_label
_atom_site_fract_x
_atom_site_fract_y
_atom_site_fract_z
Si Si1 0.086228 0.056350 0.782869
Si Si2 0.552762 0.947239 0.216259
Si Si3 0.988502 0.687517 0.292205
Si Si4 0.654416 0.154416 0.279550
Si Si5 0.400823 0.275163 0.291883
Si Si6 0.239974 0.739974 0.720600
O O1 0.148699 0.091674 0.715380
O O2 0.018259 0.085939 0.725933
O O3 0.087334 0.057454 0.000000
O O4 0.528965 0.878414 0.283199
O O5 0.500000 0.000000 0.270416
O O6 0.555177 0.944824 0.000000
O O7 0.976803 0.705600 0.500000
O O8 0.917400 0.673736 0.216786
O O9 0.035710 0.741460 0.211572
O O10 0.652207 0.152207 0.500000
O O11 0.707174 0.207174 0.225954
O O12 0.399335 0.253939 0.500000
O O13 0.331766 0.256340 0.216449
O O14 0.240948 0.740948 0.500000
#
# Coordination Sequence:
#
# PCOD9564064 Si02
#       6
#    16   8  16   8  16   8
#     4   9  20  39  59  80 111 151 190 228 280 340
#     4  11  22  35  53  79 111 144 183 234 283 317
#     4  10  20  35  56  82 107 146 191 226 273 344
#     4   9  18  32  53  76 108 150 184 216 277 347
#     4  10  21  35  59  88 113 142 187 237 281 332
#     4   9  19  35  51  78 120 149 171 227 293 340
#
# _framework density 22.344591000000001
#
# number of rings (size 3 to 8) (size 9 to 14) (size 15 to 20)
#    0.000    2.333    1.111    1.667    3.111    4.000 
#    0.000    1.667    0.000    1.333    0.000    0.000 
#    0.000    0.000    0.000    0.000    0.000    0.000 
#
# Total GULP energy -402195.650583 kJ/mol
# GULP energy per Si atom -5586.050703 kJ/mol
# Density = 2.229373 g / cm^3
# Si number density = 22.344591 Si / 1000 Ang^3
#
#
#
# Elastic Constant Matrix: (Units=GPa)
#
#
# Indices 1 2 3 4 5 6 
#
# 1 117.8982 103.2206 2.8473 0.0000 0.0000 0.0000
# 2 103.2206 117.8982 2.8474 0.0000 0.0000 0.0000
# 3 2.8473 2.8474 67.3991 0.0000 0.0000 0.0000
# 4 0.0000 0.0000 0.0000 -3.2302 0.0000 0.0000
# 5 0.0000 0.0000 0.0000 0.0000 -3.2300 0.0000
# 6 0.0000 0.0000 0.0000 0.0000 0.0000 36.7526
#
#
#
# Elastic Compliance Matrix: (Units=1/GPa)
#
#
# Indices 1 2 3 4 5 6 
#
# 1 0.036329 -0.031802 -0.000191 0.000000 0.000000 0.000000
# 2 -0.031802 0.036329 -0.000191 0.000000 0.000000 0.000000
# 3 -0.000191 -0.000191 0.014853 0.000000 0.000000 0.000000
# 4 0.000000 0.000000 0.000000 -0.309581 0.000000 0.000000
# 5 0.000000 0.000000 0.000000 0.000000 -0.309600 0.000000
# 6 0.000000 0.000000 0.000000 0.000000 0.000000 0.027209
#
#
# Mechanical properties :
#
#
# Convention : Reuss Voigt Hill
#
# Bulk Modulus (GPa) = 43.20986 57.89179 50.55083
# Shear Modulus (GPa) = -11.56397 19.01050 3.72327
#
# Velocity S-wave (km/s) = -2.27739 2.91999 1.29225
# Velocity P-wave (km/s) = 3.53052 6.11010 4.98989
#
# Compressibility (1/GPa) = 0.02314286
#
# Stress axis : x y z
#
# Youngs Moduli (GPa) = 27.52607 27.52606 67.32574
#
# Poissons Ratio (x) = 0.87538 0.01287
# Poissons Ratio (y) = 0.87538 0.01288
# Poissons Ratio (z) = 0.00526 0.00527
#
# Static dielectric constant tensor:
#      x y z
#    x 1.788250 0.000000 0.000000 
#    y 0.000000 1.788250 0.000000 
#    z 0.000000 0.000000 1.844840 
# 
# From -- ./inp_files/1632.got.cif
#   From: 2010.05.17/outbox.cif.g08.bks.cpg/sg127_1_cif.got.tgz:1632.got - 2010.05.20 12:03:00.
