data_PCOD9564051
_publ_section_title
;
Structure prediction by ZEFSAII (Michael W. Deem and Ramdas Pophale) SiO2 
 PCOD9564051
Probable space group: P 4/M B M
;
_chemical_formula_sum "Si O2"
_cell_formula_units_Z 88
_cell_length_a 19.407664
_cell_length_b 19.407664
_cell_length_c 14.010135
_cell_angle_alpha 90.000000
_cell_angle_beta 90.000000
_cell_angle_gamma 90.000000
_cell_volume 5277.021330
_symmetry_space_group_name_H-M "P 4/M B M"
_symmetry_group_IT_number 127
_symmetry_cell_setting 'tetragonal'
loop_
_space_group_symop_operation_xyz
x,y,z
-y,x,z
-x,-y,z
y,-x,z
1/2+x,1/2-y,-z
1/2-x,1/2+y,-z
1/2+y,1/2+x,-z
1/2-y,1/2-x,-z
-x,-y,-z
y,-x,-z
x,y,-z
-y,x,-z
1/2-x,1/2+y,z
1/2+x,1/2-y,z
1/2-y,1/2-x,z
1/2+y,1/2+x,z
loop_
_atom_site_type_symbol
_atom_site_label
_atom_site_fract_x
_atom_site_fract_y
_atom_site_fract_z
Si Si1 0.873303 0.261586 0.112743
Si Si2 0.441120 0.941120 0.115149
Si Si3 0.286941 0.506305 0.610079
Si Si4 0.517577 0.205651 0.794811
Si Si5 0.660436 0.273337 0.801415
Si Si6 0.846665 0.141648 0.390010
O O1 0.821916 0.321916 0.149233
O O2 0.837003 0.190269 0.139822
O O3 0.947644 0.270343 0.156600
O O4 0.877787 0.268408 0.000000
O O5 0.371508 0.966041 0.168872
O O6 0.500000 0.000000 0.122111
O O7 0.429389 0.929389 0.000000
O O8 0.263520 0.508235 0.500000
O O9 0.223633 0.493553 0.682575
O O10 0.339176 0.441334 0.618614
O O11 0.327089 0.577731 0.629703
O O12 0.582641 0.252709 0.822828
O O13 0.707727 0.207727 0.822921
O O14 0.668419 0.294578 0.690430
O O15 0.828967 0.159105 0.500000
#
# Coordination Sequence:
#
# PCOD9564051 Si02
#       6
#    16   8  16  16  16  16
#     4  10  21  36  55  79 108 143 184 232 281 330
#     4  11  24  40  61  85 107 143 194 239 286 335
#     4   9  18  32  54  82 112 146 183 224 270 328
#     4  11  20  37  58  81 112 146 180 235 279 332
#     4  10  20  35  53  80 108 140 183 224 278 333
#     4   9  17  31  52  79 109 141 179 223 271 323
#
# _framework density 16.676074
#
# number of rings (size 3 to 8) (size 9 to 14) (size 15 to 20)
#    0.000    2.091    2.727    1.091    0.000    3.636 
#    0.000    2.273    0.000    3.273    0.000    1.273 
#    0.000    0.000    0.000    0.000    0.000    0.000 
#
# Total GULP energy -490103.031597 kJ/mol
# GULP energy per Si atom -5569.352632 kJ/mol
# Density = 1.663812 g / cm^3
# Si number density = 16.676074 Si / 1000 Ang^3
#
#
#
# Elastic Constant Matrix: (Units=GPa)
#
#
# Indices 1 2 3 4 5 6 
#
# 1 100.0811 58.2982 46.8242 0.0000 0.0000 0.0000
# 2 58.2982 100.0811 46.8242 0.0000 0.0000 0.0000
# 3 46.8242 46.8242 76.8718 0.0000 0.0000 0.0000
# 4 0.0000 0.0000 0.0000 24.0258 0.0000 0.0000
# 5 0.0000 0.0000 0.0000 0.0000 24.0258 0.0000
# 6 0.0000 0.0000 0.0000 0.0000 0.0000 12.1493
#
#
#
# Elastic Compliance Matrix: (Units=1/GPa)
#
#
# Indices 1 2 3 4 5 6 
#
# 1 0.016901 -0.007033 -0.006011 0.000000 0.000000 0.000000
# 2 -0.007033 0.016901 -0.006011 0.000000 0.000000 0.000000
# 3 -0.006011 -0.006011 0.020331 0.000000 0.000000 0.000000
# 4 0.000000 0.000000 0.000000 0.041622 0.000000 0.000000
# 5 0.000000 0.000000 0.000000 0.000000 0.041622 0.000000
# 6 0.000000 0.000000 0.000000 0.000000 0.000000 0.082309
#
#
# Mechanical properties :
#
#
# Convention : Reuss Voigt Hill
#
# Bulk Modulus (GPa) = 62.40596 64.54749 63.47672
# Shear Modulus (GPa) = 19.00158 20.37934 19.69046
#
# Velocity S-wave (km/s) = 3.37924 3.49961 3.43995
# Velocity P-wave (km/s) = 7.26150 7.42431 7.34335
#
# Compressibility (1/GPa) = 0.01602411
#
# Stress axis : x y z
#
# Youngs Moduli (GPa) = 59.16916 59.16916 49.18498
#
# Poissons Ratio (x) = 0.41611 0.29565
# Poissons Ratio (y) = 0.41611 0.29565
# Poissons Ratio (z) = 0.35566 0.35566
#
# Static dielectric constant tensor:
#      x y z
#    x 1.552220 0.000000 0.000000 
#    y 0.000000 1.552220 0.000000 
#    z 0.000000 0.000000 1.579910 
# 
# From -- ./inp_files/4404.got.cif
#   From: 2010.05.17/outbox.cif.g08.bks.cpg/sg127_3_cif.got.tgz:4404.got - 2010.05.20 12:03:00.
