data_PCOD9564414
_publ_section_title
;
Structure prediction by ZEFSAII (Michael W. Deem and Ramdas Pophale) SiO2 
 PCOD9564414
Probable space group: P 4/M B M
;
_chemical_formula_sum "Si O2"
_cell_formula_units_Z 96
_cell_length_a 15.490574
_cell_length_b 15.490574
_cell_length_c 23.845905
_cell_angle_alpha 90.000000
_cell_angle_beta 90.000000
_cell_angle_gamma 90.000000
_cell_volume 5722.012878
_symmetry_space_group_name_H-M "P 4/M B M"
_symmetry_group_IT_number 127
_symmetry_cell_setting 'tetragonal'
loop_
_space_group_symop_operation_xyz
x,y,z
-y,x,z
-x,-y,z
y,-x,z
1/2+x,1/2-y,-z
1/2-x,1/2+y,-z
1/2+y,1/2+x,-z
1/2-y,1/2-x,-z
-x,-y,-z
y,-x,-z
x,y,-z
-y,x,-z
1/2-x,1/2+y,z
1/2+x,1/2-y,z
1/2-y,1/2-x,z
1/2+y,1/2+x,z
loop_
_atom_site_type_symbol
_atom_site_label
_atom_site_fract_x
_atom_site_fract_y
_atom_site_fract_z
Si Si1 0.468796 0.737399 0.433109
Si Si2 0.072852 0.874362 0.726778
Si Si3 0.571153 0.071153 0.068055
Si Si4 0.630564 0.437812 0.142888
Si Si5 0.291612 0.061065 0.065881
Si Si6 0.847613 0.199746 0.619457
Si Si7 0.067671 0.432330 0.432122
O O1 0.456602 0.727575 0.500000
O O2 0.566325 0.715372 0.416831
O O3 0.392769 0.687219 0.401619
O O4 0.455853 0.836392 0.416219
O O5 0.080054 0.848352 0.791838
O O6 0.118693 0.811114 0.683166
O O7 0.970004 0.886676 0.717651
O O8 0.529341 0.162572 0.084908
O O9 0.500000 0.000000 0.084891
O O10 0.572270 0.072270 0.000000
O O11 0.610344 0.539555 0.133733
O O12 0.708961 0.415298 0.102410
O O13 0.364762 0.135239 0.070012
O O14 0.269128 0.052953 0.000000
O O15 0.774367 0.274367 0.613235
O O16 0.064503 0.435498 0.500000
O O17 0.000000 0.500000 0.409036
#
# Coordination Sequence:
#
# PCOD9564414 Si02
#       7
#    16  16   8  16  16  16   8
#     4  11  23  37  56  85 118 147 182 232 283 337
#     4   9  18  37  60  77  99 138 186 228 275 330
#     4   7  12  26  48  71 101 143 179 209 255 316
#     4   9  19  35  55  77 105 143 182 225 275 328
#     4   9  17  31  52  79 111 145 182 223 270 327
#     4  12  23  37  60  86 112 148 192 236 283 341
#     4   9  18  36  56  75 111 160 190 211 265 341
#
# _framework density 16.777311999999998
#
# number of rings (size 3 to 8) (size 9 to 14) (size 15 to 20)
#    0.000    2.333    2.500    3.000    0.000    3.333 
#    1.500    1.667    1.833    0.000    0.000    1.167 
#    0.000    0.000    0.000    0.000    0.000    0.000 
#
# Total GULP energy -534593.822468 kJ/mol
# GULP energy per Si atom -5568.685651 kJ/mol
# Density = 1.673913 g / cm^3
# Si number density = 16.777312 Si / 1000 Ang^3
#
#
#
# Elastic Constant Matrix: (Units=GPa)
#
#
# Indices 1 2 3 4 5 6 
#
# 1 90.2762 32.2401 42.1742 0.0000 0.0000 0.0000
# 2 32.2401 90.2768 42.1734 0.0000 0.0000 0.0000
# 3 42.1742 42.1734 74.8177 0.0000 0.0000 0.0000
# 4 0.0000 0.0000 0.0000 12.0307 0.0000 0.0000
# 5 0.0000 0.0000 0.0000 0.0000 12.0309 0.0000
# 6 0.0000 0.0000 0.0000 0.0000 0.0000 23.4158
#
#
#
# Elastic Compliance Matrix: (Units=1/GPa)
#
#
# Indices 1 2 3 4 5 6 
#
# 1 0.015285 -0.001946 -0.007519 0.000000 0.000000 0.000000
# 2 -0.001946 0.015284 -0.007519 0.000000 0.000000 0.000000
# 3 -0.007519 -0.007519 0.021842 0.000000 0.000000 0.000000
# 4 0.000000 0.000000 0.000000 0.083121 0.000000 0.000000
# 5 0.000000 0.000000 0.000000 0.000000 0.083119 0.000000
# 6 0.000000 0.000000 0.000000 0.000000 0.000000 0.042706
#
#
# Mechanical properties :
#
#
# Convention : Reuss Voigt Hill
#
# Bulk Modulus (GPa) = 54.21734 54.28291 54.25012
# Shear Modulus (GPa) = 16.58525 18.74768 17.66646
#
# Velocity S-wave (km/s) = 3.14754 3.34644 3.24851
# Velocity P-wave (km/s) = 6.75243 6.88162 6.81733
#
# Compressibility (1/GPa) = 0.01844429
#
# Stress axis : x y z
#
# Youngs Moduli (GPa) = 65.42490 65.42632 45.78279
#
# Poissons Ratio (x) = 0.12732 0.34424
# Poissons Ratio (y) = 0.12732 0.34422
# Poissons Ratio (z) = 0.49193 0.49191
#
# Static dielectric constant tensor:
#      x y z
#    x 1.545900 0.000000 0.000000 
#    y 0.000000 1.545900 0.000000 
#    z 0.000000 0.000000 1.558230 
# 
# From -- ./inp_files/5833.got.cif
#   From: 2010.05.17/outbox.cif.g08.bks.cpg/sg127_3_cif.got.tgz:5833.got - 2010.05.20 12:03:00.
