data_PCOD9564107
_publ_section_title
;
Structure prediction by ZEFSAII (Michael W. Deem and Ramdas Pophale) SiO2 
 PCOD9564107
Probable space group: P 4/M B M
;
_chemical_formula_sum "Si O2"
_cell_formula_units_Z 72
_cell_length_a 18.925259
_cell_length_b 18.925259
_cell_length_c 11.972479
_cell_angle_alpha 90.000000
_cell_angle_beta 90.000000
_cell_angle_gamma 90.000000
_cell_volume 4288.128068
_symmetry_space_group_name_H-M "P 4/M B M"
_symmetry_group_IT_number 127
_symmetry_cell_setting 'tetragonal'
loop_
_space_group_symop_operation_xyz
x,y,z
-y,x,z
-x,-y,z
y,-x,z
1/2+x,1/2-y,-z
1/2-x,1/2+y,-z
1/2+y,1/2+x,-z
1/2-y,1/2-x,-z
-x,-y,-z
y,-x,-z
x,y,-z
-y,x,-z
1/2-x,1/2+y,z
1/2+x,1/2-y,z
1/2-y,1/2-x,z
1/2+y,1/2+x,z
loop_
_atom_site_type_symbol
_atom_site_label
_atom_site_fract_x
_atom_site_fract_y
_atom_site_fract_z
Si Si1 0.209623 0.169773 0.000000
Si Si2 0.440159 0.940159 0.370615
Si Si3 0.343923 0.723407 0.229075
Si Si4 0.698010 0.010313 0.239383
Si Si5 0.627273 0.753170 0.630717
Si Si6 0.947340 0.326344 0.000000
O O1 0.165884 0.182668 0.888002
O O2 0.253636 0.097707 0.000000
O O3 0.269799 0.230202 0.000000
O O4 0.424559 0.924559 0.500000
O O5 0.468805 0.870716 0.310206
O O6 0.500000 0.000000 0.365961
O O7 0.292105 0.792105 0.226782
O O8 0.423235 0.749617 0.242770
O O9 0.313198 0.672158 0.324457
O O10 0.732869 0.941158 0.294329
O O11 0.674257 0.992664 0.112997
O O12 0.609818 0.746767 0.500000
O O13 0.679258 0.820743 0.644783
O O14 0.891488 0.391488 0.000000
#
# Coordination Sequence:
#
# PCOD9564107 Si02
#       6
#     8   8  16  16  16   8
#     4   9  17  34  59  79 110 145 187 239 291 336
#     4  11  24  39  55  81 127 168 191 228 289 362
#     4  10  20  37  57  84 113 147 193 246 289 338
#     4  12  22  37  59  89 118 154 197 241 296 351
#     4  10  21  37  58  82 114 157 201 240 286 348
#     4  11  21  35  60  88 117 155 197 236 287 360
#
# _framework density 16.790541999999999
#
# number of rings (size 3 to 8) (size 9 to 14) (size 15 to 20)
#    0.000    1.444    3.333    3.333    0.000    4.000 
#    0.000    1.111    0.000    0.667    0.000    3.111 
#    0.000    0.000    0.000    0.000    0.000    0.000 
#
# Total GULP energy -402100.076988 kJ/mol
# GULP energy per Si atom -5584.723291 kJ/mol
# Density = 1.675233 g / cm^3
# Si number density = 16.790542 Si / 1000 Ang^3
#
#
#
# Elastic Constant Matrix: (Units=GPa)
#
#
# Indices 1 2 3 4 5 6 
#
# 1 35.3088 93.5404 56.4638 0.0000 0.0000 0.0000
# 2 93.5404 35.3087 56.4638 0.0000 0.0000 0.0000
# 3 56.4638 56.4638 145.4399 0.0000 0.0000 0.0000
# 4 0.0000 0.0000 0.0000 13.7887 0.0000 0.0000
# 5 0.0000 0.0000 0.0000 0.0000 13.7887 0.0000
# 6 0.0000 0.0000 0.0000 0.0000 0.0000 22.8929
#
#
#
# Elastic Compliance Matrix: (Units=1/GPa)
#
#
# Indices 1 2 3 4 5 6 
#
# 1 -0.002705 0.014468 -0.004567 0.000000 0.000000 0.000000
# 2 0.014468 -0.002705 -0.004567 0.000000 0.000000 0.000000
# 3 -0.004567 -0.004567 0.010422 0.000000 0.000000 0.000000
# 4 0.000000 0.000000 0.000000 0.072523 0.000000 0.000000
# 5 0.000000 0.000000 0.000000 0.000000 0.072523 0.000000
# 6 0.000000 0.000000 0.000000 0.000000 0.000000 0.043682
#
#
# Mechanical properties :
#
#
# Convention : Reuss Voigt Hill
#
# Bulk Modulus (GPa) = 63.77080 69.88816 66.82948
# Shear Modulus (GPa) = 26.55343 10.73333 18.64338
#
# Velocity S-wave (km/s) = 3.98106 2.53108 3.33581
# Velocity P-wave (km/s) = 7.69379 7.08913 7.39764
#
# Compressibility (1/GPa) = 0.01568116
#
# Stress axis : x y z
#
# Youngs Moduli (GPa) = -369.74609 -369.74576 95.95311
#
# Poissons Ratio (x) = 5.34957 0.43822
# Poissons Ratio (y) = 5.34957 0.43822
# Poissons Ratio (z) = -1.68862 -1.68862
#
# Static dielectric constant tensor:
#      x y z
#    x 1.545100 0.000000 0.000000 
#    y 0.000000 1.545100 0.000000 
#    z 0.000000 0.000000 1.573290 
# 
# From -- ./inp_files/3215.got.cif
#   From: 2010.05.17/outbox.cif.g08.bks.cpg/sg127_2_cif.got.tgz:3215.got - 2010.05.20 12:03:00.
