data_PCOD9564961
_publ_section_title
;
Structure prediction by ZEFSAII (Michael W. Deem and Ramdas Pophale) SiO2 
 PCOD9564961
Probable space group: P 4/M N C
;
_chemical_formula_sum "Si O2"
_cell_formula_units_Z 42
_cell_length_a 13.573275
_cell_length_b 13.573275
_cell_length_c 10.054020
_cell_angle_alpha 90.000000
_cell_angle_beta 90.000000
_cell_angle_gamma 90.000000
_cell_volume 1852.290252
_symmetry_space_group_name_H-M "P 4/M N C"
_symmetry_group_IT_number 128
_symmetry_cell_setting 'tetragonal'
loop_
_space_group_symop_operation_xyz
x,y,z
-y,x,z
-x,-y,z
y,-x,z
1/2+x,1/2-y,1/2-z
1/2-x,1/2+y,1/2-z
1/2+y,1/2+x,1/2-z
1/2-y,1/2-x,1/2-z
-x,-y,-z
y,-x,-z
x,y,-z
-y,x,-z
1/2-x,1/2+y,1/2+z
1/2+x,1/2-y,1/2+z
1/2-y,1/2-x,1/2+z
1/2+y,1/2+x,1/2+z
loop_
_atom_site_type_symbol
_atom_site_label
_atom_site_fract_x
_atom_site_fract_y
_atom_site_fract_z
Si Si1 0.531575 0.279377 0.500000
Si Si2 0.089384 0.861991 0.500000
Si Si3 0.500000 0.500000 0.500000
Si Si4 0.439679 0.893450 0.000000
Si Si5 0.780253 0.441319 0.779193
O O1 0.562534 0.394226 0.500000
O O2 0.598127 0.178549 0.500000
O O3 0.478055 0.263432 0.641516
O O4 0.112716 0.801984 0.631839
O O5 0.970959 0.870962 0.500000
O O6 0.476127 0.832297 0.128623
O O7 0.500000 0.000000 0.000000
O O8 0.865415 0.365415 0.750000
#
# Coordination Sequence:
#
# PCOD9564961 Si02
#       5
#     8   8   2   8  16
#     4  12  26  46  76 105 157 204 250 310 383 471
#     4  10  25  47  72 100 150 211 262 306 383 494
#     4  12  36  52  60 110 168 216 256 318 380 448
#     4  11  21  45  79 116 146 185 237 330 394 450
#     4  11  23  44  76 114 150 189 249 329 399 453
#
# _framework density 22.674633
#
# number of rings (size 3 to 8) (size 9 to 14) (size 15 to 20)
#    0.000    0.952    3.810    2.286    5.333    0.000 
#   13.714    0.000    0.000    0.000    0.000    0.000 
#    0.000    0.000    0.000    0.000    0.000    0.000 
#
# Total GULP energy -234134.041917 kJ/mol
# GULP energy per Si atom -5574.620046 kJ/mol
# Density = 2.262302 g / cm^3
# Si number density = 22.674633 Si / 1000 Ang^3
#
#
#
# Elastic Constant Matrix: (Units=GPa)
#
#
# Indices 1 2 3 4 5 6 
#
# 1 104.9903 33.7716 35.3790 0.0000 0.0000 0.0000
# 2 33.7716 104.9903 35.3790 0.0000 0.0000 0.0000
# 3 35.3790 35.3790 176.9293 0.0000 0.0000 0.0000
# 4 0.0000 0.0000 0.0000 27.0822 0.0000 0.0000
# 5 0.0000 0.0000 0.0000 0.0000 27.0822 0.0000
# 6 0.0000 0.0000 0.0000 0.0000 0.0000 0.1720
#
#
#
# Elastic Compliance Matrix: (Units=1/GPa)
#
#
# Indices 1 2 3 4 5 6 
#
# 1 0.011033 -0.003008 -0.001605 0.000000 0.000000 0.000000
# 2 -0.003008 0.011033 -0.001605 0.000000 0.000000 0.000000
# 3 -0.001605 -0.001605 0.006294 0.000000 0.000000 0.000000
# 4 0.000000 0.000000 0.000000 0.036925 0.000000 0.000000
# 5 0.000000 0.000000 0.000000 0.000000 0.036925 0.000000
# 6 0.000000 0.000000 0.000000 0.000000 0.000000 5.814640
#
#
# Mechanical properties :
#
#
# Convention : Reuss Voigt Hill
#
# Bulk Modulus (GPa) = 62.79526 66.21880 64.50703
# Shear Modulus (GPa) = 0.84252 29.69263 15.26757
#
# Velocity S-wave (km/s) = 0.61023 3.62264 2.59768
# Velocity P-wave (km/s) = 5.31514 6.83852 6.12438
#
# Compressibility (1/GPa) = 0.01592477
#
# Stress axis : x y z
#
# Youngs Moduli (GPa) = 90.63678 90.63678 158.88867
#
# Poissons Ratio (x) = 0.27265 0.25496
# Poissons Ratio (y) = 0.27265 0.25496
# Poissons Ratio (z) = 0.14544 0.14544
#
# Static dielectric constant tensor:
#      x y z
#    x 1.821610 0.000000 0.000000 
#    y 0.000000 1.821610 0.000000 
#    z 0.000000 0.000000 1.720490 
# 
# From -- ./inp_files/562.got.cif
#   From: 2010.05.17/outbox.cif.g08.bks.cpg/sg128_1_cif.got.tgz:562.got - 2010.05.20 12:07:25.
