data_PCOD9564982
_publ_section_title
;
Structure prediction by ZEFSAII (Michael W. Deem and Ramdas Pophale) SiO2 
 PCOD9564982
Probable space group: P 4/M N C
;
_chemical_formula_sum "Si O2"
_cell_formula_units_Z 116
_cell_length_a 17.660821
_cell_length_b 17.660821
_cell_length_c 15.546955
_cell_angle_alpha 90.000000
_cell_angle_beta 90.000000
_cell_angle_gamma 90.000000
_cell_volume 4849.166756
_symmetry_space_group_name_H-M "P 4/M N C"
_symmetry_group_IT_number 128
_symmetry_cell_setting 'tetragonal'
loop_
_space_group_symop_operation_xyz
x,y,z
-y,x,z
-x,-y,z
y,-x,z
1/2+x,1/2-y,1/2-z
1/2-x,1/2+y,1/2-z
1/2+y,1/2+x,1/2-z
1/2-y,1/2-x,1/2-z
-x,-y,-z
y,-x,-z
x,y,-z
-y,x,-z
1/2-x,1/2+y,1/2+z
1/2+x,1/2-y,1/2+z
1/2-y,1/2-x,1/2+z
1/2+y,1/2+x,1/2+z
loop_
_atom_site_type_symbol
_atom_site_label
_atom_site_fract_x
_atom_site_fract_y
_atom_site_fract_z
Si Si1 0.830515 0.714246 0.095849
Si Si2 0.097429 0.435571 0.099857
Si Si3 0.046887 0.666857 0.094261
Si Si4 0.500000 0.500000 0.847390
Si Si5 0.154448 0.951447 0.278935
Si Si6 0.684826 0.721836 0.178122
Si Si7 0.544146 0.810118 0.789485
Si Si8 0.674178 0.545554 0.404720
O O1 0.859124 0.638102 0.140276
O O2 0.741680 0.716851 0.099356
O O3 0.870728 0.792826 0.116892
O O4 0.859489 0.701148 0.000000
O O5 0.012681 0.402950 0.095881
O O6 0.121406 0.503675 0.161425
O O7 0.119549 0.453471 0.000000
O O8 0.004642 0.749243 0.090578
O O9 0.073773 0.670920 0.193219
O O10 0.086911 0.661550 0.000000
O O11 0.407007 0.488375 0.841084
O O12 0.158866 0.861591 0.294628
O O13 0.129015 0.973706 0.181067
O O14 0.239600 0.984757 0.285347
O O15 0.739406 0.760595 0.250000
O O16 0.614131 0.774412 0.160285
O O17 0.638680 0.544590 0.500000
#
# Coordination Sequence:
#
# PCOD9564982 Si02
#       8
#    16  16  16   4  16  16  16  16
#     4   9  17  31  54  82 111 144 189 247 298 351
#     4   9  17  31  56  88 111 138 189 244 292 357
#     4   8  16  31  54  84 111 139 186 236 290 361
#     4  12  24  40  53  80 121 160 224 234 296 364
#     4  11  21  36  55  77 110 160 200 245 286 359
#     4  12  23  36  55  85 116 152 201 244 297 361
#     4  11  21  33  57  84 112 153 188 246 305 339
#     4   8  15  30  52  78 107 141 188 244 295 338
#
# _framework density 23.921637
#
# number of rings (size 3 to 8) (size 9 to 14) (size 15 to 20)
#    0.000    2.207    4.138    2.069    0.000    0.552 
#    0.000    2.414    0.000    1.655    0.000    2.897 
#    0.000    0.000    0.000    0.000    0.000    0.000 
#
# Total GULP energy -645793.055162 kJ/mol
# GULP energy per Si atom -5567.181510 kJ/mol
# Density = 2.386719 g / cm^3
# Si number density = 23.921637 Si / 1000 Ang^3
#
#
#
# Elastic Constant Matrix: (Units=GPa)
#
#
# Indices 1 2 3 4 5 6 
#
# 1 56.3644 18.5972 -3.6304 0.0000 0.0000 0.0000
# 2 18.5972 56.3641 -3.6309 0.0000 0.0000 0.0000
# 3 -3.6304 -3.6309 53.1326 0.0000 0.0000 0.0000
# 4 0.0000 0.0000 0.0000 -3.6318 0.0000 0.0000
# 5 0.0000 0.0000 0.0000 0.0000 -3.6318 0.0000
# 6 0.0000 0.0000 0.0000 0.0000 0.0000 15.0894
#
#
#
# Elastic Compliance Matrix: (Units=1/GPa)
#
#
# Indices 1 2 3 4 5 6 
#
# 1 0.019954 -0.006525 0.000918 0.000000 0.000000 0.000000
# 2 -0.006525 0.019954 0.000918 0.000000 0.000000 0.000000
# 3 0.000918 0.000918 0.018946 0.000000 0.000000 0.000000
# 4 0.000000 0.000000 0.000000 -0.275345 0.000000 0.000000
# 5 0.000000 0.000000 0.000000 0.000000 -0.275344 0.000000
# 6 0.000000 0.000000 0.000000 0.000000 0.000000 0.066272
#
#
# Mechanical properties :
#
#
# Convention : Reuss Voigt Hill
#
# Bulk Modulus (GPa) = 20.21225 20.94809 20.58017
# Shear Modulus (GPa) = -12.50957 11.86684 -0.32137
#
# Velocity S-wave (km/s) = -2.28927 2.22968 -0.36692
# Velocity P-wave (km/s) = 1.21657 3.92487 2.90557
#
# Compressibility (1/GPa) = 0.04947496
#
# Stress axis : x y z
#
# Youngs Moduli (GPa) = 50.11639 50.11613 52.78090
#
# Poissons Ratio (x) = 0.32698 -0.04843
# Poissons Ratio (y) = 0.32699 -0.04844
# Poissons Ratio (z) = -0.04598 -0.04599
#
# Static dielectric constant tensor:
#      x y z
#    x 1.953560 0.000000 0.000000 
#    y 0.000000 1.953560 0.000000 
#    z 0.000000 0.000000 1.971590 
# 
# From -- ./inp_files/4943.got.cif
#   From: 2010.05.17/outbox.cif.g08.bks.cpg/sg128_3_cif.got.tgz:4943.got - 2010.05.20 12:07:25.
