data_PCOD9564940
_publ_section_title
;
Structure prediction by ZEFSAII (Michael W. Deem and Ramdas Pophale) SiO2 
 PCOD9564940
Probable space group: P 4/M N C
;
_chemical_formula_sum "Si O2"
_cell_formula_units_Z 108
_cell_length_a 14.346678
_cell_length_b 14.346678
_cell_length_c 25.434060
_cell_angle_alpha 90.000000
_cell_angle_beta 90.000000
_cell_angle_gamma 90.000000
_cell_volume 5235.020582
_symmetry_space_group_name_H-M "P 4/M N C"
_symmetry_group_IT_number 128
_symmetry_cell_setting 'tetragonal'
loop_
_space_group_symop_operation_xyz
x,y,z
-y,x,z
-x,-y,z
y,-x,z
1/2+x,1/2-y,1/2-z
1/2-x,1/2+y,1/2-z
1/2+y,1/2+x,1/2-z
1/2-y,1/2-x,1/2-z
-x,-y,-z
y,-x,-z
x,y,-z
-y,x,-z
1/2-x,1/2+y,1/2+z
1/2+x,1/2-y,1/2+z
1/2-y,1/2-x,1/2+z
1/2+y,1/2+x,1/2+z
loop_
_atom_site_type_symbol
_atom_site_label
_atom_site_fract_x
_atom_site_fract_y
_atom_site_fract_z
Si Si1 0.151205 0.682000 0.311197
Si Si2 0.141539 0.735706 0.915286
Si Si3 0.681959 0.605752 0.168203
Si Si4 0.355167 0.750232 0.058033
Si Si5 0.121124 0.093634 0.000000
Si Si6 0.556352 0.115139 0.806524
Si Si7 0.895727 0.533884 0.583653
Si Si8 0.500000 0.500000 0.194715
O O1 0.172437 0.672437 0.250000
O O2 0.228398 0.643352 0.351960
O O3 0.144819 0.790123 0.325164
O O4 0.051543 0.633670 0.320758
O O5 0.248031 0.715280 0.933756
O O6 0.125720 0.830579 0.946356
O O7 0.053876 0.669902 0.930390
O O8 0.705441 0.588712 0.106457
O O9 0.782452 0.601116 0.195666
O O10 0.609079 0.534086 0.191057
O O11 0.364876 0.863985 0.061699
O O12 0.386843 0.722744 0.000000
O O13 0.016623 0.126143 0.000000
O O14 0.569694 0.069694 0.750000
O O15 0.601915 0.056646 0.853677
O O16 0.000000 0.500000 0.568624
#
# Coordination Sequence:
#
# PCOD9564940 Si02
#       8
#    16  16  16  16   8  16  16   4
#     4  11  22  39  66  98 132 172 213 271 348 411
#     4  11  22  40  65  94 134 176 220 273 345 407
#     4  10  23  41  65  88 127 169 219 266 327 401
#     4  10  23  41  61  91 128 169 213 273 335 399
#     4  11  24  44  73  98 132 189 241 288 348 414
#     4  11  22  39  64  98 129 168 217 275 336 405
#     4  11  23  39  61  97 129 167 220 276 336 407
#     4  12  20  44  69  80 120 180 220 269 316 412
#
# _framework density 20.630291
#
# number of rings (size 3 to 8) (size 9 to 14) (size 15 to 20)
#    0.000    1.259    3.704    2.222    1.037    0.296 
#    0.000    4.074    0.000    0.000    0.000    0.000 
#    0.000    0.000    0.000    0.000    0.000    0.000 
#
# Total GULP energy -601451.973759 kJ/mol
# GULP energy per Si atom -5568.999757 kJ/mol
# Density = 2.058334 g / cm^3
# Si number density = 20.630291 Si / 1000 Ang^3
#
#
#
# Elastic Constant Matrix: (Units=GPa)
#
#
# Indices 1 2 3 4 5 6 
#
# 1 64.8568 4.0074 -5.9164 0.0000 0.0000 0.0000
# 2 4.0074 64.8568 -5.9164 0.0000 0.0000 0.0000
# 3 -5.9164 -5.9164 94.4366 0.0000 0.0000 0.0000
# 4 0.0000 0.0000 0.0000 16.2487 0.0000 0.0000
# 5 0.0000 0.0000 0.0000 0.0000 16.2487 0.0000
# 6 0.0000 0.0000 0.0000 0.0000 0.0000 56.8317
#
#
#
# Elastic Compliance Matrix: (Units=1/GPa)
#
#
# Indices 1 2 3 4 5 6 
#
# 1 0.015557 -0.000877 0.000920 0.000000 0.000000 0.000000
# 2 -0.000877 0.015557 0.000920 0.000000 0.000000 0.000000
# 3 0.000920 0.000920 0.010704 0.000000 0.000000 0.000000
# 4 0.000000 0.000000 0.000000 0.061543 0.000000 0.000000
# 5 0.000000 0.000000 0.000000 0.000000 0.061543 0.000000
# 6 0.000000 0.000000 0.000000 0.000000 0.000000 0.017596
#
#
# Mechanical properties :
#
#
# Convention : Reuss Voigt Hill
#
# Bulk Modulus (GPa) = 22.86147 23.16658 23.01402
# Shear Modulus (GPa) = 25.62039 33.33085 29.47562
#
# Velocity S-wave (km/s) = 3.52786 4.02385 3.78399
# Velocity P-wave (km/s) = 5.26307 5.73081 5.50192
#
# Compressibility (1/GPa) = 0.04374172
#
# Stress axis : x y z
#
# Youngs Moduli (GPa) = 64.28103 64.28103 93.42002
#
# Poissons Ratio (x) = 0.05639 -0.08591
# Poissons Ratio (y) = 0.05639 -0.08591
# Poissons Ratio (z) = -0.05912 -0.05912
#
# Static dielectric constant tensor:
#      x y z
#    x 1.755440 0.000000 0.000000 
#    y 0.000000 1.755440 0.000000 
#    z 0.000000 0.000000 1.782290 
# 
# From -- ./inp_files/6501.got.cif
#   From: 2010.05.17/outbox.cif.g08.bks.cpg/sg128_4_cif.got.tgz:6501.got - 2010.05.20 12:07:25.
