data_PCOD9564177
_publ_section_title
;
Structure prediction by ZEFSAII (Michael W. Deem and Ramdas Pophale) SiO2 
 PCOD9564177
Probable space group: P 4/M B M
;
_chemical_formula_sum "Si O2"
_cell_formula_units_Z 56
_cell_length_a 13.787488
_cell_length_b 13.787488
_cell_length_c 16.333793
_cell_angle_alpha 90.000000
_cell_angle_beta 90.000000
_cell_angle_gamma 90.000000
_cell_volume 3104.969528
_symmetry_space_group_name_H-M "P 4/M B M"
_symmetry_group_IT_number 127
_symmetry_cell_setting 'tetragonal'
loop_
_space_group_symop_operation_xyz
x,y,z
-y,x,z
-x,-y,z
y,-x,z
1/2+x,1/2-y,-z
1/2-x,1/2+y,-z
1/2+y,1/2+x,-z
1/2-y,1/2-x,-z
-x,-y,-z
y,-x,-z
x,y,-z
-y,x,-z
1/2-x,1/2+y,z
1/2+x,1/2-y,z
1/2-y,1/2-x,z
1/2+y,1/2+x,z
loop_
_atom_site_type_symbol
_atom_site_label
_atom_site_fract_x
_atom_site_fract_y
_atom_site_fract_z
Si Si1 0.751465 0.087533 0.745667
Si Si2 0.230034 0.111108 0.827263
Si Si3 0.005366 0.661021 0.406726
Si Si4 0.094421 0.866442 0.000000
O O1 0.660922 0.160922 0.755987
O O2 0.846128 0.152265 0.762301
O O3 0.737829 0.034058 0.658478
O O4 0.751270 0.001112 0.810802
O O5 0.327371 0.172630 0.818090
O O6 0.186551 0.126976 0.917410
O O7 0.015804 0.696943 0.500000
O O8 0.923505 0.576496 0.408304
O O9 0.105260 0.605260 0.382941
O O10 0.977295 0.870321 0.000000
#
# Coordination Sequence:
#
# PCOD9564177 Si02
#       4
#    16  16  16   8
#     4  10  21  36  55  82 113 145 189 233 277 337
#     4  11  22  37  58  82 110 145 183 234 287 333
#     4   8  14  28  52  79 109 145 180 219 269 324
#     4  11  21  38  60  79 106 146 188 227 282 340
#
# _framework density 18.035602999999998
#
# number of rings (size 3 to 8) (size 9 to 14) (size 15 to 20)
#    0.000    2.143    2.857    2.143    0.000    2.286 
#    0.000    2.143    0.000    6.857    0.000    2.000 
#    0.000    0.000    0.000    0.000    0.000    0.000 
#
# Total GULP energy -312148.130327 kJ/mol
# GULP energy per Si atom -5574.073756 kJ/mol
# Density = 1.799455 g / cm^3
# Si number density = 18.035603 Si / 1000 Ang^3
#
#
#
# Elastic Constant Matrix: (Units=GPa)
#
#
# Indices 1 2 3 4 5 6 
#
# 1 54.5909 19.3110 15.7348 0.0000 0.0000 0.0000
# 2 19.3110 54.5909 15.7348 0.0000 0.0000 0.0000
# 3 15.7348 15.7348 92.1086 0.0000 0.0000 0.0000
# 4 0.0000 0.0000 0.0000 26.3088 0.0000 0.0000
# 5 0.0000 0.0000 0.0000 0.0000 26.3088 0.0000
# 6 0.0000 0.0000 0.0000 0.0000 0.0000 8.4118
#
#
#
# Elastic Compliance Matrix: (Units=1/GPa)
#
#
# Indices 1 2 3 4 5 6 
#
# 1 0.021469 -0.006876 -0.002493 0.000000 0.000000 0.000000
# 2 -0.006876 0.021469 -0.002493 0.000000 0.000000 0.000000
# 3 -0.002493 -0.002493 0.011708 0.000000 0.000000 0.000000
# 4 0.000000 0.000000 0.000000 0.038010 0.000000 0.000000
# 5 0.000000 0.000000 0.000000 0.000000 0.038010 0.000000
# 6 0.000000 0.000000 0.000000 0.000000 0.000000 0.118881
#
#
# Mechanical properties :
#
#
# Convention : Reuss Voigt Hill
#
# Bulk Modulus (GPa) = 32.33855 33.65019 32.99437
# Shear Modulus (GPa) = 17.63179 22.23986 19.93582
#
# Velocity S-wave (km/s) = 3.13007 3.51537 3.32830
# Velocity P-wave (km/s) = 5.57068 5.93088 5.75360
#
# Compressibility (1/GPa) = 0.03092284
#
# Stress axis : x y z
#
# Youngs Moduli (GPa) = 46.57898 46.57898 85.40824
#
# Poissons Ratio (x) = 0.32027 0.21292
# Poissons Ratio (y) = 0.32027 0.21292
# Poissons Ratio (z) = 0.11612 0.11612
#
# Static dielectric constant tensor:
#      x y z
#    x 1.598670 0.000000 0.000000 
#    y 0.000000 1.598670 0.000000 
#    z 0.000000 0.000000 1.635250 
# 
# From -- ./inp_files/4020.got.cif
#   From: 2010.05.17/outbox.cif.g08.bks.cpg/sg127_3_cif.got.tgz:4020.got - 2010.05.20 12:03:00.
