data_PCOD9564431
_publ_section_title
;
Structure prediction by ZEFSAII (Michael W. Deem and Ramdas Pophale) SiO2 
 PCOD9564431
Probable space group: P 4/M B M
;
_chemical_formula_sum "Si O2"
_cell_formula_units_Z 48
_cell_length_a 12.080418
_cell_length_b 12.080418
_cell_length_c 17.676570
_cell_angle_alpha 90.000000
_cell_angle_beta 90.000000
_cell_angle_gamma 90.000000
_cell_volume 2579.656741
_symmetry_space_group_name_H-M "P 4/M B M"
_symmetry_group_IT_number 127
_symmetry_cell_setting 'tetragonal'
loop_
_space_group_symop_operation_xyz
x,y,z
-y,x,z
-x,-y,z
y,-x,z
1/2+x,1/2-y,-z
1/2-x,1/2+y,-z
1/2+y,1/2+x,-z
1/2-y,1/2-x,-z
-x,-y,-z
y,-x,-z
x,y,-z
-y,x,-z
1/2-x,1/2+y,z
1/2+x,1/2-y,z
1/2-y,1/2-x,z
1/2+y,1/2+x,z
loop_
_atom_site_type_symbol
_atom_site_label
_atom_site_fract_x
_atom_site_fract_y
_atom_site_fract_z
Si Si1 0.684313 0.518970 0.349080
Si Si2 0.592608 0.092608 0.090501
Si Si3 0.970482 0.813864 0.821676
Si Si4 0.505950 0.822198 0.500000
O O1 0.594965 0.616452 0.352915
O O2 0.732420 0.529345 0.264676
O O3 0.758419 0.518729 0.422791
O O4 0.554967 0.211301 0.124091
O O5 0.500000 0.000000 0.109214
O O6 0.600545 0.100545 0.000000
O O7 0.088642 0.877788 0.830767
O O8 0.630573 0.869427 0.500000
O O9 0.422957 0.922957 0.500000
#
# Coordination Sequence:
#
# PCOD9564431 Si02
#       4
#    16   8  16   8
#     4   9  19  38  61  83 110 148 198 247 293 348
#     4  11  26  42  62  96 132 162 199 256 320 374
#     4   9  21  43  68  93 122 164 211 256 312 375
#     4  11  24  35  46  80 124 157 196 237 290 342
#
# _framework density 18.607126000000001
#
# number of rings (size 3 to 8) (size 9 to 14) (size 15 to 20)
#    0.000    2.333    0.000    3.000    4.667    6.667 
#    6.000    1.667    0.000    0.000    0.000    0.000 
#    0.000    0.000    0.000    0.000    0.000    0.000 
#
# Total GULP energy -267572.785908 kJ/mol
# GULP energy per Si atom -5574.433040 kJ/mol
# Density = 1.856478 g / cm^3
# Si number density = 18.607126 Si / 1000 Ang^3
#
#
#
# Elastic Constant Matrix: (Units=GPa)
#
#
# Indices 1 2 3 4 5 6 
#
# 1 91.6393 39.1568 77.2908 0.0000 0.0000 0.0000
# 2 39.1568 91.6405 77.2912 0.0000 0.0000 0.0000
# 3 77.2908 77.2912 148.1634 0.0000 0.0000 0.0000
# 4 0.0000 0.0000 0.0000 50.3047 0.0000 0.0000
# 5 0.0000 0.0000 0.0000 0.0000 50.3058 0.0000
# 6 0.0000 0.0000 0.0000 0.0000 0.0000 26.1063
#
#
#
# Elastic Compliance Matrix: (Units=1/GPa)
#
#
# Indices 1 2 3 4 5 6 
#
# 1 0.019496 0.000442 -0.010401 0.000000 0.000000 0.000000
# 2 0.000442 0.019495 -0.010400 0.000000 0.000000 0.000000
# 3 -0.010401 -0.010400 0.017600 0.000000 0.000000 0.000000
# 4 0.000000 0.000000 0.000000 0.019879 0.000000 0.000000
# 5 0.000000 0.000000 0.000000 0.000000 0.019878 0.000000
# 6 0.000000 0.000000 0.000000 0.000000 0.000000 0.038305
#
#
# Mechanical properties :
#
#
# Convention : Reuss Voigt Hill
#
# Bulk Modulus (GPa) = 63.00036 79.88007 71.44022
# Shear Modulus (GPa) = 27.67586 34.52366 31.09976
#
# Velocity S-wave (km/s) = 3.86084 4.31211 4.09270
# Velocity P-wave (km/s) = 7.33529 8.23501 7.79814
#
# Compressibility (1/GPa) = 0.01587293
#
# Stress axis : x y z
#
# Youngs Moduli (GPa) = 51.29355 51.29426 56.81714
#
# Poissons Ratio (x) = -0.02266 0.59093
# Poissons Ratio (y) = -0.02266 0.59092
# Poissons Ratio (z) = 0.53348 0.53348
#
# Static dielectric constant tensor:
#      x y z
#    x 1.647420 0.000000 0.000000 
#    y 0.000000 1.647420 0.000000 
#    z 0.000000 0.000000 1.680980 
# 
# From -- ./inp_files/4791.got.cif
#   From: 2010.05.17/outbox.cif.g08.bks.cpg/sg127_3_cif.got.tgz:4791.got - 2010.05.20 12:03:00.
