data_PCOD9564936
_publ_section_title
;
Structure prediction by ZEFSAII (Michael W. Deem and Ramdas Pophale) SiO2 
 PCOD9564936
Probable space group: P 4/M N C
;
_chemical_formula_sum "Si O2"
_cell_formula_units_Z 80
_cell_length_a 12.577879
_cell_length_b 12.577879
_cell_length_c 26.379755
_cell_angle_alpha 90.000000
_cell_angle_beta 90.000000
_cell_angle_gamma 90.000000
_cell_volume 4173.357439
_symmetry_space_group_name_H-M "P 4/M N C"
_symmetry_group_IT_number 128
_symmetry_cell_setting 'tetragonal'
loop_
_space_group_symop_operation_xyz
x,y,z
-y,x,z
-x,-y,z
y,-x,z
1/2+x,1/2-y,1/2-z
1/2-x,1/2+y,1/2-z
1/2+y,1/2+x,1/2-z
1/2-y,1/2-x,1/2-z
-x,-y,-z
y,-x,-z
x,y,-z
-y,x,-z
1/2-x,1/2+y,1/2+z
1/2+x,1/2-y,1/2+z
1/2-y,1/2-x,1/2+z
1/2+y,1/2+x,1/2+z
loop_
_atom_site_type_symbol
_atom_site_label
_atom_site_fract_x
_atom_site_fract_y
_atom_site_fract_z
Si Si1 0.502294 0.879685 0.374711
Si Si2 0.062134 0.169097 0.557225
Si Si3 0.394706 0.776841 0.163049
Si Si4 0.172429 0.992035 0.939258
Si Si5 0.795166 0.373472 0.196293
O O1 0.402722 0.873186 0.336186
O O2 0.488728 0.787508 0.415244
O O3 0.613002 0.863872 0.345913
O O4 0.500000 0.000000 0.395710
O O5 0.078326 0.212047 0.500000
O O6 0.089968 0.244720 0.603775
O O7 0.939241 0.131416 0.561473
O O8 0.505367 0.754845 0.191555
O O9 0.299708 0.707575 0.184988
O O10 0.098266 0.892431 0.923976
O O11 0.178381 0.991765 0.000000
O O12 0.846868 0.346868 0.250000
#
# Coordination Sequence:
#
# PCOD9564936 Si02
#       5
#    16  16  16  16  16
#     4  10  23  39  59  88 123 162 200 249 316 375
#     4   9  17  33  60  94 128 162 208 267 321 373
#     4  11  22  41  67  90 131 165 210 263 312 379
#     4   9  18  36  62  87 117 161 207 254 298 350
#     4  11  26  42  64  91 120 167 211 260 317 373
#
# _framework density 19.169218999999998
#
# number of rings (size 3 to 8) (size 9 to 14) (size 15 to 20)
#    0.000    2.000    2.000    2.400    2.800    4.400 
#    0.000    4.000    0.000    0.000    0.000    0.000 
#    0.000    0.000    0.000    0.000    0.000    0.000 
#
# Total GULP energy -446797.357409 kJ/mol
# GULP energy per Si atom -5584.966968 kJ/mol
# Density = 1.912559 g / cm^3
# Si number density = 19.169219 Si / 1000 Ang^3
#
#
#
# Elastic Constant Matrix: (Units=GPa)
#
#
# Indices 1 2 3 4 5 6 
#
# 1 101.6090 64.8900 18.4071 0.0000 0.0000 0.0000
# 2 64.8900 101.6090 18.4071 0.0000 0.0000 0.0000
# 3 18.4071 18.4071 55.0029 0.0000 0.0000 0.0000
# 4 0.0000 0.0000 0.0000 14.6522 0.0000 0.0000
# 5 0.0000 0.0000 0.0000 0.0000 14.6522 0.0000
# 6 0.0000 0.0000 0.0000 0.0000 0.0000 17.7483
#
#
#
# Elastic Compliance Matrix: (Units=1/GPa)
#
#
# Indices 1 2 3 4 5 6 
#
# 1 0.016860 -0.010374 -0.002171 0.000000 0.000000 0.000000
# 2 -0.010374 0.016860 -0.002171 0.000000 0.000000 0.000000
# 3 -0.002171 -0.002171 0.019634 0.000000 0.000000 0.000000
# 4 0.000000 0.000000 0.000000 0.068249 0.000000 0.000000
# 5 0.000000 0.000000 0.000000 0.000000 0.068249 0.000000
# 6 0.000000 0.000000 0.000000 0.000000 0.000000 0.056343
#
#
# Mechanical properties :
#
#
# Convention : Reuss Voigt Hill
#
# Bulk Modulus (GPa) = 41.80026 51.29214 46.54620
# Shear Modulus (GPa) = 17.63050 19.84501 18.73776
#
# Velocity S-wave (km/s) = 3.03599 3.22103 3.12988
# Velocity P-wave (km/s) = 5.84320 6.37566 6.11522
#
# Compressibility (1/GPa) = 0.02392330
#
# Stress axis : x y z
#
# Youngs Moduli (GPa) = 59.31237 59.31237 50.93301
#
# Poissons Ratio (x) = 0.61530 0.11055
# Poissons Ratio (y) = 0.61530 0.11055
# Poissons Ratio (z) = 0.12874 0.12874
#
# Static dielectric constant tensor:
#      x y z
#    x 1.665420 0.000000 0.000000 
#    y 0.000000 1.665420 0.000000 
#    z 0.000000 0.000000 1.642170 
# 
# From -- ./inp_files/7151.got.cif
#   From: 2010.05.17/outbox.cif.g08.bks.cpg/sg128_4_cif.got.tgz:7151.got - 2010.05.20 12:07:25.
