data_PCOD9564640
_publ_section_title
;
Structure prediction by ZEFSAII (Michael W. Deem and Ramdas Pophale) SiO2 
 PCOD9564640
Probable space group: P 4/M N C
;
_chemical_formula_sum "Si O2"
_cell_formula_units_Z 104
_cell_length_a 17.888606
_cell_length_b 17.888606
_cell_length_c 18.019450
_cell_angle_alpha 90.000000
_cell_angle_beta 90.000000
_cell_angle_gamma 90.000000
_cell_volume 5766.264086
_symmetry_space_group_name_H-M "P 4/M N C"
_symmetry_group_IT_number 128
_symmetry_cell_setting 'tetragonal'
loop_
_space_group_symop_operation_xyz
x,y,z
-y,x,z
-x,-y,z
y,-x,z
1/2+x,1/2-y,1/2-z
1/2-x,1/2+y,1/2-z
1/2+y,1/2+x,1/2-z
1/2-y,1/2-x,1/2-z
-x,-y,-z
y,-x,-z
x,y,-z
-y,x,-z
1/2-x,1/2+y,1/2+z
1/2+x,1/2-y,1/2+z
1/2-y,1/2-x,1/2+z
1/2+y,1/2+x,1/2+z
loop_
_atom_site_type_symbol
_atom_site_label
_atom_site_fract_x
_atom_site_fract_y
_atom_site_fract_z
Si Si1 0.839004 0.236758 0.801635
Si Si2 0.809704 0.089203 0.863321
Si Si3 0.416754 0.591801 0.500000
Si Si4 0.009303 0.789628 0.269003
Si Si5 0.461916 0.195908 0.586510
Si Si6 0.008838 0.125813 0.416627
Si Si7 0.998748 0.382773 0.222890
O O1 0.793890 0.293890 0.750000
O O2 0.786282 0.170412 0.832524
O O3 0.903870 0.199566 0.751093
O O4 0.888610 0.274992 0.867722
O O5 0.871706 0.109833 0.924011
O O6 0.833267 0.040210 0.792046
O O7 0.752684 0.032420 0.903813
O O8 0.398615 0.505529 0.500000
O O9 0.994982 0.701358 0.254261
O O10 0.990033 0.815180 0.350913
O O11 0.446303 0.185474 0.500000
O O12 0.490230 0.125170 0.634179
O O13 0.011071 0.157666 0.500000
O O14 0.933432 0.076378 0.409796
O O15 0.924180 0.424180 0.250000
O O16 0.067327 0.432674 0.250000
#
# Coordination Sequence:
#
# PCOD9564640 Si02
#       7
#    16  16   8  16  16  16  16
#     4  10  21  36  55  78 110 151 194 231 274 340
#     4  10  20  31  53  77 112 147 180 222 276 333
#     4  11  20  30  46  76 116 151 184 218 266 326
#     4  10  19  34  55  80 104 144 189 230 276 333
#     4  10  20  35  56  82 112 149 185 230 289 338
#     4   9  18  33  53  76 107 144 181 223 266 313
#     4   9  19  38  59  77 103 139 180 231 290 345
#
# _framework density 18.035941000000001
#
# number of rings (size 3 to 8) (size 9 to 14) (size 15 to 20)
#    0.000    2.538    0.769    5.077    1.077    2.462 
#    0.000    6.923    0.000    2.769    0.000    0.000 
#    0.000    0.000    0.000    0.000    0.000    0.000 
#
# Total GULP energy -579104.116422 kJ/mol
# GULP energy per Si atom -5568.308812 kJ/mol
# Density = 1.799489 g / cm^3
# Si number density = 18.035941 Si / 1000 Ang^3
#
#
#
# Elastic Constant Matrix: (Units=GPa)
#
#
# Indices 1 2 3 4 5 6 
#
# 1 68.2656 14.8080 42.3422 0.0000 0.0000 0.0000
# 2 14.8080 68.2663 42.3423 0.0000 0.0000 0.0000
# 3 42.3422 42.3423 167.5511 0.0000 0.0000 0.0000
# 4 0.0000 0.0000 0.0000 16.6458 0.0000 0.0000
# 5 0.0000 0.0000 0.0000 0.0000 16.6473 0.0000
# 6 0.0000 0.0000 0.0000 0.0000 0.0000 18.9295
#
#
#
# Elastic Compliance Matrix: (Units=1/GPa)
#
#
# Indices 1 2 3 4 5 6 
#
# 1 0.017460 -0.001246 -0.004098 0.000000 0.000000 0.000000
# 2 -0.001246 0.017460 -0.004098 0.000000 0.000000 0.000000
# 3 -0.004098 -0.004098 0.008039 0.000000 0.000000 0.000000
# 4 0.000000 0.000000 0.000000 0.060075 0.000000 0.000000
# 5 0.000000 0.000000 0.000000 0.000000 0.060070 0.000000
# 6 0.000000 0.000000 0.000000 0.000000 0.000000 0.052828
#
#
# Mechanical properties :
#
#
# Convention : Reuss Voigt Hill
#
# Bulk Modulus (GPa) = 41.53178 55.89645 48.71411
# Shear Modulus (GPa) = 20.58961 24.08389 22.33675
#
# Velocity S-wave (km/s) = 3.38240 3.65818 3.52299
# Velocity P-wave (km/s) = 6.19124 6.99300 6.60430
#
# Compressibility (1/GPa) = 0.02407795
#
# Stress axis : x y z
#
# Youngs Moduli (GPa) = 57.27217 57.27281 124.38808
#
# Poissons Ratio (x) = 0.07136 0.50970
# Poissons Ratio (y) = 0.07135 0.50969
# Poissons Ratio (z) = 0.23468 0.23468
#
# Static dielectric constant tensor:
#      x y z
#    x 1.642870 0.000000 0.000000 
#    y 0.000000 1.642870 0.000000 
#    z 0.000000 0.000000 1.716160 
# 
# From -- ./inp_files/4874.got.cif
#   From: 2010.05.17/outbox.cif.g08.bks.cpg/sg128_3_cif.got.tgz:4874.got - 2010.05.20 12:07:25.
