data_PCOD9564871
_publ_section_title
;
Structure prediction by ZEFSAII (Michael W. Deem and Ramdas Pophale) SiO2 
 PCOD9564871
Probable space group: P 4/M N C
;
_chemical_formula_sum "Si O2"
_cell_formula_units_Z 112
_cell_length_a 13.720215
_cell_length_b 13.720215
_cell_length_c 27.037953
_cell_angle_alpha 90.000000
_cell_angle_beta 90.000000
_cell_angle_gamma 90.000000
_cell_volume 5089.740526
_symmetry_space_group_name_H-M "P 4/M N C"
_symmetry_group_IT_number 128
_symmetry_cell_setting 'tetragonal'
loop_
_space_group_symop_operation_xyz
x,y,z
-y,x,z
-x,-y,z
y,-x,z
1/2+x,1/2-y,1/2-z
1/2-x,1/2+y,1/2-z
1/2+y,1/2+x,1/2-z
1/2-y,1/2-x,1/2-z
-x,-y,-z
y,-x,-z
x,y,-z
-y,x,-z
1/2-x,1/2+y,1/2+z
1/2+x,1/2-y,1/2+z
1/2-y,1/2-x,1/2+z
1/2+y,1/2+x,1/2+z
loop_
_atom_site_type_symbol
_atom_site_label
_atom_site_fract_x
_atom_site_fract_y
_atom_site_fract_z
Si Si1 0.550332 0.208604 0.500000
Si Si2 0.097971 0.129771 0.150293
Si Si3 0.374393 0.765071 0.146090
Si Si4 0.925894 0.852276 0.740268
Si Si5 0.386351 0.977273 0.893066
Si Si6 0.178725 0.715178 0.105777
Si Si7 0.467264 0.661668 0.055275
Si Si8 0.168045 0.752798 0.000000
O O1 0.545564 0.146856 0.550641
O O2 0.448722 0.269564 0.500000
O O3 0.647689 0.272154 0.500000
O O4 0.112175 0.174929 0.204766
O O5 0.166379 0.172508 0.108406
O O6 0.982976 0.128582 0.146633
O O7 0.406665 0.728546 0.199437
O O8 0.365122 0.881621 0.139826
O O9 0.275513 0.702236 0.136901
O O10 0.445635 0.732692 0.100924
O O11 0.041196 0.875803 0.735258
O O12 0.500000 0.000000 0.891866
O O13 0.331874 0.077573 0.877028
O O14 0.192292 0.691018 0.048641
O O15 0.390498 0.572036 0.058596
O O16 0.456301 0.705928 0.000000
#
# Coordination Sequence:
#
# PCOD9564871 Si02
#       8
#     8  16  16  16  16  16  16   8
#     4  10  21  45  60  88 128 175 220 280 330 402
#     4   9  19  39  66  95 125 158 208 273 332 387
#     4  12  23  36  67  89 127 175 217 269 317 396
#     4   9  20  39  66 102 128 154 211 275 334 396
#     4  11  26  42  61  94 137 179 227 268 335 406
#     4  11  24  41  61  90 129 175 222 270 318 395
#     4   9  20  37  57  88 123 156 205 266 327 388
#     4  10  22  39  62  90 126 159 223 274 324 385
#
# _framework density 22.005051000000002
#
# number of rings (size 3 to 8) (size 9 to 14) (size 15 to 20)
#    0.000    1.857    1.429    3.214    8.000    1.857 
#    0.000    0.000    0.000    0.000    0.000    0.000 
#    0.000    0.000    0.000    0.000    0.000    0.000 
#
# Total GULP energy -625024.243295 kJ/mol
# GULP energy per Si atom -5580.573601 kJ/mol
# Density = 2.195497 g / cm^3
# Si number density = 22.005051 Si / 1000 Ang^3
#
#
#
# Elastic Constant Matrix: (Units=GPa)
#
#
# Indices 1 2 3 4 5 6 
#
# 1 85.7692 30.9913 21.5629 0.0000 0.0000 0.0000
# 2 30.9913 85.7692 21.5629 0.0000 0.0000 0.0000
# 3 21.5629 21.5629 66.4815 0.0000 0.0000 0.0000
# 4 0.0000 0.0000 0.0000 25.5851 0.0000 0.0000
# 5 0.0000 0.0000 0.0000 0.0000 25.5851 0.0000
# 6 0.0000 0.0000 0.0000 0.0000 0.0000 25.5930
#
#
#
# Elastic Compliance Matrix: (Units=1/GPa)
#
#
# Indices 1 2 3 4 5 6 
#
# 1 0.013993 -0.004263 -0.003156 0.000000 0.000000 0.000000
# 2 -0.004263 0.013993 -0.003156 0.000000 0.000000 0.000000
# 3 -0.003156 -0.003156 0.017089 0.000000 0.000000 0.000000
# 4 0.000000 0.000000 0.000000 0.039085 0.000000 0.000000
# 5 0.000000 0.000000 0.000000 0.000000 0.039085 0.000000
# 6 0.000000 0.000000 0.000000 0.000000 0.000000 0.039073
#
#
# Mechanical properties :
#
#
# Convention : Reuss Voigt Hill
#
# Bulk Modulus (GPa) = 41.79614 42.91711 42.35663
# Shear Modulus (GPa) = 26.11746 26.27948 26.19847
#
# Velocity S-wave (km/s) = 3.44886 3.45954 3.45420
# Velocity P-wave (km/s) = 5.90717 5.95848 5.93288
#
# Compressibility (1/GPa) = 0.02392565
#
# Stress axis : x y z
#
# Youngs Moduli (GPa) = 71.46505 71.46505 58.51725
#
# Poissons Ratio (x) = 0.30463 0.18468
# Poissons Ratio (y) = 0.30463 0.18468
# Poissons Ratio (z) = 0.22554 0.22554
#
# Static dielectric constant tensor:
#      x y z
#    x 1.832790 0.000000 0.000000 
#    y 0.000000 1.832790 0.000000 
#    z 0.000000 0.000000 1.800870 
# 
# From -- ./inp_files/6944.got.cif
#   From: 2010.05.17/outbox.cif.g08.bks.cpg/sg128_4_cif.got.tgz:6944.got - 2010.05.20 12:07:25.
