data_PCOD9564900
_publ_section_title
;
Structure prediction by ZEFSAII (Michael W. Deem and Ramdas Pophale) SiO2 
 PCOD9564900
Probable space group: P 4/M N C
;
_chemical_formula_sum "Si O2"
_cell_formula_units_Z 88
_cell_length_a 11.300439
_cell_length_b 11.300439
_cell_length_c 32.225971
_cell_angle_alpha 90.000000
_cell_angle_beta 90.000000
_cell_angle_gamma 90.000000
_cell_volume 4115.253970
_symmetry_space_group_name_H-M "P 4/M N C"
_symmetry_group_IT_number 128
_symmetry_cell_setting 'tetragonal'
loop_
_space_group_symop_operation_xyz
x,y,z
-y,x,z
-x,-y,z
y,-x,z
1/2+x,1/2-y,1/2-z
1/2-x,1/2+y,1/2-z
1/2+y,1/2+x,1/2-z
1/2-y,1/2-x,1/2-z
-x,-y,-z
y,-x,-z
x,y,-z
-y,x,-z
1/2-x,1/2+y,1/2+z
1/2+x,1/2-y,1/2+z
1/2-y,1/2-x,1/2+z
1/2+y,1/2+x,1/2+z
loop_
_atom_site_type_symbol
_atom_site_label
_atom_site_fract_x
_atom_site_fract_y
_atom_site_fract_z
Si Si1 0.059975 0.654134 0.546988
Si Si2 0.042688 0.193459 0.248993
Si Si3 0.210433 0.284474 0.953290
Si Si4 0.148091 0.869893 0.874144
Si Si5 0.352611 0.844858 0.181015
Si Si6 0.500000 0.000000 0.882716
O O1 0.753225 0.672480 0.500000
O O2 0.148898 0.762894 0.549799
O O3 0.086918 0.566344 0.584890
O O4 0.922639 0.684978 0.552614
O O5 0.067935 0.295395 0.215408
O O6 0.070966 0.249808 0.293807
O O7 0.913847 0.136483 0.243843
O O8 0.153042 0.197096 0.920131
O O9 0.423208 0.105459 0.000000
O O10 0.236862 0.799947 0.843756
O O11 0.011298 0.840333 0.866723
O O12 0.431475 0.910792 0.147045
#
# Coordination Sequence:
#
# PCOD9564900 Si02
#       6
#    16  16  16  16  16   8
#     4  10  22  41  64  91 133 177 222 271 326 385
#     4  10  24  46  67  93 128 167 209 262 328 392
#     4  10  22  40  63  93 126 177 227 273 330 389
#     4  11  23  41  63  93 133 174 218 274 335 393
#     4  11  24  41  69  97 123 168 213 267 319 399
#     4  12  23  41  62 100 132 168 216 269 327 378
#
# _framework density 21.383858
#
# number of rings (size 3 to 8) (size 9 to 14) (size 15 to 20)
#    0.000    1.455    1.818    2.455    0.000    9.818 
#    0.000    2.727    0.000    0.000    0.000    0.000 
#    0.000    0.000    0.000    0.000    0.000    0.000 
#
# Total GULP energy -491639.195983 kJ/mol
# GULP energy per Si atom -5586.809045 kJ/mol
# Density = 2.133519 g / cm^3
# Si number density = 21.383858 Si / 1000 Ang^3
#
#
#
# Elastic Constant Matrix: (Units=GPa)
#
#
# Indices 1 2 3 4 5 6 
#
# 1 51.2844 12.4878 23.0087 0.0000 0.0000 0.0000
# 2 12.4878 51.2844 23.0087 0.0000 0.0000 0.0000
# 3 23.0087 23.0087 125.9996 0.0000 0.0000 0.0000
# 4 0.0000 0.0000 0.0000 32.0364 0.0000 0.0000
# 5 0.0000 0.0000 0.0000 0.0000 32.0364 0.0000
# 6 0.0000 0.0000 0.0000 0.0000 0.0000 23.8163
#
#
#
# Elastic Compliance Matrix: (Units=1/GPa)
#
#
# Indices 1 2 3 4 5 6 
#
# 1 0.021918 -0.003857 -0.003298 0.000000 0.000000 0.000000
# 2 -0.003857 0.021918 -0.003298 0.000000 0.000000 0.000000
# 3 -0.003298 -0.003298 0.009141 0.000000 0.000000 0.000000
# 4 0.000000 0.000000 0.000000 0.031215 0.000000 0.000000
# 5 0.000000 0.000000 0.000000 0.000000 0.031215 0.000000
# 6 0.000000 0.000000 0.000000 0.000000 0.000000 0.041988
#
#
# Mechanical properties :
#
#
# Convention : Reuss Voigt Hill
#
# Bulk Modulus (GPa) = 31.18159 38.39763 34.78961
# Shear Modulus (GPa) = 26.45624 28.91535 27.68580
#
# Velocity S-wave (km/s) = 3.52121 3.68122 3.60211
# Velocity P-wave (km/s) = 5.58081 6.00532 5.79695
#
# Compressibility (1/GPa) = 0.03207021
#
# Stress axis : x y z
#
# Youngs Moduli (GPa) = 45.62447 45.62447 109.39677
#
# Poissons Ratio (x) = 0.17599 0.36080
# Poissons Ratio (y) = 0.17599 0.36080
# Poissons Ratio (z) = 0.15047 0.15047
#
# Static dielectric constant tensor:
#      x y z
#    x 1.775550 0.000000 0.000000 
#    y 0.000000 1.775550 0.000000 
#    z 0.000000 0.000000 1.808210 
# 
# From -- ./inp_files/7268.got.cif
#   From: 2010.05.17/outbox.cif.g08.bks.cpg/sg128_4_cif.got.tgz:7268.got - 2010.05.20 12:07:25.
