data_PCOD9564174
_publ_section_title
;
Structure prediction by ZEFSAII (Michael W. Deem and Ramdas Pophale) SiO2 
 PCOD9564174
Probable space group: P 4/M B M
;
_chemical_formula_sum "Si O2"
_cell_formula_units_Z 64
_cell_length_a 20.277218
_cell_length_b 20.277218
_cell_length_c 8.717219
_cell_angle_alpha 90.000000
_cell_angle_beta 90.000000
_cell_angle_gamma 90.000000
_cell_volume 3584.220317
_symmetry_space_group_name_H-M "P 4/M B M"
_symmetry_group_IT_number 127
_symmetry_cell_setting 'tetragonal'
loop_
_space_group_symop_operation_xyz
x,y,z
-y,x,z
-x,-y,z
y,-x,z
1/2+x,1/2-y,-z
1/2-x,1/2+y,-z
1/2+y,1/2+x,-z
1/2-y,1/2-x,-z
-x,-y,-z
y,-x,-z
x,y,-z
-y,x,-z
1/2-x,1/2+y,z
1/2+x,1/2-y,z
1/2-y,1/2-x,z
1/2+y,1/2+x,z
loop_
_atom_site_type_symbol
_atom_site_label
_atom_site_fract_x
_atom_site_fract_y
_atom_site_fract_z
Si Si1 0.645185 0.250457 0.185653
Si Si2 0.889939 0.500180 0.670421
Si Si3 0.502909 0.758797 0.176685
Si Si4 0.354511 0.251231 0.683255
O O1 0.681727 0.181727 0.232743
O O2 0.569730 0.260749 0.238441
O O3 0.692427 0.308181 0.245320
O O4 0.643930 0.250717 0.000000
O O5 0.857556 0.498818 0.500000
O O6 0.937581 0.437581 0.678228
O O7 0.837596 0.499639 0.803895
O O8 0.936519 0.563482 0.677510
O O9 0.570653 0.740465 0.260808
O O10 0.507846 0.738391 0.000000
O O11 0.352619 0.255377 0.500000
O O12 0.318659 0.181342 0.726216
#
# Coordination Sequence:
#
# PCOD9564174 Si02
#       4
#    16  16  16  16
#     4   9  19  36  55  76 104 136 172 214 258 306
#     4   9  18  31  45  65  98 137 172 206 245 293
#     4  11  21  32  51  77 103 133 169 211 260 310
#     4  10  21  36  54  77 105 138 176 215 256 305
#
# _framework density 17.856045999999999
#
# number of rings (size 3 to 8) (size 9 to 14) (size 15 to 20)
#    0.000    2.250    0.000    3.750    0.000    8.500 
#    0.000    3.750    0.000    0.750    0.000    5.250 
#    0.000    0.000    0.000    0.000    0.000    0.000 
#
# Total GULP energy -356692.220536 kJ/mol
# GULP energy per Si atom -5573.315946 kJ/mol
# Density = 1.781541 g / cm^3
# Si number density = 17.856046 Si / 1000 Ang^3
#
#
#
# Elastic Constant Matrix: (Units=GPa)
#
#
# Indices 1 2 3 4 5 6 
#
# 1 107.5244 41.6741 18.9034 0.0000 0.0000 0.0000
# 2 41.6741 107.5244 18.9034 0.0000 0.0000 0.0000
# 3 18.9034 18.9034 17.5811 0.0000 0.0000 0.0000
# 4 0.0000 0.0000 0.0000 20.5036 0.0000 0.0000
# 5 0.0000 0.0000 0.0000 0.0000 20.5036 0.0000
# 6 0.0000 0.0000 0.0000 0.0000 0.0000 16.2346
#
#
#
# Elastic Compliance Matrix: (Units=1/GPa)
#
#
# Indices 1 2 3 4 5 6 
#
# 1 0.012199 -0.002987 -0.009905 0.000000 0.000000 0.000000
# 2 -0.002987 0.012199 -0.009905 0.000000 0.000000 0.000000
# 3 -0.009905 -0.009905 0.078180 0.000000 0.000000 0.000000
# 4 0.000000 0.000000 0.000000 0.048772 0.000000 0.000000
# 5 0.000000 0.000000 0.000000 0.000000 0.048772 0.000000
# 6 0.000000 0.000000 0.000000 0.000000 0.000000 0.061597
#
#
# Mechanical properties :
#
#
# Convention : Reuss Voigt Hill
#
# Bulk Modulus (GPa) = 17.54899 43.51021 30.52960
# Shear Modulus (GPa) = 15.32293 21.65829 18.49061
#
# Velocity S-wave (km/s) = 2.93258 3.48651 3.22147
# Velocity P-wave (km/s) = 4.61693 6.37399 5.56524
#
# Compressibility (1/GPa) = 0.05698333
#
# Stress axis : x y z
#
# Youngs Moduli (GPa) = 81.97244 81.97244 12.79103
#
# Poissons Ratio (x) = 0.24483 0.12670
# Poissons Ratio (y) = 0.24483 0.12670
# Poissons Ratio (z) = 0.81197 0.81197
#
# Static dielectric constant tensor:
#      x y z
#    x 1.617510 0.000000 0.000000 
#    y 0.000000 1.617510 0.000000 
#    z 0.000000 0.000000 1.638450 
# 
# From -- ./inp_files/1379.got.cif
#   From: 2010.05.17/outbox.cif.g08.bks.cpg/sg127_1_cif.got.tgz:1379.got - 2010.05.20 12:03:00.
