data_PCOD9564551
_publ_section_title
;
Structure prediction by ZEFSAII (Michael W. Deem and Ramdas Pophale) SiO2 
 PCOD9564551
Probable space group: P 4/M N C
;
_chemical_formula_sum "Si O2"
_cell_formula_units_Z 96
_cell_length_a 15.189016
_cell_length_b 15.189016
_cell_length_c 26.597471
_cell_angle_alpha 90.000000
_cell_angle_beta 90.000000
_cell_angle_gamma 90.000000
_cell_volume 6136.201651
_symmetry_space_group_name_H-M "P 4/M N C"
_symmetry_group_IT_number 128
_symmetry_cell_setting 'tetragonal'
loop_
_space_group_symop_operation_xyz
x,y,z
-y,x,z
-x,-y,z
y,-x,z
1/2+x,1/2-y,1/2-z
1/2-x,1/2+y,1/2-z
1/2+y,1/2+x,1/2-z
1/2-y,1/2-x,1/2-z
-x,-y,-z
y,-x,-z
x,y,-z
-y,x,-z
1/2-x,1/2+y,1/2+z
1/2+x,1/2-y,1/2+z
1/2-y,1/2-x,1/2+z
1/2+y,1/2+x,1/2+z
loop_
_atom_site_type_symbol
_atom_site_label
_atom_site_fract_x
_atom_site_fract_y
_atom_site_fract_z
Si Si1 0.669969 0.719508 0.208276
Si Si2 0.113773 0.575534 0.189421
Si Si3 0.711818 0.003231 0.141002
Si Si4 0.361354 0.548525 0.286936
Si Si5 0.160989 0.373727 0.191229
Si Si6 0.501678 0.354821 0.560259
O O1 0.730765 0.769236 0.250000
O O2 0.630833 0.798758 0.176683
O O3 0.585076 0.676202 0.234673
O O4 0.736218 0.649322 0.184470
O O5 0.089666 0.589666 0.250000
O O6 0.134624 0.473853 0.180278
O O7 0.040319 0.617845 0.153684
O O8 0.696679 0.102187 0.161067
O O9 0.761287 0.003490 0.087905
O O10 0.779953 0.947529 0.175357
O O11 0.393115 0.448314 0.293369
O O12 0.138179 0.361822 0.250000
O O13 0.585851 0.416095 0.574406
O O14 0.501595 0.346212 0.500000
#
# Coordination Sequence:
#
# PCOD9564551 Si02
#       6
#    16  16  16  16  16  16
#     4  10  18  31  43  62  92 131 175 216 241 286
#     4  11  20  33  45  68 103 139 176 211 250 307
#     4  12  21  30  51  73 101 134 175 213 255 311
#     4  11  20  29  42  65  95 129 169 212 250 288
#     4  11  21  31  48  67 103 142 178 210 252 303
#     4   9  20  38  57  78 105 134 170 222 276 319
#
# _framework density 15.644857999999999
#
# number of rings (size 3 to 8) (size 9 to 14) (size 15 to 20)
#    0.000    1.333    5.000    5.000    2.333    1.333 
#    0.000    0.000    0.000    2.000    0.000    0.000 
#    0.000    0.000    0.000    0.000    0.000    5.000 
#
# Total GULP energy -534538.894749 kJ/mol
# GULP energy per Si atom -5568.113487 kJ/mol
# Density = 1.560925 g / cm^3
# Si number density = 15.644858 Si / 1000 Ang^3
#
#
#
# Elastic Constant Matrix: (Units=GPa)
#
#
# Indices 1 2 3 4 5 6 
#
# 1 78.9028 27.0749 17.2656 0.0000 0.0000 0.0000
# 2 27.0749 78.9015 17.2652 0.0000 0.0000 0.0000
# 3 17.2656 17.2652 36.1896 0.0000 0.0000 0.0000
# 4 0.0000 0.0000 0.0000 18.9358 0.0000 0.0000
# 5 0.0000 0.0000 0.0000 0.0000 18.9360 0.0000
# 6 0.0000 0.0000 0.0000 0.0000 0.0000 29.9457
#
#
#
# Elastic Compliance Matrix: (Units=1/GPa)
#
#
# Indices 1 2 3 4 5 6 
#
# 1 0.015234 -0.004061 -0.005330 0.000000 0.000000 0.000000
# 2 -0.004061 0.015234 -0.005330 0.000000 0.000000 0.000000
# 3 -0.005330 -0.005330 0.032718 0.000000 0.000000 0.000000
# 4 0.000000 0.000000 0.000000 0.052810 0.000000 0.000000
# 5 0.000000 0.000000 0.000000 0.000000 0.052809 0.000000
# 6 0.000000 0.000000 0.000000 0.000000 0.000000 0.033394
#
#
# Mechanical properties :
#
#
# Convention : Reuss Voigt Hill
#
# Bulk Modulus (GPa) = 29.63620 35.24504 32.44062
# Shear Modulus (GPa) = 20.58543 22.38937 21.48740
#
# Velocity S-wave (km/s) = 3.63132 3.78709 3.71003
# Velocity P-wave (km/s) = 6.04700 6.45754 6.25564
#
# Compressibility (1/GPa) = 0.03374252
#
# Stress axis : x y z
#
# Youngs Moduli (GPa) = 65.64378 65.64292 30.56395
#
# Poissons Ratio (x) = 0.26658 0.16292
# Poissons Ratio (y) = 0.26658 0.16291
# Poissons Ratio (z) = 0.34991 0.34989
#
# Static dielectric constant tensor:
#      x y z
#    x 1.624040 0.000000 0.000000 
#    y 0.000000 1.624030 0.000000 
#    z 0.000000 0.000000 1.508740 
# 
# From -- ./inp_files/7343.got.cif
#   From: 2010.05.17/outbox.cif.g08.bks.cpg/sg128_4_cif.got.tgz:7343.got - 2010.05.20 12:07:25.
