data_PCOD9564361
_publ_section_title
;
Structure prediction by ZEFSAII (Michael W. Deem and Ramdas Pophale) SiO2 
 PCOD9564361
Probable space group: P 4/M B M
;
_chemical_formula_sum "Si O2"
_cell_formula_units_Z 56
_cell_length_a 14.226428
_cell_length_b 14.226428
_cell_length_c 16.194538
_cell_angle_alpha 90.000000
_cell_angle_beta 90.000000
_cell_angle_gamma 90.000000
_cell_volume 3277.632848
_symmetry_space_group_name_H-M "P 4/M B M"
_symmetry_group_IT_number 127
_symmetry_cell_setting 'tetragonal'
loop_
_space_group_symop_operation_xyz
x,y,z
-y,x,z
-x,-y,z
y,-x,z
1/2+x,1/2-y,-z
1/2-x,1/2+y,-z
1/2+y,1/2+x,-z
1/2-y,1/2-x,-z
-x,-y,-z
y,-x,-z
x,y,-z
-y,x,-z
1/2-x,1/2+y,z
1/2+x,1/2-y,z
1/2-y,1/2-x,z
1/2+y,1/2+x,z
loop_
_atom_site_type_symbol
_atom_site_label
_atom_site_fract_x
_atom_site_fract_y
_atom_site_fract_z
Si Si1 0.543050 0.653343 0.000000
Si Si2 0.645622 0.438352 0.500000
Si Si3 0.919172 0.580829 0.404703
Si Si4 0.346519 0.542851 0.180626
Si Si5 0.276285 0.064517 0.342374
O O1 0.437852 0.610637 0.000000
O O2 0.555910 0.699475 0.910376
O O3 0.618369 0.548494 0.500000
O O4 0.705726 0.418238 0.581686
O O5 0.896460 0.603540 0.500000
O O6 0.830711 0.533240 0.360693
O O7 0.000000 0.500000 0.406627
O O8 0.389014 0.437379 0.185817
O O9 0.278440 0.560401 0.256557
O O10 0.353764 0.146237 0.341346
#
# Coordination Sequence:
#
# PCOD9564361 Si02
#       5
#     8   8   8  16  16
#     4   7  12  26  53  77  98 135 172 201 250 313
#     4  11  23  39  54  73 104 137 168 215 265 298
#     4   9  18  36  56  67  95 141 177 208 242 292
#     4   9  17  33  54  79 107 134 168 213 260 303
#     4  11  21  36  53  77 105 137 176 209 251 307
#
# _framework density 17.085502000000002
#
# number of rings (size 3 to 8) (size 9 to 14) (size 15 to 20)
#    0.000    2.429    1.429    3.857    0.000    2.286 
#   12.857    0.714    0.000    0.857    0.000    3.000 
#    0.000    0.000    0.000    0.000    0.000    0.000 
#
# Total GULP energy -312171.747690 kJ/mol
# GULP energy per Si atom -5574.495494 kJ/mol
# Density = 1.704662 g / cm^3
# Si number density = 17.085502 Si / 1000 Ang^3
#
#
#
# Elastic Constant Matrix: (Units=GPa)
#
#
# Indices 1 2 3 4 5 6 
#
# 1 68.3967 18.5497 58.8470 0.0000 0.0000 0.0000
# 2 18.5497 68.3969 58.8470 0.0000 0.0000 0.0000
# 3 58.8470 58.8470 207.8984 0.0000 0.0000 0.0000
# 4 0.0000 0.0000 0.0000 0.1356 0.0000 0.0000
# 5 0.0000 0.0000 0.0000 0.0000 0.1356 0.0000
# 6 0.0000 0.0000 0.0000 0.0000 0.0000 23.4395
#
#
#
# Elastic Compliance Matrix: (Units=1/GPa)
#
#
# Indices 1 2 3 4 5 6 
#
# 1 0.019353 -0.000708 -0.005278 0.000000 0.000000 0.000000
# 2 -0.000708 0.019353 -0.005278 0.000000 0.000000 0.000000
# 3 -0.005278 -0.005278 0.007798 0.000000 0.000000 0.000000
# 4 0.000000 0.000000 0.000000 7.375425 0.000000 0.000000
# 5 0.000000 0.000000 0.000000 0.000000 7.374222 0.000000
# 6 0.000000 0.000000 0.000000 0.000000 0.000000 0.042663
#
#
# Mechanical properties :
#
#
# Convention : Reuss Voigt Hill
#
# Bulk Modulus (GPa) = 41.70518 68.57549 55.14034
# Shear Modulus (GPa) = 0.33626 18.63869 9.48748
#
# Velocity S-wave (km/s) = 0.44412 3.30647 2.35902
# Velocity P-wave (km/s) = 4.97249 7.40276 6.30581
#
# Compressibility (1/GPa) = 0.02397783
#
# Stress axis : x y z
#
# Youngs Moduli (GPa) = 51.67045 51.67061 128.24094
#
# Poissons Ratio (x) = 0.03658 0.67682
# Poissons Ratio (y) = 0.03658 0.67682
# Poissons Ratio (z) = 0.27270 0.27270
#
# Static dielectric constant tensor:
#      x y z
#    x 1.571190 0.000000 0.000000 
#    y 0.000000 1.571190 0.000000 
#    z 0.000000 0.000000 1.588330 
# 
# From -- ./inp_files/4041.got.cif
#   From: 2010.05.17/outbox.cif.g08.bks.cpg/sg127_3_cif.got.tgz:4041.got - 2010.05.20 12:03:00.
