data_PCOD9564704
_publ_section_title
;
Structure prediction by ZEFSAII (Michael W. Deem and Ramdas Pophale) SiO2 
 PCOD9564704
Probable space group: P 4/M N C
;
_chemical_formula_sum "Si O2"
_cell_formula_units_Z 88
_cell_length_a 12.156020
_cell_length_b 12.156020
_cell_length_c 27.476809
_cell_angle_alpha 90.000000
_cell_angle_beta 90.000000
_cell_angle_gamma 90.000000
_cell_volume 4060.215705
_symmetry_space_group_name_H-M "P 4/M N C"
_symmetry_group_IT_number 128
_symmetry_cell_setting 'tetragonal'
loop_
_space_group_symop_operation_xyz
x,y,z
-y,x,z
-x,-y,z
y,-x,z
1/2+x,1/2-y,1/2-z
1/2-x,1/2+y,1/2-z
1/2+y,1/2+x,1/2-z
1/2-y,1/2-x,1/2-z
-x,-y,-z
y,-x,-z
x,y,-z
-y,x,-z
1/2-x,1/2+y,1/2+z
1/2+x,1/2-y,1/2+z
1/2-y,1/2-x,1/2+z
1/2+y,1/2+x,1/2+z
loop_
_atom_site_type_symbol
_atom_site_label
_atom_site_fract_x
_atom_site_fract_y
_atom_site_fract_z
Si Si1 0.298008 0.293437 0.606762
Si Si2 0.806801 0.557471 0.140112
Si Si3 0.369750 0.363725 0.500000
Si Si4 0.314969 0.519853 0.052789
Si Si5 0.289001 0.993826 0.842677
Si Si6 0.685692 0.501514 0.761691
O O1 0.177704 0.256549 0.625092
O O2 0.317668 0.310430 0.549107
O O3 0.302211 0.415477 0.631260
O O4 0.390394 0.220596 0.631581
O O5 0.773602 0.482022 0.095089
O O6 0.930980 0.597158 0.148030
O O7 0.755039 0.510794 0.189108
O O8 0.503306 0.348896 0.500000
O O9 0.386369 0.407576 0.055244
O O10 0.260545 0.525816 0.000000
O O11 0.261329 0.999258 0.785915
O O12 0.605031 0.607315 0.760669
#
# Coordination Sequence:
#
# PCOD9564704 Si02
#       6
#    16  16   8  16  16  16
#     4  10  21  33  50  76 112 143 176 213 262 320
#     4  10  21  31  51  79 110 134 174 220 263 322
#     4  11  18  28  50  76 102 135 176 218 260 311
#     4   9  18  35  58  80 102 128 167 225 280 313
#     4  10  20  34  50  75 110 144 171 211 268 316
#     4  11  20  33  57  80 103 134 176 230 278 317
#
# _framework density 21.673727
#
# number of rings (size 3 to 8) (size 9 to 14) (size 15 to 20)
#    1.091    0.818    3.636    2.182    1.273    1.818 
#    1.636    0.000    0.000    4.364    0.000    7.636 
#    0.000    0.000    0.000    0.000    0.000    0.000 
#
# Total GULP energy -491124.171412 kJ/mol
# GULP energy per Si atom -5580.956493 kJ/mol
# Density = 2.162440 g / cm^3
# Si number density = 21.673727 Si / 1000 Ang^3
#
#
#
# Elastic Constant Matrix: (Units=GPa)
#
#
# Indices 1 2 3 4 5 6 
#
# 1 57.4773 30.7741 46.2077 0.0000 0.0000 0.0000
# 2 30.7741 57.4773 46.2077 0.0000 0.0000 0.0000
# 3 46.2077 46.2077 218.8053 0.0000 0.0000 0.0000
# 4 0.0000 0.0000 0.0000 3.4549 0.0000 0.0000
# 5 0.0000 0.0000 0.0000 0.0000 3.4549 0.0000
# 6 0.0000 0.0000 0.0000 0.0000 0.0000 32.0150
#
#
#
# Elastic Compliance Matrix: (Units=1/GPa)
#
#
# Indices 1 2 3 4 5 6 
#
# 1 0.025999 -0.011450 -0.003072 0.000000 0.000000 0.000000
# 2 -0.011450 0.025999 -0.003072 0.000000 0.000000 0.000000
# 3 -0.003072 -0.003072 0.005868 0.000000 0.000000 0.000000
# 4 0.000000 0.000000 0.000000 0.289441 0.000000 0.000000
# 5 0.000000 0.000000 0.000000 0.000000 0.289441 0.000000
# 6 0.000000 0.000000 0.000000 0.000000 0.000000 0.031235
#
#
# Mechanical properties :
#
#
# Convention : Reuss Voigt Hill
#
# Bulk Modulus (GPa) = 44.10029 64.45987 54.28008
# Shear Modulus (GPa) = 7.03500 21.82300 14.42900
#
# Velocity S-wave (km/s) = 1.80358 3.17659 2.58299
# Velocity P-wave (km/s) = 4.97280 6.57723 5.83046
#
# Compressibility (1/GPa) = 0.02267559
#
# Stress axis : x y z
#
# Youngs Moduli (GPa) = 38.46353 38.46353 170.41743
#
# Poissons Ratio (x) = 0.44041 0.52359
# Poissons Ratio (y) = 0.44041 0.52359
# Poissons Ratio (z) = 0.11818 0.11818
#
# Static dielectric constant tensor:
#      x y z
#    x 1.746140 0.000000 0.000000 
#    y 0.000000 1.746140 0.000000 
#    z 0.000000 0.000000 1.742060 
# 
# From -- ./inp_files/6354.got.cif
#   From: 2010.05.17/outbox.cif.g08.bks.cpg/sg128_4_cif.got.tgz:6354.got - 2010.05.20 12:07:25.
