data_PCOD9564870
_publ_section_title
;
Structure prediction by ZEFSAII (Michael W. Deem and Ramdas Pophale) SiO2 
 PCOD9564870
Probable space group: P 4/M N C
;
_chemical_formula_sum "Si O2"
_cell_formula_units_Z 96
_cell_length_a 13.942308
_cell_length_b 13.942308
_cell_length_c 22.472879
_cell_angle_alpha 90.000000
_cell_angle_beta 90.000000
_cell_angle_gamma 90.000000
_cell_volume 4368.456933
_symmetry_space_group_name_H-M "P 4/M N C"
_symmetry_group_IT_number 128
_symmetry_cell_setting 'tetragonal'
loop_
_space_group_symop_operation_xyz
x,y,z
-y,x,z
-x,-y,z
y,-x,z
1/2+x,1/2-y,1/2-z
1/2-x,1/2+y,1/2-z
1/2+y,1/2+x,1/2-z
1/2-y,1/2-x,1/2-z
-x,-y,-z
y,-x,-z
x,y,-z
-y,x,-z
1/2-x,1/2+y,1/2+z
1/2+x,1/2-y,1/2+z
1/2-y,1/2-x,1/2+z
1/2+y,1/2+x,1/2+z
loop_
_atom_site_type_symbol
_atom_site_label
_atom_site_fract_x
_atom_site_fract_y
_atom_site_fract_z
Si Si1 0.437994 0.349182 0.375094
Si Si2 0.164810 0.380144 0.883841
Si Si3 0.256858 0.216724 0.187270
Si Si4 0.963473 0.346553 0.934195
Si Si5 0.650131 0.523989 0.928828
Si Si6 0.118520 0.554221 0.814913
O O1 0.549966 0.380383 0.376317
O O2 0.388834 0.291449 0.320027
O O3 0.431440 0.264433 0.424466
O O4 0.214524 0.282084 0.864112
O O5 0.243659 0.449770 0.911516
O O6 0.131517 0.442132 0.826758
O O7 0.077873 0.355215 0.927136
O O8 0.235173 0.264828 0.250000
O O9 0.371795 0.207626 0.186211
O O10 0.929419 0.407488 0.876831
O O11 0.932943 0.379707 0.000000
O O12 0.576600 0.606513 0.907544
O O13 0.645513 0.521789 0.000000
O O14 0.072810 0.572810 0.750000
#
# Coordination Sequence:
#
# PCOD9564870 Si02
#       6
#    16  16  16  16  16  16
#     4  10  21  44  70  94 133 181 229 291 356 417
#     4  12  22  38  66  94 133 174 221 282 344 416
#     4  10  23  40  65  99 130 170 235 289 338 418
#     4  11  25  42  65 101 135 174 233 291 351 426
#     4   9  19  37  61  90 127 170 214 265 334 410
#     4  10  25  45  65  94 135 181 230 283 353 425
#
# _framework density 21.975722000000001
#
# number of rings (size 3 to 8) (size 9 to 14) (size 15 to 20)
#    0.000    1.667    1.667    2.500    2.333    4.667 
#    0.000    3.333    0.000    2.000    0.000    0.000 
#    0.000    0.000    0.000    0.000    0.000    0.000 
#
# Total GULP energy -534745.720656 kJ/mol
# GULP energy per Si atom -5570.267924 kJ/mol
# Density = 2.192570 g / cm^3
# Si number density = 21.975722 Si / 1000 Ang^3
#
#
#
# Elastic Constant Matrix: (Units=GPa)
#
#
# Indices 1 2 3 4 5 6 
#
# 1 83.1129 19.9257 28.5201 0.0000 0.0000 0.0000
# 2 19.9257 83.1127 28.5201 0.0000 0.0000 0.0000
# 3 28.5201 28.5201 112.5146 0.0000 0.0000 0.0000
# 4 0.0000 0.0000 0.0000 17.5507 0.0000 0.0000
# 5 0.0000 0.0000 0.0000 0.0000 17.5509 0.0000
# 6 0.0000 0.0000 0.0000 0.0000 0.0000 43.3920
#
#
#
# Elastic Compliance Matrix: (Units=1/GPa)
#
#
# Indices 1 2 3 4 5 6 
#
# 1 0.013558 -0.002268 -0.002862 0.000000 0.000000 0.000000
# 2 -0.002268 0.013558 -0.002862 0.000000 0.000000 0.000000
# 3 -0.002862 -0.002862 0.010338 0.000000 0.000000 0.000000
# 4 0.000000 0.000000 0.000000 0.056978 0.000000 0.000000
# 5 0.000000 0.000000 0.000000 0.000000 0.056977 0.000000
# 6 0.000000 0.000000 0.000000 0.000000 0.000000 0.023046
#
#
# Mechanical properties :
#
#
# Convention : Reuss Voigt Hill
#
# Bulk Modulus (GPa) = 46.57539 48.07466 47.32503
# Shear Modulus (GPa) = 25.30438 29.15034 27.22736
#
# Velocity S-wave (km/s) = 3.39701 3.64604 3.52373
# Velocity P-wave (km/s) = 6.05197 6.29671 6.17555
#
# Compressibility (1/GPa) = 0.02147057
#
# Stress axis : x y z
#
# Youngs Moduli (GPa) = 73.75936 73.75910 96.72640
#
# Poissons Ratio (x) = 0.16731 0.27679
# Poissons Ratio (y) = 0.16732 0.27679
# Poissons Ratio (z) = 0.21107 0.21107
#
# Static dielectric constant tensor:
#      x y z
#    x 1.858380 0.000000 0.000000 
#    y 0.000000 1.858370 0.000000 
#    z 0.000000 0.000000 1.801390 
# 
# From -- ./inp_files/5771.got.cif
#   From: 2010.05.17/outbox.cif.g08.bks.cpg/sg128_3_cif.got.tgz:5771.got - 2010.05.20 12:07:25.
