data_PCOD9564319
_publ_section_title
;
Structure prediction by ZEFSAII (Michael W. Deem and Ramdas Pophale) SiO2 
 PCOD9564319
Probable space group: P 4/M B M
;
_chemical_formula_sum "Si O2"
_cell_formula_units_Z 72
_cell_length_a 19.987845
_cell_length_b 19.987845
_cell_length_c 8.252359
_cell_angle_alpha 90.000000
_cell_angle_beta 90.000000
_cell_angle_gamma 90.000000
_cell_volume 3296.932522
_symmetry_space_group_name_H-M "P 4/M B M"
_symmetry_group_IT_number 127
_symmetry_cell_setting 'tetragonal'
loop_
_space_group_symop_operation_xyz
x,y,z
-y,x,z
-x,-y,z
y,-x,z
1/2+x,1/2-y,-z
1/2-x,1/2+y,-z
1/2+y,1/2+x,-z
1/2-y,1/2-x,-z
-x,-y,-z
y,-x,-z
x,y,-z
-y,x,-z
1/2-x,1/2+y,z
1/2+x,1/2-y,z
1/2-y,1/2-x,z
1/2+y,1/2+x,z
loop_
_atom_site_type_symbol
_atom_site_label
_atom_site_fract_x
_atom_site_fract_y
_atom_site_fract_z
Si Si1 0.201342 0.493895 0.813193
Si Si2 0.503188 0.890664 0.500000
Si Si3 0.545420 0.398288 0.182999
Si Si4 0.251936 0.141182 0.192409
Si Si5 0.379050 0.715363 0.679513
O O1 0.149534 0.495979 0.666655
O O2 0.246473 0.561009 0.778061
O O3 0.235392 0.420827 0.795065
O O4 0.177950 0.502068 0.000000
O O5 0.447211 0.947211 0.500000
O O6 0.575110 0.924891 0.500000
O O7 0.584517 0.467884 0.194907
O O8 0.571791 0.348298 0.314998
O O9 0.557690 0.371318 0.000000
O O10 0.321945 0.178056 0.236680
O O11 0.191948 0.184187 0.269744
O O12 0.243252 0.147976 0.000000
O O13 0.374253 0.744712 0.500000
#
# Coordination Sequence:
#
# PCOD9564319 Si02
#       5
#    16   8  16  16  16
#     4  11  24  46  73 102 141 188 234 285 351 423
#     4  11  26  48  74 106 138 169 222 292 358 427
#     4   9  18  33  53  78 114 165 218 265 316 376
#     4  10  23  43  68  97 129 177 238 291 349 422
#     4  12  24  37  58  94 135 175 221 277 339 401
#
# _framework density 21.838480000000001
#
# number of rings (size 3 to 8) (size 9 to 14) (size 15 to 20)
#    0.000    1.444    1.111    4.667    1.556    9.333 
#    0.000    2.222    0.000    0.000    0.000    0.000 
#    0.000    0.000    0.000    0.000    0.000    0.000 
#
# Total GULP energy -401755.488758 kJ/mol
# GULP energy per Si atom -5579.937344 kJ/mol
# Density = 2.178878 g / cm^3
# Si number density = 21.838480 Si / 1000 Ang^3
#
#
#
# Elastic Constant Matrix: (Units=GPa)
#
#
# Indices 1 2 3 4 5 6 
#
# 1 41.7637 8.6853 46.5108 0.0000 0.0000 0.0000
# 2 8.6853 41.7716 46.5131 0.0000 0.0000 0.0000
# 3 46.5108 46.5131 113.1764 0.0000 0.0000 0.0000
# 4 0.0000 0.0000 0.0000 22.3181 0.0000 0.0000
# 5 0.0000 0.0000 0.0000 0.0000 22.3185 0.0000
# 6 0.0000 0.0000 0.0000 0.0000 0.0000 18.0899
#
#
#
# Elastic Compliance Matrix: (Units=1/GPa)
#
#
# Indices 1 2 3 4 5 6 
#
# 1 0.056028 0.025793 -0.033625 0.000000 0.000000 0.000000
# 2 0.025793 0.056013 -0.033620 0.000000 0.000000 0.000000
# 3 -0.033625 -0.033620 0.036471 0.000000 0.000000 0.000000
# 4 0.000000 0.000000 0.000000 0.044807 0.000000 0.000000
# 5 0.000000 0.000000 0.000000 0.000000 0.044806 0.000000
# 6 0.000000 0.000000 0.000000 0.000000 0.000000 0.055279
#
#
# Mechanical properties :
#
#
# Convention : Reuss Voigt Hill
#
# Bulk Modulus (GPa) = 15.24227 44.45889 29.85058
# Shear Modulus (GPa) = 12.55721 18.87880 15.71801
#
# Velocity S-wave (km/s) = 2.40053 2.94338 2.68571
# Velocity P-wave (km/s) = 3.83120 5.65275 4.82865
#
# Compressibility (1/GPa) = 0.06560704
#
# Stress axis : x y z
#
# Youngs Moduli (GPa) = 17.84833 17.85306 27.41878
#
# Poissons Ratio (x) = -0.46048 0.92196
# Poissons Ratio (y) = -0.46036 0.92181
# Poissons Ratio (z) = 0.60015 0.60022
#
# Static dielectric constant tensor:
#      x y z
#    x 1.819370 0.000000 0.000000 
#    y 0.000000 1.819370 0.000000 
#    z 0.000000 0.000000 1.800360 
# 
# From -- ./inp_files/1582.got.cif
#   From: 2010.05.17/outbox.cif.g08.bks.cpg/sg127_1_cif.got.tgz:1582.got - 2010.05.20 12:03:00.
