data_PCOD9564800
_publ_section_title
;
Structure prediction by ZEFSAII (Michael W. Deem and Ramdas Pophale) SiO2 
 PCOD9564800
Probable space group: P 4/M N C
;
_chemical_formula_sum "Si O2"
_cell_formula_units_Z 88
_cell_length_a 12.539671
_cell_length_b 12.539671
_cell_length_c 31.990430
_cell_angle_alpha 90.000000
_cell_angle_beta 90.000000
_cell_angle_gamma 90.000000
_cell_volume 5030.282342
_symmetry_space_group_name_H-M "P 4/M N C"
_symmetry_group_IT_number 128
_symmetry_cell_setting 'tetragonal'
loop_
_space_group_symop_operation_xyz
x,y,z
-y,x,z
-x,-y,z
y,-x,z
1/2+x,1/2-y,1/2-z
1/2-x,1/2+y,1/2-z
1/2+y,1/2+x,1/2-z
1/2-y,1/2-x,1/2-z
-x,-y,-z
y,-x,-z
x,y,-z
-y,x,-z
1/2-x,1/2+y,1/2+z
1/2+x,1/2-y,1/2+z
1/2-y,1/2-x,1/2+z
1/2+y,1/2+x,1/2+z
loop_
_atom_site_type_symbol
_atom_site_label
_atom_site_fract_x
_atom_site_fract_y
_atom_site_fract_z
Si Si1 0.116930 0.273706 0.412909
Si Si2 0.961488 0.173221 0.292104
Si Si3 0.371627 0.990081 0.131701
Si Si4 0.910499 0.840382 0.500000
Si Si5 0.009025 0.340364 0.770077
Si Si6 0.612757 0.776979 0.126579
O O1 0.154258 0.392613 0.399301
O O2 0.124868 0.228083 0.459665
O O3 0.183318 0.193011 0.384267
O O4 0.992119 0.267680 0.401673
O O5 0.931337 0.262272 0.326316
O O6 0.077688 0.121572 0.298091
O O7 0.967658 0.227949 0.247056
O O8 0.342324 0.975403 0.180325
O O9 0.500000 0.000000 0.131241
O O10 0.333530 0.108291 0.119599
O O11 0.039711 0.860035 0.500000
O O12 0.121094 0.378907 0.750000
O O13 0.923825 0.423825 0.750000
#
# Coordination Sequence:
#
# PCOD9564800 Si02
#       6
#    16  16  16   8  16  16
#     4  11  22  37  60  88 118 156 198 241 303 375
#     4  11  23  34  50  82 117 150 197 251 300 354
#     4  10  21  37  55  84 117 157 202 244 294 354
#     4  11  22  38  61  95 129 154 185 242 317 383
#     4  11  19  34  53  75 108 150 200 239 277 340
#     4  11  20  35  58  84 118 159 194 242 304 363
#
# _framework density 17.494046999999998
#
# number of rings (size 3 to 8) (size 9 to 14) (size 15 to 20)
#    0.000    1.182    7.273    1.091    0.000    2.545 
#    0.000    5.000    0.000    0.545    0.000    0.000 
#    0.000    1.455    0.000    0.000    0.000    0.000 
#
# Total GULP energy -490315.204255 kJ/mol
# GULP energy per Si atom -5571.763685 kJ/mol
# Density = 1.745423 g / cm^3
# Si number density = 17.494047 Si / 1000 Ang^3
#
#
#
# Elastic Constant Matrix: (Units=GPa)
#
#
# Indices 1 2 3 4 5 6 
#
# 1 69.4474 29.8210 28.7041 0.0000 0.0000 0.0000
# 2 29.8210 69.4479 28.7043 0.0000 0.0000 0.0000
# 3 28.7041 28.7043 100.5093 0.0000 0.0000 0.0000
# 4 0.0000 0.0000 0.0000 20.5266 0.0000 0.0000
# 5 0.0000 0.0000 0.0000 0.0000 20.5265 0.0000
# 6 0.0000 0.0000 0.0000 0.0000 0.0000 6.6574
#
#
#
# Elastic Compliance Matrix: (Units=1/GPa)
#
#
# Indices 1 2 3 4 5 6 
#
# 1 0.018651 -0.006584 -0.003446 0.000000 0.000000 0.000000
# 2 -0.006584 0.018651 -0.003446 0.000000 0.000000 0.000000
# 3 -0.003446 -0.003446 0.011918 0.000000 0.000000 0.000000
# 4 0.000000 0.000000 0.000000 0.048717 0.000000 0.000000
# 5 0.000000 0.000000 0.000000 0.000000 0.048718 0.000000
# 6 0.000000 0.000000 0.000000 0.000000 0.000000 0.150210
#
#
# Mechanical properties :
#
#
# Convention : Reuss Voigt Hill
#
# Bulk Modulus (GPa) = 44.91044 45.98481 45.44762
# Shear Modulus (GPa) = 15.09480 19.68708 17.39094
#
# Velocity S-wave (km/s) = 2.94062 3.35828 3.15637
# Velocity P-wave (km/s) = 6.10387 6.43276 6.27047
#
# Compressibility (1/GPa) = 0.02226654
#
# Stress axis : x y z
#
# Youngs Moduli (GPa) = 53.61601 53.61641 83.90923
#
# Poissons Ratio (x) = 0.35304 0.28916
# Poissons Ratio (y) = 0.35303 0.28916
# Poissons Ratio (z) = 0.18476 0.18477
#
# Static dielectric constant tensor:
#      x y z
#    x 1.627970 0.000000 0.000000 
#    y 0.000000 1.627970 0.000000 
#    z 0.000000 0.000000 1.611070 
# 
# From -- ./inp_files/7262.got.cif
#   From: 2010.05.17/outbox.cif.g08.bks.cpg/sg128_4_cif.got.tgz:7262.got - 2010.05.20 12:07:25.
