data_PCOD9564334
_publ_section_title
;
Structure prediction by ZEFSAII (Michael W. Deem and Ramdas Pophale) SiO2 
 PCOD9564334
Probable space group: P 4/M B M
;
_chemical_formula_sum "Si O2"
_cell_formula_units_Z 112
_cell_length_a 15.656336
_cell_length_b 15.656336
_cell_length_c 26.474237
_cell_angle_alpha 90.000000
_cell_angle_beta 90.000000
_cell_angle_gamma 90.000000
_cell_volume 6489.387660
_symmetry_space_group_name_H-M "P 4/M B M"
_symmetry_group_IT_number 127
_symmetry_cell_setting 'tetragonal'
loop_
_space_group_symop_operation_xyz
x,y,z
-y,x,z
-x,-y,z
y,-x,z
1/2+x,1/2-y,-z
1/2-x,1/2+y,-z
1/2+y,1/2+x,-z
1/2-y,1/2-x,-z
-x,-y,-z
y,-x,-z
x,y,-z
-y,x,-z
1/2-x,1/2+y,z
1/2+x,1/2-y,z
1/2-y,1/2-x,z
1/2+y,1/2+x,z
loop_
_atom_site_type_symbol
_atom_site_label
_atom_site_fract_x
_atom_site_fract_y
_atom_site_fract_z
Si Si1 0.253692 0.612844 0.849934
Si Si2 0.138668 0.508198 0.678005
Si Si3 0.387955 0.409556 0.442885
Si Si4 0.307095 0.334489 0.759214
Si Si5 0.527379 0.166988 0.208693
Si Si6 0.272521 0.373908 0.350152
Si Si7 0.371034 0.563435 0.057559
O O1 0.199552 0.699552 0.855453
O O2 0.314855 0.621427 0.800524
O O3 0.189827 0.536767 0.835478
O O4 0.307094 0.594058 0.899647
O O5 0.065337 0.434664 0.676042
O O6 0.158763 0.519760 0.737322
O O7 0.220457 0.463872 0.652726
O O8 0.094781 0.594781 0.657940
O O9 0.487419 0.384847 0.438053
O O10 0.360137 0.387304 0.500000
O O11 0.330861 0.370154 0.399086
O O12 0.252418 0.247583 0.753620
O O13 0.242675 0.404305 0.782633
O O14 0.325757 0.363701 0.702076
O O15 0.581225 0.081225 0.200217
O O16 0.200474 0.299527 0.350319
O O17 0.390136 0.462539 0.063145
O O18 0.340943 0.578274 0.000000
#
# Coordination Sequence:
#
# PCOD9564334 Si02
#       7
#    16  16  16  16  16  16  16
#     4  11  20  29  48  76 103 129 157 195 242 286
#     4   8  14  26  44  66  95 131 162 183 218 283
#     4   9  19  36  53  66  86 122 165 202 239 289
#     4   8  17  31  44  67 102 132 157 189 232 280
#     4   9  17  30  46  65  96 135 167 191 224 284
#     4   9  17  30  50  75 100 124 155 200 246 283
#     4   9  19  37  57  72  89 120 164 207 242 281
#
# _framework density 17.258946999999999
#
# number of rings (size 3 to 8) (size 9 to 14) (size 15 to 20)
#    0.000    3.000    0.000    3.857    0.000    3.714 
#    0.000    2.143    0.000    4.286    0.000    3.000 
#    0.000    0.000    0.000    0.000    0.000    0.000 
#
# Total GULP energy -624023.897156 kJ/mol
# GULP energy per Si atom -5571.641939 kJ/mol
# Density = 1.721966 g / cm^3
# Si number density = 17.258947 Si / 1000 Ang^3
#
#
#
# Elastic Constant Matrix: (Units=GPa)
#
#
# Indices 1 2 3 4 5 6 
#
# 1 34.7678 10.0207 41.0238 0.0000 0.0000 0.0000
# 2 10.0207 34.7678 41.0238 0.0000 0.0000 0.0000
# 3 41.0238 41.0238 124.5454 0.0000 0.0000 0.0000
# 4 0.0000 0.0000 0.0000 24.5913 0.0000 0.0000
# 5 0.0000 0.0000 0.0000 0.0000 24.5913 0.0000
# 6 0.0000 0.0000 0.0000 0.0000 0.0000 11.0560
#
#
#
# Elastic Compliance Matrix: (Units=1/GPa)
#
#
# Indices 1 2 3 4 5 6 
#
# 1 0.048353 0.007944 -0.018544 0.000000 0.000000 0.000000
# 2 0.007944 0.048353 -0.018544 0.000000 0.000000 0.000000
# 3 -0.018544 -0.018544 0.020245 0.000000 0.000000 0.000000
# 4 0.000000 0.000000 0.000000 0.040665 0.000000 0.000000
# 5 0.000000 0.000000 0.000000 0.000000 0.040665 0.000000
# 6 0.000000 0.000000 0.000000 0.000000 0.000000 0.090448
#
#
# Mechanical properties :
#
#
# Convention : Reuss Voigt Hill
#
# Bulk Modulus (GPa) = 17.04597 42.02417 29.53507
# Shear Modulus (GPa) = 13.63996 18.84857 16.24426
#
# Velocity S-wave (km/s) = 2.81430 3.30829 3.07124
# Velocity P-wave (km/s) = 4.52310 6.24460 5.45222
#
# Compressibility (1/GPa) = 0.05866490
#
# Stress axis : x y z
#
# Youngs Moduli (GPa) = 20.68132 20.68132 49.39424
#
# Poissons Ratio (x) = -0.16429 0.91595
# Poissons Ratio (y) = -0.16429 0.91595
# Poissons Ratio (z) = 0.38351 0.38351
#
# Static dielectric constant tensor:
#      x y z
#    x 1.607370 0.000000 0.000000 
#    y 0.000000 1.607370 0.000000 
#    z 0.000000 0.000000 1.567020 
# 
# From -- ./inp_files/6183.got.cif
#   From: 2010.05.17/outbox.cif.g08.bks.cpg/sg127_4_cif.got.tgz:6183.got - 2010.05.20 12:03:00.
