data_PCOD9564674
_publ_section_title
;
Structure prediction by ZEFSAII (Michael W. Deem and Ramdas Pophale) SiO2 
 PCOD9564674
Probable space group: P 4/M N C
;
_chemical_formula_sum "Si O2"
_cell_formula_units_Z 120
_cell_length_a 19.006344
_cell_length_b 19.006344
_cell_length_c 14.964939
_cell_angle_alpha 90.000000
_cell_angle_beta 90.000000
_cell_angle_gamma 90.000000
_cell_volume 5405.951209
_symmetry_space_group_name_H-M "P 4/M N C"
_symmetry_group_IT_number 128
_symmetry_cell_setting 'tetragonal'
loop_
_space_group_symop_operation_xyz
x,y,z
-y,x,z
-x,-y,z
y,-x,z
1/2+x,1/2-y,1/2-z
1/2-x,1/2+y,1/2-z
1/2+y,1/2+x,1/2-z
1/2-y,1/2-x,1/2-z
-x,-y,-z
y,-x,-z
x,y,-z
-y,x,-z
1/2-x,1/2+y,1/2+z
1/2+x,1/2-y,1/2+z
1/2-y,1/2-x,1/2+z
1/2+y,1/2+x,1/2+z
loop_
_atom_site_type_symbol
_atom_site_label
_atom_site_fract_x
_atom_site_fract_y
_atom_site_fract_z
Si Si1 0.884322 0.992570 0.164065
Si Si2 0.869171 0.380122 0.640916
Si Si3 0.336035 0.836440 0.359359
Si Si4 0.513092 0.221803 0.646773
Si Si5 0.086278 0.921353 0.500000
Si Si6 0.062989 0.833108 0.654348
Si Si7 0.304192 0.992169 0.362837
Si Si8 0.201647 0.756358 0.341882
O O1 0.873364 0.981985 0.271517
O O2 0.936240 0.927340 0.140811
O O3 0.804052 0.994901 0.128883
O O4 0.874053 0.374053 0.750000
O O5 0.832281 0.452798 0.614803
O O6 0.821632 0.314643 0.609374
O O7 0.948359 0.361065 0.613257
O O8 0.338704 0.838704 0.250000
O O9 0.408441 0.797705 0.385330
O O10 0.331095 0.916585 0.390881
O O11 0.262555 0.800828 0.388563
O O12 0.511609 0.210329 0.755080
O O13 0.106874 0.884066 0.589697
O O14 0.002886 0.906054 0.500000
O O15 0.128859 0.790631 0.693040
O O16 0.017121 0.773097 0.605369
O O17 0.236947 0.736947 0.250000
#
# Coordination Sequence:
#
# PCOD9564674 Si02
#       8
#    16  16  16  16   8  16  16  16
#     4  10  20  28  40  59  84 123 166 204 237 290
#     4   8  14  26  37  54  82 116 143 180 238 298
#     4   9  17  24  39  63  82 110 150 194 246 312
#     4   9  17  25  40  59  87 115 147 191 241 304
#     4  11  24  36  46  66  98 141 197 235 252 285
#     4  10  20  32  49  63  91 130 171 227 263 292
#     4   8  16  28  40  60  82 110 156 195 249 297
#     4   9  17  27  46  66  87 119 159 211 270 323
#
# _framework density 22.197759000000001
#
# number of rings (size 3 to 8) (size 9 to 14) (size 15 to 20)
#    0.000    2.867    0.000    3.200   11.200    1.600 
#    0.000    2.667    0.000    0.000    0.000    0.000 
#    0.000   12.800    0.000    0.533    0.000    0.000 
#
# Total GULP energy -668451.170732 kJ/mol
# GULP energy per Si atom -5570.426423 kJ/mol
# Density = 2.214724 g / cm^3
# Si number density = 22.197759 Si / 1000 Ang^3
#
#
#
# Elastic Constant Matrix: (Units=GPa)
#
#
# Indices 1 2 3 4 5 6 
#
# 1 136.7132 88.0650 -1.8568 0.0000 0.0000 0.0000
# 2 88.0650 136.7132 -1.8568 0.0000 0.0000 0.0000
# 3 -1.8568 -1.8568 29.9326 0.0000 0.0000 0.0000
# 4 0.0000 0.0000 0.0000 9.7449 0.0000 0.0000
# 5 0.0000 0.0000 0.0000 0.0000 9.7449 0.0000
# 6 0.0000 0.0000 0.0000 0.0000 0.0000 29.6976
#
#
#
# Elastic Compliance Matrix: (Units=1/GPa)
#
#
# Indices 1 2 3 4 5 6 
#
# 1 0.012505 -0.008051 0.000276 0.000000 0.000000 0.000000
# 2 -0.008051 0.012505 0.000276 0.000000 0.000000 0.000000
# 3 0.000276 0.000276 0.033443 0.000000 0.000000 0.000000
# 4 0.000000 0.000000 0.000000 0.102618 0.000000 0.000000
# 5 0.000000 0.000000 0.000000 0.000000 0.102618 0.000000
# 6 0.000000 0.000000 0.000000 0.000000 0.000000 0.033673
#
#
# Mechanical properties :
#
#
# Convention : Reuss Voigt Hill
#
# Bulk Modulus (GPa) = 23.01260 52.45133 37.73196
# Shear Modulus (GPa) = 15.29792 24.43799 19.86795
#
# Velocity S-wave (km/s) = 2.62804 3.32161 2.99497
# Velocity P-wave (km/s) = 4.42701 6.19607 5.38468
#
# Compressibility (1/GPa) = 0.04345446
#
# Stress axis : x y z
#
# Youngs Moduli (GPa) = 79.97081 79.97081 29.90193
#
# Poissons Ratio (x) = 0.64386 -0.00826
# Poissons Ratio (y) = 0.64386 -0.00826
# Poissons Ratio (z) = -0.02209 -0.02209
#
# Static dielectric constant tensor:
#      x y z
#    x 2.064700 0.000000 0.000000 
#    y 0.000000 2.064700 0.000000 
#    z 0.000000 0.000000 1.664220 
# 
# From -- ./inp_files/6030.got.cif
#   From: 2010.05.17/outbox.cif.g08.bks.cpg/sg128_4_cif.got.tgz:6030.got - 2010.05.20 12:07:25.
