data_PCOD9564667
_publ_section_title
;
Structure prediction by ZEFSAII (Michael W. Deem and Ramdas Pophale) SiO2 
 PCOD9564667
Probable space group: P 4/M N C
;
_chemical_formula_sum "Si O2"
_cell_formula_units_Z 68
_cell_length_a 11.282222
_cell_length_b 11.282222
_cell_length_c 26.260876
_cell_angle_alpha 90.000000
_cell_angle_beta 90.000000
_cell_angle_gamma 90.000000
_cell_volume 3342.708388
_symmetry_space_group_name_H-M "P 4/M N C"
_symmetry_group_IT_number 128
_symmetry_cell_setting 'tetragonal'
loop_
_space_group_symop_operation_xyz
x,y,z
-y,x,z
-x,-y,z
y,-x,z
1/2+x,1/2-y,1/2-z
1/2-x,1/2+y,1/2-z
1/2+y,1/2+x,1/2-z
1/2-y,1/2-x,1/2-z
-x,-y,-z
y,-x,-z
x,y,-z
-y,x,-z
1/2-x,1/2+y,1/2+z
1/2+x,1/2-y,1/2+z
1/2-y,1/2-x,1/2+z
1/2+y,1/2+x,1/2+z
loop_
_atom_site_type_symbol
_atom_site_label
_atom_site_fract_x
_atom_site_fract_y
_atom_site_fract_z
Si Si1 0.254299 0.801322 0.607541
Si Si2 0.000000 0.000000 0.707956
Si Si3 0.352320 0.363145 0.000000
Si Si4 0.318363 0.421555 0.671113
Si Si5 0.038386 0.734795 0.326935
Si Si6 0.892124 0.607877 0.250000
O O1 0.207648 0.811127 0.550554
O O2 0.380660 0.741128 0.618053
O O3 0.255817 0.933557 0.631219
O O4 0.160271 0.728450 0.642219
O O5 0.859470 0.960832 0.702845
O O6 0.493591 0.339184 0.000000
O O7 0.441943 0.352803 0.676257
O O8 0.222085 0.388630 0.713367
O O9 0.002440 0.630790 0.288210
#
# Coordination Sequence:
#
# PCOD9564667 Si02
#       6
#    16   4   8  16  16   8
#     4  10  19  37  58  90 127 151 194 256 308 362
#     4   8  16  24  52  73 108 152 188 225 276 340
#     4  11  20  32  66 101 126 156 196 249 324 382
#     4  10  24  42  61  82 116 166 216 250 292 366
#     4   9  18  31  52  86 121 154 187 240 304 360
#     4  10  22  34  59  89 118 160 202 254 302 361
#
# _framework density 20.342784000000002
#
# number of rings (size 3 to 8) (size 9 to 14) (size 15 to 20)
#    0.000    2.235    2.353    0.000    9.882    0.000 
#    0.000    7.059    0.000    2.824    0.000    0.000 
#    0.000    0.000    0.000    0.000    0.000    0.000 
#
# Total GULP energy -378705.975432 kJ/mol
# GULP energy per Si atom -5569.205521 kJ/mol
# Density = 2.029648 g / cm^3
# Si number density = 20.342784 Si / 1000 Ang^3
#
#
#
# Elastic Constant Matrix: (Units=GPa)
#
#
# Indices 1 2 3 4 5 6 
#
# 1 51.2057 17.6012 28.0527 0.0000 0.0000 0.0000
# 2 17.6012 51.2069 28.0530 0.0000 0.0000 0.0000
# 3 28.0527 28.0530 127.2934 0.0000 0.0000 0.0000
# 4 0.0000 0.0000 0.0000 24.1938 0.0000 0.0000
# 5 0.0000 0.0000 0.0000 0.0000 24.1935 0.0000
# 6 0.0000 0.0000 0.0000 0.0000 0.0000 44.2702
#
#
#
# Elastic Compliance Matrix: (Units=1/GPa)
#
#
# Indices 1 2 3 4 5 6 
#
# 1 0.023737 -0.006020 -0.003904 0.000000 0.000000 0.000000
# 2 -0.006020 0.023737 -0.003904 0.000000 0.000000 0.000000
# 3 -0.003904 -0.003904 0.009577 0.000000 0.000000 0.000000
# 4 0.000000 0.000000 0.000000 0.041333 0.000000 0.000000
# 5 0.000000 0.000000 0.000000 0.000000 0.041333 0.000000
# 6 0.000000 0.000000 0.000000 0.000000 0.000000 0.022589
#
#
# Mechanical properties :
#
#
# Convention : Reuss Voigt Hill
#
# Bulk Modulus (GPa) = 34.02175 41.90219 37.96197
# Shear Modulus (GPa) = 25.02979 28.93143 26.98061
#
# Velocity S-wave (km/s) = 3.51151 3.77529 3.64579
# Velocity P-wave (km/s) = 5.76208 6.29655 6.03523
#
# Compressibility (1/GPa) = 0.02939296
#
# Stress axis : x y z
#
# Youngs Moduli (GPa) = 42.12753 42.12847 104.41911
#
# Poissons Ratio (x) = 0.25362 0.40770
# Poissons Ratio (y) = 0.25361 0.40770
# Poissons Ratio (z) = 0.16449 0.16449
#
# Static dielectric constant tensor:
#      x y z
#    x 1.741430 0.000000 0.000000 
#    y 0.000000 1.741430 0.000000 
#    z 0.000000 0.000000 1.721380 
# 
# From -- ./inp_files/6807.got.cif
#   From: 2010.05.17/outbox.cif.g08.bks.cpg/sg128_4_cif.got.tgz:6807.got - 2010.05.20 12:07:25.
