data_PCOD9564554
_publ_section_title
;
Structure prediction by ZEFSAII (Michael W. Deem and Ramdas Pophale) SiO2 
 PCOD9564554
Probable space group: P 4/M N C
;
_chemical_formula_sum "Si O2"
_cell_formula_units_Z 96
_cell_length_a 23.815425
_cell_length_b 23.815425
_cell_length_c 7.565595
_cell_angle_alpha 90.000000
_cell_angle_beta 90.000000
_cell_angle_gamma 90.000000
_cell_volume 4291.012319
_symmetry_space_group_name_H-M "P 4/M N C"
_symmetry_group_IT_number 128
_symmetry_cell_setting 'tetragonal'
loop_
_space_group_symop_operation_xyz
x,y,z
-y,x,z
-x,-y,z
y,-x,z
1/2+x,1/2-y,1/2-z
1/2-x,1/2+y,1/2-z
1/2+y,1/2+x,1/2-z
1/2-y,1/2-x,1/2-z
-x,-y,-z
y,-x,-z
x,y,-z
-y,x,-z
1/2-x,1/2+y,1/2+z
1/2+x,1/2-y,1/2+z
1/2-y,1/2-x,1/2+z
1/2+y,1/2+x,1/2+z
loop_
_atom_site_type_symbol
_atom_site_label
_atom_site_fract_x
_atom_site_fract_y
_atom_site_fract_z
Si Si1 0.786712 0.372784 0.789171
Si Si2 0.502643 0.663582 0.716159
Si Si3 0.500923 0.908223 0.708117
Si Si4 0.499741 0.214506 0.299684
Si Si5 0.114333 0.121923 0.216489
Si Si6 0.806673 0.782525 0.802238
O O1 0.847638 0.347638 0.750000
O O2 0.780807 0.432292 0.699255
O O3 0.743431 0.328346 0.707772
O O4 0.777956 0.376592 0.000000
O O5 0.505178 0.666410 0.500000
O O6 0.484742 0.725619 0.781024
O O7 0.451379 0.622731 0.761892
O O8 0.564578 0.644715 0.775909
O O9 0.557874 0.942127 0.750000
O O10 0.503028 0.899367 0.500000
O O11 0.490837 0.846349 0.787238
O O12 0.450388 0.950388 0.750000
O O13 0.522812 0.213799 0.500000
O O14 0.144094 0.179531 0.283064
O O15 0.118517 0.122551 0.000000
O O16 0.775688 0.724313 0.750000
O O17 0.826027 0.771700 0.000000
#
# Coordination Sequence:
#
# PCOD9564554 Si02
#       6
#    16  16  16  16  16  16
#     4  11  20  29  47  75 104 134 168 209 260 311
#     4   9  17  31  51  78 107 138 176 223 272 318
#     4  10  20  33  51  73 102 140 175 216 259 306
#     4  10  19  33  51  74 106 139 175 217 263 312
#     4   9  17  30  52  78 109 140 175 221 269 316
#     4  10  18  31  50  76 106 140 172 213 265 316
#
# _framework density 22.372343000000001
#
# number of rings (size 3 to 8) (size 9 to 14) (size 15 to 20)
#    0.000    2.167    1.667    4.500    0.000    3.000 
#    0.000    2.500    0.000    2.000    0.000    0.000 
#    0.000    1.333    0.000    0.000    0.000    0.000 
#
# Total GULP energy -534936.598801 kJ/mol
# GULP energy per Si atom -5572.256238 kJ/mol
# Density = 2.232142 g / cm^3
# Si number density = 22.372343 Si / 1000 Ang^3
#
#
#
# Elastic Constant Matrix: (Units=GPa)
#
#
# Indices 1 2 3 4 5 6 
#
# 1 100.7077 64.4489 -0.5723 0.0000 0.0000 0.0000
# 2 64.4489 100.7103 -0.5734 0.0000 0.0000 0.0000
# 3 -0.5723 -0.5734 69.3906 0.0000 0.0000 0.0000
# 4 0.0000 0.0000 0.0000 -4.4063 0.0000 0.0000
# 5 0.0000 0.0000 0.0000 0.0000 -4.4050 0.0000
# 6 0.0000 0.0000 0.0000 0.0000 0.0000 31.7902
#
#
#
# Elastic Compliance Matrix: (Units=1/GPa)
#
#
# Indices 1 2 3 4 5 6 
#
# 1 0.016817 -0.010762 0.000050 0.000000 0.000000 0.000000
# 2 -0.010762 0.016817 0.000050 0.000000 0.000000 0.000000
# 3 0.000050 0.000050 0.014412 0.000000 0.000000 0.000000
# 4 0.000000 0.000000 0.000000 -0.226946 0.000000 0.000000
# 5 0.000000 0.000000 0.000000 0.000000 -0.227016 0.000000
# 6 0.000000 0.000000 0.000000 0.000000 0.000000 0.031456
#
#
# Mechanical properties :
#
#
# Convention : Reuss Voigt Hill
#
# Bulk Modulus (GPa) = 37.42198 44.15722 40.78960
# Shear Modulus (GPa) = -14.52518 18.42948 1.95215
#
# Velocity S-wave (km/s) = -2.55080 2.87324 0.93513
# Velocity P-wave (km/s) = 2.84390 5.54866 4.40882
#
# Compressibility (1/GPa) = 0.02672226
#
# Stress axis : x y z
#
# Youngs Moduli (GPa) = 59.46350 59.46506 69.38665
#
# Poissons Ratio (x) = 0.63994 -0.00345
# Poissons Ratio (y) = 0.63993 -0.00348
# Poissons Ratio (z) = -0.00296 -0.00299
#
# Static dielectric constant tensor:
#      x y z
#    x 1.991230 0.000000 0.000000 
#    y 0.000000 1.991250 0.000000 
#    z 0.000000 0.000000 1.525630 
# 
# From -- ./inp_files/1485.got.cif
#   From: 2010.05.17/outbox.cif.g08.bks.cpg/sg128_1_cif.got.tgz:1485.got - 2010.05.20 12:07:25.
