data_PCOD9564916
_publ_section_title
;
Structure prediction by ZEFSAII (Michael W. Deem and Ramdas Pophale) SiO2 
 PCOD9564916
Probable space group: P 4/M N C
;
_chemical_formula_sum "Si O2"
_cell_formula_units_Z 76
_cell_length_a 11.009131
_cell_length_b 11.009131
_cell_length_c 31.417333
_cell_angle_alpha 90.000000
_cell_angle_beta 90.000000
_cell_angle_gamma 90.000000
_cell_volume 3807.811089
_symmetry_space_group_name_H-M "P 4/M N C"
_symmetry_group_IT_number 128
_symmetry_cell_setting 'tetragonal'
loop_
_space_group_symop_operation_xyz
x,y,z
-y,x,z
-x,-y,z
y,-x,z
1/2+x,1/2-y,1/2-z
1/2-x,1/2+y,1/2-z
1/2+y,1/2+x,1/2-z
1/2-y,1/2-x,1/2-z
-x,-y,-z
y,-x,-z
x,y,-z
-y,x,-z
1/2-x,1/2+y,1/2+z
1/2+x,1/2-y,1/2+z
1/2-y,1/2-x,1/2+z
1/2+y,1/2+x,1/2+z
loop_
_atom_site_type_symbol
_atom_site_label
_atom_site_fract_x
_atom_site_fract_y
_atom_site_fract_z
Si Si1 0.500000 0.500000 0.373897
Si Si2 0.187764 0.673699 0.300414
Si Si3 0.927711 0.806342 0.500000
Si Si4 0.129105 0.458061 0.924123
Si Si5 0.270322 0.926881 0.848235
Si Si6 0.554150 0.694344 0.867316
O O1 0.353270 0.471492 0.370296
O O2 0.183305 0.683305 0.250000
O O3 0.186080 0.535590 0.317353
O O4 0.308725 0.736060 0.320178
O O5 0.076597 0.746248 0.321724
O O6 0.850212 0.930524 0.500000
O O7 0.906681 0.720594 0.540712
O O8 0.101019 0.367846 0.884892
O O9 0.201296 0.570245 0.902254
O O10 0.000000 0.500000 0.942355
O O11 0.419787 0.641408 0.872752
#
# Coordination Sequence:
#
# PCOD9564916 Si02
#       6
#     4  16   8  16  16  16
#     4   8  20  40  64  89 124 180 224 272 328 409
#     4  11  24  40  64  96 136 184 241 292 333 398
#     4  11  27  46  72 107 141 173 220 286 344 431
#     4  12  23  43  70 101 135 177 225 279 354 412
#     4  10  22  42  64  94 134 184 231 279 347 404
#     4  11  23  40  63  95 134 183 225 280 347 409
#
# _framework density 19.958973
#
# number of rings (size 3 to 8) (size 9 to 14) (size 15 to 20)
#    0.000    1.158    4.211    1.579    2.947    1.684 
#    0.000    1.053    0.000    0.632    0.000    0.000 
#    0.000    0.000    0.000    0.000    0.000    0.000 
#
# Total GULP energy -423413.790897 kJ/mol
# GULP energy per Si atom -5571.234091 kJ/mol
# Density = 1.991355 g / cm^3
# Si number density = 19.958973 Si / 1000 Ang^3
#
#
#
# Elastic Constant Matrix: (Units=GPa)
#
#
# Indices 1 2 3 4 5 6 
#
# 1 103.0660 41.7310 35.2426 0.0000 0.0000 0.0000
# 2 41.7310 103.0660 35.2426 0.0000 0.0000 0.0000
# 3 35.2426 35.2426 117.7745 0.0000 0.0000 0.0000
# 4 0.0000 0.0000 0.0000 26.3227 0.0000 0.0000
# 5 0.0000 0.0000 0.0000 0.0000 26.3227 0.0000
# 6 0.0000 0.0000 0.0000 0.0000 0.0000 37.5491
#
#
#
# Elastic Compliance Matrix: (Units=1/GPa)
#
#
# Indices 1 2 3 4 5 6 
#
# 1 0.012194 -0.004110 -0.002419 0.000000 0.000000 0.000000
# 2 -0.004110 0.012194 -0.002419 0.000000 0.000000 0.000000
# 3 -0.002419 -0.002419 0.009938 0.000000 0.000000 0.000000
# 4 0.000000 0.000000 0.000000 0.037990 0.000000 0.000000
# 5 0.000000 0.000000 0.000000 0.000000 0.037990 0.000000
# 6 0.000000 0.000000 0.000000 0.000000 0.000000 0.026632
#
#
# Mechanical properties :
#
#
# Convention : Reuss Voigt Hill
#
# Bulk Modulus (GPa) = 60.86379 60.92652 60.89516
# Shear Modulus (GPa) = 31.18944 32.15159 31.67052
#
# Velocity S-wave (km/s) = 3.95736 4.01794 3.98776
# Velocity P-wave (km/s) = 7.17228 7.21923 7.19579
#
# Compressibility (1/GPa) = 0.01643013
#
# Stress axis : x y z
#
# Youngs Moduli (GPa) = 82.00876 82.00876 100.61893
#
# Poissons Ratio (x) = 0.33706 0.24339
# Poissons Ratio (y) = 0.33706 0.24339
# Poissons Ratio (z) = 0.19838 0.19838
#
# Static dielectric constant tensor:
#      x y z
#    x 1.734670 0.000000 0.000000 
#    y 0.000000 1.734670 0.000000 
#    z 0.000000 0.000000 1.708300 
# 
# From -- ./inp_files/7229.got.cif
#   From: 2010.05.17/outbox.cif.g08.bks.cpg/sg128_4_cif.got.tgz:7229.got - 2010.05.20 12:07:25.
