data_PCOD9564230
_publ_section_title
;
Structure prediction by ZEFSAII (Michael W. Deem and Ramdas Pophale) SiO2 
 PCOD9564230
Probable space group: P 4/M B M
;
_chemical_formula_sum "Si O2"
_cell_formula_units_Z 88
_cell_length_a 15.636749
_cell_length_b 15.636749
_cell_length_c 15.555015
_cell_angle_alpha 90.000000
_cell_angle_beta 90.000000
_cell_angle_gamma 90.000000
_cell_volume 3803.324352
_symmetry_space_group_name_H-M "P 4/M B M"
_symmetry_group_IT_number 127
_symmetry_cell_setting 'tetragonal'
loop_
_space_group_symop_operation_xyz
x,y,z
-y,x,z
-x,-y,z
y,-x,z
1/2+x,1/2-y,-z
1/2-x,1/2+y,-z
1/2+y,1/2+x,-z
1/2-y,1/2-x,-z
-x,-y,-z
y,-x,-z
x,y,-z
-y,x,-z
1/2-x,1/2+y,z
1/2+x,1/2-y,z
1/2-y,1/2-x,z
1/2+y,1/2+x,z
loop_
_atom_site_type_symbol
_atom_site_label
_atom_site_fract_x
_atom_site_fract_y
_atom_site_fract_z
Si Si1 0.275935 0.915685 0.155049
Si Si2 0.671018 0.310953 0.599579
Si Si3 0.164947 0.475720 0.597458
Si Si4 0.500736 0.142439 0.000000
Si Si5 0.052729 0.775325 0.275303
Si Si6 0.783234 0.856297 0.906950
O O1 0.353933 0.853933 0.184816
O O2 0.310846 0.989824 0.091793
O O3 0.213614 0.858620 0.098293
O O4 0.223111 0.957653 0.232730
O O5 0.685930 0.334990 0.500000
O O6 0.751359 0.251359 0.629481
O O7 0.590106 0.246270 0.597976
O O8 0.665187 0.396658 0.656729
O O9 0.158185 0.509289 0.500000
O O10 0.081268 0.418733 0.614864
O O11 0.187559 0.544218 0.669976
O O12 0.587931 0.087931 0.000000
O O13 0.423556 0.076445 0.000000
O O14 0.105005 0.784201 0.187813
O O15 0.695837 0.804164 0.912126
O O16 0.794643 0.901992 0.000000
#
# Coordination Sequence:
#
# PCOD9564230 Si02
#       6
#    16  16  16   8  16  16
#     4  10  21  39  59  81 119 165 202 249 314 374
#     4   9  19  37  58  82 115 153 192 242 306 374
#     4   9  19  38  62  86 116 154 198 253 320 387
#     4   9  18  34  56  80 108 147 193 241 296 353
#     4  12  21  30  57  94 117 144 200 261 305 357
#     4  10  22  40  59  80 115 163 209 250 301 368
#
# _framework density 23.137653
#
# number of rings (size 3 to 8) (size 9 to 14) (size 15 to 20)
#    0.000    2.091    0.909    3.818    1.273    4.364 
#    0.000    0.000    0.000   15.273    0.000   25.455 
#    0.000    0.000    0.000    0.000    0.000    0.000 
#
# Total GULP energy -490200.789950 kJ/mol
# GULP energy per Si atom -5570.463522 kJ/mol
# Density = 2.308499 g / cm^3
# Si number density = 23.137653 Si / 1000 Ang^3
#
#
#
# Elastic Constant Matrix: (Units=GPa)
#
#
# Indices 1 2 3 4 5 6 
#
# 1 -19.7464 84.7215 30.2271 0.0000 0.0000 0.0000
# 2 84.7215 -19.7414 30.2279 0.0000 0.0000 0.0000
# 3 30.2271 30.2279 152.2657 0.0000 0.0000 0.0000
# 4 0.0000 0.0000 0.0000 11.3585 0.0000 0.0000
# 5 0.0000 0.0000 0.0000 0.0000 11.3581 0.0000
# 6 0.0000 0.0000 0.0000 0.0000 0.0000 41.8597
#
#
#
# Elastic Compliance Matrix: (Units=1/GPa)
#
#
# Indices 1 2 3 4 5 6 
#
# 1 0.004652 0.014224 -0.003747 0.000000 0.000000 0.000000
# 2 0.014224 0.004652 -0.003747 0.000000 0.000000 0.000000
# 3 -0.003747 -0.003747 0.008055 0.000000 0.000000 0.000000
# 4 0.000000 0.000000 0.000000 0.088040 0.000000 0.000000
# 5 0.000000 0.000000 0.000000 0.000000 0.088043 0.000000
# 6 0.000000 0.000000 0.000000 0.000000 0.000000 0.023889
#
#
# Mechanical properties :
#
#
# Convention : Reuss Voigt Hill
#
# Bulk Modulus (GPa) = 32.44767 44.79233 38.62000
# Shear Modulus (GPa) = 23.34872 10.75536 17.05204
#
# Velocity S-wave (km/s) = 3.18011 2.15836 2.71769
# Velocity P-wave (km/s) = 5.24770 5.06087 5.15513
#
# Compressibility (1/GPa) = 0.03081886
#
# Stress axis : x y z
#
# Youngs Moduli (GPa) = 214.98406 214.94525 124.14206
#
# Poissons Ratio (x) = -3.05748 0.46519
# Poissons Ratio (y) = -3.05804 0.46521
# Poissons Ratio (z) = 0.80560 0.80548
#
# Static dielectric constant tensor:
#      x y z
#    x 1.953360 0.000000 0.000000 
#    y 0.000000 1.953350 0.000000 
#    z 0.000000 0.000000 1.954900 
# 
# From -- ./inp_files/4405.got.cif
#   From: 2010.05.17/outbox.cif.g08.bks.cpg/sg127_3_cif.got.tgz:4405.got - 2010.05.20 12:03:00.
