data_PCOD9564502
_publ_section_title
;
Structure prediction by ZEFSAII (Michael W. Deem and Ramdas Pophale) SiO2 
 PCOD9564502
Probable space group: P 4/M B M
;
_chemical_formula_sum "Si O2"
_cell_formula_units_Z 96
_cell_length_a 15.000000
_cell_length_b 15.000000
_cell_length_c 24.000000
_cell_angle_alpha 90.000000
_cell_angle_beta 90.000000
_cell_angle_gamma 90.000000
_cell_volume 5400.000000
_symmetry_space_group_name_H-M "P 4/M B M"
_symmetry_group_IT_number 127
_symmetry_cell_setting 'tetragonal'
loop_
_space_group_symop_operation_xyz
x,y,z
-y,x,z
-x,-y,z
y,-x,z
1/2+x,1/2-y,-z
1/2-x,1/2+y,-z
1/2+y,1/2+x,-z
1/2-y,1/2-x,-z
-x,-y,-z
y,-x,-z
x,y,-z
-y,x,-z
1/2-x,1/2+y,z
1/2+x,1/2-y,z
1/2-y,1/2-x,z
1/2+y,1/2+x,z
loop_
_atom_site_type_symbol
_atom_site_label
_atom_site_fract_x
_atom_site_fract_y
_atom_site_fract_z
Si Si1 0.145011 0.503669 0.000000
Si Si2 0.469250 0.648061 0.439775
Si Si3 0.828957 0.471767 0.878177
Si Si4 0.530687 0.351636 0.316077
Si Si5 0.260208 0.904857 0.213474
Si Si6 0.887390 0.097395 0.000000
Si Si7 0.175988 0.819991 0.114927
O O1 0.189331 0.488774 0.939946
O O2 0.105513 0.605513 0.000000
O O3 0.064107 0.435894 0.000000
O O4 0.399202 0.566133 0.440037
O O5 0.459297 0.695712 0.500000
O O6 0.460599 0.690022 0.378441
O O7 0.924189 0.424189 0.881793
O O8 0.822905 0.534020 0.825016
O O9 0.754376 0.396698 0.871603
O O10 0.601607 0.433489 0.311465
O O11 0.549447 0.281539 0.267397
O O12 0.315497 0.815497 0.228328
O O13 0.182816 0.883207 0.168346
O O14 0.847749 0.137171 0.056338
O O15 0.991662 0.120560 0.000000
O O16 0.270900 0.770900 0.109809
#
# Coordination Sequence:
#
# PCOD9564502 Si02
#       7
#     8  16  16  16  16   8  16
#     4   9  17  30  48  66  80 100 139 189 232 267
#     4   7  10  19  39  68  96 119 149 190 228 260
#     4  10  20  35  53  69  89 118 152 192 237 285
#     4   9  17  30  49  71  96 127 159 189 225 275
#     4  11  22  33  47  68  95 124 155 194 234 276
#     4  11  22  34  50  70  91 114 142 180 226 285
#     4  10  21  36  51  66  87 116 150 190 235 277
#
# _framework density 17.777778000000001
#
# number of rings (size 3 to 8) (size 9 to 14) (size 15 to 20)
#    0.000    2.500    0.000    4.750    0.000    3.000 
#    0.000    2.500    0.000    0.500    0.000    0.000 
#    0.000    2.000    0.000    1.500    0.000    0.000 
#
# Total GULP energy -534662.228723 kJ/mol
# GULP energy per Si atom -5569.398216 kJ/mol
# Density = 1.773731 g / cm^3
# Si number density = 17.777778 Si / 1000 Ang^3
#
#
#
# Elastic Constant Matrix: (Units=GPa)
#
#
# Indices 1 2 3 4 5 6 
#
# 1 40.1519 13.8161 31.5288 0.0000 0.0000 0.0000
# 2 13.8161 40.1519 31.5287 0.0000 0.0000 0.0000
# 3 31.5288 31.5287 177.0337 0.0000 0.0000 0.0000
# 4 0.0000 0.0000 0.0000 10.1487 0.0000 0.0000
# 5 0.0000 0.0000 0.0000 0.0000 10.1468 0.0000
# 6 0.0000 0.0000 0.0000 0.0000 0.0000 22.2641
#
#
#
# Elastic Compliance Matrix: (Units=1/GPa)
#
#
# Indices 1 2 3 4 5 6 
#
# 1 0.030685 -0.007286 -0.004167 0.000000 0.000000 0.000000
# 2 -0.007286 0.030685 -0.004167 0.000000 0.000000 0.000000
# 3 -0.004167 -0.004167 0.007133 0.000000 0.000000 0.000000
# 4 0.000000 0.000000 0.000000 0.098535 0.000000 0.000000
# 5 0.000000 0.000000 0.000000 0.000000 0.098554 0.000000
# 6 0.000000 0.000000 0.000000 0.000000 0.000000 0.044915
#
#
# Mechanical properties :
#
#
# Convention : Reuss Voigt Hill
#
# Bulk Modulus (GPa) = 26.83749 45.67607 36.25678
# Shear Modulus (GPa) = 14.11758 20.54283 17.33020
#
# Velocity S-wave (km/s) = 2.82106 3.40300 3.12560
# Velocity P-wave (km/s) = 5.07346 6.41788 5.78486
#
# Compressibility (1/GPa) = 0.03726131
#
# Stress axis : x y z
#
# Youngs Moduli (GPa) = 32.58943 32.58941 140.19482
#
# Poissons Ratio (x) = 0.23746 0.58421
# Poissons Ratio (y) = 0.23746 0.58421
# Poissons Ratio (z) = 0.13580 0.13580
#
# Static dielectric constant tensor:
#      x y z
#    x 1.650760 0.000000 0.000000 
#    y 0.000000 1.650760 0.000000 
#    z 0.000000 0.000000 1.631880 
# 
# From -- ./inp_files/6109.got.cif
#   From: 2010.05.17/outbox.ucp.g08.bks.cvg/sg127_4_cif.got.tgz:6109.got - 2010.06.11 11:37:05.
