data_PCOD9564061
_publ_section_title
;
Structure prediction by ZEFSAII (Michael W. Deem and Ramdas Pophale) SiO2 
 PCOD9564061
Probable space group: P 4/M B M
;
_chemical_formula_sum "Si O2"
_cell_formula_units_Z 96
_cell_length_a 15.514184
_cell_length_b 15.514184
_cell_length_c 20.780630
_cell_angle_alpha 90.000000
_cell_angle_beta 90.000000
_cell_angle_gamma 90.000000
_cell_volume 5001.687864
_symmetry_space_group_name_H-M "P 4/M B M"
_symmetry_group_IT_number 127
_symmetry_cell_setting 'tetragonal'
loop_
_space_group_symop_operation_xyz
x,y,z
-y,x,z
-x,-y,z
y,-x,z
1/2+x,1/2-y,-z
1/2-x,1/2+y,-z
1/2+y,1/2+x,-z
1/2-y,1/2-x,-z
-x,-y,-z
y,-x,-z
x,y,-z
-y,x,-z
1/2-x,1/2+y,z
1/2+x,1/2-y,z
1/2-y,1/2-x,z
1/2+y,1/2+x,z
loop_
_atom_site_type_symbol
_atom_site_label
_atom_site_fract_x
_atom_site_fract_y
_atom_site_fract_z
Si Si1 0.109209 0.088240 0.747883
Si Si2 0.356958 0.995374 0.201794
Si Si3 0.703966 0.941271 0.069499
Si Si4 0.857233 0.979156 0.576159
Si Si5 0.115433 0.078821 0.901839
Si Si6 0.912878 0.269741 0.679530
O O1 0.115971 0.089994 0.824783
O O2 0.188639 0.134337 0.714292
O O3 0.013177 0.115831 0.729933
O O4 0.432273 0.067728 0.197609
O O5 0.303908 0.003366 0.135078
O O6 0.304549 0.022048 0.265247
O O7 0.403958 0.903958 0.206966
O O8 0.625449 0.874552 0.071037
O O9 0.793812 0.889346 0.072781
O O10 0.699503 0.987294 0.000000
O O11 0.838282 0.976921 0.500000
O O12 0.773078 0.959318 0.618325
O O13 0.929926 0.905496 0.589030
O O14 0.022638 0.114634 0.921126
O O15 0.845621 0.345621 0.663989
#
# Coordination Sequence:
#
# PCOD9564061 Si02
#       6
#    16  16  16  16  16  16
#     4   9  17  31  52  75 101 136 181 226 267 320
#     4   9  19  36  54  74 105 145 188 227 265 323
#     4  10  20  35  56  78 104 142 187 239 291 333
#     4   9  19  38  63  86 111 148 189 227 271 324
#     4   9  18  33  54  76 100 136 179 225 280 339
#     4  11  20  31  54  84 115 148 179 222 277 325
#
# _framework density 19.193519999999999
#
# number of rings (size 3 to 8) (size 9 to 14) (size 15 to 20)
#    0.000    2.500    1.667    2.500    0.000    2.667 
#    0.000    6.667    0.000    1.500    0.000    2.333 
#    0.000    0.000    0.000    0.000    0.000    0.000 
#
# Total GULP energy -534932.545982 kJ/mol
# GULP energy per Si atom -5572.214021 kJ/mol
# Density = 1.914983 g / cm^3
# Si number density = 19.193520 Si / 1000 Ang^3
#
#
#
# Elastic Constant Matrix: (Units=GPa)
#
#
# Indices 1 2 3 4 5 6 
#
# 1 59.9124 18.0371 38.1245 0.0000 0.0000 0.0000
# 2 18.0371 59.9124 38.1245 0.0000 0.0000 0.0000
# 3 38.1245 38.1245 137.7624 0.0000 0.0000 0.0000
# 4 0.0000 0.0000 0.0000 -21.8241 0.0000 0.0000
# 5 0.0000 0.0000 0.0000 0.0000 -21.8241 0.0000
# 6 0.0000 0.0000 0.0000 0.0000 0.0000 8.9691
#
#
#
# Elastic Compliance Matrix: (Units=1/GPa)
#
#
# Indices 1 2 3 4 5 6 
#
# 1 0.020736 -0.003145 -0.004868 0.000000 0.000000 0.000000
# 2 -0.003145 0.020736 -0.004868 0.000000 0.000000 0.000000
# 3 -0.004868 -0.004868 0.009953 0.000000 0.000000 0.000000
# 4 0.000000 0.000000 0.000000 -0.045821 0.000000 0.000000
# 5 0.000000 0.000000 0.000000 0.000000 -0.045821 0.000000
# 6 0.000000 0.000000 0.000000 0.000000 0.000000 0.111493
#
#
# Mechanical properties :
#
#
# Convention : Reuss Voigt Hill
#
# Bulk Modulus (GPa) = 38.96760 49.57329 44.27045
# Shear Modulus (GPa) = 47.35200 3.95091 25.65146
#
# Velocity S-wave (km/s) = 4.97236 1.43629 3.65973
# Velocity P-wave (km/s) = 7.30153 5.35115 6.40106
#
# Compressibility (1/GPa) = 0.02566234
#
# Stress axis : x y z
#
# Youngs Moduli (GPa) = 48.22637 48.22637 100.46959
#
# Poissons Ratio (x) = 0.15167 0.48909
# Poissons Ratio (y) = 0.15167 0.48909
# Poissons Ratio (z) = 0.23477 0.23477
#
# Static dielectric constant tensor:
#      x y z
#    x 1.692140 0.000000 0.000000 
#    y 0.000000 1.692140 0.000000 
#    z 0.000000 0.000000 1.733740 
# 
# From -- ./inp_files/5793.got.cif
#   From: 2010.05.17/outbox.cif.g08.bks.cpg/sg127_3_cif.got.tgz:5793.got - 2010.05.20 12:03:00.
