data_PCOD9564590
_publ_section_title
;
Structure prediction by ZEFSAII (Michael W. Deem and Ramdas Pophale) SiO2 
 PCOD9564590
Probable space group: P 4/M N C
;
_chemical_formula_sum "Si O2"
_cell_formula_units_Z 88
_cell_length_a 14.792613
_cell_length_b 14.792613
_cell_length_c 21.367189
_cell_angle_alpha 90.000000
_cell_angle_beta 90.000000
_cell_angle_gamma 90.000000
_cell_volume 4675.598198
_symmetry_space_group_name_H-M "P 4/M N C"
_symmetry_group_IT_number 128
_symmetry_cell_setting 'tetragonal'
loop_
_space_group_symop_operation_xyz
x,y,z
-y,x,z
-x,-y,z
y,-x,z
1/2+x,1/2-y,1/2-z
1/2-x,1/2+y,1/2-z
1/2+y,1/2+x,1/2-z
1/2-y,1/2-x,1/2-z
-x,-y,-z
y,-x,-z
x,y,-z
-y,x,-z
1/2-x,1/2+y,1/2+z
1/2+x,1/2-y,1/2+z
1/2-y,1/2-x,1/2+z
1/2+y,1/2+x,1/2+z
loop_
_atom_site_type_symbol
_atom_site_label
_atom_site_fract_x
_atom_site_fract_y
_atom_site_fract_z
Si Si1 0.395762 0.611968 0.431775
Si Si2 0.599349 0.952651 0.926567
Si Si3 0.831468 0.420142 0.192468
Si Si4 0.149752 0.027359 0.744233
Si Si5 0.395573 0.895573 0.750000
Si Si6 0.438268 0.754752 0.350713
O O1 0.379149 0.505581 0.427850
O O2 0.364354 0.641256 0.500000
O O3 0.369298 0.682492 0.379563
O O4 0.604592 0.872283 0.875025
O O5 0.500000 0.000000 0.921523
O O6 0.678878 0.019942 0.903094
O O7 0.612279 0.928723 0.000000
O O8 0.850771 0.350771 0.250000
O O9 0.726550 0.448063 0.194239
O O10 0.884818 0.509910 0.214848
O O11 0.070032 0.100409 0.740296
O O12 0.203568 0.015543 0.809906
O O13 0.389856 0.817561 0.699374
#
# Coordination Sequence:
#
# PCOD9564590 Si02
#       6
#    16  16  16  16   8  16
#     4   9  18  33  52  74 106 149 187 221 274 343
#     4  11  21  34  58  88 119 157 195 240 304 363
#     4  11  18  38  60  84 116 152 195 246 301 345
#     4  10  22  38  58  88 119 156 200 246 297 359
#     4  10  19  30  54  76 110 148 184 237 290 353
#     4  11  19  32  53  79 114 150 188 237 284 347
#
# _framework density 18.821121000000002
#
# number of rings (size 3 to 8) (size 9 to 14) (size 15 to 20)
#    0.000    1.636    5.455    2.455    0.000    1.455 
#    6.545    0.000    0.000    1.091    0.000    1.273 
#    0.000    0.000    0.000    0.000    0.000    0.000 
#
# Total GULP energy -490451.099836 kJ/mol
# GULP energy per Si atom -5573.307953 kJ/mol
# Density = 1.877828 g / cm^3
# Si number density = 18.821121 Si / 1000 Ang^3
#
#
#
# Elastic Constant Matrix: (Units=GPa)
#
#
# Indices 1 2 3 4 5 6 
#
# 1 81.3879 20.5221 24.8963 0.0000 0.0000 0.0000
# 2 20.5221 81.3879 24.8963 0.0000 0.0000 0.0000
# 3 24.8963 24.8963 120.5577 0.0000 0.0000 0.0000
# 4 0.0000 0.0000 0.0000 17.6796 0.0000 0.0000
# 5 0.0000 0.0000 0.0000 0.0000 17.6796 0.0000
# 6 0.0000 0.0000 0.0000 0.0000 0.0000 14.5068
#
#
#
# Elastic Compliance Matrix: (Units=1/GPa)
#
#
# Indices 1 2 3 4 5 6 
#
# 1 0.013672 -0.002758 -0.002254 0.000000 0.000000 0.000000
# 2 -0.002758 0.013672 -0.002254 0.000000 0.000000 0.000000
# 3 -0.002254 -0.002254 0.009226 0.000000 0.000000 0.000000
# 4 0.000000 0.000000 0.000000 0.056562 0.000000 0.000000
# 5 0.000000 0.000000 0.000000 0.000000 0.056562 0.000000
# 6 0.000000 0.000000 0.000000 0.000000 0.000000 0.068933
#
#
# Mechanical properties :
#
#
# Convention : Reuss Voigt Hill
#
# Bulk Modulus (GPa) = 45.37616 47.10698 46.24157
# Shear Modulus (GPa) = 20.78971 24.17448 22.48210
#
# Velocity S-wave (km/s) = 3.32715 3.58779 3.45992
# Velocity P-wave (km/s) = 6.23870 6.49970 6.37054
#
# Compressibility (1/GPa) = 0.02203800
#
# Stress axis : x y z
#
# Youngs Moduli (GPa) = 73.14395 73.14395 108.39356
#
# Poissons Ratio (x) = 0.20172 0.24430
# Poissons Ratio (y) = 0.20172 0.24430
# Poissons Ratio (z) = 0.16485 0.16485
#
# Static dielectric constant tensor:
#      x y z
#    x 1.701190 0.000000 0.000000 
#    y 0.000000 1.701190 0.000000 
#    z 0.000000 0.000000 1.703590 
# 
# From -- ./inp_files/5652.got.cif
#   From: 2010.05.17/outbox.cif.g08.bks.cpg/sg128_3_cif.got.tgz:5652.got - 2010.05.20 12:07:25.
