data_PCOD9564522
_publ_section_title
;
Structure prediction by ZEFSAII (Michael W. Deem and Ramdas Pophale) SiO2 
 PCOD9564522
Probable space group: P 4/M N C
;
_chemical_formula_sum "Si O2"
_cell_formula_units_Z 88
_cell_length_a 14.834491
_cell_length_b 14.834491
_cell_length_c 23.765904
_cell_angle_alpha 90.000000
_cell_angle_beta 90.000000
_cell_angle_gamma 90.000000
_cell_volume 5229.975295
_symmetry_space_group_name_H-M "P 4/M N C"
_symmetry_group_IT_number 128
_symmetry_cell_setting 'tetragonal'
loop_
_space_group_symop_operation_xyz
x,y,z
-y,x,z
-x,-y,z
y,-x,z
1/2+x,1/2-y,1/2-z
1/2-x,1/2+y,1/2-z
1/2+y,1/2+x,1/2-z
1/2-y,1/2-x,1/2-z
-x,-y,-z
y,-x,-z
x,y,-z
-y,x,-z
1/2-x,1/2+y,1/2+z
1/2+x,1/2-y,1/2+z
1/2-y,1/2-x,1/2+z
1/2+y,1/2+x,1/2+z
loop_
_atom_site_type_symbol
_atom_site_label
_atom_site_fract_x
_atom_site_fract_y
_atom_site_fract_z
Si Si1 0.069863 0.582362 0.066099
Si Si2 0.107246 0.607246 0.250000
Si Si3 0.341786 0.693511 0.689211
Si Si4 0.858399 0.795858 0.320067
Si Si5 0.523111 0.781579 0.341336
Si Si6 0.764680 0.442965 0.147769
O O1 0.030415 0.667143 0.099885
O O2 0.164380 0.561888 0.097103
O O3 0.000000 0.500000 0.073637
O O4 0.081556 0.598255 0.000000
O O5 0.138491 0.525290 0.292334
O O6 0.184573 0.598069 0.203026
O O7 0.282394 0.783379 0.680273
O O8 0.363508 0.676012 0.754722
O O9 0.436711 0.718146 0.661751
O O10 0.281641 0.610286 0.668221
O O11 0.821109 0.878084 0.357426
O O12 0.954880 0.761556 0.339924
#
# Coordination Sequence:
#
# PCOD9564522 Si02
#       6
#    16   8  16  16  16  16
#     4  10  22  42  61  81 112 151 211 262 286 329
#     4  10  16  34  51  80 114 155 192 228 286 352
#     4  11  19  33  54  85 123 154 188 234 293 368
#     4  11  19  33  54  85 123 154 188 234 293 368
#     4  11  20  35  57  84 119 156 191 239 297 353
#     4  11  20  35  57  84 119 156 191 239 297 353
#
# _framework density 16.826083000000001
#
# number of rings (size 3 to 8) (size 9 to 14) (size 15 to 20)
#    0.000    1.273    7.273    1.091    0.000    0.727 
#    0.000    6.364    0.000    0.000    0.000    2.545 
#    0.000    0.000    0.000    0.000    0.000    0.000 
#
# Total GULP energy -490131.487079 kJ/mol
# GULP energy per Si atom -5569.675990 kJ/mol
# Density = 1.678779 g / cm^3
# Si number density = 16.826083 Si / 1000 Ang^3
#
#
#
# Elastic Constant Matrix: (Units=GPa)
#
#
# Indices 1 2 3 4 5 6 
#
# 1 100.4911 47.9727 56.9145 0.0000 0.0000 0.0000
# 2 47.9727 100.4911 56.9145 0.0000 0.0000 0.0000
# 3 56.9145 56.9145 115.1923 0.0000 0.0000 0.0000
# 4 0.0000 0.0000 0.0000 15.1630 0.0000 0.0000
# 5 0.0000 0.0000 0.0000 0.0000 15.1630 0.0000
# 6 0.0000 0.0000 0.0000 0.0000 0.0000 21.2041
#
#
#
# Elastic Compliance Matrix: (Units=1/GPa)
#
#
# Indices 1 2 3 4 5 6 
#
# 1 0.014942 -0.004099 -0.005357 0.000000 0.000000 0.000000
# 2 -0.004099 0.014942 -0.005357 0.000000 0.000000 0.000000
# 3 -0.005357 -0.005357 0.013975 0.000000 0.000000 0.000000
# 4 0.000000 0.000000 0.000000 0.065950 0.000000 0.000000
# 5 0.000000 0.000000 0.000000 0.000000 0.065950 0.000000
# 6 0.000000 0.000000 0.000000 0.000000 0.000000 0.047161
#
#
# Mechanical properties :
#
#
# Convention : Reuss Voigt Hill
#
# Bulk Modulus (GPa) = 70.26482 71.08643 70.67562
# Shear Modulus (GPa) = 19.43321 20.59754 20.01538
#
# Velocity S-wave (km/s) = 3.40214 3.50257 3.45272
# Velocity P-wave (km/s) = 7.56854 7.66139 7.61511
#
# Compressibility (1/GPa) = 0.01423187
#
# Stress axis : x y z
#
# Youngs Moduli (GPa) = 66.92490 66.92490 71.55521
#
# Poissons Ratio (x) = 0.27431 0.38336
# Poissons Ratio (y) = 0.27431 0.38336
# Poissons Ratio (z) = 0.35855 0.35855
#
# Static dielectric constant tensor:
#      x y z
#    x 1.587250 0.000000 0.000000 
#    y 0.000000 1.587250 0.000000 
#    z 0.000000 0.000000 1.554520 
# 
# From -- ./inp_files/5634.got.cif
#   From: 2010.05.17/outbox.cif.g08.bks.cpg/sg128_3_cif.got.tgz:5634.got - 2010.05.20 12:07:25.
