data_PCOD9564553
_publ_section_title
;
Structure prediction by ZEFSAII (Michael W. Deem and Ramdas Pophale) SiO2 
 PCOD9564553
Probable space group: P 4/M N C
;
_chemical_formula_sum "Si O2"
_cell_formula_units_Z 96
_cell_length_a 26.074745
_cell_length_b 26.074745
_cell_length_c 8.471477
_cell_angle_alpha 90.000000
_cell_angle_beta 90.000000
_cell_angle_gamma 90.000000
_cell_volume 5759.692209
_symmetry_space_group_name_H-M "P 4/M N C"
_symmetry_group_IT_number 128
_symmetry_cell_setting 'tetragonal'
loop_
_space_group_symop_operation_xyz
x,y,z
-y,x,z
-x,-y,z
y,-x,z
1/2+x,1/2-y,1/2-z
1/2-x,1/2+y,1/2-z
1/2+y,1/2+x,1/2-z
1/2-y,1/2-x,1/2-z
-x,-y,-z
y,-x,-z
x,y,-z
-y,x,-z
1/2-x,1/2+y,1/2+z
1/2+x,1/2-y,1/2+z
1/2-y,1/2-x,1/2+z
1/2+y,1/2+x,1/2+z
loop_
_atom_site_type_symbol
_atom_site_label
_atom_site_fract_x
_atom_site_fract_y
_atom_site_fract_z
Si Si1 0.632684 0.947236 0.316247
Si Si2 0.555476 0.250609 0.316447
Si Si3 0.751327 0.669423 0.689825
Si Si4 0.442762 0.245644 0.313156
Si Si5 0.448071 0.872460 0.318593
Si Si6 0.169950 0.747844 0.312153
O O1 0.593887 0.906114 0.250000
O O2 0.644219 0.938621 0.500000
O O3 0.684723 0.944743 0.216525
O O4 0.611019 0.003968 0.287348
O O5 0.555449 0.267510 0.500000
O O6 0.612057 0.262410 0.248882
O O7 0.498710 0.265837 0.252063
O O8 0.555655 0.188805 0.313922
O O9 0.804113 0.695888 0.750000
O O10 0.754912 0.666608 0.500000
O O11 0.706840 0.708810 0.739435
O O12 0.440144 0.256091 0.500000
O O13 0.388680 0.259947 0.234666
O O14 0.397543 0.897543 0.250000
O O15 0.456542 0.887584 0.500000
O O16 0.193418 0.693418 0.250000
O O17 0.174950 0.747406 0.500000
#
# Coordination Sequence:
#
# PCOD9564553 Si02
#       6
#    16  16  16  16  16  16
#     4  11  21  33  46  62  82 110 146 188 232 277
#     4   8  17  31  49  69  92 119 152 188 230 278
#     4  10  18  31  49  72  98 128 159 194 235 281
#     4  10  19  34  51  69  92 121 153 191 232 279
#     4  10  19  32  46  63  84 111 146 188 231 275
#     4  11  21  33  48  71  98 129 163 199 238 282
#
# _framework density 16.667558
#
# number of rings (size 3 to 8) (size 9 to 14) (size 15 to 20)
#    0.000    2.000    0.000    7.500    0.000    0.333 
#    0.000   10.833    0.000    0.000    0.000    0.000 
#    0.000    0.667    0.000    7.667    0.000    3.000 
#
# Total GULP energy -534763.028971 kJ/mol
# GULP energy per Si atom -5570.448218 kJ/mol
# Density = 1.662962 g / cm^3
# Si number density = 16.667558 Si / 1000 Ang^3
#
#
#
# Elastic Constant Matrix: (Units=GPa)
#
#
# Indices 1 2 3 4 5 6 
#
# 1 75.8830 19.3889 8.3748 0.0000 0.0000 0.0000
# 2 19.3889 75.8814 8.3778 0.0000 0.0000 0.0000
# 3 8.3748 8.3778 42.3244 0.0000 0.0000 0.0000
# 4 0.0000 0.0000 0.0000 15.0395 0.0000 0.0000
# 5 0.0000 0.0000 0.0000 0.0000 15.0399 0.0000
# 6 0.0000 0.0000 0.0000 0.0000 0.0000 19.7584
#
#
#
# Elastic Compliance Matrix: (Units=1/GPa)
#
#
# Indices 1 2 3 4 5 6 
#
# 1 0.014288 -0.003413 -0.002152 0.000000 0.000000 0.000000
# 2 -0.003413 0.014288 -0.002153 0.000000 0.000000 0.000000
# 3 -0.002152 -0.002153 0.024479 0.000000 0.000000 0.000000
# 4 0.000000 0.000000 0.000000 0.066492 0.000000 0.000000
# 5 0.000000 0.000000 0.000000 0.000000 0.066490 0.000000
# 6 0.000000 0.000000 0.000000 0.000000 0.000000 0.050611
#
#
# Mechanical properties :
#
#
# Convention : Reuss Voigt Hill
#
# Bulk Modulus (GPa) = 26.58179 29.59685 28.08932
# Shear Modulus (GPa) = 18.89481 20.49738 19.69609
#
# Velocity S-wave (km/s) = 3.37059 3.51062 3.44132
# Velocity P-wave (km/s) = 5.57949 5.85050 5.71660
#
# Compressibility (1/GPa) = 0.03761974
#
# Stress axis : x y z
#
# Youngs Moduli (GPa) = 69.99006 69.98750 40.85146
#
# Poissons Ratio (x) = 0.23888 0.08789
# Poissons Ratio (y) = 0.23889 0.08795
# Poissons Ratio (z) = 0.15059 0.15067
#
# Static dielectric constant tensor:
#      x y z
#    x 1.599370 0.000000 0.000000 
#    y 0.000000 1.599360 0.000000 
#    z 0.000000 0.000000 1.575770 
# 
# From -- ./inp_files/1593.got.cif
#   From: 2010.05.17/outbox.cif.g08.bks.cpg/sg128_1_cif.got.tgz:1593.got - 2010.05.20 12:07:25.
