data_PCOD9564880
_publ_section_title
;
Structure prediction by ZEFSAII (Michael W. Deem and Ramdas Pophale) SiO2 
 PCOD9564880
Probable space group: P 4/M N C
;
_chemical_formula_sum "Si O2"
_cell_formula_units_Z 64
_cell_length_a 10.256769
_cell_length_b 10.256769
_cell_length_c 35.473770
_cell_angle_alpha 90.000000
_cell_angle_beta 90.000000
_cell_angle_gamma 90.000000
_cell_volume 3731.887086
_symmetry_space_group_name_H-M "P 4/M N C"
_symmetry_group_IT_number 128
_symmetry_cell_setting 'tetragonal'
loop_
_space_group_symop_operation_xyz
x,y,z
-y,x,z
-x,-y,z
y,-x,z
1/2+x,1/2-y,1/2-z
1/2-x,1/2+y,1/2-z
1/2+y,1/2+x,1/2-z
1/2-y,1/2-x,1/2-z
-x,-y,-z
y,-x,-z
x,y,-z
-y,x,-z
1/2-x,1/2+y,1/2+z
1/2+x,1/2-y,1/2+z
1/2-y,1/2-x,1/2+z
1/2+y,1/2+x,1/2+z
loop_
_atom_site_type_symbol
_atom_site_label
_atom_site_fract_x
_atom_site_fract_y
_atom_site_fract_z
Si Si1 0.101132 0.601211 0.685562
Si Si2 0.108620 0.807025 0.876232
Si Si3 0.511023 0.716943 0.751829
Si Si4 0.608579 0.692704 0.540447
O O1 0.207226 0.650088 0.655904
O O2 0.178120 0.524277 0.718702
O O3 0.025413 0.713946 0.707897
O O4 0.000000 0.500000 0.667494
O O5 0.139210 0.752950 0.918207
O O6 0.951685 0.829859 0.872527
O O7 0.381328 0.632794 0.747892
O O8 0.452652 0.669533 0.540307
O O9 0.643744 0.755686 0.500000
#
# Coordination Sequence:
#
# PCOD9564880 Si02
#       4
#    16  16  16  16
#     4  11  23  31  50  69  93 117 151 190 230 269
#     4   9  17  29  47  70  97 127 152 184 228 272
#     4  10  22  37  52  65  84 117 154 192 233 273
#     4   7  10  19  38  65  93 120 151 181 215 264
#
# _framework density 17.149501999999998
#
# number of rings (size 3 to 8) (size 9 to 14) (size 15 to 20)
#    0.000    2.750    0.000    5.250   10.500    2.000 
#    0.000    0.000    0.000    0.750    0.000    0.000 
#    0.000    0.000    0.000    2.750    0.000    0.000 
#
# Total GULP energy -356433.402634 kJ/mol
# GULP energy per Si atom -5569.271916 kJ/mol
# Density = 1.711047 g / cm^3
# Si number density = 17.149502 Si / 1000 Ang^3
#
#
#
# Elastic Constant Matrix: (Units=GPa)
#
#
# Indices 1 2 3 4 5 6 
#
# 1 52.1379 -18.8123 -2.2490 0.0000 0.0000 0.0000
# 2 -18.8123 52.1379 -2.2490 0.0000 0.0000 0.0000
# 3 -2.2490 -2.2490 95.3512 0.0000 0.0000 0.0000
# 4 0.0000 0.0000 0.0000 8.6252 0.0000 0.0000
# 5 0.0000 0.0000 0.0000 0.0000 8.6252 0.0000
# 6 0.0000 0.0000 0.0000 0.0000 0.0000 11.9475
#
#
#
# Elastic Compliance Matrix: (Units=1/GPa)
#
#
# Indices 1 2 3 4 5 6 
#
# 1 0.022099 0.008004 0.000710 0.000000 0.000000 0.000000
# 2 0.008004 0.022099 0.000710 0.000000 0.000000 0.000000
# 3 0.000710 0.000710 0.010521 0.000000 0.000000 0.000000
# 4 0.000000 0.000000 0.000000 0.115939 0.000000 0.000000
# 5 0.000000 0.000000 0.000000 0.000000 0.115939 0.000000
# 6 0.000000 0.000000 0.000000 0.000000 0.000000 0.083700
#
#
# Mechanical properties :
#
#
# Convention : Reuss Voigt Hill
#
# Bulk Modulus (GPa) = 13.59309 17.00069 15.29689
# Shear Modulus (GPa) = 13.29894 20.70208 17.00051
#
# Velocity S-wave (km/s) = 2.78775 3.47818 3.15193
# Velocity P-wave (km/s) = 4.27849 5.10540 4.71013
#
# Compressibility (1/GPa) = 0.07356677
#
# Stress axis : x y z
#
# Youngs Moduli (GPa) = 45.25176 45.25176 95.04767
#
# Poissons Ratio (x) = -0.36220 -0.06749
# Poissons Ratio (y) = -0.36220 -0.06749
# Poissons Ratio (z) = -0.03213 -0.03213
#
# Static dielectric constant tensor:
#      x y z
#    x 1.581670 0.000000 0.000000 
#    y 0.000000 1.581670 0.000000 
#    z 0.000000 0.000000 1.635030 
# 
# From -- ./inp_files/7091.got.cif
#   From: 2010.05.17/outbox.cif.g08.bks.cpg/sg128_4_cif.got.tgz:7091.got - 2010.05.20 12:07:25.
