data_PCOD9564463
_publ_section_title
;
Structure prediction by ZEFSAII (Michael W. Deem and Ramdas Pophale) SiO2 
 PCOD9564463
Probable space group: P 4/M B M
;
_chemical_formula_sum "Si O2"
_cell_formula_units_Z 52
_cell_length_a 14.650037
_cell_length_b 14.650037
_cell_length_c 10.607289
_cell_angle_alpha 90.000000
_cell_angle_beta 90.000000
_cell_angle_gamma 90.000000
_cell_volume 2276.574383
_symmetry_space_group_name_H-M "P 4/M B M"
_symmetry_group_IT_number 127
_symmetry_cell_setting 'tetragonal'
loop_
_space_group_symop_operation_xyz
x,y,z
-y,x,z
-x,-y,z
y,-x,z
1/2+x,1/2-y,-z
1/2-x,1/2+y,-z
1/2+y,1/2+x,-z
1/2-y,1/2-x,-z
-x,-y,-z
y,-x,-z
x,y,-z
-y,x,-z
1/2-x,1/2+y,z
1/2+x,1/2-y,z
1/2-y,1/2-x,z
1/2+y,1/2+x,z
loop_
_atom_site_type_symbol
_atom_site_label
_atom_site_fract_x
_atom_site_fract_y
_atom_site_fract_z
Si Si1 0.480849 0.350818 0.000000
Si Si2 0.182233 0.682233 0.500000
Si Si3 0.245557 0.745557 0.777422
Si Si4 0.036962 0.304381 0.500000
Si Si5 0.403399 0.096601 0.147136
Si Si6 0.954904 0.737938 0.776984
O O1 0.575396 0.403836 0.000000
O O2 0.481749 0.294642 0.870870
O O3 0.226072 0.726072 0.627040
O O4 0.188137 0.572623 0.500000
O O5 0.174901 0.674901 0.839014
O O6 0.237624 0.851850 0.815759
O O7 0.105148 0.394853 0.500000
O O8 0.052825 0.249147 0.627984
O O9 0.495665 0.138555 0.208118
O O10 0.420224 0.079777 0.000000
#
# Coordination Sequence:
#
# PCOD9564463 Si02
#       6
#     8   4   8   8   8  16
#     4  11  26  48  72 105 148 206 266 327 390 459
#     4  12  25  46  80 103 148 202 252 298 388 469
#     4  12  26  44  75 108 147 206 246 318 384 468
#     4  12  24  48  71 112 151 195 245 313 388 461
#     4  12  26  46  70 111 149 198 256 317 388 456
#     4  12  25  46  75 109 152 198 253 319 390 465
#
# _framework density 22.841336999999999
#
# number of rings (size 3 to 8) (size 9 to 14) (size 15 to 20)
#    0.000    0.154    6.154    3.000    2.154    0.615 
#    0.000    0.769    0.000    1.846    0.000    0.000 
#    0.000    0.000    0.000    0.000    0.000    0.000 
#
# Total GULP energy -289752.835197 kJ/mol
# GULP energy per Si atom -5572.169908 kJ/mol
# Density = 2.278935 g / cm^3
# Si number density = 22.841337 Si / 1000 Ang^3
#
#
#
# Elastic Constant Matrix: (Units=GPa)
#
#
# Indices 1 2 3 4 5 6 
#
# 1 111.6058 65.2435 21.7815 0.0000 0.0000 0.0000
# 2 65.2435 111.6050 21.7813 0.0000 0.0000 0.0000
# 3 21.7815 21.7813 146.0178 0.0000 0.0000 0.0000
# 4 0.0000 0.0000 0.0000 3.9679 0.0000 0.0000
# 5 0.0000 0.0000 0.0000 0.0000 3.9690 0.0000
# 6 0.0000 0.0000 0.0000 0.0000 0.0000 47.3847
#
#
#
# Elastic Compliance Matrix: (Units=1/GPa)
#
#
# Indices 1 2 3 4 5 6 
#
# 1 0.013720 -0.007850 -0.000876 0.000000 0.000000 0.000000
# 2 -0.007850 0.013720 -0.000876 0.000000 0.000000 0.000000
# 3 -0.000876 -0.000876 0.007110 0.000000 0.000000 0.000000
# 4 0.000000 0.000000 0.000000 0.252024 0.000000 0.000000
# 5 0.000000 0.000000 0.000000 0.000000 0.251954 0.000000
# 6 0.000000 0.000000 0.000000 0.000000 0.000000 0.021104
#
#
# Mechanical properties :
#
#
# Convention : Reuss Voigt Hill
#
# Bulk Modulus (GPa) = 65.15690 65.20457 65.18073
# Shear Modulus (GPa) = 8.56239 28.42580 18.49410
#
# Velocity S-wave (km/s) = 1.93824 3.53156 2.84857
# Velocity P-wave (km/s) = 5.79628 6.72591 6.27833
#
# Compressibility (1/GPa) = 0.01534757
#
# Stress axis : x y z
#
# Youngs Moduli (GPa) = 72.88746 72.88695 140.65238
#
# Poissons Ratio (x) = 0.57213 0.12317
# Poissons Ratio (y) = 0.57214 0.12316
# Poissons Ratio (z) = 0.06383 0.06382
#
# Static dielectric constant tensor:
#      x y z
#    x 1.904420 0.000000 0.000000 
#    y 0.000000 1.904420 0.000000 
#    z 0.000000 0.000000 5.364480 
# 
# From -- ./inp_files/2921.got.cif
#   From: 2010.05.17/outbox.cif.g08.bks.cpg/sg127_2_cif.got.tgz:2921.got - 2010.05.20 12:03:00.
