data_PCOD9564747
_publ_section_title
;
Structure prediction by ZEFSAII (Michael W. Deem and Ramdas Pophale) SiO2 
 PCOD9564747
Probable space group: P 4/M N C
;
_chemical_formula_sum "Si O2"
_cell_formula_units_Z 112
_cell_length_a 14.067090
_cell_length_b 14.067090
_cell_length_c 25.601391
_cell_angle_alpha 90.000000
_cell_angle_beta 90.000000
_cell_angle_gamma 90.000000
_cell_volume 5066.080595
_symmetry_space_group_name_H-M "P 4/M N C"
_symmetry_group_IT_number 128
_symmetry_cell_setting 'tetragonal'
loop_
_space_group_symop_operation_xyz
x,y,z
-y,x,z
-x,-y,z
y,-x,z
1/2+x,1/2-y,1/2-z
1/2-x,1/2+y,1/2-z
1/2+y,1/2+x,1/2-z
1/2-y,1/2-x,1/2-z
-x,-y,-z
y,-x,-z
x,y,-z
-y,x,-z
1/2-x,1/2+y,1/2+z
1/2+x,1/2-y,1/2+z
1/2-y,1/2-x,1/2+z
1/2+y,1/2+x,1/2+z
loop_
_atom_site_type_symbol
_atom_site_label
_atom_site_fract_x
_atom_site_fract_y
_atom_site_fract_z
Si Si1 0.137715 0.071435 0.852382
Si Si2 0.134506 0.213893 0.939666
Si Si3 0.492080 0.263687 0.941094
Si Si4 0.254970 0.088825 0.241304
Si Si5 0.310537 0.323797 0.898530
Si Si6 0.410870 0.942821 0.939309
Si Si7 0.259259 0.377567 0.217025
O O1 0.140065 0.112294 0.910988
O O2 0.230319 0.097789 0.820127
O O3 0.038217 0.122067 0.838076
O O4 0.237913 0.259888 0.931260
O O5 0.065574 0.301252 0.918950
O O6 0.112572 0.201283 0.000000
O O7 0.409719 0.268380 0.898161
O O8 0.577101 0.334649 0.927062
O O9 0.547101 0.163363 0.940208
O O10 0.454667 0.276503 0.000000
O O11 0.347591 0.152410 0.250000
O O12 0.161598 0.137852 0.266077
O O13 0.260812 0.984903 0.266040
O O14 0.259585 0.352157 0.844308
O O15 0.500000 0.000000 0.914600
O O16 0.401332 0.976191 0.000000
O O17 0.186512 0.313489 0.250000
#
# Coordination Sequence:
#
# PCOD9564747 Si02
#       7
#    16  16  16  16  16  16  16
#     4  11  24  43  66  94 129 177 229 283 350 420
#     4  10  21  38  61  90 130 175 223 278 340 407
#     4  10  20  36  58  87 129 169 210 267 329 402
#     4  11  23  44  73 100 133 182 231 301 370 423
#     4  11  22  38  61  94 128 171 222 268 342 417
#     4   8  16  33  57  84 119 168 218 272 332 397
#     4  11  24  43  71 101 139 178 235 297 354 433
#
# _framework density 22.10782
#
# number of rings (size 3 to 8) (size 9 to 14) (size 15 to 20)
#    0.000    1.714    1.429    4.714    0.000    2.571 
#    0.000    5.714    0.000    0.000    0.000    0.000 
#    0.000    0.000    0.000    0.000    0.000    0.000 
#
# Total GULP energy -623864.044889 kJ/mol
# GULP energy per Si atom -5570.214687 kJ/mol
# Density = 2.205750 g / cm^3
# Si number density = 22.107820 Si / 1000 Ang^3
#
#
#
# Elastic Constant Matrix: (Units=GPa)
#
#
# Indices 1 2 3 4 5 6 
#
# 1 72.6895 20.6941 26.6314 0.0000 0.0000 0.0000
# 2 20.6941 72.6925 26.6318 0.0000 0.0000 0.0000
# 3 26.6314 26.6318 105.2933 0.0000 0.0000 0.0000
# 4 0.0000 0.0000 0.0000 23.1762 0.0000 0.0000
# 5 0.0000 0.0000 0.0000 0.0000 23.1773 0.0000
# 6 0.0000 0.0000 0.0000 0.0000 0.0000 20.3571
#
#
#
# Elastic Compliance Matrix: (Units=1/GPa)
#
#
# Indices 1 2 3 4 5 6 
#
# 1 0.015873 -0.003359 -0.003165 0.000000 0.000000 0.000000
# 2 -0.003359 0.015872 -0.003165 0.000000 0.000000 0.000000
# 3 -0.003165 -0.003165 0.011098 0.000000 0.000000 0.000000
# 4 0.000000 0.000000 0.000000 0.043148 0.000000 0.000000
# 5 0.000000 0.000000 0.000000 0.000000 0.043146 0.000000
# 6 0.000000 0.000000 0.000000 0.000000 0.000000 0.049123
#
#
# Mechanical properties :
#
#
# Convention : Reuss Voigt Hill
#
# Bulk Modulus (GPa) = 42.61607 44.28778 43.45193
# Shear Modulus (GPa) = 24.33561 25.12333 24.72947
#
# Velocity S-wave (km/s) = 3.32138 3.37471 3.34815
# Velocity P-wave (km/s) = 5.83328 5.93810 5.88592
#
# Compressibility (1/GPa) = 0.02346533
#
# Stress axis : x y z
#
# Youngs Moduli (GPa) = 62.99982 63.00250 90.10369
#
# Poissons Ratio (x) = 0.21164 0.28518
# Poissons Ratio (y) = 0.21163 0.28518
# Poissons Ratio (z) = 0.19940 0.19940
#
# Static dielectric constant tensor:
#      x y z
#    x 1.865410 0.000000 0.000000 
#    y 0.000000 1.865410 0.000000 
#    z 0.000000 0.000000 1.913880 
# 
# From -- ./inp_files/6468.got.cif
#   From: 2010.05.17/outbox.cif.g08.bks.cpg/sg128_4_cif.got.tgz:6468.got - 2010.05.20 12:07:25.
