data_PCOD9564532
_publ_section_title
;
Structure prediction by ZEFSAII (Michael W. Deem and Ramdas Pophale) SiO2 
 PCOD9564532
Probable space group: P 4/M N C
;
_chemical_formula_sum "Si O2"
_cell_formula_units_Z 112
_cell_length_a 15.359225
_cell_length_b 15.359225
_cell_length_c 23.609026
_cell_angle_alpha 90.000000
_cell_angle_beta 90.000000
_cell_angle_gamma 90.000000
_cell_volume 5569.505991
_symmetry_space_group_name_H-M "P 4/M N C"
_symmetry_group_IT_number 128
_symmetry_cell_setting 'tetragonal'
loop_
_space_group_symop_operation_xyz
x,y,z
-y,x,z
-x,-y,z
y,-x,z
1/2+x,1/2-y,1/2-z
1/2-x,1/2+y,1/2-z
1/2+y,1/2+x,1/2-z
1/2-y,1/2-x,1/2-z
-x,-y,-z
y,-x,-z
x,y,-z
-y,x,-z
1/2-x,1/2+y,1/2+z
1/2+x,1/2-y,1/2+z
1/2-y,1/2-x,1/2+z
1/2+y,1/2+x,1/2+z
loop_
_atom_site_type_symbol
_atom_site_label
_atom_site_fract_x
_atom_site_fract_y
_atom_site_fract_z
Si Si1 0.710170 0.663872 0.721946
Si Si2 0.173606 0.576797 0.933330
Si Si3 0.009045 0.594638 0.855219
Si Si4 0.239428 0.215757 0.094724
Si Si5 0.723940 0.465216 0.294293
Si Si6 0.870235 0.941026 0.087370
Si Si7 0.387891 0.850036 0.936962
O O1 0.793132 0.706869 0.750000
O O2 0.715951 0.693550 0.656187
O O3 0.710508 0.560853 0.729950
O O4 0.619276 0.705163 0.743326
O O5 0.078709 0.578343 0.904869
O O6 0.221042 0.656814 0.903230
O O7 0.203752 0.476916 0.926458
O O8 0.171815 0.596220 0.000000
O O9 0.000000 0.500000 0.825662
O O10 0.037582 0.677371 0.818272
O O11 0.920532 0.619450 0.887307
O O12 0.208033 0.122686 0.068337
O O13 0.204151 0.299917 0.063409
O O14 0.654471 0.456128 0.346243
O O15 0.958695 0.889066 0.071045
O O16 0.398735 0.890218 0.000000
#
# Coordination Sequence:
#
# PCOD9564532 Si02
#       7
#    16  16  16  16  16  16  16
#     4  11  24  41  59  87 112 148 193 242 292 348
#     4  10  20  33  54  84 116 153 195 233 280 342
#     4  10  18  32  54  84 119 158 191 228 276 338
#     4  11  20  36  60  82 117 147 193 241 289 340
#     4  11  19  39  62  84 115 147 193 236 291 351
#     4  10  17  29  57  85 107 143 181 222 277 339
#     4  10  20  34  54  83 117 154 193 233 282 338
#
# _framework density 20.109504000000001
#
# number of rings (size 3 to 8) (size 9 to 14) (size 15 to 20)
#    0.000    1.571    7.143    0.857    0.000    2.000 
#    5.143    0.000    0.000    0.429    0.000    7.000 
#    0.000    0.000    0.000    0.000    0.000    0.000 
#
# Total GULP energy -623879.056939 kJ/mol
# GULP energy per Si atom -5570.348723 kJ/mol
# Density = 2.006373 g / cm^3
# Si number density = 20.109504 Si / 1000 Ang^3
#
#
#
# Elastic Constant Matrix: (Units=GPa)
#
#
# Indices 1 2 3 4 5 6 
#
# 1 116.5424 27.1167 4.8657 0.0000 0.0000 0.0000
# 2 27.1167 116.5441 4.8664 0.0000 0.0000 0.0000
# 3 4.8657 4.8664 9.3687 0.0000 0.0000 0.0000
# 4 0.0000 0.0000 0.0000 5.4463 0.0000 0.0000
# 5 0.0000 0.0000 0.0000 0.0000 5.4452 0.0000
# 6 0.0000 0.0000 0.0000 0.0000 0.0000 25.7133
#
#
#
# Elastic Compliance Matrix: (Units=1/GPa)
#
#
# Indices 1 2 3 4 5 6 
#
# 1 0.009199 -0.001984 -0.003747 0.000000 0.000000 0.000000
# 2 -0.001984 0.009199 -0.003748 0.000000 0.000000 0.000000
# 3 -0.003747 -0.003748 0.110631 0.000000 0.000000 0.000000
# 4 0.000000 0.000000 0.000000 0.183611 0.000000 0.000000
# 5 0.000000 0.000000 0.000000 0.000000 0.183648 0.000000
# 6 0.000000 0.000000 0.000000 0.000000 0.000000 0.038890
#
#
# Mechanical properties :
#
#
# Convention : Reuss Voigt Hill
#
# Bulk Modulus (GPa) = 9.08505 35.12809 22.10657
# Shear Modulus (GPa) = 8.46275 21.02805 14.74540
#
# Velocity S-wave (km/s) = 2.05365 3.23720 2.71081
# Velocity P-wave (km/s) = 3.18605 5.61061 4.56234
#
# Compressibility (1/GPa) = 0.11007094
#
# Stress axis : x y z
#
# Youngs Moduli (GPa) = 108.71236 108.71334 9.03909
#
# Poissons Ratio (x) = 0.21567 0.03387
# Poissons Ratio (y) = 0.21566 0.03388
# Poissons Ratio (z) = 0.40733 0.40742
#
# Static dielectric constant tensor:
#      x y z
#    x 1.745330 0.000000 0.000000 
#    y 0.000000 1.745330 0.000000 
#    z 0.000000 0.000000 1.758770 
# 
# From -- ./inp_files/6912.got.cif
#   From: 2010.05.17/outbox.cif.g08.bks.cpg/sg128_4_cif.got.tgz:6912.got - 2010.05.20 12:07:25.
