data_PCOD9564778
_publ_section_title
;
Structure prediction by ZEFSAII (Michael W. Deem and Ramdas Pophale) SiO2 
 PCOD9564778
Probable space group: P 4/M N C
;
_chemical_formula_sum "Si O2"
_cell_formula_units_Z 84
_cell_length_a 14.328196
_cell_length_b 14.328196
_cell_length_c 22.082937
_cell_angle_alpha 90.000000
_cell_angle_beta 90.000000
_cell_angle_gamma 90.000000
_cell_volume 4533.565147
_symmetry_space_group_name_H-M "P 4/M N C"
_symmetry_group_IT_number 128
_symmetry_cell_setting 'tetragonal'
loop_
_space_group_symop_operation_xyz
x,y,z
-y,x,z
-x,-y,z
y,-x,z
1/2+x,1/2-y,1/2-z
1/2-x,1/2+y,1/2-z
1/2+y,1/2+x,1/2-z
1/2-y,1/2-x,1/2-z
-x,-y,-z
y,-x,-z
x,y,-z
-y,x,-z
1/2-x,1/2+y,1/2+z
1/2+x,1/2-y,1/2+z
1/2-y,1/2-x,1/2+z
1/2+y,1/2+x,1/2+z
loop_
_atom_site_type_symbol
_atom_site_label
_atom_site_fract_x
_atom_site_fract_y
_atom_site_fract_z
Si Si1 0.222086 0.991321 0.669011
Si Si2 0.074851 0.721652 0.000000
Si Si3 0.500000 0.500000 0.162963
Si Si4 0.291735 0.798077 0.867263
Si Si5 0.663231 0.027784 0.786057
Si Si6 0.141172 0.643073 0.873710
Si Si7 0.753906 0.143673 0.000000
O O1 0.243558 0.884353 0.652292
O O2 0.260905 0.005335 0.737128
O O3 0.287437 0.057144 0.627760
O O4 0.114351 0.014843 0.663344
O O5 0.099148 0.663218 0.060190
O O6 0.142847 0.811483 0.000000
O O7 0.967680 0.751685 0.000000
O O8 0.291595 0.894149 0.829864
O O9 0.201627 0.734130 0.855336
O O10 0.293769 0.820010 0.938654
O O11 0.581153 0.081153 0.750000
O O12 0.628221 0.942032 0.826227
#
# Coordination Sequence:
#
# PCOD9564778 Si02
#       7
#    16   8   4  16  16  16   8
#     4  11  24  39  65  88 126 165 212 257 310 369
#     4  10  22  40  69  93 125 169 209 258 319 378
#     4  12  24  44  60  93 120 169 216 252 304 370
#     4  10  22  40  62  93 126 164 202 258 314 373
#     4  10  23  39  63  95 129 165 208 256 319 372
#     4  11  22  41  64  92 130 166 208 260 318 374
#     4  10  20  42  65  93 127 161 207 256 311 372
#
# _framework density 18.528465000000001
#
# number of rings (size 3 to 8) (size 9 to 14) (size 15 to 20)
#    0.000    1.524    3.810    0.571    2.667    7.810 
#    0.000    0.952    0.000    2.286    0.000    0.000 
#    0.000    0.000    0.000    0.000    0.000    0.000 
#
# Total GULP energy -468214.633604 kJ/mol
# GULP energy per Si atom -5573.983733 kJ/mol
# Density = 1.848629 g / cm^3
# Si number density = 18.528465 Si / 1000 Ang^3
#
#
#
# Elastic Constant Matrix: (Units=GPa)
#
#
# Indices 1 2 3 4 5 6 
#
# 1 88.8220 12.7496 33.9825 0.0000 0.0000 0.0000
# 2 12.7496 88.8220 33.9825 0.0000 0.0000 0.0000
# 3 33.9825 33.9825 92.0962 0.0000 0.0000 0.0000
# 4 0.0000 0.0000 0.0000 21.3928 0.0000 0.0000
# 5 0.0000 0.0000 0.0000 0.0000 21.3928 0.0000
# 6 0.0000 0.0000 0.0000 0.0000 0.0000 8.6226
#
#
#
# Elastic Compliance Matrix: (Units=1/GPa)
#
#
# Indices 1 2 3 4 5 6 
#
# 1 0.013109 -0.000036 -0.004824 0.000000 0.000000 0.000000
# 2 -0.000036 0.013109 -0.004824 0.000000 0.000000 0.000000
# 3 -0.004824 -0.004824 0.014418 0.000000 0.000000 0.000000
# 4 0.000000 0.000000 0.000000 0.046745 0.000000 0.000000
# 5 0.000000 0.000000 0.000000 0.000000 0.046745 0.000000
# 6 0.000000 0.000000 0.000000 0.000000 0.000000 0.115974
#
#
# Mechanical properties :
#
#
# Convention : Reuss Voigt Hill
#
# Bulk Modulus (GPa) = 47.01694 47.90770 47.46232
# Shear Modulus (GPa) = 18.07942 22.88334 20.48138
#
# Velocity S-wave (km/s) = 3.12711 3.51812 3.32836
# Velocity P-wave (km/s) = 6.20234 6.51270 6.35942
#
# Compressibility (1/GPa) = 0.02126893
#
# Stress axis : x y z
#
# Youngs Moduli (GPa) = 76.28227 76.28227 69.35737
#
# Poissons Ratio (x) = 0.00276 0.33457
# Poissons Ratio (y) = 0.00276 0.33457
# Poissons Ratio (z) = 0.36797 0.36797
#
# Static dielectric constant tensor:
#      x y z
#    x 1.627740 0.000000 0.000000 
#    y 0.000000 1.627740 0.000000 
#    z 0.000000 0.000000 1.633440 
# 
# From -- ./inp_files/5687.got.cif
#   From: 2010.05.17/outbox.cif.g08.bks.cpg/sg128_3_cif.got.tgz:5687.got - 2010.05.20 12:07:25.
