data_PCOD9564780
_publ_section_title
;
Structure prediction by ZEFSAII (Michael W. Deem and Ramdas Pophale) SiO2 
 PCOD9564780
Probable space group: P 4/M N C
;
_chemical_formula_sum "Si O2"
_cell_formula_units_Z 96
_cell_length_a 15.693120
_cell_length_b 15.693120
_cell_length_c 19.696723
_cell_angle_alpha 90.000000
_cell_angle_beta 90.000000
_cell_angle_gamma 90.000000
_cell_volume 4850.791062
_symmetry_space_group_name_H-M "P 4/M N C"
_symmetry_group_IT_number 128
_symmetry_cell_setting 'tetragonal'
loop_
_space_group_symop_operation_xyz
x,y,z
-y,x,z
-x,-y,z
y,-x,z
1/2+x,1/2-y,1/2-z
1/2-x,1/2+y,1/2-z
1/2+y,1/2+x,1/2-z
1/2-y,1/2-x,1/2-z
-x,-y,-z
y,-x,-z
x,y,-z
-y,x,-z
1/2-x,1/2+y,1/2+z
1/2+x,1/2-y,1/2+z
1/2-y,1/2-x,1/2+z
1/2+y,1/2+x,1/2+z
loop_
_atom_site_type_symbol
_atom_site_label
_atom_site_fract_x
_atom_site_fract_y
_atom_site_fract_z
Si Si1 0.116957 0.421096 0.669192
Si Si2 0.835675 0.380668 0.671378
Si Si3 0.765467 0.182051 0.184488
Si Si4 0.831780 0.483246 0.922253
Si Si5 0.522490 0.362212 0.095954
Si Si6 0.542041 0.370590 0.257874
O O1 0.094617 0.405384 0.750000
O O2 0.149456 0.518231 0.660489
O O3 0.182503 0.346516 0.643817
O O4 0.036681 0.399151 0.622254
O O5 0.861973 0.361973 0.750000
O O6 0.741298 0.341531 0.658223
O O7 0.895899 0.327762 0.620535
O O8 0.732636 0.232636 0.250000
O O9 0.792130 0.088569 0.210336
O O10 0.736255 0.523079 0.924192
O O11 0.859496 0.471334 0.000000
O O12 0.594643 0.431638 0.076140
O O13 0.533880 0.361375 0.177436
O O14 0.603027 0.448433 0.278339
#
# Coordination Sequence:
#
# PCOD9564780 Si02
#       6
#    16  16  16  16  16  16
#     4  11  22  41  64  89 122 164 211 259 313 376
#     4  11  24  40  64  91 122 165 214 260 317 376
#     4  10  21  32  57  90 118 154 204 263 304 360
#     4  12  27  41  63  91 127 167 212 264 312 382
#     4   9  20  37  61  90 128 176 215 250 309 377
#     4   9  17  30  54  87 125 159 197 253 307 354
#
# _framework density 19.790586000000001
#
# number of rings (size 3 to 8) (size 9 to 14) (size 15 to 20)
#    0.000    1.667    1.667    4.500   11.667    2.000 
#    0.000    0.833    0.000    0.000    0.000    0.000 
#    0.000    0.000    0.000    9.667    0.000    0.000 
#
# Total GULP energy -534555.058236 kJ/mol
# GULP energy per Si atom -5568.281857 kJ/mol
# Density = 1.974554 g / cm^3
# Si number density = 19.790586 Si / 1000 Ang^3
#
#
#
# Elastic Constant Matrix: (Units=GPa)
#
#
# Indices 1 2 3 4 5 6 
#
# 1 88.8613 20.1712 25.3396 0.0000 0.0000 0.0000
# 2 20.1712 88.8614 25.3395 0.0000 0.0000 0.0000
# 3 25.3396 25.3395 83.0445 0.0000 0.0000 0.0000
# 4 0.0000 0.0000 0.0000 -10.8960 0.0000 0.0000
# 5 0.0000 0.0000 0.0000 0.0000 -10.8962 0.0000
# 6 0.0000 0.0000 0.0000 0.0000 0.0000 -176.3252
#
#
#
# Elastic Compliance Matrix: (Units=1/GPa)
#
#
# Indices 1 2 3 4 5 6 
#
# 1 0.012623 -0.001935 -0.003261 0.000000 0.000000 0.000000
# 2 -0.001935 0.012623 -0.003261 0.000000 0.000000 0.000000
# 3 -0.003261 -0.003261 0.014032 0.000000 0.000000 0.000000
# 4 0.000000 0.000000 0.000000 -0.091776 0.000000 0.000000
# 5 0.000000 0.000000 0.000000 0.000000 -0.091775 0.000000
# 6 0.000000 0.000000 0.000000 0.000000 0.000000 -0.005671
#
#
# Mechanical properties :
#
#
# Convention : Reuss Voigt Hill
#
# Bulk Modulus (GPa) = 44.71810 44.71864 44.71837
# Shear Modulus (GPa) = -39.81644 -26.96238 -33.38941
#
# Velocity S-wave (km/s) = -4.49027 -3.69505 -4.11193
# Velocity P-wave (km/s) = 2.05881 2.10723 0.31757
#
# Compressibility (1/GPa) = 0.02236231
#
# Stress axis : x y z
#
# Youngs Moduli (GPa) = 79.22204 79.22222 71.26643
#
# Poissons Ratio (x) = 0.15333 0.23240
# Poissons Ratio (y) = 0.15333 0.23240
# Poissons Ratio (z) = 0.25835 0.25835
#
# Static dielectric constant tensor:
#      x y z
#    x 1.741920 0.000000 0.000000 
#    y 0.000000 1.741920 0.000000 
#    z 0.000000 0.000000 1.661560 
# 
# From -- ./inp_files/5776.got.cif
#   From: 2010.05.17/outbox.cif.g08.bks.cpg/sg128_3_cif.got.tgz:5776.got - 2010.05.20 12:07:25.
