data_PCOD9564941
_publ_section_title
;
Structure prediction by ZEFSAII (Michael W. Deem and Ramdas Pophale) SiO2 
 PCOD9564941
Probable space group: P 4/M N C
;
_chemical_formula_sum "Si O2"
_cell_formula_units_Z 80
_cell_length_a 14.873210
_cell_length_b 14.873210
_cell_length_c 15.175214
_cell_angle_alpha 90.000000
_cell_angle_beta 90.000000
_cell_angle_gamma 90.000000
_cell_volume 3356.945141
_symmetry_space_group_name_H-M "P 4/M N C"
_symmetry_group_IT_number 128
_symmetry_cell_setting 'tetragonal'
loop_
_space_group_symop_operation_xyz
x,y,z
-y,x,z
-x,-y,z
y,-x,z
1/2+x,1/2-y,1/2-z
1/2-x,1/2+y,1/2-z
1/2+y,1/2+x,1/2-z
1/2-y,1/2-x,1/2-z
-x,-y,-z
y,-x,-z
x,y,-z
-y,x,-z
1/2-x,1/2+y,1/2+z
1/2+x,1/2-y,1/2+z
1/2-y,1/2-x,1/2+z
1/2+y,1/2+x,1/2+z
loop_
_atom_site_type_symbol
_atom_site_label
_atom_site_fract_x
_atom_site_fract_y
_atom_site_fract_z
Si Si1 0.958834 0.139924 0.716846
Si Si2 0.534384 0.874670 0.398657
Si Si3 0.846461 0.685544 0.846670
Si Si4 0.508551 0.804312 0.101580
Si Si5 0.613814 0.683330 0.596256
O O1 0.945511 0.232353 0.665525
O O2 0.892540 0.058913 0.692890
O O3 0.944299 0.149402 0.821540
O O4 0.500247 0.886206 0.500000
O O5 0.451024 0.843478 0.340151
O O6 0.404912 0.040786 0.373751
O O7 0.602764 0.790848 0.400405
O O8 0.805168 0.694833 0.750000
O O9 0.800652 0.599424 0.891267
O O10 0.841292 0.781586 0.892984
O O11 0.534976 0.789634 0.000000
O O12 0.581026 0.653252 0.500000
#
# Coordination Sequence:
#
# PCOD9564941 Si02
#       5
#    16  16  16  16  16
#     4  11  26  46  67 100 140 185 244 303 361 442
#     4  10  23  42  66  99 139 183 236 294 354 430
#     4  12  25  42  69 108 144 191 240 304 367 438
#     4  11  25  44  71 103 145 193 242 303 371 442
#     4  11  24  43  70 102 140 188 240 300 367 441
#
# _framework density 23.831191
#
# number of rings (size 3 to 8) (size 9 to 14) (size 15 to 20)
#    0.000    1.000    0.000    6.000    5.600    8.000 
#    0.000    2.000    0.000    0.000    0.000    0.000 
#    0.000    0.000    0.000    0.000    0.000    0.000 
#
# Total GULP energy -447921.770917 kJ/mol
# GULP energy per Si atom -5599.022136 kJ/mol
# Density = 2.377695 g / cm^3
# Si number density = 23.831191 Si / 1000 Ang^3
#
#
#
# Elastic Constant Matrix: (Units=GPa)
#
#
# Indices 1 2 3 4 5 6 
#
# 1 87.2683 24.9617 24.9520 0.0000 0.0000 0.0000
# 2 24.9617 87.2680 24.9519 0.0000 0.0000 0.0000
# 3 24.9520 24.9519 91.5000 0.0000 0.0000 0.0000
# 4 0.0000 0.0000 0.0000 22.4099 0.0000 0.0000
# 5 0.0000 0.0000 0.0000 0.0000 22.4100 0.0000
# 6 0.0000 0.0000 0.0000 0.0000 0.0000 35.1486
#
#
#
# Elastic Compliance Matrix: (Units=1/GPa)
#
#
# Indices 1 2 3 4 5 6 
#
# 1 0.013095 -0.002955 -0.002765 0.000000 0.000000 0.000000
# 2 -0.002955 0.013095 -0.002765 0.000000 0.000000 0.000000
# 3 -0.002765 -0.002765 0.012437 0.000000 0.000000 0.000000
# 4 0.000000 0.000000 0.000000 0.044623 0.000000 0.000000
# 5 0.000000 0.000000 0.000000 0.000000 0.044623 0.000000
# 6 0.000000 0.000000 0.000000 0.000000 0.000000 0.028451
#
#
# Mechanical properties :
#
#
# Convention : Reuss Voigt Hill
#
# Bulk Modulus (GPa) = 46.17611 46.19638 46.18625
# Shear Modulus (GPa) = 27.69894 28.73842 28.21868
#
# Velocity S-wave (km/s) = 3.41295 3.47640 3.44482
# Velocity P-wave (km/s) = 5.91180 5.96160 5.93675
#
# Compressibility (1/GPa) = 0.02165622
#
# Stress axis : x y z
#
# Youngs Moduli (GPa) = 76.36661 76.36634 80.40495
#
# Poissons Ratio (x) = 0.22566 0.22233
# Poissons Ratio (y) = 0.22566 0.22233
# Poissons Ratio (z) = 0.21116 0.21116
#
# Static dielectric constant tensor:
#      x y z
#    x 1.906790 0.000000 0.000000 
#    y 0.000000 1.906790 0.000000 
#    z 0.000000 0.000000 1.892070 
# 
# From -- ./inp_files/3728.got.cif
#   From: 2010.05.17/outbox.cif.g08.bks.cpg/sg128_2_cif.got.tgz:3728.got - 2010.05.20 12:07:25.
