data_PCOD9564872
_publ_section_title
;
Structure prediction by ZEFSAII (Michael W. Deem and Ramdas Pophale) SiO2 
 PCOD9564872
Probable space group: P 4/M N C
;
_chemical_formula_sum "Si O2"
_cell_formula_units_Z 80
_cell_length_a 10.563024
_cell_length_b 10.563024
_cell_length_c 26.822218
_cell_angle_alpha 90.000000
_cell_angle_beta 90.000000
_cell_angle_gamma 90.000000
_cell_volume 2992.755386
_symmetry_space_group_name_H-M "P 4/M N C"
_symmetry_group_IT_number 128
_symmetry_cell_setting 'tetragonal'
loop_
_space_group_symop_operation_xyz
x,y,z
-y,x,z
-x,-y,z
y,-x,z
1/2+x,1/2-y,1/2-z
1/2-x,1/2+y,1/2-z
1/2+y,1/2+x,1/2-z
1/2-y,1/2-x,1/2-z
-x,-y,-z
y,-x,-z
x,y,-z
-y,x,-z
1/2-x,1/2+y,1/2+z
1/2+x,1/2-y,1/2+z
1/2-y,1/2-x,1/2+z
1/2+y,1/2+x,1/2+z
loop_
_atom_site_type_symbol
_atom_site_label
_atom_site_fract_x
_atom_site_fract_y
_atom_site_fract_z
Si Si1 0.793896 0.410119 0.896492
Si Si2 0.240107 0.905565 0.689682
Si Si3 0.500000 0.000000 0.169753
Si Si4 0.370249 0.653015 0.699800
Si Si5 0.002142 0.786147 0.500000
Si Si6 0.842929 0.861023 0.940554
O O1 0.709278 0.495209 0.855814
O O2 0.777528 0.266211 0.915333
O O3 0.928605 0.410272 0.869219
O O4 0.790446 0.487779 0.948412
O O5 0.382099 0.954068 0.701658
O O6 0.274132 0.758148 0.680513
O O7 0.159824 0.887510 0.739783
O O8 0.328415 0.514516 0.683936
O O9 0.882117 0.878319 0.500000
O O10 0.988707 0.827865 0.929191
O O11 0.827877 0.848519 0.000000
#
# Coordination Sequence:
#
# PCOD9564872 Si02
#       6
#    16  16   8  16   8  16
#     4  10  21  45  63  99 139 191 234 288 346 419
#     4   9  22  44  65 104 136 181 227 291 347 437
#     4   8  22  40  62 100 128 176 236 268 346 414
#     4  10  22  43  74 106 134 177 226 294 372 432
#     4  11  26  45  66  97 138 193 246 295 350 408
#     4   9  18  36  66 103 140 188 243 299 353 406
#
# _framework density 26.731221999999999
#
# number of rings (size 3 to 8) (size 9 to 14) (size 15 to 20)
#    1.200    1.300    1.000    0.600    0.000    8.400 
#    7.200    2.000    0.000    2.400    0.000    0.000 
#    0.000    1.600    0.000    0.000    0.000    0.000 
#
# Total GULP energy -445961.285210 kJ/mol
# GULP energy per Si atom -5574.516065 kJ/mol
# Density = 2.667038 g / cm^3
# Si number density = 26.731222 Si / 1000 Ang^3
#
#
#
# Elastic Constant Matrix: (Units=GPa)
#
#
# Indices 1 2 3 4 5 6 
#
# 1 94.3808 56.4043 48.2323 0.0000 0.0000 0.0000
# 2 56.4043 94.3808 48.2323 0.0000 0.0000 0.0000
# 3 48.2323 48.2323 231.1021 0.0000 0.0000 0.0000
# 4 0.0000 0.0000 0.0000 24.2611 0.0000 0.0000
# 5 0.0000 0.0000 0.0000 0.0000 24.2611 0.0000
# 6 0.0000 0.0000 0.0000 0.0000 0.0000 39.5326
#
#
#
# Elastic Compliance Matrix: (Units=1/GPa)
#
#
# Indices 1 2 3 4 5 6 
#
# 1 0.016993 -0.009339 -0.001597 0.000000 0.000000 0.000000
# 2 -0.009339 0.016993 -0.001597 0.000000 0.000000 0.000000
# 3 -0.001597 -0.001597 0.004994 0.000000 0.000000 0.000000
# 4 0.000000 0.000000 0.000000 0.041218 0.000000 0.000000
# 5 0.000000 0.000000 0.000000 0.000000 0.041218 0.000000
# 6 0.000000 0.000000 0.000000 0.000000 0.000000 0.025296
#
#
# Mechanical properties :
#
#
# Convention : Reuss Voigt Hill
#
# Bulk Modulus (GPa) = 71.88031 80.62239 76.25135
# Shear Modulus (GPa) = 28.34192 35.41061 31.87627
#
# Velocity S-wave (km/s) = 3.25969 3.64358 3.45697
# Velocity P-wave (km/s) = 6.41216 6.92291 6.67243
#
# Compressibility (1/GPa) = 0.01391202
#
# Stress axis : x y z
#
# Youngs Moduli (GPa) = 58.84787 58.84787 200.24552
#
# Poissons Ratio (x) = 0.54958 0.31987
# Poissons Ratio (y) = 0.54958 0.31987
# Poissons Ratio (z) = 0.09400 0.09400
#
# Static dielectric constant tensor:
#      x y z
#    x 2.912910 0.000000 0.000000 
#    y 0.000000 2.912910 0.000000 
#    z 0.000000 0.000000 2.194880 
# 
# From -- ./inp_files/7230.got.cif
#   From: 2010.05.17/outbox.cif.g08.bks.cpg/sg128_4_cif.got.tgz:7230.got - 2010.05.20 12:07:25.
