data_PCOD9564314
_publ_section_title
;
Structure prediction by ZEFSAII (Michael W. Deem and Ramdas Pophale) SiO2 
 PCOD9564314
Probable space group: P 4/M B M
;
_chemical_formula_sum "Si O2"
_cell_formula_units_Z 96
_cell_length_a 24.851659
_cell_length_b 24.851659
_cell_length_c 8.078453
_cell_angle_alpha 90.000000
_cell_angle_beta 90.000000
_cell_angle_gamma 90.000000
_cell_volume 4989.292602
_symmetry_space_group_name_H-M "P 4/M B M"
_symmetry_group_IT_number 127
_symmetry_cell_setting 'tetragonal'
loop_
_space_group_symop_operation_xyz
x,y,z
-y,x,z
-x,-y,z
y,-x,z
1/2+x,1/2-y,-z
1/2-x,1/2+y,-z
1/2+y,1/2+x,-z
1/2-y,1/2-x,-z
-x,-y,-z
y,-x,-z
x,y,-z
-y,x,-z
1/2-x,1/2+y,z
1/2+x,1/2-y,z
1/2-y,1/2-x,z
1/2+y,1/2+x,z
loop_
_atom_site_type_symbol
_atom_site_label
_atom_site_fract_x
_atom_site_fract_y
_atom_site_fract_z
Si Si1 0.383644 0.883644 0.193412
Si Si2 0.360158 0.575517 0.310224
Si Si3 0.223666 0.979475 0.699481
Si Si4 0.068113 0.056959 0.000000
Si Si5 0.207071 0.292930 0.193316
Si Si6 0.455851 0.044150 0.195254
Si Si7 0.156419 0.497394 0.692022
Si Si8 0.309358 0.358085 0.199507
O O1 0.338464 0.838464 0.197635
O O2 0.362057 0.936170 0.282279
O O3 0.396207 0.896207 0.000000
O O4 0.378648 0.567640 0.500000
O O5 0.318588 0.527599 0.269308
O O6 0.405565 0.575604 0.170173
O O7 0.339248 0.636260 0.289382
O O8 0.227052 0.973194 0.500000
O O9 0.282757 0.997871 0.763137
O O10 0.205431 0.921034 0.766539
O O11 0.006821 0.073142 0.000000
O O12 0.260661 0.320384 0.260918
O O13 0.218515 0.281486 0.000000
O O14 0.469518 0.105668 0.240210
O O15 0.500000 0.000000 0.265341
O O16 0.460371 0.039630 0.000000
O O17 0.161057 0.511583 0.500000
O O18 0.315311 0.352972 0.000000
#
# Coordination Sequence:
#
# PCOD9564314 Si02
#       8
#     8  16  16   8   8   8  16  16
#     4  11  19  34  54  86 122 153 194 251 314 370
#     4  11  24  43  63  92 131 168 208 259 317 378
#     4  10  23  40  61  89 123 162 205 259 318 376
#     4  11  24  42  66  97 124 160 209 251 310 382
#     4   9  20  35  57  93 129 161 200 260 317 360
#     4  11  23  37  54  81 119 161 204 253 313 373
#     4  11  22  37  58  86 119 160 206 252 309 376
#     4  11  21  38  64  93 127 165 211 259 313 379
#
# _framework density 19.241204
#
# number of rings (size 3 to 8) (size 9 to 14) (size 15 to 20)
#    0.000    1.333    3.333    2.500    1.167    3.000 
#    0.000    3.333    0.000    3.000    0.000    0.000 
#    0.000    0.000    0.000    0.000    0.000    0.000 
#
# Total GULP energy -535537.010235 kJ/mol
# GULP energy per Si atom -5578.510523 kJ/mol
# Density = 1.919741 g / cm^3
# Si number density = 19.241204 Si / 1000 Ang^3
#
#
#
# Elastic Constant Matrix: (Units=GPa)
#
#
# Indices 1 2 3 4 5 6 
#
# 1 91.5904 21.1902 11.1815 0.0000 0.0000 0.0000
# 2 21.1902 91.5912 11.1822 0.0000 0.0000 0.0000
# 3 11.1815 11.1822 51.0229 0.0000 0.0000 0.0000
# 4 0.0000 0.0000 0.0000 35.1375 0.0000 0.0000
# 5 0.0000 0.0000 0.0000 0.0000 35.1359 0.0000
# 6 0.0000 0.0000 0.0000 0.0000 0.0000 31.8588
#
#
#
# Elastic Compliance Matrix: (Units=1/GPa)
#
#
# Indices 1 2 3 4 5 6 
#
# 1 0.011737 -0.002467 -0.002031 0.000000 0.000000 0.000000
# 2 -0.002467 0.011737 -0.002032 0.000000 0.000000 0.000000
# 3 -0.002031 -0.002032 0.020489 0.000000 0.000000 0.000000
# 4 0.000000 0.000000 0.000000 0.028460 0.000000 0.000000
# 5 0.000000 0.000000 0.000000 0.000000 0.028461 0.000000
# 6 0.000000 0.000000 0.000000 0.000000 0.000000 0.031389
#
#
# Mechanical properties :
#
#
# Convention : Reuss Voigt Hill
#
# Bulk Modulus (GPa) = 32.35956 35.70134 34.03045
# Shear Modulus (GPa) = 32.12663 33.13648 32.63155
#
# Velocity S-wave (km/s) = 4.09060 4.15440 4.12262
# Velocity P-wave (km/s) = 6.25820 6.45034 6.35500
#
# Compressibility (1/GPa) = 0.03090277
#
# Stress axis : x y z
#
# Youngs Moduli (GPa) = 85.20047 85.20097 48.80561
#
# Poissons Ratio (x) = 0.21023 0.09914
# Poissons Ratio (y) = 0.21023 0.09915
# Poissons Ratio (z) = 0.17307 0.17309
#
# Static dielectric constant tensor:
#      x y z
#    x 1.677220 0.000000 0.000000 
#    y 0.000000 1.677220 0.000000 
#    z 0.000000 0.000000 1.713470 
# 
# From -- ./inp_files/2160.got.cif
#   From: 2010.05.17/outbox.cif.g08.bks.cpg/sg127_2_cif.got.tgz:2160.got - 2010.05.20 12:03:00.
