data_PCOD9564118
_publ_section_title
;
Structure prediction by ZEFSAII (Michael W. Deem and Ramdas Pophale) SiO2 
 PCOD9564118
Probable space group: P 4/M B M
;
_chemical_formula_sum "Si O2"
_cell_formula_units_Z 34
_cell_length_a 12.219267
_cell_length_b 12.219267
_cell_length_c 11.292395
_cell_angle_alpha 90.000000
_cell_angle_beta 90.000000
_cell_angle_gamma 90.000000
_cell_volume 1686.072986
_symmetry_space_group_name_H-M "P 4/M B M"
_symmetry_group_IT_number 127
_symmetry_cell_setting 'tetragonal'
loop_
_space_group_symop_operation_xyz
x,y,z
-y,x,z
-x,-y,z
y,-x,z
1/2+x,1/2-y,-z
1/2-x,1/2+y,-z
1/2+y,1/2+x,-z
1/2-y,1/2-x,-z
-x,-y,-z
y,-x,-z
x,y,-z
-y,x,-z
1/2-x,1/2+y,z
1/2+x,1/2-y,z
1/2-y,1/2-x,z
1/2+y,1/2+x,z
loop_
_atom_site_type_symbol
_atom_site_label
_atom_site_fract_x
_atom_site_fract_y
_atom_site_fract_z
Si Si1 0.588010 0.088010 0.641394
Si Si2 0.753635 0.573380 0.000000
Si Si3 0.000000 0.500000 0.000000
Si Si4 0.173127 0.962791 0.259793
O O1 0.584261 0.084261 0.500000
O O2 0.558632 0.208777 0.685103
O O3 0.500000 0.000000 0.691217
O O4 0.688324 0.548033 0.881414
O O5 0.865031 0.502851 0.000000
O O6 0.801925 0.698076 0.000000
O O7 0.081227 0.874144 0.294064
#
# Coordination Sequence:
#
# PCOD9564118 Si02
#       4
#     8   8   2  16
#     4  11  27  47  71  99 130 178 235 282 331 398
#     4  10  20  37  64 102 136 177 216 265 328 406
#     4   8  20  32  52  96 130 170 222 256 300 382
#     4  11  25  44  69 103 139 175 221 277 339 404
#
# _framework density 20.165201
#
# number of rings (size 3 to 8) (size 9 to 14) (size 15 to 20)
#    0.706    0.706    2.353    1.412    9.882    3.765 
#    4.235    2.353    0.000    0.000    0.000    0.000 
#    0.000    0.000    0.000    0.000    0.000    0.000 
#
# Total GULP energy -189466.105253 kJ/mol
# GULP energy per Si atom -5572.532507 kJ/mol
# Density = 2.011930 g / cm^3
# Si number density = 20.165201 Si / 1000 Ang^3
#
#
#
# Elastic Constant Matrix: (Units=GPa)
#
#
# Indices 1 2 3 4 5 6 
#
# 1 172.9655 112.0881 30.8965 0.0000 0.0000 0.0000
# 2 112.0881 172.9647 30.8966 0.0000 0.0000 0.0000
# 3 30.8965 30.8966 55.2264 0.0000 0.0000 0.0000
# 4 0.0000 0.0000 0.0000 44.7099 0.0000 0.0000
# 5 0.0000 0.0000 0.0000 0.0000 44.7152 0.0000
# 6 0.0000 0.0000 0.0000 0.0000 0.0000 25.1121
#
#
#
# Elastic Compliance Matrix: (Units=1/GPa)
#
#
# Indices 1 2 3 4 5 6 
#
# 1 0.010209 -0.006217 -0.002233 0.000000 0.000000 0.000000
# 2 -0.006217 0.010209 -0.002234 0.000000 0.000000 0.000000
# 3 -0.002233 -0.002234 0.020606 0.000000 0.000000 0.000000
# 4 0.000000 0.000000 0.000000 0.022366 0.000000 0.000000
# 5 0.000000 0.000000 0.000000 0.000000 0.022364 0.000000
# 6 0.000000 0.000000 0.000000 0.000000 0.000000 0.039821
#
#
# Mechanical properties :
#
#
# Convention : Reuss Voigt Hill
#
# Bulk Modulus (GPa) = 50.87262 83.21323 67.04292
# Shear Modulus (GPa) = 32.57386 38.05914 35.31650
#
# Velocity S-wave (km/s) = 4.02350 4.34910 4.18946
# Velocity P-wave (km/s) = 6.84598 8.15934 7.53135
#
# Compressibility (1/GPa) = 0.01965694
#
# Stress axis : x y z
#
# Youngs Moduli (GPa) = 97.94896 97.94843 48.52872
#
# Poissons Ratio (x) = 0.60896 0.10839
# Poissons Ratio (y) = 0.60896 0.10839
# Poissons Ratio (z) = 0.21877 0.21877
#
# Static dielectric constant tensor:
#      x y z
#    x 1.705820 0.000000 0.000000 
#    y 0.000000 1.705820 0.000000 
#    z 0.000000 0.000000 1.728470 
# 
# From -- ./inp_files/2604.got.cif
#   From: 2010.05.17/outbox.cif.g08.bks.cpg/sg127_2_cif.got.tgz:2604.got - 2010.05.20 12:03:00.
