data_PCOD9564379
_publ_section_title
;
Structure prediction by ZEFSAII (Michael W. Deem and Ramdas Pophale) SiO2 
 PCOD9564379
Probable space group: P 4/M B M
;
_chemical_formula_sum "Si O2"
_cell_formula_units_Z 96
_cell_length_a 24.673290
_cell_length_b 24.673290
_cell_length_c 8.255523
_cell_angle_alpha 90.000000
_cell_angle_beta 90.000000
_cell_angle_gamma 90.000000
_cell_volume 5025.724969
_symmetry_space_group_name_H-M "P 4/M B M"
_symmetry_group_IT_number 127
_symmetry_cell_setting 'tetragonal'
loop_
_space_group_symop_operation_xyz
x,y,z
-y,x,z
-x,-y,z
y,-x,z
1/2+x,1/2-y,-z
1/2-x,1/2+y,-z
1/2+y,1/2+x,-z
1/2-y,1/2-x,-z
-x,-y,-z
y,-x,-z
x,y,-z
-y,x,-z
1/2-x,1/2+y,z
1/2+x,1/2-y,z
1/2-y,1/2-x,z
1/2+y,1/2+x,z
loop_
_atom_site_type_symbol
_atom_site_label
_atom_site_fract_x
_atom_site_fract_y
_atom_site_fract_z
Si Si1 0.133876 0.720295 0.802494
Si Si2 0.800695 0.071180 0.692723
Si Si3 0.030538 0.082314 0.302360
Si Si4 0.790348 0.488208 0.193364
Si Si5 0.000911 0.587696 0.695625
Si Si6 0.692134 0.278315 0.195328
O O1 0.166187 0.666187 0.752866
O O2 0.072593 0.721297 0.744163
O O3 0.170594 0.771113 0.751518
O O4 0.133036 0.720446 0.000000
O O5 0.804809 0.072006 0.500000
O O6 0.859642 0.051774 0.756430
O O7 0.785069 0.131127 0.749209
O O8 0.753639 0.029821 0.741082
O O9 0.030722 0.083014 0.500000
O O10 0.968869 0.067809 0.253093
O O11 0.851927 0.502395 0.238862
O O12 0.785972 0.487767 0.000000
O O13 0.001535 0.589729 0.500000
O O14 0.055170 0.555170 0.747884
O O15 0.950186 0.549815 0.743644
O O16 0.724197 0.224197 0.249877
O O17 0.692693 0.277811 0.000000
#
# Coordination Sequence:
#
# PCOD9564379 Si02
#       6
#    16  16  16  16  16  16
#     4   8  16  33  57  82 106 137 177 223 273 320
#     4  11  23  35  54  83 113 146 183 229 276 323
#     4   8  16  33  55  78 106 142 181 222 273 331
#     4  11  22  35  54  82 114 147 183 223 268 326
#     4   9  19  37  59  82 111 146 182 226 279 326
#     4   9  19  38  60  78 103 142 183 221 268 327
#
# _framework density 19.101721999999999
#
# number of rings (size 3 to 8) (size 9 to 14) (size 15 to 20)
#    0.000    2.667    0.000    3.500    2.333    2.333 
#    0.000    1.667    0.000    2.000    0.000    4.667 
#    0.000    0.000    0.000    0.000    0.000    0.000 
#
# Total GULP energy -535664.116045 kJ/mol
# GULP energy per Si atom -5579.834542 kJ/mol
# Density = 1.905825 g / cm^3
# Si number density = 19.101722 Si / 1000 Ang^3
#
#
#
# Elastic Constant Matrix: (Units=GPa)
#
#
# Indices 1 2 3 4 5 6 
#
# 1 719.7547 -417.5748 17.6337 0.0000 0.0000 0.0000
# 2 -417.5748 719.7547 17.6337 0.0000 0.0000 0.0000
# 3 17.6337 17.6337 13.8107 0.0000 0.0000 0.0000
# 4 0.0000 0.0000 0.0000 2.7268 0.0000 0.0000
# 5 0.0000 0.0000 0.0000 0.0000 2.7268 0.0000
# 6 0.0000 0.0000 0.0000 0.0000 0.0000 16.6988
#
#
#
# Elastic Compliance Matrix: (Units=1/GPa)
#
#
# Indices 1 2 3 4 5 6 
#
# 1 0.002384 0.001505 -0.004965 0.000000 0.000000 0.000000
# 2 0.001505 0.002384 -0.004965 0.000000 0.000000 0.000000
# 3 -0.004965 -0.004965 0.085087 0.000000 0.000000 0.000000
# 4 0.000000 0.000000 0.000000 0.366729 0.000000 0.000000
# 5 0.000000 0.000000 0.000000 0.000000 0.366729 0.000000
# 6 0.000000 0.000000 0.000000 0.000000 0.000000 0.059885
#
#
# Mechanical properties :
#
#
# Convention : Reuss Voigt Hill
#
# Bulk Modulus (GPa) = 13.69795 76.52279 45.11037
# Shear Modulus (GPa) = 5.40901 126.80565 66.10733
#
# Velocity S-wave (km/s) = 1.68459 8.15650 5.88924
# Velocity P-wave (km/s) = 3.31216 11.35131 8.36130
#
# Compressibility (1/GPa) = 0.07300365
#
# Stress axis : x y z
#
# Youngs Moduli (GPa) = 419.46021 419.46021 11.75267
#
# Poissons Ratio (x) = -0.63119 0.05835
# Poissons Ratio (y) = -0.63119 0.05835
# Poissons Ratio (z) = 2.08272 2.08272
#
# Static dielectric constant tensor:
#      x y z
#    x 1.657380 0.000000 0.000000 
#    y 0.000000 1.657380 0.000000 
#    z 0.000000 0.000000 1.668220 
# 
# From -- ./inp_files/2003.got.cif
#   From: 2010.05.17/outbox.cif.g08.bks.cpg/sg127_2_cif.got.tgz:2003.got - 2010.05.20 12:03:00.
