data_PCOD9564599
_publ_section_title
;
Structure prediction by ZEFSAII (Michael W. Deem and Ramdas Pophale) SiO2 
 PCOD9564599
Probable space group: P 4/M N C
;
_chemical_formula_sum "Si O2"
_cell_formula_units_Z 96
_cell_length_a 24.900216
_cell_length_b 24.900216
_cell_length_c 8.051054
_cell_angle_alpha 90.000000
_cell_angle_beta 90.000000
_cell_angle_gamma 90.000000
_cell_volume 4991.820594
_symmetry_space_group_name_H-M "P 4/M N C"
_symmetry_group_IT_number 128
_symmetry_cell_setting 'tetragonal'
loop_
_space_group_symop_operation_xyz
x,y,z
-y,x,z
-x,-y,z
y,-x,z
1/2+x,1/2-y,1/2-z
1/2-x,1/2+y,1/2-z
1/2+y,1/2+x,1/2-z
1/2-y,1/2-x,1/2-z
-x,-y,-z
y,-x,-z
x,y,-z
-y,x,-z
1/2-x,1/2+y,1/2+z
1/2+x,1/2-y,1/2+z
1/2-y,1/2-x,1/2+z
1/2+y,1/2+x,1/2+z
loop_
_atom_site_type_symbol
_atom_site_label
_atom_site_fract_x
_atom_site_fract_y
_atom_site_fract_z
Si Si1 0.563260 0.559848 0.202958
Si Si2 0.265819 0.851430 0.193862
Si Si3 0.770088 0.354212 0.200820
Si Si4 0.353325 0.937305 0.300374
Si Si5 0.353783 0.350479 0.196380
Si Si6 0.857175 0.440797 0.799954
O O1 0.502020 0.573900 0.252993
O O2 0.607059 0.603004 0.263104
O O3 0.564297 0.559729 0.000000
O O4 0.298300 0.798300 0.250000
O O5 0.306012 0.900690 0.227693
O O6 0.209345 0.861358 0.282162
O O7 0.255036 0.846428 0.000000
O O8 0.798404 0.298404 0.250000
O O9 0.709772 0.361740 0.264853
O O10 0.809601 0.401587 0.260008
O O11 0.854628 0.441689 0.000000
O O12 0.408534 0.908534 0.250000
O O13 0.348550 0.935819 0.500000
O O14 0.351410 0.998447 0.241218
O O15 0.365377 0.347712 0.000000
O O16 0.912587 0.412587 0.750000
O O17 0.768735 0.355430 0.000000
#
# Coordination Sequence:
#
# PCOD9564599 Si02
#       6
#    16  16  16  16  16  16
#     4   8  15  29  50  77 106 135 170 212 254 296
#     4  11  22  36  53  74 103 135 168 208 254 305
#     4   9  18  32  49  72 101 133 167 205 252 299
#     4  10  20  35  54  76 103 135 172 213 256 301
#     4  10  19  31  52  79 104 132 167 208 252 302
#     4   9  19  34  52  74 102 136 173 213 255 300
#
# _framework density 19.231460999999999
#
# number of rings (size 3 to 8) (size 9 to 14) (size 15 to 20)
#    0.000    2.500    0.000    4.000    0.000    5.000 
#    0.000    6.667    0.000    3.000    0.000    1.167 
#    0.000    0.000    0.000    0.000    0.000    0.000 
#
# Total GULP energy -535562.815818 kJ/mol
# GULP energy per Si atom -5578.779331 kJ/mol
# Density = 1.918769 g / cm^3
# Si number density = 19.231461 Si / 1000 Ang^3
#
#
#
# Elastic Constant Matrix: (Units=GPa)
#
#
# Indices 1 2 3 4 5 6 
#
# 1 128.8600 105.7874 -7.3681 0.0000 0.0000 0.0000
# 2 105.7874 128.8600 -7.3681 0.0000 0.0000 0.0000
# 3 -7.3681 -7.3681 11.7135 0.0000 0.0000 0.0000
# 4 0.0000 0.0000 0.0000 12.1317 0.0000 0.0000
# 5 0.0000 0.0000 0.0000 0.0000 12.1317 0.0000
# 6 0.0000 0.0000 0.0000 0.0000 0.0000 26.4884
#
#
#
# Elastic Compliance Matrix: (Units=1/GPa)
#
#
# Indices 1 2 3 4 5 6 
#
# 1 0.023889 -0.019452 0.002791 0.000000 0.000000 0.000000
# 2 -0.019452 0.023889 0.002791 0.000000 0.000000 0.000000
# 3 0.002791 0.002791 0.088882 0.000000 0.000000 0.000000
# 4 0.000000 0.000000 0.000000 0.082429 0.000000 0.000000
# 5 0.000000 0.000000 0.000000 0.000000 0.082429 0.000000
# 6 0.000000 0.000000 0.000000 0.000000 0.000000 0.037752
#
#
# Mechanical properties :
#
#
# Convention : Reuss Voigt Hill
#
# Bulk Modulus (GPa) = 9.18103 50.17068 29.67585
# Shear Modulus (GPa) = 12.39714 22.04249 17.21981
#
# Velocity S-wave (km/s) = 2.54171 3.38918 2.99557
# Velocity P-wave (km/s) = 3.66033 6.43893 5.23727
#
# Compressibility (1/GPa) = 0.10892029
#
# Stress axis : x y z
#
# Youngs Moduli (GPa) = 41.85984 41.85984 11.25082
#
# Poissons Ratio (x) = 0.81427 -0.03140
# Poissons Ratio (y) = 0.81427 -0.03140
# Poissons Ratio (z) = -0.11683 -0.11683
#
# Static dielectric constant tensor:
#      x y z
#    x 1.770230 0.000000 0.000000 
#    y 0.000000 1.770230 0.000000 
#    z 0.000000 0.000000 1.695650 
# 
# From -- ./inp_files/1435.got.cif
#   From: 2010.05.17/outbox.cif.g08.bks.cpg/sg128_1_cif.got.tgz:1435.got - 2010.05.20 12:07:25.
