data_PCOD9564081
_publ_section_title
;
Structure prediction by ZEFSAII (Michael W. Deem and Ramdas Pophale) SiO2 
 PCOD9564081
Probable space group: P 4/M B M
;
_chemical_formula_sum "Si O2"
_cell_formula_units_Z 88
_cell_length_a 15.566385
_cell_length_b 15.566385
_cell_length_c 21.254436
_cell_angle_alpha 90.000000
_cell_angle_beta 90.000000
_cell_angle_gamma 90.000000
_cell_volume 5150.212164
_symmetry_space_group_name_H-M "P 4/M B M"
_symmetry_group_IT_number 127
_symmetry_cell_setting 'tetragonal'
loop_
_space_group_symop_operation_xyz
x,y,z
-y,x,z
-x,-y,z
y,-x,z
1/2+x,1/2-y,-z
1/2-x,1/2+y,-z
1/2+y,1/2+x,-z
1/2-y,1/2-x,-z
-x,-y,-z
y,-x,-z
x,y,-z
-y,x,-z
1/2-x,1/2+y,z
1/2+x,1/2-y,z
1/2-y,1/2-x,z
1/2+y,1/2+x,z
loop_
_atom_site_type_symbol
_atom_site_label
_atom_site_fract_x
_atom_site_fract_y
_atom_site_fract_z
Si Si1 0.562909 0.368341 0.138452
Si Si2 0.899423 0.745522 0.253932
Si Si3 0.178739 0.177798 0.379589
Si Si4 0.868999 0.062759 0.000000
Si Si5 0.926175 0.573826 0.571186
Si Si6 0.684651 0.960260 0.340568
Si Si7 0.379306 0.420850 0.500000
O O1 0.609942 0.461050 0.143457
O O2 0.591119 0.305019 0.193367
O O3 0.330346 0.418780 0.068540
O O4 0.830723 0.669278 0.244538
O O5 0.867445 0.800624 0.314009
O O6 0.990458 0.707672 0.276782
O O7 0.244759 0.255242 0.393426
O O8 0.236008 0.092776 0.368446
O O9 0.115111 0.164709 0.437311
O O10 0.961470 0.109379 0.000000
O O11 0.902929 0.597072 0.500000
O O12 0.849357 0.531728 0.610464
O O13 0.000000 0.500000 0.568071
O O14 0.608070 0.891931 0.331057
O O15 0.476805 0.385241 0.500000
#
# Coordination Sequence:
#
# PCOD9564081 Si02
#       7
#    16  16  16   8   8  16   8
#     4   9  17  31  54  78 102 133 169 206 247 297
#     4  11  21  34  49  76 107 135 167 208 253 307
#     4  10  22  37  53  72  98 129 165 215 263 299
#     4   7  12  26  49  78 102 125 165 211 244 281
#     4   9  18  32  52  74  88 117 171 220 252 289
#     4  10  20  36  54  73 100 132 171 214 257 307
#     4  11  23  38  54  70  94 130 167 203 252 323
#
# _framework density 17.086675
#
# number of rings (size 3 to 8) (size 9 to 14) (size 15 to 20)
#    0.000    2.273    0.909    3.545    1.273    0.000 
#    1.636    2.273    0.000    0.000    0.000    1.909 
#    0.000    1.455    0.000    0.000    0.000    0.000 
#
# Total GULP energy -491115.993545 kJ/mol
# GULP energy per Si atom -5580.863563 kJ/mol
# Density = 1.704778 g / cm^3
# Si number density = 17.086675 Si / 1000 Ang^3
#
#
#
# Elastic Constant Matrix: (Units=GPa)
#
#
# Indices 1 2 3 4 5 6 
#
# 1 50.5628 28.4189 41.3607 0.0000 0.0000 0.0000
# 2 28.4189 50.5628 41.3607 0.0000 0.0000 0.0000
# 3 41.3607 41.3607 135.1747 0.0000 0.0000 0.0000
# 4 0.0000 0.0000 0.0000 21.2985 0.0000 0.0000
# 5 0.0000 0.0000 0.0000 0.0000 21.2985 0.0000
# 6 0.0000 0.0000 0.0000 0.0000 0.0000 15.3522
#
#
#
# Elastic Compliance Matrix: (Units=1/GPa)
#
#
# Indices 1 2 3 4 5 6 
#
# 1 0.031896 -0.013264 -0.005701 0.000000 0.000000 0.000000
# 2 -0.013264 0.031896 -0.005701 0.000000 0.000000 0.000000
# 3 -0.005701 -0.005701 0.010887 0.000000 0.000000 0.000000
# 4 0.000000 0.000000 0.000000 0.046952 0.000000 0.000000
# 5 0.000000 0.000000 0.000000 0.000000 0.046952 0.000000
# 6 0.000000 0.000000 0.000000 0.000000 0.000000 0.065137
#
#
# Mechanical properties :
#
#
# Convention : Reuss Voigt Hill
#
# Bulk Modulus (GPa) = 39.45285 50.95345 45.20315
# Shear Modulus (GPa) = 17.15272 19.93382 18.54327
#
# Velocity S-wave (km/s) = 3.17182 3.41930 3.29788
# Velocity P-wave (km/s) = 6.04598 6.74345 6.40422
#
# Compressibility (1/GPa) = 0.02534671
#
# Stress axis : x y z
#
# Youngs Moduli (GPa) = 31.35220 31.35226 91.85565
#
# Poissons Ratio (x) = 0.41584 0.52368
# Poissons Ratio (y) = 0.41584 0.52367
# Poissons Ratio (z) = 0.17874 0.17874
#
# Static dielectric constant tensor:
#      x y z
#    x 1.583710 0.000000 0.000000 
#    y 0.000000 1.583710 0.000000 
#    z 0.000000 0.000000 1.568460 
# 
# From -- ./inp_files/5723.got.cif
#   From: 2010.05.17/outbox.cif.g08.bks.cpg/sg127_3_cif.got.tgz:5723.got - 2010.05.20 12:03:00.
