data_PCOD9564420
_publ_section_title
;
Structure prediction by ZEFSAII (Michael W. Deem and Ramdas Pophale) SiO2 
 PCOD9564420
Probable space group: P 4/M B M
;
_chemical_formula_sum "Si O2"
_cell_formula_units_Z 96
_cell_length_a 14.970348
_cell_length_b 14.970348
_cell_length_c 21.479733
_cell_angle_alpha 90.000000
_cell_angle_beta 90.000000
_cell_angle_gamma 90.000000
_cell_volume 4813.851300
_symmetry_space_group_name_H-M "P 4/M B M"
_symmetry_group_IT_number 127
_symmetry_cell_setting 'tetragonal'
loop_
_space_group_symop_operation_xyz
x,y,z
-y,x,z
-x,-y,z
y,-x,z
1/2+x,1/2-y,-z
1/2-x,1/2+y,-z
1/2+y,1/2+x,-z
1/2-y,1/2-x,-z
-x,-y,-z
y,-x,-z
x,y,-z
-y,x,-z
1/2-x,1/2+y,z
1/2+x,1/2-y,z
1/2-y,1/2-x,z
1/2+y,1/2+x,z
loop_
_atom_site_type_symbol
_atom_site_label
_atom_site_fract_x
_atom_site_fract_y
_atom_site_fract_z
Si Si1 0.634945 0.429731 0.749420
Si Si2 0.448591 0.268704 0.122374
Si Si3 0.751703 0.013031 0.427877
Si Si4 0.283355 0.361369 0.928582
Si Si5 0.839973 0.188371 0.376975
Si Si6 0.574363 0.925638 0.429439
Si Si7 0.075202 0.575202 0.926143
O O1 0.615461 0.536386 0.747926
O O2 0.694651 0.416509 0.810974
O O3 0.684914 0.386875 0.690437
O O4 0.373574 0.304358 0.075268
O O5 0.548253 0.301835 0.108594
O O6 0.454825 0.163875 0.109691
O O7 0.738267 0.039945 0.500000
O O8 0.812624 0.924852 0.423501
O O9 0.659699 0.972909 0.400536
O O10 0.785910 0.097716 0.390291
O O11 0.201571 0.298430 0.905962
O O12 0.263030 0.385781 0.000000
O O13 0.772693 0.272693 0.384804
O O14 0.602552 0.897449 0.500000
O O15 0.500000 0.000000 0.434804
O O16 0.000000 0.500000 0.923321
O O17 0.092552 0.592552 0.000000
#
# Coordination Sequence:
#
# PCOD9564420 Si02
#       7
#    16  16  16  16  16   8   8
#     4  11  24  46  67  89 126 174 225 279 336 401
#     4  12  23  41  66  95 130 174 226 278 335 403
#     4  11  23  40  66 102 138 173 219 279 347 420
#     4  11  23  39  62  96 134 170 215 276 342 408
#     4  12  25  43  69  98 134 179 230 282 342 413
#     4   9  18  36  61  91 133 176 212 259 329 408
#     4  11  24  44  69 101 143 186 227 278 349 423
#
# _framework density 19.942453
#
# number of rings (size 3 to 8) (size 9 to 14) (size 15 to 20)
#    0.000    0.833    5.000    3.000    1.167    3.667 
#    0.000    1.667    0.000    1.000    0.000    0.000 
#    0.000    0.000    0.000    0.000    0.000    0.000 
#
# Total GULP energy -535616.487984 kJ/mol
# GULP energy per Si atom -5579.338417 kJ/mol
# Density = 1.989706 g / cm^3
# Si number density = 19.942453 Si / 1000 Ang^3
#
#
#
# Elastic Constant Matrix: (Units=GPa)
#
#
# Indices 1 2 3 4 5 6 
#
# 1 96.1313 21.7582 27.9580 0.0000 0.0000 0.0000
# 2 21.7582 96.1313 27.9580 0.0000 0.0000 0.0000
# 3 27.9580 27.9580 96.4617 0.0000 0.0000 0.0000
# 4 0.0000 0.0000 0.0000 4.0773 0.0000 0.0000
# 5 0.0000 0.0000 0.0000 0.0000 4.0775 0.0000
# 6 0.0000 0.0000 0.0000 0.0000 0.0000 35.2639
#
#
#
# Elastic Compliance Matrix: (Units=1/GPa)
#
#
# Indices 1 2 3 4 5 6 
#
# 1 0.011640 -0.001806 -0.002850 0.000000 0.000000 0.000000
# 2 -0.001806 0.011640 -0.002850 0.000000 0.000000 0.000000
# 3 -0.002850 -0.002850 0.012019 0.000000 0.000000 0.000000
# 4 0.000000 0.000000 0.000000 0.245263 0.000000 0.000000
# 5 0.000000 0.000000 0.000000 0.000000 0.245247 0.000000
# 6 0.000000 0.000000 0.000000 0.000000 0.000000 0.028358
#
#
# Mechanical properties :
#
#
# Convention : Reuss Voigt Hill
#
# Bulk Modulus (GPa) = 49.29380 49.34142 49.31761
# Shear Modulus (GPa) = 8.68144 22.75374 15.71759
#
# Velocity S-wave (km/s) = 2.08871 3.38149 2.81044
# Velocity P-wave (km/s) = 5.53070 6.32784 5.94265
#
# Compressibility (1/GPa) = 0.02028653
#
# Stress axis : x y z
#
# Youngs Moduli (GPa) = 85.90986 85.90995 83.20093
#
# Poissons Ratio (x) = 0.15512 0.23715
# Poissons Ratio (y) = 0.15512 0.23715
# Poissons Ratio (z) = 0.24488 0.24488
#
# Static dielectric constant tensor:
#      x y z
#    x 1.900610 0.000000 0.000000 
#    y 0.000000 1.900610 0.000000 
#    z 0.000000 0.000000 1.731350 
# 
# From -- ./inp_files/5819.got.cif
#   From: 2010.05.17/outbox.cif.g08.bks.cpg/sg127_3_cif.got.tgz:5819.got - 2010.05.20 12:03:00.
