data_PCOD9564955
_publ_section_title
;
Structure prediction by ZEFSAII (Michael W. Deem and Ramdas Pophale) SiO2 
 PCOD9564955
Probable space group: P 4/M N C
;
_chemical_formula_sum "Si O2"
_cell_formula_units_Z 112
_cell_length_a 14.575206
_cell_length_b 14.575206
_cell_length_c 28.130121
_cell_angle_alpha 90.000000
_cell_angle_beta 90.000000
_cell_angle_gamma 90.000000
_cell_volume 5975.868105
_symmetry_space_group_name_H-M "P 4/M N C"
_symmetry_group_IT_number 128
_symmetry_cell_setting 'tetragonal'
loop_
_space_group_symop_operation_xyz
x,y,z
-y,x,z
-x,-y,z
y,-x,z
1/2+x,1/2-y,1/2-z
1/2-x,1/2+y,1/2-z
1/2+y,1/2+x,1/2-z
1/2-y,1/2-x,1/2-z
-x,-y,-z
y,-x,-z
x,y,-z
-y,x,-z
1/2-x,1/2+y,1/2+z
1/2+x,1/2-y,1/2+z
1/2-y,1/2-x,1/2+z
1/2+y,1/2+x,1/2+z
loop_
_atom_site_type_symbol
_atom_site_label
_atom_site_fract_x
_atom_site_fract_y
_atom_site_fract_z
Si Si1 0.901518 0.547510 0.053331
Si Si2 0.082848 0.868698 0.500000
Si Si3 0.149639 0.964212 0.835212
Si Si4 0.821739 0.832576 0.402629
Si Si5 0.470751 0.652692 0.225058
Si Si6 0.882069 0.098751 0.000000
Si Si7 0.992873 0.746447 0.365628
Si Si8 0.246858 0.371222 0.583316
O O1 0.840433 0.521297 0.099531
O O2 0.909909 0.657293 0.056944
O O3 0.000000 0.500000 0.056227
O O4 0.862116 0.526437 0.000000
O O5 0.122413 0.817308 0.454297
O O6 0.973075 0.878062 0.500000
O O7 0.179545 0.961202 0.780262
O O8 0.225930 0.934824 0.872568
O O9 0.064875 0.893550 0.842683
O O10 0.770545 0.900889 0.367944
O O11 0.780387 0.731279 0.400947
O O12 0.929299 0.824044 0.390316
O O13 0.397132 0.570002 0.217775
O O14 0.462033 0.738335 0.189009
O O15 0.830459 0.133669 0.046633
O O16 0.988365 0.124246 0.000000
#
# Coordination Sequence:
#
# PCOD9564955 Si02
#       8
#    16   8  16  16  16   8  16  16
#     4  10  24  44  58  77 115 171 214 238 283 355
#     4  11  21  32  50  78 117 161 193 229 299 354
#     4   9  19  37  64  90 116 148 187 247 314 367
#     4  11  23  33  52  85 119 159 191 242 289 345
#     4   9  17  33  60  93 122 149 178 230 313 371
#     4  11  23  38  61  90 115 141 190 263 323 355
#     4  11  21  35  59  86 120 151 197 249 292 357
#     4  11  22  39  58  85 119 155 202 245 293 355
#
# _framework density 18.742045999999998
#
# number of rings (size 3 to 8) (size 9 to 14) (size 15 to 20)
#    0.000    1.714    3.571    2.143    4.000    3.714 
#    0.000    2.857    0.000    3.429    0.000    0.000 
#    0.000    0.000    0.000    0.000    0.000    0.000 
#
# Total GULP energy -624353.744524 kJ/mol
# GULP energy per Si atom -5574.587005 kJ/mol
# Density = 1.869939 g / cm^3
# Si number density = 18.742046 Si / 1000 Ang^3
#
#
#
# Elastic Constant Matrix: (Units=GPa)
#
#
# Indices 1 2 3 4 5 6 
#
# 1 51.6591 24.5084 27.6208 0.0000 0.0000 0.0000
# 2 24.5084 51.6591 27.6208 0.0000 0.0000 0.0000
# 3 27.6208 27.6208 111.0006 0.0000 0.0000 0.0000
# 4 0.0000 0.0000 0.0000 25.7330 0.0000 0.0000
# 5 0.0000 0.0000 0.0000 0.0000 25.7330 0.0000
# 6 0.0000 0.0000 0.0000 0.0000 0.0000 20.1685
#
#
#
# Elastic Compliance Matrix: (Units=1/GPa)
#
#
# Indices 1 2 3 4 5 6 
#
# 1 0.026426 -0.010406 -0.003986 0.000000 0.000000 0.000000
# 2 -0.010406 0.026426 -0.003986 0.000000 0.000000 0.000000
# 3 -0.003986 -0.003986 0.010993 0.000000 0.000000 0.000000
# 4 0.000000 0.000000 0.000000 0.038861 0.000000 0.000000
# 5 0.000000 0.000000 0.000000 0.000000 0.038861 0.000000
# 6 0.000000 0.000000 0.000000 0.000000 0.000000 0.049582
#
#
# Mechanical properties :
#
#
# Convention : Reuss Voigt Hill
#
# Bulk Modulus (GPa) = 36.91717 41.53543 39.22630
# Shear Modulus (GPa) = 21.10292 23.29814 22.20053
#
# Velocity S-wave (km/s) = 3.35918 3.52958 3.44544
# Velocity P-wave (km/s) = 5.89795 6.23060 6.06655
#
# Compressibility (1/GPa) = 0.02708767
#
# Stress axis : x y z
#
# Youngs Moduli (GPa) = 37.84180 37.84180 90.96814
#
# Poissons Ratio (x) = 0.39377 0.36263
# Poissons Ratio (y) = 0.39377 0.36263
# Poissons Ratio (z) = 0.15085 0.15085
#
# Static dielectric constant tensor:
#      x y z
#    x 1.644650 0.000000 0.000000 
#    y 0.000000 1.644650 0.000000 
#    z 0.000000 0.000000 1.686050 
# 
# From -- ./inp_files/6940.got.cif
#   From: 2010.05.17/outbox.cif.g08.bks.cpg/sg128_4_cif.got.tgz:6940.got - 2010.05.20 12:07:25.
