data_PCOD9564219
_publ_section_title
;
Structure prediction by ZEFSAII (Michael W. Deem and Ramdas Pophale) SiO2 
 PCOD9564219
Probable space group: P 4/M B M
;
_chemical_formula_sum "Si O2"
_cell_formula_units_Z 82
_cell_length_a 23.607858
_cell_length_b 23.607858
_cell_length_c 7.773690
_cell_angle_alpha 90.000000
_cell_angle_beta 90.000000
_cell_angle_gamma 90.000000
_cell_volume 4332.518105
_symmetry_space_group_name_H-M "P 4/M B M"
_symmetry_group_IT_number 127
_symmetry_cell_setting 'tetragonal'
loop_
_space_group_symop_operation_xyz
x,y,z
-y,x,z
-x,-y,z
y,-x,z
1/2+x,1/2-y,-z
1/2-x,1/2+y,-z
1/2+y,1/2+x,-z
1/2-y,1/2-x,-z
-x,-y,-z
y,-x,-z
x,y,-z
-y,x,-z
1/2-x,1/2+y,z
1/2+x,1/2-y,z
1/2-y,1/2-x,z
1/2+y,1/2+x,z
loop_
_atom_site_type_symbol
_atom_site_label
_atom_site_fract_x
_atom_site_fract_y
_atom_site_fract_z
Si Si1 0.040089 0.082121 0.209720
Si Si2 0.985069 0.636075 0.000000
Si Si3 0.908395 0.682086 0.695281
Si Si4 0.189696 0.887528 0.792225
Si Si5 0.396859 0.199390 0.000000
Si Si6 0.758609 0.836016 0.302786
Si Si7 0.500000 0.000000 0.000000
O O1 0.070675 0.139380 0.265856
O O2 0.974794 0.073641 0.263194
O O3 0.040117 0.082500 0.000000
O O4 0.948478 0.652315 0.167021
O O5 0.999552 0.570113 0.000000
O O6 0.040780 0.674741 0.000000
O O7 0.927083 0.670764 0.500000
O O8 0.846312 0.653689 0.715398
O O9 0.905853 0.748807 0.727633
O O10 0.177129 0.824063 0.729777
O O11 0.190833 0.887240 0.000000
O O12 0.382085 0.236496 0.167429
O O13 0.353051 0.146950 0.000000
O O14 0.749978 0.853735 0.500000
O O15 0.720350 0.779651 0.274093
#
# Coordination Sequence:
#
# PCOD9564219 Si02
#       7
#    16   8  16  16   8  16   2
#     4   8  16  32  53  80 118 160 202 247 296 356
#     4  12  24  45  71  95 127 164 214 272 321 386
#     4  11  24  42  64  94 129 165 207 262 324 384
#     4  11  20  33  60  97 124 165 213 257 312 375
#     4  10  22  39  62  89 120 160 207 258 316 382
#     4  10  21  38  59  88 127 168 207 253 314 382
#     4  12  24  48  78  96 120 170 220 260 338 392
#
# _framework density 18.926636999999999
#
# number of rings (size 3 to 8) (size 9 to 14) (size 15 to 20)
#    0.000    1.756    3.415    1.756    0.000    4.683 
#    0.000    0.976    0.000    3.512    0.000    5.463 
#    0.000    0.000    0.000    0.000    0.000    0.000 
#
# Total GULP energy -457510.014868 kJ/mol
# GULP energy per Si atom -5579.390425 kJ/mol
# Density = 1.888356 g / cm^3
# Si number density = 18.926637 Si / 1000 Ang^3
#
#
#
# Elastic Constant Matrix: (Units=GPa)
#
#
# Indices 1 2 3 4 5 6 
#
# 1 145.4433 85.3955 54.9164 0.0000 0.0000 0.0000
# 2 85.3955 145.4434 54.9164 0.0000 0.0000 0.0000
# 3 54.9164 54.9164 109.6464 0.0000 0.0000 0.0000
# 4 0.0000 0.0000 0.0000 101.0194 0.0000 0.0000
# 5 0.0000 0.0000 0.0000 0.0000 102.5043 0.0000
# 6 0.0000 0.0000 0.0000 0.0000 0.0000 35.5659
#
#
#
# Elastic Compliance Matrix: (Units=1/GPa)
#
#
# Indices 1 2 3 4 5 6 
#
# 1 0.011170 -0.005483 -0.002849 0.000000 0.000000 0.000000
# 2 -0.005483 0.011170 -0.002849 0.000000 0.000000 0.000000
# 3 -0.002849 -0.002849 0.011974 0.000000 0.000000 0.000000
# 4 0.000000 0.000000 0.000000 0.009899 0.000000 0.000000
# 5 0.000000 0.000000 0.000000 0.000000 0.009756 0.000000
# 6 0.000000 0.000000 0.000000 0.000000 0.000000 0.028117
#
#
# Mechanical properties :
#
#
# Convention : Reuss Voigt Hill
#
# Bulk Modulus (GPa) = 83.65235 87.88774 85.77005
# Shear Modulus (GPa) = 46.11239 61.50489 53.80864
#
# Velocity S-wave (km/s) = 4.94132 5.70675 5.33777
# Velocity P-wave (km/s) = 8.76640 9.48470 9.13261
#
# Compressibility (1/GPa) = 0.01195424
#
# Stress axis : x y z
#
# Youngs Moduli (GPa) = 89.52250 89.52255 83.51726
#
# Poissons Ratio (x) = 0.49086 0.23790
# Poissons Ratio (y) = 0.49085 0.23790
# Poissons Ratio (z) = 0.25500 0.25501
#
# Static dielectric constant tensor:
#      x y z
#    x 1.631370 0.000000 0.000000 
#    y 0.000000 1.631370 0.000000 
#    z 0.000000 0.000000 1.672440 
# 
# From -- ./inp_files/1911.got.cif
#   From: 2010.05.17/outbox.cif.g08.bks.cpg/sg127_1_cif.got.tgz:1911.got - 2010.05.20 12:03:00.
