data_PCOD9564178
_publ_section_title
;
Structure prediction by ZEFSAII (Michael W. Deem and Ramdas Pophale) SiO2 
 PCOD9564178
Probable space group: P 4/M B M
;
_chemical_formula_sum "Si O2"
_cell_formula_units_Z 112
_cell_length_a 14.495777
_cell_length_b 14.495777
_cell_length_c 27.018694
_cell_angle_alpha 90.000000
_cell_angle_beta 90.000000
_cell_angle_gamma 90.000000
_cell_volume 5677.371997
_symmetry_space_group_name_H-M "P 4/M B M"
_symmetry_group_IT_number 127
_symmetry_cell_setting 'tetragonal'
loop_
_space_group_symop_operation_xyz
x,y,z
-y,x,z
-x,-y,z
y,-x,z
1/2+x,1/2-y,-z
1/2-x,1/2+y,-z
1/2+y,1/2+x,-z
1/2-y,1/2-x,-z
-x,-y,-z
y,-x,-z
x,y,-z
-y,x,-z
1/2-x,1/2+y,z
1/2+x,1/2-y,z
1/2-y,1/2-x,z
1/2+y,1/2+x,z
loop_
_atom_site_type_symbol
_atom_site_label
_atom_site_fract_x
_atom_site_fract_y
_atom_site_fract_z
Si Si1 0.147247 0.501984 0.401336
Si Si2 0.625314 0.582608 0.297490
Si Si3 0.245543 0.897581 0.940693
Si Si4 0.230246 0.116295 0.220703
Si Si5 0.460038 0.815309 0.291838
Si Si6 0.255076 0.601627 0.103618
Si Si7 0.852208 0.997550 0.559696
O O1 0.087148 0.587148 0.420705
O O2 0.150618 0.507630 0.341797
O O3 0.249570 0.502993 0.421284
O O4 0.090923 0.409078 0.413711
O O5 0.525329 0.619847 0.312422
O O6 0.625065 0.625472 0.241344
O O7 0.730085 0.604264 0.311150
O O8 0.335962 0.835962 0.928454
O O9 0.158993 0.840617 0.918976
O O10 0.251399 0.999986 0.918938
O O11 0.237463 0.901803 0.000000
O O12 0.290998 0.209003 0.229335
O O13 0.232618 0.096204 0.162770
O O14 0.278603 0.033966 0.252158
O O15 0.395827 0.895827 0.271129
O O16 0.163986 0.663986 0.093538
O O17 0.851836 0.997365 0.500000
O O18 0.912171 0.909212 0.575959
#
# Coordination Sequence:
#
# PCOD9564178 Si02
#       7
#    16  16  16  16  16  16  16
#     4  10  22  39  59  87 123 163 208 256 307 366
#     4   9  19  34  52  76 108 143 184 231 280 334
#     4  10  22  41  64  88 118 155 193 242 302 361
#     4  10  21  36  56  82 111 150 191 234 286 342
#     4  10  21  37  57  79 113 157 197 241 289 345
#     4  10  23  40  61  90 122 153 196 247 297 361
#     4   9  20  40  64  90 122 159 202 256 315 373
#
# _framework density 19.727436999999998
#
# number of rings (size 3 to 8) (size 9 to 14) (size 15 to 20)
#    0.000    2.286    0.000    1.714    4.000    6.286 
#    0.000   10.714    0.000    0.000    0.000    0.000 
#    0.000    0.000    0.000    0.000    0.000    0.000 
#
# Total GULP energy -624036.560128 kJ/mol
# GULP energy per Si atom -5571.755001 kJ/mol
# Density = 1.968254 g / cm^3
# Si number density = 19.727437 Si / 1000 Ang^3
#
#
#
# Elastic Constant Matrix: (Units=GPa)
#
#
# Indices 1 2 3 4 5 6 
#
# 1 141.8882 72.2697 41.5378 0.0000 0.0000 0.0000
# 2 72.2697 141.8882 41.5378 0.0000 0.0000 0.0000
# 3 41.5378 41.5378 49.2552 0.0000 0.0000 0.0000
# 4 0.0000 0.0000 0.0000 27.7853 0.0000 0.0000
# 5 0.0000 0.0000 0.0000 0.0000 27.7853 0.0000
# 6 0.0000 0.0000 0.0000 0.0000 0.0000 14.2539
#
#
#
# Elastic Compliance Matrix: (Units=1/GPa)
#
#
# Indices 1 2 3 4 5 6 
#
# 1 0.010652 -0.003712 -0.005852 0.000000 0.000000 0.000000
# 2 -0.003712 0.010652 -0.005852 0.000000 0.000000 0.000000
# 3 -0.005852 -0.005852 0.030173 0.000000 0.000000 0.000000
# 4 0.000000 0.000000 0.000000 0.035990 0.000000 0.000000
# 5 0.000000 0.000000 0.000000 0.000000 0.035990 0.000000
# 6 0.000000 0.000000 0.000000 0.000000 0.000000 0.070156
#
#
# Mechanical properties :
#
#
# Convention : Reuss Voigt Hill
#
# Bulk Modulus (GPa) = 48.44219 71.52467 59.98343
# Shear Modulus (GPa) = 21.61425 25.81063 23.71244
#
# Velocity S-wave (km/s) = 3.31364 3.62105 3.47075
# Velocity P-wave (km/s) = 6.26493 7.33607 6.82155
#
# Compressibility (1/GPa) = 0.02064316
#
# Stress axis : x y z
#
# Youngs Moduli (GPa) = 93.88046 93.88046 33.14193
#
# Poissons Ratio (x) = 0.34850 0.19396
# Poissons Ratio (y) = 0.34850 0.19396
# Poissons Ratio (z) = 0.54942 0.54942
#
# Static dielectric constant tensor:
#      x y z
#    x 1.710800 0.000000 0.000000 
#    y 0.000000 1.710800 0.000000 
#    z 0.000000 0.000000 1.700700 
# 
# From -- ./inp_files/6174.got.cif
#   From: 2010.05.17/outbox.cif.g08.bks.cpg/sg127_4_cif.got.tgz:6174.got - 2010.05.20 12:03:00.
