data_PCOD9564977
_publ_section_title
;
Structure prediction by ZEFSAII (Michael W. Deem and Ramdas Pophale) SiO2 
 PCOD9564977
Probable space group: P 4/M N C
;
_chemical_formula_sum "Si O2"
_cell_formula_units_Z 84
_cell_length_a 11.833997
_cell_length_b 11.833997
_cell_length_c 33.256947
_cell_angle_alpha 90.000000
_cell_angle_beta 90.000000
_cell_angle_gamma 90.000000
_cell_volume 4657.418758
_symmetry_space_group_name_H-M "P 4/M N C"
_symmetry_group_IT_number 128
_symmetry_cell_setting 'tetragonal'
loop_
_space_group_symop_operation_xyz
x,y,z
-y,x,z
-x,-y,z
y,-x,z
1/2+x,1/2-y,1/2-z
1/2-x,1/2+y,1/2-z
1/2+y,1/2+x,1/2-z
1/2-y,1/2-x,1/2-z
-x,-y,-z
y,-x,-z
x,y,-z
-y,x,-z
1/2-x,1/2+y,1/2+z
1/2+x,1/2-y,1/2+z
1/2-y,1/2-x,1/2+z
1/2+y,1/2+x,1/2+z
loop_
_atom_site_type_symbol
_atom_site_label
_atom_site_fract_x
_atom_site_fract_y
_atom_site_fract_z
Si Si1 0.761130 0.494856 0.666562
Si Si2 0.992764 0.192039 0.743537
Si Si3 0.881268 0.150079 0.454237
Si Si4 0.500000 0.500000 0.346957
Si Si5 0.730477 0.847032 0.374711
Si Si6 0.422377 0.792602 0.836813
O O1 0.757416 0.477422 0.714743
O O2 0.634895 0.534766 0.655562
O O3 0.792340 0.384674 0.641031
O O4 0.853307 0.592169 0.660069
O O5 0.014228 0.272634 0.705632
O O6 0.888318 0.104265 0.743157
O O7 0.854027 0.184482 0.500000
O O8 0.825563 0.227387 0.420037
O O9 0.017966 0.151715 0.449795
O O10 0.831768 0.805427 0.345795
O O11 0.714863 0.980212 0.369550
#
# Coordination Sequence:
#
# PCOD9564977 Si02
#       6
#    16  16  16   4  16  16
#     4  12  24  41  59  85 118 170 224 263 301 366
#     4  11  20  37  60  83 115 160 214 264 321 368
#     4   9  18  35  64  99 131 160 194 245 322 408
#     4  12  20  40  64  76 113 176 224 248 301 364
#     4  12  23  38  63  92 130 160 203 260 324 386
#     4  12  24  37  59  90 124 163 208 267 321 373
#
# _framework density 18.035740000000001
#
# number of rings (size 3 to 8) (size 9 to 14) (size 15 to 20)
#    0.000    0.762    7.619    1.714    0.000    1.143 
#    0.000    1.905    0.000    3.429    0.000    0.667 
#    0.000    0.000    0.000    0.000    0.000    0.000 
#
# Total GULP energy -467750.217316 kJ/mol
# GULP energy per Si atom -5568.454968 kJ/mol
# Density = 1.799469 g / cm^3
# Si number density = 18.035740 Si / 1000 Ang^3
#
#
#
# Elastic Constant Matrix: (Units=GPa)
#
#
# Indices 1 2 3 4 5 6 
#
# 1 64.4843 7.0324 35.3639 0.0000 0.0000 0.0000
# 2 7.0324 64.4843 35.3639 0.0000 0.0000 0.0000
# 3 35.3639 35.3639 119.4416 0.0000 0.0000 0.0000
# 4 0.0000 0.0000 0.0000 20.7827 0.0000 0.0000
# 5 0.0000 0.0000 0.0000 0.0000 20.7827 0.0000
# 6 0.0000 0.0000 0.0000 0.0000 0.0000 29.9305
#
#
#
# Elastic Compliance Matrix: (Units=1/GPa)
#
#
# Indices 1 2 3 4 5 6 
#
# 1 0.018589 0.001183 -0.005854 0.000000 0.000000 0.000000
# 2 0.001183 0.018589 -0.005854 0.000000 0.000000 0.000000
# 3 -0.005854 -0.005854 0.011839 0.000000 0.000000 0.000000
# 4 0.000000 0.000000 0.000000 0.048117 0.000000 0.000000
# 5 0.000000 0.000000 0.000000 0.000000 0.048117 0.000000
# 6 0.000000 0.000000 0.000000 0.000000 0.000000 0.033411
#
#
# Mechanical properties :
#
#
# Convention : Reuss Voigt Hill
#
# Bulk Modulus (GPa) = 35.75649 44.88117 40.31883
# Shear Modulus (GPa) = 23.91955 25.67584 24.79770
#
# Velocity S-wave (km/s) = 3.64570 3.77717 3.71201
# Velocity P-wave (km/s) = 6.13106 6.63033 6.38557
#
# Compressibility (1/GPa) = 0.02796695
#
# Stress axis : x y z
#
# Youngs Moduli (GPa) = 53.79500 53.79500 84.46782
#
# Poissons Ratio (x) = -0.06365 0.49448
# Poissons Ratio (y) = -0.06365 0.49448
# Poissons Ratio (z) = 0.31492 0.31492
#
# Static dielectric constant tensor:
#      x y z
#    x 1.634690 0.000000 0.000000 
#    y 0.000000 1.634690 0.000000 
#    z 0.000000 0.000000 1.628770 
# 
# From -- ./inp_files/7275.got.cif
#   From: 2010.05.17/outbox.cif.g08.bks.cpg/sg128_4_cif.got.tgz:7275.got - 2010.05.20 12:07:25.
