data_PCOD9564542
_publ_section_title
;
Structure prediction by ZEFSAII (Michael W. Deem and Ramdas Pophale) SiO2 
 PCOD9564542
Probable space group: P 4/M N C
;
_chemical_formula_sum "Si O2"
_cell_formula_units_Z 96
_cell_length_a 15.976117
_cell_length_b 15.976117
_cell_length_c 16.905167
_cell_angle_alpha 90.000000
_cell_angle_beta 90.000000
_cell_angle_gamma 90.000000
_cell_volume 4314.812519
_symmetry_space_group_name_H-M "P 4/M N C"
_symmetry_group_IT_number 128
_symmetry_cell_setting 'tetragonal'
loop_
_space_group_symop_operation_xyz
x,y,z
-y,x,z
-x,-y,z
y,-x,z
1/2+x,1/2-y,1/2-z
1/2-x,1/2+y,1/2-z
1/2+y,1/2+x,1/2-z
1/2-y,1/2-x,1/2-z
-x,-y,-z
y,-x,-z
x,y,-z
-y,x,-z
1/2-x,1/2+y,1/2+z
1/2+x,1/2-y,1/2+z
1/2-y,1/2-x,1/2+z
1/2+y,1/2+x,1/2+z
loop_
_atom_site_type_symbol
_atom_site_label
_atom_site_fract_x
_atom_site_fract_y
_atom_site_fract_z
Si Si1 0.117169 0.610912 0.909431
Si Si2 0.077113 0.105844 0.625989
Si Si3 0.506774 0.300762 0.261581
Si Si4 0.674103 0.729600 0.807583
Si Si5 0.562840 0.132292 0.173688
Si Si6 0.943220 0.712623 0.090176
O O1 0.184385 0.655204 0.853128
O O2 0.108072 0.516028 0.879511
O O3 0.029029 0.658494 0.906085
O O4 0.146303 0.611072 0.000000
O O5 0.044438 0.119322 0.717222
O O6 0.155352 0.168875 0.627197
O O7 0.982442 0.112461 0.593071
O O8 0.407778 0.289210 0.247214
O O9 0.544004 0.222511 0.211225
O O10 0.539765 0.288336 0.349729
O O11 0.752644 0.747357 0.750000
O O12 0.573103 0.073103 0.250000
O O13 0.648380 0.125285 0.124418
O O14 0.926278 0.736551 0.000000
#
# Coordination Sequence:
#
# PCOD9564542 Si02
#       6
#    16  16  16  16  16  16
#     4  10  19  30  46  75 115 159 193 226 284 350
#     4   9  19  36  60  84 104 135 188 244 291 336
#     4   9  18  32  50  77 106 143 186 237 282 330
#     4  10  18  32  55  80 106 137 180 237 288 339
#     4   9  18  27  45  74 113 155 198 233 269 327
#     4  10  18  28  45  73 116 156 187 224 277 344
#
# _framework density 22.248937999999999
#
# number of rings (size 3 to 8) (size 9 to 14) (size 15 to 20)
#    0.000    2.500    1.667    1.000    0.000    5.333 
#    0.000    0.000    0.000   17.000    0.000   15.167 
#    0.000    0.000    0.000    0.000    0.000    0.000 
#
# Total GULP energy -534700.164575 kJ/mol
# GULP energy per Si atom -5569.793381 kJ/mol
# Density = 2.219830 g / cm^3
# Si number density = 22.248938 Si / 1000 Ang^3
#
#
#
# Elastic Constant Matrix: (Units=GPa)
#
#
# Indices 1 2 3 4 5 6 
#
# 1 70.4588 21.4797 10.8754 0.0000 0.0000 0.0000
# 2 21.4797 70.4595 10.8757 0.0000 0.0000 0.0000
# 3 10.8754 10.8757 110.4196 0.0000 0.0000 0.0000
# 4 0.0000 0.0000 0.0000 4.5976 0.0000 0.0000
# 5 0.0000 0.0000 0.0000 0.0000 4.5976 0.0000
# 6 0.0000 0.0000 0.0000 0.0000 0.0000 28.4794
#
#
#
# Elastic Compliance Matrix: (Units=1/GPa)
#
#
# Indices 1 2 3 4 5 6 
#
# 1 0.015777 -0.004640 -0.001097 0.000000 0.000000 0.000000
# 2 -0.004640 0.015776 -0.001097 0.000000 0.000000 0.000000
# 3 -0.001097 -0.001097 0.009272 0.000000 0.000000 0.000000
# 4 0.000000 0.000000 0.000000 0.217505 0.000000 0.000000
# 5 0.000000 0.000000 0.000000 0.000000 0.217507 0.000000
# 6 0.000000 0.000000 0.000000 0.000000 0.000000 0.035113
#
#
# Mechanical properties :
#
#
# Convention : Reuss Voigt Hill
#
# Bulk Modulus (GPa) = 36.82208 37.53328 37.17768
# Shear Modulus (GPa) = 9.36906 21.40871 15.38889
#
# Velocity S-wave (km/s) = 2.05430 3.10536 2.63281
# Velocity P-wave (km/s) = 4.71305 5.45564 5.09788
#
# Compressibility (1/GPa) = 0.02715762
#
# Stress axis : x y z
#
# Youngs Moduli (GPa) = 63.38506 63.38569 107.84661
#
# Poissons Ratio (x) = 0.29412 0.11829
# Poissons Ratio (y) = 0.29412 0.11829
# Poissons Ratio (z) = 0.06952 0.06953
#
# Static dielectric constant tensor:
#      x y z
#    x 1.889520 0.000000 0.000000 
#    y 0.000000 1.889520 0.000000 
#    z 0.000000 0.000000 1.841070 
# 
# From -- ./inp_files/4800.got.cif
#   From: 2010.05.17/outbox.cif.g08.bks.cpg/sg128_3_cif.got.tgz:4800.got - 2010.05.20 12:07:25.
