data_PCOD9564446
_publ_section_title
;
Structure prediction by ZEFSAII (Michael W. Deem and Ramdas Pophale) SiO2 
 PCOD9564446
Probable space group: P 4/M B M
;
_chemical_formula_sum "Si O2"
_cell_formula_units_Z 80
_cell_length_a 11.983399
_cell_length_b 11.983399
_cell_length_c 30.136477
_cell_angle_alpha 90.000000
_cell_angle_beta 90.000000
_cell_angle_gamma 90.000000
_cell_volume 4327.653898
_symmetry_space_group_name_H-M "P 4/M B M"
_symmetry_group_IT_number 127
_symmetry_cell_setting 'tetragonal'
loop_
_space_group_symop_operation_xyz
x,y,z
-y,x,z
-x,-y,z
y,-x,z
1/2+x,1/2-y,-z
1/2-x,1/2+y,-z
1/2+y,1/2+x,-z
1/2-y,1/2-x,-z
-x,-y,-z
y,-x,-z
x,y,-z
-y,x,-z
1/2-x,1/2+y,z
1/2+x,1/2-y,z
1/2-y,1/2-x,z
1/2+y,1/2+x,z
loop_
_atom_site_type_symbol
_atom_site_label
_atom_site_fract_x
_atom_site_fract_y
_atom_site_fract_z
Si Si1 0.468347 0.687400 0.236782
Si Si2 0.593335 0.093335 0.603436
Si Si3 0.906168 0.593833 0.290775
Si Si4 0.683837 0.995566 0.951937
Si Si5 0.182605 0.965579 0.447566
Si Si6 0.024474 0.184946 0.862335
O O1 0.375964 0.588062 0.241429
O O2 0.444383 0.787916 0.270078
O O3 0.465098 0.737313 0.186562
O O4 0.604502 0.104502 0.656284
O O5 0.556438 0.209762 0.581675
O O6 0.500000 0.000000 0.594083
O O7 0.000000 0.500000 0.281251
O O8 0.585066 0.085066 0.954997
O O9 0.746625 0.026429 0.907294
O O10 0.625136 0.874865 0.947562
O O11 0.744578 0.998580 0.000000
O O12 0.210626 0.960017 0.500000
O O13 0.085826 0.874125 0.439258
O O14 0.907518 0.120305 0.863260
#
# Coordination Sequence:
#
# PCOD9564446 Si02
#       6
#    16   8   8  16  16  16
#     4   9  21  43  65  85 116 156 199 252 310 363
#     4  11  25  40  57  91 132 163 202 254 306 358
#     4  11  26  41  60  92 124 158 207 252 301 366
#     4   9  19  34  49  72 108 143 176 215 266 331
#     4   9  20  40  65  93 124 163 210 252 297 356
#     4   9  19  36  56  79 105 134 176 227 280 339
#
# _framework density 18.485766999999999
#
# number of rings (size 3 to 8) (size 9 to 14) (size 15 to 20)
#    0.000    2.600    0.000    2.700    4.200    4.800 
#    3.600    5.000    0.000    0.000    0.000    0.000 
#    0.000    0.000    0.000    0.000    0.000    0.000 
#
# Total GULP energy -445914.728796 kJ/mol
# GULP energy per Si atom -5573.934110 kJ/mol
# Density = 1.844369 g / cm^3
# Si number density = 18.485767 Si / 1000 Ang^3
#
#
#
# Elastic Constant Matrix: (Units=GPa)
#
#
# Indices 1 2 3 4 5 6 
#
# 1 97.0017 45.4909 88.5872 0.0000 0.0000 0.0000
# 2 45.4909 97.0017 88.5872 0.0000 0.0000 0.0000
# 3 88.5872 88.5872 145.3693 0.0000 0.0000 0.0000
# 4 0.0000 0.0000 0.0000 33.3428 0.0000 0.0000
# 5 0.0000 0.0000 0.0000 0.0000 33.3428 0.0000
# 6 0.0000 0.0000 0.0000 0.0000 0.0000 12.0591
#
#
#
# Elastic Compliance Matrix: (Units=1/GPa)
#
#
# Indices 1 2 3 4 5 6 
#
# 1 0.024190 0.004776 -0.017652 0.000000 0.000000 0.000000
# 2 0.004776 0.024190 -0.017652 0.000000 0.000000 0.000000
# 3 -0.017652 -0.017652 0.028393 0.000000 0.000000 0.000000
# 4 0.000000 0.000000 0.000000 0.029991 0.000000 0.000000
# 5 0.000000 0.000000 0.000000 0.000000 0.029991 0.000000
# 6 0.000000 0.000000 0.000000 0.000000 0.000000 0.082925
#
#
# Mechanical properties :
#
#
# Convention : Reuss Voigt Hill
#
# Bulk Modulus (GPa) = 63.62213 87.18924 75.40569
# Shear Modulus (GPa) = 17.48418 23.52944 20.50681
#
# Velocity S-wave (km/s) = 3.07875 3.57156 3.33427
# Velocity P-wave (km/s) = 6.86512 8.01724 7.46344
#
# Compressibility (1/GPa) = 0.01571780
#
# Stress axis : x y z
#
# Youngs Moduli (GPa) = 41.34016 41.34016 35.22055
#
# Poissons Ratio (x) = -0.19745 0.62170
# Poissons Ratio (y) = -0.19745 0.62170
# Poissons Ratio (z) = 0.72972 0.72972
#
# Static dielectric constant tensor:
#      x y z
#    x 1.630570 0.000000 0.000000 
#    y 0.000000 1.630570 0.000000 
#    z 0.000000 0.000000 1.657010 
# 
# From -- ./inp_files/6457.got.cif
#   From: 2010.05.17/outbox.cif.g08.bks.cpg/sg127_4_cif.got.tgz:6457.got - 2010.05.20 12:03:00.
