data_PCOD9564429
_publ_section_title
;
Structure prediction by ZEFSAII (Michael W. Deem and Ramdas Pophale) SiO2 
 PCOD9564429
Probable space group: P 4/M B M
;
_chemical_formula_sum "Si O2"
_cell_formula_units_Z 112
_cell_length_a 14.617087
_cell_length_b 14.617087
_cell_length_c 23.982538
_cell_angle_alpha 90.000000
_cell_angle_beta 90.000000
_cell_angle_gamma 90.000000
_cell_volume 5124.090659
_symmetry_space_group_name_H-M "P 4/M B M"
_symmetry_group_IT_number 127
_symmetry_cell_setting 'tetragonal'
loop_
_space_group_symop_operation_xyz
x,y,z
-y,x,z
-x,-y,z
y,-x,z
1/2+x,1/2-y,-z
1/2-x,1/2+y,-z
1/2+y,1/2+x,-z
1/2-y,1/2-x,-z
-x,-y,-z
y,-x,-z
x,y,-z
-y,x,-z
1/2-x,1/2+y,z
1/2+x,1/2-y,z
1/2-y,1/2-x,z
1/2+y,1/2+x,z
loop_
_atom_site_type_symbol
_atom_site_label
_atom_site_fract_x
_atom_site_fract_y
_atom_site_fract_z
Si Si1 0.826019 0.176610 0.063110
Si Si2 0.726119 0.622343 0.323721
Si Si3 0.082719 0.130608 0.563284
Si Si4 0.481227 0.167975 0.061693
Si Si5 0.539586 0.180679 0.187677
Si Si6 0.426196 0.630575 0.170223
Si Si7 0.232107 0.583821 0.717770
O O1 0.732758 0.232758 0.076623
O O2 0.905716 0.252125 0.064708
O O3 0.853200 0.097527 0.105384
O O4 0.821955 0.143878 0.000000
O O5 0.815455 0.684546 0.316577
O O6 0.693458 0.620899 0.388050
O O7 0.748451 0.516819 0.308114
O O8 0.643017 0.675672 0.291813
O O9 0.102195 0.161251 0.500000
O O10 0.972730 0.121068 0.569377
O O11 0.425916 0.074085 0.061952
O O12 0.530116 0.172214 0.121055
O O13 0.525637 0.173455 0.000000
O O14 0.591313 0.091313 0.208718
O O15 0.600145 0.272309 0.196637
O O16 0.445307 0.199891 0.219721
O O17 0.381857 0.533401 0.183129
O O18 0.149419 0.649419 0.695605
#
# Coordination Sequence:
#
# PCOD9564429 Si02
#       7
#    16  16  16  16  16  16  16
#     4   9  18  36  61  85 115 155 196 250 322 402
#     4  11  23  42  72 105 144 201 243 293 365 406
#     4   9  17  34  65 105 149 195 246 305 357 406
#     4   9  19  38  64  91 118 151 200 266 334 409
#     4  12  26  44  68  93 127 174 218 275 352 415
#     4  11  24  41  60  87 119 153 201 259 321 398
#     4  11  27  47  69 104 141 180 244 299 349 431
#
# _framework density 21.857536
#
# number of rings (size 3 to 8) (size 9 to 14) (size 15 to 20)
#    0.000    1.714    2.857    2.571    2.000    4.000 
#    0.000    1.429    0.000    0.429    0.000    1.000 
#    0.000    0.000    0.000    0.000    0.000    0.000 
#
# Total GULP energy -624991.558114 kJ/mol
# GULP energy per Si atom -5580.281769 kJ/mol
# Density = 2.180779 g / cm^3
# Si number density = 21.857536 Si / 1000 Ang^3
#
#
#
# Elastic Constant Matrix: (Units=GPa)
#
#
# Indices 1 2 3 4 5 6 
#
# 1 103.2258 73.9123 43.4144 0.0000 0.0000 0.0000
# 2 73.9123 103.2258 43.4144 0.0000 0.0000 0.0000
# 3 43.4144 43.4144 119.2179 0.0000 0.0000 0.0000
# 4 0.0000 0.0000 0.0000 6.6469 0.0000 0.0000
# 5 0.0000 0.0000 0.0000 0.0000 6.6469 0.0000
# 6 0.0000 0.0000 0.0000 0.0000 0.0000 44.9551
#
#
#
# Elastic Compliance Matrix: (Units=1/GPa)
#
#
# Indices 1 2 3 4 5 6 
#
# 1 0.020493 -0.013621 -0.002502 0.000000 0.000000 0.000000
# 2 -0.013621 0.020493 -0.002502 0.000000 0.000000 0.000000
# 3 -0.002502 -0.002502 0.010211 0.000000 0.000000 0.000000
# 4 0.000000 0.000000 0.000000 0.150446 0.000000 0.000000
# 5 0.000000 0.000000 0.000000 0.000000 0.150446 0.000000
# 6 0.000000 0.000000 0.000000 0.000000 0.000000 0.022244
#
#
# Mechanical properties :
#
#
# Convention : Reuss Voigt Hill
#
# Bulk Modulus (GPa) = 71.71246 71.90575 71.80910
# Shear Modulus (GPa) = 12.01251 22.64502 17.32877
#
# Velocity S-wave (km/s) = 2.34686 3.22223 2.81873
# Velocity P-wave (km/s) = 6.34223 6.84197 6.59684
#
# Compressibility (1/GPa) = 0.01394458
#
# Stress axis : x y z
#
# Youngs Moduli (GPa) = 48.79718 48.79718 97.93726
#
# Poissons Ratio (x) = 0.66467 0.24509
# Poissons Ratio (y) = 0.66467 0.24509
# Poissons Ratio (z) = 0.12211 0.12211
#
# Static dielectric constant tensor:
#      x y z
#    x 1.813390 0.000000 0.000000 
#    y 0.000000 1.813390 0.000000 
#    z 0.000000 0.000000 1.832770 
# 
# From -- ./inp_files/6198.got.cif
#   From: 2010.05.17/outbox.cif.g08.bks.cpg/sg127_4_cif.got.tgz:6198.got - 2010.05.20 12:03:00.
