data_PCOD9564404
_publ_section_title
;
Structure prediction by ZEFSAII (Michael W. Deem and Ramdas Pophale) SiO2 
 PCOD9564404
Probable space group: P 4/M B M
;
_chemical_formula_sum "Si O2"
_cell_formula_units_Z 72
_cell_length_a 23.822388
_cell_length_b 23.822388
_cell_length_c 8.584932
_cell_angle_alpha 90.000000
_cell_angle_beta 90.000000
_cell_angle_gamma 90.000000
_cell_volume 4872.001879
_symmetry_space_group_name_H-M "P 4/M B M"
_symmetry_group_IT_number 127
_symmetry_cell_setting 'tetragonal'
loop_
_space_group_symop_operation_xyz
x,y,z
-y,x,z
-x,-y,z
y,-x,z
1/2+x,1/2-y,-z
1/2-x,1/2+y,-z
1/2+y,1/2+x,-z
1/2-y,1/2-x,-z
-x,-y,-z
y,-x,-z
x,y,-z
-y,x,-z
1/2-x,1/2+y,z
1/2+x,1/2-y,z
1/2-y,1/2-x,z
1/2+y,1/2+x,z
loop_
_atom_site_type_symbol
_atom_site_label
_atom_site_fract_x
_atom_site_fract_y
_atom_site_fract_z
Si Si1 0.516233 0.830641 0.814650
Si Si2 0.198451 0.394368 0.689128
Si Si3 0.627544 0.779170 0.311056
Si Si4 0.287213 0.309183 0.680985
Si Si5 0.546462 0.953539 0.686997
O O1 0.456156 0.810434 0.752907
O O2 0.566592 0.791236 0.755186
O O3 0.528813 0.892950 0.750433
O O4 0.516131 0.832271 0.000000
O O5 0.200145 0.395780 0.500000
O O6 0.146001 0.354000 0.731564
O O7 0.255420 0.363450 0.746705
O O8 0.625403 0.777499 0.500000
O O9 0.668639 0.831362 0.269980
O O10 0.658179 0.722199 0.253526
O O11 0.299818 0.321797 0.500000
O O12 0.239193 0.260808 0.680749
O O13 0.549614 0.950387 0.500000
O O14 0.500000 0.000000 0.729455
#
# Coordination Sequence:
#
# PCOD9564404 Si02
#       5
#    16  16  16  16   8
#     4  12  23  31  42  64  94 121 150 185 225 268
#     4   9  17  31  49  66  86 115 152 188 223 264
#     4   9  16  29  49  67  85 112 148 186 226 266
#     4   7  12  25  47  70  84 102 141 189 227 262
#     4  11  23  37  49  59  77 117 167 203 229 256
#
# _framework density 14.778320000000001
#
# number of rings (size 3 to 8) (size 9 to 14) (size 15 to 20)
#    0.000    2.556    1.111    5.667    0.000    4.000 
#    0.000    1.111    0.000    4.000    0.000    0.000 
#    0.000    0.889    0.000   10.222    0.000    4.000 
#
# Total GULP energy -401081.416055 kJ/mol
# GULP energy per Si atom -5570.575223 kJ/mol
# Density = 1.474468 g / cm^3
# Si number density = 14.778320 Si / 1000 Ang^3
#
#
#
# Elastic Constant Matrix: (Units=GPa)
#
#
# Indices 1 2 3 4 5 6 
#
# 1 102.8106 98.5255 29.0342 0.0000 0.0000 0.0000
# 2 98.5255 102.8106 29.0338 0.0000 0.0000 0.0000
# 3 29.0342 29.0338 26.1643 0.0000 0.0000 0.0000
# 4 0.0000 0.0000 0.0000 -14.1134 0.0000 0.0000
# 5 0.0000 0.0000 0.0000 0.0000 -14.1136 0.0000
# 6 0.0000 0.0000 0.0000 0.0000 0.0000 27.6878
#
#
#
# Elastic Compliance Matrix: (Units=1/GPa)
#
#
# Indices 1 2 3 4 5 6 
#
# 1 0.120336 -0.113030 -0.008109 0.000000 0.000000 0.000000
# 2 -0.113030 0.120334 -0.008103 0.000000 0.000000 0.000000
# 3 -0.008109 -0.008103 0.056210 0.000000 0.000000 0.000000
# 4 0.000000 0.000000 0.000000 -0.070854 0.000000 0.000000
# 5 0.000000 0.000000 0.000000 0.000000 -0.070854 0.000000
# 6 0.000000 0.000000 0.000000 0.000000 0.000000 0.036117
#
#
# Mechanical properties :
#
#
# Convention : Reuss Voigt Hill
#
# Bulk Modulus (GPa) = 26.04450 60.55248 43.29849
# Shear Modulus (GPa) = 10.80916 4.90495 7.85706
#
# Velocity S-wave (km/s) = 2.70741 1.82379 2.30828
# Velocity P-wave (km/s) = 5.23786 6.74520 6.03875
#
# Compressibility (1/GPa) = 0.03839582
#
# Stress axis : x y z
#
# Youngs Moduli (GPa) = 8.31009 8.31021 17.79048
#
# Poissons Ratio (x) = 0.93930 0.14426
# Poissons Ratio (y) = 0.93929 0.14415
# Poissons Ratio (z) = 0.06739 0.06734
#
# Static dielectric constant tensor:
#      x y z
#    x 1.492730 0.000000 0.000000 
#    y 0.000000 1.492730 0.000000 
#    z 0.000000 0.000000 1.491990 
# 
# From -- ./inp_files/1726.got.cif
#   From: 2010.05.17/outbox.cif.g08.bks.cpg/sg127_1_cif.got.tgz:1726.got - 2010.05.20 12:03:00.
