data_PCOD9564665
_publ_section_title
;
Structure prediction by ZEFSAII (Michael W. Deem and Ramdas Pophale) SiO2 
 PCOD9564665
Probable space group: P 4/M N C
;
_chemical_formula_sum "Si O2"
_cell_formula_units_Z 96
_cell_length_a 16.413412
_cell_length_b 16.413412
_cell_length_c 19.819364
_cell_angle_alpha 90.000000
_cell_angle_beta 90.000000
_cell_angle_gamma 90.000000
_cell_volume 5339.338514
_symmetry_space_group_name_H-M "P 4/M N C"
_symmetry_group_IT_number 128
_symmetry_cell_setting 'tetragonal'
loop_
_space_group_symop_operation_xyz
x,y,z
-y,x,z
-x,-y,z
y,-x,z
1/2+x,1/2-y,1/2-z
1/2-x,1/2+y,1/2-z
1/2+y,1/2+x,1/2-z
1/2-y,1/2-x,1/2-z
-x,-y,-z
y,-x,-z
x,y,-z
-y,x,-z
1/2-x,1/2+y,1/2+z
1/2+x,1/2-y,1/2+z
1/2-y,1/2-x,1/2+z
1/2+y,1/2+x,1/2+z
loop_
_atom_site_type_symbol
_atom_site_label
_atom_site_fract_x
_atom_site_fract_y
_atom_site_fract_z
Si Si1 0.456813 0.290097 0.422589
Si Si2 0.717992 0.893954 0.297098
Si Si3 0.454682 0.374608 0.284351
Si Si4 0.588283 0.035960 0.676383
Si Si5 0.214160 0.718539 0.577300
Si Si6 0.618665 0.184122 0.421286
O O1 0.458556 0.321278 0.500000
O O2 0.448190 0.356386 0.364300
O O3 0.378270 0.231349 0.417366
O O4 0.539010 0.239549 0.409193
O O5 0.670855 0.829146 0.250000
O O6 0.794683 0.928014 0.256001
O O7 0.743483 0.849707 0.366116
O O8 0.653989 0.964701 0.315477
O O9 0.547551 0.398961 0.268440
O O10 0.574787 0.074787 0.750000
O O11 0.615813 0.105312 0.625195
O O12 0.500000 0.000000 0.655756
O O13 0.189232 0.735932 0.500000
O O14 0.300282 0.762958 0.589952
O O15 0.616919 0.160579 0.500000
#
# Coordination Sequence:
#
# PCOD9564665 Si02
#       6
#    16  16  16  16  16  16
#     4  10  19  36  60  89 126 161 195 240 295 360
#     4  12  23  40  64  90 118 163 203 247 312 364
#     4  11  25  41  59  90 125 159 208 254 294 359
#     4  11  22  38  58  88 128 154 193 253 303 356
#     4  10  22  39  59  88 120 155 204 249 295 367
#     4  10  22  38  61  90 120 158 205 248 295 363
#
# _framework density 17.979755999999998
#
# number of rings (size 3 to 8) (size 9 to 14) (size 15 to 20)
#    0.000    1.333    3.333    3.000    2.333    3.667 
#    0.000    0.833    0.000    0.000    0.000    1.167 
#    0.000    0.000    0.000    0.000    0.000    0.000 
#
# Total GULP energy -536482.938763 kJ/mol
# GULP energy per Si atom -5588.363945 kJ/mol
# Density = 1.793883 g / cm^3
# Si number density = 17.979756 Si / 1000 Ang^3
#
#
#
# Elastic Constant Matrix: (Units=GPa)
#
#
# Indices 1 2 3 4 5 6 
#
# 1 90.2451 72.3206 65.9737 0.0000 0.0000 0.0000
# 2 72.3206 90.2442 65.9732 0.0000 0.0000 0.0000
# 3 65.9737 65.9732 94.9990 0.0000 0.0000 0.0000
# 4 0.0000 0.0000 0.0000 26.7784 0.0000 0.0000
# 5 0.0000 0.0000 0.0000 0.0000 26.7783 0.0000
# 6 0.0000 0.0000 0.0000 0.0000 0.0000 12.5093
#
#
#
# Elastic Compliance Matrix: (Units=1/GPa)
#
#
# Indices 1 2 3 4 5 6 
#
# 1 0.034944 -0.020847 -0.009791 0.000000 0.000000 0.000000
# 2 -0.020847 0.034945 -0.009790 0.000000 0.000000 0.000000
# 3 -0.009791 -0.009790 0.024125 0.000000 0.000000 0.000000
# 4 0.000000 0.000000 0.000000 0.037344 0.000000 0.000000
# 5 0.000000 0.000000 0.000000 0.000000 0.037344 0.000000
# 6 0.000000 0.000000 0.000000 0.000000 0.000000 0.079940
#
#
# Mechanical properties :
#
#
# Convention : Reuss Voigt Hill
#
# Bulk Modulus (GPa) = 75.99623 76.00259 75.99941
# Shear Modulus (GPa) = 14.97534 17.96125 16.46829
#
# Velocity S-wave (km/s) = 2.88913 3.16408 3.02973
# Velocity P-wave (km/s) = 7.31361 7.46401 7.38919
#
# Compressibility (1/GPa) = 0.01315855
#
# Stress axis : x y z
#
# Youngs Moduli (GPa) = 28.61691 28.61681 41.45131
#
# Poissons Ratio (x) = 0.59656 0.40583
# Poissons Ratio (y) = 0.59656 0.40582
# Poissons Ratio (z) = 0.28018 0.28017
#
# Static dielectric constant tensor:
#      x y z
#    x 1.603760 0.000000 0.000000 
#    y 0.000000 1.603760 0.000000 
#    z 0.000000 0.000000 1.610010 
# 
# From -- ./inp_files/5730.got.cif
#   From: 2010.05.17/outbox.cif.g08.bks.cpg/sg128_3_cif.got.tgz:5730.got - 2010.05.20 12:07:25.
