data_PCOD9564417
_publ_section_title
;
Structure prediction by ZEFSAII (Michael W. Deem and Ramdas Pophale) SiO2 
 PCOD9564417
Probable space group: P 4/M B M
;
_chemical_formula_sum "Si O2"
_cell_formula_units_Z 112
_cell_length_a 15.371229
_cell_length_b 15.371229
_cell_length_c 28.432126
_cell_angle_alpha 90.000000
_cell_angle_beta 90.000000
_cell_angle_gamma 90.000000
_cell_volume 6717.791500
_symmetry_space_group_name_H-M "P 4/M B M"
_symmetry_group_IT_number 127
_symmetry_cell_setting 'tetragonal'
loop_
_space_group_symop_operation_xyz
x,y,z
-y,x,z
-x,-y,z
y,-x,z
1/2+x,1/2-y,-z
1/2-x,1/2+y,-z
1/2+y,1/2+x,-z
1/2-y,1/2-x,-z
-x,-y,-z
y,-x,-z
x,y,-z
-y,x,-z
1/2-x,1/2+y,z
1/2+x,1/2-y,z
1/2-y,1/2-x,z
1/2+y,1/2+x,z
loop_
_atom_site_type_symbol
_atom_site_label
_atom_site_fract_x
_atom_site_fract_y
_atom_site_fract_z
Si Si1 0.260144 0.487652 0.251687
Si Si2 0.831876 0.185743 0.299226
Si Si3 0.499999 0.352210 0.949367
Si Si4 0.073528 0.426473 0.386985
Si Si5 0.668750 0.685339 0.587909
Si Si6 0.515401 0.240837 0.445203
Si Si7 0.500008 0.647502 0.846526
Si Si8 0.573303 0.073303 0.721149
O O1 0.310904 0.406658 0.275341
O O2 0.279571 0.576248 0.279876
O O3 0.290650 0.498943 0.198134
O O4 0.159373 0.463359 0.255083
O O5 0.755325 0.255325 0.288183
O O6 0.835394 0.176447 0.355592
O O7 0.583073 0.416926 0.949393
O O8 0.500004 0.308137 0.898219
O O9 0.499999 0.304795 0.000000
O O10 0.157530 0.462452 0.413482
O O11 0.096090 0.403911 0.333158
O O12 0.000000 0.500000 0.386811
O O13 0.746102 0.753898 0.576936
O O14 0.577863 0.721643 0.569119
O O15 0.691702 0.592964 0.565171
O O16 0.515633 0.216985 0.500000
O O17 0.416504 0.583412 0.843846
O O18 0.500000 0.000000 0.720414
#
# Coordination Sequence:
#
# PCOD9564417 Si02
#       8
#    16  16  16   8  16  16  16   8
#     4  12  21  35  57  82 114 145 185 228 278 322
#     4  11  23  38  58  83 110 145 187 225 268 332
#     4   7  10  18  35  59  97 145 180 209 256 318
#     4  11  23  42  65  88 108 136 186 235 273 314
#     4  11  24  43  63  84 114 146 180 222 271 327
#     4  12  25  41  63  88 114 143 175 219 274 330
#     4   9  16  27  42  74 113 142 177 220 268 319
#     4  11  24  41  58  77 109 149 186 226 271 327
#
# _framework density 16.672146999999999
#
# number of rings (size 3 to 8) (size 9 to 14) (size 15 to 20)
#    0.000    1.571    2.857    5.357    0.000    4.857 
#    0.000    2.143    0.000    0.000    0.000    0.500 
#    0.000    4.000    0.000    0.000    0.000    0.000 
#
# Total GULP energy -625088.829321 kJ/mol
# GULP energy per Si atom -5581.150262 kJ/mol
# Density = 1.663420 g / cm^3
# Si number density = 16.672147 Si / 1000 Ang^3
#
#
#
# Elastic Constant Matrix: (Units=GPa)
#
#
# Indices 1 2 3 4 5 6 
#
# 1 64.3187 -5.2039 14.7304 0.0000 0.0000 0.0000
# 2 -5.2039 64.3187 14.7304 0.0000 0.0000 0.0000
# 3 14.7304 14.7304 118.4499 0.0000 0.0000 0.0000
# 4 0.0000 0.0000 0.0000 22.1266 0.0000 0.0000
# 5 0.0000 0.0000 0.0000 0.0000 22.1266 0.0000
# 6 0.0000 0.0000 0.0000 0.0000 0.0000 18.1713
#
#
#
# Elastic Compliance Matrix: (Units=1/GPa)
#
#
# Indices 1 2 3 4 5 6 
#
# 1 0.016209 0.001825 -0.002243 0.000000 0.000000 0.000000
# 2 0.001825 0.016209 -0.002243 0.000000 0.000000 0.000000
# 3 -0.002243 -0.002243 0.009000 0.000000 0.000000 0.000000
# 4 0.000000 0.000000 0.000000 0.045195 0.000000 0.000000
# 5 0.000000 0.000000 0.000000 0.000000 0.045195 0.000000
# 6 0.000000 0.000000 0.000000 0.000000 0.000000 0.055032
#
#
# Mechanical properties :
#
#
# Convention : Reuss Voigt Hill
#
# Bulk Modulus (GPa) = 27.70296 32.84458 30.27377
# Shear Modulus (GPa) = 24.48676 27.34024 25.91350
#
# Velocity S-wave (km/s) = 3.83655 4.05393 3.94674
# Velocity P-wave (km/s) = 6.02311 6.45411 6.24233
#
# Compressibility (1/GPa) = 0.03609722
#
# Stress axis : x y z
#
# Youngs Moduli (GPa) = 61.69466 61.69466 111.10875
#
# Poissons Ratio (x) = -0.11260 0.24918
# Poissons Ratio (y) = -0.11260 0.24918
# Poissons Ratio (z) = 0.13836 0.13836
#
# Static dielectric constant tensor:
#      x y z
#    x 1.546050 0.000000 0.000000 
#    y 0.000000 1.546050 0.000000 
#    z 0.000000 0.000000 1.582800 
# 
# From -- ./inp_files/6432.got.cif
#   From: 2010.05.17/outbox.cif.g08.bks.cpg/sg127_4_cif.got.tgz:6432.got - 2010.05.20 12:03:00.
