data_PCOD9564688
_publ_section_title
;
Structure prediction by ZEFSAII (Michael W. Deem and Ramdas Pophale) SiO2 
 PCOD9564688
Probable space group: P 4/M N C
;
_chemical_formula_sum "Si O2"
_cell_formula_units_Z 112
_cell_length_a 25.751918
_cell_length_b 25.751918
_cell_length_c 7.327618
_cell_angle_alpha 90.000000
_cell_angle_beta 90.000000
_cell_angle_gamma 90.000000
_cell_volume 4859.392537
_symmetry_space_group_name_H-M "P 4/M N C"
_symmetry_group_IT_number 128
_symmetry_cell_setting 'tetragonal'
loop_
_space_group_symop_operation_xyz
x,y,z
-y,x,z
-x,-y,z
y,-x,z
1/2+x,1/2-y,1/2-z
1/2-x,1/2+y,1/2-z
1/2+y,1/2+x,1/2-z
1/2-y,1/2-x,1/2-z
-x,-y,-z
y,-x,-z
x,y,-z
-y,x,-z
1/2-x,1/2+y,1/2+z
1/2+x,1/2-y,1/2+z
1/2-y,1/2-x,1/2+z
1/2+y,1/2+x,1/2+z
loop_
_atom_site_type_symbol
_atom_site_label
_atom_site_fract_x
_atom_site_fract_y
_atom_site_fract_z
Si Si1 0.692266 0.513978 0.778098
Si Si2 0.101290 0.273605 0.722484
Si Si3 0.954293 0.625780 0.717488
Si Si4 0.787490 0.202801 0.717485
Si Si5 0.025396 0.079104 0.722040
Si Si6 0.097976 0.770200 0.276878
Si Si7 0.068600 0.654948 0.717415
O O1 0.738232 0.552149 0.724337
O O2 0.637066 0.536553 0.718268
O O3 0.699822 0.454365 0.721392
O O4 0.692574 0.513454 0.000000
O O5 0.103847 0.274416 0.500000
O O6 0.086741 0.331175 0.786130
O O7 0.154439 0.246900 0.787071
O O8 0.930958 0.569043 0.750000
O O9 0.956836 0.632071 0.500000
O O10 0.011845 0.638390 0.787992
O O11 0.755541 0.255541 0.750000
O O12 0.791394 0.195513 0.500000
O O13 0.846631 0.207570 0.785420
O O14 0.026552 0.078799 0.500000
O O15 0.063012 0.032783 0.778654
O O16 0.099252 0.771165 0.500000
O O17 0.089199 0.710654 0.216933
O O18 0.110370 0.610370 0.750000
O O19 0.063105 0.661317 0.500000
#
# Coordination Sequence:
#
# PCOD9564688 Si02
#       7
#    16  16  16  16  16  16  16
#     4   9  15  24  41  62  88 124 164 198 231 276
#     4   9  17  30  47  69  96 127 163 200 238 286
#     4  10  20  35  53  72  97 128 161 200 245 291
#     4  10  20  32  50  76 101 127 161 199 242 290
#     4   8  14  21  30  52  88 126 159 191 229 272
#     4   9  17  30  47  69  96 127 163 200 238 286
#     4  10  20  35  53  72  97 128 161 200 245 291
#
# _framework density 23.048148000000001
#
# number of rings (size 3 to 8) (size 9 to 14) (size 15 to 20)
#    0.000    2.714    1.429    1.286    2.000    0.857 
#    0.000    1.429    0.000    0.000    0.000    0.000 
#    0.000    0.000    0.000    0.000    0.000    1.429 
#
# Total GULP energy -625635.911419 kJ/mol
# GULP energy per Si atom -5586.034923 kJ/mol
# Density = 2.299569 g / cm^3
# Si number density = 23.048148 Si / 1000 Ang^3
#
#
#
# Elastic Constant Matrix: (Units=GPa)
#
#
# Indices 1 2 3 4 5 6 
#
# 1 48.6304 -25.0902 -3.6945 0.0000 0.0000 0.0000
# 2 -25.0902 48.6381 -3.6935 0.0000 0.0000 0.0000
# 3 -3.6945 -3.6935 90.8570 0.0000 0.0000 0.0000
# 4 0.0000 0.0000 0.0000 -0.8789 0.0000 0.0000
# 5 0.0000 0.0000 0.0000 0.0000 -0.8795 0.0000
# 6 0.0000 0.0000 0.0000 0.0000 0.0000 34.8106
#
#
#
# Elastic Compliance Matrix: (Units=1/GPa)
#
#
# Indices 1 2 3 4 5 6 
#
# 1 0.028296 0.014729 0.001749 0.000000 0.000000 0.000000
# 2 0.014729 0.028291 0.001749 0.000000 0.000000 0.000000
# 3 0.001749 0.001749 0.011149 0.000000 0.000000 0.000000
# 4 0.000000 0.000000 0.000000 -1.137727 0.000000 0.000000
# 5 0.000000 0.000000 0.000000 0.000000 -1.137063 0.000000
# 6 0.000000 0.000000 0.000000 0.000000 0.000000 0.028727
#
#
# Mechanical properties :
#
#
# Convention : Reuss Voigt Hill
#
# Bulk Modulus (GPa) = 9.59783 13.68545 11.64164
# Shear Modulus (GPa) = -2.29352 21.31734 9.51191
#
# Velocity S-wave (km/s) = -0.99863 3.04452 2.03370
# Velocity P-wave (km/s) = 1.68630 4.27896 3.25216
#
# Compressibility (1/GPa) = 0.10419017
#
# Stress axis : x y z
#
# Youngs Moduli (GPa) = 35.34128 35.34698 89.69780
#
# Poissons Ratio (x) = -0.52063 -0.15691
# Poissons Ratio (y) = -0.52055 -0.15688
# Poissons Ratio (z) = -0.06182 -0.06182
#
# Static dielectric constant tensor:
#      x y z
#    x 1.822490 0.000000 0.000000 
#    y 0.000000 1.822480 0.000000 
#    z 0.000000 0.000000 1.889970 
# 
# From -- ./inp_files/2996.got.cif
#   From: 2010.05.17/outbox.cif.g08.bks.cpg/sg128_2_cif.got.tgz:2996.got - 2010.05.20 12:07:25.
