data_PCOD9564824
_publ_section_title
;
Structure prediction by ZEFSAII (Michael W. Deem and Ramdas Pophale) SiO2 
 PCOD9564824
Probable space group: P 4/M N C
;
_chemical_formula_sum "Si O2"
_cell_formula_units_Z 64
_cell_length_a 13.852341
_cell_length_b 13.852341
_cell_length_c 16.914960
_cell_angle_alpha 90.000000
_cell_angle_beta 90.000000
_cell_angle_gamma 90.000000
_cell_volume 3245.766870
_symmetry_space_group_name_H-M "P 4/M N C"
_symmetry_group_IT_number 128
_symmetry_cell_setting 'tetragonal'
loop_
_space_group_symop_operation_xyz
x,y,z
-y,x,z
-x,-y,z
y,-x,z
1/2+x,1/2-y,1/2-z
1/2-x,1/2+y,1/2-z
1/2+y,1/2+x,1/2-z
1/2-y,1/2-x,1/2-z
-x,-y,-z
y,-x,-z
x,y,-z
-y,x,-z
1/2-x,1/2+y,1/2+z
1/2+x,1/2-y,1/2+z
1/2-y,1/2-x,1/2+z
1/2+y,1/2+x,1/2+z
loop_
_atom_site_type_symbol
_atom_site_label
_atom_site_fract_x
_atom_site_fract_y
_atom_site_fract_z
Si Si1 0.091087 0.132412 0.235953
Si Si2 0.519234 0.112212 0.093801
Si Si3 0.245680 0.339825 0.411675
Si Si4 0.349224 0.233319 0.167384
O O1 0.114325 0.194149 0.159087
O O2 0.153367 0.166120 0.310763
O O3 0.977082 0.128383 0.236033
O O4 0.632329 0.138236 0.102277
O O5 0.449994 0.186805 0.140372
O O6 0.500000 0.000000 0.117991
O O7 0.496746 0.118872 0.000000
O O8 0.268779 0.374788 0.500000
O O9 0.277396 0.228175 0.402438
O O10 0.318155 0.181846 0.250000
#
# Coordination Sequence:
#
# PCOD9564824 Si02
#       4
#    16  16  16  16
#     4  10  22  39  59  85 118 158 203 250 305 369
#     4  10  22  39  61  92 127 164 211 262 316 376
#     4  10  22  38  60  87 121 161 204 254 309 368
#     4  10  21  38  59  86 119 159 202 251 304 368
#
# _framework density 19.717988999999999
#
# number of rings (size 3 to 8) (size 9 to 14) (size 15 to 20)
#    0.000    2.000    0.000    2.250    7.000    1.500 
#    0.000    1.250    0.000    0.000    0.000   10.500 
#    0.000    0.000    0.000    0.000    0.000    0.000 
#
# Total GULP energy -356316.989297 kJ/mol
# GULP energy per Si atom -5567.452958 kJ/mol
# Density = 1.967311 g / cm^3
# Si number density = 19.717989 Si / 1000 Ang^3
#
#
#
# Elastic Constant Matrix: (Units=GPa)
#
#
# Indices 1 2 3 4 5 6 
#
# 1 86.9318 -34.0979 24.9939 0.0000 0.0000 0.0000
# 2 -34.0979 86.9309 24.9933 0.0000 0.0000 0.0000
# 3 24.9939 24.9933 61.2982 0.0000 0.0000 0.0000
# 4 0.0000 0.0000 0.0000 -3.6647 0.0000 0.0000
# 5 0.0000 0.0000 0.0000 0.0000 -3.6665 0.0000
# 6 0.0000 0.0000 0.0000 0.0000 0.0000 32.9574
#
#
#
# Elastic Compliance Matrix: (Units=1/GPa)
#
#
# Indices 1 2 3 4 5 6 
#
# 1 0.019539 0.011276 -0.012564 0.000000 0.000000 0.000000
# 2 0.011276 0.019539 -0.012564 0.000000 0.000000 0.000000
# 3 -0.012564 -0.012564 0.026560 0.000000 0.000000 0.000000
# 4 0.000000 0.000000 0.000000 -0.272871 0.000000 0.000000
# 5 0.000000 0.000000 0.000000 0.000000 -0.272741 0.000000
# 6 0.000000 0.000000 0.000000 0.000000 0.000000 0.030342
#
#
# Mechanical properties :
#
#
# Convention : Reuss Voigt Hill
#
# Bulk Modulus (GPa) = 26.36307 29.65995 28.01151
# Shear Modulus (GPa) = -12.21646 19.74335 3.76345
#
# Velocity S-wave (km/s) = -2.49179 3.16774 1.38303
# Velocity P-wave (km/s) = 2.26282 5.33425 4.09723
#
# Compressibility (1/GPa) = 0.03793185
#
# Stress axis : x y z
#
# Youngs Moduli (GPa) = 51.18073 51.18048 37.65118
#
# Poissons Ratio (x) = -0.57712 0.47306
# Poissons Ratio (y) = -0.57712 0.47306
# Poissons Ratio (z) = 0.64305 0.64305
#
# Static dielectric constant tensor:
#      x y z
#    x 1.770720 0.000000 0.000000 
#    y 0.000000 1.770720 0.000000 
#    z 0.000000 0.000000 1.709180 
# 
# From -- ./inp_files/3500.got.cif
#   From: 2010.05.17/outbox.cif.g08.bks.cpg/sg128_2_cif.got.tgz:3500.got - 2010.05.20 12:07:25.
