data_PCOD9564301
_publ_section_title
;
Structure prediction by ZEFSAII (Michael W. Deem and Ramdas Pophale) SiO2 
 PCOD9564301
Probable space group: P 4/M B M
;
_chemical_formula_sum "Si O2"
_cell_formula_units_Z 48
_cell_length_a 11.484529
_cell_length_b 11.484529
_cell_length_c 19.540688
_cell_angle_alpha 90.000000
_cell_angle_beta 90.000000
_cell_angle_gamma 90.000000
_cell_volume 2577.307443
_symmetry_space_group_name_H-M "P 4/M B M"
_symmetry_group_IT_number 127
_symmetry_cell_setting 'tetragonal'
loop_
_space_group_symop_operation_xyz
x,y,z
-y,x,z
-x,-y,z
y,-x,z
1/2+x,1/2-y,-z
1/2-x,1/2+y,-z
1/2+y,1/2+x,-z
1/2-y,1/2-x,-z
-x,-y,-z
y,-x,-z
x,y,-z
-y,x,-z
1/2-x,1/2+y,z
1/2+x,1/2-y,z
1/2-y,1/2-x,z
1/2+y,1/2+x,z
loop_
_atom_site_type_symbol
_atom_site_label
_atom_site_fract_x
_atom_site_fract_y
_atom_site_fract_z
Si Si1 0.097521 0.597521 0.240504
Si Si2 0.495989 0.807235 0.000000
Si Si3 0.309142 0.522527 0.853272
Si Si4 0.100295 0.600295 0.601620
Si Si5 0.805570 0.962891 0.500000
O O1 0.045642 0.704390 0.197923
O O2 0.125787 0.625787 0.319041
O O3 0.000000 0.500000 0.242904
O O4 0.517604 0.734820 0.068570
O O5 0.589496 0.910505 0.000000
O O6 0.368978 0.868978 0.000000
O O7 0.375076 0.401629 0.842146
O O8 0.056467 0.717663 0.563787
O O9 0.000000 0.500000 0.595341
O O10 0.910517 0.867879 0.500000
#
# Coordination Sequence:
#
# PCOD9564301 Si02
#       5
#     8   8  16   8   8
#     4  11  25  43  65  92 128 174 209 253 317 385
#     4  11  22  37  64  93 121 160 214 269 321 377
#     4  11  25  42  63  93 125 165 217 269 320 375
#     4  10  24  41  65  98 132 166 209 253 311 372
#     4  10  22  41  69  99 128 164 209 256 308 367
#
# _framework density 18.624085999999998
#
# number of rings (size 3 to 8) (size 9 to 14) (size 15 to 20)
#    0.000    1.333    1.667    3.000    9.333    5.333 
#    0.000    3.333    0.000    0.000    0.000    0.000 
#    0.000    0.000    0.000    0.000    0.000    0.000 
#
# Total GULP energy -268186.473940 kJ/mol
# GULP energy per Si atom -5587.218207 kJ/mol
# Density = 1.858170 g / cm^3
# Si number density = 18.624086 Si / 1000 Ang^3
#
#
#
# Elastic Constant Matrix: (Units=GPa)
#
#
# Indices 1 2 3 4 5 6 
#
# 1 62.1828 97.4720 64.6258 0.0000 0.0000 0.0000
# 2 97.4720 62.1831 64.6297 0.0000 0.0000 0.0000
# 3 64.6258 64.6297 182.0222 0.0000 0.0000 0.0000
# 4 0.0000 0.0000 0.0000 -44.1163 0.0000 0.0000
# 5 0.0000 0.0000 0.0000 0.0000 -44.1293 0.0000
# 6 0.0000 0.0000 0.0000 0.0000 0.0000 -10.8693
#
#
#
# Elastic Compliance Matrix: (Units=1/GPa)
#
#
# Indices 1 2 3 4 5 6 
#
# 1 -0.009773 0.018564 -0.003121 0.000000 0.000000 0.000000
# 2 0.018564 -0.009774 -0.003121 0.000000 0.000000 0.000000
# 3 -0.003121 -0.003121 0.007710 0.000000 0.000000 0.000000
# 4 0.000000 0.000000 0.000000 -0.022667 0.000000 0.000000
# 5 0.000000 0.000000 0.000000 0.000000 -0.022661 0.000000
# 6 0.000000 0.000000 0.000000 0.000000 0.000000 -0.092002
#
#
# Mechanical properties :
#
#
# Convention : Reuss Voigt Hill
#
# Bulk Modulus (GPa) = 78.08508 84.42702 81.25605
# Shear Modulus (GPa) = -29.49119 -14.51229 -22.00174
#
# Velocity S-wave (km/s) = -3.98364 -2.79448 -3.44082
# Velocity P-wave (km/s) = 4.56715 5.91764 5.28570
#
# Compressibility (1/GPa) = 0.01280654
#
# Stress axis : x y z
#
# Youngs Moduli (GPa) = -102.31975 -102.31328 129.69999
#
# Poissons Ratio (x) = 1.89933 0.40485
# Poissons Ratio (y) = 1.89945 0.40474
# Poissons Ratio (z) = -0.31938 -0.31928
#
# Static dielectric constant tensor:
#      x y z
#    x 1.628450 0.000000 0.000000 
#    y 0.000000 1.628450 0.000000 
#    z 0.000000 0.000000 1.708850 
# 
# From -- ./inp_files/4813.got.cif
#   From: 2010.05.17/outbox.cif.g08.bks.cpg/sg127_3_cif.got.tgz:4813.got - 2010.05.20 12:03:00.
