data_PCOD9564425
_publ_section_title
;
Structure prediction by ZEFSAII (Michael W. Deem and Ramdas Pophale) SiO2 
 PCOD9564425
Probable space group: P 4/M B M
;
_chemical_formula_sum "Si O2"
_cell_formula_units_Z 60
_cell_length_a 11.384330
_cell_length_b 11.384330
_cell_length_c 22.204990
_cell_angle_alpha 90.000000
_cell_angle_beta 90.000000
_cell_angle_gamma 90.000000
_cell_volume 2877.832643
_symmetry_space_group_name_H-M "P 4/M B M"
_symmetry_group_IT_number 127
_symmetry_cell_setting 'tetragonal'
loop_
_space_group_symop_operation_xyz
x,y,z
-y,x,z
-x,-y,z
y,-x,z
1/2+x,1/2-y,-z
1/2-x,1/2+y,-z
1/2+y,1/2+x,-z
1/2-y,1/2-x,-z
-x,-y,-z
y,-x,-z
x,y,-z
-y,x,-z
1/2-x,1/2+y,z
1/2+x,1/2-y,z
1/2-y,1/2-x,z
1/2+y,1/2+x,z
loop_
_atom_site_type_symbol
_atom_site_label
_atom_site_fract_x
_atom_site_fract_y
_atom_site_fract_z
Si Si1 0.611089 0.888912 0.000000
Si Si2 0.401179 0.098822 0.431869
Si Si3 0.523678 0.693654 0.654448
Si Si4 0.307726 0.516208 0.912666
Si Si5 0.305351 0.996871 0.785635
O O1 0.687897 0.959807 0.051964
O O2 0.367329 0.132672 0.500000
O O3 0.294320 0.045685 0.393844
O O4 0.500000 0.000000 0.435062
O O5 0.401245 0.626459 0.646958
O O6 0.521420 0.745212 0.721861
O O7 0.376655 0.396212 0.927869
O O8 0.281617 0.509150 0.841689
O O9 0.406113 0.093888 0.793728
O O10 0.370379 0.870379 0.785648
#
# Coordination Sequence:
#
# PCOD9564425 Si02
#       5
#     4   8  16  16  16
#     4  12  24  44  69  91 124 182 218 270 334 393
#     4  11  26  45  70 102 144 196 240 284 342 416
#     4  11  25  44  72 107 141 183 235 295 357 418
#     4  11  25  45  67  98 132 172 225 277 341 414
#     4  11  23  41  69 105 135 171 223 283 349 416
#
# _framework density 20.849025000000001
#
# number of rings (size 3 to 8) (size 9 to 14) (size 15 to 20)
#    0.000    0.933    2.667    3.200    5.600    6.400 
#    0.000    2.000    0.000    0.000    0.000    0.000 
#    0.000    0.000    0.000    0.000    0.000    0.000 
#
# Total GULP energy -334712.225079 kJ/mol
# GULP energy per Si atom -5578.537085 kJ/mol
# Density = 2.080157 g / cm^3
# Si number density = 20.849025 Si / 1000 Ang^3
#
#
#
# Elastic Constant Matrix: (Units=GPa)
#
#
# Indices 1 2 3 4 5 6 
#
# 1 102.0493 22.5848 46.2178 0.0000 0.0000 0.0000
# 2 22.5848 102.0486 46.2176 0.0000 0.0000 0.0000
# 3 46.2178 46.2176 191.5217 0.0000 0.0000 0.0000
# 4 0.0000 0.0000 0.0000 -35.8288 0.0000 0.0000
# 5 0.0000 0.0000 0.0000 0.0000 -35.8301 0.0000
# 6 0.0000 0.0000 0.0000 0.0000 0.0000 1.2573
#
#
#
# Elastic Compliance Matrix: (Units=1/GPa)
#
#
# Indices 1 2 3 4 5 6 
#
# 1 0.011178 -0.001406 -0.002358 0.000000 0.000000 0.000000
# 2 -0.001406 0.011178 -0.002358 0.000000 0.000000 0.000000
# 3 -0.002358 -0.002358 0.006360 0.000000 0.000000 0.000000
# 4 0.000000 0.000000 0.000000 -0.027911 0.000000 0.000000
# 5 0.000000 0.000000 0.000000 0.000000 -0.027909 0.000000
# 6 0.000000 0.000000 0.000000 0.000000 0.000000 0.795340
#
#
# Mechanical properties :
#
#
# Convention : Reuss Voigt Hill
#
# Bulk Modulus (GPa) = 60.71108 69.51778 65.11443
# Shear Modulus (GPa) = 6.36155 4.62631 5.49393
#
# Velocity S-wave (km/s) = 1.74868 1.49123 1.62506
# Velocity P-wave (km/s) = 5.76713 6.03165 5.90087
#
# Compressibility (1/GPa) = 0.01647146
#
# Stress axis : x y z
#
# Youngs Moduli (GPa) = 89.45837 89.45779 157.24404
#
# Poissons Ratio (x) = 0.12577 0.37083
# Poissons Ratio (y) = 0.12577 0.37083
# Poissons Ratio (z) = 0.21097 0.21097
#
# Static dielectric constant tensor:
#      x y z
#    x 1.737490 0.000000 0.000000 
#    y 0.000000 1.737490 0.000000 
#    z 0.000000 0.000000 1.724130 
# 
# From -- ./inp_files/5527.got.cif
#   From: 2010.05.17/outbox.cif.g08.bks.cpg/sg127_3_cif.got.tgz:5527.got - 2010.05.20 12:03:00.
