data_PCOD9564332
_publ_section_title
;
Structure prediction by ZEFSAII (Michael W. Deem and Ramdas Pophale) SiO2 
 PCOD9564332
Probable space group: P 4/M B M
;
_chemical_formula_sum "Si O2"
_cell_formula_units_Z 72
_cell_length_a 23.999718
_cell_length_b 23.999718
_cell_length_c 7.952756
_cell_angle_alpha 90.000000
_cell_angle_beta 90.000000
_cell_angle_gamma 90.000000
_cell_volume 4580.679808
_symmetry_space_group_name_H-M "P 4/M B M"
_symmetry_group_IT_number 127
_symmetry_cell_setting 'tetragonal'
loop_
_space_group_symop_operation_xyz
x,y,z
-y,x,z
-x,-y,z
y,-x,z
1/2+x,1/2-y,-z
1/2-x,1/2+y,-z
1/2+y,1/2+x,-z
1/2-y,1/2-x,-z
-x,-y,-z
y,-x,-z
x,y,-z
-y,x,-z
1/2-x,1/2+y,z
1/2+x,1/2-y,z
1/2-y,1/2-x,z
1/2+y,1/2+x,z
loop_
_atom_site_type_symbol
_atom_site_label
_atom_site_fract_x
_atom_site_fract_y
_atom_site_fract_z
Si Si1 0.191071 0.213075 0.805484
Si Si2 0.545594 0.954407 0.705895
Si Si3 0.698353 0.108447 0.202589
Si Si4 0.630306 0.779300 0.797041
Si Si5 0.330051 0.016051 0.700096
O O1 0.239234 0.260767 0.807734
O O2 0.137852 0.245049 0.731114
O O3 0.222598 0.159439 0.731762
O O4 0.177552 0.199555 0.000000
O O5 0.546129 0.953872 0.500000
O O6 0.607411 0.970941 0.764817
O O7 0.500000 0.000000 0.757701
O O8 0.645671 0.145671 0.262108
O O9 0.690538 0.044279 0.243850
O O10 0.699910 0.113851 0.000000
O O11 0.668414 0.831587 0.738312
O O12 0.566934 0.790441 0.751127
O O13 0.634580 0.778009 0.000000
O O14 0.333561 0.015380 0.500000
#
# Coordination Sequence:
#
# PCOD9564332 Si02
#       5
#    16   8  16  16  16
#     4   7  12  25  45  64  80 102 133 174 222 262
#     4   9  18  30  39  49  75 119 157 179 203 238
#     4   9  17  30  46  63  83 109 144 182 217 253
#     4   9  16  28  46  64  82 106 140 179 218 257
#     4  11  20  29  41  59  87 118 148 178 213 251
#
# _framework density 15.718192
#
# number of rings (size 3 to 8) (size 9 to 14) (size 15 to 20)
#    0.000    3.000    1.111    4.000    0.000    1.333 
#    0.000    1.111    0.000    6.667    0.000    0.000 
#    0.000    0.889    0.000   10.222    0.000    4.000 
#
# Total GULP energy -400866.307090 kJ/mol
# GULP energy per Si atom -5567.587598 kJ/mol
# Density = 1.568242 g / cm^3
# Si number density = 15.718192 Si / 1000 Ang^3
#
#
#
# Elastic Constant Matrix: (Units=GPa)
#
#
# Indices 1 2 3 4 5 6 
#
# 1 112.0769 100.0885 8.5484 0.0000 0.0000 0.0000
# 2 100.0885 112.0768 8.5484 0.0000 0.0000 0.0000
# 3 8.5484 8.5484 16.0434 0.0000 0.0000 0.0000
# 4 0.0000 0.0000 0.0000 2.0774 0.0000 0.0000
# 5 0.0000 0.0000 0.0000 0.0000 2.0776 0.0000
# 6 0.0000 0.0000 0.0000 0.0000 0.0000 26.8952
#
#
#
# Elastic Compliance Matrix: (Units=1/GPa)
#
#
# Indices 1 2 3 4 5 6 
#
# 1 0.044169 -0.039245 -0.002624 0.000000 0.000000 0.000000
# 2 -0.039245 0.044169 -0.002624 0.000000 0.000000 0.000000
# 3 -0.002624 -0.002624 0.065127 0.000000 0.000000 0.000000
# 4 0.000000 0.000000 0.000000 0.481370 0.000000 0.000000
# 5 0.000000 0.000000 0.000000 0.000000 0.481319 0.000000
# 6 0.000000 0.000000 0.000000 0.000000 0.000000 0.037181
#
#
# Mechanical properties :
#
#
# Convention : Reuss Voigt Hill
#
# Bulk Modulus (GPa) = 15.50859 52.72974 34.11917
# Shear Modulus (GPa) = 3.95627 14.41085 9.18356
#
# Velocity S-wave (km/s) = 1.58823 3.03120 2.41978
# Velocity P-wave (km/s) = 3.64024 6.77279 5.43700
#
# Compressibility (1/GPa) = 0.06448041
#
# Stress axis : x y z
#
# Youngs Moduli (GPa) = 22.64014 22.64011 15.35460
#
# Poissons Ratio (x) = 0.88850 0.04029
# Poissons Ratio (y) = 0.88850 0.04029
# Poissons Ratio (z) = 0.05941 0.05941
#
# Static dielectric constant tensor:
#      x y z
#    x 1.539670 0.000000 0.000000 
#    y 0.000000 1.539670 0.000000 
#    z 0.000000 0.000000 1.567040 
# 
# From -- ./inp_files/1727.got.cif
#   From: 2010.05.17/outbox.cif.g08.bks.cpg/sg127_1_cif.got.tgz:1727.got - 2010.05.20 12:03:00.
