data_PCOD9564945
_publ_section_title
;
Structure prediction by ZEFSAII (Michael W. Deem and Ramdas Pophale) SiO2 
 PCOD9564945
Probable space group: P 4/M N C
;
_chemical_formula_sum "Si O2"
_cell_formula_units_Z 48
_cell_length_a 13.304352
_cell_length_b 13.304352
_cell_length_c 11.268055
_cell_angle_alpha 90.000000
_cell_angle_beta 90.000000
_cell_angle_gamma 90.000000
_cell_volume 1994.510888
_symmetry_space_group_name_H-M "P 4/M N C"
_symmetry_group_IT_number 128
_symmetry_cell_setting 'tetragonal'
loop_
_space_group_symop_operation_xyz
x,y,z
-y,x,z
-x,-y,z
y,-x,z
1/2+x,1/2-y,1/2-z
1/2-x,1/2+y,1/2-z
1/2+y,1/2+x,1/2-z
1/2-y,1/2-x,1/2-z
-x,-y,-z
y,-x,-z
x,y,-z
-y,x,-z
1/2-x,1/2+y,1/2+z
1/2+x,1/2-y,1/2+z
1/2-y,1/2-x,1/2+z
1/2+y,1/2+x,1/2+z
loop_
_atom_site_type_symbol
_atom_site_label
_atom_site_fract_x
_atom_site_fract_y
_atom_site_fract_z
Si Si1 0.001144 0.831739 0.757066
Si Si2 0.183514 0.622236 0.872331
Si Si3 0.954098 0.631445 0.128879
O O1 0.030554 0.760092 0.646316
O O2 0.905523 0.903486 0.759591
O O3 0.983338 0.749694 0.858839
O O4 0.187332 0.687332 0.750000
O O5 0.067483 0.585286 0.873532
O O6 0.202612 0.671735 0.000000
O O7 0.896351 0.603650 0.250000
O O8 0.905916 0.615347 0.000000
#
# Coordination Sequence:
#
# PCOD9564945 Si02
#       3
#    16  16  16
#     4  10  23  43  66  98 141 184 227 283 351 418
#     4   9  20  40  64  92 128 171 222 278 337 404
#     4  10  23  44  70 101 136 178 229 286 348 414
#
# _framework density 24.066051999999999
#
# number of rings (size 3 to 8) (size 9 to 14) (size 15 to 20)
#    0.000    2.333    0.000    0.000    0.000   18.000 
#    0.000   31.667    0.000    0.000    0.000    0.000 
#    0.000    0.000    0.000    0.000    0.000    0.000 
#
# Total GULP energy -267323.413409 kJ/mol
# GULP energy per Si atom -5569.237779 kJ/mol
# Density = 2.401128 g / cm^3
# Si number density = 24.066052 Si / 1000 Ang^3
#
#
#
# Elastic Constant Matrix: (Units=GPa)
#
#
# Indices 1 2 3 4 5 6 
#
# 1 117.7942 59.2158 57.4172 0.0000 0.0000 0.0000
# 2 59.2158 117.7917 57.4170 0.0000 0.0000 0.0000
# 3 57.4172 57.4170 252.2813 0.0000 0.0000 0.0000
# 4 0.0000 0.0000 0.0000 11.0230 0.0000 0.0000
# 5 0.0000 0.0000 0.0000 0.0000 11.0230 0.0000
# 6 0.0000 0.0000 0.0000 0.0000 0.0000 29.4991
#
#
#
# Elastic Compliance Matrix: (Units=1/GPa)
#
#
# Indices 1 2 3 4 5 6 
#
# 1 0.011850 -0.005222 -0.001508 0.000000 0.000000 0.000000
# 2 -0.005222 0.011850 -0.001509 0.000000 0.000000 0.000000
# 3 -0.001508 -0.001509 0.004650 0.000000 0.000000 0.000000
# 4 0.000000 0.000000 0.000000 0.090719 0.000000 0.000000
# 5 0.000000 0.000000 0.000000 0.000000 0.090720 0.000000
# 6 0.000000 0.000000 0.000000 0.000000 0.000000 0.033899
#
#
# Mechanical properties :
#
#
# Convention : Reuss Voigt Hill
#
# Bulk Modulus (GPa) = 84.22728 92.88524 88.55626
# Shear Modulus (GPa) = 18.93054 31.23016 25.08035
#
# Velocity S-wave (km/s) = 2.80770 3.60625 3.23173
# Velocity P-wave (km/s) = 6.75168 7.48464 7.12759
#
# Compressibility (1/GPa) = 0.01187264
#
# Stress axis : x y z
#
# Youngs Moduli (GPa) = 84.39070 84.38870 215.03202
#
# Poissons Ratio (x) = 0.44065 0.32437
# Poissons Ratio (y) = 0.44066 0.32438
# Poissons Ratio (z) = 0.12730 0.12730
#
# Static dielectric constant tensor:
#      x y z
#    x 2.027340 0.000000 0.000000 
#    y 0.000000 2.027340 0.000000 
#    z 0.000000 0.000000 1.965120 
# 
# From -- ./inp_files/2224.got.cif
#   From: 2010.05.17/outbox.cif.g08.bks.cpg/sg128_2_cif.got.tgz:2224.got - 2010.05.20 12:07:25.
