data_PCOD9564206
_publ_section_title
;
Structure prediction by ZEFSAII (Michael W. Deem and Ramdas Pophale) SiO2 
 PCOD9564206
Probable space group: P 4/M B M
;
_chemical_formula_sum "Si O2"
_cell_formula_units_Z 88
_cell_length_a 13.486710
_cell_length_b 13.486710
_cell_length_c 26.342841
_cell_angle_alpha 90.000000
_cell_angle_beta 90.000000
_cell_angle_gamma 90.000000
_cell_volume 4791.534823
_symmetry_space_group_name_H-M "P 4/M B M"
_symmetry_group_IT_number 127
_symmetry_cell_setting 'tetragonal'
loop_
_space_group_symop_operation_xyz
x,y,z
-y,x,z
-x,-y,z
y,-x,z
1/2+x,1/2-y,-z
1/2-x,1/2+y,-z
1/2+y,1/2+x,-z
1/2-y,1/2-x,-z
-x,-y,-z
y,-x,-z
x,y,-z
-y,x,-z
1/2-x,1/2+y,z
1/2+x,1/2-y,z
1/2-y,1/2-x,z
1/2+y,1/2+x,z
loop_
_atom_site_type_symbol
_atom_site_label
_atom_site_fract_x
_atom_site_fract_y
_atom_site_fract_z
Si Si1 0.714124 0.618297 0.556707
Si Si2 0.833530 0.498955 0.000000
Si Si3 0.335010 0.495332 0.917090
Si Si4 0.756703 0.423571 0.610758
Si Si5 0.990517 0.835274 0.796990
Si Si6 0.498303 0.834547 0.284474
O O1 0.669776 0.617891 0.500000
O O2 0.802195 0.697806 0.556901
O O3 0.757714 0.512813 0.571209
O O4 0.636215 0.656235 0.598683
O O5 0.761542 0.504167 0.048527
O O6 0.909651 0.590350 0.000000
O O7 0.899388 0.399388 0.000000
O O8 0.407186 0.401858 0.927690
O O9 0.312272 0.491844 0.857068
O O10 0.846942 0.346942 0.602844
O O11 0.771186 0.469295 0.666425
O O12 0.984690 0.738786 0.762517
O O13 0.090233 0.898901 0.786773
O O14 0.399812 0.899812 0.294803
O O15 0.586390 0.913611 0.274773
#
# Coordination Sequence:
#
# PCOD9564206 Si02
#       6
#    16   8  16  16  16  16
#     4  10  21  37  59  85 111 145 189 232 278 338
#     4  11  24  37  52  82 122 157 194 245 294 340
#     4   9  19  38  61  84 112 151 196 242 288 342
#     4  10  22  39  57  81 116 150 184 233 285 338
#     4   9  20  38  60  87 118 149 189 238 289 343
#     4  10  22  38  57  83 114 152 194 231 277 341
#
# _framework density 18.365724
#
# number of rings (size 3 to 8) (size 9 to 14) (size 15 to 20)
#    0.000    2.273    0.000    2.727    2.545    6.909 
#    0.000    7.273    0.000    0.000    0.000    0.000 
#    0.000    0.000    0.000    0.000    0.000    0.000 
#
# Total GULP energy -491087.245161 kJ/mol
# GULP energy per Si atom -5580.536877 kJ/mol
# Density = 1.832392 g / cm^3
# Si number density = 18.365724 Si / 1000 Ang^3
#
#
#
# Elastic Constant Matrix: (Units=GPa)
#
#
# Indices 1 2 3 4 5 6 
#
# 1 87.4644 18.5657 54.0745 0.0000 0.0000 0.0000
# 2 18.5657 87.4656 54.0751 0.0000 0.0000 0.0000
# 3 54.0745 54.0751 76.6282 0.0000 0.0000 0.0000
# 4 0.0000 0.0000 0.0000 28.3612 0.0000 0.0000
# 5 0.0000 0.0000 0.0000 0.0000 28.3561 0.0000
# 6 0.0000 0.0000 0.0000 0.0000 0.0000 7.1765
#
#
#
# Elastic Compliance Matrix: (Units=1/GPa)
#
#
# Indices 1 2 3 4 5 6 
#
# 1 0.024085 0.009571 -0.023751 0.000000 0.000000 0.000000
# 2 0.009571 0.024085 -0.023751 0.000000 0.000000 0.000000
# 3 -0.023751 -0.023751 0.046570 0.000000 0.000000 0.000000
# 4 0.000000 0.000000 0.000000 0.035259 0.000000 0.000000
# 5 0.000000 0.000000 0.000000 0.000000 0.035266 0.000000
# 6 0.000000 0.000000 0.000000 0.000000 0.000000 0.139343
#
#
# Mechanical properties :
#
#
# Convention : Reuss Voigt Hill
#
# Bulk Modulus (GPa) = 52.96316 56.10988 54.53652
# Shear Modulus (GPa) = 12.92784 21.10162 17.01473
#
# Velocity S-wave (km/s) = 2.65601 3.39332 3.04705
# Velocity P-wave (km/s) = 6.18923 6.78016 6.49142
#
# Compressibility (1/GPa) = 0.01888105
#
# Stress axis : x y z
#
# Youngs Moduli (GPa) = 41.51919 41.51950 21.47284
#
# Poissons Ratio (x) = -0.39739 0.50999
# Poissons Ratio (y) = -0.39739 0.50999
# Poissons Ratio (z) = 0.98610 0.98611
#
# Static dielectric constant tensor:
#      x y z
#    x 1.619870 0.000000 0.000000 
#    y 0.000000 1.619870 0.000000 
#    z 0.000000 0.000000 1.625560 
# 
# From -- ./inp_files/6547.got.cif
#   From: 2010.05.17/outbox.cif.g08.bks.cpg/sg127_4_cif.got.tgz:6547.got - 2010.05.20 12:03:00.
