data_PCOD9564441
_publ_section_title
;
Structure prediction by ZEFSAII (Michael W. Deem and Ramdas Pophale) SiO2 
 PCOD9564441
Probable space group: P 4/M B M
;
_chemical_formula_sum "Si O2"
_cell_formula_units_Z 84
_cell_length_a 12.121745
_cell_length_b 12.121745
_cell_length_c 26.645482
_cell_angle_alpha 90.000000
_cell_angle_beta 90.000000
_cell_angle_gamma 90.000000
_cell_volume 3915.199244
_symmetry_space_group_name_H-M "P 4/M B M"
_symmetry_group_IT_number 127
_symmetry_cell_setting 'tetragonal'
loop_
_space_group_symop_operation_xyz
x,y,z
-y,x,z
-x,-y,z
y,-x,z
1/2+x,1/2-y,-z
1/2-x,1/2+y,-z
1/2+y,1/2+x,-z
1/2-y,1/2-x,-z
-x,-y,-z
y,-x,-z
x,y,-z
-y,x,-z
1/2-x,1/2+y,z
1/2+x,1/2-y,z
1/2-y,1/2-x,z
1/2+y,1/2+x,z
loop_
_atom_site_type_symbol
_atom_site_label
_atom_site_fract_x
_atom_site_fract_y
_atom_site_fract_z
Si Si1 0.948854 0.179469 0.000000
Si Si2 0.319998 0.458135 0.695059
Si Si3 0.051971 0.820311 0.889634
Si Si4 0.661460 0.161460 0.229665
Si Si5 0.500000 0.000000 0.792956
Si Si6 0.335325 0.164675 0.188856
Si Si7 0.820522 0.497008 0.598764
Si Si8 0.533904 0.682571 0.500000
O O1 0.933592 0.231818 0.054617
O O2 0.072542 0.130394 0.000000
O O3 0.420870 0.372573 0.700880
O O4 0.229378 0.422178 0.735087
O O5 0.263410 0.458636 0.640536
O O6 0.085060 0.735986 0.846983
O O7 0.928081 0.868604 0.885507
O O8 0.591054 0.091054 0.189336
O O9 0.749190 0.249190 0.210664
O O10 0.590340 0.909660 0.774182
O O11 0.905323 0.594678 0.585218
O O12 0.755687 0.458001 0.549749
O O13 0.895922 0.395922 0.618776
O O14 0.414324 0.623762 0.500000
#
# Coordination Sequence:
#
# PCOD9564441 Si02
#       8
#     8  16  16   8   4   8  16   8
#     4   7  12  27  52  85 118 162 212 261 312 378
#     4  11  25  43  67  98 126 162 217 270 324 398
#     4   9  18  34  59  87 124 166 215 265 319 389
#     4  12  26  46  69  89 126 171 215 276 347 394
#     4  12  28  44  66  93 128 161 220 274 330 418
#     4  12  24  41  62  94 125 171 213 270 340 400
#     4  11  24  41  66  98 131 172 218 265 322 396
#     4  11  24  41  62  94 138 179 218 266 318 376
#
# _framework density 21.454846
#
# number of rings (size 3 to 8) (size 9 to 14) (size 15 to 20)
#    0.000    1.524    0.952    5.143    2.667    5.714 
#    0.000    1.905    0.000    2.286    0.000    0.000 
#    0.000    0.000    0.000    0.000    0.000    0.000 
#
# Total GULP energy -468526.332095 kJ/mol
# GULP energy per Si atom -5577.694430 kJ/mol
# Density = 2.140601 g / cm^3
# Si number density = 21.454846 Si / 1000 Ang^3
#
#
#
# Elastic Constant Matrix: (Units=GPa)
#
#
# Indices 1 2 3 4 5 6 
#
# 1 94.7668 52.2784 31.1226 0.0000 0.0000 0.0000
# 2 52.2784 94.7668 31.1226 0.0000 0.0000 0.0000
# 3 31.1226 31.1226 74.6773 0.0000 0.0000 0.0000
# 4 0.0000 0.0000 0.0000 36.4223 0.0000 0.0000
# 5 0.0000 0.0000 0.0000 0.0000 36.4223 0.0000
# 6 0.0000 0.0000 0.0000 0.0000 0.0000 32.9992
#
#
#
# Elastic Compliance Matrix: (Units=1/GPa)
#
#
# Indices 1 2 3 4 5 6 
#
# 1 0.015897 -0.007639 -0.003441 0.000000 0.000000 0.000000
# 2 -0.007639 0.015897 -0.003441 0.000000 0.000000 0.000000
# 3 -0.003441 -0.003441 0.016259 0.000000 0.000000 0.000000
# 4 0.000000 0.000000 0.000000 0.027456 0.000000 0.000000
# 5 0.000000 0.000000 0.000000 0.000000 0.027456 0.000000
# 6 0.000000 0.000000 0.000000 0.000000 0.000000 0.030304
#
#
# Mechanical properties :
#
#
# Convention : Reuss Voigt Hill
#
# Bulk Modulus (GPa) = 52.60739 54.80645 53.70692
# Shear Modulus (GPa) = 29.64758 31.14792 30.39775
#
# Velocity S-wave (km/s) = 3.72137 3.81437 3.76816
# Velocity P-wave (km/s) = 6.56034 6.70818 6.63467
#
# Compressibility (1/GPa) = 0.01900874
#
# Stress axis : x y z
#
# Youngs Moduli (GPa) = 62.90657 62.90657 61.50294
#
# Poissons Ratio (x) = 0.48056 0.21165
# Poissons Ratio (y) = 0.48056 0.21165
# Poissons Ratio (z) = 0.21648 0.21648
#
# Static dielectric constant tensor:
#      x y z
#    x 1.785590 0.000000 0.000000 
#    y 0.000000 1.785590 0.000000 
#    z 0.000000 0.000000 1.774690 
# 
# From -- ./inp_files/6625.got.cif
#   From: 2010.05.17/outbox.cif.g08.bks.cpg/sg127_4_cif.got.tgz:6625.got - 2010.05.20 12:03:00.
