data_PCOD9564112
_publ_section_title
;
Structure prediction by ZEFSAII (Michael W. Deem and Ramdas Pophale) SiO2 
 PCOD9564112
Probable space group: P 4/M B M
;
_chemical_formula_sum "Si O2"
_cell_formula_units_Z 72
_cell_length_a 22.683269
_cell_length_b 22.683269
_cell_length_c 7.560886
_cell_angle_alpha 90.000000
_cell_angle_beta 90.000000
_cell_angle_gamma 90.000000
_cell_volume 3890.307910
_symmetry_space_group_name_H-M "P 4/M B M"
_symmetry_group_IT_number 127
_symmetry_cell_setting 'tetragonal'
loop_
_space_group_symop_operation_xyz
x,y,z
-y,x,z
-x,-y,z
y,-x,z
1/2+x,1/2-y,-z
1/2-x,1/2+y,-z
1/2+y,1/2+x,-z
1/2-y,1/2-x,-z
-x,-y,-z
y,-x,-z
x,y,-z
-y,x,-z
1/2-x,1/2+y,z
1/2+x,1/2-y,z
1/2-y,1/2-x,z
1/2+y,1/2+x,z
loop_
_atom_site_type_symbol
_atom_site_label
_atom_site_fract_x
_atom_site_fract_y
_atom_site_fract_z
Si Si1 0.871797 0.109900 0.706555
Si Si2 0.900732 0.499271 0.500000
Si Si3 0.254226 0.847488 0.213578
Si Si4 0.807007 0.526293 0.794849
Si Si5 0.985954 0.178780 0.284029
O O1 0.884708 0.100310 0.500000
O O2 0.812550 0.148281 0.722482
O O3 0.928417 0.143789 0.778662
O O4 0.854156 0.045577 0.778494
O O5 0.941413 0.441413 0.500000
O O6 0.858171 0.502823 0.669763
O O7 0.944888 0.555113 0.500000
O O8 0.291458 0.791458 0.274103
O O9 0.288059 0.907634 0.264816
O O10 0.252558 0.847373 0.000000
O O11 0.746350 0.489538 0.777504
O O12 0.824938 0.528629 0.000000
O O13 0.986667 0.180659 0.500000
#
# Coordination Sequence:
#
# PCOD9564112 Si02
#       5
#    16   8  16  16  16
#     4   9  18  30  50  77 108 147 186 227 276 329
#     4  11  24  40  60  86 114 143 180 230 278 333
#     4   9  18  32  51  77 105 134 179 234 280 326
#     4  10  20  37  60  83 111 148 184 225 280 333
#     4   9  17  33  53  79 113 149 189 231 277 328
#
# _framework density 18.507532999999999
#
# number of rings (size 3 to 8) (size 9 to 14) (size 15 to 20)
#    0.000    2.556    1.111    0.667    1.556    3.556 
#    0.000    4.444    0.000    0.000    0.000    6.222 
#    0.000    0.000    0.000    0.000    0.000    0.000 
#
# Total GULP energy -401719.269292 kJ/mol
# GULP energy per Si atom -5579.434296 kJ/mol
# Density = 1.846541 g / cm^3
# Si number density = 18.507533 Si / 1000 Ang^3
#
#
#
# Elastic Constant Matrix: (Units=GPa)
#
#
# Indices 1 2 3 4 5 6 
#
# 1 123.4458 99.4651 23.1635 0.0000 0.0000 0.0000
# 2 99.4651 123.4466 23.1646 0.0000 0.0000 0.0000
# 3 23.1635 23.1646 67.2368 0.0000 0.0000 0.0000
# 4 0.0000 0.0000 0.0000 -6.5849 0.0000 0.0000
# 5 0.0000 0.0000 0.0000 0.0000 -6.5839 0.0000
# 6 0.0000 0.0000 0.0000 0.0000 0.0000 30.4612
#
#
#
# Elastic Compliance Matrix: (Units=1/GPa)
#
#
# Indices 1 2 3 4 5 6 
#
# 1 0.023266 -0.018434 -0.001664 0.000000 0.000000 0.000000
# 2 -0.018434 0.023266 -0.001665 0.000000 0.000000 0.000000
# 3 -0.001664 -0.001665 0.016020 0.000000 0.000000 0.000000
# 4 0.000000 0.000000 0.000000 -0.151862 0.000000 0.000000
# 5 0.000000 0.000000 0.000000 0.000000 -0.151886 0.000000
# 6 0.000000 0.000000 0.000000 0.000000 0.000000 0.032829
#
#
# Mechanical properties :
#
#
# Convention : Reuss Voigt Hill
#
# Bulk Modulus (GPa) = 52.56209 67.30173 59.93191
# Shear Modulus (GPa) = -31.54579 14.68087 -8.43246
#
# Velocity S-wave (km/s) = -4.13302 2.81950 -2.13685
# Velocity P-wave (km/s) = 2.38458 6.85878 5.13464
#
# Compressibility (1/GPa) = 0.01902512
#
# Stress axis : x y z
#
# Youngs Moduli (GPa) = 42.98157 42.98160 62.42255
#
# Poissons Ratio (x) = 0.79231 0.10390
# Poissons Ratio (y) = 0.79231 0.10394
# Poissons Ratio (z) = 0.07154 0.07157
#
# Static dielectric constant tensor:
#      x y z
#    x 1.621430 0.000000 0.000000 
#    y 0.000000 1.621430 0.000000 
#    z 0.000000 0.000000 1.688100 
# 
# From -- ./inp_files/1556.got.cif
#   From: 2010.05.17/outbox.cif.g08.bks.cpg/sg127_1_cif.got.tgz:1556.got - 2010.05.20 12:03:00.
