data_PCOD9564727
_publ_section_title
;
Structure prediction by ZEFSAII (Michael W. Deem and Ramdas Pophale) SiO2 
 PCOD9564727
Probable space group: P 4/M N C
;
_chemical_formula_sum "Si O2"
_cell_formula_units_Z 104
_cell_length_a 27.074035
_cell_length_b 27.074035
_cell_length_c 8.247707
_cell_angle_alpha 90.000000
_cell_angle_beta 90.000000
_cell_angle_gamma 90.000000
_cell_volume 6045.597036
_symmetry_space_group_name_H-M "P 4/M N C"
_symmetry_group_IT_number 128
_symmetry_cell_setting 'tetragonal'
loop_
_space_group_symop_operation_xyz
x,y,z
-y,x,z
-x,-y,z
y,-x,z
1/2+x,1/2-y,1/2-z
1/2-x,1/2+y,1/2-z
1/2+y,1/2+x,1/2-z
1/2-y,1/2-x,1/2-z
-x,-y,-z
y,-x,-z
x,y,-z
-y,x,-z
1/2-x,1/2+y,1/2+z
1/2+x,1/2-y,1/2+z
1/2-y,1/2-x,1/2+z
1/2+y,1/2+x,1/2+z
loop_
_atom_site_type_symbol
_atom_site_label
_atom_site_fract_x
_atom_site_fract_y
_atom_site_fract_z
Si Si1 0.861689 0.716327 0.810101
Si Si2 0.998540 0.421445 0.807049
Si Si3 0.424953 0.368359 0.683024
Si Si4 0.571804 0.459499 0.000000
Si Si5 0.496452 0.289712 0.805064
Si Si6 0.682706 0.034478 0.307379
Si Si7 0.677891 0.607353 0.809312
O O1 0.815878 0.684123 0.750000
O O2 0.912176 0.686037 0.776874
O O3 0.868630 0.768760 0.721854
O O4 0.857278 0.725667 0.000000
O O5 0.948953 0.448953 0.750000
O O6 0.043534 0.456467 0.750000
O O7 0.006594 0.367206 0.736531
O O8 0.999151 0.419319 0.000000
O O9 0.436178 0.385953 0.500000
O O10 0.452403 0.316423 0.712299
O O11 0.366033 0.368294 0.708360
O O12 0.444454 0.401229 0.833473
O O13 0.565349 0.518230 0.000000
O O14 0.504583 0.232327 0.763213
O O15 0.549039 0.316165 0.768650
O O16 0.488661 0.293649 0.000000
O O17 0.685003 0.043406 0.500000
O O18 0.666007 0.610798 0.000000
#
# Coordination Sequence:
#
# PCOD9564727 Si02
#       7
#    16  16  16   8  16  16  16
#     4  11  21  34  53  81 113 144 182 226 280 336
#     4  11  21  34  52  76 109 146 186 226 272 332
#     4  12  23  36  59  84 110 148 192 234 281 342
#     4  11  24  40  56  78 114 150 184 233 286 334
#     4   9  19  36  57  79 107 143 180 227 280 331
#     4  10  20  35  55  79 109 145 183 226 280 329
#     4  10  20  37  58  80 110 145 183 228 283 333
#
# _framework density 17.202601999999999
#
# number of rings (size 3 to 8) (size 9 to 14) (size 15 to 20)
#    0.000    1.462    1.538    6.462    0.000    5.538 
#    0.000    0.769    0.000    0.923    0.000    2.154 
#    0.000    0.000    0.000    0.000    0.000    0.000 
#
# Total GULP energy -580870.894701 kJ/mol
# GULP energy per Si atom -5585.297064 kJ/mol
# Density = 1.716345 g / cm^3
# Si number density = 17.202602 Si / 1000 Ang^3
#
#
#
# Elastic Constant Matrix: (Units=GPa)
#
#
# Indices 1 2 3 4 5 6 
#
# 1 104.2959 33.1731 21.5538 0.0000 0.0000 0.0000
# 2 33.1731 104.2234 21.5101 0.0000 0.0000 0.0000
# 3 21.5538 21.5101 81.5108 0.0000 0.0000 0.0000
# 4 0.0000 0.0000 0.0000 19.5476 0.0000 0.0000
# 5 0.0000 0.0000 0.0000 0.0000 19.5475 0.0000
# 6 0.0000 0.0000 0.0000 0.0000 0.0000 0.5385
#
#
#
# Elastic Compliance Matrix: (Units=1/GPa)
#
#
# Indices 1 2 3 4 5 6 
#
# 1 0.010997 -0.003067 -0.002099 0.000000 0.000000 0.000000
# 2 -0.003067 0.011003 -0.002093 0.000000 0.000000 0.000000
# 3 -0.002099 -0.002093 0.013375 0.000000 0.000000 0.000000
# 4 0.000000 0.000000 0.000000 0.051157 0.000000 0.000000
# 5 0.000000 0.000000 0.000000 0.000000 0.051157 0.000000
# 6 0.000000 0.000000 0.000000 0.000000 0.000000 1.857075
#
#
# Mechanical properties :
#
#
# Convention : Reuss Voigt Hill
#
# Bulk Modulus (GPa) = 47.94087 49.16712 48.55400
# Shear Modulus (GPa) = 2.47987 22.17959 12.32973
#
# Velocity S-wave (km/s) = 1.20196 3.59460 2.68010
# Velocity P-wave (km/s) = 5.46399 6.77285 6.15332
#
# Compressibility (1/GPa) = 0.02085903
#
# Stress axis : x y z
#
# Youngs Moduli (GPa) = 90.93077 90.88519 74.76387
#
# Poissons Ratio (x) = 0.27876 0.15690
# Poissons Ratio (y) = 0.27890 0.15645
# Poissons Ratio (z) = 0.19083 0.19018
#
# Static dielectric constant tensor:
#      x y z
#    x 1.584460 0.000000 0.000000 
#    y 0.000000 1.584460 0.000000 
#    z 0.000000 0.000000 1.593460 
# 
# From -- ./inp_files/1728.got.cif
#   From: 2010.05.17/outbox.cif.g08.bks.cpg/sg128_1_cif.got.tgz:1728.got - 2010.05.20 12:07:25.
