data_PCOD9564494
_publ_section_title
;
Structure prediction by ZEFSAII (Michael W. Deem and Ramdas Pophale) SiO2 
 PCOD9564494
Probable space group: P 4/M B M
;
_chemical_formula_sum "Si O2"
_cell_formula_units_Z 96
_cell_length_a 21.000000
_cell_length_b 21.000000
_cell_length_c 12.000000
_cell_angle_alpha 90.000000
_cell_angle_beta 90.000000
_cell_angle_gamma 90.000000
_cell_volume 5292.000000
_symmetry_space_group_name_H-M "P 4/M B M"
_symmetry_group_IT_number 127
_symmetry_cell_setting 'tetragonal'
loop_
_space_group_symop_operation_xyz
x,y,z
-y,x,z
-x,-y,z
y,-x,z
1/2+x,1/2-y,-z
1/2-x,1/2+y,-z
1/2+y,1/2+x,-z
1/2-y,1/2-x,-z
-x,-y,-z
y,-x,-z
x,y,-z
-y,x,-z
1/2-x,1/2+y,z
1/2+x,1/2-y,z
1/2-y,1/2-x,z
1/2+y,1/2+x,z
loop_
_atom_site_type_symbol
_atom_site_label
_atom_site_fract_x
_atom_site_fract_y
_atom_site_fract_z
Si Si1 0.609380 0.109380 0.143248
Si Si2 0.464260 0.144526 0.794473
Si Si3 0.613139 0.777767 0.630274
Si Si4 0.680637 0.180637 0.360479
Si Si5 0.910711 0.058485 0.367494
Si Si6 0.842065 0.818590 0.257687
Si Si7 0.400650 0.207524 0.000000
Si Si8 0.189243 0.201190 0.000000
O O1 0.535560 0.124655 0.172123
O O2 0.645612 0.145612 0.250298
O O3 0.619575 0.119575 0.000000
O O4 0.417736 0.082265 0.793848
O O5 0.447831 0.184835 0.682457
O O6 0.440654 0.191433 0.891658
O O7 0.603555 0.759460 0.500000
O O8 0.670517 0.829484 0.634351
O O9 0.637061 0.718702 0.706363
O O10 0.669271 0.169271 0.500000
O O11 0.754734 0.165938 0.332469
O O12 0.897602 0.067343 0.500000
O O13 0.858734 0.095968 0.294838
O O14 0.982343 0.085472 0.346768
O O15 0.842545 0.799124 0.124953
O O16 0.366504 0.274627 0.000000
O O17 0.342790 0.157211 0.000000
O O18 0.239985 0.260016 0.000000
#
# Coordination Sequence:
#
# PCOD9564494 Si02
#       8
#     8  16  16   8  16  16   8   8
#     4  12  27  42  60  88 132 176 209 253 314 381
#     4  10  20  37  61  90 120 164 217 263 304 359
#     4  10  19  33  58  93 124 156 209 269 314 362
#     4  12  28  45  63  91 128 167 209 258 317 382
#     4   9  20  41  67  94 124 160 206 258 313 377
#     4  12  22  39  68  94 123 164 207 257 318 383
#     4   9  16  31  56  88 121 149 204 265 307 344
#     4  11  20  36  61  96 128 163 202 262 323 368
#
# _framework density 18.14059
#
# number of rings (size 3 to 8) (size 9 to 14) (size 15 to 20)
#    0.000    1.500    4.167    2.250    1.167    2.333 
#    0.000    0.833    0.000    3.500    0.000    0.000 
#    0.000    0.000    0.000    0.000    0.000    0.000 
#
# Total GULP energy -534531.368729 kJ/mol
# GULP energy per Si atom -5568.035091 kJ/mol
# Density = 1.809930 g / cm^3
# Si number density = 18.140590 Si / 1000 Ang^3
#
#
#
# Elastic Constant Matrix: (Units=GPa)
#
#
# Indices 1 2 3 4 5 6 
#
# 1 56.5406 31.3808 30.8945 0.0000 0.0000 0.0000
# 2 31.3808 56.5404 30.8945 0.0000 0.0000 0.0000
# 3 30.8945 30.8945 147.2423 0.0000 0.0000 0.0000
# 4 0.0000 0.0000 0.0000 43.6776 0.0000 0.0000
# 5 0.0000 0.0000 0.0000 0.0000 43.6750 0.0000
# 6 0.0000 0.0000 0.0000 0.0000 0.0000 30.7514
#
#
#
# Elastic Compliance Matrix: (Units=1/GPa)
#
#
# Indices 1 2 3 4 5 6 
#
# 1 0.026544 -0.013203 -0.002799 0.000000 0.000000 0.000000
# 2 -0.013203 0.026544 -0.002799 0.000000 0.000000 0.000000
# 3 -0.002799 -0.002799 0.007966 0.000000 0.000000 0.000000
# 4 0.000000 0.000000 0.000000 0.022895 0.000000 0.000000
# 5 0.000000 0.000000 0.000000 0.000000 0.022896 0.000000
# 6 0.000000 0.000000 0.000000 0.000000 0.000000 0.032519
#
#
# Mechanical properties :
#
#
# Convention : Reuss Voigt Hill
#
# Bulk Modulus (GPa) = 42.64145 49.62923 46.13534
# Shear Modulus (GPa) = 27.05878 34.76436 30.91157
#
# Velocity S-wave (km/s) = 3.86633 4.38240 4.13243
# Velocity P-wave (km/s) = 6.59458 7.28181 6.94670
#
# Compressibility (1/GPa) = 0.02345136
#
# Stress axis : x y z
#
# Youngs Moduli (GPa) = 37.67392 37.67377 125.53038
#
# Poissons Ratio (x) = 0.49739 0.35139
# Poissons Ratio (y) = 0.49739 0.35139
# Poissons Ratio (z) = 0.10546 0.10546
#
# Static dielectric constant tensor:
#      x y z
#    x 1.637730 0.000000 0.000000 
#    y 0.000000 1.637730 0.000000 
#    z 0.000000 0.000000 1.667940 
# 
# From -- ./inp_files/3638.got.cif
#   From: 2010.05.17/outbox.ucp.g08.bks.cvg/sg127_2_cif.got.tgz:3638.got - 2010.06.11 11:37:05.
