data_PCOD9564478
_publ_section_title
;
Structure prediction by ZEFSAII (Michael W. Deem and Ramdas Pophale) SiO2 
 PCOD9564478
Probable space group: P 4/M B M
;
_chemical_formula_sum "Si O2"
_cell_formula_units_Z 88
_cell_length_a 17.587334
_cell_length_b 17.587334
_cell_length_c 13.994670
_cell_angle_alpha 90.000000
_cell_angle_beta 90.000000
_cell_angle_gamma 90.000000
_cell_volume 4328.751796
_symmetry_space_group_name_H-M "P 4/M B M"
_symmetry_group_IT_number 127
_symmetry_cell_setting 'tetragonal'
loop_
_space_group_symop_operation_xyz
x,y,z
-y,x,z
-x,-y,z
y,-x,z
1/2+x,1/2-y,-z
1/2-x,1/2+y,-z
1/2+y,1/2+x,-z
1/2-y,1/2-x,-z
-x,-y,-z
y,-x,-z
x,y,-z
-y,x,-z
1/2-x,1/2+y,z
1/2+x,1/2-y,z
1/2-y,1/2-x,z
1/2+y,1/2+x,z
loop_
_atom_site_type_symbol
_atom_site_label
_atom_site_fract_x
_atom_site_fract_y
_atom_site_fract_z
Si Si1 0.933953 0.433953 0.889107
Si Si2 0.603244 0.434939 0.884219
Si Si3 0.568399 0.398896 0.615723
Si Si4 0.767065 0.606916 0.612184
Si Si5 0.214933 0.836225 0.115484
Si Si6 0.674266 0.045052 0.205822
O O1 0.859611 0.468808 0.838664
O O2 0.000000 0.500000 0.886520
O O3 0.918375 0.418375 0.000000
O O4 0.600673 0.522014 0.854763
O O5 0.664368 0.372908 0.853360
O O6 0.605599 0.437920 0.000000
O O7 0.602704 0.479719 0.646791
O O8 0.567819 0.401690 0.500000
O O9 0.611831 0.321565 0.639934
O O10 0.772284 0.587042 0.500000
O O11 0.816153 0.683848 0.626141
O O12 0.802490 0.544506 0.683202
O O13 0.265404 0.765404 0.149038
O O14 0.257799 0.912951 0.149490
O O15 0.216463 0.836789 0.000000
O O16 0.605578 0.105578 0.198156
#
# Coordination Sequence:
#
# PCOD9564478 Si02
#       6
#     8  16  16  16  16  16
#     4   9  16  28  49  73  97 129 174 222 259 297
#     4   8  14  26  45  67  92 124 160 197 240 296
#     4   8  14  27  50  77 102 132 175 229 282 327
#     4   9  17  30  49  72 101 138 175 215 271 332
#     4   9  16  27  46  69  91 118 155 200 249 296
#     4   9  17  29  46  69  96 127 165 208 250 297
#
# _framework density 20.329186
#
# number of rings (size 3 to 8) (size 9 to 14) (size 15 to 20)
#    0.000    3.364    0.000    1.636    0.000    2.182 
#    0.000    2.273    4.000    4.909    0.000    0.000 
#    0.000    0.000    0.000    0.000    0.000    0.000 
#
# Total GULP energy -490293.791268 kJ/mol
# GULP energy per Si atom -5571.520355 kJ/mol
# Density = 2.028292 g / cm^3
# Si number density = 20.329186 Si / 1000 Ang^3
#
#
#
# Elastic Constant Matrix: (Units=GPa)
#
#
# Indices 1 2 3 4 5 6 
#
# 1 67.7008 37.1385 10.2955 0.0000 0.0000 0.0000
# 2 37.1385 67.7008 10.2955 0.0000 0.0000 0.0000
# 3 10.2955 10.2955 85.0562 0.0000 0.0000 0.0000
# 4 0.0000 0.0000 0.0000 7.7206 0.0000 0.0000
# 5 0.0000 0.0000 0.0000 0.0000 7.7206 0.0000
# 6 0.0000 0.0000 0.0000 0.0000 0.0000 9.0299
#
#
#
# Elastic Compliance Matrix: (Units=1/GPa)
#
#
# Indices 1 2 3 4 5 6 
#
# 1 0.021245 -0.011475 -0.001183 0.000000 0.000000 0.000000
# 2 -0.011475 0.021245 -0.001183 0.000000 0.000000 0.000000
# 3 -0.001183 -0.001183 0.012043 0.000000 0.000000 0.000000
# 4 0.000000 0.000000 0.000000 0.129523 0.000000 0.000000
# 5 0.000000 0.000000 0.000000 0.000000 0.129523 0.000000
# 6 0.000000 0.000000 0.000000 0.000000 0.000000 0.110743
#
#
# Mechanical properties :
#
#
# Convention : Reuss Voigt Hill
#
# Bulk Modulus (GPa) = 37.23854 37.32411 37.28132
# Shear Modulus (GPa) = 10.84704 15.74277 13.29490
#
# Velocity S-wave (km/s) = 2.31242 2.78581 2.56008
# Velocity P-wave (km/s) = 5.04849 5.36166 5.20743
#
# Compressibility (1/GPa) = 0.02685390
#
# Stress axis : x y z
#
# Youngs Moduli (GPa) = 47.06899 47.06899 83.03412
#
# Poissons Ratio (x) = 0.54010 0.09820
# Poissons Ratio (y) = 0.54010 0.09820
# Poissons Ratio (z) = 0.05567 0.05567
#
# Static dielectric constant tensor:
#      x y z
#    x 1.724880 0.000000 0.000000 
#    y 0.000000 1.724880 0.000000 
#    z 0.000000 0.000000 1.769540 
# 
# From -- ./inp_files/4378.got.cif
#   From: 2010.05.17/outbox.cif.g08.bks.cpg/sg127_3_cif.got.tgz:4378.got - 2010.05.20 12:03:00.
