data_PCOD9564534
_publ_section_title
;
Structure prediction by ZEFSAII (Michael W. Deem and Ramdas Pophale) SiO2 
 PCOD9564534
Probable space group: P 4/M N C
;
_chemical_formula_sum "Si O2"
_cell_formula_units_Z 64
_cell_length_a 12.045028
_cell_length_b 12.045028
_cell_length_c 19.095097
_cell_angle_alpha 90.000000
_cell_angle_beta 90.000000
_cell_angle_gamma 90.000000
_cell_volume 2770.368220
_symmetry_space_group_name_H-M "P 4/M N C"
_symmetry_group_IT_number 128
_symmetry_cell_setting 'tetragonal'
loop_
_space_group_symop_operation_xyz
x,y,z
-y,x,z
-x,-y,z
y,-x,z
1/2+x,1/2-y,1/2-z
1/2-x,1/2+y,1/2-z
1/2+y,1/2+x,1/2-z
1/2-y,1/2-x,1/2-z
-x,-y,-z
y,-x,-z
x,y,-z
-y,x,-z
1/2-x,1/2+y,1/2+z
1/2+x,1/2-y,1/2+z
1/2-y,1/2-x,1/2+z
1/2+y,1/2+x,1/2+z
loop_
_atom_site_type_symbol
_atom_site_label
_atom_site_fract_x
_atom_site_fract_y
_atom_site_fract_z
Si Si1 0.558690 0.186917 0.579783
Si Si2 0.702374 0.309811 0.079061
Si Si3 0.490421 0.802053 0.847858
Si Si4 0.185347 0.010022 0.792207
O O1 0.519562 0.168082 0.500000
O O2 0.682296 0.241156 0.575276
O O3 0.592477 0.075477 0.622348
O O4 0.489141 0.263967 0.630478
O O5 0.588587 0.298700 0.123372
O O6 0.786779 0.392142 0.115415
O O7 0.679641 0.347385 0.000000
O O8 0.505029 0.782421 0.765711
O O9 0.112552 0.897980 0.782596
#
# Coordination Sequence:
#
# PCOD9564534 Si02
#       4
#    16  16  16  16
#     4   9  20  34  49  72 103 139 174 211 251 296
#     4   9  17  29  50  78 106 132 158 198 258 315
#     4  10  17  31  51  78 107 130 160 204 259 312
#     4  11  21  34  52  76 103 137 175 213 253 297
#
# _framework density 23.101621999999999
#
# number of rings (size 3 to 8) (size 9 to 14) (size 15 to 20)
#    1.500    0.750    2.500    2.250    0.000    1.500 
#    0.000    2.500    0.000    1.500    0.000    8.750 
#    0.000    0.000    0.000    0.000    0.000    0.000 
#
# Total GULP energy -357066.581230 kJ/mol
# GULP energy per Si atom -5579.165332 kJ/mol
# Density = 2.304904 g / cm^3
# Si number density = 23.101622 Si / 1000 Ang^3
#
#
#
# Elastic Constant Matrix: (Units=GPa)
#
#
# Indices 1 2 3 4 5 6 
#
# 1 30.6181 36.4324 38.7776 0.0000 0.0000 0.0000
# 2 36.4324 30.6181 38.7776 0.0000 0.0000 0.0000
# 3 38.7776 38.7776 172.9643 0.0000 0.0000 0.0000
# 4 0.0000 0.0000 0.0000 18.3657 0.0000 0.0000
# 5 0.0000 0.0000 0.0000 0.0000 18.3657 0.0000
# 6 0.0000 0.0000 0.0000 0.0000 0.0000 1191.7223
#
#
#
# Elastic Compliance Matrix: (Units=1/GPa)
#
#
# Indices 1 2 3 4 5 6 
#
# 1 -0.075927 0.096063 -0.004514 0.000000 0.000000 0.000000
# 2 0.096063 -0.075927 -0.004514 0.000000 0.000000 0.000000
# 3 -0.004514 -0.004514 0.007806 0.000000 0.000000 0.000000
# 4 0.000000 0.000000 0.000000 0.054449 0.000000 0.000000
# 5 0.000000 0.000000 0.000000 0.000000 0.054449 0.000000
# 6 0.000000 0.000000 0.000000 0.000000 0.000000 0.000839
#
#
# Mechanical properties :
#
#
# Convention : Reuss Voigt Hill
#
# Bulk Modulus (GPa) = 33.31126 51.35285 42.33206
# Shear Modulus (GPa) = -25.20496 253.70493 114.24999
#
# Velocity S-wave (km/s) = -3.30668 10.49093 7.04008
# Velocity P-wave (km/s) = 0.35794 13.00091 9.18954
#
# Compressibility (1/GPa) = 0.03001988
#
# Stress axis : x y z
#
# Youngs Moduli (GPa) = -13.17048 -13.17048 128.11143
#
# Poissons Ratio (x) = 1.26520 0.57833
# Poissons Ratio (y) = 1.26520 0.57833
# Poissons Ratio (z) = -0.05946 -0.05946
#
# Static dielectric constant tensor:
#      x y z
#    x 1.893570 0.000000 0.000000 
#    y 0.000000 1.893570 0.000000 
#    z 0.000000 0.000000 1.838660 
# 
# From -- ./inp_files/4458.got.cif
#   From: 2010.05.17/outbox.cif.g08.bks.cpg/sg128_3_cif.got.tgz:4458.got - 2010.05.20 12:07:25.
