data_PCOD9564098
_publ_section_title
;
Structure prediction by ZEFSAII (Michael W. Deem and Ramdas Pophale) SiO2 
 PCOD9564098
Probable space group: P 4/M B M
;
_chemical_formula_sum "Si O2"
_cell_formula_units_Z 96
_cell_length_a 14.380164
_cell_length_b 14.380164
_cell_length_c 22.784439
_cell_angle_alpha 90.000000
_cell_angle_beta 90.000000
_cell_angle_gamma 90.000000
_cell_volume 4711.574015
_symmetry_space_group_name_H-M "P 4/M B M"
_symmetry_group_IT_number 127
_symmetry_cell_setting 'tetragonal'
loop_
_space_group_symop_operation_xyz
x,y,z
-y,x,z
-x,-y,z
y,-x,z
1/2+x,1/2-y,-z
1/2-x,1/2+y,-z
1/2+y,1/2+x,-z
1/2-y,1/2-x,-z
-x,-y,-z
y,-x,-z
x,y,-z
-y,x,-z
1/2-x,1/2+y,z
1/2+x,1/2-y,z
1/2-y,1/2-x,z
1/2+y,1/2+x,z
loop_
_atom_site_type_symbol
_atom_site_label
_atom_site_fract_x
_atom_site_fract_y
_atom_site_fract_z
Si Si1 0.054323 0.854830 0.500000
Si Si2 0.370729 0.584858 0.156608
Si Si3 0.849752 0.495752 0.290280
Si Si4 0.424517 0.924517 0.928316
Si Si5 0.878183 0.227252 0.379270
Si Si6 0.220958 0.563993 0.933735
Si Si7 0.856757 0.799582 0.730205
O O1 0.077306 0.802842 0.439863
O O2 0.947688 0.884317 0.500000
O O3 0.377546 0.474339 0.149030
O O4 0.295743 0.610762 0.108141
O O5 0.345068 0.622264 0.220696
O O6 0.925384 0.574617 0.307879
O O7 0.795938 0.446482 0.343481
O O8 0.768504 0.555298 0.258685
O O9 0.912858 0.412858 0.261184
O O10 0.466329 0.824488 0.911396
O O11 0.500000 0.000000 0.906786
O O12 0.425598 0.925598 0.000000
O O13 0.784957 0.284957 0.392383
O O14 0.848648 0.145287 0.333737
O O15 0.134202 0.634202 0.937569
O O16 0.257311 0.549894 0.000000
O O17 0.766738 0.733263 0.731852
#
# Coordination Sequence:
#
# PCOD9564098 Si02
#       7
#     8  16  16   8  16  16  16
#     4  11  23  36  52  79 113 147 194 251 300 359
#     4  11  24  39  55  81 120 162 204 245 291 355
#     4   9  18  34  58  88 119 150 195 256 314 368
#     4   7  12  28  58  90 116 144 182 234 294 354
#     4  10  20  36  59  83 113 152 193 241 304 374
#     4   9  18  37  64  91 120 154 197 250 303 358
#     4  10  20  37  62  87 115 157 202 247 304 366
#
# _framework density 20.375357999999999
#
# number of rings (size 3 to 8) (size 9 to 14) (size 15 to 20)
#    0.000    2.333    0.000    3.750    0.000    0.667 
#    3.000    4.583    1.833    2.000    0.000    0.000 
#    0.000    0.000    0.000    0.333    0.000    0.000 
#
# Total GULP energy -535005.088014 kJ/mol
# GULP energy per Si atom -5572.969667 kJ/mol
# Density = 2.032898 g / cm^3
# Si number density = 20.375358 Si / 1000 Ang^3
#
#
#
# Elastic Constant Matrix: (Units=GPa)
#
#
# Indices 1 2 3 4 5 6 
#
# 1 88.0624 20.6467 28.5546 0.0000 0.0000 0.0000
# 2 20.6467 88.0624 28.5546 0.0000 0.0000 0.0000
# 3 28.5546 28.5546 59.2452 0.0000 0.0000 0.0000
# 4 0.0000 0.0000 0.0000 16.6631 0.0000 0.0000
# 5 0.0000 0.0000 0.0000 0.0000 16.6631 0.0000
# 6 0.0000 0.0000 0.0000 0.0000 0.0000 31.1523
#
#
#
# Elastic Compliance Matrix: (Units=1/GPa)
#
#
# Indices 1 2 3 4 5 6 
#
# 1 0.013576 -0.001258 -0.005937 0.000000 0.000000 0.000000
# 2 -0.001258 0.013576 -0.005937 0.000000 0.000000 0.000000
# 3 -0.005937 -0.005937 0.022602 0.000000 0.000000 0.000000
# 4 0.000000 0.000000 0.000000 0.060013 0.000000 0.000000
# 5 0.000000 0.000000 0.000000 0.000000 0.060013 0.000000
# 6 0.000000 0.000000 0.000000 0.000000 0.000000 0.032100
#
#
# Mechanical properties :
#
#
# Convention : Reuss Voigt Hill
#
# Bulk Modulus (GPa) = 42.57139 43.43131 43.00135
# Shear Modulus (GPa) = 21.18902 23.40334 22.29618
#
# Velocity S-wave (km/s) = 3.22830 3.39279 3.31157
# Velocity P-wave (km/s) = 5.90210 6.05887 5.98100
#
# Compressibility (1/GPa) = 0.02348995
#
# Stress axis : x y z
#
# Youngs Moduli (GPa) = 73.66204 73.66204 44.24434
#
# Poissons Ratio (x) = 0.09265 0.26267
# Poissons Ratio (y) = 0.09265 0.26267
# Poissons Ratio (z) = 0.43732 0.43732
#
# Static dielectric constant tensor:
#      x y z
#    x 1.760680 0.000000 0.000000 
#    y 0.000000 1.760680 0.000000 
#    z 0.000000 0.000000 1.722470 
# 
# From -- ./inp_files/5821.got.cif
#   From: 2010.05.17/outbox.cif.g08.bks.cpg/sg127_3_cif.got.tgz:5821.got - 2010.05.20 12:03:00.
