data_PCOD9564540
_publ_section_title
;
Structure prediction by ZEFSAII (Michael W. Deem and Ramdas Pophale) SiO2 
 PCOD9564540
Probable space group: P 4/M N C
;
_chemical_formula_sum "Si O2"
_cell_formula_units_Z 128
_cell_length_a 17.659991
_cell_length_b 17.659991
_cell_length_c 23.590006
_cell_angle_alpha 90.000000
_cell_angle_beta 90.000000
_cell_angle_gamma 90.000000
_cell_volume 7357.139776
_symmetry_space_group_name_H-M "P 4/M N C"
_symmetry_group_IT_number 128
_symmetry_cell_setting 'tetragonal'
loop_
_space_group_symop_operation_xyz
x,y,z
-y,x,z
-x,-y,z
y,-x,z
1/2+x,1/2-y,1/2-z
1/2-x,1/2+y,1/2-z
1/2+y,1/2+x,1/2-z
1/2-y,1/2-x,1/2-z
-x,-y,-z
y,-x,-z
x,y,-z
-y,x,-z
1/2-x,1/2+y,1/2+z
1/2+x,1/2-y,1/2+z
1/2-y,1/2-x,1/2+z
1/2+y,1/2+x,1/2+z
loop_
_atom_site_type_symbol
_atom_site_label
_atom_site_fract_x
_atom_site_fract_y
_atom_site_fract_z
Si Si1 0.416543 0.591326 0.567419
Si Si2 0.679585 0.844843 0.317867
Si Si3 0.707122 0.088509 0.227906
Si Si4 0.047348 0.886585 0.223781
Si Si5 0.483599 0.627017 0.064853
Si Si6 0.820784 0.828948 0.155760
Si Si7 0.419280 0.027485 0.812735
Si Si8 0.484935 0.290825 0.176878
O O1 0.396951 0.504520 0.583347
O O2 0.412191 0.596794 0.500000
O O3 0.360056 0.647948 0.597596
O O4 0.672131 0.827870 0.250000
O O5 0.698626 0.765042 0.346501
O O6 0.599886 0.878756 0.339638
O O7 0.739912 0.910369 0.328385
O O8 0.658682 0.158682 0.250000
O O9 0.769652 0.125425 0.187555
O O10 0.645058 0.035562 0.196739
O O11 0.747585 0.041743 0.279128
O O12 0.092312 0.820426 0.192348
O O13 0.042663 0.866070 0.289776
O O14 0.961560 0.905933 0.208992
O O15 0.418385 0.563257 0.070147
O O16 0.480546 0.686368 0.116456
O O17 0.479694 0.657400 0.000000
O O18 0.443694 0.056306 0.750000
O O19 0.500000 0.000000 0.838271
#
# Coordination Sequence:
#
# PCOD9564540 Si02
#       8
#    16  16  16  16  16  16  16  16
#     4   9  20  39  59  76 103 150 196 226 264 338
#     4  11  21  34  50  77 120 148 178 232 289 335
#     4  12  23  34  53  82 117 149 186 222 286 346
#     4  11  21  30  46  76 110 143 175 211 272 346
#     4   9  20  38  58  79 106 147 197 238 276 337
#     4  12  23  33  49  83 119 143 172 232 295 341
#     4  10  17  36  55  71 103 153 196 225 250 328
#     4  12  21  36  54  80 113 152 186 231 284 339
#
# _framework density 17.398064999999999
#
# number of rings (size 3 to 8) (size 9 to 14) (size 15 to 20)
#    0.000    1.250    6.250    2.625    1.750    2.000 
#    0.000    0.625    0.000    0.750    0.000    0.000 
#    0.000    3.000    0.000    0.000    0.000    0.000 
#
# Total GULP energy -713813.633703 kJ/mol
# GULP energy per Si atom -5576.669013 kJ/mol
# Density = 1.735847 g / cm^3
# Si number density = 17.398065 Si / 1000 Ang^3
#
#
#
# Elastic Constant Matrix: (Units=GPa)
#
#
# Indices 1 2 3 4 5 6 
#
# 1 92.2993 44.6818 33.5130 0.0000 0.0000 0.0000
# 2 44.6818 92.2992 33.5130 0.0000 0.0000 0.0000
# 3 33.5130 33.5130 75.1908 0.0000 0.0000 0.0000
# 4 0.0000 0.0000 0.0000 13.1586 0.0000 0.0000
# 5 0.0000 0.0000 0.0000 0.0000 13.1587 0.0000
# 6 0.0000 0.0000 0.0000 0.0000 0.0000 23.0124
#
#
#
# Elastic Compliance Matrix: (Units=1/GPa)
#
#
# Indices 1 2 3 4 5 6 
#
# 1 0.015169 -0.005832 -0.004161 0.000000 0.000000 0.000000
# 2 -0.005832 0.015169 -0.004161 0.000000 0.000000 0.000000
# 3 -0.004161 -0.004161 0.017009 0.000000 0.000000 0.000000
# 4 0.000000 0.000000 0.000000 0.075996 0.000000 0.000000
# 5 0.000000 0.000000 0.000000 0.000000 0.075995 0.000000
# 6 0.000000 0.000000 0.000000 0.000000 0.000000 0.043455
#
#
# Mechanical properties :
#
#
# Convention : Reuss Voigt Hill
#
# Bulk Modulus (GPa) = 52.53044 53.68945 53.10994
# Shear Modulus (GPa) = 18.02146 19.73804 18.87975
#
# Velocity S-wave (km/s) = 3.22192 3.37188 3.29776
# Velocity P-wave (km/s) = 6.64077 6.78866 6.71512
#
# Compressibility (1/GPa) = 0.01903658
#
# Stress axis : x y z
#
# Youngs Moduli (GPa) = 65.92586 65.92567 58.79262
#
# Poissons Ratio (x) = 0.38449 0.24465
# Poissons Ratio (y) = 0.38449 0.24466
# Poissons Ratio (z) = 0.27434 0.27434
#
# Static dielectric constant tensor:
#      x y z
#    x 1.627540 0.000000 0.000000 
#    y 0.000000 1.627550 0.000000 
#    z 0.000000 0.000000 1.594860 
# 
# From -- ./inp_files/6622.got.cif
#   From: 2010.05.17/outbox.cif.g08.bks.cpg/sg128_4_cif.got.tgz:6622.got - 2010.05.20 12:07:25.
