data_PCOD9564914
_publ_section_title
;
Structure prediction by ZEFSAII (Michael W. Deem and Ramdas Pophale) SiO2 
 PCOD9564914
Probable space group: P 4/M N C
;
_chemical_formula_sum "Si O2"
_cell_formula_units_Z 116
_cell_length_a 18.376799
_cell_length_b 18.376799
_cell_length_c 16.733127
_cell_angle_alpha 90.000000
_cell_angle_beta 90.000000
_cell_angle_gamma 90.000000
_cell_volume 5650.889794
_symmetry_space_group_name_H-M "P 4/M N C"
_symmetry_group_IT_number 128
_symmetry_cell_setting 'tetragonal'
loop_
_space_group_symop_operation_xyz
x,y,z
-y,x,z
-x,-y,z
y,-x,z
1/2+x,1/2-y,1/2-z
1/2-x,1/2+y,1/2-z
1/2+y,1/2+x,1/2-z
1/2-y,1/2-x,1/2-z
-x,-y,-z
y,-x,-z
x,y,-z
-y,x,-z
1/2-x,1/2+y,1/2+z
1/2+x,1/2-y,1/2+z
1/2-y,1/2-x,1/2+z
1/2+y,1/2+x,1/2+z
loop_
_atom_site_type_symbol
_atom_site_label
_atom_site_fract_x
_atom_site_fract_y
_atom_site_fract_z
Si Si1 0.517395 0.875909 0.701923
Si Si2 0.500000 0.500000 0.233787
Si Si3 0.121479 0.127000 0.267499
Si Si4 0.823546 0.348745 0.404294
Si Si5 0.118797 0.376485 0.090960
Si Si6 0.051834 0.744161 0.320530
Si Si7 0.217869 0.925268 0.410909
Si Si8 0.738372 0.687922 0.329663
O O1 0.560057 0.939944 0.750000
O O2 0.573993 0.840851 0.637991
O O3 0.443820 0.896791 0.654722
O O4 0.505904 0.812218 0.767067
O O5 0.556437 0.429511 0.233611
O O6 0.199792 0.089611 0.261070
O O7 0.123314 0.174094 0.349077
O O8 0.122338 0.186314 0.198109
O O9 0.823176 0.354421 0.500000
O O10 0.889731 0.299662 0.371463
O O11 0.750936 0.307823 0.373255
O O12 0.194318 0.421247 0.091950
O O13 0.151485 0.298110 0.114019
O O14 0.090080 0.379349 0.000000
O O15 0.006215 0.794989 0.379781
O O16 0.193999 0.910159 0.500000
O O17 0.777065 0.722936 0.250000
#
# Coordination Sequence:
#
# PCOD9564914 Si02
#       8
#    16   4  16  16  16  16  16  16
#     4  10  22  41  66  93 131 174 223 268 327 405
#     4  12  28  44  61  96 133 172 220 274 332 400
#     4  12  23  42  65  92 131 172 227 274 331 407
#     4  11  21  38  64  99 133 167 217 279 339 393
#     4  11  24  41  65 101 135 171 221 287 347 394
#     4  11  21  39  63  90 125 173 220 271 328 399
#     4  11  24  40  62  93 133 175 218 276 345 403
#     4  12  21  38  69  97 127 169 227 277 330 402
#
# _framework density 20.527740999999999
#
# number of rings (size 3 to 8) (size 9 to 14) (size 15 to 20)
#    0.000    0.828    5.517    2.483    0.000    2.207 
#    0.000    5.172    0.000    7.448    0.000    1.931 
#    0.000    0.000    0.000    0.000    0.000    0.000 
#
# Total GULP energy -646534.821134 kJ/mol
# GULP energy per Si atom -5573.576044 kJ/mol
# Density = 2.048102 g / cm^3
# Si number density = 20.527741 Si / 1000 Ang^3
#
#
#
# Elastic Constant Matrix: (Units=GPa)
#
#
# Indices 1 2 3 4 5 6 
#
# 1 51.9464 0.7435 25.6832 0.0000 0.0000 0.0000
# 2 0.7435 51.9458 25.6833 0.0000 0.0000 0.0000
# 3 25.6832 25.6833 106.7224 0.0000 0.0000 0.0000
# 4 0.0000 0.0000 0.0000 8.5682 0.0000 0.0000
# 5 0.0000 0.0000 0.0000 0.0000 8.5615 0.0000
# 6 0.0000 0.0000 0.0000 0.0000 0.0000 41.3733
#
#
#
# Elastic Compliance Matrix: (Units=1/GPa)
#
#
# Indices 1 2 3 4 5 6 
#
# 1 0.022163 0.002633 -0.005967 0.000000 0.000000 0.000000
# 2 0.002633 0.022164 -0.005967 0.000000 0.000000 0.000000
# 3 -0.005967 -0.005967 0.012242 0.000000 0.000000 0.000000
# 4 0.000000 0.000000 0.000000 0.116710 0.000000 0.000000
# 5 0.000000 0.000000 0.000000 0.000000 0.116801 0.000000
# 6 0.000000 0.000000 0.000000 0.000000 0.000000 0.024170
#
#
# Mechanical properties :
#
#
# Convention : Reuss Voigt Hill
#
# Bulk Modulus (GPa) = 26.33947 34.98164 30.66056
# Shear Modulus (GPa) = 14.47138 22.26759 18.36948
#
# Velocity S-wave (km/s) = 2.65800 3.29714 2.99467
# Velocity P-wave (km/s) = 4.72006 5.61898 5.18902
#
# Compressibility (1/GPa) = 0.03796584
#
# Stress axis : x y z
#
# Youngs Moduli (GPa) = 45.11964 45.11898 81.68402
#
# Poissons Ratio (x) = -0.11881 0.48744
# Poissons Ratio (y) = -0.11881 0.48745
# Poissons Ratio (z) = 0.26925 0.26925
#
# Static dielectric constant tensor:
#      x y z
#    x 1.782230 0.000000 0.000000 
#    y 0.000000 1.782230 0.000000 
#    z 0.000000 0.000000 2.447760 
# 
# From -- ./inp_files/4942.got.cif
#   From: 2010.05.17/outbox.cif.g08.bks.cpg/sg128_3_cif.got.tgz:4942.got - 2010.05.20 12:07:25.
