data_PCOD9564041
_publ_section_title
;
Structure prediction by ZEFSAII (Michael W. Deem and Ramdas Pophale) SiO2 
 PCOD9564041
Probable space group: P 4/M B M
;
_chemical_formula_sum "Si O2"
_cell_formula_units_Z 112
_cell_length_a 15.640457
_cell_length_b 15.640457
_cell_length_c 23.833514
_cell_angle_alpha 90.000000
_cell_angle_beta 90.000000
_cell_angle_gamma 90.000000
_cell_volume 5830.247030
_symmetry_space_group_name_H-M "P 4/M B M"
_symmetry_group_IT_number 127
_symmetry_cell_setting 'tetragonal'
loop_
_space_group_symop_operation_xyz
x,y,z
-y,x,z
-x,-y,z
y,-x,z
1/2+x,1/2-y,-z
1/2-x,1/2+y,-z
1/2+y,1/2+x,-z
1/2-y,1/2-x,-z
-x,-y,-z
y,-x,-z
x,y,-z
-y,x,-z
1/2-x,1/2+y,z
1/2+x,1/2-y,z
1/2-y,1/2-x,z
1/2+y,1/2+x,z
loop_
_atom_site_type_symbol
_atom_site_label
_atom_site_fract_x
_atom_site_fract_y
_atom_site_fract_z
Si Si1 0.242397 0.483037 0.933040
Si Si2 0.727021 0.917501 0.263942
Si Si3 0.882021 0.917939 0.335672
Si Si4 0.859444 0.504679 0.629783
Si Si5 0.806397 0.830559 0.067699
Si Si6 0.243597 0.111120 0.435328
Si Si7 0.006739 0.362733 0.171330
O O1 0.292275 0.570450 0.919993
O O2 0.294288 0.398432 0.916334
O O3 0.160079 0.485630 0.893764
O O4 0.224770 0.480244 0.000000
O O5 0.665766 0.834235 0.262076
O O6 0.821722 0.892894 0.283374
O O7 0.688426 0.979215 0.312748
O O8 0.716304 0.971313 0.207133
O O9 0.833487 0.885412 0.391342
O O10 0.978718 0.885805 0.334887
O O11 0.937703 0.437703 0.626602
O O12 0.795939 0.475427 0.580396
O O13 0.901832 0.598169 0.628122
O O14 0.729895 0.770106 0.089930
O O15 0.803312 0.824571 0.000000
O O16 0.217372 0.111292 0.500000
O O17 0.310275 0.189726 0.426160
O O18 0.935259 0.435259 0.179147
O O19 0.095513 0.404488 0.191418
#
# Coordination Sequence:
#
# PCOD9564041 Si02
#       7
#    16  16  16  16  16  16  16
#     4  10  20  35  55  79 112 153 193 234 282 340
#     4   9  18  36  57  77 105 137 174 226 282 332
#     4  10  21  38  59  80 107 145 187 229 273 326
#     4   8  13  24  46  72  99 135 172 209 262 319
#     4   9  18  33  53  77 108 145 185 229 276 332
#     4   9  18  33  53  79 113 148 182 225 272 319
#     4  10  20  34  55  84 114 143 181 232 290 351
#
# _framework density 19.210163999999999
#
# number of rings (size 3 to 8) (size 9 to 14) (size 15 to 20)
#    0.000    2.714    0.000    2.571    0.000    4.571 
#    2.571   11.429    0.000    0.000    0.000    0.000 
#    0.000    0.000    0.000    0.000    0.000    0.000 
#
# Total GULP energy -624026.183403 kJ/mol
# GULP energy per Si atom -5571.662352 kJ/mol
# Density = 1.916644 g / cm^3
# Si number density = 19.210164 Si / 1000 Ang^3
#
#
#
# Elastic Constant Matrix: (Units=GPa)
#
#
# Indices 1 2 3 4 5 6 
#
# 1 65.7743 7.2199 13.4439 0.0000 0.0000 0.0000
# 2 7.2199 65.7743 13.4439 0.0000 0.0000 0.0000
# 3 13.4439 13.4439 70.2949 0.0000 0.0000 0.0000
# 4 0.0000 0.0000 0.0000 10.4647 0.0000 0.0000
# 5 0.0000 0.0000 0.0000 0.0000 10.4647 0.0000
# 6 0.0000 0.0000 0.0000 0.0000 0.0000 3.0532
#
#
#
# Elastic Compliance Matrix: (Units=1/GPa)
#
#
# Indices 1 2 3 4 5 6 
#
# 1 0.015908 -0.001170 -0.002819 0.000000 0.000000 0.000000
# 2 -0.001170 0.015908 -0.002819 0.000000 0.000000 0.000000
# 3 -0.002819 -0.002819 0.015304 0.000000 0.000000 0.000000
# 4 0.000000 0.000000 0.000000 0.095559 0.000000 0.000000
# 5 0.000000 0.000000 0.000000 0.000000 0.095559 0.000000
# 6 0.000000 0.000000 0.000000 0.000000 0.000000 0.327526
#
#
# Mechanical properties :
#
#
# Convention : Reuss Voigt Hill
#
# Bulk Modulus (GPa) = 29.84602 30.00655 29.92628
# Shear Modulus (GPa) = 8.46671 15.97890 12.22281
#
# Velocity S-wave (km/s) = 2.10166 2.88721 2.52517
# Velocity P-wave (km/s) = 4.63245 5.17385 4.91062
#
# Compressibility (1/GPa) = 0.03350531
#
# Stress axis : x y z
#
# Youngs Moduli (GPa) = 62.86120 62.86120 65.34277
#
# Poissons Ratio (x) = 0.07355 0.18418
# Poissons Ratio (y) = 0.07355 0.18418
# Poissons Ratio (z) = 0.17718 0.17718
#
# Static dielectric constant tensor:
#      x y z
#    x 1.640090 0.000000 0.000000 
#    y 0.000000 1.640090 0.000000 
#    z 0.000000 0.000000 1.681150 
# 
# From -- ./inp_files/6206.got.cif
#   From: 2010.05.17/outbox.cif.g08.bks.cpg/sg127_4_cif.got.tgz:6206.got - 2010.05.20 12:03:00.
