data_PCOD9564979
_publ_section_title
;
Structure prediction by ZEFSAII (Michael W. Deem and Ramdas Pophale) SiO2 
 PCOD9564979
Probable space group: P 4/M N C
;
_chemical_formula_sum "Si O2"
_cell_formula_units_Z 44
_cell_length_a 10.202686
_cell_length_b 10.202686
_cell_length_c 15.942599
_cell_angle_alpha 90.000000
_cell_angle_beta 90.000000
_cell_angle_gamma 90.000000
_cell_volume 1659.541680
_symmetry_space_group_name_H-M "P 4/M N C"
_symmetry_group_IT_number 128
_symmetry_cell_setting 'tetragonal'
loop_
_space_group_symop_operation_xyz
x,y,z
-y,x,z
-x,-y,z
y,-x,z
1/2+x,1/2-y,1/2-z
1/2-x,1/2+y,1/2-z
1/2+y,1/2+x,1/2-z
1/2-y,1/2-x,1/2-z
-x,-y,-z
y,-x,-z
x,y,-z
-y,x,-z
1/2-x,1/2+y,1/2+z
1/2+x,1/2-y,1/2+z
1/2-y,1/2-x,1/2+z
1/2+y,1/2+x,1/2+z
loop_
_atom_site_type_symbol
_atom_site_label
_atom_site_fract_x
_atom_site_fract_y
_atom_site_fract_z
Si Si1 0.151707 0.843105 0.401867
Si Si2 0.209793 0.409499 0.676846
Si Si3 0.512321 0.274927 0.500000
Si Si4 0.000000 0.000000 0.215064
O O1 0.173680 0.817983 0.500000
O O2 0.255681 0.768284 0.346603
O O3 0.158080 0.974497 0.208313
O O4 0.998242 0.823348 0.387587
O O5 0.101879 0.398122 0.750000
O O6 0.188901 0.473899 0.584429
O O7 0.629918 0.384865 0.500000
#
# Coordination Sequence:
#
# PCOD9564979 Si02
#       4
#    16  16   8   4
#     4   9  20  39  66 100 142 188 233 291 366 434
#     4  12  25  40  76 107 143 193 252 304 367 447
#     4  11  20  44  74 103 142 202 252 297 364 441
#     4  12  28  53  72 109 140 198 244 301 380 437
#
# _framework density 26.513344
#
# number of rings (size 3 to 8) (size 9 to 14) (size 15 to 20)
#    0.000    1.273    5.455    1.091    5.091    0.000 
#    0.000    1.818    0.000    6.545    0.000    0.000 
#    0.000    0.000    0.000    0.000    0.000    0.000 
#
# Total GULP energy -245203.003099 kJ/mol
# GULP energy per Si atom -5572.795525 kJ/mol
# Density = 2.645300 g / cm^3
# Si number density = 26.513344 Si / 1000 Ang^3
#
#
#
# Elastic Constant Matrix: (Units=GPa)
#
#
# Indices 1 2 3 4 5 6 
#
# 1 50.7002 65.2570 33.0580 0.0000 0.0000 0.0000
# 2 65.2570 50.6997 33.0567 0.0000 0.0000 0.0000
# 3 33.0580 33.0567 217.8179 0.0000 0.0000 0.0000
# 4 0.0000 0.0000 0.0000 -0.8569 0.0000 0.0000
# 5 0.0000 0.0000 0.0000 0.0000 -0.8573 0.0000
# 6 0.0000 0.0000 0.0000 0.0000 0.0000 72.4187
#
#
#
# Elastic Compliance Matrix: (Units=1/GPa)
#
#
# Indices 1 2 3 4 5 6 
#
# 1 -0.029627 0.039068 -0.001433 0.000000 0.000000 0.000000
# 2 0.039068 -0.029627 -0.001433 0.000000 0.000000 0.000000
# 3 -0.001433 -0.001433 0.005026 0.000000 0.000000 0.000000
# 4 0.000000 0.000000 0.000000 -1.167057 0.000000 0.000000
# 5 0.000000 0.000000 0.000000 0.000000 -1.166442 0.000000
# 6 0.000000 0.000000 0.000000 0.000000 0.000000 0.013809
#
#
# Mechanical properties :
#
#
# Convention : Reuss Voigt Hill
#
# Bulk Modulus (GPa) = 55.01657 64.66237 59.83947
# Shear Modulus (GPa) = -2.04896 26.66398 12.30751
#
# Velocity S-wave (km/s) = -0.88005 3.17469 2.15687
# Velocity P-wave (km/s) = 4.44555 6.15465 5.36855
#
# Compressibility (1/GPa) = 0.01817634
#
# Stress axis : x y z
#
# Youngs Moduli (GPa) = -33.75287 -33.75275 198.96969
#
# Poissons Ratio (x) = 1.31865 0.28504
# Poissons Ratio (y) = 1.31866 0.28512
# Poissons Ratio (z) = -0.04835 -0.04837
#
# Static dielectric constant tensor:
#      x y z
#    x 2.100100 0.000000 0.000000 
#    y 0.000000 2.100110 0.000000 
#    z 0.000000 0.000000 2.260550 
# 
# From -- ./inp_files/2168.got.cif
#   From: 2010.05.17/outbox.cif.g08.bks.cpg/sg128_2_cif.got.tgz:2168.got - 2010.05.20 12:07:25.
