data_PCOD9564562
_publ_section_title
;
Structure prediction by ZEFSAII (Michael W. Deem and Ramdas Pophale) SiO2 
 PCOD9564562
Probable space group: P 4/M N C
;
_chemical_formula_sum "Si O2"
_cell_formula_units_Z 96
_cell_length_a 24.721263
_cell_length_b 24.721263
_cell_length_c 7.887447
_cell_angle_alpha 90.000000
_cell_angle_beta 90.000000
_cell_angle_gamma 90.000000
_cell_volume 4820.341019
_symmetry_space_group_name_H-M "P 4/M N C"
_symmetry_group_IT_number 128
_symmetry_cell_setting 'tetragonal'
loop_
_space_group_symop_operation_xyz
x,y,z
-y,x,z
-x,-y,z
y,-x,z
1/2+x,1/2-y,1/2-z
1/2-x,1/2+y,1/2-z
1/2+y,1/2+x,1/2-z
1/2-y,1/2-x,1/2-z
-x,-y,-z
y,-x,-z
x,y,-z
-y,x,-z
1/2-x,1/2+y,1/2+z
1/2+x,1/2-y,1/2+z
1/2-y,1/2-x,1/2+z
1/2+y,1/2+x,1/2+z
loop_
_atom_site_type_symbol
_atom_site_label
_atom_site_fract_x
_atom_site_fract_y
_atom_site_fract_z
Si Si1 0.118972 0.101967 0.706029
Si Si2 0.673710 0.714359 0.695049
Si Si3 0.186001 0.602655 0.299244
Si Si4 0.487171 0.772829 0.798202
Si Si5 0.990371 0.846874 0.294164
Si Si6 0.774049 0.640144 0.298609
O O1 0.125094 0.107344 0.500000
O O2 0.171008 0.126035 0.794129
O O3 0.067378 0.134460 0.765998
O O4 0.113839 0.039145 0.747044
O O5 0.688838 0.727219 0.500000
O O6 0.644559 0.767673 0.773297
O O7 0.724834 0.679495 0.770049
O O8 0.129050 0.629050 0.250000
O O9 0.193003 0.604975 0.500000
O O10 0.191352 0.539166 0.253018
O O11 0.502397 0.713086 0.732863
O O12 0.423177 0.778623 0.753288
O O13 0.488008 0.773153 0.000000
O O14 0.987343 0.845088 0.500000
O O15 0.828577 0.671424 0.250000
O O16 0.766654 0.639385 0.500000
#
# Coordination Sequence:
#
# PCOD9564562 Si02
#       6
#    16  16  16  16  16  16
#     4  10  18  32  51  76 108 148 197 243 287 338
#     4  10  21  35  54  83 116 150 189 238 292 339
#     4  11  23  39  59  87 119 153 192 237 288 344
#     4  11  21  37  60  86 114 150 192 235 287 346
#     4   9  18  30  51  78 106 146 195 242 285 332
#     4  11  23  39  59  87 119 153 192 237 288 344
#
# _framework density 19.915602
#
# number of rings (size 3 to 8) (size 9 to 14) (size 15 to 20)
#    0.000    1.667    3.333    2.000    0.000    1.667 
#    0.000    2.500    0.000    0.500    0.000    4.667 
#    0.000    0.000    0.000    0.000    0.000    0.000 
#
# Total GULP energy -534662.296984 kJ/mol
# GULP energy per Si atom -5569.398927 kJ/mol
# Density = 1.987027 g / cm^3
# Si number density = 19.915602 Si / 1000 Ang^3
#
#
#
# Elastic Constant Matrix: (Units=GPa)
#
#
# Indices 1 2 3 4 5 6 
#
# 1 75.7847 50.1183 9.4720 0.0000 0.0000 0.0000
# 2 50.1183 75.7859 9.4819 0.0000 0.0000 0.0000
# 3 9.4720 9.4819 40.7448 0.0000 0.0000 0.0000
# 4 0.0000 0.0000 0.0000 15.4893 0.0000 0.0000
# 5 0.0000 0.0000 0.0000 0.0000 15.4890 0.0000
# 6 0.0000 0.0000 0.0000 0.0000 0.0000 29.2338
#
#
#
# Elastic Compliance Matrix: (Units=1/GPa)
#
#
# Indices 1 2 3 4 5 6 
#
# 1 0.023595 -0.015365 -0.001910 0.000000 0.000000 0.000000
# 2 -0.015365 0.023596 -0.001919 0.000000 0.000000 0.000000
# 3 -0.001910 -0.001919 0.025434 0.000000 0.000000 0.000000
# 4 0.000000 0.000000 0.000000 0.064561 0.000000 0.000000
# 5 0.000000 0.000000 0.000000 0.000000 0.064562 0.000000
# 6 0.000000 0.000000 0.000000 0.000000 0.000000 0.034207
#
#
# Mechanical properties :
#
#
# Convention : Reuss Voigt Hill
#
# Bulk Modulus (GPa) = 29.20778 36.71776 32.96277
# Shear Modulus (GPa) = 17.49753 20.25862 18.87808
#
# Velocity S-wave (km/s) = 2.96731 3.19285 3.08214
# Velocity P-wave (km/s) = 5.14174 5.66296 5.40863
#
# Compressibility (1/GPa) = 0.03423746
#
# Stress axis : x y z
#
# Youngs Moduli (GPa) = 42.38159 42.37966 39.31810
#
# Poissons Ratio (x) = 0.65116 0.07508
# Poissons Ratio (y) = 0.65119 0.07546
# Poissons Ratio (z) = 0.08093 0.08134
#
# Static dielectric constant tensor:
#      x y z
#    x 1.727450 0.000000 0.000000 
#    y 0.000000 1.727440 0.000000 
#    z 0.000000 0.000000 1.739750 
# 
# From -- ./inp_files/1515.got.cif
#   From: 2010.05.17/outbox.cif.g08.bks.cpg/sg128_1_cif.got.tgz:1515.got - 2010.05.20 12:07:25.
