data_PCOD9564544
_publ_section_title
;
Structure prediction by ZEFSAII (Michael W. Deem and Ramdas Pophale) SiO2 
 PCOD9564544
Probable space group: P 4/M N C
;
_chemical_formula_sum "Si O2"
_cell_formula_units_Z 96
_cell_length_a 23.539384
_cell_length_b 23.539384
_cell_length_c 7.859773
_cell_angle_alpha 90.000000
_cell_angle_beta 90.000000
_cell_angle_gamma 90.000000
_cell_volume 4355.120648
_symmetry_space_group_name_H-M "P 4/M N C"
_symmetry_group_IT_number 128
_symmetry_cell_setting 'tetragonal'
loop_
_space_group_symop_operation_xyz
x,y,z
-y,x,z
-x,-y,z
y,-x,z
1/2+x,1/2-y,1/2-z
1/2-x,1/2+y,1/2-z
1/2+y,1/2+x,1/2-z
1/2-y,1/2-x,1/2-z
-x,-y,-z
y,-x,-z
x,y,-z
-y,x,-z
1/2-x,1/2+y,1/2+z
1/2+x,1/2-y,1/2+z
1/2-y,1/2-x,1/2+z
1/2+y,1/2+x,1/2+z
loop_
_atom_site_type_symbol
_atom_site_label
_atom_site_fract_x
_atom_site_fract_y
_atom_site_fract_z
Si Si1 0.913447 0.671641 0.294227
Si Si2 0.412078 0.472690 0.792351
Si Si3 0.898765 0.306163 0.802624
Si Si4 0.313111 0.280890 0.796737
Si Si5 0.911219 0.798410 0.708127
Si Si6 0.107725 0.515982 0.809710
O O1 0.850902 0.649099 0.250000
O O2 0.917870 0.672291 0.500000
O O3 0.927217 0.735080 0.234556
O O4 0.958261 0.626184 0.219152
O O5 0.463757 0.430746 0.740851
O O6 0.350867 0.450131 0.734317
O O7 0.411235 0.472676 0.000000
O O8 0.846513 0.346513 0.750000
O O9 0.872392 0.244818 0.771801
O O10 0.949519 0.332613 0.695185
O O11 0.912405 0.315009 0.000000
O O12 0.259886 0.240115 0.750000
O O13 0.306291 0.345556 0.740497
O O14 0.316833 0.279568 0.000000
O O15 0.912532 0.798725 0.500000
O O16 0.058595 0.558595 0.750000
O O17 0.090565 0.501822 0.000000
#
# Coordination Sequence:
#
# PCOD9564544 Si02
#       6
#    16  16  16  16  16  16
#     4  10  22  38  55  76 104 138 177 221 268 316
#     4   8  14  26  46  73 104 135 166 205 254 307
#     4  10  18  30  49  73 102 133 169 214 261 311
#     4  10  18  29  47  71 102 140 178 218 264 312
#     4   9  18  31  48  73 103 137 176 214 257 311
#     4  10  20  35  55  78 104 136 175 220 269 319
#
# _framework density 22.043018
#
# number of rings (size 3 to 8) (size 9 to 14) (size 15 to 20)
#    0.000    2.500    0.000    5.500    0.000    3.000 
#    0.000    7.500    0.000    0.000    0.000    0.000 
#    0.000    0.000    0.000   18.000    0.000   16.667 
#
# Total GULP energy -535260.144547 kJ/mol
# GULP energy per Si atom -5575.626506 kJ/mol
# Density = 2.199285 g / cm^3
# Si number density = 22.043018 Si / 1000 Ang^3
#
#
#
# Elastic Constant Matrix: (Units=GPa)
#
#
# Indices 1 2 3 4 5 6 
#
# 1 120.7863 75.4800 -2.4553 0.0000 0.0000 0.0000
# 2 75.4800 120.7891 -2.4509 0.0000 0.0000 0.0000
# 3 -2.4553 -2.4509 39.8201 0.0000 0.0000 0.0000
# 4 0.0000 0.0000 0.0000 9.4445 0.0000 0.0000
# 5 0.0000 0.0000 0.0000 0.0000 9.4444 0.0000
# 6 0.0000 0.0000 0.0000 0.0000 0.0000 35.8376
#
#
#
# Elastic Compliance Matrix: (Units=1/GPa)
#
#
# Indices 1 2 3 4 5 6 
#
# 1 0.013587 -0.008484 0.000316 0.000000 0.000000 0.000000
# 2 -0.008484 0.013587 0.000313 0.000000 0.000000 0.000000
# 3 0.000316 0.000313 0.025152 0.000000 0.000000 0.000000
# 4 0.000000 0.000000 0.000000 0.105882 0.000000 0.000000
# 5 0.000000 0.000000 0.000000 0.000000 0.105883 0.000000
# 6 0.000000 0.000000 0.000000 0.000000 0.000000 0.027904
#
#
# Mechanical properties :
#
#
# Convention : Reuss Voigt Hill
#
# Bulk Modulus (GPa) = 27.31119 46.94924 37.13022
# Shear Modulus (GPa) = 15.62936 25.00006 20.31471
#
# Velocity S-wave (km/s) = 2.66567 3.37137 3.03907
# Velocity P-wave (km/s) = 4.67881 6.04152 5.40329
#
# Compressibility (1/GPa) = 0.03661502
#
# Stress axis : x y z
#
# Youngs Moduli (GPa) = 73.59809 73.60012 39.75874
#
# Poissons Ratio (x) = 0.62444 -0.01255
# Poissons Ratio (y) = 0.62442 -0.01245
# Poissons Ratio (z) = -0.02323 -0.02305
#
# Static dielectric constant tensor:
#      x y z
#    x 1.829240 0.000000 0.000000 
#    y 0.000000 1.829240 0.000000 
#    z 0.000000 0.000000 1.810750 
# 
# From -- ./inp_files/1484.got.cif
#   From: 2010.05.17/outbox.cif.g08.bks.cpg/sg128_1_cif.got.tgz:1484.got - 2010.05.20 12:07:25.
