data_PCOD9564346
_publ_section_title
;
Structure prediction by ZEFSAII (Michael W. Deem and Ramdas Pophale) SiO2 
 PCOD9564346
Probable space group: P 4/M B M
;
_chemical_formula_sum "Si O2"
_cell_formula_units_Z 72
_cell_length_a 23.562905
_cell_length_b 23.562905
_cell_length_c 9.031905
_cell_angle_alpha 90.000000
_cell_angle_beta 90.000000
_cell_angle_gamma 90.000000
_cell_volume 5014.608419
_symmetry_space_group_name_H-M "P 4/M B M"
_symmetry_group_IT_number 127
_symmetry_cell_setting 'tetragonal'
loop_
_space_group_symop_operation_xyz
x,y,z
-y,x,z
-x,-y,z
y,-x,z
1/2+x,1/2-y,-z
1/2-x,1/2+y,-z
1/2+y,1/2+x,-z
1/2-y,1/2-x,-z
-x,-y,-z
y,-x,-z
x,y,-z
-y,x,-z
1/2-x,1/2+y,z
1/2+x,1/2-y,z
1/2-y,1/2-x,z
1/2+y,1/2+x,z
loop_
_atom_site_type_symbol
_atom_site_label
_atom_site_fract_x
_atom_site_fract_y
_atom_site_fract_z
Si Si1 0.786389 0.811023 0.328553
Si Si2 0.048036 0.451965 0.325021
Si Si3 0.702369 0.890634 0.822296
Si Si4 0.832206 0.517321 0.821782
Si Si5 0.625163 0.220731 0.321655
O O1 0.793824 0.826941 0.500000
O O2 0.738464 0.761537 0.323598
O O3 0.759806 0.863043 0.240060
O O4 0.843097 0.778888 0.276286
O O5 0.058073 0.441928 0.500000
O O6 0.027781 0.393972 0.248792
O O7 0.000000 0.500000 0.309125
O O8 0.650055 0.849946 0.774145
O O9 0.690376 0.955144 0.778101
O O10 0.704347 0.888649 0.000000
O O11 0.792069 0.566988 0.760548
O O12 0.836208 0.520017 0.000000
O O13 0.617544 0.222153 0.500000
O O14 0.668623 0.168623 0.290883
#
# Coordination Sequence:
#
# PCOD9564346 Si02
#       5
#    16   8  16  16  16
#     4   8  15  28  46  65  83 108 142 181 224 267
#     4  11  23  35  45  59  83 121 163 197 227 258
#     4   9  18  31  44  61  87 117 147 184 223 260
#     4  11  21  31  45  65  89 118 153 188 225 265
#     4   9  17  30  46  64  88 114 144 185 227 264
#
# _framework density 14.358051
#
# number of rings (size 3 to 8) (size 9 to 14) (size 15 to 20)
#    0.000    2.556    1.111    3.000    0.000    4.444 
#    0.000    4.444    0.000    0.000    0.000    0.000 
#    0.000    0.889    0.000    9.778    0.000    7.111 
#
# Total GULP energy -401219.150231 kJ/mol
# GULP energy per Si atom -5572.488198 kJ/mol
# Density = 1.432537 g / cm^3
# Si number density = 14.358051 Si / 1000 Ang^3
#
#
#
# Elastic Constant Matrix: (Units=GPa)
#
#
# Indices 1 2 3 4 5 6 
#
# 1 91.5317 81.6573 42.0098 0.0000 0.0000 0.0000
# 2 81.6573 91.5323 42.0098 0.0000 0.0000 0.0000
# 3 42.0098 42.0098 35.4778 0.0000 0.0000 0.0000
# 4 0.0000 0.0000 0.0000 23.5242 0.0000 0.0000
# 5 0.0000 0.0000 0.0000 0.0000 23.5243 0.0000
# 6 0.0000 0.0000 0.0000 0.0000 0.0000 24.1580
#
#
#
# Elastic Compliance Matrix: (Units=1/GPa)
#
#
# Indices 1 2 3 4 5 6 
#
# 1 0.057419 -0.043850 -0.016067 0.000000 0.000000 0.000000
# 2 -0.043850 0.057418 -0.016066 0.000000 0.000000 0.000000
# 3 -0.016067 -0.016066 0.066236 0.000000 0.000000 0.000000
# 4 0.000000 0.000000 0.000000 0.042509 0.000000 0.000000
# 5 0.000000 0.000000 0.000000 0.000000 0.042509 0.000000
# 6 0.000000 0.000000 0.000000 0.000000 0.000000 0.041394
#
#
# Mechanical properties :
#
#
# Convention : Reuss Voigt Hill
#
# Bulk Modulus (GPa) = 34.35656 61.09950 47.72803
# Shear Modulus (GPa) = 10.65747 17.76565 14.21156
#
# Velocity S-wave (km/s) = 2.72741 3.52139 3.14952
# Velocity P-wave (km/s) = 5.82226 7.69286 6.82198
#
# Compressibility (1/GPa) = 0.02910652
#
# Stress axis : x y z
#
# Youngs Moduli (GPa) = 17.41583 17.41610 15.09753
#
# Poissons Ratio (x) = 0.76370 0.24257
# Poissons Ratio (y) = 0.76369 0.24256
# Poissons Ratio (z) = 0.27982 0.27981
#
# Static dielectric constant tensor:
#      x y z
#    x 1.467060 0.000000 0.000000 
#    y 0.000000 1.467060 0.000000 
#    z 0.000000 0.000000 1.481520 
# 
# From -- ./inp_files/1732.got.cif
#   From: 2010.05.17/outbox.cif.g08.bks.cpg/sg127_1_cif.got.tgz:1732.got - 2010.05.20 12:03:00.
