data_PCOD9564119
_publ_section_title
;
Structure prediction by ZEFSAII (Michael W. Deem and Ramdas Pophale) SiO2 
 PCOD9564119
Probable space group: P 4/M B M
;
_chemical_formula_sum "Si O2"
_cell_formula_units_Z 40
_cell_length_a 14.358042
_cell_length_b 14.358042
_cell_length_c 8.120544
_cell_angle_alpha 90.000000
_cell_angle_beta 90.000000
_cell_angle_gamma 90.000000
_cell_volume 1674.077512
_symmetry_space_group_name_H-M "P 4/M B M"
_symmetry_group_IT_number 127
_symmetry_cell_setting 'tetragonal'
loop_
_space_group_symop_operation_xyz
x,y,z
-y,x,z
-x,-y,z
y,-x,z
1/2+x,1/2-y,-z
1/2-x,1/2+y,-z
1/2+y,1/2+x,-z
1/2-y,1/2-x,-z
-x,-y,-z
y,-x,-z
x,y,-z
-y,x,-z
1/2-x,1/2+y,z
1/2+x,1/2-y,z
1/2-y,1/2-x,z
1/2+y,1/2+x,z
loop_
_atom_site_type_symbol
_atom_site_label
_atom_site_fract_x
_atom_site_fract_y
_atom_site_fract_z
Si Si1 0.293830 0.636035 0.678922
Si Si2 0.008010 0.347813 0.194874
Si Si3 0.403504 0.622029 0.000000
O O1 0.340414 0.632063 0.500000
O O2 0.214975 0.714975 0.675744
O O3 0.238087 0.539373 0.712377
O O4 0.359124 0.659421 0.832527
O O5 0.929105 0.429105 0.202524
O O6 0.103195 0.396806 0.256122
O O7 0.019772 0.326688 0.000000
O O8 0.376338 0.513355 0.000000
#
# Coordination Sequence:
#
# PCOD9564119 Si02
#       3
#    16  16   8
#     4  10  20  37  64  93 121 154 194 248 312 368
#     4   8  13  24  47  80 117 154 188 226 282 354
#     4  11  25  44  64  85 115 161 212 253 288 339
#
# _framework density 23.893754000000001
#
# number of rings (size 3 to 8) (size 9 to 14) (size 15 to 20)
#    0.000    2.600    2.000    1.800    0.000    2.400 
#    0.000   10.000    0.000    0.000    0.000    0.000 
#    0.000    0.000    0.000    0.000    0.000    0.000 
#
# Total GULP energy -223654.533064 kJ/mol
# GULP energy per Si atom -5591.363327 kJ/mol
# Density = 2.383937 g / cm^3
# Si number density = 23.893754 Si / 1000 Ang^3
#
#
#
# Elastic Constant Matrix: (Units=GPa)
#
#
# Indices 1 2 3 4 5 6 
#
# 1 69.5672 -6.7388 25.6593 0.0000 0.0000 0.0000
# 2 -6.7388 69.5672 25.6593 0.0000 0.0000 0.0000
# 3 25.6593 25.6593 168.3855 0.0000 0.0000 0.0000
# 4 0.0000 0.0000 0.0000 11.3654 0.0000 0.0000
# 5 0.0000 0.0000 0.0000 0.0000 11.3654 0.0000
# 6 0.0000 0.0000 0.0000 0.0000 0.0000 30.7850
#
#
#
# Elastic Compliance Matrix: (Units=1/GPa)
#
#
# Indices 1 2 3 4 5 6 
#
# 1 0.015642 0.002537 -0.002770 0.000000 0.000000 0.000000
# 2 0.002537 0.015642 -0.002770 0.000000 0.000000 0.000000
# 3 -0.002770 -0.002770 0.006783 0.000000 0.000000 0.000000
# 4 0.000000 0.000000 0.000000 0.087986 0.000000 0.000000
# 5 0.000000 0.000000 0.000000 0.000000 0.087986 0.000000
# 6 0.000000 0.000000 0.000000 0.000000 0.000000 0.032483
#
#
# Mechanical properties :
#
#
# Convention : Reuss Voigt Hill
#
# Bulk Modulus (GPa) = 31.19115 44.07549 37.63332
# Shear Modulus (GPa) = 18.99572 28.23250 23.61411
#
# Velocity S-wave (km/s) = 2.82265 3.44115 3.14713
# Velocity P-wave (km/s) = 4.86884 5.85450 5.38427
#
# Compressibility (1/GPa) = 0.03206038
#
# Stress axis : x y z
#
# Youngs Moduli (GPa) = 63.93002 63.93002 147.42683
#
# Poissons Ratio (x) = -0.16219 0.40840
# Poissons Ratio (y) = -0.16219 0.40840
# Poissons Ratio (z) = 0.17710 0.17710
#
# Static dielectric constant tensor:
#      x y z
#    x 1.924900 0.000000 0.000000 
#    y 0.000000 1.924900 0.000000 
#    z 0.000000 0.000000 1.929740 
# 
# From -- ./inp_files/633.got.cif
#   From: 2010.05.17/outbox.cif.g08.bks.cpg/sg127_1_cif.got.tgz:633.got - 2010.05.20 12:03:00.
