data_PCOD9564831
_publ_section_title
;
Structure prediction by ZEFSAII (Michael W. Deem and Ramdas Pophale) SiO2 
 PCOD9564831
Probable space group: P 4/M N C
;
_chemical_formula_sum "Si O2"
_cell_formula_units_Z 112
_cell_length_a 15.620879
_cell_length_b 15.620879
_cell_length_c 22.556452
_cell_angle_alpha 90.000000
_cell_angle_beta 90.000000
_cell_angle_gamma 90.000000
_cell_volume 5504.041824
_symmetry_space_group_name_H-M "P 4/M N C"
_symmetry_group_IT_number 128
_symmetry_cell_setting 'tetragonal'
loop_
_space_group_symop_operation_xyz
x,y,z
-y,x,z
-x,-y,z
y,-x,z
1/2+x,1/2-y,1/2-z
1/2-x,1/2+y,1/2-z
1/2+y,1/2+x,1/2-z
1/2-y,1/2-x,1/2-z
-x,-y,-z
y,-x,-z
x,y,-z
-y,x,-z
1/2-x,1/2+y,1/2+z
1/2+x,1/2-y,1/2+z
1/2-y,1/2-x,1/2+z
1/2+y,1/2+x,1/2+z
loop_
_atom_site_type_symbol
_atom_site_label
_atom_site_fract_x
_atom_site_fract_y
_atom_site_fract_z
Si Si1 0.655334 0.864104 0.432699
Si Si2 0.885125 0.078583 0.687963
Si Si3 0.967349 0.862221 0.070706
Si Si4 0.853975 0.816826 0.432269
Si Si5 0.444206 0.850805 0.108773
Si Si6 0.713714 0.072719 0.737261
Si Si7 0.808580 0.505552 0.363467
O O1 0.631832 0.839353 0.500000
O O2 0.753441 0.835709 0.423158
O O3 0.589474 0.821279 0.387783
O O4 0.645978 0.966698 0.425815
O O5 0.867418 0.095410 0.618640
O O6 0.807110 0.112577 0.726574
O O7 0.977760 0.114543 0.701357
O O8 0.954019 0.775179 0.105885
O O9 0.900682 0.938300 0.084336
O O10 0.963262 0.847006 0.000000
O O11 0.875338 0.840712 0.500000
O O12 0.881022 0.718451 0.421321
O O13 0.466603 0.814458 0.174347
O O14 0.391954 0.938465 0.117992
O O15 0.648655 0.148655 0.750000
O O16 0.705646 0.010925 0.793175
#
# Coordination Sequence:
#
# PCOD9564831 Si02
#       7
#    16  16  16  16  16  16  16
#     4  11  24  40  61  96 129 160 210 262 321 393
#     4  10  21  39  62  90 124 158 203 260 311 364
#     4   9  20  38  58  84 123 163 202 254 314 382
#     4  10  21  38  62  89 124 166 206 254 315 384
#     4  10  22  41  62  85 126 167 204 262 320 371
#     4   9  21  42  60  85 121 160 207 252 308 374
#     4  11  23  38  63  90 122 164 212 264 315 379
#
# _framework density 20.348680999999999
#
# number of rings (size 3 to 8) (size 9 to 14) (size 15 to 20)
#    0.000    2.000    0.000    3.429    2.000    6.286 
#    5.143    4.286    0.000    0.000    0.000    0.000 
#    0.000    0.000    0.000    0.000    0.000    0.000 
#
# Total GULP energy -625485.356299 kJ/mol
# GULP energy per Si atom -5584.690681 kJ/mol
# Density = 2.030237 g / cm^3
# Si number density = 20.348681 Si / 1000 Ang^3
#
#
#
# Elastic Constant Matrix: (Units=GPa)
#
#
# Indices 1 2 3 4 5 6 
#
# 1 42.8866 5.0310 35.7675 0.0000 0.0000 0.0000
# 2 5.0310 42.8866 35.7675 0.0000 0.0000 0.0000
# 3 35.7675 35.7675 91.4309 0.0000 0.0000 0.0000
# 4 0.0000 0.0000 0.0000 22.3105 0.0000 0.0000
# 5 0.0000 0.0000 0.0000 0.0000 22.3105 0.0000
# 6 0.0000 0.0000 0.0000 0.0000 0.0000 14.4529
#
#
#
# Elastic Compliance Matrix: (Units=1/GPa)
#
#
# Indices 1 2 3 4 5 6 
#
# 1 0.038292 0.011876 -0.019625 0.000000 0.000000 0.000000
# 2 0.011876 0.038292 -0.019625 0.000000 0.000000 0.000000
# 3 -0.019625 -0.019625 0.026292 0.000000 0.000000 0.000000
# 4 0.000000 0.000000 0.000000 0.044822 0.000000 0.000000
# 5 0.000000 0.000000 0.000000 0.000000 0.044822 0.000000
# 6 0.000000 0.000000 0.000000 0.000000 0.000000 0.069190
#
#
# Mechanical properties :
#
#
# Convention : Reuss Voigt Hill
#
# Bulk Modulus (GPa) = 20.77907 36.70401 28.74154
# Shear Modulus (GPa) = 15.03753 18.52400 16.78076
#
# Velocity S-wave (km/s) = 2.72139 3.02044 2.87481
# Velocity P-wave (km/s) = 4.48423 5.49916 5.01742
#
# Compressibility (1/GPa) = 0.04812534
#
# Stress axis : x y z
#
# Youngs Moduli (GPa) = 26.11528 26.11528 38.03448
#
# Poissons Ratio (x) = -0.31013 0.74644
# Poissons Ratio (y) = -0.31013 0.74644
# Poissons Ratio (z) = 0.51252 0.51252
#
# Static dielectric constant tensor:
#      x y z
#    x 1.718550 0.000000 0.000000 
#    y 0.000000 1.718550 0.000000 
#    z 0.000000 0.000000 1.713970 
# 
# From -- ./inp_files/6440.got.cif
#   From: 2010.05.17/outbox.cif.g08.bks.cpg/sg128_4_cif.got.tgz:6440.got - 2010.05.20 12:07:25.
