data_PCOD9564373
_publ_section_title
;
Structure prediction by ZEFSAII (Michael W. Deem and Ramdas Pophale) SiO2 
 PCOD9564373
Probable space group: P 4/M B M
;
_chemical_formula_sum "Si O2"
_cell_formula_units_Z 96
_cell_length_a 20.178194
_cell_length_b 20.178194
_cell_length_c 15.676161
_cell_angle_alpha 90.000000
_cell_angle_beta 90.000000
_cell_angle_gamma 90.000000
_cell_volume 6382.698080
_symmetry_space_group_name_H-M "P 4/M B M"
_symmetry_group_IT_number 127
_symmetry_cell_setting 'tetragonal'
loop_
_space_group_symop_operation_xyz
x,y,z
-y,x,z
-x,-y,z
y,-x,z
1/2+x,1/2-y,-z
1/2-x,1/2+y,-z
1/2+y,1/2+x,-z
1/2-y,1/2-x,-z
-x,-y,-z
y,-x,-z
x,y,-z
-y,x,-z
1/2-x,1/2+y,z
1/2+x,1/2-y,z
1/2-y,1/2-x,z
1/2+y,1/2+x,z
loop_
_atom_site_type_symbol
_atom_site_label
_atom_site_fract_x
_atom_site_fract_y
_atom_site_fract_z
Si Si1 0.274113 0.340098 0.749999
Si Si2 0.051966 0.335600 0.750000
Si Si3 0.839137 0.225317 0.596102
Si Si4 0.160864 0.774684 0.903898
Si Si5 0.052966 0.665293 0.900075
Si Si6 0.552965 0.834709 0.400075
O O1 0.218078 0.281923 0.749999
O O2 0.233304 0.407695 0.749999
O O3 0.318646 0.327426 0.666730
O O4 0.318645 0.327426 0.833269
O O5 0.105322 0.394679 0.750002
O O6 0.006186 0.340275 0.833633
O O7 0.006187 0.340276 0.666367
O O8 0.844060 0.198494 0.500000
O O9 0.780843 0.280843 0.595295
O O10 0.904953 0.267584 0.616158
O O11 0.219158 0.719158 0.904705
O O12 0.095048 0.732418 0.883843
O O13 0.155942 0.801507 0.000000
O O14 0.104475 0.604475 0.888205
O O15 0.032971 0.665159 0.000000
O O16 0.532971 0.834842 0.500000
O O17 0.604473 0.895528 0.388205
#
# Coordination Sequence:
#
# PCOD9564373 Si02
#       6
#    16  16  16  16  16  16
#     4   9  17  27  40  61  87 112 136 169 221 273
#     4  11  22  30  39  62  96 127 147 170 212 261
#     4   8  14  27  47  64  76  99 141 188 225 254
#     4   8  14  27  47  64  76  99 141 188 225 254
#     4   9  18  32  48  63  81 114 159 194 213 238
#     4   9  18  32  48  63  81 114 159 194 213 238
#
# _framework density 15.040661999999999
#
# number of rings (size 3 to 8) (size 9 to 14) (size 15 to 20)
#    0.000    3.000    0.000    3.500    0.000    6.000 
#    0.000    5.000    0.000    0.000    0.000    0.000 
#    0.000   10.667    0.000   29.333    0.000    2.667 
#
# Total GULP energy -534634.766588 kJ/mol
# GULP energy per Si atom -5569.112152 kJ/mol
# Density = 1.500643 g / cm^3
# Si number density = 15.040662 Si / 1000 Ang^3
#
#
#
# Elastic Constant Matrix: (Units=GPa)
#
#
# Indices 1 2 3 4 5 6 
#
# 1 53.6430 59.5411 74.3710 0.0000 0.0000 0.0000
# 2 59.5411 53.6430 74.3710 0.0000 0.0000 0.0000
# 3 74.3710 74.3710 128.2140 0.0000 0.0000 0.0000
# 4 0.0000 0.0000 0.0000 9.0470 0.0000 0.0000
# 5 0.0000 0.0000 0.0000 0.0000 9.0470 0.0000
# 6 0.0000 0.0000 0.0000 0.0000 0.0000 15.8758
#
#
#
# Elastic Compliance Matrix: (Units=1/GPa)
#
#
# Indices 1 2 3 4 5 6 
#
# 1 -0.066191 0.103358 -0.021559 0.000000 0.000000 0.000000
# 2 0.103358 -0.066191 -0.021559 0.000000 0.000000 0.000000
# 3 -0.021559 -0.021559 0.032810 0.000000 0.000000 0.000000
# 4 0.000000 0.000000 0.000000 0.110533 0.000000 0.000000
# 5 0.000000 0.000000 0.000000 0.000000 0.110533 0.000000
# 6 0.000000 0.000000 0.000000 0.000000 0.000000 0.062989
#
#
# Mechanical properties :
#
#
# Convention : Reuss Voigt Hill
#
# Bulk Modulus (GPa) = 47.82726 72.45182 60.13954
# Shear Modulus (GPa) = 70.44947 8.60844 39.52896
#
# Velocity S-wave (km/s) = 6.85135 2.39497 5.13210
# Velocity P-wave (km/s) = 9.71883 7.47817 8.67118
#
# Compressibility (1/GPa) = 0.02090858
#
# Stress axis : x y z
#
# Youngs Moduli (GPa) = -15.10780 -15.10780 30.47847
#
# Poissons Ratio (x) = 1.56151 0.65708
# Poissons Ratio (y) = 1.56151 0.65708
# Poissons Ratio (z) = -0.32571 -0.32571
#
# Static dielectric constant tensor:
#      x y z
#    x 1.480020 0.000000 0.000000 
#    y 0.000000 1.480020 0.000000 
#    z 0.000000 0.000000 1.516130 
# 
# From -- ./inp_files/4551.got.cif
#   From: 2010.05.17/outbox.cif.g08.bks.cpg/sg127_3_cif.got.tgz:4551.got - 2010.05.20 12:03:00.
