data_PCOD9564508
_publ_section_title
;
Structure prediction by ZEFSAII (Michael W. Deem and Ramdas Pophale) SiO2 
 PCOD9564508
Probable space group: P 4/M B M
;
_chemical_formula_sum "Si O2"
_cell_formula_units_Z 96
_cell_length_a 21.000000
_cell_length_b 21.000000
_cell_length_c 12.000000
_cell_angle_alpha 90.000000
_cell_angle_beta 90.000000
_cell_angle_gamma 90.000000
_cell_volume 5292.000000
_symmetry_space_group_name_H-M "P 4/M B M"
_symmetry_group_IT_number 127
_symmetry_cell_setting 'tetragonal'
loop_
_space_group_symop_operation_xyz
x,y,z
-y,x,z
-x,-y,z
y,-x,z
1/2+x,1/2-y,-z
1/2-x,1/2+y,-z
1/2+y,1/2+x,-z
1/2-y,1/2-x,-z
-x,-y,-z
y,-x,-z
x,y,-z
-y,x,-z
1/2-x,1/2+y,z
1/2+x,1/2-y,z
1/2-y,1/2-x,z
1/2+y,1/2+x,z
loop_
_atom_site_type_symbol
_atom_site_label
_atom_site_fract_x
_atom_site_fract_y
_atom_site_fract_z
Si Si1 0.843864 0.444596 0.633855
Si Si2 0.218030 0.097367 0.243394
Si Si3 0.185096 0.058367 0.000000
Si Si4 0.170295 0.908080 0.000000
Si Si5 0.768310 0.161571 0.208542
Si Si6 0.309023 0.916414 0.624038
Si Si7 0.399530 0.532968 0.633214
O O1 0.837317 0.439007 0.500000
O O2 0.907546 0.407546 0.666196
O O3 0.783321 0.414793 0.693804
O O4 0.841763 0.518848 0.662328
O O5 0.200109 0.171298 0.253336
O O6 0.161476 0.055858 0.298754
O O7 0.220901 0.078935 0.112975
O O8 0.119611 0.098797 0.000000
O O9 0.172976 0.983564 0.000000
O O10 0.206380 0.877500 0.104160
O O11 0.710794 0.210794 0.183716
O O12 0.744805 0.109886 0.296702
O O13 0.282845 0.927007 0.500000
O O14 0.362215 0.862215 0.619129
O O15 0.422131 0.460774 0.658098
O O16 0.387667 0.536814 0.500000
#
# Coordination Sequence:
#
# PCOD9564508 Si02
#       7
#    16  16   8   8  16  16  16
#     4  10  21  36  56  82 111 143 180 225 283 343
#     4  11  22  36  55  81 111 147 180 235 275 332
#     4  10  24  35  54  80 109 141 189 223 273 330
#     4  10  21  39  54  78 105 141 181 226 270 320
#     4  10  21  37  57  78 105 141 182 225 274 327
#     4   9  19  35  56  83 111 141 180 224 272 330
#     4   9  20  36  53  78 110 148 190 223 264 324
#
# _framework density 18.14059
#
# number of rings (size 3 to 8) (size 9 to 14) (size 15 to 20)
#    0.000    2.167    0.000    2.750    7.000    1.833 
#    0.000    4.583    0.000    0.000    0.000    0.000 
#    0.000    6.667    0.000    0.000    0.000    0.000 
#
# Total GULP energy -535741.109066 kJ/mol
# GULP energy per Si atom -5580.636553 kJ/mol
# Density = 1.809930 g / cm^3
# Si number density = 18.140590 Si / 1000 Ang^3
#
#
#
# Elastic Constant Matrix: (Units=GPa)
#
#
# Indices 1 2 3 4 5 6 
#
# 1 156.0391 -167.4532 12.0529 0.0000 0.0000 0.0000
# 2 -167.4532 156.0391 12.0529 0.0000 0.0000 0.0000
# 3 12.0529 12.0529 27.1801 0.0000 0.0000 0.0000
# 4 0.0000 0.0000 0.0000 9.1312 0.0000 0.0000
# 5 0.0000 0.0000 0.0000 0.0000 9.1312 0.0000
# 6 0.0000 0.0000 0.0000 0.0000 0.0000 -4.5296
#
#
#
# Elastic Compliance Matrix: (Units=1/GPa)
#
#
# Indices 1 2 3 4 5 6 
#
# 1 -0.021075 -0.024166 0.020062 0.000000 0.000000 0.000000
# 2 -0.024166 -0.021075 0.020062 0.000000 0.000000 0.000000
# 3 0.020062 0.020062 0.018999 0.000000 0.000000 0.000000
# 4 0.000000 0.000000 0.000000 0.109515 0.000000 0.000000
# 5 0.000000 0.000000 0.000000 0.000000 0.109515 0.000000
# 6 0.000000 0.000000 0.000000 0.000000 0.000000 -0.220769
#
#
# Mechanical properties :
#
#
# Convention : Reuss Voigt Hill
#
# Bulk Modulus (GPa) = 114.09798 5.84039 59.96918
# Shear Modulus (GPa) = -92.78973 34.92027 -28.93473
#
# Velocity S-wave (km/s) = -7.15971 4.39222 -3.99811
# Velocity P-wave (km/s) = 2.30553 5.38039 3.43753
#
# Compressibility (1/GPa) = 0.00876440
#
# Stress axis : x y z
#
# Youngs Moduli (GPa) = -47.44961 -47.44961 52.63496
#
# Poissons Ratio (x) = -1.14668 -1.05596
# Poissons Ratio (y) = -1.14668 -1.05596
# Poissons Ratio (z) = 0.95194 0.95194
#
# Static dielectric constant tensor:
#      x y z
#    x 1.605690 0.000000 0.000000 
#    y 0.000000 1.605690 0.000000 
#    z 0.000000 0.000000 1.346620 
# 
# From -- ./inp_files/3601.got.cif
#   From: 2010.05.17/outbox.ucp.g08.bks.cvg/sg127_2_cif.got.tgz:3601.got - 2010.06.11 11:37:05.
