data_PCOD9564351
_publ_section_title
;
Structure prediction by ZEFSAII (Michael W. Deem and Ramdas Pophale) SiO2 
 PCOD9564351
Probable space group: P 4/M B M
;
_chemical_formula_sum "Si O2"
_cell_formula_units_Z 112
_cell_length_a 14.962462
_cell_length_b 14.962462
_cell_length_c 26.851747
_cell_angle_alpha 90.000000
_cell_angle_beta 90.000000
_cell_angle_gamma 90.000000
_cell_volume 6011.442085
_symmetry_space_group_name_H-M "P 4/M B M"
_symmetry_group_IT_number 127
_symmetry_cell_setting 'tetragonal'
loop_
_space_group_symop_operation_xyz
x,y,z
-y,x,z
-x,-y,z
y,-x,z
1/2+x,1/2-y,-z
1/2-x,1/2+y,-z
1/2+y,1/2+x,-z
1/2-y,1/2-x,-z
-x,-y,-z
y,-x,-z
x,y,-z
-y,x,-z
1/2-x,1/2+y,z
1/2+x,1/2-y,z
1/2-y,1/2-x,z
1/2+y,1/2+x,z
loop_
_atom_site_type_symbol
_atom_site_label
_atom_site_fract_x
_atom_site_fract_y
_atom_site_fract_z
Si Si1 0.404422 0.616813 0.555457
Si Si2 0.146486 0.505363 0.691075
Si Si3 0.646486 0.005363 0.808931
Si Si4 0.719710 0.629938 0.654187
Si Si5 0.780293 0.870061 0.154186
Si Si6 0.904418 0.116809 0.944543
Si Si7 0.606005 0.393996 0.750000
O O1 0.379725 0.512285 0.558939
O O2 0.378484 0.648745 0.500000
O O3 0.366054 0.670653 0.601599
O O4 0.101981 0.601981 0.679987
O O5 0.168051 0.500001 0.750003
O O6 0.229830 0.465952 0.661032
O O7 0.066752 0.433249 0.683770
O O8 0.601981 0.101981 0.820018
O O9 0.566752 0.933249 0.816237
O O10 0.729832 0.965951 0.838973
O O11 0.794793 0.705208 0.657873
O O12 0.652182 0.641858 0.700192
O O13 0.705210 0.794791 0.157872
O O14 0.829353 0.866049 0.101599
O O15 0.847818 0.858143 0.200193
O O16 0.012281 0.120275 0.941062
O O17 0.878478 0.148741 0.000000
O O18 0.620358 0.500000 0.750000
#
# Coordination Sequence:
#
# PCOD9564351 Si02
#       7
#    16  16  16  16  16  16  16
#     4   9  19  38  60  76  96 135 183 222 261 316
#     4   8  15  29  48  71 103 142 176 204 248 320
#     4   8  15  29  48  71 103 142 176 204 248 320
#     4  11  21  33  54  83 112 138 171 222 277 326
#     4  11  21  33  54  83 112 138 171 222 277 326
#     4   9  19  38  60  76  96 135 183 222 261 316
#     4  11  23  38  54  74 107 149 188 222 262 315
#
# _framework density 18.631138
#
# number of rings (size 3 to 8) (size 9 to 14) (size 15 to 20)
#    0.000    2.429    0.000    4.714    0.000    2.857 
#    0.000    8.571    0.000    2.571    0.000    4.000 
#    0.000    0.000    0.000    0.000    0.000    0.000 
#
# Total GULP energy -625067.220142 kJ/mol
# GULP energy per Si atom -5580.957323 kJ/mol
# Density = 1.858873 g / cm^3
# Si number density = 18.631138 Si / 1000 Ang^3
#
#
#
# Elastic Constant Matrix: (Units=GPa)
#
#
# Indices 1 2 3 4 5 6 
#
# 1 74.5801 26.1954 54.4234 0.0000 0.0000 0.0000
# 2 26.1954 74.5801 54.4234 0.0000 0.0000 0.0000
# 3 54.4234 54.4234 153.7217 0.0000 0.0000 0.0000
# 4 0.0000 0.0000 0.0000 6.7958 0.0000 0.0000
# 5 0.0000 0.0000 0.0000 0.0000 6.7958 0.0000
# 6 0.0000 0.0000 0.0000 0.0000 0.0000 13.4199
#
#
#
# Elastic Compliance Matrix: (Units=1/GPa)
#
#
# Indices 1 2 3 4 5 6 
#
# 1 0.018367 -0.002300 -0.005688 0.000000 0.000000 0.000000
# 2 -0.002300 0.018367 -0.005688 0.000000 0.000000 0.000000
# 3 -0.005688 -0.005688 0.010533 0.000000 0.000000 0.000000
# 4 0.000000 0.000000 0.000000 0.147150 0.000000 0.000000
# 5 0.000000 0.000000 0.000000 0.000000 0.147150 0.000000
# 6 0.000000 0.000000 0.000000 0.000000 0.000000 0.074516
#
#
# Mechanical properties :
#
#
# Convention : Reuss Voigt Hill
#
# Bulk Modulus (GPa) = 50.21679 63.66293 56.93986
# Shear Modulus (GPa) = 11.10926 16.59161 13.85044
#
# Velocity S-wave (km/s) = 2.44452 2.98741 2.72950
# Velocity P-wave (km/s) = 5.91433 6.79293 6.36880
#
# Compressibility (1/GPa) = 0.01991366
#
# Stress axis : x y z
#
# Youngs Moduli (GPa) = 54.44449 54.44449 94.93940
#
# Poissons Ratio (x) = 0.12524 0.54005
# Poissons Ratio (y) = 0.12524 0.54005
# Poissons Ratio (z) = 0.30970 0.30970
#
# Static dielectric constant tensor:
#      x y z
#    x 1.668190 0.000000 0.000000 
#    y 0.000000 1.668190 0.000000 
#    z 0.000000 0.000000 1.612290 
# 
# From -- ./inp_files/6176.got.cif
#   From: 2010.05.17/outbox.cif.g08.bks.cpg/sg127_4_cif.got.tgz:6176.got - 2010.05.20 12:03:00.
