data_PCOD9564546
_publ_section_title
;
Structure prediction by ZEFSAII (Michael W. Deem and Ramdas Pophale) SiO2 
 PCOD9564546
Probable space group: P 4/M N C
;
_chemical_formula_sum "Si O2"
_cell_formula_units_Z 96
_cell_length_a 23.607553
_cell_length_b 23.607553
_cell_length_c 8.267807
_cell_angle_alpha 90.000000
_cell_angle_beta 90.000000
_cell_angle_gamma 90.000000
_cell_volume 4607.785745
_symmetry_space_group_name_H-M "P 4/M N C"
_symmetry_group_IT_number 128
_symmetry_cell_setting 'tetragonal'
loop_
_space_group_symop_operation_xyz
x,y,z
-y,x,z
-x,-y,z
y,-x,z
1/2+x,1/2-y,1/2-z
1/2-x,1/2+y,1/2-z
1/2+y,1/2+x,1/2-z
1/2-y,1/2-x,1/2-z
-x,-y,-z
y,-x,-z
x,y,-z
-y,x,-z
1/2-x,1/2+y,1/2+z
1/2+x,1/2-y,1/2+z
1/2-y,1/2-x,1/2+z
1/2+y,1/2+x,1/2+z
loop_
_atom_site_type_symbol
_atom_site_label
_atom_site_fract_x
_atom_site_fract_y
_atom_site_fract_z
Si Si1 0.793053 0.378548 0.314921
Si Si2 0.501427 0.661895 0.805430
Si Si3 0.501114 0.910097 0.805803
Si Si4 0.497265 0.215882 0.185786
Si Si5 0.113967 0.121954 0.194018
Si Si6 0.804323 0.782905 0.815881
O O1 0.849215 0.349215 0.250000
O O2 0.798917 0.398900 0.500000
O O3 0.778471 0.429354 0.196798
O O4 0.745271 0.330360 0.315353
O O5 0.484124 0.724576 0.739914
O O6 0.451195 0.621315 0.747920
O O7 0.563877 0.644079 0.748302
O O8 0.502327 0.664028 0.000000
O O9 0.558370 0.941631 0.750000
O O10 0.492074 0.846257 0.742209
O O11 0.450343 0.950343 0.750000
O O12 0.503008 0.907859 0.000000
O O13 0.516945 0.214276 0.000000
O O14 0.144668 0.179640 0.260072
O O15 0.118218 0.124223 0.000000
O O16 0.774048 0.725953 0.750000
O O17 0.820337 0.769607 0.000000
#
# Coordination Sequence:
#
# PCOD9564546 Si02
#       6
#    16  16  16  16  16  16
#     4  10  18  29  49  80 114 147 185 227 281 340
#     4  11  24  42  65  91 119 156 198 250 308 367
#     4  10  20  35  54  81 116 158 201 245 292 344
#     4  10  21  36  55  82 115 150 193 241 294 350
#     4  11  23  43  65  92 125 159 201 250 301 361
#     4   9  19  34  56  86 120 155 191 235 290 348
#
# _framework density 20.834302999999998
#
# number of rings (size 3 to 8) (size 9 to 14) (size 15 to 20)
#    0.000    1.833    1.667    3.000    0.000    5.667 
#    0.000    2.500    0.000    4.000    0.000    0.000 
#    0.000    0.000    0.000    0.000    0.000    0.000 
#
# Total GULP energy -535104.046425 kJ/mol
# GULP energy per Si atom -5574.000484 kJ/mol
# Density = 2.078688 g / cm^3
# Si number density = 20.834303 Si / 1000 Ang^3
#
#
#
# Elastic Constant Matrix: (Units=GPa)
#
#
# Indices 1 2 3 4 5 6 
#
# 1 79.3922 56.5041 8.8991 0.0000 0.0000 0.0000
# 2 56.5041 79.3939 8.8971 0.0000 0.0000 0.0000
# 3 8.8991 8.8971 45.4482 0.0000 0.0000 0.0000
# 4 0.0000 0.0000 0.0000 13.2594 0.0000 0.0000
# 5 0.0000 0.0000 0.0000 0.0000 13.2592 0.0000
# 6 0.0000 0.0000 0.0000 0.0000 0.0000 31.1354
#
#
#
# Elastic Compliance Matrix: (Units=1/GPa)
#
#
# Indices 1 2 3 4 5 6 
#
# 1 0.025621 -0.018069 -0.001480 0.000000 0.000000 0.000000
# 2 -0.018069 0.025620 -0.001478 0.000000 0.000000 0.000000
# 3 -0.001480 -0.001478 0.022582 0.000000 0.000000 0.000000
# 4 0.000000 0.000000 0.000000 0.075418 0.000000 0.000000
# 5 0.000000 0.000000 0.000000 0.000000 0.075420 0.000000
# 6 0.000000 0.000000 0.000000 0.000000 0.000000 0.032118
#
#
# Mechanical properties :
#
#
# Convention : Reuss Voigt Hill
#
# Bulk Modulus (GPa) = 31.47434 39.20388 35.33911
# Shear Modulus (GPa) = 16.15922 20.19306 18.17614
#
# Velocity S-wave (km/s) = 2.78799 3.11661 2.95687
# Velocity P-wave (km/s) = 5.05011 5.63993 5.35315
#
# Compressibility (1/GPa) = 0.03177192
#
# Stress axis : x y z
#
# Youngs Moduli (GPa) = 39.03042 39.03165 44.28297
#
# Poissons Ratio (x) = 0.70524 0.06552
# Poissons Ratio (y) = 0.70522 0.06543
# Poissons Ratio (z) = 0.05775 0.05767
#
# Static dielectric constant tensor:
#      x y z
#    x 1.777130 0.000000 0.000000 
#    y 0.000000 1.777120 0.000000 
#    z 0.000000 0.000000 1.745950 
# 
# From -- ./inp_files/1488.got.cif
#   From: 2010.05.17/outbox.cif.g08.bks.cpg/sg128_1_cif.got.tgz:1488.got - 2010.05.20 12:07:25.
