data_PCOD9564044
_publ_section_title
;
Structure prediction by ZEFSAII (Michael W. Deem and Ramdas Pophale) SiO2 
 PCOD9564044
Probable space group: P 4/M B M
;
_chemical_formula_sum "Si O2"
_cell_formula_units_Z 64
_cell_length_a 19.561688
_cell_length_b 19.561688
_cell_length_c 7.994598
_cell_angle_alpha 90.000000
_cell_angle_beta 90.000000
_cell_angle_gamma 90.000000
_cell_volume 3059.209972
_symmetry_space_group_name_H-M "P 4/M B M"
_symmetry_group_IT_number 127
_symmetry_cell_setting 'tetragonal'
loop_
_space_group_symop_operation_xyz
x,y,z
-y,x,z
-x,-y,z
y,-x,z
1/2+x,1/2-y,-z
1/2-x,1/2+y,-z
1/2+y,1/2+x,-z
1/2-y,1/2-x,-z
-x,-y,-z
y,-x,-z
x,y,-z
-y,x,-z
1/2-x,1/2+y,z
1/2+x,1/2-y,z
1/2-y,1/2-x,z
1/2+y,1/2+x,z
loop_
_atom_site_type_symbol
_atom_site_label
_atom_site_fract_x
_atom_site_fract_y
_atom_site_fract_z
Si Si1 0.261010 0.238991 0.815126
Si Si2 0.244701 0.532415 0.298181
Si Si3 0.103586 0.038516 0.201527
Si Si4 0.861336 0.361336 0.311814
Si Si5 0.227892 0.378937 0.301800
O O1 0.303073 0.196928 0.682645
O O2 0.180027 0.229140 0.788621
O O3 0.281826 0.218175 0.000000
O O4 0.238716 0.532602 0.500000
O O5 0.320630 0.558438 0.257247
O O6 0.180862 0.576543 0.232039
O O7 0.239011 0.454484 0.238010
O O8 0.039525 0.085328 0.257481
O O9 0.102672 0.038845 0.000000
O O10 0.882027 0.382027 0.500000
O O11 0.243385 0.376697 0.500000
O O12 0.150542 0.349459 0.282907
#
# Coordination Sequence:
#
# PCOD9564044 Si02
#       5
#     8  16  16   8  16
#     4  10  20  34  56  82 106 143 188 225 275 334
#     4  10  21  36  57  81 110 148 186 230 284 332
#     4   9  20  37  54  77 112 148 180 225 282 335
#     4  10  22  38  53  80 118 148 184 236 284 332
#     4   8  17  35  56  78 106 137 178 229 275 324
#
# _framework density 20.920432000000002
#
# number of rings (size 3 to 8) (size 9 to 14) (size 15 to 20)
#    0.750    2.000    0.000    1.500    3.500    3.000 
#    0.000    1.875    0.000    3.750    0.000    0.875 
#    0.000    0.000    0.000    0.000    0.000    0.000 
#
# Total GULP energy -356526.075332 kJ/mol
# GULP energy per Si atom -5570.719927 kJ/mol
# Density = 2.087282 g / cm^3
# Si number density = 20.920432 Si / 1000 Ang^3
#
#
#
# Elastic Constant Matrix: (Units=GPa)
#
#
# Indices 1 2 3 4 5 6 
#
# 1 66.3522 -13.1689 3.0841 0.0000 0.0000 0.0000
# 2 -13.1689 66.3521 3.0840 0.0000 0.0000 0.0000
# 3 3.0841 3.0840 27.3721 0.0000 0.0000 0.0000
# 4 0.0000 0.0000 0.0000 37.8636 0.0000 0.0000
# 5 0.0000 0.0000 0.0000 0.0000 37.8768 0.0000
# 6 0.0000 0.0000 0.0000 0.0000 0.0000 26.0651
#
#
#
# Elastic Compliance Matrix: (Units=1/GPa)
#
#
# Indices 1 2 3 4 5 6 
#
# 1 0.015814 0.003238 -0.002147 0.000000 0.000000 0.000000
# 2 0.003238 0.015814 -0.002147 0.000000 0.000000 0.000000
# 3 -0.002147 -0.002147 0.037017 0.000000 0.000000 0.000000
# 4 0.000000 0.000000 0.000000 0.026411 0.000000 0.000000
# 5 0.000000 0.000000 0.000000 0.000000 0.026401 0.000000
# 6 0.000000 0.000000 0.000000 0.000000 0.000000 0.038366
#
#
# Mechanical properties :
#
#
# Convention : Reuss Voigt Hill
#
# Bulk Modulus (GPa) = 15.02977 16.23054 15.63016
# Shear Modulus (GPa) = 27.15766 31.49955 29.32861
#
# Velocity S-wave (km/s) = 3.60688 3.88452 3.74827
# Velocity P-wave (km/s) = 4.95439 5.28152 5.12057
#
# Compressibility (1/GPa) = 0.06653462
#
# Stress axis : x y z
#
# Youngs Moduli (GPa) = 63.23688 63.23674 27.01437
#
# Poissons Ratio (x) = -0.20478 0.05799
# Poissons Ratio (y) = -0.20478 0.05799
# Poissons Ratio (z) = 0.13575 0.13574
#
# Static dielectric constant tensor:
#      x y z
#    x 1.782710 0.000000 0.000000 
#    y 0.000000 1.782710 0.000000 
#    z 0.000000 0.000000 1.758070 
# 
# From -- ./inp_files/1441.got.cif
#   From: 2010.05.17/outbox.cif.g08.bks.cpg/sg127_1_cif.got.tgz:1441.got - 2010.05.20 12:03:00.
