data_PCOD9564865
_publ_section_title
;
Structure prediction by ZEFSAII (Michael W. Deem and Ramdas Pophale) SiO2 
 PCOD9564865
Probable space group: P 4/M N C
;
_chemical_formula_sum "Si O2"
_cell_formula_units_Z 88
_cell_length_a 13.871553
_cell_length_b 13.871553
_cell_length_c 22.268752
_cell_angle_alpha 90.000000
_cell_angle_beta 90.000000
_cell_angle_gamma 90.000000
_cell_volume 4284.952873
_symmetry_space_group_name_H-M "P 4/M N C"
_symmetry_group_IT_number 128
_symmetry_cell_setting 'tetragonal'
loop_
_space_group_symop_operation_xyz
x,y,z
-y,x,z
-x,-y,z
y,-x,z
1/2+x,1/2-y,1/2-z
1/2-x,1/2+y,1/2-z
1/2+y,1/2+x,1/2-z
1/2-y,1/2-x,1/2-z
-x,-y,-z
y,-x,-z
x,y,-z
-y,x,-z
1/2-x,1/2+y,1/2+z
1/2+x,1/2-y,1/2+z
1/2-y,1/2-x,1/2+z
1/2+y,1/2+x,1/2+z
loop_
_atom_site_type_symbol
_atom_site_label
_atom_site_fract_x
_atom_site_fract_y
_atom_site_fract_z
Si Si1 0.159446 0.981451 0.000000
Si Si2 0.046972 0.155452 0.388967
Si Si3 0.856638 0.508752 0.065394
Si Si4 0.053595 0.303345 0.107035
Si Si5 0.880570 0.371796 0.181220
Si Si6 0.190635 0.259547 0.314162
O O1 0.223766 0.971917 0.941098
O O2 0.081429 0.896785 0.000000
O O3 0.051338 0.247191 0.432846
O O4 0.090832 0.204030 0.328418
O O5 0.938596 0.114834 0.395267
O O6 0.932443 0.595063 0.072739
O O7 0.866119 0.448610 0.127188
O O8 0.867970 0.460119 0.000000
O O9 0.156967 0.288932 0.137921
O O10 0.970770 0.310562 0.157001
O O11 0.903099 0.403099 0.250000
O O12 0.780060 0.314011 0.183756
O O13 0.190353 0.309648 0.250000
#
# Coordination Sequence:
#
# PCOD9564865 Si02
#       6
#     8  16  16  16  16  16
#     4  11  24  46  71  98 134 181 236 291 351 410
#     4  10  21  41  66  96 136 179 221 277 343 417
#     4  11  24  42  66 101 133 174 222 277 350 414
#     4  11  24  41  67  98 133 177 225 285 342 407
#     4  11  25  44  68  99 137 180 229 281 345 410
#     4  10  23  41  67  98 135 181 233 280 343 409
#
# _framework density 20.536981999999998
#
# number of rings (size 3 to 8) (size 9 to 14) (size 15 to 20)
#    0.000    1.364    2.727    1.636    6.364    2.182 
#    1.636    0.909    0.000    2.182    0.000    0.000 
#    0.000    0.000    0.000    0.000    0.000    0.000 
#
# Total GULP energy -490700.927345 kJ/mol
# GULP energy per Si atom -5576.146902 kJ/mol
# Density = 2.049024 g / cm^3
# Si number density = 20.536982 Si / 1000 Ang^3
#
#
#
# Elastic Constant Matrix: (Units=GPa)
#
#
# Indices 1 2 3 4 5 6 
#
# 1 94.2356 21.8791 52.5176 0.0000 0.0000 0.0000
# 2 21.8791 94.2355 52.5176 0.0000 0.0000 0.0000
# 3 52.5176 52.5176 181.8952 0.0000 0.0000 0.0000
# 4 0.0000 0.0000 0.0000 86.7936 0.0000 0.0000
# 5 0.0000 0.0000 0.0000 0.0000 86.6729 0.0000
# 6 0.0000 0.0000 0.0000 0.0000 0.0000 67.2922
#
#
#
# Elastic Compliance Matrix: (Units=1/GPa)
#
#
# Indices 1 2 3 4 5 6 
#
# 1 0.012739 -0.001082 -0.003366 0.000000 0.000000 0.000000
# 2 -0.001082 0.012739 -0.003366 0.000000 0.000000 0.000000
# 3 -0.003366 -0.003366 0.007441 0.000000 0.000000 0.000000
# 4 0.000000 0.000000 0.000000 0.011522 0.000000 0.000000
# 5 0.000000 0.000000 0.000000 0.000000 0.011538 0.000000
# 6 0.000000 0.000000 0.000000 0.000000 0.000000 0.014861
#
#
# Mechanical properties :
#
#
# Convention : Reuss Voigt Hill
#
# Bulk Modulus (GPa) = 57.82989 69.35499 63.59244
# Shear Modulus (GPa) = 54.21348 64.38188 59.29768
#
# Velocity S-wave (km/s) = 5.14347 5.60511 5.37925
# Velocity P-wave (km/s) = 7.96830 8.70252 8.34349
#
# Compressibility (1/GPa) = 0.01729210
#
# Stress axis : x y z
#
# Youngs Moduli (GPa) = 78.50209 78.50202 134.38882
#
# Poissons Ratio (x) = 0.08494 0.45229
# Poissons Ratio (y) = 0.08494 0.45229
# Poissons Ratio (z) = 0.26420 0.26420
#
# Static dielectric constant tensor:
#      x y z
#    x 1.744390 0.000000 0.000000 
#    y 0.000000 1.744390 0.000000 
#    z 0.000000 0.000000 1.793790 
# 
# From -- ./inp_files/5615.got.cif
#   From: 2010.05.17/outbox.cif.g08.bks.cpg/sg128_3_cif.got.tgz:5615.got - 2010.05.20 12:07:25.
