data_PCOD9564984
_publ_section_title
;
Structure prediction by ZEFSAII (Michael W. Deem and Ramdas Pophale) SiO2 
 PCOD9564984
Probable space group: P 4/M N C
;
_chemical_formula_sum "Si O2"
_cell_formula_units_Z 104
_cell_length_a 20.284888
_cell_length_b 20.284888
_cell_length_c 14.662641
_cell_angle_alpha 90.000000
_cell_angle_beta 90.000000
_cell_angle_gamma 90.000000
_cell_volume 6033.334856
_symmetry_space_group_name_H-M "P 4/M N C"
_symmetry_group_IT_number 128
_symmetry_cell_setting 'tetragonal'
loop_
_space_group_symop_operation_xyz
x,y,z
-y,x,z
-x,-y,z
y,-x,z
1/2+x,1/2-y,1/2-z
1/2-x,1/2+y,1/2-z
1/2+y,1/2+x,1/2-z
1/2-y,1/2-x,1/2-z
-x,-y,-z
y,-x,-z
x,y,-z
-y,x,-z
1/2-x,1/2+y,1/2+z
1/2+x,1/2-y,1/2+z
1/2-y,1/2-x,1/2+z
1/2+y,1/2+x,1/2+z
loop_
_atom_site_type_symbol
_atom_site_label
_atom_site_fract_x
_atom_site_fract_y
_atom_site_fract_z
Si Si1 0.101056 0.172618 0.610656
Si Si2 0.747787 0.752214 0.250000
Si Si3 0.074762 0.573307 0.639914
Si Si4 0.691848 0.179115 0.395571
Si Si5 0.139348 0.705705 0.396625
Si Si6 0.423771 0.923476 0.139951
Si Si7 0.183219 0.046215 0.608840
O O1 0.099434 0.169381 0.500000
O O2 0.137606 0.241670 0.629085
O O3 0.139001 0.107125 0.643029
O O4 0.026392 0.172126 0.646250
O O5 0.761542 0.692624 0.322233
O O6 0.734248 0.811435 0.321473
O O7 0.074537 0.574537 0.750000
O O8 0.126101 0.628318 0.608902
O O9 0.090925 0.498717 0.611125
O O10 0.999527 0.589695 0.610727
O O11 0.697134 0.201971 0.500000
O O12 0.630359 0.129364 0.389614
O O13 0.159983 0.724133 0.500000
O O14 0.069722 0.741840 0.379596
O O15 0.423260 0.923260 0.250000
O O16 0.170849 0.042187 0.500000
#
# Coordination Sequence:
#
# PCOD9564984 Si02
#       7
#    16   8  16  16  16  16  16
#     4   9  17  29  46  71 101 131 166 205 246 296
#     4  12  22  36  52  72  98 134 174 226 260 312
#     4   9  18  33  53  79 110 142 176 216 265 319
#     4  11  21  35  54  75 101 137 178 216 262 314
#     4  11  21  35  54  75 101 137 178 216 262 314
#     4   9  18  33  53  79 110 142 176 216 265 319
#     4   9  17  29  46  71 101 131 166 205 246 296
#
# _framework density 17.237565
#
# number of rings (size 3 to 8) (size 9 to 14) (size 15 to 20)
#    0.000    2.154    3.077    2.308    0.000    2.769 
#    0.000    3.077    0.000    0.000    0.000    0.000 
#    0.000    0.000    0.000    0.000    0.000    4.923 
#
# Total GULP energy -578965.693470 kJ/mol
# GULP energy per Si atom -5566.977822 kJ/mol
# Density = 1.719833 g / cm^3
# Si number density = 17.237565 Si / 1000 Ang^3
#
#
#
# Elastic Constant Matrix: (Units=GPa)
#
#
# Indices 1 2 3 4 5 6 
#
# 1 93.3511 44.1201 20.7300 0.0000 0.0000 0.0000
# 2 44.1201 93.3509 20.7303 0.0000 0.0000 0.0000
# 3 20.7300 20.7303 85.4447 0.0000 0.0000 0.0000
# 4 0.0000 0.0000 0.0000 11.1026 0.0000 0.0000
# 5 0.0000 0.0000 0.0000 0.0000 11.1026 0.0000
# 6 0.0000 0.0000 0.0000 0.0000 0.0000 26.9830
#
#
#
# Elastic Compliance Matrix: (Units=1/GPa)
#
#
# Indices 1 2 3 4 5 6 
#
# 1 0.014080 -0.006232 -0.001904 0.000000 0.000000 0.000000
# 2 -0.006232 0.014081 -0.001904 0.000000 0.000000 0.000000
# 3 -0.001904 -0.001904 0.012627 0.000000 0.000000 0.000000
# 4 0.000000 0.000000 0.000000 0.090069 0.000000 0.000000
# 5 0.000000 0.000000 0.000000 0.000000 0.090069 0.000000
# 6 0.000000 0.000000 0.000000 0.000000 0.000000 0.037060
#
#
# Mechanical properties :
#
#
# Convention : Reuss Voigt Hill
#
# Bulk Modulus (GPa) = 48.29092 49.25640 48.77366
# Shear Modulus (GPa) = 17.54575 22.27542 19.91059
#
# Velocity S-wave (km/s) = 3.19388 3.59870 3.40232
# Velocity P-wave (km/s) = 6.45577 6.77529 6.61746
#
# Compressibility (1/GPa) = 0.02070783
#
# Stress axis : x y z
#
# Youngs Moduli (GPa) = 71.02040 71.02011 79.19265
#
# Poissons Ratio (x) = 0.44259 0.15079
# Poissons Ratio (y) = 0.44260 0.15080
# Poissons Ratio (z) = 0.13523 0.13524
#
# Static dielectric constant tensor:
#      x y z
#    x 1.607260 0.000000 0.000000 
#    y 0.000000 1.607260 0.000000 
#    z 0.000000 0.000000 1.633140 
# 
# From -- ./inp_files/4054.got.cif
#   From: 2010.05.17/outbox.cif.g08.bks.cpg/sg128_3_cif.got.tgz:4054.got - 2010.05.20 12:07:25.
