data_PCOD9564445
_publ_section_title
;
Structure prediction by ZEFSAII (Michael W. Deem and Ramdas Pophale) SiO2 
 PCOD9564445
Probable space group: P 4/M B M
;
_chemical_formula_sum "Si O2"
_cell_formula_units_Z 72
_cell_length_a 11.272506
_cell_length_b 11.272506
_cell_length_c 28.727333
_cell_angle_alpha 90.000000
_cell_angle_beta 90.000000
_cell_angle_gamma 90.000000
_cell_volume 3650.364724
_symmetry_space_group_name_H-M "P 4/M B M"
_symmetry_group_IT_number 127
_symmetry_cell_setting 'tetragonal'
loop_
_space_group_symop_operation_xyz
x,y,z
-y,x,z
-x,-y,z
y,-x,z
1/2+x,1/2-y,-z
1/2-x,1/2+y,-z
1/2+y,1/2+x,-z
1/2-y,1/2-x,-z
-x,-y,-z
y,-x,-z
x,y,-z
-y,x,-z
1/2-x,1/2+y,z
1/2+x,1/2-y,z
1/2-y,1/2-x,z
1/2+y,1/2+x,z
loop_
_atom_site_type_symbol
_atom_site_label
_atom_site_fract_x
_atom_site_fract_y
_atom_site_fract_z
Si Si1 0.399959 0.899959 0.622008
Si Si2 0.302932 0.469551 0.447742
Si Si3 0.021577 0.200555 0.899913
Si Si4 0.600034 0.100034 0.272020
Si Si5 0.698650 0.527100 0.202054
Si Si6 0.980094 0.798597 0.000000
O O1 0.290273 0.950076 0.592640
O O2 0.367581 0.867581 0.674985
O O3 0.500000 0.000000 0.623627
O O4 0.404858 0.369690 0.444332
O O5 0.250477 0.462050 0.500000
O O6 0.030667 0.259035 0.849329
O O7 0.899123 0.125267 0.900041
O O8 0.026741 0.264807 0.949897
O O9 0.548622 0.210129 0.243058
O O10 0.500000 0.000000 0.273606
O O11 0.597391 0.628611 0.204682
O O12 0.875531 0.897960 0.000000
#
# Coordination Sequence:
#
# PCOD9564445 Si02
#       6
#     8  16  16   8  16   8
#     4  11  25  40  57  87 121 156 195 238 282 329
#     4   9  20  40  65  93 123 154 188 227 275 333
#     4   7  10  19  39  70 102 130 168 218 274 336
#     4  11  26  41  56  81 117 151 194 245 287 325
#     4   9  19  37  60  82 106 144 193 240 287 343
#     4   7   8  12  30  65 104 129 153 209 276 330
#
# _framework density 19.724055
#
# number of rings (size 3 to 8) (size 9 to 14) (size 15 to 20)
#    0.000    3.222    0.000    3.667    3.111    2.667 
#    0.000    2.222    0.000    0.667    0.000    1.556 
#    0.000    0.000    0.000    0.000    0.000    0.000 
#
# Total GULP energy -401199.519715 kJ/mol
# GULP energy per Si atom -5572.215552 kJ/mol
# Density = 1.967916 g / cm^3
# Si number density = 19.724055 Si / 1000 Ang^3
#
#
#
# Elastic Constant Matrix: (Units=GPa)
#
#
# Indices 1 2 3 4 5 6 
#
# 1 43.9418 8.2399 51.1438 0.0000 0.0000 0.0000
# 2 8.2399 43.9418 51.1438 0.0000 0.0000 0.0000
# 3 51.1438 51.1438 240.3722 0.0000 0.0000 0.0000
# 4 0.0000 0.0000 0.0000 16.0608 0.0000 0.0000
# 5 0.0000 0.0000 0.0000 0.0000 16.0608 0.0000
# 6 0.0000 0.0000 0.0000 0.0000 0.0000 3.3206
#
#
#
# Elastic Compliance Matrix: (Units=1/GPa)
#
#
# Indices 1 2 3 4 5 6 
#
# 1 0.030442 0.002433 -0.006995 0.000000 0.000000 0.000000
# 2 0.002433 0.030442 -0.006995 0.000000 0.000000 0.000000
# 3 -0.006995 -0.006995 0.007137 0.000000 0.000000 0.000000
# 4 0.000000 0.000000 0.000000 0.062263 0.000000 0.000000
# 5 0.000000 0.000000 0.000000 0.000000 0.062263 0.000000
# 6 0.000000 0.000000 0.000000 0.000000 0.000000 0.301148
#
#
# Mechanical properties :
#
#
# Convention : Reuss Voigt Hill
#
# Bulk Modulus (GPa) = 22.26779 61.03452 41.65116
# Shear Modulus (GPa) = 9.40240 21.60366 15.50303
#
# Velocity S-wave (km/s) = 2.18571 3.31311 2.80660
# Velocity P-wave (km/s) = 4.20523 6.75626 5.62721
#
# Compressibility (1/GPa) = 0.04490791
#
# Stress axis : x y z
#
# Youngs Moduli (GPa) = 32.84883 32.84883 140.11907
#
# Poissons Ratio (x) = -0.07991 0.98011
# Poissons Ratio (y) = -0.07991 0.98011
# Poissons Ratio (z) = 0.22977 0.22977
#
# Static dielectric constant tensor:
#      x y z
#    x 1.692430 0.000000 0.000000 
#    y 0.000000 1.692430 0.000000 
#    z 0.000000 0.000000 1.727090 
# 
# From -- ./inp_files/6442.got.cif
#   From: 2010.05.17/outbox.cif.g08.bks.cpg/sg127_4_cif.got.tgz:6442.got - 2010.05.20 12:03:00.
