data_PCOD9564648
_publ_section_title
;
Structure prediction by ZEFSAII (Michael W. Deem and Ramdas Pophale) SiO2 
 PCOD9564648
Probable space group: P 4/M N C
;
_chemical_formula_sum "Si O2"
_cell_formula_units_Z 64
_cell_length_a 12.227446
_cell_length_b 12.227446
_cell_length_c 22.153772
_cell_angle_alpha 90.000000
_cell_angle_beta 90.000000
_cell_angle_gamma 90.000000
_cell_volume 3312.220104
_symmetry_space_group_name_H-M "P 4/M N C"
_symmetry_group_IT_number 128
_symmetry_cell_setting 'tetragonal'
loop_
_space_group_symop_operation_xyz
x,y,z
-y,x,z
-x,-y,z
y,-x,z
1/2+x,1/2-y,1/2-z
1/2-x,1/2+y,1/2-z
1/2+y,1/2+x,1/2-z
1/2-y,1/2-x,1/2-z
-x,-y,-z
y,-x,-z
x,y,-z
-y,x,-z
1/2-x,1/2+y,1/2+z
1/2+x,1/2-y,1/2+z
1/2-y,1/2-x,1/2+z
1/2+y,1/2+x,1/2+z
loop_
_atom_site_type_symbol
_atom_site_label
_atom_site_fract_x
_atom_site_fract_y
_atom_site_fract_z
Si Si1 0.878610 0.551113 0.688734
Si Si2 0.558170 0.117603 0.065731
Si Si3 0.322211 0.534784 0.260928
Si Si4 0.321464 0.531448 0.882185
O O1 0.876567 0.623434 0.750000
O O2 0.865910 0.613359 0.625439
O O3 0.786805 0.459987 0.699843
O O4 0.000000 0.500000 0.687218
O O5 0.469020 0.211090 0.080059
O O6 0.500000 0.000000 0.062860
O O7 0.609106 0.138536 0.000000
O O8 0.377015 0.416150 0.273148
O O9 0.297236 0.538998 0.189401
O O10 0.378799 0.413964 0.894702
#
# Coordination Sequence:
#
# PCOD9564648 Si02
#       4
#    16  16  16  16
#     4  10  19  35  53  80 108 142 186 225 270 326
#     4  10  21  37  53  75 113 151 185 223 268 325
#     4   9  18  35  57  84 112 142 182 229 278 326
#     4   9  18  34  57  85 113 141 179 225 277 334
#
# _framework density 19.322386000000002
#
# number of rings (size 3 to 8) (size 9 to 14) (size 15 to 20)
#    0.000    2.500    2.500    1.500    0.000    1.000 
#   13.500    1.250    0.000    0.000    0.000    1.750 
#    0.000    0.000    0.000    0.000    0.000    0.000 
#
# Total GULP energy -356566.148800 kJ/mol
# GULP energy per Si atom -5571.346075 kJ/mol
# Density = 1.927841 g / cm^3
# Si number density = 19.322386 Si / 1000 Ang^3
#
#
#
# Elastic Constant Matrix: (Units=GPa)
#
#
# Indices 1 2 3 4 5 6 
#
# 1 88.9153 8.3047 14.4315 0.0000 0.0000 0.0000
# 2 8.3047 88.9153 14.4314 0.0000 0.0000 0.0000
# 3 14.4315 14.4314 121.0999 0.0000 0.0000 0.0000
# 4 0.0000 0.0000 0.0000 29.8924 0.0000 0.0000
# 5 0.0000 0.0000 0.0000 0.0000 29.8962 0.0000
# 6 0.0000 0.0000 0.0000 0.0000 0.0000 13.0875
#
#
#
# Elastic Compliance Matrix: (Units=1/GPa)
#
#
# Indices 1 2 3 4 5 6 
#
# 1 0.011534 -0.000871 -0.001271 0.000000 0.000000 0.000000
# 2 -0.000871 0.011534 -0.001271 0.000000 0.000000 0.000000
# 3 -0.001271 -0.001271 0.008561 0.000000 0.000000 0.000000
# 4 0.000000 0.000000 0.000000 0.033453 0.000000 0.000000
# 5 0.000000 0.000000 0.000000 0.000000 0.033449 0.000000
# 6 0.000000 0.000000 0.000000 0.000000 0.000000 0.076409
#
#
# Mechanical properties :
#
#
# Convention : Reuss Voigt Hill
#
# Bulk Modulus (GPa) = 40.31611 41.47399 40.89505
# Shear Modulus (GPa) = 26.31116 32.02606 29.16861
#
# Velocity S-wave (km/s) = 3.69412 4.07561 3.88954
# Velocity P-wave (km/s) = 6.25345 6.60744 6.43288
#
# Compressibility (1/GPa) = 0.02480398
#
# Stress axis : x y z
#
# Youngs Moduli (GPa) = 86.69825 86.69824 116.81543
#
# Poissons Ratio (x) = 0.07552 0.14844
# Poissons Ratio (y) = 0.07552 0.14844
# Poissons Ratio (z) = 0.11017 0.11017
#
# Static dielectric constant tensor:
#      x y z
#    x 1.716340 0.000000 0.000000 
#    y 0.000000 1.716340 0.000000 
#    z 0.000000 0.000000 1.732860 
# 
# From -- ./inp_files/6215.got.cif
#   From: 2010.05.17/outbox.cif.g08.bks.cpg/sg128_4_cif.got.tgz:6215.got - 2010.05.20 12:07:25.
