data_PCOD9564415
_publ_section_title
;
Structure prediction by ZEFSAII (Michael W. Deem and Ramdas Pophale) SiO2 
 PCOD9564415
Probable space group: P 4/M B M
;
_chemical_formula_sum "Si O2"
_cell_formula_units_Z 96
_cell_length_a 24.405731
_cell_length_b 24.405731
_cell_length_c 8.801962
_cell_angle_alpha 90.000000
_cell_angle_beta 90.000000
_cell_angle_gamma 90.000000
_cell_volume 5242.798055
_symmetry_space_group_name_H-M "P 4/M B M"
_symmetry_group_IT_number 127
_symmetry_cell_setting 'tetragonal'
loop_
_space_group_symop_operation_xyz
x,y,z
-y,x,z
-x,-y,z
y,-x,z
1/2+x,1/2-y,-z
1/2-x,1/2+y,-z
1/2+y,1/2+x,-z
1/2-y,1/2-x,-z
-x,-y,-z
y,-x,-z
x,y,-z
-y,x,-z
1/2-x,1/2+y,z
1/2+x,1/2-y,z
1/2-y,1/2-x,z
1/2+y,1/2+x,z
loop_
_atom_site_type_symbol
_atom_site_label
_atom_site_fract_x
_atom_site_fract_y
_atom_site_fract_z
Si Si1 0.590196 0.001084 0.682034
Si Si2 0.011379 0.291038 0.179634
Si Si3 0.629952 0.220305 0.318593
Si Si4 0.932155 0.199904 0.682516
Si Si5 0.191553 0.778392 0.315316
Si Si6 0.029804 0.915352 0.816876
O O1 0.599296 0.003458 0.500000
O O2 0.550451 0.949550 0.712213
O O3 0.555320 0.055320 0.724084
O O4 0.647714 0.997515 0.764903
O O5 0.073740 0.279993 0.229536
O O6 0.972787 0.246593 0.259008
O O7 0.005560 0.286732 0.000000
O O8 0.619177 0.223494 0.500000
O O9 0.665308 0.165308 0.292495
O O10 0.669555 0.270672 0.275593
O O11 0.932472 0.199062 0.500000
O O12 0.870444 0.214033 0.735941
O O13 0.950725 0.140709 0.742746
O O14 0.190970 0.776451 0.500000
O O15 0.223963 0.723963 0.263440
O O16 0.967517 0.932261 0.775270
O O17 0.031473 0.910203 0.000000
#
# Coordination Sequence:
#
# PCOD9564415 Si02
#       6
#    16  16  16  16  16  16
#     4   9  19  38  63  87 112 148 194 242 292 343
#     4  12  25  37  52  82 121 157 191 231 286 346
#     4   9  18  36  62  87 112 144 185 237 291 338
#     4  11  23  37  58  87 115 150 199 247 287 336
#     4   8  17  36  60  84 109 140 182 234 287 334
#     4   9  20  40  62  84 116 155 188 228 295 365
#
# _framework density 18.310834
#
# number of rings (size 3 to 8) (size 9 to 14) (size 15 to 20)
#    0.000    2.333    0.000    4.500    2.333    4.333 
#    0.000    4.167    0.000    3.500    0.000    0.000 
#    0.000    0.000    0.000    0.000    0.000    0.000 
#
# Total GULP energy -536020.582367 kJ/mol
# GULP energy per Si atom -5583.547733 kJ/mol
# Density = 1.826916 g / cm^3
# Si number density = 18.310834 Si / 1000 Ang^3
#
#
#
# Elastic Constant Matrix: (Units=GPa)
#
#
# Indices 1 2 3 4 5 6 
#
# 1 171.6318 65.4995 50.7422 0.0000 0.0000 0.0000
# 2 65.4995 171.6318 50.7422 0.0000 0.0000 0.0000
# 3 50.7422 50.7422 44.1305 0.0000 0.0000 0.0000
# 4 0.0000 0.0000 0.0000 3.2656 0.0000 0.0000
# 5 0.0000 0.0000 0.0000 0.0000 3.2656 0.0000
# 6 0.0000 0.0000 0.0000 0.0000 0.0000 12.6410
#
#
#
# Elastic Compliance Matrix: (Units=1/GPa)
#
#
# Indices 1 2 3 4 5 6 
#
# 1 0.008862 -0.000560 -0.009547 0.000000 0.000000 0.000000
# 2 -0.000560 0.008862 -0.009547 0.000000 0.000000 0.000000
# 3 -0.009547 -0.009547 0.044614 0.000000 0.000000 0.000000
# 4 0.000000 0.000000 0.000000 0.306220 0.000000 0.000000
# 5 0.000000 0.000000 0.000000 0.000000 0.306220 0.000000
# 6 0.000000 0.000000 0.000000 0.000000 0.000000 0.079107
#
#
# Mechanical properties :
#
#
# Convention : Reuss Voigt Hill
#
# Bulk Modulus (GPa) = 43.41630 80.15131 61.78380
# Shear Modulus (GPa) = 6.24321 18.52847 12.38584
#
# Velocity S-wave (km/s) = 1.84851 3.18447 2.60363
# Velocity P-wave (km/s) = 5.32148 7.57554 6.54625
#
# Compressibility (1/GPa) = 0.02303283
#
# Stress axis : x y z
#
# Youngs Moduli (GPa) = 112.83545 112.83545 22.41449
#
# Poissons Ratio (x) = 0.06316 0.21398
# Poissons Ratio (y) = 0.06316 0.21398
# Poissons Ratio (z) = 1.07720 1.07720
#
# Static dielectric constant tensor:
#      x y z
#    x 1.612500 0.000000 0.000000 
#    y 0.000000 1.612500 0.000000 
#    z 0.000000 0.000000 1.612690 
# 
# From -- ./inp_files/2022.got.cif
#   From: 2010.05.17/outbox.cif.g08.bks.cpg/sg127_2_cif.got.tgz:2022.got - 2010.05.20 12:03:00.
