data_PCOD9564330
_publ_section_title
;
Structure prediction by ZEFSAII (Michael W. Deem and Ramdas Pophale) SiO2 
 PCOD9564330
Probable space group: P 4/M B M
;
_chemical_formula_sum "Si O2"
_cell_formula_units_Z 60
_cell_length_a 11.721319
_cell_length_b 11.721319
_cell_length_c 22.263960
_cell_angle_alpha 90.000000
_cell_angle_beta 90.000000
_cell_angle_gamma 90.000000
_cell_volume 3058.830305
_symmetry_space_group_name_H-M "P 4/M B M"
_symmetry_group_IT_number 127
_symmetry_cell_setting 'tetragonal'
loop_
_space_group_symop_operation_xyz
x,y,z
-y,x,z
-x,-y,z
y,-x,z
1/2+x,1/2-y,-z
1/2-x,1/2+y,-z
1/2+y,1/2+x,-z
1/2-y,1/2-x,-z
-x,-y,-z
y,-x,-z
x,y,-z
-y,x,-z
1/2-x,1/2+y,z
1/2+x,1/2-y,z
1/2-y,1/2-x,z
1/2+y,1/2+x,z
loop_
_atom_site_type_symbol
_atom_site_label
_atom_site_fract_x
_atom_site_fract_y
_atom_site_fract_z
Si Si1 0.944875 0.254884 0.130022
Si Si2 0.805334 0.995684 0.000000
Si Si3 0.097074 0.402927 0.350963
Si Si4 0.000000 0.000000 0.855033
Si Si5 0.403466 0.903466 0.214658
Si Si6 0.311413 0.469274 0.430091
O O1 0.829602 0.329602 0.135875
O O2 0.929201 0.121018 0.141554
O O3 0.035617 0.305787 0.176606
O O4 0.988157 0.264750 0.061154
O O5 0.888057 0.106145 0.000000
O O6 0.128776 0.371225 0.282474
O O7 0.207260 0.449044 0.386070
O O8 0.000000 0.500000 0.351762
O O9 0.500000 0.000000 0.221159
O O10 0.409286 0.373674 0.421176
O O11 0.274917 0.463184 0.500000
#
# Coordination Sequence:
#
# PCOD9564330 Si02
#       6
#    16   8   8   4   8  16
#     4  11  23  43  66  93 132 171 212 277 340 401
#     4  11  19  37  62  98 128 154 212 272 330 406
#     4  11  23  42  66  95 127 175 232 274 312 382
#     4  12  24  41  68 100 124 168 221 268 342 412
#     4   9  24  48  64  88 132 176 226 277 322 388
#     4   9  20  40  64  98 138 170 209 267 330 389
#
# _framework density 19.615341999999998
#
# number of rings (size 3 to 8) (size 9 to 14) (size 15 to 20)
#    0.000    1.733    2.667    1.600    3.733    1.600 
#    7.200    2.000    0.000    0.000    0.000    0.000 
#    0.000    0.000    0.000    0.000    0.000    0.000 
#
# Total GULP energy -334061.722022 kJ/mol
# GULP energy per Si atom -5567.695367 kJ/mol
# Density = 1.957070 g / cm^3
# Si number density = 19.615342 Si / 1000 Ang^3
#
#
#
# Elastic Constant Matrix: (Units=GPa)
#
#
# Indices 1 2 3 4 5 6 
#
# 1 108.1553 27.9563 84.4664 0.0000 0.0000 0.0000
# 2 27.9563 108.1553 84.4664 0.0000 0.0000 0.0000
# 3 84.4664 84.4664 151.8468 0.0000 0.0000 0.0000
# 4 0.0000 0.0000 0.0000 -52.8508 0.0000 0.0000
# 5 0.0000 0.0000 0.0000 0.0000 -52.8508 0.0000
# 6 0.0000 0.0000 0.0000 0.0000 0.0000 20.6645
#
#
#
# Elastic Compliance Matrix: (Units=1/GPa)
#
#
# Indices 1 2 3 4 5 6 
#
# 1 0.018099 0.005630 -0.013200 0.000000 0.000000 0.000000
# 2 0.005630 0.018099 -0.013200 0.000000 0.000000 0.000000
# 3 -0.013200 -0.013200 0.021271 0.000000 0.000000 0.000000
# 4 0.000000 0.000000 0.000000 -0.018921 0.000000 0.000000
# 5 0.000000 0.000000 0.000000 0.000000 -0.018921 0.000000
# 6 0.000000 0.000000 0.000000 0.000000 0.000000 0.048392
#
#
# Mechanical properties :
#
#
# Convention : Reuss Voigt Hill
#
# Bulk Modulus (GPa) = 62.77218 84.65950 73.71584
# Shear Modulus (GPa) = 43.52793 -5.58954 18.96920
#
# Velocity S-wave (km/s) = 4.71582 -1.68990 3.11313
# Velocity P-wave (km/s) = 7.85640 6.28059 7.11227
#
# Compressibility (1/GPa) = 0.01593062
#
# Stress axis : x y z
#
# Youngs Moduli (GPa) = 55.25039 55.25039 47.01272
#
# Poissons Ratio (x) = -0.31108 0.62057
# Poissons Ratio (y) = -0.31108 0.62057
# Poissons Ratio (z) = 0.72930 0.72930
#
# Static dielectric constant tensor:
#      x y z
#    x 1.681400 0.000000 0.000000 
#    y 0.000000 1.681400 0.000000 
#    z 0.000000 0.000000 1.704140 
# 
# From -- ./inp_files/5572.got.cif
#   From: 2010.05.17/outbox.cif.g08.bks.cpg/sg127_3_cif.got.tgz:5572.got - 2010.05.20 12:03:00.
