data_PCOD9564170
_publ_section_title
;
Structure prediction by ZEFSAII (Michael W. Deem and Ramdas Pophale) SiO2 
 PCOD9564170
Probable space group: P 4/M B M
;
_chemical_formula_sum "Si O2"
_cell_formula_units_Z 116
_cell_length_a 26.411406
_cell_length_b 26.411406
_cell_length_c 7.565806
_cell_angle_alpha 90.000000
_cell_angle_beta 90.000000
_cell_angle_gamma 90.000000
_cell_volume 5277.621541
_symmetry_space_group_name_H-M "P 4/M B M"
_symmetry_group_IT_number 127
_symmetry_cell_setting 'tetragonal'
loop_
_space_group_symop_operation_xyz
x,y,z
-y,x,z
-x,-y,z
y,-x,z
1/2+x,1/2-y,-z
1/2-x,1/2+y,-z
1/2+y,1/2+x,-z
1/2-y,1/2-x,-z
-x,-y,-z
y,-x,-z
x,y,-z
-y,x,-z
1/2-x,1/2+y,z
1/2+x,1/2-y,z
1/2-y,1/2-x,z
1/2+y,1/2+x,z
loop_
_atom_site_type_symbol
_atom_site_label
_atom_site_fract_x
_atom_site_fract_y
_atom_site_fract_z
Si Si1 0.800980 0.489630 0.298142
Si Si2 0.402919 0.820840 0.714409
Si Si3 0.811743 0.998086 0.805498
Si Si4 0.237156 0.262845 0.000000
Si Si5 0.981424 0.921066 0.287608
Si Si6 0.295837 0.122820 0.284948
Si Si7 0.114279 0.820965 0.289490
Si Si8 0.341101 0.721394 0.712409
O O1 0.819145 0.486237 0.500000
O O2 0.825692 0.539864 0.218147
O O3 0.740171 0.499332 0.303971
O O4 0.809174 0.433837 0.219723
O O5 0.404365 0.825046 0.500000
O O6 0.361979 0.861979 0.778520
O O7 0.382502 0.764432 0.749936
O O8 0.862782 0.027182 0.757743
O O9 0.828913 0.939246 0.799814
O O10 0.795304 0.012766 0.000000
O O11 0.265121 0.296098 0.843574
O O12 0.981556 0.923148 0.500000
O O13 0.941412 0.963365 0.226781
O O14 0.298717 0.122440 0.500000
O O15 0.333158 0.166843 0.220683
O O16 0.236832 0.130341 0.244517
O O17 0.104183 0.823692 0.500000
O O18 0.163026 0.855060 0.253287
O O19 0.328322 0.724834 0.500000
#
# Coordination Sequence:
#
# PCOD9564170 Si02
#       8
#    16  16  16   4  16  16  16  16
#     4   9  18  34  54  75 101 139 180 215 265 328
#     4   9  17  33  55  76 101 137 183 227 265 315
#     4  11  22  35  51  77 112 138 167 217 274 326
#     4  12  22  32  52  78 112 148 179 228 269 324
#     4   9  19  37  60  79  95 128 180 225 261 312
#     4   8  14  26  48  75  99 129 171 216 261 315
#     4   9  19  34  52  72 101 143 184 218 259 315
#     4  10  21  36  53  78 111 146 185 225 269 325
#
# _framework density 21.979597999999999
#
# number of rings (size 3 to 8) (size 9 to 14) (size 15 to 20)
#    0.000    2.621    0.690    2.690    1.931    1.655 
#    1.241    3.448    0.000    4.138    0.000    2.897 
#    0.000    0.000    0.000    5.586    0.000    7.034 
#
# Total GULP energy -646092.662305 kJ/mol
# GULP energy per Si atom -5569.764330 kJ/mol
# Density = 2.192957 g / cm^3
# Si number density = 21.979598 Si / 1000 Ang^3
#
#
#
# Elastic Constant Matrix: (Units=GPa)
#
#
# Indices 1 2 3 4 5 6 
#
# 1 -5.8347 136.8716 1.0896 0.0000 0.0000 0.0000
# 2 136.8716 -5.8344 1.0906 0.0000 0.0000 0.0000
# 3 1.0896 1.0906 59.1684 0.0000 0.0000 0.0000
# 4 0.0000 0.0000 0.0000 -8.0259 0.0000 0.0000
# 5 0.0000 0.0000 0.0000 0.0000 -8.0244 0.0000
# 6 0.0000 0.0000 0.0000 0.0000 0.0000 5.6685
#
#
#
# Elastic Compliance Matrix: (Units=1/GPa)
#
#
# Indices 1 2 3 4 5 6 
#
# 1 0.000313 0.007321 -0.000141 0.000000 0.000000 0.000000
# 2 0.007321 0.000313 -0.000141 0.000000 0.000000 0.000000
# 3 -0.000141 -0.000141 0.016906 0.000000 0.000000 0.000000
# 4 0.000000 0.000000 0.000000 -0.124597 0.000000 0.000000
# 5 0.000000 0.000000 0.000000 0.000000 -0.124619 0.000000
# 6 0.000000 0.000000 0.000000 0.000000 0.000000 0.176414
#
#
# Mechanical properties :
#
#
# Convention : Reuss Voigt Hill
#
# Bulk Modulus (GPa) = 31.63451 36.17811 33.90631
# Shear Modulus (GPa) = -85.01846 -8.17988 -46.59917
#
# Velocity S-wave (km/s) = -6.22612 -1.93123 -4.60946
# Velocity P-wave (km/s) = 6.10428 3.39451 3.58744
#
# Compressibility (1/GPa) = 0.03161105
#
# Stress axis : x y z
#
# Youngs Moduli (GPa) = 3193.10057 3192.97196 59.15026
#
# Poissons Ratio (x) = -23.37443 0.00832
# Poissons Ratio (y) = -23.37537 0.00832
# Poissons Ratio (z) = 0.44928 0.44889
#
# Static dielectric constant tensor:
#      x y z
#    x 1.828140 0.000000 0.000000 
#    y 0.000000 1.828150 0.000000 
#    z 0.000000 0.000000 1.827760 
# 
# From -- ./inp_files/2425.got.cif
#   From: 2010.05.17/outbox.cif.g08.bks.cpg/sg127_2_cif.got.tgz:2425.got - 2010.05.20 12:03:00.
