data_PCOD9564460
_publ_section_title
;
Structure prediction by ZEFSAII (Michael W. Deem and Ramdas Pophale) SiO2 
 PCOD9564460
Probable space group: P 4/M B M
;
_chemical_formula_sum "Si O2"
_cell_formula_units_Z 72
_cell_length_a 10.490589
_cell_length_b 10.490589
_cell_length_c 27.685303
_cell_angle_alpha 90.000000
_cell_angle_beta 90.000000
_cell_angle_gamma 90.000000
_cell_volume 3046.835634
_symmetry_space_group_name_H-M "P 4/M B M"
_symmetry_group_IT_number 127
_symmetry_cell_setting 'tetragonal'
loop_
_space_group_symop_operation_xyz
x,y,z
-y,x,z
-x,-y,z
y,-x,z
1/2+x,1/2-y,-z
1/2-x,1/2+y,-z
1/2+y,1/2+x,-z
1/2-y,1/2-x,-z
-x,-y,-z
y,-x,-z
x,y,-z
-y,x,-z
1/2-x,1/2+y,z
1/2+x,1/2-y,z
1/2-y,1/2-x,z
1/2+y,1/2+x,z
loop_
_atom_site_type_symbol
_atom_site_label
_atom_site_fract_x
_atom_site_fract_y
_atom_site_fract_z
Si Si1 0.783076 0.006486 0.760043
Si Si2 0.282852 0.497512 0.343943
Si Si3 0.605124 0.105124 0.946714
Si Si4 0.016698 0.212905 0.864415
Si Si5 0.998811 0.782850 0.447981
O O1 0.715407 0.005171 0.708067
O O2 0.717542 0.013538 0.812222
O O3 0.881412 0.126011 0.759967
O O4 0.378971 0.376122 0.343952
O O5 0.215456 0.497887 0.395963
O O6 0.708347 0.038687 0.912363
O O7 0.500000 0.000000 0.954116
O O8 0.649806 0.149806 0.000000
O O9 0.887750 0.132125 0.864854
O O10 0.998634 0.715451 0.500000
O O11 0.121779 0.876860 0.447983
#
# Coordination Sequence:
#
# PCOD9564460 Si02
#       5
#    16  16   8  16  16
#     4   7  10  19  37  61  85 111 152 202 247 293
#     4   7   8  10  19  37  63  96 137 187 233 275
#     4  11  26  42  58  83 115 145 176 217 263 311
#     4   9  19  37  61  85 109 142 182 222 265 317
#     4   7   8   8  10  21  48  90 137 178 218 270
#
# _framework density 23.631073000000001
#
# number of rings (size 3 to 8) (size 9 to 14) (size 15 to 20)
#    0.000    4.111    0.000    4.667    1.556    0.889 
#    0.000    1.111    0.000    0.000    0.000    0.000 
#    0.000    0.000    0.000    1.000    0.000    7.111 
#
# Total GULP energy -400909.733129 kJ/mol
# GULP energy per Si atom -5568.190738 kJ/mol
# Density = 2.357729 g / cm^3
# Si number density = 23.631073 Si / 1000 Ang^3
#
#
#
# Elastic Constant Matrix: (Units=GPa)
#
#
# Indices 1 2 3 4 5 6 
#
# 1 37.8417 28.6547 36.7822 0.0000 0.0000 0.0000
# 2 28.6547 37.8417 36.7822 0.0000 0.0000 0.0000
# 3 36.7822 36.7822 350.3774 0.0000 0.0000 0.0000
# 4 0.0000 0.0000 0.0000 1740.2787 0.0000 0.0000
# 5 0.0000 0.0000 0.0000 0.0000 1740.2787 0.0000
# 6 0.0000 0.0000 0.0000 0.0000 0.0000 -44.9646
#
#
#
# Elastic Compliance Matrix: (Units=1/GPa)
#
#
# Indices 1 2 3 4 5 6 
#
# 1 0.062932 -0.045918 -0.001786 0.000000 0.000000 0.000000
# 2 -0.045918 0.062932 -0.001786 0.000000 0.000000 0.000000
# 3 -0.001786 -0.001786 0.003229 0.000000 0.000000 0.000000
# 4 0.000000 0.000000 0.000000 0.000575 0.000000 0.000000
# 5 0.000000 0.000000 0.000000 0.000000 0.000575 0.000000
# 6 0.000000 0.000000 0.000000 0.000000 0.000000 -0.022240
#
#
# Mechanical properties :
#
#
# Convention : Reuss Voigt Hill
#
# Bulk Modulus (GPa) = 33.20792 70.05544 51.63168
# Shear Modulus (GPa) = 23.03933 708.70801 365.87367
#
# Velocity S-wave (km/s) = 3.12582 17.33656 12.45646
# Velocity P-wave (km/s) = 5.20681 20.74732 15.12551
#
# Compressibility (1/GPa) = 0.03011330
#
# Stress axis : x y z
#
# Youngs Moduli (GPa) = 15.89017 15.89017 309.68563
#
# Poissons Ratio (x) = 0.72964 0.55315
# Poissons Ratio (y) = 0.72964 0.55315
# Poissons Ratio (z) = 0.02838 0.02838
#
# Static dielectric constant tensor:
#      x y z
#    x 3.275690 0.000000 0.000000 
#    y 0.000000 3.275690 0.000000 
#    z 0.000000 0.000000 2.000210 
# 
# From -- ./inp_files/6310.got.cif
#   From: 2010.05.17/outbox.cif.g08.bks.cpg/sg127_4_cif.got.tgz:6310.got - 2010.05.20 12:03:00.
