data_PCOD9564190
_publ_section_title
;
Structure prediction by ZEFSAII (Michael W. Deem and Ramdas Pophale) SiO2 
 PCOD9564190
Probable space group: P 4/M B M
;
_chemical_formula_sum "Si O2"
_cell_formula_units_Z 104
_cell_length_a 19.145953
_cell_length_b 19.145953
_cell_length_c 14.699043
_cell_angle_alpha 90.000000
_cell_angle_beta 90.000000
_cell_angle_gamma 90.000000
_cell_volume 5388.191684
_symmetry_space_group_name_H-M "P 4/M B M"
_symmetry_group_IT_number 127
_symmetry_cell_setting 'tetragonal'
loop_
_space_group_symop_operation_xyz
x,y,z
-y,x,z
-x,-y,z
y,-x,z
1/2+x,1/2-y,-z
1/2-x,1/2+y,-z
1/2+y,1/2+x,-z
1/2-y,1/2-x,-z
-x,-y,-z
y,-x,-z
x,y,-z
-y,x,-z
1/2-x,1/2+y,z
1/2+x,1/2-y,z
1/2-y,1/2-x,z
1/2+y,1/2+x,z
loop_
_atom_site_type_symbol
_atom_site_label
_atom_site_fract_x
_atom_site_fract_y
_atom_site_fract_z
Si Si1 0.281022 0.662256 0.213300
Si Si2 0.171266 0.211186 0.400700
Si Si3 0.831519 0.553413 0.395473
Si Si4 0.010010 0.116320 0.796164
Si Si5 0.761273 0.619703 0.105992
Si Si6 0.261550 0.008699 0.236662
Si Si7 0.490503 0.617137 0.000000
O O1 0.218560 0.718560 0.211641
O O2 0.316616 0.663611 0.313183
O O3 0.339527 0.693176 0.145108
O O4 0.249334 0.585945 0.196072
O O5 0.162701 0.176921 0.500000
O O6 0.240025 0.259976 0.404276
O O7 0.108950 0.267313 0.388370
O O8 0.834199 0.528902 0.500000
O O9 0.901155 0.598845 0.377131
O O10 0.814441 0.495365 0.320837
O O11 0.011046 0.182562 0.731751
O O12 0.011268 0.148342 0.899163
O O13 0.939258 0.071742 0.786720
O O14 0.824008 0.675993 0.113127
O O15 0.781224 0.553006 0.166826
O O16 0.750950 0.602545 0.000000
O O17 0.428082 0.561284 0.000000
#
# Coordination Sequence:
#
# PCOD9564190 Si02
#       7
#    16  16  16  16  16  16   8
#     4  10  21  37  55  82 119 149 175 223 288 336
#     4   8  14  29  54  78 103 139 178 216 264 322
#     4   9  18  34  57  81 105 138 183 233 276 318
#     4   9  18  30  43  66 104 142 175 212 261 316
#     4  10  22  40  58  77 107 147 190 234 277 327
#     4  12  21  31  55  85 106 137 185 233 271 333
#     4   7  12  26  42  56  84 130 170 205 244 298
#
# _framework density 19.301466000000001
#
# number of rings (size 3 to 8) (size 9 to 14) (size 15 to 20)
#    0.000    2.538    1.538    3.231    1.077    1.231 
#    2.769    0.000    0.000    1.846    0.000    3.231 
#    0.000    0.000    0.000    0.000    0.000    0.000 
#
# Total GULP energy -579744.983905 kJ/mol
# GULP energy per Si atom -5574.470999 kJ/mol
# Density = 1.925754 g / cm^3
# Si number density = 19.301466 Si / 1000 Ang^3
#
#
#
# Elastic Constant Matrix: (Units=GPa)
#
#
# Indices 1 2 3 4 5 6 
#
# 1 51.9920 -5.6676 13.5481 0.0000 0.0000 0.0000
# 2 -5.6676 51.9920 13.5481 0.0000 0.0000 0.0000
# 3 13.5481 13.5481 62.6458 0.0000 0.0000 0.0000
# 4 0.0000 0.0000 0.0000 21.0518 0.0000 0.0000
# 5 0.0000 0.0000 0.0000 0.0000 21.0518 0.0000
# 6 0.0000 0.0000 0.0000 0.0000 0.0000 23.3414
#
#
#
# Elastic Compliance Matrix: (Units=1/GPa)
#
#
# Indices 1 2 3 4 5 6 
#
# 1 0.021028 0.003685 -0.005345 0.000000 0.000000 0.000000
# 2 0.003685 0.021028 -0.005345 0.000000 0.000000 0.000000
# 3 -0.005345 -0.005345 0.018274 0.000000 0.000000 0.000000
# 4 0.000000 0.000000 0.000000 0.047502 0.000000 0.000000
# 5 0.000000 0.000000 0.000000 0.000000 0.047502 0.000000
# 6 0.000000 0.000000 0.000000 0.000000 0.000000 0.042842
#
#
# Mechanical properties :
#
#
# Convention : Reuss Voigt Hill
#
# Bulk Modulus (GPa) = 21.58790 23.27635 22.43212
# Shear Modulus (GPa) = 21.96587 22.76908 22.36748
#
# Velocity S-wave (km/s) = 3.37715 3.43834 3.40788
# Velocity P-wave (km/s) = 5.13962 5.27716 5.20885
#
# Compressibility (1/GPa) = 0.04632224
#
# Stress axis : x y z
#
# Youngs Moduli (GPa) = 47.55543 47.55543 54.72122
#
# Poissons Ratio (x) = -0.17524 0.29246
# Poissons Ratio (y) = -0.17524 0.29246
# Poissons Ratio (z) = 0.25416 0.25416
#
# Static dielectric constant tensor:
#      x y z
#    x 1.696120 0.000000 0.000000 
#    y 0.000000 1.696120 0.000000 
#    z 0.000000 0.000000 1.722940 
# 
# From -- ./inp_files/4589.got.cif
#   From: 2010.05.17/outbox.cif.g08.bks.cpg/sg127_3_cif.got.tgz:4589.got - 2010.05.20 12:03:00.
