data_PCOD9564428
_publ_section_title
;
Structure prediction by ZEFSAII (Michael W. Deem and Ramdas Pophale) SiO2 
 PCOD9564428
Probable space group: P 4/M B M
;
_chemical_formula_sum "Si O2"
_cell_formula_units_Z 72
_cell_length_a 15.204574
_cell_length_b 15.204574
_cell_length_c 18.578631
_cell_angle_alpha 90.000000
_cell_angle_beta 90.000000
_cell_angle_gamma 90.000000
_cell_volume 4294.990646
_symmetry_space_group_name_H-M "P 4/M B M"
_symmetry_group_IT_number 127
_symmetry_cell_setting 'tetragonal'
loop_
_space_group_symop_operation_xyz
x,y,z
-y,x,z
-x,-y,z
y,-x,z
1/2+x,1/2-y,-z
1/2-x,1/2+y,-z
1/2+y,1/2+x,-z
1/2-y,1/2-x,-z
-x,-y,-z
y,-x,-z
x,y,-z
-y,x,-z
1/2-x,1/2+y,z
1/2+x,1/2-y,z
1/2-y,1/2-x,z
1/2+y,1/2+x,z
loop_
_atom_site_type_symbol
_atom_site_label
_atom_site_fract_x
_atom_site_fract_y
_atom_site_fract_z
Si Si1 0.004061 0.354371 0.655241
Si Si2 0.424832 0.075169 0.914252
Si Si3 0.351798 0.003838 0.500000
Si Si4 0.307368 0.341067 0.147924
Si Si5 0.892882 0.103722 0.000000
Si Si6 0.528273 0.765324 0.192845
O O1 0.931951 0.431951 0.648286
O O2 0.097592 0.402409 0.664775
O O3 0.004070 0.305864 0.577708
O O4 0.981115 0.304726 0.727724
O O5 0.457303 0.160212 0.869119
O O6 0.500000 0.000000 0.910579
O O7 0.407727 0.092274 0.000000
O O8 0.427441 0.927441 0.500000
O O9 0.404004 0.095997 0.500000
O O10 0.223083 0.276918 0.148048
O O11 0.347075 0.354228 0.068766
O O12 0.283194 0.437483 0.175581
O O13 0.386259 0.295908 0.191334
O O14 0.997865 0.119885 0.000000
#
# Coordination Sequence:
#
# PCOD9564428 Si02
#       6
#    16   8   8  16   8  16
#     4   9  15  29  53  82 114 144 183 234 293 346
#     4  11  24  40  56  81 111 142 192 243 300 344
#     4   7  12  22  46  82 112 141 176 225 287 352
#     4  12  25  40  59  83 112 149 197 242 290 347
#     4  11  23  42  62  76 105 151 196 244 292 340
#     4  12  24  39  58  82 114 156 191 239 291 341
#
# _framework density 16.763715000000001
#
# number of rings (size 3 to 8) (size 9 to 14) (size 15 to 20)
#    0.000    1.444    4.444    3.667    3.111    0.444 
#    0.000    0.000    0.000    1.333    0.000    6.222 
#    0.000    1.778    0.000    0.000    0.000    0.000 
#
# Total GULP energy -401439.133130 kJ/mol
# GULP energy per Si atom -5575.543516 kJ/mol
# Density = 1.672556 g / cm^3
# Si number density = 16.763715 Si / 1000 Ang^3
#
#
#
# Elastic Constant Matrix: (Units=GPa)
#
#
# Indices 1 2 3 4 5 6 
#
# 1 59.4223 18.2101 25.5396 0.0000 0.0000 0.0000
# 2 18.2101 59.4221 25.5396 0.0000 0.0000 0.0000
# 3 25.5396 25.5396 162.7312 0.0000 0.0000 0.0000
# 4 0.0000 0.0000 0.0000 -184.8995 0.0000 0.0000
# 5 0.0000 0.0000 0.0000 0.0000 -184.5433 0.0000
# 6 0.0000 0.0000 0.0000 0.0000 0.0000 31.7709
#
#
#
# Elastic Compliance Matrix: (Units=1/GPa)
#
#
# Indices 1 2 3 4 5 6 
#
# 1 0.019315 -0.004950 -0.002254 0.000000 0.000000 0.000000
# 2 -0.004950 0.019315 -0.002254 0.000000 0.000000 0.000000
# 3 -0.002254 -0.002254 0.006853 0.000000 0.000000 0.000000
# 4 0.000000 0.000000 0.000000 -0.005408 0.000000 0.000000
# 5 0.000000 0.000000 0.000000 0.000000 -0.005419 0.000000
# 6 0.000000 0.000000 0.000000 0.000000 0.000000 0.031475
#
#
# Mechanical properties :
#
#
# Convention : Reuss Voigt Hill
#
# Bulk Modulus (GPa) = 37.64470 46.68381 42.16425
# Shear Modulus (GPa) = 53.24654 -53.38197 -0.06772
#
# Velocity S-wave (km/s) = 5.64198 -5.64915 -0.20120
# Velocity P-wave (km/s) = 8.05899 3.82648 5.01525
#
# Compressibility (1/GPa) = 0.02656417
#
# Stress axis : x y z
#
# Youngs Moduli (GPa) = 51.77426 51.77410 145.92711
#
# Poissons Ratio (x) = 0.25629 0.32898
# Poissons Ratio (y) = 0.25629 0.32898
# Poissons Ratio (z) = 0.11672 0.11672
#
# Static dielectric constant tensor:
#      x y z
#    x 1.564620 0.000000 0.000000 
#    y 0.000000 1.564620 0.000000 
#    z 0.000000 0.000000 1.603790 
# 
# From -- ./inp_files/4996.got.cif
#   From: 2010.05.17/outbox.cif.g08.bks.cpg/sg127_3_cif.got.tgz:4996.got - 2010.05.20 12:03:00.
