data_PCOD9564120
_publ_section_title
;
Structure prediction by ZEFSAII (Michael W. Deem and Ramdas Pophale) SiO2 
 PCOD9564120
Probable space group: P 4/M B M
;
_chemical_formula_sum "Si O2"
_cell_formula_units_Z 48
_cell_length_a 13.760890
_cell_length_b 13.760890
_cell_length_c 11.665482
_cell_angle_alpha 90.000000
_cell_angle_beta 90.000000
_cell_angle_gamma 90.000000
_cell_volume 2209.000094
_symmetry_space_group_name_H-M "P 4/M B M"
_symmetry_group_IT_number 127
_symmetry_cell_setting 'tetragonal'
loop_
_space_group_symop_operation_xyz
x,y,z
-y,x,z
-x,-y,z
y,-x,z
1/2+x,1/2-y,-z
1/2-x,1/2+y,-z
1/2+y,1/2+x,-z
1/2-y,1/2-x,-z
-x,-y,-z
y,-x,-z
x,y,-z
-y,x,-z
1/2-x,1/2+y,z
1/2+x,1/2-y,z
1/2-y,1/2-x,z
1/2+y,1/2+x,z
loop_
_atom_site_type_symbol
_atom_site_label
_atom_site_fract_x
_atom_site_fract_y
_atom_site_fract_z
Si Si1 0.747053 0.247053 0.377735
Si Si2 0.935951 0.276153 0.866904
Si Si3 0.659077 0.159077 0.137301
Si Si4 0.360293 0.573644 0.328098
O O1 0.706160 0.206160 0.500000
O O2 0.706959 0.206959 0.253647
O O3 0.723059 0.360738 0.380381
O O4 0.856775 0.356775 0.829228
O O5 0.926053 0.173179 0.803891
O O6 0.044747 0.317341 0.851261
O O7 0.920180 0.260749 0.000000
O O8 0.684747 0.184747 0.000000
O O9 0.374152 0.461393 0.357098
#
# Coordination Sequence:
#
# PCOD9564120 Si02
#       4
#     8  16   8  16
#     4  12  26  45  71  98 133 184 234 280 344 419
#     4  10  20  37  68 103 139 182 231 285 346 411
#     4  10  21  42  70 102 139 181 229 288 347 406
#     4  11  24  43  66  98 138 181 231 287 349 413
#
# _framework density 21.729289999999999
#
# number of rings (size 3 to 8) (size 9 to 14) (size 15 to 20)
#    0.000    1.333    5.000    0.500    0.000    6.000 
#    0.000    3.333    0.000    1.000    0.000    0.000 
#    0.000    0.000    0.000    0.000    0.000    0.000 
#
# Total GULP energy -267371.439056 kJ/mol
# GULP energy per Si atom -5570.238314 kJ/mol
# Density = 2.167983 g / cm^3
# Si number density = 21.729290 Si / 1000 Ang^3
#
#
#
# Elastic Constant Matrix: (Units=GPa)
#
#
# Indices 1 2 3 4 5 6 
#
# 1 112.2499 44.3907 31.9224 0.0000 0.0000 0.0000
# 2 44.3907 112.2499 31.9224 0.0000 0.0000 0.0000
# 3 31.9224 31.9224 134.5464 0.0000 0.0000 0.0000
# 4 0.0000 0.0000 0.0000 -153.8356 0.0000 0.0000
# 5 0.0000 0.0000 0.0000 0.0000 -153.8356 0.0000
# 6 0.0000 0.0000 0.0000 0.0000 0.0000 38.4969
#
#
#
# Elastic Compliance Matrix: (Units=1/GPa)
#
#
# Indices 1 2 3 4 5 6 
#
# 1 0.010902 -0.003834 -0.001677 0.000000 0.000000 0.000000
# 2 -0.003834 0.010902 -0.001677 0.000000 0.000000 0.000000
# 3 -0.001677 -0.001677 0.008228 0.000000 0.000000 0.000000
# 4 0.000000 0.000000 0.000000 -0.006500 0.000000 0.000000
# 5 0.000000 0.000000 0.000000 0.000000 -0.006500 0.000000
# 6 0.000000 0.000000 0.000000 0.000000 0.000000 0.025976
#
#
# Mechanical properties :
#
#
# Convention : Reuss Voigt Hill
#
# Bulk Modulus (GPa) = 63.87434 63.94636 63.91035
# Shear Modulus (GPa) = 79.86964 -37.11416 21.37774
#
# Velocity S-wave (km/s) = 6.06931 -4.13731 3.14000
# Velocity P-wave (km/s) = 8.86423 2.58252 6.52855
#
# Compressibility (1/GPa) = 0.01565574
#
# Stress axis : x y z
#
# Youngs Moduli (GPa) = 91.72667 91.72667 121.53524
#
# Poissons Ratio (x) = 0.35172 0.20379
# Poissons Ratio (y) = 0.35172 0.20379
# Poissons Ratio (z) = 0.15381 0.15381
#
# Static dielectric constant tensor:
#      x y z
#    x 1.789710 0.000000 0.000000 
#    y 0.000000 1.789710 0.000000 
#    z 0.000000 0.000000 1.897270 
# 
# From -- ./inp_files/2755.got.cif
#   From: 2010.05.17/outbox.cif.g08.bks.cpg/sg127_2_cif.got.tgz:2755.got - 2010.05.20 12:03:00.
