data_PCOD9564654
_publ_section_title
;
Structure prediction by ZEFSAII (Michael W. Deem and Ramdas Pophale) SiO2 
 PCOD9564654
Probable space group: P 4/M N C
;
_chemical_formula_sum "Si O2"
_cell_formula_units_Z 112
_cell_length_a 16.996935
_cell_length_b 16.996935
_cell_length_c 21.250459
_cell_angle_alpha 90.000000
_cell_angle_beta 90.000000
_cell_angle_gamma 90.000000
_cell_volume 6139.168340
_symmetry_space_group_name_H-M "P 4/M N C"
_symmetry_group_IT_number 128
_symmetry_cell_setting 'tetragonal'
loop_
_space_group_symop_operation_xyz
x,y,z
-y,x,z
-x,-y,z
y,-x,z
1/2+x,1/2-y,1/2-z
1/2-x,1/2+y,1/2-z
1/2+y,1/2+x,1/2-z
1/2-y,1/2-x,1/2-z
-x,-y,-z
y,-x,-z
x,y,-z
-y,x,-z
1/2-x,1/2+y,1/2+z
1/2+x,1/2-y,1/2+z
1/2-y,1/2-x,1/2+z
1/2+y,1/2+x,1/2+z
loop_
_atom_site_type_symbol
_atom_site_label
_atom_site_fract_x
_atom_site_fract_y
_atom_site_fract_z
Si Si1 0.211837 0.118802 0.320865
Si Si2 0.127835 0.276070 0.698921
Si Si3 0.035895 0.873607 0.570100
Si Si4 0.398232 0.174056 0.070317
Si Si5 0.467098 0.166160 0.742148
Si Si6 0.829003 0.587088 0.067934
Si Si7 0.499408 0.908783 0.384058
O O1 0.148790 0.183702 0.299899
O O2 0.170025 0.053760 0.364809
O O3 0.279043 0.143486 0.372664
O O4 0.259847 0.087260 0.260740
O O5 0.184946 0.315055 0.750000
O O6 0.136351 0.295381 0.625363
O O7 0.042850 0.315773 0.714295
O O8 0.047514 0.836777 0.500000
O O9 0.947959 0.905850 0.570788
O O10 0.493342 0.188452 0.073834
O O11 0.392490 0.081061 0.081730
O O12 0.369493 0.191771 0.000000
O O13 0.411056 0.088944 0.750000
O O14 0.503378 0.151804 0.673651
O O15 0.922994 0.595823 0.072951
O O16 0.799078 0.612612 0.000000
O O17 0.500000 0.000000 0.360573
#
# Coordination Sequence:
#
# PCOD9564654 Si02
#       7
#    16  16  16  16  16  16  16
#     4  12  23  36  51  83 116 151 188 247 297 363
#     4  12  25  38  57  85 119 156 198 247 300 349
#     4   9  19  36  57  77 104 151 204 244 284 345
#     4  10  20  34  56  84 113 149 188 235 290 347
#     4  12  22  38  60  81 109 160 200 243 294 360
#     4  10  20  36  57  84 112 145 194 241 283 335
#     4  10  19  35  57  81 111 148 196 241 276 343
#
# _framework density 18.243513
#
# number of rings (size 3 to 8) (size 9 to 14) (size 15 to 20)
#    0.000    1.286    4.286    3.429    0.000    2.857 
#    0.000    0.000    0.000    0.000    0.000    0.000 
#    0.000    0.000    0.000    0.000    0.000    9.000 
#
# Total GULP energy -623820.288268 kJ/mol
# GULP energy per Si atom -5569.824002 kJ/mol
# Density = 1.820199 g / cm^3
# Si number density = 18.243513 Si / 1000 Ang^3
#
#
#
# Elastic Constant Matrix: (Units=GPa)
#
#
# Indices 1 2 3 4 5 6 
#
# 1 60.0482 8.3991 20.5938 0.0000 0.0000 0.0000
# 2 8.3991 60.0482 20.5946 0.0000 0.0000 0.0000
# 3 20.5938 20.5946 106.1324 0.0000 0.0000 0.0000
# 4 0.0000 0.0000 0.0000 9.4636 0.0000 0.0000
# 5 0.0000 0.0000 0.0000 0.0000 9.4620 0.0000
# 6 0.0000 0.0000 0.0000 0.0000 0.0000 28.5680
#
#
#
# Elastic Compliance Matrix: (Units=1/GPa)
#
#
# Indices 1 2 3 4 5 6 
#
# 1 0.017951 -0.001410 -0.003210 0.000000 0.000000 0.000000
# 2 -0.001410 0.017951 -0.003210 0.000000 0.000000 0.000000
# 3 -0.003210 -0.003210 0.010668 0.000000 0.000000 0.000000
# 4 0.000000 0.000000 0.000000 0.105668 0.000000 0.000000
# 5 0.000000 0.000000 0.000000 0.000000 0.105686 0.000000
# 6 0.000000 0.000000 0.000000 0.000000 0.000000 0.035004
#
#
# Mechanical properties :
#
#
# Convention : Reuss Voigt Hill
#
# Bulk Modulus (GPa) = 32.35043 36.15598 34.25321
# Shear Modulus (GPa) = 15.67928 21.27480 18.47704
#
# Velocity S-wave (km/s) = 2.93481 3.41861 3.18591
# Velocity P-wave (km/s) = 5.40881 5.95349 5.68767
#
# Compressibility (1/GPa) = 0.03091149
#
# Stress axis : x y z
#
# Youngs Moduli (GPa) = 55.70635 55.70600 93.73973
#
# Poissons Ratio (x) = 0.07855 0.30087
# Poissons Ratio (y) = 0.07855 0.30088
# Poissons Ratio (z) = 0.17880 0.17880
#
# Static dielectric constant tensor:
#      x y z
#    x 1.663890 0.000000 0.000000 
#    y 0.000000 1.663890 0.000000 
#    z 0.000000 0.000000 1.662520 
# 
# From -- ./inp_files/5956.got.cif
#   From: 2010.05.17/outbox.cif.g08.bks.cpg/sg128_3_cif.got.tgz:5956.got - 2010.05.20 12:07:25.
