data_PCOD9564558
_publ_section_title
;
Structure prediction by ZEFSAII (Michael W. Deem and Ramdas Pophale) SiO2 
 PCOD9564558
Probable space group: P 4/M N C
;
_chemical_formula_sum "Si O2"
_cell_formula_units_Z 80
_cell_length_a 15.497317
_cell_length_b 15.497317
_cell_length_c 20.734330
_cell_angle_alpha 90.000000
_cell_angle_beta 90.000000
_cell_angle_gamma 90.000000
_cell_volume 4979.698395
_symmetry_space_group_name_H-M "P 4/M N C"
_symmetry_group_IT_number 128
_symmetry_cell_setting 'tetragonal'
loop_
_space_group_symop_operation_xyz
x,y,z
-y,x,z
-x,-y,z
y,-x,z
1/2+x,1/2-y,1/2-z
1/2-x,1/2+y,1/2-z
1/2+y,1/2+x,1/2-z
1/2-y,1/2-x,1/2-z
-x,-y,-z
y,-x,-z
x,y,-z
-y,x,-z
1/2-x,1/2+y,1/2+z
1/2+x,1/2-y,1/2+z
1/2-y,1/2-x,1/2+z
1/2+y,1/2+x,1/2+z
loop_
_atom_site_type_symbol
_atom_site_label
_atom_site_fract_x
_atom_site_fract_y
_atom_site_fract_z
Si Si1 0.267063 0.480403 0.073052
Si Si2 0.861588 0.165341 0.356257
Si Si3 0.070205 0.875829 0.215456
Si Si4 0.192497 0.644491 0.321394
Si Si5 0.563112 0.919858 0.925350
O O1 0.295432 0.407344 0.122407
O O2 0.320735 0.566469 0.089098
O O3 0.167821 0.507764 0.080650
O O4 0.281610 0.451666 0.000000
O O5 0.912376 0.139030 0.291573
O O6 0.814066 0.256232 0.344510
O O7 0.111217 0.790530 0.183637
O O8 0.968408 0.885986 0.200466
O O9 0.148437 0.648437 0.250000
O O10 0.138041 0.588387 0.372348
O O11 0.500000 0.000000 0.914401
O O12 0.594917 0.923919 0.000000
#
# Coordination Sequence:
#
# PCOD9564558 Si02
#       5
#    16  16  16  16  16
#     4  10  19  30  49  75 104 137 170 202 252 323
#     4  10  18  32  47  71 106 135 166 210 254 307
#     4  10  19  33  52  72 100 137 172 217 264 303
#     4   9  20  34  52  76 104 137 179 218 258 311
#     4   9  19  36  55  76 105 138 173 219 271 318
#
# _framework density 16.06523
#
# number of rings (size 3 to 8) (size 9 to 14) (size 15 to 20)
#    0.000    2.400    2.000    0.600    0.000    3.200 
#    0.000    1.000    0.000    1.200    0.000    1.400 
#    0.000    0.000    0.000    0.000    0.000    0.000 
#
# Total GULP energy -445684.804522 kJ/mol
# GULP energy per Si atom -5571.060057 kJ/mol
# Density = 1.602866 g / cm^3
# Si number density = 16.065230 Si / 1000 Ang^3
#
#
#
# Elastic Constant Matrix: (Units=GPa)
#
#
# Indices 1 2 3 4 5 6 
#
# 1 84.0174 50.2311 43.1682 0.0000 0.0000 0.0000
# 2 50.2311 84.0174 43.1682 0.0000 0.0000 0.0000
# 3 43.1682 43.1682 77.1091 0.0000 0.0000 0.0000
# 4 0.0000 0.0000 0.0000 21.9224 0.0000 0.0000
# 5 0.0000 0.0000 0.0000 0.0000 21.9224 0.0000
# 6 0.0000 0.0000 0.0000 0.0000 0.0000 19.1469
#
#
#
# Elastic Compliance Matrix: (Units=1/GPa)
#
#
# Indices 1 2 3 4 5 6 
#
# 1 0.020619 -0.008979 -0.006516 0.000000 0.000000 0.000000
# 2 -0.008979 0.020619 -0.006516 0.000000 0.000000 0.000000
# 3 -0.006516 -0.006516 0.020265 0.000000 0.000000 0.000000
# 4 0.000000 0.000000 0.000000 0.045615 0.000000 0.000000
# 5 0.000000 0.000000 0.000000 0.000000 0.045615 0.000000
# 6 0.000000 0.000000 0.000000 0.000000 0.000000 0.052228
#
#
# Mechanical properties :
#
#
# Convention : Reuss Voigt Hill
#
# Bulk Modulus (GPa) = 57.21197 57.58657 57.39927
# Shear Modulus (GPa) = 19.62249 19.83677 19.72963
#
# Velocity S-wave (km/s) = 3.49868 3.51773 3.50822
# Velocity P-wave (km/s) = 7.21184 7.24034 7.22610
#
# Compressibility (1/GPa) = 0.01747886
#
# Stress axis : x y z
#
# Youngs Moduli (GPa) = 48.49978 48.49978 49.34720
#
# Poissons Ratio (x) = 0.43549 0.32155
# Poissons Ratio (y) = 0.43549 0.32155
# Poissons Ratio (z) = 0.31603 0.31603
#
# Static dielectric constant tensor:
#      x y z
#    x 1.522460 0.000000 0.000000 
#    y 0.000000 1.522460 0.000000 
#    z 0.000000 0.000000 1.543570 
# 
# From -- ./inp_files/5518.got.cif
#   From: 2010.05.17/outbox.cif.g08.bks.cpg/sg128_3_cif.got.tgz:5518.got - 2010.05.20 12:07:25.
