data_PCOD9564579
_publ_section_title
;
Structure prediction by ZEFSAII (Michael W. Deem and Ramdas Pophale) SiO2 
 PCOD9564579
Probable space group: P 4/M N C
;
_chemical_formula_sum "Si O2"
_cell_formula_units_Z 96
_cell_length_a 23.767269
_cell_length_b 23.767269
_cell_length_c 8.164926
_cell_angle_alpha 90.000000
_cell_angle_beta 90.000000
_cell_angle_gamma 90.000000
_cell_volume 4612.228512
_symmetry_space_group_name_H-M "P 4/M N C"
_symmetry_group_IT_number 128
_symmetry_cell_setting 'tetragonal'
loop_
_space_group_symop_operation_xyz
x,y,z
-y,x,z
-x,-y,z
y,-x,z
1/2+x,1/2-y,1/2-z
1/2-x,1/2+y,1/2-z
1/2+y,1/2+x,1/2-z
1/2-y,1/2-x,1/2-z
-x,-y,-z
y,-x,-z
x,y,-z
-y,x,-z
1/2-x,1/2+y,1/2+z
1/2+x,1/2-y,1/2+z
1/2-y,1/2-x,1/2+z
1/2+y,1/2+x,1/2+z
loop_
_atom_site_type_symbol
_atom_site_label
_atom_site_fract_x
_atom_site_fract_y
_atom_site_fract_z
Si Si1 0.794636 0.380014 0.312167
Si Si2 0.501578 0.664014 0.798335
Si Si3 0.501061 0.910340 0.803855
Si Si4 0.498188 0.214215 0.186727
Si Si5 0.115203 0.120676 0.304448
Si Si6 0.802167 0.785305 0.813575
O O1 0.851047 0.351047 0.250000
O O2 0.799609 0.399766 0.500000
O O3 0.780322 0.430574 0.192638
O O4 0.747356 0.332107 0.307973
O O5 0.484373 0.726505 0.738128
O O6 0.449803 0.624215 0.750574
O O7 0.563752 0.645442 0.740530
O O8 0.503236 0.666371 0.000000
O O9 0.557869 0.942132 0.750000
O O10 0.491991 0.847217 0.737777
O O11 0.450556 0.950556 0.750000
O O12 0.503019 0.907064 0.000000
O O13 0.519389 0.212523 0.000000
O O14 0.115049 0.115108 0.500000
O O15 0.147286 0.179559 0.268577
O O16 0.771993 0.728008 0.750000
O O17 0.818516 0.774741 0.000000
#
# Coordination Sequence:
#
# PCOD9564579 Si02
#       6
#    16  16  16  16  16  16
#     4  10  19  29  47  76 106 136 171 213 265 322
#     4   9  19  34  57  84 110 145 187 234 284 332
#     4  10  20  33  51  73 104 141 179 221 266 318
#     4  10  19  33  51  76 108 141 179 224 271 323
#     4  10  19  36  59  83 115 151 189 234 282 337
#     4  10  20  34  54  82 113 146 182 225 279 335
#
# _framework density 20.814233000000002
#
# number of rings (size 3 to 8) (size 9 to 14) (size 15 to 20)
#    0.000    2.167    1.667    2.500    0.000    4.333 
#    0.000    4.167    0.000    2.000    0.000    1.167 
#    0.000    0.000    0.000    0.000    0.000    0.000 
#
# Total GULP energy -534785.695372 kJ/mol
# GULP energy per Si atom -5570.684327 kJ/mol
# Density = 2.076686 g / cm^3
# Si number density = 20.814233 Si / 1000 Ang^3
#
#
#
# Elastic Constant Matrix: (Units=GPa)
#
#
# Indices 1 2 3 4 5 6 
#
# 1 87.3801 59.8928 2.3376 0.0000 0.0000 0.0000
# 2 59.8928 87.3822 2.3368 0.0000 0.0000 0.0000
# 3 2.3376 2.3368 24.1512 0.0000 0.0000 0.0000
# 4 0.0000 0.0000 0.0000 10.0318 0.0000 0.0000
# 5 0.0000 0.0000 0.0000 0.0000 10.0318 0.0000
# 6 0.0000 0.0000 0.0000 0.0000 0.0000 27.8706
#
#
#
# Elastic Compliance Matrix: (Units=1/GPa)
#
#
# Indices 1 2 3 4 5 6 
#
# 1 0.021595 -0.014784 -0.000660 0.000000 0.000000 0.000000
# 2 -0.014784 0.021595 -0.000659 0.000000 0.000000 0.000000
# 3 -0.000660 -0.000659 0.041533 0.000000 0.000000 0.000000
# 4 0.000000 0.000000 0.000000 0.099683 0.000000 0.000000
# 5 0.000000 0.000000 0.000000 0.000000 0.099683 0.000000
# 6 0.000000 0.000000 0.000000 0.000000 0.000000 0.035880
#
#
# Mechanical properties :
#
#
# Convention : Reuss Voigt Hill
#
# Bulk Modulus (GPa) = 19.04076 36.44978 27.74527
# Shear Modulus (GPa) = 13.52521 18.54326 16.03424
#
# Velocity S-wave (km/s) = 2.55189 2.98802 2.77853
# Velocity P-wave (km/s) = 4.22501 5.42718 4.86339
#
# Compressibility (1/GPa) = 0.05251891
#
# Stress axis : x y z
#
# Youngs Moduli (GPa) = 46.30630 46.30754 24.07698
#
# Poissons Ratio (x) = 0.68461 0.01588
# Poissons Ratio (y) = 0.68460 0.01586
# Poissons Ratio (z) = 0.03055 0.03049
#
# Static dielectric constant tensor:
#      x y z
#    x 1.782870 0.000000 0.000000 
#    y 0.000000 1.782870 0.000000 
#    z 0.000000 0.000000 1.757040 
# 
# From -- ./inp_files/1487.got.cif
#   From: 2010.05.17/outbox.cif.g08.bks.cpg/sg128_1_cif.got.tgz:1487.got - 2010.05.20 12:07:25.
