data_PCOD9564440
_publ_section_title
;
Structure prediction by ZEFSAII (Michael W. Deem and Ramdas Pophale) SiO2 
 PCOD9564440
Probable space group: P 4/M B M
;
_chemical_formula_sum "Si O2"
_cell_formula_units_Z 60
_cell_length_a 11.824230
_cell_length_b 11.824230
_cell_length_c 20.078126
_cell_angle_alpha 90.000000
_cell_angle_beta 90.000000
_cell_angle_gamma 90.000000
_cell_volume 2807.171287
_symmetry_space_group_name_H-M "P 4/M B M"
_symmetry_group_IT_number 127
_symmetry_cell_setting 'tetragonal'
loop_
_space_group_symop_operation_xyz
x,y,z
-y,x,z
-x,-y,z
y,-x,z
1/2+x,1/2-y,-z
1/2-x,1/2+y,-z
1/2+y,1/2+x,-z
1/2-y,1/2-x,-z
-x,-y,-z
y,-x,-z
x,y,-z
-y,x,-z
1/2-x,1/2+y,z
1/2+x,1/2-y,z
1/2-y,1/2-x,z
1/2+y,1/2+x,z
loop_
_atom_site_type_symbol
_atom_site_label
_atom_site_fract_x
_atom_site_fract_y
_atom_site_fract_z
Si Si1 0.871626 0.371626 0.000000
Si Si2 0.187172 0.504077 0.500000
Si Si3 0.188101 0.988664 0.359976
Si Si4 0.184395 0.493761 0.224413
Si Si5 0.030141 0.816329 0.903058
O O1 0.939652 0.297125 0.942562
O O2 0.125501 0.625501 0.500000
O O3 0.258207 0.489132 0.567006
O O4 0.090269 0.409732 0.500000
O O5 0.102609 0.884504 0.352824
O O6 0.276999 0.983239 0.300395
O O7 0.092630 0.592630 0.219785
O O8 0.286050 0.523919 0.174993
O O9 0.122115 0.377886 0.202810
O O10 0.909775 0.874257 0.919156
#
# Coordination Sequence:
#
# PCOD9564440 Si02
#       5
#     4   8  16  16  16
#     4  12  24  46  73 101 134 180 218 276 348 401
#     4  11  24  41  62  94 132 173 220 281 338 404
#     4  11  24  41  64  95 132 176 226 278 337 406
#     4  11  24  43  67 101 134 177 230 282 337 407
#     4  11  25  46  71 104 139 180 231 278 341 418
#
# _framework density 21.373829000000001
#
# number of rings (size 3 to 8) (size 9 to 14) (size 15 to 20)
#    0.000    0.933    1.333    4.800    1.867   13.867 
#    0.000    0.667    0.000    0.000    0.000    0.000 
#    0.000    0.000    0.000    0.000    0.000    0.000 
#
# Total GULP energy -334690.054644 kJ/mol
# GULP energy per Si atom -5578.167577 kJ/mol
# Density = 2.132518 g / cm^3
# Si number density = 21.373829 Si / 1000 Ang^3
#
#
#
# Elastic Constant Matrix: (Units=GPa)
#
#
# Indices 1 2 3 4 5 6 
#
# 1 68.1838 22.8089 16.1441 0.0000 0.0000 0.0000
# 2 22.8089 68.1834 16.1441 0.0000 0.0000 0.0000
# 3 16.1441 16.1441 129.6828 0.0000 0.0000 0.0000
# 4 0.0000 0.0000 0.0000 -318.9303 0.0000 0.0000
# 5 0.0000 0.0000 0.0000 0.0000 -321.6670 0.0000
# 6 0.0000 0.0000 0.0000 0.0000 0.0000 -26.7595
#
#
#
# Elastic Compliance Matrix: (Units=1/GPa)
#
#
# Indices 1 2 3 4 5 6 
#
# 1 0.016768 -0.005270 -0.001431 0.000000 0.000000 0.000000
# 2 -0.005270 0.016768 -0.001431 0.000000 0.000000 0.000000
# 3 -0.001431 -0.001431 0.008067 0.000000 0.000000 0.000000
# 4 0.000000 0.000000 0.000000 -0.003135 0.000000 0.000000
# 5 0.000000 0.000000 0.000000 0.000000 -0.003109 0.000000
# 6 0.000000 0.000000 0.000000 0.000000 0.000000 -0.037370
#
#
# Mechanical properties :
#
#
# Convention : Reuss Voigt Hill
#
# Bulk Modulus (GPa) = 39.46682 41.80490 40.63586
# Shear Modulus (GPa) = 220.24494 -119.40783 50.41856
#
# Velocity S-wave (km/s) = 10.16208 -7.48249 4.86211
# Velocity P-wave (km/s) = 12.49783 7.41949 7.11150
#
# Compressibility (1/GPa) = 0.02533774
#
# Stress axis : x y z
#
# Youngs Moduli (GPa) = 59.63666 59.63622 123.95417
#
# Poissons Ratio (x) = 0.31431 0.17742
# Poissons Ratio (y) = 0.31431 0.17742
# Poissons Ratio (z) = 0.08536 0.08536
#
# Static dielectric constant tensor:
#      x y z
#    x 1.759930 0.000000 0.000000 
#    y 0.000000 1.759930 0.000000 
#    z 0.000000 0.000000 1.794190 
# 
# From -- ./inp_files/5541.got.cif
#   From: 2010.05.17/outbox.cif.g08.bks.cpg/sg127_3_cif.got.tgz:5541.got - 2010.05.20 12:03:00.
