data_PCOD9564329
_publ_section_title
;
Structure prediction by ZEFSAII (Michael W. Deem and Ramdas Pophale) SiO2 
 PCOD9564329
Probable space group: P 4/M B M
;
_chemical_formula_sum "Si O2"
_cell_formula_units_Z 48
_cell_length_a 14.152189
_cell_length_b 14.152189
_cell_length_c 11.663622
_cell_angle_alpha 90.000000
_cell_angle_beta 90.000000
_cell_angle_gamma 90.000000
_cell_volume 2336.042158
_symmetry_space_group_name_H-M "P 4/M B M"
_symmetry_group_IT_number 127
_symmetry_cell_setting 'tetragonal'
loop_
_space_group_symop_operation_xyz
x,y,z
-y,x,z
-x,-y,z
y,-x,z
1/2+x,1/2-y,-z
1/2-x,1/2+y,-z
1/2+y,1/2+x,-z
1/2-y,1/2-x,-z
-x,-y,-z
y,-x,-z
x,y,-z
-y,x,-z
1/2-x,1/2+y,z
1/2+x,1/2-y,z
1/2-y,1/2-x,z
1/2+y,1/2+x,z
loop_
_atom_site_type_symbol
_atom_site_label
_atom_site_fract_x
_atom_site_fract_y
_atom_site_fract_z
Si Si1 0.403138 0.375479 0.747586
Si Si2 0.420449 0.079552 0.703099
Si Si3 0.699959 0.800041 0.136142
Si Si4 0.829410 0.170987 0.500000
Si Si5 0.984132 0.669622 0.500000
O O1 0.515890 0.371576 0.771455
O O2 0.337351 0.300543 0.815017
O O3 0.388117 0.349797 0.613949
O O4 0.375627 0.124374 0.814925
O O5 0.461455 0.161111 0.619611
O O6 0.500000 0.000000 0.726683
O O7 0.702770 0.797231 0.000000
O O8 0.770436 0.270436 0.500000
O O9 0.750636 0.090576 0.500000
O O10 0.927729 0.572272 0.500000
#
# Coordination Sequence:
#
# PCOD9564329 Si02
#       5
#    16   8   8   8   8
#     4  11  25  46  72 102 140 181 227 285 351 422
#     4   9  18  37  63  99 142 174 211 274 345 416
#     4  12  27  46  68  97 132 183 246 292 338 402
#     4  11  19  36  67 104 139 170 210 273 347 418
#     4   8  16  30  60 101 138 170 202 254 347 430
#
# _framework density 20.547575999999999
#
# number of rings (size 3 to 8) (size 9 to 14) (size 15 to 20)
#    0.000    1.667    1.667    4.000    0.000    5.667 
#    3.000    1.667    0.000    0.000    0.000    1.167 
#    0.000    0.000    0.000    0.000    0.000    0.000 
#
# Total GULP energy -268029.975118 kJ/mol
# GULP energy per Si atom -5583.957815 kJ/mol
# Density = 2.050081 g / cm^3
# Si number density = 20.547576 Si / 1000 Ang^3
#
#
#
# Elastic Constant Matrix: (Units=GPa)
#
#
# Indices 1 2 3 4 5 6 
#
# 1 153.6164 90.1867 53.0619 0.0000 0.0000 0.0000
# 2 90.1867 153.6178 53.0621 0.0000 0.0000 0.0000
# 3 53.0619 53.0621 150.9765 0.0000 0.0000 0.0000
# 4 0.0000 0.0000 0.0000 14.8364 0.0000 0.0000
# 5 0.0000 0.0000 0.0000 0.0000 14.8375 0.0000
# 6 0.0000 0.0000 0.0000 0.0000 0.0000 55.6674
#
#
#
# Elastic Compliance Matrix: (Units=1/GPa)
#
#
# Indices 1 2 3 4 5 6 
#
# 1 0.010304 -0.005461 -0.001702 0.000000 0.000000 0.000000
# 2 -0.005461 0.010304 -0.001702 0.000000 0.000000 0.000000
# 3 -0.001702 -0.001702 0.007820 0.000000 0.000000 0.000000
# 4 0.000000 0.000000 0.000000 0.067402 0.000000 0.000000
# 5 0.000000 0.000000 0.000000 0.000000 0.067397 0.000000
# 6 0.000000 0.000000 0.000000 0.000000 0.000000 0.017964
#
#
# Mechanical properties :
#
#
# Convention : Reuss Voigt Hill
#
# Bulk Modulus (GPa) = 93.48325 94.53688 94.01006
# Shear Modulus (GPa) = 24.69303 34.52827 29.61065
#
# Velocity S-wave (km/s) = 3.47039 4.10372 3.80027
# Velocity P-wave (km/s) = 7.85193 8.28026 8.06894
#
# Compressibility (1/GPa) = 0.01069710
#
# Stress axis : x y z
#
# Youngs Moduli (GPa) = 97.05023 97.05112 127.87939
#
# Poissons Ratio (x) = 0.53004 0.21764
# Poissons Ratio (y) = 0.53003 0.21764
# Poissons Ratio (z) = 0.16517 0.16517
#
# Static dielectric constant tensor:
#      x y z
#    x 1.776030 0.000000 0.000000 
#    y 0.000000 1.776020 0.000000 
#    z 0.000000 0.000000 1.688160 
# 
# From -- ./inp_files/2808.got.cif
#   From: 2010.05.17/outbox.cif.g08.bks.cpg/sg127_2_cif.got.tgz:2808.got - 2010.05.20 12:03:00.
