data_PCOD9564827
_publ_section_title
;
Structure prediction by ZEFSAII (Michael W. Deem and Ramdas Pophale) SiO2 
 PCOD9564827
Probable space group: P 4/M N C
;
_chemical_formula_sum "Si O2"
_cell_formula_units_Z 88
_cell_length_a 16.707698
_cell_length_b 16.707698
_cell_length_c 14.226294
_cell_angle_alpha 90.000000
_cell_angle_beta 90.000000
_cell_angle_gamma 90.000000
_cell_volume 3971.229745
_symmetry_space_group_name_H-M "P 4/M N C"
_symmetry_group_IT_number 128
_symmetry_cell_setting 'tetragonal'
loop_
_space_group_symop_operation_xyz
x,y,z
-y,x,z
-x,-y,z
y,-x,z
1/2+x,1/2-y,1/2-z
1/2-x,1/2+y,1/2-z
1/2+y,1/2+x,1/2-z
1/2-y,1/2-x,1/2-z
-x,-y,-z
y,-x,-z
x,y,-z
-y,x,-z
1/2-x,1/2+y,1/2+z
1/2+x,1/2-y,1/2+z
1/2-y,1/2-x,1/2+z
1/2+y,1/2+x,1/2+z
loop_
_atom_site_type_symbol
_atom_site_label
_atom_site_fract_x
_atom_site_fract_y
_atom_site_fract_z
Si Si1 0.730403 0.459201 0.190901
Si Si2 0.243425 0.073807 0.889146
Si Si3 0.117663 0.322983 0.652283
Si Si4 0.204789 0.746169 0.396200
Si Si5 0.869201 0.979840 0.500000
Si Si6 0.500918 0.912145 0.395345
O O1 0.698214 0.464419 0.298917
O O2 0.796504 0.527356 0.173759
O O3 0.756861 0.367343 0.176967
O O4 0.674476 0.472921 0.100369
O O5 0.237031 0.169899 0.886639
O O6 0.335868 0.051496 0.862785
O O7 0.229705 0.048987 0.000000
O O8 0.161078 0.338923 0.750000
O O9 0.171334 0.253881 0.606924
O O10 0.115523 0.408651 0.602406
O O11 0.167451 0.737660 0.500000
O O12 0.934943 0.911235 0.500000
O O13 0.533844 0.925855 0.500000
O O14 0.500000 0.000000 0.349468
#
# Coordination Sequence:
#
# PCOD9564827 Si02
#       6
#    16  16  16  16   8  16
#     4  12  23  41  66  96 136 178 225 291 350 413
#     4  10  22  42  63  92 135 179 225 277 343 418
#     4  12  24  39  63  99 136 181 233 287 343 421
#     4  11  24  41  66  98 134 182 234 288 353 420
#     4  11  26  46  72 100 129 172 230 298 361 418
#     4  10  21  38  60  90 132 178 227 278 339 409
#
# _framework density 22.159382000000001
#
# number of rings (size 3 to 8) (size 9 to 14) (size 15 to 20)
#    0.000    1.000    2.727    4.364    2.545    1.818 
#    0.000    0.000    0.000    0.000    0.000    1.273 
#    0.000    0.000    0.000    0.000    0.000    0.000 
#
# Total GULP energy -490592.029315 kJ/mol
# GULP energy per Si atom -5574.909424 kJ/mol
# Density = 2.210895 g / cm^3
# Si number density = 22.159382 Si / 1000 Ang^3
#
#
#
# Elastic Constant Matrix: (Units=GPa)
#
#
# Indices 1 2 3 4 5 6 
#
# 1 56.7722 9.1464 7.8781 0.0000 0.0000 0.0000
# 2 9.1464 56.7726 7.8780 0.0000 0.0000 0.0000
# 3 7.8781 7.8780 167.4396 0.0000 0.0000 0.0000
# 4 0.0000 0.0000 0.0000 10.3559 0.0000 0.0000
# 5 0.0000 0.0000 0.0000 0.0000 10.3327 0.0000
# 6 0.0000 0.0000 0.0000 0.0000 0.0000 40.9363
#
#
#
# Elastic Compliance Matrix: (Units=1/GPa)
#
#
# Indices 1 2 3 4 5 6 
#
# 1 0.018170 -0.002827 -0.000722 0.000000 0.000000 0.000000
# 2 -0.002827 0.018170 -0.000722 0.000000 0.000000 0.000000
# 3 -0.000722 -0.000722 0.006040 0.000000 0.000000 0.000000
# 4 0.000000 0.000000 0.000000 0.096563 0.000000 0.000000
# 5 0.000000 0.000000 0.000000 0.000000 0.096780 0.000000
# 6 0.000000 0.000000 0.000000 0.000000 0.000000 0.024428
#
#
# Mechanical properties :
#
#
# Convention : Reuss Voigt Hill
#
# Bulk Modulus (GPa) = 29.55240 36.75436 33.15338
# Shear Modulus (GPa) = 17.85887 29.39710 23.62798
#
# Velocity S-wave (km/s) = 2.84197 3.64623 3.26893
# Velocity P-wave (km/s) = 4.91267 5.86081 5.40756
#
# Compressibility (1/GPa) = 0.03383820
#
# Stress axis : x y z
#
# Youngs Moduli (GPa) = 55.03608 55.03647 165.55662
#
# Poissons Ratio (x) = 0.15559 0.11951
# Poissons Ratio (y) = 0.15559 0.11951
# Poissons Ratio (z) = 0.03973 0.03973
#
# Static dielectric constant tensor:
#      x y z
#    x 1.818500 0.000000 0.000000 
#    y 0.000000 1.818500 0.000000 
#    z 0.000000 0.000000 1.892640 
# 
# From -- ./inp_files/3869.got.cif
#   From: 2010.05.17/outbox.cif.g08.bks.cpg/sg128_2_cif.got.tgz:3869.got - 2010.05.20 12:07:25.
