data_PCOD9564153
_publ_section_title
;
Structure prediction by ZEFSAII (Michael W. Deem and Ramdas Pophale) SiO2 
 PCOD9564153
Probable space group: P 4/M B M
;
_chemical_formula_sum "Si O2"
_cell_formula_units_Z 96
_cell_length_a 22.935072
_cell_length_b 22.935072
_cell_length_c 9.344648
_cell_angle_alpha 90.000000
_cell_angle_beta 90.000000
_cell_angle_gamma 90.000000
_cell_volume 4915.448638
_symmetry_space_group_name_H-M "P 4/M B M"
_symmetry_group_IT_number 127
_symmetry_cell_setting 'tetragonal'
loop_
_space_group_symop_operation_xyz
x,y,z
-y,x,z
-x,-y,z
y,-x,z
1/2+x,1/2-y,-z
1/2-x,1/2+y,-z
1/2+y,1/2+x,-z
1/2-y,1/2-x,-z
-x,-y,-z
y,-x,-z
x,y,-z
-y,x,-z
1/2-x,1/2+y,z
1/2+x,1/2-y,z
1/2-y,1/2-x,z
1/2+y,1/2+x,z
loop_
_atom_site_type_symbol
_atom_site_label
_atom_site_fract_x
_atom_site_fract_y
_atom_site_fract_z
Si Si1 0.825244 0.996819 0.338930
Si Si2 0.344034 0.748605 0.828239
Si Si3 0.785454 0.528083 0.169072
Si Si4 0.917147 0.321577 0.671860
Si Si5 0.457880 0.588475 0.847385
Si Si6 0.134937 0.805185 0.335203
O O1 0.803110 0.008036 0.500000
O O2 0.778797 0.007152 0.214559
O O3 0.875208 0.042385 0.297798
O O4 0.837435 0.927697 0.332969
O O5 0.289268 0.789268 0.790539
O O6 0.403839 0.782358 0.787159
O O7 0.334090 0.685465 0.758028
O O8 0.346119 0.741932 0.000000
O O9 0.823922 0.480130 0.252213
O O10 0.795972 0.524466 0.000000
O O11 0.925432 0.319231 0.500000
O O12 0.875837 0.375837 0.707260
O O13 0.882693 0.261303 0.709498
O O14 0.426472 0.526884 0.850122
O O15 0.442791 0.618389 0.000000
O O16 0.154937 0.802712 0.500000
#
# Coordination Sequence:
#
# PCOD9564153 Si02
#       6
#    16  16  16  16  16  16
#     4  10  21  35  51  74 105 139 178 222 267 317
#     4  10  22  38  55  78 109 143 178 218 263 314
#     4  10  21  36  54  78 106 139 177 217 266 319
#     4   9  18  35  58  83 111 139 172 220 272 319
#     4   9  19  34  49  67  94 131 177 226 271 311
#     4   9  19  34  52  78 108 139 174 214 261 313
#
# _framework density 19.530260999999999
#
# number of rings (size 3 to 8) (size 9 to 14) (size 15 to 20)
#    0.000    2.500    0.000    3.000    2.333    6.667 
#    0.000    0.833    0.000    0.500    0.000    3.500 
#    0.000    0.000    0.000    0.000    0.000    0.000 
#
# Total GULP energy -534568.145051 kJ/mol
# GULP energy per Si atom -5568.418178 kJ/mol
# Density = 1.948581 g / cm^3
# Si number density = 19.530261 Si / 1000 Ang^3
#
#
#
# Elastic Constant Matrix: (Units=GPa)
#
#
# Indices 1 2 3 4 5 6 
#
# 1 58.4772 10.3330 16.6088 0.0000 0.0000 0.0000
# 2 10.3330 58.4772 16.6088 0.0000 0.0000 0.0000
# 3 16.6088 16.6088 31.7693 0.0000 0.0000 0.0000
# 4 0.0000 0.0000 0.0000 23.1423 0.0000 0.0000
# 5 0.0000 0.0000 0.0000 0.0000 23.1423 0.0000
# 6 0.0000 0.0000 0.0000 0.0000 0.0000 33.0331
#
#
#
# Elastic Compliance Matrix: (Units=1/GPa)
#
#
# Indices 1 2 3 4 5 6 
#
# 1 0.020105 -0.000666 -0.010162 0.000000 0.000000 0.000000
# 2 -0.000666 0.020105 -0.010162 0.000000 0.000000 0.000000
# 3 -0.010162 -0.010162 0.042103 0.000000 0.000000 0.000000
# 4 0.000000 0.000000 0.000000 0.043211 0.000000 0.000000
# 5 0.000000 0.000000 0.000000 0.000000 0.043211 0.000000
# 6 0.000000 0.000000 0.000000 0.000000 0.000000 0.030273
#
#
# Mechanical properties :
#
#
# Convention : Reuss Voigt Hill
#
# Bulk Modulus (GPa) = 24.79527 26.20276 25.49902
# Shear Modulus (GPa) = 19.65164 22.87508 21.26336
#
# Velocity S-wave (km/s) = 3.17553 3.42609 3.30318
# Velocity P-wave (km/s) = 5.11554 5.39410 5.25667
#
# Compressibility (1/GPa) = 0.04033027
#
# Stress axis : x y z
#
# Youngs Moduli (GPa) = 49.73960 49.73960 23.75152
#
# Poissons Ratio (x) = 0.03314 0.24137
# Poissons Ratio (y) = 0.03314 0.24137
# Poissons Ratio (z) = 0.50547 0.50547
#
# Static dielectric constant tensor:
#      x y z
#    x 1.727830 0.000000 0.000000 
#    y 0.000000 1.727830 0.000000 
#    z 0.000000 0.000000 1.713370 
# 
# From -- ./inp_files/1951.got.cif
#   From: 2010.05.17/outbox.cif.g08.bks.cpg/sg127_1_cif.got.tgz:1951.got - 2010.05.20 12:03:00.
