data_PCOD9564660
_publ_section_title
;
Structure prediction by ZEFSAII (Michael W. Deem and Ramdas Pophale) SiO2 
 PCOD9564660
Probable space group: P 4/M N C
;
_chemical_formula_sum "Si O2"
_cell_formula_units_Z 112
_cell_length_a 13.981166
_cell_length_b 13.981166
_cell_length_c 27.048723
_cell_angle_alpha 90.000000
_cell_angle_beta 90.000000
_cell_angle_gamma 90.000000
_cell_volume 5287.295105
_symmetry_space_group_name_H-M "P 4/M N C"
_symmetry_group_IT_number 128
_symmetry_cell_setting 'tetragonal'
loop_
_space_group_symop_operation_xyz
x,y,z
-y,x,z
-x,-y,z
y,-x,z
1/2+x,1/2-y,1/2-z
1/2-x,1/2+y,1/2-z
1/2+y,1/2+x,1/2-z
1/2-y,1/2-x,1/2-z
-x,-y,-z
y,-x,-z
x,y,-z
-y,x,-z
1/2-x,1/2+y,1/2+z
1/2+x,1/2-y,1/2+z
1/2-y,1/2-x,1/2+z
1/2+y,1/2+x,1/2+z
loop_
_atom_site_type_symbol
_atom_site_label
_atom_site_fract_x
_atom_site_fract_y
_atom_site_fract_z
Si Si1 0.876373 0.629265 0.102903
Si Si2 0.825381 0.186525 0.620829
Si Si3 0.368062 0.281751 0.345931
Si Si4 0.646397 0.563934 0.213403
Si Si5 0.555863 0.809848 0.944057
Si Si6 0.948678 0.261569 0.945549
Si Si7 0.066107 0.266020 0.196963
O O1 0.770683 0.667286 0.090181
O O2 0.872540 0.520192 0.086206
O O3 0.896346 0.648498 0.161387
O O4 0.953472 0.689692 0.072668
O O5 0.795152 0.281255 0.652236
O O6 0.836686 0.096722 0.657101
O O7 0.913494 0.215994 0.586585
O O8 0.409380 0.300530 0.400567
O O9 0.453772 0.240530 0.313496
O O10 0.325092 0.379895 0.326633
O O11 0.547124 0.621150 0.223562
O O12 0.741462 0.586548 0.245700
O O13 0.651800 0.872460 0.947645
O O14 0.521984 0.790692 0.000000
O O15 0.957131 0.218706 0.000000
#
# Coordination Sequence:
#
# PCOD9564660 Si02
#       7
#    16  16  16  16  16  16  16
#     4  10  20  33  56  84 114 153 196 250 300 363
#     4  10  22  38  55  85 120 152 194 253 298 359
#     4   9  19  34  55  82 116 150 187 239 293 346
#     4  11  22  38  63  88 112 153 201 248 302 367
#     4  10  20  36  58  85 120 160 199 247 309 371
#     4   9  18  34  57  85 116 154 200 244 296 362
#     4  10  19  36  56  84 110 149 194 242 298 358
#
# _framework density 21.182853000000001
#
# number of rings (size 3 to 8) (size 9 to 14) (size 15 to 20)
#    0.000    2.143    1.429    1.714    0.000    4.857 
#    0.000    9.286    0.000    0.000    0.000   14.000 
#    0.000    0.000    0.000    0.000    0.000    0.000 
#
# Total GULP energy -623982.862366 kJ/mol
# GULP energy per Si atom -5571.275557 kJ/mol
# Density = 2.113464 g / cm^3
# Si number density = 21.182853 Si / 1000 Ang^3
#
#
#
# Elastic Constant Matrix: (Units=GPa)
#
#
# Indices 1 2 3 4 5 6 
#
# 1 28.9360 -4.6295 16.5011 0.0000 0.0000 0.0000
# 2 -4.6295 28.9360 16.5011 0.0000 0.0000 0.0000
# 3 16.5011 16.5011 106.3180 0.0000 0.0000 0.0000
# 4 0.0000 0.0000 0.0000 23.2637 0.0000 0.0000
# 5 0.0000 0.0000 0.0000 0.0000 23.2637 0.0000
# 6 0.0000 0.0000 0.0000 0.0000 0.0000 11.8613
#
#
#
# Elastic Compliance Matrix: (Units=1/GPa)
#
#
# Indices 1 2 3 4 5 6 
#
# 1 0.040959 0.011167 -0.008090 0.000000 0.000000 0.000000
# 2 0.011167 0.040959 -0.008090 0.000000 0.000000 0.000000
# 3 -0.008090 -0.008090 0.011917 0.000000 0.000000 0.000000
# 4 0.000000 0.000000 0.000000 0.042985 0.000000 0.000000
# 5 0.000000 0.000000 0.000000 0.000000 0.042985 0.000000
# 6 0.000000 0.000000 0.000000 0.000000 0.000000 0.084308
#
#
# Mechanical properties :
#
#
# Convention : Reuss Voigt Hill
#
# Bulk Modulus (GPa) = 11.93204 24.54838 18.24021
# Shear Modulus (GPa) = 16.55203 20.73223 18.64213
#
# Velocity S-wave (km/s) = 2.79836 3.13186 2.96979
# Velocity P-wave (km/s) = 4.01076 4.96910 4.51543
#
# Compressibility (1/GPa) = 0.08380799
#
# Stress axis : x y z
#
# Youngs Moduli (GPa) = 24.41454 24.41454 83.91351
#
# Poissons Ratio (x) = -0.27263 0.67888
# Poissons Ratio (y) = -0.27263 0.67888
# Poissons Ratio (z) = 0.19752 0.19752
#
# Static dielectric constant tensor:
#      x y z
#    x 1.782290 0.000000 0.000000 
#    y 0.000000 1.782290 0.000000 
#    z 0.000000 0.000000 1.841070 
# 
# From -- ./inp_files/6908.got.cif
#   From: 2010.05.17/outbox.cif.g08.bks.cpg/sg128_4_cif.got.tgz:6908.got - 2010.05.20 12:07:25.
