data_PCOD9564017
_publ_section_title
;
Structure prediction by ZEFSAII (Michael W. Deem and Ramdas Pophale) SiO2 
 PCOD9564017
Probable space group: P 4/M B M
;
_chemical_formula_sum "Si O2"
_cell_formula_units_Z 72
_cell_length_a 19.945319
_cell_length_b 19.945319
_cell_length_c 7.402086
_cell_angle_alpha 90.000000
_cell_angle_beta 90.000000
_cell_angle_gamma 90.000000
_cell_volume 2944.666394
_symmetry_space_group_name_H-M "P 4/M B M"
_symmetry_group_IT_number 127
_symmetry_cell_setting 'tetragonal'
loop_
_space_group_symop_operation_xyz
x,y,z
-y,x,z
-x,-y,z
y,-x,z
1/2+x,1/2-y,-z
1/2-x,1/2+y,-z
1/2+y,1/2+x,-z
1/2-y,1/2-x,-z
-x,-y,-z
y,-x,-z
x,y,-z
-y,x,-z
1/2-x,1/2+y,z
1/2+x,1/2-y,z
1/2-y,1/2-x,z
1/2+y,1/2+x,z
loop_
_atom_site_type_symbol
_atom_site_label
_atom_site_fract_x
_atom_site_fract_y
_atom_site_fract_z
Si Si1 0.446019 0.946019 0.783219
Si Si2 0.792585 0.152954 0.702077
Si Si3 0.276007 0.118833 0.279595
Si Si4 0.087296 0.937108 0.782401
Si Si5 0.791512 0.531988 0.288883
O O1 0.371425 0.964927 0.723061
O O2 0.500000 0.000000 0.718312
O O3 0.446292 0.946292 0.000000
O O4 0.769634 0.170610 0.500000
O O5 0.827776 0.219302 0.783014
O O6 0.855582 0.104141 0.693101
O O7 0.737816 0.102436 0.788250
O O8 0.271523 0.117161 0.500000
O O9 0.347722 0.152279 0.233540
O O10 0.268627 0.041478 0.216832
O O11 0.014615 0.910075 0.733029
O O12 0.093614 0.932745 0.000000
O O13 0.771815 0.532900 0.500000
#
# Coordination Sequence:
#
# PCOD9564017 Si02
#       5
#     8  16  16  16  16
#     4  11  25  43  63  87 117 153 199 256 307 348
#     4  10  20  33  55  85 114 145 189 241 293 349
#     4   9  18  33  54  81 116 153 189 236 297 359
#     4   9  18  32  49  71 105 151 195 232 279 339
#     4  10  21  37  61  90 118 154 198 241 296 365
#
# _framework density 24.450984999999999
#
# number of rings (size 3 to 8) (size 9 to 14) (size 15 to 20)
#    0.000    2.333    0.000    3.000    1.556    5.333 
#    0.000    2.222    0.000    1.333    0.000    0.000 
#    0.000    0.000    0.000    0.000    0.000    0.000 
#
# Total GULP energy -402075.364160 kJ/mol
# GULP energy per Si atom -5584.380058 kJ/mol
# Density = 2.439533 g / cm^3
# Si number density = 24.450985 Si / 1000 Ang^3
#
#
#
# Elastic Constant Matrix: (Units=GPa)
#
#
# Indices 1 2 3 4 5 6 
#
# 1 206.2774 17.3417 4.6309 0.0000 0.0000 0.0000
# 2 17.3417 206.2774 4.6309 0.0000 0.0000 0.0000
# 3 4.6309 4.6309 76.4957 0.0000 0.0000 0.0000
# 4 0.0000 0.0000 0.0000 18.3246 0.0000 0.0000
# 5 0.0000 0.0000 0.0000 0.0000 18.3246 0.0000
# 6 0.0000 0.0000 0.0000 0.0000 0.0000 83.5890
#
#
#
# Elastic Compliance Matrix: (Units=1/GPa)
#
#
# Indices 1 2 3 4 5 6 
#
# 1 0.004888 -0.000405 -0.000271 0.000000 0.000000 0.000000
# 2 -0.000405 0.004888 -0.000271 0.000000 0.000000 0.000000
# 3 -0.000271 -0.000271 0.013105 0.000000 0.000000 0.000000
# 4 0.000000 0.000000 0.000000 0.054571 0.000000 0.000000
# 5 0.000000 0.000000 0.000000 0.000000 0.054571 0.000000
# 6 0.000000 0.000000 0.000000 0.000000 0.000000 0.011963
#
#
# Mechanical properties :
#
#
# Convention : Reuss Voigt Hill
#
# Bulk Modulus (GPa) = 47.65046 60.25084 53.95065
# Shear Modulus (GPa) = 32.70576 54.87744 43.79160
#
# Velocity S-wave (km/s) = 3.66130 4.74263 4.23661
# Velocity P-wave (km/s) = 6.11587 7.39494 6.78561
#
# Compressibility (1/GPa) = 0.02098615
#
# Stress axis : x y z
#
# Youngs Moduli (GPa) = 204.58399 204.58399 76.30386
#
# Poissons Ratio (x) = 0.08282 0.02071
# Poissons Ratio (y) = 0.08282 0.02071
# Poissons Ratio (z) = 0.05552 0.05552
#
# Static dielectric constant tensor:
#      x y z
#    x 1.933570 0.000000 0.000000 
#    y 0.000000 1.933570 0.000000 
#    z 0.000000 0.000000 1.916910 
# 
# From -- ./inp_files/1586.got.cif
#   From: 2010.05.17/outbox.cif.g08.bks.cpg/sg127_1_cif.got.tgz:1586.got - 2010.05.20 12:03:00.
