data_PCOD9564908
_publ_section_title
;
Structure prediction by ZEFSAII (Michael W. Deem and Ramdas Pophale) SiO2 
 PCOD9564908
Probable space group: P 4/M N C
;
_chemical_formula_sum "Si O2"
_cell_formula_units_Z 88
_cell_length_a 15.111375
_cell_length_b 15.111375
_cell_length_c 20.399672
_cell_angle_alpha 90.000000
_cell_angle_beta 90.000000
_cell_angle_gamma 90.000000
_cell_volume 4658.339650
_symmetry_space_group_name_H-M "P 4/M N C"
_symmetry_group_IT_number 128
_symmetry_cell_setting 'tetragonal'
loop_
_space_group_symop_operation_xyz
x,y,z
-y,x,z
-x,-y,z
y,-x,z
1/2+x,1/2-y,1/2-z
1/2-x,1/2+y,1/2-z
1/2+y,1/2+x,1/2-z
1/2-y,1/2-x,1/2-z
-x,-y,-z
y,-x,-z
x,y,-z
-y,x,-z
1/2-x,1/2+y,1/2+z
1/2+x,1/2-y,1/2+z
1/2-y,1/2-x,1/2+z
1/2+y,1/2+x,1/2+z
loop_
_atom_site_type_symbol
_atom_site_label
_atom_site_fract_x
_atom_site_fract_y
_atom_site_fract_z
Si Si1 0.874128 0.744374 0.121445
Si Si2 0.813394 0.185597 0.575249
Si Si3 0.440811 0.638173 0.500000
Si Si4 0.446753 0.634927 0.731696
Si Si5 0.723015 0.505974 0.867005
Si Si6 0.941172 0.585799 0.327051
O O1 0.768471 0.733990 0.111534
O O2 0.902995 0.789146 0.189169
O O3 0.912204 0.645322 0.127068
O O4 0.914291 0.803627 0.063251
O O5 0.815933 0.215490 0.500000
O O6 0.908430 0.200042 0.608545
O O7 0.790410 0.081216 0.578463
O O8 0.387815 0.544755 0.500000
O O9 0.390001 0.547797 0.715743
O O10 0.456589 0.663207 0.807221
O O11 0.823619 0.507430 0.841838
O O12 0.915335 0.584666 0.250000
O O13 0.000000 0.500000 0.339443
#
# Coordination Sequence:
#
# PCOD9564908 Si02
#       6
#    16  16   8  16  16  16
#     4  11  23  43  65  92 133 174 218 272 329 400
#     4  11  24  43  66  97 135 178 221 272 332 404
#     4  11  24  44  67  94 126 169 219 276 338 396
#     4  11  22  39  63  98 130 163 214 278 337 393
#     4  11  22  40  67  96 134 171 221 273 334 399
#     4  10  22  41  63  93 129 169 215 270 328 389
#
# _framework density 18.890851000000001
#
# number of rings (size 3 to 8) (size 9 to 14) (size 15 to 20)
#    0.000    1.182    4.545    1.636    0.000    4.727 
#    0.000    1.364    0.000    0.000    0.000    0.000 
#    0.000    0.000    0.000    0.000    0.000    0.000 
#
# Total GULP energy -491086.894756 kJ/mol
# GULP energy per Si atom -5580.532895 kJ/mol
# Density = 1.884785 g / cm^3
# Si number density = 18.890851 Si / 1000 Ang^3
#
#
#
# Elastic Constant Matrix: (Units=GPa)
#
#
# Indices 1 2 3 4 5 6 
#
# 1 107.5445 82.3449 40.9960 0.0000 0.0000 0.0000
# 2 82.3449 107.5442 40.9959 0.0000 0.0000 0.0000
# 3 40.9960 40.9959 80.2679 0.0000 0.0000 0.0000
# 4 0.0000 0.0000 0.0000 10.0882 0.0000 0.0000
# 5 0.0000 0.0000 0.0000 0.0000 10.0895 0.0000
# 6 0.0000 0.0000 0.0000 0.0000 0.0000 27.6026
#
#
#
# Elastic Compliance Matrix: (Units=1/GPa)
#
#
# Indices 1 2 3 4 5 6 
#
# 1 0.023220 -0.016464 -0.003451 0.000000 0.000000 0.000000
# 2 -0.016464 0.023220 -0.003451 0.000000 0.000000 0.000000
# 3 -0.003451 -0.003451 0.015983 0.000000 0.000000 0.000000
# 4 0.000000 0.000000 0.000000 0.099126 0.000000 0.000000
# 5 0.000000 0.000000 0.000000 0.000000 0.099113 0.000000
# 6 0.000000 0.000000 0.000000 0.000000 0.000000 0.036228
#
#
# Mechanical properties :
#
#
# Convention : Reuss Voigt Hill
#
# Bulk Modulus (GPa) = 63.72344 69.33669 66.53006
# Shear Modulus (GPa) = 14.33277 18.29071 16.31174
#
# Velocity S-wave (km/s) = 2.75747 3.11502 2.94168
# Velocity P-wave (km/s) = 6.62901 7.05133 6.84343
#
# Compressibility (1/GPa) = 0.01569281
#
# Stress axis : x y z
#
# Youngs Moduli (GPa) = 43.06675 43.06667 62.56639
#
# Poissons Ratio (x) = 0.70903 0.21590
# Poissons Ratio (y) = 0.70903 0.21589
# Poissons Ratio (z) = 0.14861 0.14861
#
# Static dielectric constant tensor:
#      x y z
#    x 1.645310 0.000000 0.000000 
#    y 0.000000 1.645310 0.000000 
#    z 0.000000 0.000000 1.683700 
# 
# From -- ./inp_files/5646.got.cif
#   From: 2010.05.17/outbox.cif.g08.bks.cpg/sg128_3_cif.got.tgz:5646.got - 2010.05.20 12:07:25.
