data_PCOD9564575
_publ_section_title
;
Structure prediction by ZEFSAII (Michael W. Deem and Ramdas Pophale) SiO2 
 PCOD9564575
Probable space group: P 4/M N C
;
_chemical_formula_sum "Si O2"
_cell_formula_units_Z 108
_cell_length_a 14.864250
_cell_length_b 14.864250
_cell_length_c 25.598312
_cell_angle_alpha 90.000000
_cell_angle_beta 90.000000
_cell_angle_gamma 90.000000
_cell_volume 5655.842802
_symmetry_space_group_name_H-M "P 4/M N C"
_symmetry_group_IT_number 128
_symmetry_cell_setting 'tetragonal'
loop_
_space_group_symop_operation_xyz
x,y,z
-y,x,z
-x,-y,z
y,-x,z
1/2+x,1/2-y,1/2-z
1/2-x,1/2+y,1/2-z
1/2+y,1/2+x,1/2-z
1/2-y,1/2-x,1/2-z
-x,-y,-z
y,-x,-z
x,y,-z
-y,x,-z
1/2-x,1/2+y,1/2+z
1/2+x,1/2-y,1/2+z
1/2-y,1/2-x,1/2+z
1/2+y,1/2+x,1/2+z
loop_
_atom_site_type_symbol
_atom_site_label
_atom_site_fract_x
_atom_site_fract_y
_atom_site_fract_z
Si Si1 0.042769 0.145852 0.500000
Si Si2 0.538229 0.098094 0.623784
Si Si3 0.133268 0.657100 0.937742
Si Si4 0.000000 0.000000 0.918296
Si Si5 0.033360 0.239668 0.187978
Si Si6 0.126133 0.839079 0.118434
Si Si7 0.272019 0.974078 0.597628
Si Si8 0.150201 0.974366 0.700049
O O1 0.940744 0.107258 0.500000
O O2 0.055146 0.207271 0.550702
O O3 0.469664 0.141786 0.581843
O O4 0.532307 0.155217 0.676624
O O5 0.500000 0.000000 0.633851
O O6 0.638680 0.086418 0.602406
O O7 0.158344 0.755217 0.915848
O O8 0.192589 0.575817 0.913985
O O9 0.138991 0.652720 0.000000
O O10 0.916110 0.926178 0.914141
O O11 0.114368 0.203270 0.152172
O O12 0.038053 0.205920 0.246724
O O13 0.945080 0.196541 0.161415
O O14 0.215235 0.969084 0.650606
O O15 0.070827 0.900291 0.699220
#
# Coordination Sequence:
#
# PCOD9564575 Si02
#       8
#     8  16  16   4  16  16  16  16
#     4  11  24  42  63  84 122 169 211 276 340 376
#     4   9  22  40  64  91 124 167 214 258 316 392
#     4  10  21  41  65  90 128 171 217 270 318 379
#     4   8  16  32  57  84 132 168 192 257 308 388
#     4  10  18  37  62  93 122 166 202 263 319 383
#     4   9  18  33  61  95 125 160 213 253 321 375
#     4  11  23  41  61  92 122 166 218 268 323 391
#     4  11  23  39  66  95 124 164 217 267 328 401
#
# _framework density 19.095298
#
# number of rings (size 3 to 8) (size 9 to 14) (size 15 to 20)
#    0.000    2.000    2.222    0.889    1.037    5.037 
#    0.000   15.926    0.000    0.000    0.000    0.000 
#    0.000    0.000    0.000    0.000    0.000    0.000 
#
# Total GULP energy -601792.939669 kJ/mol
# GULP energy per Si atom -5572.156849 kJ/mol
# Density = 1.905184 g / cm^3
# Si number density = 19.095298 Si / 1000 Ang^3
#
#
#
# Elastic Constant Matrix: (Units=GPa)
#
#
# Indices 1 2 3 4 5 6 
#
# 1 68.9942 -8.8842 37.6049 0.0000 0.0000 0.0000
# 2 -8.8842 68.9942 37.6049 0.0000 0.0000 0.0000
# 3 37.6049 37.6049 78.6604 0.0000 0.0000 0.0000
# 4 0.0000 0.0000 0.0000 21.5090 0.0000 0.0000
# 5 0.0000 0.0000 0.0000 0.0000 21.5090 0.0000
# 6 0.0000 0.0000 0.0000 0.0000 0.0000 10.1675
#
#
#
# Elastic Compliance Matrix: (Units=1/GPa)
#
#
# Indices 1 2 3 4 5 6 
#
# 1 0.027120 0.014280 -0.019792 0.000000 0.000000 0.000000
# 2 0.014280 0.027120 -0.019792 0.000000 0.000000 0.000000
# 3 -0.019792 -0.019792 0.031637 0.000000 0.000000 0.000000
# 4 0.000000 0.000000 0.000000 0.046492 0.000000 0.000000
# 5 0.000000 0.000000 0.000000 0.000000 0.046492 0.000000
# 6 0.000000 0.000000 0.000000 0.000000 0.000000 0.098352
#
#
# Mechanical properties :
#
#
# Convention : Reuss Voigt Hill
#
# Bulk Modulus (GPa) = 28.35373 38.81109 33.58241
# Shear Modulus (GPa) = 14.72415 20.65864 17.69140
#
# Velocity S-wave (km/s) = 2.77986 3.29275 3.04711
# Velocity P-wave (km/s) = 5.01839 5.90130 5.47766
#
# Compressibility (1/GPa) = 0.03526873
#
# Stress axis : x y z
#
# Youngs Moduli (GPa) = 36.87291 36.87291 31.60903
#
# Poissons Ratio (x) = -0.52653 0.62560
# Poissons Ratio (y) = -0.52653 0.62560
# Poissons Ratio (z) = 0.72978 0.72978
#
# Static dielectric constant tensor:
#      x y z
#    x 1.675990 0.000000 0.000000 
#    y 0.000000 1.675990 0.000000 
#    z 0.000000 0.000000 1.622010 
# 
# From -- ./inp_files/6495.got.cif
#   From: 2010.05.17/outbox.cif.g08.bks.cpg/sg128_4_cif.got.tgz:6495.got - 2010.05.20 12:07:25.
