data_PCOD9564278
_publ_section_title
;
Structure prediction by ZEFSAII (Michael W. Deem and Ramdas Pophale) SiO2 
 PCOD9564278
Probable space group: P 4/M B M
;
_chemical_formula_sum "Si O2"
_cell_formula_units_Z 96
_cell_length_a 24.190290
_cell_length_b 24.190290
_cell_length_c 8.473059
_cell_angle_alpha 90.000000
_cell_angle_beta 90.000000
_cell_angle_gamma 90.000000
_cell_volume 4958.181039
_symmetry_space_group_name_H-M "P 4/M B M"
_symmetry_group_IT_number 127
_symmetry_cell_setting 'tetragonal'
loop_
_space_group_symop_operation_xyz
x,y,z
-y,x,z
-x,-y,z
y,-x,z
1/2+x,1/2-y,-z
1/2-x,1/2+y,-z
1/2+y,1/2+x,-z
1/2-y,1/2-x,-z
-x,-y,-z
y,-x,-z
x,y,-z
-y,x,-z
1/2-x,1/2+y,z
1/2+x,1/2-y,z
1/2-y,1/2-x,z
1/2+y,1/2+x,z
loop_
_atom_site_type_symbol
_atom_site_label
_atom_site_fract_x
_atom_site_fract_y
_atom_site_fract_z
Si Si1 0.356459 0.498438 0.822793
Si Si2 0.898656 0.100286 0.323954
Si Si3 0.798051 0.161632 0.811648
Si Si4 0.011101 0.736910 0.688790
Si Si5 0.314608 0.901901 0.190049
Si Si6 0.140813 0.729447 0.310839
O O1 0.395701 0.464643 0.705741
O O2 0.371590 0.561862 0.801656
O O3 0.293282 0.493200 0.773977
O O4 0.365186 0.478624 0.000000
O O5 0.915428 0.115706 0.500000
O O6 0.837862 0.121784 0.286873
O O7 0.736111 0.140808 0.773374
O O8 0.821647 0.222356 0.767405
O O9 0.804634 0.154794 0.000000
O O10 0.010417 0.744195 0.500000
O O11 0.075781 0.727445 0.734828
O O12 0.962437 0.694579 0.735755
O O13 0.370690 0.870690 0.237819
O O14 0.314413 0.908229 0.000000
O O15 0.142163 0.739759 0.500000
O O16 0.171797 0.671797 0.279421
#
# Coordination Sequence:
#
# PCOD9564278 Si02
#       6
#    16  16  16  16  16  16
#     4  12  24  40  60  84 115 157 202 246 295 347
#     4  12  24  39  59  85 116 155 202 250 292 342
#     4  11  21  35  58  88 120 156 194 239 294 353
#     4  11  22  37  60  87 117 155 195 239 293 356
#     4  10  22  39  59  86 121 157 196 244 296 352
#     4  10  22  39  59  86 121 157 196 244 296 351
#
# _framework density 19.361941000000002
#
# number of rings (size 3 to 8) (size 9 to 14) (size 15 to 20)
#    0.000    1.000    3.333    4.500    0.000    3.000 
#    0.000    1.667    0.000    0.500    0.000    3.500 
#    0.000    0.000    0.000    0.000    0.000    0.000 
#
# Total GULP energy -535782.351505 kJ/mol
# GULP energy per Si atom -5581.066162 kJ/mol
# Density = 1.931787 g / cm^3
# Si number density = 19.361941 Si / 1000 Ang^3
#
#
#
# Elastic Constant Matrix: (Units=GPa)
#
#
# Indices 1 2 3 4 5 6 
#
# 1 -440.3273 539.5674 16.4626 0.0000 0.0000 0.0000
# 2 539.5674 -440.3273 16.4626 0.0000 0.0000 0.0000
# 3 16.4626 16.4626 51.8895 0.0000 0.0000 0.0000
# 4 0.0000 0.0000 0.0000 22.2685 0.0000 0.0000
# 5 0.0000 0.0000 0.0000 0.0000 22.2685 0.0000
# 6 0.0000 0.0000 0.0000 0.0000 0.0000 29.6953
#
#
#
# Elastic Compliance Matrix: (Units=1/GPa)
#
#
# Indices 1 2 3 4 5 6 
#
# 1 0.005121 0.006141 -0.003573 0.000000 0.000000 0.000000
# 2 0.006141 0.005121 -0.003573 0.000000 0.000000 0.000000
# 3 -0.003573 -0.003573 0.021539 0.000000 0.000000 0.000000
# 4 0.000000 0.000000 0.000000 0.044906 0.000000 0.000000
# 5 0.000000 0.000000 0.000000 0.000000 0.044906 0.000000
# 6 0.000000 0.000000 0.000000 0.000000 0.000000 0.033675
#
#
# Mechanical properties :
#
#
# Convention : Reuss Voigt Hill
#
# Bulk Modulus (GPa) = 33.58992 35.13557 34.36275
# Shear Modulus (GPa) = 29.90398 -78.57071 -24.33336
#
# Velocity S-wave (km/s) = 3.93424 -6.37715 -3.54893
# Velocity P-wave (km/s) = 6.16634 6.00316 0.99644
#
# Compressibility (1/GPa) = 0.02977084
#
# Stress axis : x y z
#
# Youngs Moduli (GPa) = 195.28437 195.28437 46.42771
#
# Poissons Ratio (x) = -1.19929 0.16589
# Poissons Ratio (y) = -1.19929 0.16589
# Poissons Ratio (z) = 0.69775 0.69775
#
# Static dielectric constant tensor:
#      x y z
#    x 1.708310 0.000000 0.000000 
#    y 0.000000 1.708310 0.000000 
#    z 0.000000 0.000000 1.655780 
# 
# From -- ./inp_files/1977.got.cif
#   From: 2010.05.17/outbox.cif.g08.bks.cpg/sg127_1_cif.got.tgz:1977.got - 2010.05.20 12:03:00.
