data_PCOD9564229
_publ_section_title
;
Structure prediction by ZEFSAII (Michael W. Deem and Ramdas Pophale) SiO2 
 PCOD9564229
Probable space group: P 4/M B M
;
_chemical_formula_sum "Si O2"
_cell_formula_units_Z 96
_cell_length_a 24.768258
_cell_length_b 24.768258
_cell_length_c 8.185212
_cell_angle_alpha 90.000000
_cell_angle_beta 90.000000
_cell_angle_gamma 90.000000
_cell_volume 5021.354212
_symmetry_space_group_name_H-M "P 4/M B M"
_symmetry_group_IT_number 127
_symmetry_cell_setting 'tetragonal'
loop_
_space_group_symop_operation_xyz
x,y,z
-y,x,z
-x,-y,z
y,-x,z
1/2+x,1/2-y,-z
1/2-x,1/2+y,-z
1/2+y,1/2+x,-z
1/2-y,1/2-x,-z
-x,-y,-z
y,-x,-z
x,y,-z
-y,x,-z
1/2-x,1/2+y,z
1/2+x,1/2-y,z
1/2-y,1/2-x,z
1/2+y,1/2+x,z
loop_
_atom_site_type_symbol
_atom_site_label
_atom_site_fract_x
_atom_site_fract_y
_atom_site_fract_z
Si Si1 0.382219 0.882219 0.687885
Si Si2 0.363185 0.578422 0.318379
Si Si3 0.221544 0.992917 0.808788
Si Si4 0.054773 0.929733 0.000000
Si Si5 0.208602 0.291399 0.311951
Si Si6 0.454648 0.045353 0.803391
Si Si7 0.157658 0.495781 0.696553
Si Si8 0.297120 0.369794 0.309543
O O1 0.396482 0.896482 0.500000
O O2 0.337147 0.837147 0.683475
O O3 0.436385 0.858766 0.761663
O O4 0.386777 0.569496 0.500000
O O5 0.316506 0.534336 0.289766
O O6 0.348441 0.641698 0.309923
O O7 0.403230 0.573170 0.167377
O O8 0.209968 0.929746 0.765622
O O9 0.283805 0.007472 0.771004
O O10 0.210375 0.000559 0.000000
O O11 0.990727 0.926840 0.000000
O O12 0.223751 0.276250 0.500000
O O13 0.259114 0.323040 0.236037
O O14 0.469259 0.105218 0.741047
O O15 0.500000 0.000000 0.750212
O O16 0.454958 0.045043 0.000000
O O17 0.164530 0.495100 0.500000
O O18 0.280221 0.377014 0.500000
#
# Coordination Sequence:
#
# PCOD9564229 Si02
#       8
#     8  16  16   8   8   8  16  16
#     4   9  16  29  55  87 120 151 197 258 311 374
#     4  11  24  42  64  93 130 171 213 260 320 390
#     4  12  24  39  62  90 127 167 210 266 322 384
#     4  11  24  42  66  95 126 162 207 259 316 382
#     4   9  16  34  60  94 126 157 203 265 318 366
#     4  11  23  37  54  85 128 165 205 266 331 387
#     4  11  21  37  60  87 119 164 214 254 314 388
#     4  10  21  38  65  94 125 166 214 263 319 384
#
# _framework density 19.118348000000001
#
# number of rings (size 3 to 8) (size 9 to 14) (size 15 to 20)
#    0.000    1.333    3.333    3.250    1.167    2.333 
#    0.000    2.917    0.000    2.000    0.000    0.000 
#    0.000    0.000    0.000    0.000    0.000    0.000 
#
# Total GULP energy -535493.301442 kJ/mol
# GULP energy per Si atom -5578.055223 kJ/mol
# Density = 1.907483 g / cm^3
# Si number density = 19.118348 Si / 1000 Ang^3
#
#
#
# Elastic Constant Matrix: (Units=GPa)
#
#
# Indices 1 2 3 4 5 6 
#
# 1 89.6417 25.8046 23.4840 0.0000 0.0000 0.0000
# 2 25.8046 89.6424 23.4842 0.0000 0.0000 0.0000
# 3 23.4840 23.4842 90.3971 0.0000 0.0000 0.0000
# 4 0.0000 0.0000 0.0000 20.2619 0.0000 0.0000
# 5 0.0000 0.0000 0.0000 0.0000 20.2617 0.0000
# 6 0.0000 0.0000 0.0000 0.0000 0.0000 36.7292
#
#
#
# Elastic Compliance Matrix: (Units=1/GPa)
#
#
# Indices 1 2 3 4 5 6 
#
# 1 0.012675 -0.002990 -0.002516 0.000000 0.000000 0.000000
# 2 -0.002990 0.012675 -0.002516 0.000000 0.000000 0.000000
# 3 -0.002516 -0.002516 0.012370 0.000000 0.000000 0.000000
# 4 0.000000 0.000000 0.000000 0.049354 0.000000 0.000000
# 5 0.000000 0.000000 0.000000 0.000000 0.049354 0.000000
# 6 0.000000 0.000000 0.000000 0.000000 0.000000 0.027226
#
#
# Mechanical properties :
#
#
# Convention : Reuss Voigt Hill
#
# Bulk Modulus (GPa) = 46.13363 46.13632 46.13498
# Shear Modulus (GPa) = 26.74886 28.57779 27.66333
#
# Velocity S-wave (km/s) = 3.74454 3.87044 3.80801
# Velocity P-wave (km/s) = 6.54816 6.64515 6.59683
#
# Compressibility (1/GPa) = 0.02167616
#
# Stress axis : x y z
#
# Youngs Moduli (GPa) = 78.89369 78.89427 80.84282
#
# Poissons Ratio (x) = 0.23586 0.20342
# Poissons Ratio (y) = 0.23585 0.20342
# Poissons Ratio (z) = 0.19852 0.19852
#
# Static dielectric constant tensor:
#      x y z
#    x 1.679060 0.000000 0.000000 
#    y 0.000000 1.679060 0.000000 
#    z 0.000000 0.000000 1.562300 
# 
# From -- ./inp_files/2158.got.cif
#   From: 2010.05.17/outbox.cif.g08.bks.cpg/sg127_2_cif.got.tgz:2158.got - 2010.05.20 12:03:00.
