data_PCOD9564484
_publ_section_title
;
Structure prediction by ZEFSAII (Michael W. Deem and Ramdas Pophale) SiO2 
 PCOD9564484
Probable space group: P 4/M B M
;
_chemical_formula_sum "Si O2"
_cell_formula_units_Z 72
_cell_length_a 21.950230
_cell_length_b 21.950230
_cell_length_c 7.563028
_cell_angle_alpha 90.000000
_cell_angle_beta 90.000000
_cell_angle_gamma 90.000000
_cell_volume 3643.962162
_symmetry_space_group_name_H-M "P 4/M B M"
_symmetry_group_IT_number 127
_symmetry_cell_setting 'tetragonal'
loop_
_space_group_symop_operation_xyz
x,y,z
-y,x,z
-x,-y,z
y,-x,z
1/2+x,1/2-y,-z
1/2-x,1/2+y,-z
1/2+y,1/2+x,-z
1/2-y,1/2-x,-z
-x,-y,-z
y,-x,-z
x,y,-z
-y,x,-z
1/2-x,1/2+y,z
1/2+x,1/2-y,z
1/2-y,1/2-x,z
1/2+y,1/2+x,z
loop_
_atom_site_type_symbol
_atom_site_label
_atom_site_fract_x
_atom_site_fract_y
_atom_site_fract_z
Si Si1 0.493919 0.817123 0.789233
Si Si2 0.643197 0.402703 0.706790
Si Si3 0.035501 0.182338 0.713846
Si Si4 0.550598 0.050598 0.216734
Si Si5 0.626730 0.776026 0.785636
O O1 0.458099 0.753915 0.757826
O O2 0.467247 0.881127 0.723244
O O3 0.562240 0.803472 0.722374
O O4 0.498634 0.824308 0.000000
O O5 0.628989 0.411888 0.500000
O O6 0.588949 0.361595 0.780544
O O7 0.657395 0.470093 0.780666
O O8 0.707056 0.368066 0.723507
O O9 0.034594 0.180058 0.500000
O O10 0.500000 0.000000 0.268567
O O11 0.550798 0.050798 0.000000
O O12 0.681336 0.818665 0.727485
O O13 0.625325 0.775492 0.000000
#
# Coordination Sequence:
#
# PCOD9564484 Si02
#       5
#    16  16  16   8  16
#     4   9  17  30  49  71  96 124 154 193 236 276
#     4   9  18  32  50  70  93 122 156 194 237 283
#     4   9  18  33  50  69  94 123 156 195 238 282
#     4   9  16  28  49  75  97 123 161 197 231 278
#     4   9  17  30  48  70  94 122 157 195 232 272
#
# _framework density 19.758713
#
# number of rings (size 3 to 8) (size 9 to 14) (size 15 to 20)
#    0.000    3.000    0.000    0.667    0.000    4.444 
#    2.000    2.778    0.000    2.667    0.000    6.222 
#    0.000    0.000    0.000    0.000    0.000    0.000 
#
# Total GULP energy -401362.839809 kJ/mol
# GULP energy per Si atom -5574.483886 kJ/mol
# Density = 1.971374 g / cm^3
# Si number density = 19.758713 Si / 1000 Ang^3
#
#
#
# Elastic Constant Matrix: (Units=GPa)
#
#
# Indices 1 2 3 4 5 6 
#
# 1 141.4944 119.1419 -3.3028 0.0000 0.0000 0.0000
# 2 119.1419 141.4944 -3.3028 0.0000 0.0000 0.0000
# 3 -3.3028 -3.3028 41.5979 0.0000 0.0000 0.0000
# 4 0.0000 0.0000 0.0000 14.1046 0.0000 0.0000
# 5 0.0000 0.0000 0.0000 0.0000 14.1046 0.0000
# 6 0.0000 0.0000 0.0000 0.0000 0.0000 37.1675
#
#
#
# Elastic Compliance Matrix: (Units=1/GPa)
#
#
# Indices 1 2 3 4 5 6 
#
# 1 0.024291 -0.020447 0.000305 0.000000 0.000000 0.000000
# 2 -0.020447 0.024291 0.000305 0.000000 0.000000 0.000000
# 3 0.000305 0.000305 0.024088 0.000000 0.000000 0.000000
# 4 0.000000 0.000000 0.000000 0.070899 0.000000 0.000000
# 5 0.000000 0.000000 0.000000 0.000000 0.070899 0.000000
# 6 0.000000 0.000000 0.000000 0.000000 0.000000 0.026905
#
#
# Mechanical properties :
#
#
# Convention : Reuss Voigt Hill
#
# Bulk Modulus (GPa) = 30.30472 61.07325 45.68899
# Shear Modulus (GPa) = 17.12068 27.21205 22.16636
#
# Velocity S-wave (km/s) = 2.94681 3.71511 3.35304
# Velocity P-wave (km/s) = 5.19124 7.02705 6.17772
#
# Compressibility (1/GPa) = 0.03299816
#
# Stress axis : x y z
#
# Youngs Moduli (GPa) = 41.16733 41.16733 41.51415
#
# Poissons Ratio (x) = 0.84173 -0.01267
# Poissons Ratio (y) = 0.84173 -0.01267
# Poissons Ratio (z) = -0.01257 -0.01257
#
# Static dielectric constant tensor:
#      x y z
#    x 1.680620 0.000000 0.000000 
#    y 0.000000 1.680620 0.000000 
#    z 0.000000 0.000000 1.766320 
# 
# From -- ./inp_files/1512.got.cif
#   From: 2010.05.17/outbox.cif.g08.bks.cpg/sg127_1_cif.got.tgz:1512.got - 2010.05.20 12:03:00.
