data_PCOD9564776
_publ_section_title
;
Structure prediction by ZEFSAII (Michael W. Deem and Ramdas Pophale) SiO2 
 PCOD9564776
Probable space group: P 4/M N C
;
_chemical_formula_sum "Si O2"
_cell_formula_units_Z 112
_cell_length_a 14.935392
_cell_length_b 14.935392
_cell_length_c 27.380860
_cell_angle_alpha 90.000000
_cell_angle_beta 90.000000
_cell_angle_gamma 90.000000
_cell_volume 6107.737115
_symmetry_space_group_name_H-M "P 4/M N C"
_symmetry_group_IT_number 128
_symmetry_cell_setting 'tetragonal'
loop_
_space_group_symop_operation_xyz
x,y,z
-y,x,z
-x,-y,z
y,-x,z
1/2+x,1/2-y,1/2-z
1/2-x,1/2+y,1/2-z
1/2+y,1/2+x,1/2-z
1/2-y,1/2-x,1/2-z
-x,-y,-z
y,-x,-z
x,y,-z
-y,x,-z
1/2-x,1/2+y,1/2+z
1/2+x,1/2-y,1/2+z
1/2-y,1/2-x,1/2+z
1/2+y,1/2+x,1/2+z
loop_
_atom_site_type_symbol
_atom_site_label
_atom_site_fract_x
_atom_site_fract_y
_atom_site_fract_z
Si Si1 0.936816 0.732963 0.127665
Si Si2 0.318919 0.094386 0.634150
Si Si3 0.133838 0.785101 0.163999
Si Si4 0.368773 0.563574 0.125310
Si Si5 0.875083 0.921520 0.741308
Si Si6 0.975695 0.394492 0.944621
Si Si7 0.941547 0.589457 0.307105
O O1 0.858269 0.806352 0.134769
O O2 0.914468 0.651417 0.164420
O O3 0.032760 0.776898 0.142251
O O4 0.952650 0.677232 0.077200
O O5 0.322778 0.187312 0.662750
O O6 0.226260 0.089552 0.605061
O O7 0.396443 0.104707 0.594497
O O8 0.335537 0.008341 0.669786
O O9 0.124583 0.810735 0.220678
O O10 0.385843 0.459801 0.113358
O O11 0.358146 0.581556 0.183630
O O12 0.972858 0.881097 0.751630
O O13 0.000000 0.500000 0.945588
O O14 0.952457 0.368807 0.000000
O O15 0.914911 0.585090 0.250000
O O16 0.000000 0.500000 0.316004
#
# Coordination Sequence:
#
# PCOD9564776 Si02
#       7
#    16  16  16  16  16  16  16
#     4  11  22  41  53  90 117 154 201 244 300 361
#     4  11  22  37  58  89 114 151 207 247 297 369
#     4  11  22  33  57  80 117 154 200 243 294 345
#     4   9  21  36  53  78 121 166 201 243 292 344
#     4   9  17  32  49  73 113 166 204 230 271 341
#     4  10  20  41  67  86 111 150 190 246 313 364
#     4  11  22  37  55  79 127 160 186 246 301 347
#
# _framework density 18.337396999999999
#
# number of rings (size 3 to 8) (size 9 to 14) (size 15 to 20)
#    0.000    1.714    5.714    0.857    4.000    0.857 
#    0.000    2.857    0.000    0.857    0.000    5.000 
#    0.000    0.000    0.000    0.000    0.000    0.000 
#
# Total GULP energy -623776.947456 kJ/mol
# GULP energy per Si atom -5569.437031 kJ/mol
# Density = 1.829566 g / cm^3
# Si number density = 18.337397 Si / 1000 Ang^3
#
#
#
# Elastic Constant Matrix: (Units=GPa)
#
#
# Indices 1 2 3 4 5 6 
#
# 1 84.3668 43.9778 11.3400 0.0000 0.0000 0.0000
# 2 43.9778 84.3665 11.3401 0.0000 0.0000 0.0000
# 3 11.3400 11.3401 46.7347 0.0000 0.0000 0.0000
# 4 0.0000 0.0000 0.0000 5.0226 0.0000 0.0000
# 5 0.0000 0.0000 0.0000 0.0000 5.0226 0.0000
# 6 0.0000 0.0000 0.0000 0.0000 0.0000 9.3950
#
#
#
# Elastic Compliance Matrix: (Units=1/GPa)
#
#
# Indices 1 2 3 4 5 6 
#
# 1 0.016450 -0.008309 -0.001975 0.000000 0.000000 0.000000
# 2 -0.008309 0.016450 -0.001975 0.000000 0.000000 0.000000
# 3 -0.001975 -0.001975 0.022356 0.000000 0.000000 0.000000
# 4 0.000000 0.000000 0.000000 0.199101 0.000000 0.000000
# 5 0.000000 0.000000 0.000000 0.000000 0.199101 0.000000
# 6 0.000000 0.000000 0.000000 0.000000 0.000000 0.106440
#
#
# Mechanical properties :
#
#
# Convention : Reuss Voigt Hill
#
# Bulk Modulus (GPa) = 32.53514 38.75374 35.64444
# Shear Modulus (GPa) = 8.40813 13.80870 11.10841
#
# Velocity S-wave (km/s) = 2.14364 2.74713 2.46393
# Velocity P-wave (km/s) = 4.88957 5.58944 5.25118
#
# Compressibility (1/GPa) = 0.03073600
#
# Stress axis : x y z
#
# Youngs Moduli (GPa) = 60.79055 60.79027 44.73076
#
# Poissons Ratio (x) = 0.50513 0.08835
# Poissons Ratio (y) = 0.50513 0.08836
# Poissons Ratio (z) = 0.12008 0.12008
#
# Static dielectric constant tensor:
#      x y z
#    x 1.676620 0.000000 0.000000 
#    y 0.000000 1.676620 0.000000 
#    z 0.000000 0.000000 1.641190 
# 
# From -- ./inp_files/6899.got.cif
#   From: 2010.05.17/outbox.cif.g08.bks.cpg/sg128_4_cif.got.tgz:6899.got - 2010.05.20 12:07:25.
