data_PCOD9564631
_publ_section_title
;
Structure prediction by ZEFSAII (Michael W. Deem and Ramdas Pophale) SiO2 
 PCOD9564631
Probable space group: P 4/M N C
;
_chemical_formula_sum "Si O2"
_cell_formula_units_Z 80
_cell_length_a 11.726387
_cell_length_b 11.726387
_cell_length_c 31.910061
_cell_angle_alpha 90.000000
_cell_angle_beta 90.000000
_cell_angle_gamma 90.000000
_cell_volume 4387.893521
_symmetry_space_group_name_H-M "P 4/M N C"
_symmetry_group_IT_number 128
_symmetry_cell_setting 'tetragonal'
loop_
_space_group_symop_operation_xyz
x,y,z
-y,x,z
-x,-y,z
y,-x,z
1/2+x,1/2-y,1/2-z
1/2-x,1/2+y,1/2-z
1/2+y,1/2+x,1/2-z
1/2-y,1/2-x,1/2-z
-x,-y,-z
y,-x,-z
x,y,-z
-y,x,-z
1/2-x,1/2+y,1/2+z
1/2+x,1/2-y,1/2+z
1/2-y,1/2-x,1/2+z
1/2+y,1/2+x,1/2+z
loop_
_atom_site_type_symbol
_atom_site_label
_atom_site_fract_x
_atom_site_fract_y
_atom_site_fract_z
Si Si1 0.262465 0.113784 0.831700
Si Si2 0.625308 0.183782 0.297078
Si Si3 0.879464 0.434296 0.045719
Si Si4 0.558639 0.679420 0.424058
Si Si5 0.498220 0.140128 0.134468
O O1 0.182331 0.195739 0.806104
O O2 0.202030 0.068419 0.874076
O O3 0.377748 0.175883 0.846232
O O4 0.302873 0.008313 0.804398
O O5 0.645764 0.145764 0.250000
O O6 0.669986 0.098888 0.333766
O O7 0.905376 0.300253 0.055568
O O8 0.820985 0.493741 0.086076
O O9 0.000000 0.500000 0.042914
O O10 0.823351 0.443653 0.000000
O O11 0.428954 0.639979 0.434360
O O12 0.500000 0.000000 0.132468
#
# Coordination Sequence:
#
# PCOD9564631 Si02
#       5
#    16  16  16  16  16
#     4  10  20  36  55  79 110 150 191 231 286 349
#     4  11  23  34  57  82 113 149 192 241 287 348
#     4   9  18  33  53  77 110 151 193 231 273 342
#     4  10  19  33  55  83 119 156 183 231 298 356
#     4   8  18  35  54  75 105 145 191 229 279 334
#
# _framework density 18.231983
#
# number of rings (size 3 to 8) (size 9 to 14) (size 15 to 20)
#    0.000    2.400    2.000    1.200    2.800    4.000 
#    0.000    1.000    0.000    0.600    0.000    0.000 
#    0.000    0.800    0.000    9.600    0.000    0.000 
#
# Total GULP energy -445546.611173 kJ/mol
# GULP energy per Si atom -5569.332640 kJ/mol
# Density = 1.819049 g / cm^3
# Si number density = 18.231983 Si / 1000 Ang^3
#
#
#
# Elastic Constant Matrix: (Units=GPa)
#
#
# Indices 1 2 3 4 5 6 
#
# 1 43.8587 10.6449 34.3291 0.0000 0.0000 0.0000
# 2 10.6449 43.8587 34.3291 0.0000 0.0000 0.0000
# 3 34.3291 34.3291 158.7272 0.0000 0.0000 0.0000
# 4 0.0000 0.0000 0.0000 17.4699 0.0000 0.0000
# 5 0.0000 0.0000 0.0000 0.0000 17.4699 0.0000
# 6 0.0000 0.0000 0.0000 0.0000 0.0000 5.0036
#
#
#
# Elastic Compliance Matrix: (Units=1/GPa)
#
#
# Indices 1 2 3 4 5 6 
#
# 1 0.027663 -0.002445 -0.005454 0.000000 0.000000 0.000000
# 2 -0.002445 0.027663 -0.005454 0.000000 0.000000 0.000000
# 3 -0.005454 -0.005454 0.008659 0.000000 0.000000 0.000000
# 4 0.000000 0.000000 0.000000 0.057241 0.000000 0.000000
# 5 0.000000 0.000000 0.000000 0.000000 0.057241 0.000000
# 6 0.000000 0.000000 0.000000 0.000000 0.000000 0.199857
#
#
# Mechanical properties :
#
#
# Convention : Reuss Voigt Hill
#
# Bulk Modulus (GPa) = 26.82487 45.00567 35.91527
# Shear Modulus (GPa) = 11.97726 19.13142 15.55434
#
# Velocity S-wave (km/s) = 2.56586 3.24286 2.92402
# Velocity P-wave (km/s) = 4.85007 6.22576 5.58047
#
# Compressibility (1/GPa) = 0.03727884
#
# Stress axis : x y z
#
# Youngs Moduli (GPa) = 36.14943 36.14943 115.48276
#
# Poissons Ratio (x) = 0.08839 0.62985
# Poissons Ratio (y) = 0.08839 0.62985
# Poissons Ratio (z) = 0.19716 0.19716
#
# Static dielectric constant tensor:
#      x y z
#    x 1.559230 0.000000 0.000000 
#    y 0.000000 1.559230 0.000000 
#    z 0.000000 0.000000 1.690800 
# 
# From -- ./inp_files/7161.got.cif
#   From: 2010.05.17/outbox.cif.g08.bks.cpg/sg128_4_cif.got.tgz:7161.got - 2010.05.20 12:07:25.
