data_PCOD9564966
_publ_section_title
;
Structure prediction by ZEFSAII (Michael W. Deem and Ramdas Pophale) SiO2 
 PCOD9564966
Probable space group: P 4/M N C
;
_chemical_formula_sum "Si O2"
_cell_formula_units_Z 96
_cell_length_a 26.964917
_cell_length_b 26.964917
_cell_length_c 10.470845
_cell_angle_alpha 90.000000
_cell_angle_beta 90.000000
_cell_angle_gamma 90.000000
_cell_volume 7613.422065
_symmetry_space_group_name_H-M "P 4/M N C"
_symmetry_group_IT_number 128
_symmetry_cell_setting 'tetragonal'
loop_
_space_group_symop_operation_xyz
x,y,z
-y,x,z
-x,-y,z
y,-x,z
1/2+x,1/2-y,1/2-z
1/2-x,1/2+y,1/2-z
1/2+y,1/2+x,1/2-z
1/2-y,1/2-x,1/2-z
-x,-y,-z
y,-x,-z
x,y,-z
-y,x,-z
1/2-x,1/2+y,1/2+z
1/2+x,1/2-y,1/2+z
1/2-y,1/2-x,1/2+z
1/2+y,1/2+x,1/2+z
loop_
_atom_site_type_symbol
_atom_site_label
_atom_site_fract_x
_atom_site_fract_y
_atom_site_fract_z
Si Si1 0.803867 0.751550 0.355013
Si Si2 0.384333 0.666671 0.152567
Si Si3 0.281087 0.162984 0.354312
Si Si4 0.698940 0.416306 0.153274
Si Si5 0.082554 0.004627 0.500000
Si Si6 0.083841 0.000266 0.000000
Si Si7 0.007386 0.149536 0.747735
O O1 0.788601 0.711400 0.250000
O O2 0.807710 0.731975 0.500000
O O3 0.852887 0.783370 0.324262
O O4 0.759890 0.792764 0.356610
O O5 0.347707 0.620388 0.181693
O O6 0.435553 0.664878 0.228463
O O7 0.394899 0.664285 0.000000
O O8 0.321462 0.178539 0.250000
O O9 0.299979 0.158419 0.500000
O O10 0.248987 0.114421 0.320489
O O11 0.692744 0.466765 0.231667
O O12 0.697919 0.425550 0.000000
O O13 0.045175 0.050326 0.500000
O O14 0.114629 0.005191 0.627002
O O15 0.118211 0.999613 0.124517
O O16 0.047846 0.952346 0.000000
#
# Coordination Sequence:
#
# PCOD9564966 Si02
#       7
#    16  16  16  16   8   8  16
#     4   8  14  25  40  58  77  94 116 149 189 232
#     4   9  16  27  43  60  76  95 125 165 198 229
#     4   8  14  25  40  58  77  94 116 149 189 232
#     4   9  16  27  43  60  76  95 125 165 198 229
#     4  11  20  28  44  60  66  90 138 174 194 233
#     4  11  24  36  40  48  74 106 134 174 218 245
#     4  12  20  31  44  56  76 100 130 167 210 246
#
# _framework density 12.609311
#
# number of rings (size 3 to 8) (size 9 to 14) (size 15 to 20)
#    0.000    2.500    1.667    5.000    0.000    1.333 
#    3.000    0.000    0.000    0.000    0.000    0.000 
#    0.000    0.000    0.000    0.000    0.000    0.833 
#
# Total GULP energy -534813.761717 kJ/mol
# GULP energy per Si atom -5570.976685 kJ/mol
# Density = 1.258061 g / cm^3
# Si number density = 12.609311 Si / 1000 Ang^3
#
#
#
# Elastic Constant Matrix: (Units=GPa)
#
#
# Indices 1 2 3 4 5 6 
#
# 1 27.2647 11.0993 16.9039 0.0000 0.0000 0.0000
# 2 11.0993 27.2652 16.9037 0.0000 0.0000 0.0000
# 3 16.9039 16.9037 62.3714 0.0000 0.0000 0.0000
# 4 0.0000 0.0000 0.0000 14.7051 0.0000 0.0000
# 5 0.0000 0.0000 0.0000 0.0000 14.7050 0.0000
# 6 0.0000 0.0000 0.0000 0.0000 0.0000 48.4666
#
#
#
# Elastic Compliance Matrix: (Units=1/GPa)
#
#
# Indices 1 2 3 4 5 6 
#
# 1 0.048053 -0.013808 -0.009281 0.000000 0.000000 0.000000
# 2 -0.013808 0.048052 -0.009281 0.000000 0.000000 0.000000
# 3 -0.009281 -0.009281 0.021064 0.000000 0.000000 0.000000
# 4 0.000000 0.000000 0.000000 0.068004 0.000000 0.000000
# 5 0.000000 0.000000 0.000000 0.000000 0.068004 0.000000
# 6 0.000000 0.000000 0.000000 0.000000 0.000000 0.020633
#
#
# Mechanical properties :
#
#
# Convention : Reuss Voigt Hill
#
# Bulk Modulus (GPa) = 19.07340 22.96834 21.02087
# Shear Modulus (GPa) = 14.04403 20.37497 17.20950
#
# Velocity S-wave (km/s) = 3.34096 4.02415 3.69836
# Velocity P-wave (km/s) = 5.48105 6.31242 5.91137
#
# Compressibility (1/GPa) = 0.05242904
#
# Stress axis : x y z
#
# Youngs Moduli (GPa) = 20.81054 20.81100 47.47535
#
# Poissons Ratio (x) = 0.28735 0.44062
# Poissons Ratio (y) = 0.28734 0.44060
# Poissons Ratio (z) = 0.19314 0.19314
#
# Static dielectric constant tensor:
#      x y z
#    x 1.410410 0.000000 0.000000 
#    y 0.000000 1.410410 0.000000 
#    z 0.000000 0.000000 1.414020 
# 
# From -- ./inp_files/2952.got.cif
#   From: 2010.05.17/outbox.cif.g08.bks.cpg/sg128_2_cif.got.tgz:2952.got - 2010.05.20 12:07:25.
