data_PCOD9564326
_publ_section_title
;
Structure prediction by ZEFSAII (Michael W. Deem and Ramdas Pophale) SiO2 
 PCOD9564326
Probable space group: P 4/M B M
;
_chemical_formula_sum "Si O2"
_cell_formula_units_Z 58
_cell_length_a 14.871968
_cell_length_b 14.871968
_cell_length_c 13.689329
_cell_angle_alpha 90.000000
_cell_angle_beta 90.000000
_cell_angle_gamma 90.000000
_cell_volume 3027.743258
_symmetry_space_group_name_H-M "P 4/M B M"
_symmetry_group_IT_number 127
_symmetry_cell_setting 'tetragonal'
loop_
_space_group_symop_operation_xyz
x,y,z
-y,x,z
-x,-y,z
y,-x,z
1/2+x,1/2-y,-z
1/2-x,1/2+y,-z
1/2+y,1/2+x,-z
1/2-y,1/2-x,-z
-x,-y,-z
y,-x,-z
x,y,-z
-y,x,-z
1/2-x,1/2+y,z
1/2+x,1/2-y,z
1/2-y,1/2-x,z
1/2+y,1/2+x,z
loop_
_atom_site_type_symbol
_atom_site_label
_atom_site_fract_x
_atom_site_fract_y
_atom_site_fract_z
Si Si1 0.930503 0.569498 0.707465
Si Si2 0.151128 0.972972 0.000000
Si Si3 0.838544 0.187202 0.301067
Si Si4 0.000000 0.500000 0.500000
Si Si5 0.369377 0.578853 0.500000
Si Si6 0.738600 0.517412 0.207622
O O1 0.944984 0.555017 0.589896
O O2 0.955800 0.665740 0.749006
O O3 0.000000 0.500000 0.753287
O O4 0.100298 0.070125 0.000000
O O5 0.212698 0.963989 0.904144
O O6 0.748410 0.248410 0.300436
O O7 0.884511 0.183978 0.406673
O O8 0.825184 0.083935 0.269454
O O9 0.912503 0.226297 0.228091
O O10 0.380829 0.470981 0.500000
#
# Coordination Sequence:
#
# PCOD9564326 Si02
#       6
#     8   8  16   2   8  16
#     4  10  24  49  73 102 146 193 234 294 345 438
#     4  11  24  43  74 105 139 192 234 297 377 438
#     4  12  25  43  67  99 143 183 234 297 360 437
#     4   8  24  48  80  94 136 212 244 250 358 446
#     4  11  23  40  66  98 135 183 230 294 373 435
#     4  12  24  45  71 105 140 184 245 294 358 431
#
# _framework density 19.156182999999999
#
# number of rings (size 3 to 8) (size 9 to 14) (size 15 to 20)
#    0.414    0.276    6.897    1.241    0.000    3.310 
#    0.000    4.828    0.000    0.000    0.000    0.000 
#    0.000    0.000    0.000    0.000    0.000    0.000 
#
# Total GULP energy -322891.668078 kJ/mol
# GULP energy per Si atom -5567.097725 kJ/mol
# Density = 1.911258 g / cm^3
# Si number density = 19.156183 Si / 1000 Ang^3
#
#
#
# Elastic Constant Matrix: (Units=GPa)
#
#
# Indices 1 2 3 4 5 6 
#
# 1 64.6327 12.1641 21.3927 0.0000 0.0000 0.0000
# 2 12.1641 64.6327 21.3927 0.0000 0.0000 0.0000
# 3 21.3927 21.3927 125.8654 0.0000 0.0000 0.0000
# 4 0.0000 0.0000 0.0000 22.7164 0.0000 0.0000
# 5 0.0000 0.0000 0.0000 0.0000 22.7164 0.0000
# 6 0.0000 0.0000 0.0000 0.0000 0.0000 35.7012
#
#
#
# Elastic Compliance Matrix: (Units=1/GPa)
#
#
# Indices 1 2 3 4 5 6 
#
# 1 0.016721 -0.002338 -0.002445 0.000000 0.000000 0.000000
# 2 -0.002338 0.016721 -0.002445 0.000000 0.000000 0.000000
# 3 -0.002445 -0.002445 0.008776 0.000000 0.000000 0.000000
# 4 0.000000 0.000000 0.000000 0.044021 0.000000 0.000000
# 5 0.000000 0.000000 0.000000 0.000000 0.044021 0.000000
# 6 0.000000 0.000000 0.000000 0.000000 0.000000 0.028010
#
#
# Mechanical properties :
#
#
# Convention : Reuss Voigt Hill
#
# Bulk Modulus (GPa) = 36.01777 40.55885 38.28831
# Shear Modulus (GPa) = 27.47555 29.57219 28.52387
#
# Velocity S-wave (km/s) = 3.79131 3.93331 3.86296
# Velocity P-wave (km/s) = 6.16509 6.46889 6.31882
#
# Compressibility (1/GPa) = 0.02776407
#
# Stress axis : x y z
#
# Youngs Moduli (GPa) = 59.80433 59.80433 113.94704
#
# Poissons Ratio (x) = 0.13981 0.27856
# Poissons Ratio (y) = 0.13981 0.27856
# Poissons Ratio (z) = 0.14620 0.14620
#
# Static dielectric constant tensor:
#      x y z
#    x 1.702810 0.000000 0.000000 
#    y 0.000000 1.702810 0.000000 
#    z 0.000000 0.000000 1.674540 
# 
# From -- ./inp_files/4132.got.cif
#   From: 2010.05.17/outbox.cif.g08.bks.cpg/sg127_3_cif.got.tgz:4132.got - 2010.05.20 12:03:00.
