data_PCOD9564857
_publ_section_title
;
Structure prediction by ZEFSAII (Michael W. Deem and Ramdas Pophale) SiO2 
 PCOD9564857
Probable space group: P 4/M N C
;
_chemical_formula_sum "Si O2"
_cell_formula_units_Z 64
_cell_length_a 15.229192
_cell_length_b 15.229192
_cell_length_c 13.757653
_cell_angle_alpha 90.000000
_cell_angle_beta 90.000000
_cell_angle_gamma 90.000000
_cell_volume 3190.788921
_symmetry_space_group_name_H-M "P 4/M N C"
_symmetry_group_IT_number 128
_symmetry_cell_setting 'tetragonal'
loop_
_space_group_symop_operation_xyz
x,y,z
-y,x,z
-x,-y,z
y,-x,z
1/2+x,1/2-y,1/2-z
1/2-x,1/2+y,1/2-z
1/2+y,1/2+x,1/2-z
1/2-y,1/2-x,1/2-z
-x,-y,-z
y,-x,-z
x,y,-z
-y,x,-z
1/2-x,1/2+y,1/2+z
1/2+x,1/2-y,1/2+z
1/2-y,1/2-x,1/2+z
1/2+y,1/2+x,1/2+z
loop_
_atom_site_type_symbol
_atom_site_label
_atom_site_fract_x
_atom_site_fract_y
_atom_site_fract_z
Si Si1 0.074131 0.245100 0.116072
Si Si2 0.386167 0.278673 0.313487
Si Si3 0.553592 0.086391 0.882995
Si Si4 0.607977 0.794545 0.885669
O O1 0.156240 0.184483 0.141616
O O2 0.087281 0.345933 0.151180
O O3 0.986419 0.203207 0.160544
O O4 0.063477 0.247674 0.000000
O O5 0.373970 0.277107 0.197005
O O6 0.367018 0.182220 0.360137
O O7 0.488582 0.167183 0.862816
O O8 0.500000 0.000000 0.852801
O O9 0.558811 0.082835 0.000000
O O10 0.613944 0.771947 0.000000
#
# Coordination Sequence:
#
# PCOD9564857 Si02
#       4
#    16  16  16  16
#     4  11  22  40  64  93 129 165 209 263 315 378
#     4  11  24  38  60  92 124 170 216 253 315 384
#     4   9  17  34  64  92 118 158 202 255 327 379
#     4  10  21  40  60  88 126 161 207 269 322 377
#
# _framework density 20.057734
#
# number of rings (size 3 to 8) (size 9 to 14) (size 15 to 20)
#    0.000    1.750    2.500    2.250    0.000    5.500 
#    0.000    5.000    0.000    0.000    0.000    1.750 
#    0.000    0.000    0.000    0.000    0.000    0.000 
#
# Total GULP energy -357326.253020 kJ/mol
# GULP energy per Si atom -5583.222703 kJ/mol
# Density = 2.001208 g / cm^3
# Si number density = 20.057734 Si / 1000 Ang^3
#
#
#
# Elastic Constant Matrix: (Units=GPa)
#
#
# Indices 1 2 3 4 5 6 
#
# 1 68.6650 50.4755 6.8002 0.0000 0.0000 0.0000
# 2 50.4755 68.6650 6.8002 0.0000 0.0000 0.0000
# 3 6.8002 6.8002 121.3542 0.0000 0.0000 0.0000
# 4 0.0000 0.0000 0.0000 21.6403 0.0000 0.0000
# 5 0.0000 0.0000 0.0000 0.0000 21.6403 0.0000
# 6 0.0000 0.0000 0.0000 0.0000 0.0000 22.9705
#
#
#
# Elastic Compliance Matrix: (Units=1/GPa)
#
#
# Indices 1 2 3 4 5 6 
#
# 1 0.031712 -0.023265 -0.000473 0.000000 0.000000 0.000000
# 2 -0.023265 0.031712 -0.000473 0.000000 0.000000 0.000000
# 3 -0.000473 -0.000473 0.008293 0.000000 0.000000 0.000000
# 4 0.000000 0.000000 0.000000 0.046210 0.000000 0.000000
# 5 0.000000 0.000000 0.000000 0.000000 0.046210 0.000000
# 6 0.000000 0.000000 0.000000 0.000000 0.000000 0.043534
#
#
# Mechanical properties :
#
#
# Convention : Reuss Voigt Hill
#
# Bulk Modulus (GPa) = 42.92782 42.98178 42.95480
# Shear Modulus (GPa) = 18.94946 26.22412 22.58679
#
# Velocity S-wave (km/s) = 3.07701 3.61977 3.35937
# Velocity P-wave (km/s) = 5.83717 6.24066 6.04228
#
# Compressibility (1/GPa) = 0.02329492
#
# Stress axis : x y z
#
# Youngs Moduli (GPa) = 31.53361 31.53361 120.57795
#
# Poissons Ratio (x) = 0.73362 0.05708
# Poissons Ratio (y) = 0.73362 0.05708
# Poissons Ratio (z) = 0.01493 0.01493
#
# Static dielectric constant tensor:
#      x y z
#    x 1.696440 0.000000 0.000000 
#    y 0.000000 1.696440 0.000000 
#    z 0.000000 0.000000 1.737610 
# 
# From -- ./inp_files/3521.got.cif
#   From: 2010.05.17/outbox.cif.g08.bks.cpg/sg128_2_cif.got.tgz:3521.got - 2010.05.20 12:07:25.
