data_PCOD9564050
_publ_section_title
;
Structure prediction by ZEFSAII (Michael W. Deem and Ramdas Pophale) SiO2 
 PCOD9564050
Probable space group: P 4/M B M
;
_chemical_formula_sum "Si O2"
_cell_formula_units_Z 72
_cell_length_a 21.826305
_cell_length_b 21.826305
_cell_length_c 7.964394
_cell_angle_alpha 90.000000
_cell_angle_beta 90.000000
_cell_angle_gamma 90.000000
_cell_volume 3794.138463
_symmetry_space_group_name_H-M "P 4/M B M"
_symmetry_group_IT_number 127
_symmetry_cell_setting 'tetragonal'
loop_
_space_group_symop_operation_xyz
x,y,z
-y,x,z
-x,-y,z
y,-x,z
1/2+x,1/2-y,-z
1/2-x,1/2+y,-z
1/2+y,1/2+x,-z
1/2-y,1/2-x,-z
-x,-y,-z
y,-x,-z
x,y,-z
-y,x,-z
1/2-x,1/2+y,z
1/2+x,1/2-y,z
1/2-y,1/2-x,z
1/2+y,1/2+x,z
loop_
_atom_site_type_symbol
_atom_site_label
_atom_site_fract_x
_atom_site_fract_y
_atom_site_fract_z
Si Si1 0.184927 0.489746 0.697890
Si Si2 0.220967 0.623361 0.203416
Si Si3 0.895539 0.142307 0.803610
Si Si4 0.526495 0.321234 0.696300
Si Si5 0.050851 0.449150 0.706416
O O1 0.183959 0.475382 0.500000
O O2 0.189593 0.562587 0.724741
O O3 0.251259 0.466097 0.763788
O O4 0.119740 0.466064 0.764608
O O5 0.182341 0.682341 0.250641
O O6 0.291186 0.626226 0.259307
O O7 0.221042 0.617489 0.000000
O O8 0.861593 0.086786 0.715307
O O9 0.968835 0.145622 0.782016
O O10 0.881033 0.136963 0.000000
O O11 0.510464 0.315746 0.500000
O O12 0.050273 0.449728 0.500000
O O13 0.000000 0.500000 0.757561
#
# Coordination Sequence:
#
# PCOD9564050 Si02
#       5
#    16  16  16  16   8
#     4   9  18  32  51  74 103 136 170 210 254 300
#     4   9  18  33  52  74 101 133 170 212 253 295
#     4  10  20  35  55  76 101 135 172 208 253 311
#     4  10  20  35  53  76 105 133 167 214 262 302
#     4   9  16  28  49  77 105 137 175 209 247 300
#
# _framework density 18.976638999999999
#
# number of rings (size 3 to 8) (size 9 to 14) (size 15 to 20)
#    0.000    2.556    0.000    2.000    0.000    3.556 
#    2.000    2.778    0.000    2.000    0.000    0.000 
#    0.000    0.000    0.000    0.000    0.000    0.000 
#
# Total GULP energy -401421.142711 kJ/mol
# GULP energy per Si atom -5575.293649 kJ/mol
# Density = 1.893345 g / cm^3
# Si number density = 18.976639 Si / 1000 Ang^3
#
#
#
# Elastic Constant Matrix: (Units=GPa)
#
#
# Indices 1 2 3 4 5 6 
#
# 1 106.8576 93.5499 -4.4210 0.0000 0.0000 0.0000
# 2 93.5499 106.8575 -4.4211 0.0000 0.0000 0.0000
# 3 -4.4210 -4.4211 15.2652 0.0000 0.0000 0.0000
# 4 0.0000 0.0000 0.0000 12.6194 0.0000 0.0000
# 5 0.0000 0.0000 0.0000 0.0000 12.6193 0.0000
# 6 0.0000 0.0000 0.0000 0.0000 0.0000 34.6025
#
#
#
# Elastic Compliance Matrix: (Units=1/GPa)
#
#
# Indices 1 2 3 4 5 6 
#
# 1 0.040099 -0.035045 0.001464 0.000000 0.000000 0.000000
# 2 -0.035045 0.040100 0.001464 0.000000 0.000000 0.000000
# 3 0.001464 0.001464 0.066356 0.000000 0.000000 0.000000
# 4 0.000000 0.000000 0.000000 0.079243 0.000000 0.000000
# 5 0.000000 0.000000 0.000000 0.000000 0.079243 0.000000
# 6 0.000000 0.000000 0.000000 0.000000 0.000000 0.028900
#
#
# Mechanical properties :
#
#
# Convention : Reuss Voigt Hill
#
# Bulk Modulus (GPa) = 12.14766 44.26622 28.20694
# Shear Modulus (GPa) = 11.74766 21.58642 16.66704
#
# Velocity S-wave (km/s) = 2.49079 3.37638 2.96682
# Velocity P-wave (km/s) = 3.83240 6.21106 5.16065
#
# Compressibility (1/GPa) = 0.08232041
#
# Stress axis : x y z
#
# Youngs Moduli (GPa) = 24.93797 24.93794 15.07018
#
# Poissons Ratio (x) = 0.87395 -0.02206
# Poissons Ratio (y) = 0.87395 -0.02206
# Poissons Ratio (z) = -0.03650 -0.03651
#
# Static dielectric constant tensor:
#      x y z
#    x 1.645500 0.000000 0.000000 
#    y 0.000000 1.645500 0.000000 
#    z 0.000000 0.000000 1.672940 
# 
# From -- ./inp_files/1571.got.cif
#   From: 2010.05.17/outbox.cif.g08.bks.cpg/sg127_1_cif.got.tgz:1571.got - 2010.05.20 12:03:00.
