data_PCOD9564281
_publ_section_title
;
Structure prediction by ZEFSAII (Michael W. Deem and Ramdas Pophale) SiO2 
 PCOD9564281
Probable space group: P 4/M B M
;
_chemical_formula_sum "Si O2"
_cell_formula_units_Z 112
_cell_length_a 14.087556
_cell_length_b 14.087556
_cell_length_c 34.677278
_cell_angle_alpha 90.000000
_cell_angle_beta 90.000000
_cell_angle_gamma 90.000000
_cell_volume 6882.026031
_symmetry_space_group_name_H-M "P 4/M B M"
_symmetry_group_IT_number 127
_symmetry_cell_setting 'tetragonal'
loop_
_space_group_symop_operation_xyz
x,y,z
-y,x,z
-x,-y,z
y,-x,z
1/2+x,1/2-y,-z
1/2-x,1/2+y,-z
1/2+y,1/2+x,-z
1/2-y,1/2-x,-z
-x,-y,-z
y,-x,-z
x,y,-z
-y,x,-z
1/2-x,1/2+y,z
1/2+x,1/2-y,z
1/2-y,1/2-x,z
1/2+y,1/2+x,z
loop_
_atom_site_type_symbol
_atom_site_label
_atom_site_fract_x
_atom_site_fract_y
_atom_site_fract_z
Si Si1 0.756825 0.902167 0.954495
Si Si2 0.101470 0.239242 0.912742
Si Si3 0.439905 0.350337 0.458542
Si Si4 0.097507 0.755014 0.293809
Si Si5 0.761164 0.102122 0.748415
Si Si6 0.350045 0.559382 0.373988
Si Si7 0.649677 0.557561 0.830659
O O1 0.664252 0.835749 0.949973
O O2 0.842505 0.845986 0.934008
O O3 0.743355 0.003230 0.934637
O O4 0.775841 0.912546 0.000000
O O5 0.169786 0.330215 0.914109
O O6 0.081179 0.208224 0.868980
O O7 0.550373 0.382065 0.458594
O O8 0.420399 0.302145 0.500000
O O9 0.422491 0.306199 0.416540
O O10 0.161713 0.661713 0.289984
O O11 0.154354 0.839957 0.272581
O O12 0.085023 0.784111 0.338347
O O13 0.995730 0.744422 0.273947
O O14 0.669557 0.169557 0.747660
O O15 0.792934 0.080594 0.791995
O O16 0.381753 0.448845 0.371342
O O17 0.552492 0.618340 0.830820
#
# Coordination Sequence:
#
# PCOD9564281 Si02
#       7
#    16  16  16  16  16  16  16
#     4  10  22  39  60  87 116 149 191 231 272 325
#     4  11  22  39  60  84 119 153 183 227 276 319
#     4   7  10  17  32  60  95 128 165 210 263 319
#     4  11  22  35  54  78 107 140 177 224 274 324
#     4  11  23  39  58  81 109 142 178 221 271 320
#     4   9  15  25  46  71  98 135 175 219 270 321
#     4  11  21  37  62  87 111 143 182 226 271 316
#
# _framework density 16.274277999999999
#
# number of rings (size 3 to 8) (size 9 to 14) (size 15 to 20)
#    0.000    2.000    4.286    2.143    0.000    2.000 
#    0.000    2.143    0.000    2.143    0.000    0.000 
#    0.000    0.571    0.000    1.286    0.000    0.000 
#
# Total GULP energy -624477.871598 kJ/mol
# GULP energy per Si atom -5575.695282 kJ/mol
# Density = 1.623724 g / cm^3
# Si number density = 16.274278 Si / 1000 Ang^3
#
#
#
# Elastic Constant Matrix: (Units=GPa)
#
#
# Indices 1 2 3 4 5 6 
#
# 1 74.6548 29.4508 51.0117 0.0000 0.0000 0.0000
# 2 29.4508 74.6548 51.0117 0.0000 0.0000 0.0000
# 3 51.0117 51.0117 176.4984 0.0000 0.0000 0.0000
# 4 0.0000 0.0000 0.0000 12.0971 0.0000 0.0000
# 5 0.0000 0.0000 0.0000 0.0000 12.0971 0.0000
# 6 0.0000 0.0000 0.0000 0.0000 0.0000 5.5670
#
#
#
# Elastic Compliance Matrix: (Units=1/GPa)
#
#
# Indices 1 2 3 4 5 6 
#
# 1 0.017762 -0.004360 -0.003873 0.000000 0.000000 0.000000
# 2 -0.004360 0.017762 -0.003873 0.000000 0.000000 0.000000
# 3 -0.003873 -0.003873 0.007905 0.000000 0.000000 0.000000
# 4 0.000000 0.000000 0.000000 0.082664 0.000000 0.000000
# 5 0.000000 0.000000 0.000000 0.000000 0.082664 0.000000
# 6 0.000000 0.000000 0.000000 0.000000 0.000000 0.179630
#
#
# Mechanical properties :
#
#
# Convention : Reuss Voigt Hill
#
# Bulk Modulus (GPa) = 52.04421 65.41739 58.73080
# Shear Modulus (GPa) = 11.93303 18.90783 15.42043
#
# Velocity S-wave (km/s) = 2.71079 3.41225 3.08154
# Velocity P-wave (km/s) = 6.46890 7.47052 6.98768
#
# Compressibility (1/GPa) = 0.01921443
#
# Stress axis : x y z
#
# Youngs Moduli (GPa) = 56.30092 56.30092 126.50688
#
# Poissons Ratio (x) = 0.24548 0.49000
# Poissons Ratio (y) = 0.24548 0.49000
# Poissons Ratio (z) = 0.21807 0.21807
#
# Static dielectric constant tensor:
#      x y z
#    x 1.520130 0.000000 0.000000 
#    y 0.000000 1.520130 0.000000 
#    z 0.000000 0.000000 1.561450 
# 
# From -- ./inp_files/6390.got.cif
#   From: 2010.05.17/outbox.cif.g08.bks.cpg/sg127_4_cif.got.tgz:6390.got - 2010.05.20 12:03:00.
