data_PCOD9564656
_publ_section_title
;
Structure prediction by ZEFSAII (Michael W. Deem and Ramdas Pophale) SiO2 
 PCOD9564656
Probable space group: P 4/M N C
;
_chemical_formula_sum "Si O2"
_cell_formula_units_Z 96
_cell_length_a 14.214895
_cell_length_b 14.214895
_cell_length_c 24.781124
_cell_angle_alpha 90.000000
_cell_angle_beta 90.000000
_cell_angle_gamma 90.000000
_cell_volume 5007.354203
_symmetry_space_group_name_H-M "P 4/M N C"
_symmetry_group_IT_number 128
_symmetry_cell_setting 'tetragonal'
loop_
_space_group_symop_operation_xyz
x,y,z
-y,x,z
-x,-y,z
y,-x,z
1/2+x,1/2-y,1/2-z
1/2-x,1/2+y,1/2-z
1/2+y,1/2+x,1/2-z
1/2-y,1/2-x,1/2-z
-x,-y,-z
y,-x,-z
x,y,-z
-y,x,-z
1/2-x,1/2+y,1/2+z
1/2+x,1/2-y,1/2+z
1/2-y,1/2-x,1/2+z
1/2+y,1/2+x,1/2+z
loop_
_atom_site_type_symbol
_atom_site_label
_atom_site_fract_x
_atom_site_fract_y
_atom_site_fract_z
Si Si1 0.151218 0.993735 0.185275
Si Si2 0.000309 0.341266 0.253913
Si Si3 0.189899 0.994025 0.059475
Si Si4 0.676855 0.164202 0.561360
Si Si5 0.313985 0.176780 0.938185
Si Si6 0.113664 0.510555 0.131137
O O1 0.095644 0.088159 0.202598
O O2 0.255368 0.995315 0.211716
O O3 0.148540 0.987615 0.119737
O O4 0.092086 0.407915 0.250000
O O5 0.995322 0.318687 0.316997
O O6 0.908617 0.408617 0.250000
O O7 0.270056 0.914944 0.060062
O O8 0.233179 0.098104 0.058652
O O9 0.143116 0.980428 0.000000
O O10 0.699655 0.137404 0.500000
O O11 0.763673 0.227970 0.581660
O O12 0.646154 0.074820 0.594375
O O13 0.393454 0.134215 0.900227
O O14 0.348403 0.190235 0.000000
O O15 0.000000 0.500000 0.143291
#
# Coordination Sequence:
#
# PCOD9564656 Si02
#       6
#    16  16  16  16  16  16
#     4  11  25  42  60  86 120 159 204 245 288 354
#     4  11  23  41  61  85 118 151 198 256 307 345
#     4  10  19  35  59  87 123 160 194 237 293 355
#     4  10  21  35  56  91 127 157 195 243 297 356
#     4  10  21  35  56  91 127 157 195 243 297 356
#     4  12  21  37  65  88 115 155 205 251 298 345
#
# _framework density 19.171800999999999
#
# number of rings (size 3 to 8) (size 9 to 14) (size 15 to 20)
#    0.000    1.333    3.333    3.500    0.000    4.667 
#    0.000    0.833    0.000    0.500    0.000    2.333 
#    0.000    0.000    0.000    0.000    0.000    0.000 
#
# Total GULP energy -534908.000318 kJ/mol
# GULP energy per Si atom -5571.958337 kJ/mol
# Density = 1.912817 g / cm^3
# Si number density = 19.171801 Si / 1000 Ang^3
#
#
#
# Elastic Constant Matrix: (Units=GPa)
#
#
# Indices 1 2 3 4 5 6 
#
# 1 80.1255 47.3774 41.7432 0.0000 0.0000 0.0000
# 2 47.3774 80.1261 41.7433 0.0000 0.0000 0.0000
# 3 41.7432 41.7433 87.6323 0.0000 0.0000 0.0000
# 4 0.0000 0.0000 0.0000 26.2483 0.0000 0.0000
# 5 0.0000 0.0000 0.0000 0.0000 26.2462 0.0000
# 6 0.0000 0.0000 0.0000 0.0000 0.0000 25.0750
#
#
#
# Elastic Compliance Matrix: (Units=1/GPa)
#
#
# Indices 1 2 3 4 5 6 
#
# 1 0.020967 -0.009569 -0.005429 0.000000 0.000000 0.000000
# 2 -0.009569 0.020967 -0.005429 0.000000 0.000000 0.000000
# 3 -0.005429 -0.005429 0.016584 0.000000 0.000000 0.000000
# 4 0.000000 0.000000 0.000000 0.038098 0.000000 0.000000
# 5 0.000000 0.000000 0.000000 0.000000 0.038101 0.000000
# 6 0.000000 0.000000 0.000000 0.000000 0.000000 0.039880
#
#
# Mechanical properties :
#
#
# Convention : Reuss Voigt Hill
#
# Bulk Modulus (GPa) = 56.61780 56.62353 56.62067
# Shear Modulus (GPa) = 22.58975 23.31523 22.95249
#
# Velocity S-wave (km/s) = 3.43633 3.49108 3.46381
# Velocity P-wave (km/s) = 6.73353 6.77119 6.75239
#
# Compressibility (1/GPa) = 0.01766229
#
# Stress axis : x y z
#
# Youngs Moduli (GPa) = 47.69395 47.69441 60.29966
#
# Poissons Ratio (x) = 0.45638 0.32739
# Poissons Ratio (y) = 0.45638 0.32739
# Poissons Ratio (z) = 0.25895 0.25895
#
# Static dielectric constant tensor:
#      x y z
#    x 1.668350 0.000000 0.000000 
#    y 0.000000 1.668350 0.000000 
#    z 0.000000 0.000000 1.728430 
# 
# From -- ./inp_files/5754.got.cif
#   From: 2010.05.17/outbox.cif.g08.bks.cpg/sg128_3_cif.got.tgz:5754.got - 2010.05.20 12:07:25.
