data_PCOD9564387
_publ_section_title
;
Structure prediction by ZEFSAII (Michael W. Deem and Ramdas Pophale) SiO2 
 PCOD9564387
Probable space group: P 4/M B M
;
_chemical_formula_sum "Si O2"
_cell_formula_units_Z 104
_cell_length_a 14.370282
_cell_length_b 14.370282
_cell_length_c 28.323610
_cell_angle_alpha 90.000000
_cell_angle_beta 90.000000
_cell_angle_gamma 90.000000
_cell_volume 5848.967218
_symmetry_space_group_name_H-M "P 4/M B M"
_symmetry_group_IT_number 127
_symmetry_cell_setting 'tetragonal'
loop_
_space_group_symop_operation_xyz
x,y,z
-y,x,z
-x,-y,z
y,-x,z
1/2+x,1/2-y,-z
1/2-x,1/2+y,-z
1/2+y,1/2+x,-z
1/2-y,1/2-x,-z
-x,-y,-z
y,-x,-z
x,y,-z
-y,x,-z
1/2-x,1/2+y,z
1/2+x,1/2-y,z
1/2-y,1/2-x,z
1/2+y,1/2+x,z
loop_
_atom_site_type_symbol
_atom_site_label
_atom_site_fract_x
_atom_site_fract_y
_atom_site_fract_z
Si Si1 0.861115 0.925477 0.795207
Si Si2 0.548898 0.350772 0.445749
Si Si3 0.905190 0.750131 0.647775
Si Si4 0.428879 0.928879 0.943545
Si Si5 0.164442 0.818601 0.107398
Si Si6 0.237368 0.107250 0.696155
Si Si7 0.223019 0.990591 0.944877
O O1 0.812890 0.886603 0.842401
O O2 0.801155 0.900441 0.749351
O O3 0.963581 0.878433 0.794336
O O4 0.612845 0.442928 0.439506
O O5 0.559378 0.319409 0.500000
O O6 0.574319 0.275389 0.406679
O O7 0.843230 0.656771 0.652940
O O8 0.841884 0.834653 0.668046
O O9 0.004187 0.748319 0.674724
O O10 0.324860 0.954097 0.933335
O O11 0.500000 0.000000 0.920620
O O12 0.435902 0.935902 0.000000
O O13 0.261212 0.761212 0.108649
O O14 0.164244 0.926486 0.090485
O O15 0.098373 0.775823 0.067364
O O16 0.330844 0.169157 0.694127
O O17 0.199662 0.974590 0.000000
#
# Coordination Sequence:
#
# PCOD9564387 Si02
#       7
#    16  16  16   8  16  16  16
#     4  11  22  40  65  89 115 153 196 245 301 359
#     4   9  17  31  55  87 124 166 213 264 311 356
#     4  11  22  36  61  92 122 164 209 253 313 368
#     4   9  18  36  58  82 112 147 193 239 277 328
#     4  12  24  41  62  86 122 159 193 239 299 356
#     4  11  23  40  63  91 120 153 201 256 308 367
#     4  11  23  38  60  88 117 153 196 238 284 346
#
# _framework density 17.780918
#
# number of rings (size 3 to 8) (size 9 to 14) (size 15 to 20)
#    0.000    1.308    5.385    1.846    0.000    2.769 
#    0.000    0.769    1.692    0.462    0.000    1.077 
#    0.000    0.000    0.000    0.000    0.000    0.000 
#
# Total GULP energy -579768.941238 kJ/mol
# GULP energy per Si atom -5574.701358 kJ/mol
# Density = 1.774045 g / cm^3
# Si number density = 17.780918 Si / 1000 Ang^3
#
#
#
# Elastic Constant Matrix: (Units=GPa)
#
#
# Indices 1 2 3 4 5 6 
#
# 1 81.0446 40.2942 43.2926 0.0000 0.0000 0.0000
# 2 40.2942 81.0446 43.2926 0.0000 0.0000 0.0000
# 3 43.2926 43.2926 123.8930 0.0000 0.0000 0.0000
# 4 0.0000 0.0000 0.0000 22.4218 0.0000 0.0000
# 5 0.0000 0.0000 0.0000 0.0000 22.4218 0.0000
# 6 0.0000 0.0000 0.0000 0.0000 0.0000 22.4374
#
#
#
# Elastic Compliance Matrix: (Units=1/GPa)
#
#
# Indices 1 2 3 4 5 6 
#
# 1 0.017759 -0.006780 -0.003836 0.000000 0.000000 0.000000
# 2 -0.006780 0.017759 -0.003836 0.000000 0.000000 0.000000
# 3 -0.003836 -0.003836 0.010753 0.000000 0.000000 0.000000
# 4 0.000000 0.000000 0.000000 0.044600 0.000000 0.000000
# 5 0.000000 0.000000 0.000000 0.000000 0.044600 0.000000
# 6 0.000000 0.000000 0.000000 0.000000 0.000000 0.044568
#
#
# Mechanical properties :
#
#
# Convention : Reuss Voigt Hill
#
# Bulk Modulus (GPa) = 57.58749 59.97119 58.77934
# Shear Modulus (GPa) = 23.28467 24.06304 23.67386
#
# Velocity S-wave (km/s) = 3.62267 3.68272 3.65282
# Velocity P-wave (km/s) = 7.06795 7.20308 7.13583
#
# Compressibility (1/GPa) = 0.01736488
#
# Stress axis : x y z
#
# Youngs Moduli (GPa) = 56.30844 56.30844 93.00018
#
# Poissons Ratio (x) = 0.38179 0.35679
# Poissons Ratio (y) = 0.38179 0.35679
# Poissons Ratio (z) = 0.21602 0.21602
#
# Static dielectric constant tensor:
#      x y z
#    x 1.644840 0.000000 0.000000 
#    y 0.000000 1.644840 0.000000 
#    z 0.000000 0.000000 1.600570 
# 
# From -- ./inp_files/6202.got.cif
#   From: 2010.05.17/outbox.cif.g08.bks.cpg/sg127_4_cif.got.tgz:6202.got - 2010.05.20 12:03:00.
