data_PCOD9564371
_publ_section_title
;
Structure prediction by ZEFSAII (Michael W. Deem and Ramdas Pophale) SiO2 
 PCOD9564371
Probable space group: P 4/M B M
;
_chemical_formula_sum "Si O2"
_cell_formula_units_Z 84
_cell_length_a 14.345838
_cell_length_b 14.345838
_cell_length_c 21.061793
_cell_angle_alpha 90.000000
_cell_angle_beta 90.000000
_cell_angle_gamma 90.000000
_cell_volume 4334.581615
_symmetry_space_group_name_H-M "P 4/M B M"
_symmetry_group_IT_number 127
_symmetry_cell_setting 'tetragonal'
loop_
_space_group_symop_operation_xyz
x,y,z
-y,x,z
-x,-y,z
y,-x,z
1/2+x,1/2-y,-z
1/2-x,1/2+y,-z
1/2+y,1/2+x,-z
1/2-y,1/2-x,-z
-x,-y,-z
y,-x,-z
x,y,-z
-y,x,-z
1/2-x,1/2+y,z
1/2+x,1/2-y,z
1/2-y,1/2-x,z
1/2+y,1/2+x,z
loop_
_atom_site_type_symbol
_atom_site_label
_atom_site_fract_x
_atom_site_fract_y
_atom_site_fract_z
Si Si1 0.911166 0.869691 0.071403
Si Si2 0.521567 0.770029 0.609843
Si Si3 0.264344 0.087283 0.248978
Si Si4 0.092053 0.592053 0.500000
Si Si5 0.619070 0.271041 0.799409
Si Si6 0.688098 0.660475 0.572886
O O1 0.872658 0.808649 0.128628
O O2 0.023662 0.875877 0.077126
O O3 0.888755 0.836840 0.000000
O O4 0.561904 0.790574 0.678879
O O5 0.537152 0.848278 0.556347
O O6 0.581252 0.680353 0.587019
O O7 0.414651 0.740354 0.614617
O O8 0.348116 0.151885 0.222168
O O9 0.171763 0.151468 0.243674
O O10 0.243966 0.989136 0.215837
O O11 0.676036 0.176036 0.791153
O O12 0.699103 0.630631 0.500000
O O13 0.739726 0.760275 0.578610
#
# Coordination Sequence:
#
# PCOD9564371 Si02
#       6
#    16  16  16   4  16  16
#     4   9  17  34  64  97 129 164 205 255 302 345
#     4  12  22  40  63  83 115 154 195 249 315 363
#     4  11  24  40  60  86 122 158 205 256 299 377
#     4  12  20  40  65  82 112 161 188 258 318 364
#     4  11  23  40  63  92 123 167 207 245 309 364
#     4  11  21  38  59  82 110 143 186 244 309 368
#
# _framework density 19.379031999999999
#
# number of rings (size 3 to 8) (size 9 to 14) (size 15 to 20)
#    0.000    1.143    5.714    1.714    0.000    3.810 
#    0.000    3.810    0.000    0.571    0.000    1.333 
#    0.000    0.000    0.000    0.000    0.000    0.000 
#
# Total GULP energy -467820.937545 kJ/mol
# GULP energy per Si atom -5569.296876 kJ/mol
# Density = 1.933492 g / cm^3
# Si number density = 19.379032 Si / 1000 Ang^3
#
#
#
# Elastic Constant Matrix: (Units=GPa)
#
#
# Indices 1 2 3 4 5 6 
#
# 1 56.7920 25.1171 3.8410 0.0000 0.0000 0.0000
# 2 25.1171 56.7920 3.8410 0.0000 0.0000 0.0000
# 3 3.8410 3.8410 84.4312 0.0000 0.0000 0.0000
# 4 0.0000 0.0000 0.0000 18.0080 0.0000 0.0000
# 5 0.0000 0.0000 0.0000 0.0000 18.0080 0.0000
# 6 0.0000 0.0000 0.0000 0.0000 0.0000 13.1293
#
#
#
# Elastic Compliance Matrix: (Units=1/GPa)
#
#
# Indices 1 2 3 4 5 6 
#
# 1 0.021916 -0.009655 -0.000558 0.000000 0.000000 0.000000
# 2 -0.009655 0.021916 -0.000558 0.000000 0.000000 0.000000
# 3 -0.000558 -0.000558 0.011895 0.000000 0.000000 0.000000
# 4 0.000000 0.000000 0.000000 0.055531 0.000000 0.000000
# 5 0.000000 0.000000 0.000000 0.000000 0.055531 0.000000
# 6 0.000000 0.000000 0.000000 0.000000 0.000000 0.076165
#
#
# Mechanical properties :
#
#
# Convention : Reuss Voigt Hill
#
# Bulk Modulus (GPa) = 29.25217 29.29039 29.27128
# Shear Modulus (GPa) = 18.12318 20.84346 19.48332
#
# Velocity S-wave (km/s) = 3.06141 3.28314 3.17421
# Velocity P-wave (km/s) = 5.25584 5.43317 5.34524
#
# Compressibility (1/GPa) = 0.03418550
#
# Stress axis : x y z
#
# Youngs Moduli (GPa) = 45.62908 45.62908 84.07094
#
# Poissons Ratio (x) = 0.44054 0.04689
# Poissons Ratio (y) = 0.44054 0.04689
# Poissons Ratio (z) = 0.02545 0.02545
#
# Static dielectric constant tensor:
#      x y z
#    x 1.668020 0.000000 0.000000 
#    y 0.000000 1.668020 0.000000 
#    z 0.000000 0.000000 1.699700 
# 
# From -- ./inp_files/5701.got.cif
#   From: 2010.05.17/outbox.cif.g08.bks.cpg/sg127_3_cif.got.tgz:5701.got - 2010.05.20 12:03:00.
