data_PCOD9564647
_publ_section_title
;
Structure prediction by ZEFSAII (Michael W. Deem and Ramdas Pophale) SiO2 
 PCOD9564647
Probable space group: P 4/M N C
;
_chemical_formula_sum "Si O2"
_cell_formula_units_Z 96
_cell_length_a 14.367263
_cell_length_b 14.367263
_cell_length_c 22.448248
_cell_angle_alpha 90.000000
_cell_angle_beta 90.000000
_cell_angle_gamma 90.000000
_cell_volume 4633.727980
_symmetry_space_group_name_H-M "P 4/M N C"
_symmetry_group_IT_number 128
_symmetry_cell_setting 'tetragonal'
loop_
_space_group_symop_operation_xyz
x,y,z
-y,x,z
-x,-y,z
y,-x,z
1/2+x,1/2-y,1/2-z
1/2-x,1/2+y,1/2-z
1/2+y,1/2+x,1/2-z
1/2-y,1/2-x,1/2-z
-x,-y,-z
y,-x,-z
x,y,-z
-y,x,-z
1/2-x,1/2+y,1/2+z
1/2+x,1/2-y,1/2+z
1/2-y,1/2-x,1/2+z
1/2+y,1/2+x,1/2+z
loop_
_atom_site_type_symbol
_atom_site_label
_atom_site_fract_x
_atom_site_fract_y
_atom_site_fract_z
Si Si1 0.791254 0.390295 0.932952
Si Si2 0.080897 0.260207 0.744456
Si Si3 0.370747 0.253724 0.796805
Si Si4 0.101062 0.784866 0.065311
Si Si5 0.263783 0.414939 0.621377
Si Si6 0.937857 0.585801 0.569373
O O1 0.748709 0.361276 0.869399
O O2 0.883709 0.325747 0.934657
O O3 0.824157 0.496244 0.929407
O O4 0.747531 0.374667 0.000000
O O5 0.146025 0.353975 0.750000
O O6 0.148686 0.178391 0.720865
O O7 0.052822 0.235501 0.811535
O O8 0.981565 0.263747 0.711828
O O9 0.318514 0.181487 0.750000
O O10 0.171141 0.827087 0.112593
O O11 0.996010 0.805047 0.080582
O O12 0.128088 0.819044 0.000000
O O13 0.158030 0.396910 0.602613
O O14 0.916920 0.565648 0.500000
O O15 0.000000 0.500000 0.593698
#
# Coordination Sequence:
#
# PCOD9564647 Si02
#       6
#    16  16  16  16  16  16
#     4  10  21  39  63  90 121 162 207 264 324 373
#     4  11  24  42  65  92 125 167 214 262 321 380
#     4  11  24  44  64  94 130 166 213 270 315 385
#     4  11  22  36  57  87 125 166 206 250 309 378
#     4  12  22  38  59  88 126 170 207 255 310 380
#     4  10  19  34  60  90 123 162 210 260 312 369
#
# _framework density 20.717659999999999
#
# number of rings (size 3 to 8) (size 9 to 14) (size 15 to 20)
#    0.000    1.167    1.667    6.500    0.000    1.000 
#    0.000    5.000    0.000    0.000    0.000    1.167 
#    0.000    0.000    0.000    0.000    0.000    0.000 
#
# Total GULP energy -534897.023711 kJ/mol
# GULP energy per Si atom -5571.843997 kJ/mol
# Density = 2.067051 g / cm^3
# Si number density = 20.717660 Si / 1000 Ang^3
#
#
#
# Elastic Constant Matrix: (Units=GPa)
#
#
# Indices 1 2 3 4 5 6 
#
# 1 82.0529 30.9072 7.9741 0.0000 0.0000 0.0000
# 2 30.9072 82.0530 7.9738 0.0000 0.0000 0.0000
# 3 7.9741 7.9738 105.5788 0.0000 0.0000 0.0000
# 4 0.0000 0.0000 0.0000 20.6939 0.0000 0.0000
# 5 0.0000 0.0000 0.0000 0.0000 20.6939 0.0000
# 6 0.0000 0.0000 0.0000 0.0000 0.0000 17.2770
#
#
#
# Elastic Compliance Matrix: (Units=1/GPa)
#
#
# Indices 1 2 3 4 5 6 
#
# 1 0.014250 -0.005302 -0.000676 0.000000 0.000000 0.000000
# 2 -0.005302 0.014250 -0.000676 0.000000 0.000000 0.000000
# 3 -0.000676 -0.000676 0.009574 0.000000 0.000000 0.000000
# 4 0.000000 0.000000 0.000000 0.048324 0.000000 0.000000
# 5 0.000000 0.000000 0.000000 0.000000 0.048323 0.000000
# 6 0.000000 0.000000 0.000000 0.000000 0.000000 0.057881
#
#
# Mechanical properties :
#
#
# Convention : Reuss Voigt Hill
#
# Bulk Modulus (GPa) = 40.37695 40.37722 40.37709
# Shear Modulus (GPa) = 23.34660 26.58824 24.96742
#
# Velocity S-wave (km/s) = 3.36057 3.58629 3.47526
# Velocity P-wave (km/s) = 5.88127 6.05642 5.96949
#
# Compressibility (1/GPa) = 0.02476660
#
# Stress axis : x y z
#
# Youngs Moduli (GPa) = 70.17519 70.17527 104.45299
#
# Poissons Ratio (x) = 0.37207 0.07059
# Poissons Ratio (y) = 0.37207 0.07059
# Poissons Ratio (z) = 0.04743 0.04742
#
# Static dielectric constant tensor:
#      x y z
#    x 1.737790 0.000000 0.000000 
#    y 0.000000 1.737790 0.000000 
#    z 0.000000 0.000000 1.773910 
# 
# From -- ./inp_files/5764.got.cif
#   From: 2010.05.17/outbox.cif.g08.bks.cpg/sg128_3_cif.got.tgz:5764.got - 2010.05.20 12:07:25.
