data_PCOD9564692
_publ_section_title
;
Structure prediction by ZEFSAII (Michael W. Deem and Ramdas Pophale) SiO2 
 PCOD9564692
Probable space group: P 4/M N C
;
_chemical_formula_sum "Si O2"
_cell_formula_units_Z 116
_cell_length_a 17.854758
_cell_length_b 17.854758
_cell_length_c 14.324296
_cell_angle_alpha 90.000000
_cell_angle_beta 90.000000
_cell_angle_gamma 90.000000
_cell_volume 4566.476460
_symmetry_space_group_name_H-M "P 4/M N C"
_symmetry_group_IT_number 128
_symmetry_cell_setting 'tetragonal'
loop_
_space_group_symop_operation_xyz
x,y,z
-y,x,z
-x,-y,z
y,-x,z
1/2+x,1/2-y,1/2-z
1/2-x,1/2+y,1/2-z
1/2+y,1/2+x,1/2-z
1/2-y,1/2-x,1/2-z
-x,-y,-z
y,-x,-z
x,y,-z
-y,x,-z
1/2-x,1/2+y,1/2+z
1/2+x,1/2-y,1/2+z
1/2-y,1/2-x,1/2+z
1/2+y,1/2+x,1/2+z
loop_
_atom_site_type_symbol
_atom_site_label
_atom_site_fract_x
_atom_site_fract_y
_atom_site_fract_z
Si Si1 0.574536 0.831521 0.885595
Si Si2 0.901882 0.579393 0.105126
Si Si3 0.500000 0.500000 0.332909
Si Si4 0.315688 0.772963 0.354788
Si Si5 0.669146 0.543680 0.612450
Si Si6 0.449031 0.609355 0.112348
Si Si7 0.303439 0.657999 0.107209
Si Si8 0.320817 0.035750 0.886076
O O1 0.494339 0.863036 0.854934
O O2 0.594999 0.749248 0.849194
O O3 0.642530 0.886081 0.859807
O O4 0.572324 0.827455 0.000000
O O5 0.847382 0.650739 0.100850
O O6 0.975062 0.617494 0.148070
O O7 0.923532 0.556814 0.000000
O O8 0.410951 0.471156 0.341792
O O9 0.296697 0.796697 0.250000
O O10 0.374868 0.706722 0.368437
O O11 0.234281 0.757516 0.395173
O O12 0.657731 0.537063 0.500000
O O13 0.736730 0.487120 0.641268
O O14 0.405786 0.533238 0.142050
O O15 0.388273 0.670041 0.143962
O O16 0.459638 0.615363 0.000000
O O17 0.315542 0.634676 0.000000
O O18 0.320067 0.031185 0.000000
#
# Coordination Sequence:
#
# PCOD9564692 Si02
#       8
#    16  16   4  16  16  16  16  16
#     4   9  17  28  52  89 116 141 181 239 302 363
#     4   9  17  33  59  86 112 146 192 244 302 366
#     4  12  25  40  72 108 132 172 229 298 349 392
#     4  11  24  41  58  80 119 169 208 256 317 381
#     4  10  21  39  65  96 125 160 212 269 331 390
#     4   8  15  28  48  77 111 141 174 228 295 357
#     4  10  20  32  55  84 110 144 193 250 304 363
#     4   8  15  29  52  85 121 148 179 237 305 366
#
# _framework density 25.402518000000001
#
# number of rings (size 3 to 8) (size 9 to 14) (size 15 to 20)
#    0.000    2.621    0.000    3.517    3.862    1.655 
#    0.000    1.379    0.000    3.310    0.000    0.000 
#    0.000    0.000    0.000    0.000    0.000    0.000 
#
# Total GULP energy -646545.033003 kJ/mol
# GULP energy per Si atom -5573.664078 kJ/mol
# Density = 2.534470 g / cm^3
# Si number density = 25.402518 Si / 1000 Ang^3
#
#
#
# Elastic Constant Matrix: (Units=GPa)
#
#
# Indices 1 2 3 4 5 6 
#
# 1 81.9924 -0.5989 -13.5349 0.0000 0.0000 0.0000
# 2 -0.5989 81.9924 -13.5349 0.0000 0.0000 0.0000
# 3 -13.5349 -13.5349 85.2153 0.0000 0.0000 0.0000
# 4 0.0000 0.0000 0.0000 -36.4481 0.0000 0.0000
# 5 0.0000 0.0000 0.0000 0.0000 -36.4481 0.0000
# 6 0.0000 0.0000 0.0000 0.0000 0.0000 13.1697
#
#
#
# Elastic Compliance Matrix: (Units=1/GPa)
#
#
# Indices 1 2 3 4 5 6 
#
# 1 0.012539 0.000432 0.002060 0.000000 0.000000 0.000000
# 2 0.000432 0.012539 0.002060 0.000000 0.000000 0.000000
# 3 0.002060 0.002060 0.012389 0.000000 0.000000 0.000000
# 4 0.000000 0.000000 0.000000 -0.027436 0.000000 0.000000
# 5 0.000000 0.000000 0.000000 0.000000 -0.027436 0.000000
# 6 0.000000 0.000000 0.000000 0.000000 0.000000 0.075932
#
#
# Mechanical properties :
#
#
# Convention : Reuss Voigt Hill
#
# Bulk Modulus (GPa) = 21.47178 21.54031 21.50604
# Shear Modulus (GPa) = 76.98490 6.51262 41.74876
#
# Velocity S-wave (km/s) = 5.51106 1.60291 4.05839
# Velocity P-wave (km/s) = 6.99762 3.45308 5.51772
#
# Compressibility (1/GPa) = 0.04657275
#
# Stress axis : x y z
#
# Youngs Moduli (GPa) = 79.74803 79.74803 80.71389
#
# Poissons Ratio (x) = -0.03443 -0.16629
# Poissons Ratio (y) = -0.03443 -0.16629
# Poissons Ratio (z) = -0.16430 -0.16430
#
# Static dielectric constant tensor:
#      x y z
#    x 1.962200 0.000000 0.000000 
#    y 0.000000 1.962200 0.000000 
#    z 0.000000 0.000000 2.207150 
# 
# From -- ./inp_files/4973.got.cif
#   From: 2010.05.17/outbox.cif.g08.bks.cpg/sg128_3_cif.got.tgz:4973.got - 2010.05.20 12:07:25.
