data_PCOD9564737
_publ_section_title
;
Structure prediction by ZEFSAII (Michael W. Deem and Ramdas Pophale) SiO2 
 PCOD9564737
Probable space group: P 4/M N C
;
_chemical_formula_sum "Si O2"
_cell_formula_units_Z 112
_cell_length_a 14.419763
_cell_length_b 14.419763
_cell_length_c 25.172986
_cell_angle_alpha 90.000000
_cell_angle_beta 90.000000
_cell_angle_gamma 90.000000
_cell_volume 5234.208028
_symmetry_space_group_name_H-M "P 4/M N C"
_symmetry_group_IT_number 128
_symmetry_cell_setting 'tetragonal'
loop_
_space_group_symop_operation_xyz
x,y,z
-y,x,z
-x,-y,z
y,-x,z
1/2+x,1/2-y,1/2-z
1/2-x,1/2+y,1/2-z
1/2+y,1/2+x,1/2-z
1/2-y,1/2-x,1/2-z
-x,-y,-z
y,-x,-z
x,y,-z
-y,x,-z
1/2-x,1/2+y,1/2+z
1/2+x,1/2-y,1/2+z
1/2-y,1/2-x,1/2+z
1/2+y,1/2+x,1/2+z
loop_
_atom_site_type_symbol
_atom_site_label
_atom_site_fract_x
_atom_site_fract_y
_atom_site_fract_z
Si Si1 0.962661 0.222122 0.557917
Si Si2 0.363787 0.813487 0.895654
Si Si3 0.611000 0.401798 0.278075
Si Si4 0.957770 0.602765 0.804411
Si Si5 0.636551 0.790332 0.672076
Si Si6 0.620803 0.670087 0.839088
Si Si7 0.817898 0.259942 0.057727
O O1 0.978424 0.177153 0.500000
O O2 0.948392 0.160540 0.610862
O O3 0.863239 0.273227 0.555110
O O4 0.045746 0.294050 0.568643
O O5 0.373759 0.899318 0.856590
O O6 0.358527 0.722378 0.858563
O O7 0.268862 0.807706 0.929198
O O8 0.626283 0.508423 0.295599
O O9 0.693345 0.338448 0.300116
O O10 0.618475 0.403104 0.214494
O O11 0.898831 0.601170 0.750000
O O12 0.000000 0.500000 0.810573
O O13 0.046042 0.669274 0.800537
O O14 0.719817 0.864949 0.673832
O O15 0.619689 0.765150 0.610172
O O16 0.858966 0.239178 0.000000
#
# Coordination Sequence:
#
# PCOD9564737 Si02
#       7
#    16  16  16  16  16  16  16
#     4   9  17  32  56  84 118 150 188 241 292 350
#     4  10  20  35  60  89 117 162 204 248 301 373
#     4  11  25  39  59  84 116 156 202 255 301 365
#     4  11  25  36  58  92 130 163 199 257 312 381
#     4  10  23  39  62  86 120 159 197 250 311 367
#     4  10  22  37  60  84 119 161 202 244 300 369
#     4   9  20  39  61  87 117 160 206 252 311 372
#
# _framework density 21.397698999999999
#
# number of rings (size 3 to 8) (size 9 to 14) (size 15 to 20)
#    0.000    2.286    0.000    3.429   12.000    0.571 
#    0.000    1.429    0.000   10.286    0.000   23.000 
#    0.000    0.000    0.000    0.000    0.000    0.000 
#
# Total GULP energy -625055.669817 kJ/mol
# GULP energy per Si atom -5580.854195 kJ/mol
# Density = 2.134900 g / cm^3
# Si number density = 21.397699 Si / 1000 Ang^3
#
#
#
# Elastic Constant Matrix: (Units=GPa)
#
#
# Indices 1 2 3 4 5 6 
#
# 1 43.6457 10.1126 6.9653 0.0000 0.0000 0.0000
# 2 10.1126 43.6453 6.9652 0.0000 0.0000 0.0000
# 3 6.9653 6.9652 105.0113 0.0000 0.0000 0.0000
# 4 0.0000 0.0000 0.0000 2.8927 0.0000 0.0000
# 5 0.0000 0.0000 0.0000 0.0000 2.8926 0.0000
# 6 0.0000 0.0000 0.0000 0.0000 0.0000 11.4421
#
#
#
# Elastic Compliance Matrix: (Units=1/GPa)
#
#
# Indices 1 2 3 4 5 6 
#
# 1 0.024374 -0.005447 -0.001255 0.000000 0.000000 0.000000
# 2 -0.005447 0.024374 -0.001255 0.000000 0.000000 0.000000
# 3 -0.001255 -0.001255 0.009689 0.000000 0.000000 0.000000
# 4 0.000000 0.000000 0.000000 0.345704 0.000000 0.000000
# 5 0.000000 0.000000 0.000000 0.000000 0.345704 0.000000
# 6 0.000000 0.000000 0.000000 0.000000 0.000000 0.087397
#
#
# Mechanical properties :
#
#
# Convention : Reuss Voigt Hill
#
# Bulk Modulus (GPa) = 23.51724 26.70984 25.11354
# Shear Modulus (GPa) = 5.76481 14.66275 10.21378
#
# Velocity S-wave (km/s) = 1.64316 2.62057 2.18716
# Velocity P-wave (km/s) = 3.82287 4.65469 4.25914
#
# Compressibility (1/GPa) = 0.04252200
#
# Stress axis : x y z
#
# Youngs Moduli (GPa) = 41.02702 41.02660 103.20633
#
# Poissons Ratio (x) = 0.22348 0.12957
# Poissons Ratio (y) = 0.22348 0.12957
# Poissons Ratio (z) = 0.05151 0.05150
#
# Static dielectric constant tensor:
#      x y z
#    x 1.798590 0.000000 0.000000 
#    y 0.000000 1.798590 0.000000 
#    z 0.000000 0.000000 1.832230 
# 
# From -- ./inp_files/6887.got.cif
#   From: 2010.05.17/outbox.cif.g08.bks.cpg/sg128_4_cif.got.tgz:6887.got - 2010.05.20 12:07:25.
