data_PCOD9564895
_publ_section_title
;
Structure prediction by ZEFSAII (Michael W. Deem and Ramdas Pophale) SiO2 
 PCOD9564895
Probable space group: P 4/M N C
;
_chemical_formula_sum "Si O2"
_cell_formula_units_Z 96
_cell_length_a 19.668314
_cell_length_b 19.668314
_cell_length_c 11.786042
_cell_angle_alpha 90.000000
_cell_angle_beta 90.000000
_cell_angle_gamma 90.000000
_cell_volume 4559.342843
_symmetry_space_group_name_H-M "P 4/M N C"
_symmetry_group_IT_number 128
_symmetry_cell_setting 'tetragonal'
loop_
_space_group_symop_operation_xyz
x,y,z
-y,x,z
-x,-y,z
y,-x,z
1/2+x,1/2-y,1/2-z
1/2-x,1/2+y,1/2-z
1/2+y,1/2+x,1/2-z
1/2-y,1/2-x,1/2-z
-x,-y,-z
y,-x,-z
x,y,-z
-y,x,-z
1/2-x,1/2+y,1/2+z
1/2+x,1/2-y,1/2+z
1/2-y,1/2-x,1/2+z
1/2+y,1/2+x,1/2+z
loop_
_atom_site_type_symbol
_atom_site_label
_atom_site_fract_x
_atom_site_fract_y
_atom_site_fract_z
Si Si1 0.241523 0.630467 0.237249
Si Si2 0.218179 0.490701 0.628099
Si Si3 0.585357 0.311476 0.000000
Si Si4 0.874944 0.793803 0.256493
Si Si5 0.921343 0.197225 0.500000
Si Si6 0.065986 0.092152 0.123370
Si Si7 0.539836 0.929048 0.375636
O O1 0.171359 0.671359 0.250000
O O2 0.240804 0.560374 0.308993
O O3 0.298185 0.686533 0.273821
O O4 0.262723 0.606091 0.110959
O O5 0.243956 0.495147 0.500000
O O6 0.243546 0.421044 0.683501
O O7 0.136660 0.491957 0.625992
O O8 0.613821 0.275930 0.887045
O O9 0.503282 0.310007 0.000000
O O10 0.623157 0.384937 0.000000
O O11 0.909936 0.866345 0.230289
O O12 0.984836 0.090633 0.126267
O O13 0.088404 0.120471 0.000000
O O14 0.572511 0.927490 0.250000
O O15 0.422219 0.075623 0.500000
O O16 0.500000 0.000000 0.379369
#
# Coordination Sequence:
#
# PCOD9564895 Si02
#       7
#    16  16   8  16   8  16  16
#     4  11  25  44  67  94 128 175 223 277 326 404
#     4  11  23  40  67  98 126 169 219 270 334 400
#     4  10  22  39  62  94 128 178 214 263 317 391
#     4  11  22  40  60  89 128 165 212 263 324 385
#     4  10  22  45  68  92 136 174 230 268 333 403
#     4   9  18  32  52  82 120 160 200 246 300 357
#     4   9  19  40  66  95 130 160 208 274 336 403
#
# _framework density 21.055665999999999
#
# number of rings (size 3 to 8) (size 9 to 14) (size 15 to 20)
#    0.000    1.833    1.667    2.500    3.500    2.833 
#    6.000    0.000    0.000    0.000    0.000    0.000 
#    0.000    0.000    0.000    0.000    0.000    0.000 
#
# Total GULP energy -535017.358306 kJ/mol
# GULP energy per Si atom -5573.097482 kJ/mol
# Density = 2.100774 g / cm^3
# Si number density = 21.055666 Si / 1000 Ang^3
#
#
#
# Elastic Constant Matrix: (Units=GPa)
#
#
# Indices 1 2 3 4 5 6 
#
# 1 131.8902 14.1873 32.6700 0.0000 0.0000 0.0000
# 2 14.1873 131.8914 32.6699 0.0000 0.0000 0.0000
# 3 32.6700 32.6699 150.4954 0.0000 0.0000 0.0000
# 4 0.0000 0.0000 0.0000 22.2766 0.0000 0.0000
# 5 0.0000 0.0000 0.0000 0.0000 22.2766 0.0000
# 6 0.0000 0.0000 0.0000 0.0000 0.0000 35.1714
#
#
#
# Elastic Compliance Matrix: (Units=1/GPa)
#
#
# Indices 1 2 3 4 5 6 
#
# 1 0.008039 -0.000457 -0.001646 0.000000 0.000000 0.000000
# 2 -0.000457 0.008039 -0.001646 0.000000 0.000000 0.000000
# 3 -0.001646 -0.001646 0.007359 0.000000 0.000000 0.000000
# 4 0.000000 0.000000 0.000000 0.044890 0.000000 0.000000
# 5 0.000000 0.000000 0.000000 0.000000 0.044890 0.000000
# 6 0.000000 0.000000 0.000000 0.000000 0.000000 0.028432
#
#
# Mechanical properties :
#
#
# Convention : Reuss Voigt Hill
#
# Bulk Modulus (GPa) = 62.73743 63.70351 63.22047
# Shear Modulus (GPa) = 32.37075 38.26156 35.31616
#
# Velocity S-wave (km/s) = 3.92521 4.26744 4.09990
# Velocity P-wave (km/s) = 7.09956 7.38931 7.24588
#
# Compressibility (1/GPa) = 0.01593945
#
# Stress axis : x y z
#
# Youngs Moduli (GPa) = 124.39469 124.39591 135.88228
#
# Poissons Ratio (x) = 0.05685 0.22365
# Poissons Ratio (y) = 0.05685 0.22365
# Poissons Ratio (z) = 0.20474 0.20474
#
# Static dielectric constant tensor:
#      x y z
#    x 1.764920 0.000000 0.000000 
#    y 0.000000 1.764920 0.000000 
#    z 0.000000 0.000000 1.920750 
# 
# From -- ./inp_files/2894.got.cif
#   From: 2010.05.17/outbox.cif.g08.bks.cpg/sg128_2_cif.got.tgz:2894.got - 2010.05.20 12:07:25.
