data_PCOD9564715
_publ_section_title
;
Structure prediction by ZEFSAII (Michael W. Deem and Ramdas Pophale) SiO2 
 PCOD9564715
Probable space group: P 4/M N C
;
_chemical_formula_sum "Si O2"
_cell_formula_units_Z 96
_cell_length_a 14.735926
_cell_length_b 14.735926
_cell_length_c 22.885904
_cell_angle_alpha 90.000000
_cell_angle_beta 90.000000
_cell_angle_gamma 90.000000
_cell_volume 4969.617184
_symmetry_space_group_name_H-M "P 4/M N C"
_symmetry_group_IT_number 128
_symmetry_cell_setting 'tetragonal'
loop_
_space_group_symop_operation_xyz
x,y,z
-y,x,z
-x,-y,z
y,-x,z
1/2+x,1/2-y,1/2-z
1/2-x,1/2+y,1/2-z
1/2+y,1/2+x,1/2-z
1/2-y,1/2-x,1/2-z
-x,-y,-z
y,-x,-z
x,y,-z
-y,x,-z
1/2-x,1/2+y,1/2+z
1/2+x,1/2-y,1/2+z
1/2-y,1/2-x,1/2+z
1/2+y,1/2+x,1/2+z
loop_
_atom_site_type_symbol
_atom_site_label
_atom_site_fract_x
_atom_site_fract_y
_atom_site_fract_z
Si Si1 0.774024 0.651653 0.434426
Si Si2 0.154957 0.726480 0.857132
Si Si3 0.978941 0.395341 0.929657
Si Si4 0.300148 0.432943 0.066824
Si Si5 0.141104 0.047366 0.778214
Si Si6 0.690794 0.412711 0.147707
O O1 0.739216 0.635724 0.500000
O O2 0.694627 0.689823 0.394496
O O3 0.829609 0.563577 0.415480
O O4 0.850587 0.729594 0.437144
O O5 0.103380 0.653958 0.897604
O O6 0.087705 0.770269 0.809813
O O7 0.243256 0.670847 0.835768
O O8 0.000000 0.500000 0.912885
O O9 0.965425 0.395560 0.000000
O O10 0.260481 0.513683 0.106149
O O11 0.380918 0.391289 0.105618
O O12 0.322383 0.460372 0.000000
O O13 0.156600 0.048023 0.708554
O O14 0.055052 0.111583 0.793350
#
# Coordination Sequence:
#
# PCOD9564715 Si02
#       6
#    16  16  16  16  16  16
#     4   9  19  35  55  85 120 152 194 246 296 360
#     4  11  22  36  60  85 113 155 204 245 299 361
#     4  10  20  36  60  88 123 159 194 247 313 371
#     4  10  20  34  57  88 119 153 190 235 299 366
#     4  11  23  41  61  80 112 153 204 251 296 347
#     4  11  21  37  56  81 118 151 191 245 293 359
#
# _framework density 19.317383
#
# number of rings (size 3 to 8) (size 9 to 14) (size 15 to 20)
#    0.000    1.667    1.667    3.500    0.000    3.667 
#    0.000    0.833    0.000    3.000    0.000    7.000 
#    0.000    0.000    0.000    0.000    0.000    0.000 
#
# Total GULP energy -535306.185405 kJ/mol
# GULP energy per Si atom -5576.106098 kJ/mol
# Density = 1.927342 g / cm^3
# Si number density = 19.317383 Si / 1000 Ang^3
#
#
#
# Elastic Constant Matrix: (Units=GPa)
#
#
# Indices 1 2 3 4 5 6 
#
# 1 66.2592 16.3626 39.9944 0.0000 0.0000 0.0000
# 2 16.3626 66.2592 39.9944 0.0000 0.0000 0.0000
# 3 39.9944 39.9944 72.1745 0.0000 0.0000 0.0000
# 4 0.0000 0.0000 0.0000 13.2606 0.0000 0.0000
# 5 0.0000 0.0000 0.0000 0.0000 13.2606 0.0000
# 6 0.0000 0.0000 0.0000 0.0000 0.0000 19.8976
#
#
#
# Elastic Compliance Matrix: (Units=1/GPa)
#
#
# Indices 1 2 3 4 5 6 
#
# 1 0.023076 0.003035 -0.014469 0.000000 0.000000 0.000000
# 2 0.003035 0.023076 -0.014469 0.000000 0.000000 0.000000
# 3 -0.014469 -0.014469 0.029891 0.000000 0.000000 0.000000
# 4 0.000000 0.000000 0.000000 0.075412 0.000000 0.000000
# 5 0.000000 0.000000 0.000000 0.000000 0.075412 0.000000
# 6 0.000000 0.000000 0.000000 0.000000 0.000000 0.050257
#
#
# Mechanical properties :
#
#
# Convention : Reuss Voigt Hill
#
# Bulk Modulus (GPa) = 41.25912 44.15505 42.70708
# Shear Modulus (GPa) = 14.83633 16.50652 15.67142
#
# Velocity S-wave (km/s) = 2.77434 2.92634 2.85135
# Velocity P-wave (km/s) = 5.62739 5.85877 5.74425
#
# Compressibility (1/GPa) = 0.02423706
#
# Stress axis : x y z
#
# Youngs Moduli (GPa) = 43.33417 43.33417 33.45476
#
# Poissons Ratio (x) = -0.13152 0.48407
# Poissons Ratio (y) = -0.13152 0.48407
# Poissons Ratio (z) = 0.62701 0.62701
#
# Static dielectric constant tensor:
#      x y z
#    x 1.738720 0.000000 0.000000 
#    y 0.000000 1.738720 0.000000 
#    z 0.000000 0.000000 1.656570 
# 
# From -- ./inp_files/5745.got.cif
#   From: 2010.05.17/outbox.cif.g08.bks.cpg/sg128_3_cif.got.tgz:5745.got - 2010.05.20 12:07:25.
