data_PCOD9564284
_publ_section_title
;
Structure prediction by ZEFSAII (Michael W. Deem and Ramdas Pophale) SiO2 
 PCOD9564284
Probable space group: P 4/M B M
;
_chemical_formula_sum "Si O2"
_cell_formula_units_Z 98
_cell_length_a 14.691323
_cell_length_b 14.691323
_cell_length_c 25.456069
_cell_angle_alpha 90.000000
_cell_angle_beta 90.000000
_cell_angle_gamma 90.000000
_cell_volume 5494.309927
_symmetry_space_group_name_H-M "P 4/M B M"
_symmetry_group_IT_number 127
_symmetry_cell_setting 'tetragonal'
loop_
_space_group_symop_operation_xyz
x,y,z
-y,x,z
-x,-y,z
y,-x,z
1/2+x,1/2-y,-z
1/2-x,1/2+y,-z
1/2+y,1/2+x,-z
1/2-y,1/2-x,-z
-x,-y,-z
y,-x,-z
x,y,-z
-y,x,-z
1/2-x,1/2+y,z
1/2+x,1/2-y,z
1/2-y,1/2-x,z
1/2+y,1/2+x,z
loop_
_atom_site_type_symbol
_atom_site_label
_atom_site_fract_x
_atom_site_fract_y
_atom_site_fract_z
Si Si1 0.245114 0.404992 0.063036
Si Si2 0.933179 0.566822 0.608311
Si Si3 0.858743 0.204510 0.671260
Si Si4 0.763986 0.890648 0.890152
Si Si5 0.500000 0.000000 0.500000
Si Si6 0.051349 0.144615 0.500000
Si Si7 0.773381 0.040799 0.386125
Si Si8 0.566725 0.639835 0.219279
O O1 0.155465 0.344536 0.078480
O O2 0.248324 0.507908 0.085949
O O3 0.332168 0.343885 0.080893
O O4 0.245655 0.411415 0.000000
O O5 0.946368 0.553633 0.546318
O O6 0.832964 0.540731 0.619852
O O7 0.000000 0.500000 0.637932
O O8 0.791488 0.291488 0.666806
O O9 0.805742 0.113153 0.656503
O O10 0.902876 0.193102 0.728427
O O11 0.939474 0.198795 0.628693
O O12 0.673573 0.826428 0.891985
O O13 0.801427 0.905811 0.831290
O O14 0.066403 0.197639 0.445430
O O15 0.946307 0.111955 0.500000
O O16 0.458804 0.617016 0.218715
#
# Coordination Sequence:
#
# PCOD9564284 Si02
#       8
#    16   8  16  16   2   8  16  16
#     4  10  22  39  62  96 134 174 221 265 314 377
#     4  10  22  42  61  85 124 163 196 244 298 368
#     4  12  25  42  66  91 121 162 206 260 315 375
#     4  11  22  40  64  91 131 174 215 265 322 375
#     4   8  20  40  64  80 116 172 208 234 290 368
#     4  11  23  37  59  89 124 158 191 244 315 374
#     4  12  23  42  62  92 123 156 206 249 309 376
#     4  11  22  40  67  93 121 161 211 265 319 375
#
# _framework density 17.836635000000001
#
# number of rings (size 3 to 8) (size 9 to 14) (size 15 to 20)
#    0.245    0.735    5.714    1.959    0.000    1.959 
#    0.000    2.449    1.796    0.000    0.000    0.000 
#    0.000    0.000    0.000    0.000    0.000    0.000 
#
# Total GULP energy -545719.961670 kJ/mol
# GULP energy per Si atom -5568.571037 kJ/mol
# Density = 1.779604 g / cm^3
# Si number density = 17.836635 Si / 1000 Ang^3
#
#
#
# Elastic Constant Matrix: (Units=GPa)
#
#
# Indices 1 2 3 4 5 6 
#
# 1 131.5540 59.0760 20.8014 0.0000 0.0000 0.0000
# 2 59.0760 131.5540 20.8014 0.0000 0.0000 0.0000
# 3 20.8014 20.8014 94.1692 0.0000 0.0000 0.0000
# 4 0.0000 0.0000 0.0000 49.6141 0.0000 0.0000
# 5 0.0000 0.0000 0.0000 0.0000 49.6141 0.0000
# 6 0.0000 0.0000 0.0000 0.0000 0.0000 23.7549
#
#
#
# Elastic Compliance Matrix: (Units=1/GPa)
#
#
# Indices 1 2 3 4 5 6 
#
# 1 0.009654 -0.004143 -0.001217 0.000000 0.000000 0.000000
# 2 -0.004143 0.009654 -0.001217 0.000000 0.000000 0.000000
# 3 -0.001217 -0.001217 0.011157 0.000000 0.000000 0.000000
# 4 0.000000 0.000000 0.000000 0.020156 0.000000 0.000000
# 5 0.000000 0.000000 0.000000 0.000000 0.020156 0.000000
# 6 0.000000 0.000000 0.000000 0.000000 0.000000 0.042097
#
#
# Mechanical properties :
#
#
# Convention : Reuss Voigt Hill
#
# Bulk Modulus (GPa) = 57.76956 62.07055 59.92006
# Shear Modulus (GPa) = 37.93651 41.70318 39.81984
#
# Velocity S-wave (km/s) = 4.61682 4.84060 4.73003
# Velocity P-wave (km/s) = 7.80247 8.13123 7.96854
#
# Compressibility (1/GPa) = 0.01731015
#
# Stress axis : x y z
#
# Youngs Moduli (GPa) = 103.57997 103.57997 89.62955
#
# Poissons Ratio (x) = 0.42912 0.10912
# Poissons Ratio (y) = 0.42912 0.10912
# Poissons Ratio (z) = 0.12610 0.12610
#
# Static dielectric constant tensor:
#      x y z
#    x 3.636870 0.000000 0.000000 
#    y 0.000000 3.636870 0.000000 
#    z 0.000000 0.000000 1.642210 
# 
# From -- ./inp_files/6155.got.cif
#   From: 2010.05.17/outbox.cif.g08.bks.cpg/sg127_4_cif.got.tgz:6155.got - 2010.05.20 12:03:00.
