data_PCOD9564608
_publ_section_title
;
Structure prediction by ZEFSAII (Michael W. Deem and Ramdas Pophale) SiO2 
 PCOD9564608
Probable space group: P 4/M N C
;
_chemical_formula_sum "Si O2"
_cell_formula_units_Z 96
_cell_length_a 25.682454
_cell_length_b 25.682454
_cell_length_c 8.991142
_cell_angle_alpha 90.000000
_cell_angle_beta 90.000000
_cell_angle_gamma 90.000000
_cell_volume 5930.453357
_symmetry_space_group_name_H-M "P 4/M N C"
_symmetry_group_IT_number 128
_symmetry_cell_setting 'tetragonal'
loop_
_space_group_symop_operation_xyz
x,y,z
-y,x,z
-x,-y,z
y,-x,z
1/2+x,1/2-y,1/2-z
1/2-x,1/2+y,1/2-z
1/2+y,1/2+x,1/2-z
1/2-y,1/2-x,1/2-z
-x,-y,-z
y,-x,-z
x,y,-z
-y,x,-z
1/2-x,1/2+y,1/2+z
1/2+x,1/2-y,1/2+z
1/2-y,1/2-x,1/2+z
1/2+y,1/2+x,1/2+z
loop_
_atom_site_type_symbol
_atom_site_label
_atom_site_fract_x
_atom_site_fract_y
_atom_site_fract_z
Si Si1 0.668982 0.246834 0.178186
Si Si2 0.446273 0.238393 0.322387
Si Si3 0.750594 0.059589 0.830813
Si Si4 0.750332 0.326537 0.678180
Si Si5 0.549483 0.873248 0.824774
Si Si6 0.054742 0.374376 0.168404
O O1 0.694307 0.194307 0.250000
O O2 0.609836 0.259021 0.228307
O O3 0.705757 0.292348 0.243618
O O4 0.672580 0.243317 0.000000
O O5 0.449814 0.225753 0.500000
O O6 0.500646 0.268573 0.288266
O O7 0.388064 0.260170 0.299351
O O8 0.447014 0.186441 0.225116
O O9 0.687906 0.054270 0.833976
O O10 0.768419 0.070833 0.000000
O O11 0.804166 0.304166 0.750000
O O12 0.751682 0.316914 0.500000
O O13 0.595894 0.904107 0.750000
O O14 0.495134 0.893510 0.758866
O O15 0.551007 0.878421 0.000000
O O16 0.105399 0.394602 0.250000
O O17 0.052754 0.393294 0.000000
#
# Coordination Sequence:
#
# PCOD9564608 Si02
#       6
#    16  16  16  16  16  16
#     4  11  21  32  48  71  98 129 163 198 237 281
#     4   9  19  34  51  70  92 120 154 191 233 280
#     4   9  18  33  50  68  92 120 151 189 230 277
#     4  10  19  32  50  72  98 128 160 196 239 284
#     4  11  21  32  46  62  83 112 147 187 231 275
#     4  10  20  33  47  63  83 109 146 189 233 277
#
# _framework density 16.187631
#
# number of rings (size 3 to 8) (size 9 to 14) (size 15 to 20)
#    0.000    2.000    0.000    7.000    0.000    7.667 
#    0.000    1.667    0.000    0.000    0.000    0.000 
#    0.000    0.667    0.000    7.667    0.000    3.000 
#
# Total GULP energy -534913.292838 kJ/mol
# GULP energy per Si atom -5572.013467 kJ/mol
# Density = 1.615079 g / cm^3
# Si number density = 16.187631 Si / 1000 Ang^3
#
#
#
# Elastic Constant Matrix: (Units=GPa)
#
#
# Indices 1 2 3 4 5 6 
#
# 1 76.2945 20.4522 41.0524 0.0000 0.0000 0.0000
# 2 20.4522 76.2955 41.0535 0.0000 0.0000 0.0000
# 3 41.0524 41.0535 112.5644 0.0000 0.0000 0.0000
# 4 0.0000 0.0000 0.0000 115.2007 0.0000 0.0000
# 5 0.0000 0.0000 0.0000 0.0000 115.0713 0.0000
# 6 0.0000 0.0000 0.0000 0.0000 0.0000 18.1511
#
#
#
# Elastic Compliance Matrix: (Units=1/GPa)
#
#
# Indices 1 2 3 4 5 6 
#
# 1 0.016438 -0.001469 -0.005459 0.000000 0.000000 0.000000
# 2 -0.001469 0.016438 -0.005460 0.000000 0.000000 0.000000
# 3 -0.005459 -0.005460 0.012866 0.000000 0.000000 0.000000
# 4 0.000000 0.000000 0.000000 0.008681 0.000000 0.000000
# 5 0.000000 0.000000 0.000000 0.000000 0.008690 0.000000
# 6 0.000000 0.000000 0.000000 0.000000 0.000000 0.055093
#
#
# Mechanical properties :
#
#
# Convention : Reuss Voigt Hill
#
# Bulk Modulus (GPa) = 47.69377 52.25230 49.97303
# Shear Modulus (GPa) = 33.33965 60.52436 46.93200
#
# Velocity S-wave (km/s) = 4.54318 6.12131 5.39031
# Velocity P-wave (km/s) = 7.55299 9.07247 8.34738
#
# Compressibility (1/GPa) = 0.02096710
#
# Stress axis : x y z
#
# Youngs Moduli (GPa) = 60.83290 60.83314 77.72417
#
# Poissons Ratio (x) = 0.08936 0.42433
# Poissons Ratio (y) = 0.08936 0.42434
# Poissons Ratio (z) = 0.33211 0.33212
#
# Static dielectric constant tensor:
#      x y z
#    x 1.783670 0.000000 0.000000 
#    y 0.000000 1.783980 0.000000 
#    z 0.000000 0.000000 1.542620 
# 
# From -- ./inp_files/1597.got.cif
#   From: 2010.05.17/outbox.cif.g08.bks.cpg/sg128_1_cif.got.tgz:1597.got - 2010.05.20 12:07:25.
