data_PCOD9564596
_publ_section_title
;
Structure prediction by ZEFSAII (Michael W. Deem and Ramdas Pophale) SiO2 
 PCOD9564596
Probable space group: P 4/M N C
;
_chemical_formula_sum "Si O2"
_cell_formula_units_Z 120
_cell_length_a 28.545348
_cell_length_b 28.545348
_cell_length_c 8.308865
_cell_angle_alpha 90.000000
_cell_angle_beta 90.000000
_cell_angle_gamma 90.000000
_cell_volume 6770.369736
_symmetry_space_group_name_H-M "P 4/M N C"
_symmetry_group_IT_number 128
_symmetry_cell_setting 'tetragonal'
loop_
_space_group_symop_operation_xyz
x,y,z
-y,x,z
-x,-y,z
y,-x,z
1/2+x,1/2-y,1/2-z
1/2-x,1/2+y,1/2-z
1/2+y,1/2+x,1/2-z
1/2-y,1/2-x,1/2-z
-x,-y,-z
y,-x,-z
x,y,-z
-y,x,-z
1/2-x,1/2+y,1/2+z
1/2+x,1/2-y,1/2+z
1/2-y,1/2-x,1/2+z
1/2+y,1/2+x,1/2+z
loop_
_atom_site_type_symbol
_atom_site_label
_atom_site_fract_x
_atom_site_fract_y
_atom_site_fract_z
Si Si1 0.779344 0.649539 0.189174
Si Si2 0.847176 0.894802 0.314712
Si Si3 0.764447 0.053930 0.690983
Si Si4 0.952339 0.875802 0.313485
Si Si5 0.794641 0.807861 0.187336
Si Si6 0.509244 0.421677 0.500000
Si Si7 0.547787 0.736058 0.309677
Si Si8 0.205133 0.635786 0.693382
O O1 0.826693 0.673307 0.250000
O O2 0.856211 0.716424 0.500000
O O3 0.762688 0.599312 0.256680
O O4 0.736731 0.685098 0.223511
O O5 0.839543 0.880425 0.500000
O O6 0.902372 0.902288 0.297325
O O7 0.830050 0.851589 0.206077
O O8 0.812575 0.937599 0.275904
O O9 0.755520 0.049850 0.500000
O O10 0.820668 0.059162 0.707007
O O11 0.751253 0.005226 0.772511
O O12 0.969421 0.882581 0.500000
O O13 0.984137 0.892352 0.164859
O O14 0.745711 0.828399 0.251266
O O15 0.789523 0.795814 0.000000
O O16 0.550213 0.460814 0.500000
O O17 0.554161 0.728709 0.500000
O O18 0.584776 0.776002 0.256555
O O19 0.155623 0.655623 0.750000
O O20 0.205597 0.636616 0.500000
#
# Coordination Sequence:
#
# PCOD9564596 Si02
#       8
#    16  16  16  16  16   8  16  16
#     4  11  22  36  52  75 108 143 180 217 261 322
#     4  10  19  33  52  77 107 136 170 218 276 327
#     4  10  22  39  55  78 109 140 180 226 274 323
#     4  10  23  39  60  85 106 134 178 233 285 342
#     4  10  19  31  49  75 105 139 177 215 256 312
#     4  11  28  46  60  80 104 140 184 234 304 355
#     4  10  22  35  53  80 107 137 180 227 266 322
#     4   9  19  33  48  74 107 139 173 212 258 314
#
# _framework density 17.724288999999999
#
# number of rings (size 3 to 8) (size 9 to 14) (size 15 to 20)
#    0.000    1.933    1.333    2.800    4.667    5.867 
#    0.000    0.667    0.000    0.000    0.000    0.000 
#    0.000    0.533    0.000    5.867    0.000    4.267 
#
# Total GULP energy -669938.026116 kJ/mol
# GULP energy per Si atom -5582.816884 kJ/mol
# Density = 1.768395 g / cm^3
# Si number density = 17.724289 Si / 1000 Ang^3
#
#
#
# Elastic Constant Matrix: (Units=GPa)
#
#
# Indices 1 2 3 4 5 6 
#
# 1 72.7553 52.9653 26.9654 0.0000 0.0000 0.0000
# 2 52.9653 72.7589 26.9642 0.0000 0.0000 0.0000
# 3 26.9654 26.9642 51.1578 0.0000 0.0000 0.0000
# 4 0.0000 0.0000 0.0000 23.0426 0.0000 0.0000
# 5 0.0000 0.0000 0.0000 0.0000 23.0417 0.0000
# 6 0.0000 0.0000 0.0000 0.0000 0.0000 24.2478
#
#
#
# Elastic Compliance Matrix: (Units=1/GPa)
#
#
# Indices 1 2 3 4 5 6 
#
# 1 0.030403 -0.020124 -0.005419 0.000000 0.000000 0.000000
# 2 -0.020124 0.030401 -0.005416 0.000000 0.000000 0.000000
# 3 -0.005419 -0.005416 0.025258 0.000000 0.000000 0.000000
# 4 0.000000 0.000000 0.000000 0.043398 0.000000 0.000000
# 5 0.000000 0.000000 0.000000 0.000000 0.043399 0.000000
# 6 0.000000 0.000000 0.000000 0.000000 0.000000 0.041241
#
#
# Mechanical properties :
#
#
# Convention : Reuss Voigt Hill
#
# Bulk Modulus (GPa) = 41.41729 45.60687 43.51208
# Shear Modulus (GPa) = 17.60154 20.05157 18.82656
#
# Velocity S-wave (km/s) = 3.15473 3.36714 3.26266
# Velocity P-wave (km/s) = 6.05706 6.39562 6.22864
#
# Compressibility (1/GPa) = 0.02414451
#
# Stress axis : x y z
#
# Youngs Moduli (GPa) = 32.89124 32.89401 39.59102
#
# Poissons Ratio (x) = 0.66196 0.21453
# Poissons Ratio (y) = 0.66191 0.21443
# Poissons Ratio (z) = 0.17823 0.17816
#
# Static dielectric constant tensor:
#      x y z
#    x 1.624140 0.000000 0.000000 
#    y 0.000000 1.624140 0.000000 
#    z 0.000000 0.000000 1.617270 
# 
# From -- ./inp_files/1773.got.cif
#   From: 2010.05.17/outbox.cif.g08.bks.cpg/sg128_1_cif.got.tgz:1773.got - 2010.05.20 12:07:25.
