data_PCOD9564401
_publ_section_title
;
Structure prediction by ZEFSAII (Michael W. Deem and Ramdas Pophale) SiO2 
 PCOD9564401
Probable space group: P 4/M B M
;
_chemical_formula_sum "Si O2"
_cell_formula_units_Z 56
_cell_length_a 15.174364
_cell_length_b 15.174364
_cell_length_c 12.798947
_cell_angle_alpha 90.000000
_cell_angle_beta 90.000000
_cell_angle_gamma 90.000000
_cell_volume 2947.102467
_symmetry_space_group_name_H-M "P 4/M B M"
_symmetry_group_IT_number 127
_symmetry_cell_setting 'tetragonal'
loop_
_space_group_symop_operation_xyz
x,y,z
-y,x,z
-x,-y,z
y,-x,z
1/2+x,1/2-y,-z
1/2-x,1/2+y,-z
1/2+y,1/2+x,-z
1/2-y,1/2-x,-z
-x,-y,-z
y,-x,-z
x,y,-z
-y,x,-z
1/2-x,1/2+y,z
1/2+x,1/2-y,z
1/2-y,1/2-x,z
1/2+y,1/2+x,z
loop_
_atom_site_type_symbol
_atom_site_label
_atom_site_fract_x
_atom_site_fract_y
_atom_site_fract_z
Si Si1 0.689016 0.662172 0.285818
Si Si2 0.575287 0.924714 0.624145
Si Si3 0.765303 0.475505 0.221430
Si Si4 0.897691 0.108863 0.500000
Si Si5 0.004777 0.356101 0.000000
O O1 0.773151 0.726850 0.285658
O O2 0.714821 0.564569 0.250715
O O3 0.611037 0.704862 0.218402
O O4 0.646504 0.652536 0.399936
O O5 0.592738 0.907263 0.500000
O O6 0.541972 0.839707 0.689336
O O7 0.500000 0.000000 0.629021
O O8 0.805734 0.489907 0.107566
O O9 0.003445 0.120054 0.500000
O O10 0.934441 0.434441 0.000000
O O11 0.101499 0.398502 0.000000
#
# Coordination Sequence:
#
# PCOD9564401 Si02
#       5
#    16   8  16   8   8
#     4  12  25  43  67  99 141 182 232 289 349 417
#     4  11  24  43  65  99 141 173 229 294 346 405
#     4  12  26  44  69 103 136 185 234 284 354 415
#     4  11  23  42  68  94 135 191 230 276 340 430
#     4  11  22  44  74  99 134 179 235 296 351 411
#
# _framework density 19.001715999999998
#
# number of rings (size 3 to 8) (size 9 to 14) (size 15 to 20)
#    0.000    0.429    5.714    3.000    4.000    1.714 
#    0.000    2.857    0.000    1.714    0.000    0.000 
#    0.000    0.000    0.000    0.000    0.000    0.000 
#
# Total GULP energy -313119.722573 kJ/mol
# GULP energy per Si atom -5591.423617 kJ/mol
# Density = 1.895847 g / cm^3
# Si number density = 19.001716 Si / 1000 Ang^3
#
#
#
# Elastic Constant Matrix: (Units=GPa)
#
#
# Indices 1 2 3 4 5 6 
#
# 1 89.8305 31.7254 28.4331 0.0000 0.0000 0.0000
# 2 31.7254 89.8311 28.4332 0.0000 0.0000 0.0000
# 3 28.4331 28.4332 146.4408 0.0000 0.0000 0.0000
# 4 0.0000 0.0000 0.0000 3.7027 0.0000 0.0000
# 5 0.0000 0.0000 0.0000 0.0000 3.7064 0.0000
# 6 0.0000 0.0000 0.0000 0.0000 0.0000 53.0040
#
#
#
# Elastic Compliance Matrix: (Units=1/GPa)
#
#
# Indices 1 2 3 4 5 6 
#
# 1 0.013129 -0.004081 -0.001757 0.000000 0.000000 0.000000
# 2 -0.004081 0.013129 -0.001757 0.000000 0.000000 0.000000
# 3 -0.001757 -0.001757 0.007511 0.000000 0.000000 0.000000
# 4 0.000000 0.000000 0.000000 0.270075 0.000000 0.000000
# 5 0.000000 0.000000 0.000000 0.000000 0.269802 0.000000
# 6 0.000000 0.000000 0.000000 0.000000 0.000000 0.018867
#
#
# Mechanical properties :
#
#
# Convention : Reuss Voigt Hill
#
# Bulk Modulus (GPa) = 53.81983 55.92065 54.87024
# Shear Modulus (GPa) = 8.14471 27.91666 18.03069
#
# Velocity S-wave (km/s) = 2.07259 3.83713 3.08376
# Velocity P-wave (km/s) = 5.84060 7.00889 6.45125
#
# Compressibility (1/GPa) = 0.01858051
#
# Stress axis : x y z
#
# Youngs Moduli (GPa) = 76.16510 76.16563 133.13925
#
# Poissons Ratio (x) = 0.31082 0.23391
# Poissons Ratio (y) = 0.31081 0.23391
# Poissons Ratio (z) = 0.13381 0.13381
#
# Static dielectric constant tensor:
#      x y z
#    x 1.660670 0.000000 0.000000 
#    y 0.000000 1.660670 0.000000 
#    z 0.000000 0.000000 1.162940 
# 
# From -- ./inp_files/2885.got.cif
#   From: 2010.05.17/outbox.cif.g08.bks.cpg/sg127_2_cif.got.tgz:2885.got - 2010.05.20 12:03:00.
