data_PCOD9564881
_publ_section_title
;
Structure prediction by ZEFSAII (Michael W. Deem and Ramdas Pophale) SiO2 
 PCOD9564881
Probable space group: P 4/M N C
;
_chemical_formula_sum "Si O2"
_cell_formula_units_Z 56
_cell_length_a 10.278730
_cell_length_b 10.278730
_cell_length_c 29.709338
_cell_angle_alpha 90.000000
_cell_angle_beta 90.000000
_cell_angle_gamma 90.000000
_cell_volume 3138.859606
_symmetry_space_group_name_H-M "P 4/M N C"
_symmetry_group_IT_number 128
_symmetry_cell_setting 'tetragonal'
loop_
_space_group_symop_operation_xyz
x,y,z
-y,x,z
-x,-y,z
y,-x,z
1/2+x,1/2-y,1/2-z
1/2-x,1/2+y,1/2-z
1/2+y,1/2+x,1/2-z
1/2-y,1/2-x,1/2-z
-x,-y,-z
y,-x,-z
x,y,-z
-y,x,-z
1/2-x,1/2+y,1/2+z
1/2+x,1/2-y,1/2+z
1/2-y,1/2-x,1/2+z
1/2+y,1/2+x,1/2+z
loop_
_atom_site_type_symbol
_atom_site_label
_atom_site_fract_x
_atom_site_fract_y
_atom_site_fract_z
Si Si1 0.101525 0.600845 0.173161
Si Si2 0.691613 0.392173 0.000000
Si Si3 0.108011 0.807061 0.599238
Si Si4 0.011426 0.783421 0.752334
O O1 0.207362 0.649031 0.137621
O O2 0.026165 0.713782 0.199701
O O3 0.178786 0.524502 0.212729
O O4 0.000000 0.500000 0.151835
O O5 0.669046 0.547315 0.000000
O O6 0.747231 0.361102 0.950842
O O7 0.951401 0.830333 0.603605
O O8 0.881826 0.867263 0.747722
#
# Coordination Sequence:
#
# PCOD9564881 Si02
#       4
#    16   8  16  16
#     4  11  23  31  51  75 101 127 164 206 246 293
#     4   7  12  26  49  76 100 127 162 196 242 293
#     4   9  17  31  53  77 103 132 161 201 248 296
#     4  10  22  37  52  67  93 134 169 205 245 291
#
# _framework density 17.840873999999999
#
# number of rings (size 3 to 8) (size 9 to 14) (size 15 to 20)
#    0.000    2.429    0.000    5.143   12.000    2.286 
#    0.000    0.714    0.000    0.000    0.000    0.000 
#    0.000    2.286    0.000    0.000    0.000    0.000 
#
# Total GULP energy -312241.763481 kJ/mol
# GULP energy per Si atom -5575.745776 kJ/mol
# Density = 1.780027 g / cm^3
# Si number density = 17.840874 Si / 1000 Ang^3
#
#
#
# Elastic Constant Matrix: (Units=GPa)
#
#
# Indices 1 2 3 4 5 6 
#
# 1 -80.3086 120.2536 -2.7502 0.0000 0.0000 0.0000
# 2 120.2536 -80.3086 -2.7502 0.0000 0.0000 0.0000
# 3 -2.7502 -2.7502 85.9052 0.0000 0.0000 0.0000
# 4 0.0000 0.0000 0.0000 19.5478 0.0000 0.0000
# 5 0.0000 0.0000 0.0000 0.0000 19.5478 0.0000
# 6 0.0000 0.0000 0.0000 0.0000 0.0000 15.7971
#
#
#
# Elastic Compliance Matrix: (Units=1/GPa)
#
#
# Indices 1 2 3 4 5 6 
#
# 1 0.010080 0.015066 0.000805 0.000000 0.000000 0.000000
# 2 0.015066 0.010080 0.000805 0.000000 0.000000 0.000000
# 3 0.000805 0.000805 0.011692 0.000000 0.000000 0.000000
# 4 0.000000 0.000000 0.000000 0.051157 0.000000 0.000000
# 5 0.000000 0.000000 0.000000 0.000000 0.051157 0.000000
# 6 0.000000 0.000000 0.000000 0.000000 0.000000 0.063303
#
#
# Mechanical properties :
#
#
# Convention : Reuss Voigt Hill
#
# Bulk Modulus (GPa) = 15.33675 17.19939 16.26807
# Shear Modulus (GPa) = 26.90329 -1.65249 12.62540
#
# Velocity S-wave (km/s) = 3.88746 -0.96346 2.66309
# Velocity P-wave (km/s) = 5.36329 2.90236 4.31211
#
# Compressibility (1/GPa) = 0.06520285
#
# Stress axis : x y z
#
# Youngs Moduli (GPa) = 99.20978 99.20978 85.52654
#
# Poissons Ratio (x) = -1.49466 -0.06885
# Poissons Ratio (y) = -1.49466 -0.06885
# Poissons Ratio (z) = -0.07986 -0.07986
#
# Static dielectric constant tensor:
#      x y z
#    x 1.610020 0.000000 0.000000 
#    y 0.000000 1.610020 0.000000 
#    z 0.000000 0.000000 1.639060 
# 
# From -- ./inp_files/6687.got.cif
#   From: 2010.05.17/outbox.cif.g08.bks.cpg/sg128_4_cif.got.tgz:6687.got - 2010.05.20 12:07:25.
