data_PCOD9564020
_publ_section_title
;
Structure prediction by ZEFSAII (Michael W. Deem and Ramdas Pophale) SiO2 
 PCOD9564020
Probable space group: P 4/M B M
;
_chemical_formula_sum "Si O2"
_cell_formula_units_Z 72
_cell_length_a 21.031422
_cell_length_b 21.031422
_cell_length_c 10.485071
_cell_angle_alpha 90.000000
_cell_angle_beta 90.000000
_cell_angle_gamma 90.000000
_cell_volume 4637.764063
_symmetry_space_group_name_H-M "P 4/M B M"
_symmetry_group_IT_number 127
_symmetry_cell_setting 'tetragonal'
loop_
_space_group_symop_operation_xyz
x,y,z
-y,x,z
-x,-y,z
y,-x,z
1/2+x,1/2-y,-z
1/2-x,1/2+y,-z
1/2+y,1/2+x,-z
1/2-y,1/2-x,-z
-x,-y,-z
y,-x,-z
x,y,-z
-y,x,-z
1/2-x,1/2+y,z
1/2+x,1/2-y,z
1/2-y,1/2-x,z
1/2+y,1/2+x,z
loop_
_atom_site_type_symbol
_atom_site_label
_atom_site_fract_x
_atom_site_fract_y
_atom_site_fract_z
Si Si1 0.053127 0.446874 0.848584
Si Si2 0.777011 0.612160 0.000000
Si Si3 0.608447 0.217651 0.500000
Si Si4 0.178775 0.787060 0.500000
Si Si5 0.880861 0.271618 0.253211
Si Si6 0.282696 0.674544 0.000000
Si Si7 0.308057 0.971456 0.754385
O O1 0.030514 0.383259 0.780292
O O2 0.000000 0.500000 0.840374
O O3 0.064883 0.435118 0.000000
O O4 0.711315 0.650964 0.000000
O O5 0.781284 0.568196 0.875006
O O6 0.834887 0.665114 0.000000
O O7 0.661756 0.161756 0.500000
O O8 0.645794 0.284902 0.500000
O O9 0.565834 0.209666 0.374161
O O10 0.235632 0.735632 0.500000
O O11 0.138428 0.770782 0.374739
O O12 0.834756 0.334756 0.254239
O O13 0.864923 0.232074 0.126312
O O14 0.955077 0.288269 0.253031
O O15 0.230538 0.730538 0.000000
#
# Coordination Sequence:
#
# PCOD9564020 Si02
#       7
#     8   8   8   8  16   8  16
#     4  11  22  35  49  73 111 157 185 205 241 294
#     4  11  19  34  52  74 105 134 178 221 260 297
#     4  11  21  34  54  74 103 132 176 219 268 301
#     4   9  19  36  52  69  96 137 169 215 270 311
#     4  10  20  34  50  73 103 138 172 207 256 302
#     4   9  19  32  52  73  96 133 173 219 264 303
#     4  12  20  34  51  78 105 139 180 214 248 306
#
# _framework density 15.524722000000001
#
# number of rings (size 3 to 8) (size 9 to 14) (size 15 to 20)
#    0.000    1.444    3.333    3.333    0.000    3.556 
#    0.000    2.222    0.000    0.000    0.000    0.000 
#    0.000   62.222    0.000    0.000    0.000    0.000 
#
# Total GULP energy -401687.455316 kJ/mol
# GULP energy per Si atom -5578.992435 kJ/mol
# Density = 1.548939 g / cm^3
# Si number density = 15.524722 Si / 1000 Ang^3
#
#
#
# Elastic Constant Matrix: (Units=GPa)
#
#
# Indices 1 2 3 4 5 6 
#
# 1 137.5062 57.6851 77.4450 0.0000 0.0000 0.0000
# 2 57.6851 137.5033 77.4439 0.0000 0.0000 0.0000
# 3 77.4450 77.4439 179.0331 0.0000 0.0000 0.0000
# 4 0.0000 0.0000 0.0000 13.3499 0.0000 0.0000
# 5 0.0000 0.0000 0.0000 0.0000 13.3505 0.0000
# 6 0.0000 0.0000 0.0000 0.0000 0.0000 31.8541
#
#
#
# Elastic Compliance Matrix: (Units=1/GPa)
#
#
# Indices 1 2 3 4 5 6 
#
# 1 0.010164 -0.002364 -0.003374 0.000000 0.000000 0.000000
# 2 -0.002364 0.010165 -0.003374 0.000000 0.000000 0.000000
# 3 -0.003374 -0.003374 0.008505 0.000000 0.000000 0.000000
# 4 0.000000 0.000000 0.000000 0.074907 0.000000 0.000000
# 5 0.000000 0.000000 0.000000 0.000000 0.074903 0.000000
# 6 0.000000 0.000000 0.000000 0.000000 0.000000 0.031393
#
#
# Mechanical properties :
#
#
# Convention : Reuss Voigt Hill
#
# Bulk Modulus (GPa) = 94.25959 97.68786 95.97372
# Shear Modulus (GPa) = 21.57038 27.80881 24.68960
#
# Velocity S-wave (km/s) = 3.73154 4.23692 3.99223
# Velocity P-wave (km/s) = 8.91142 9.32716 9.12166
#
# Compressibility (1/GPa) = 0.01060900
#
# Stress axis : x y z
#
# Youngs Moduli (GPa) = 98.38162 98.37973 117.57862
#
# Poissons Ratio (x) = 0.23253 0.39676
# Poissons Ratio (y) = 0.23254 0.39677
# Poissons Ratio (z) = 0.33199 0.33198
#
# Static dielectric constant tensor:
#      x y z
#    x 1.501570 0.000000 0.000000 
#    y 0.000000 1.501570 0.000000 
#    z 0.000000 0.000000 1.523130 
# 
# From -- ./inp_files/1699.got.cif
#   From: 2010.05.17/outbox.cif.g08.bks.cpg/sg127_1_cif.got.tgz:1699.got - 2010.05.20 12:03:00.
