data_PCOD9564462
_publ_section_title
;
Structure prediction by ZEFSAII (Michael W. Deem and Ramdas Pophale) SiO2 
 PCOD9564462
Probable space group: P 4/M B M
;
_chemical_formula_sum "Si O2"
_cell_formula_units_Z 54
_cell_length_a 15.178157
_cell_length_b 15.178157
_cell_length_c 10.526894
_cell_angle_alpha 90.000000
_cell_angle_beta 90.000000
_cell_angle_gamma 90.000000
_cell_volume 2425.148468
_symmetry_space_group_name_H-M "P 4/M B M"
_symmetry_group_IT_number 127
_symmetry_cell_setting 'tetragonal'
loop_
_space_group_symop_operation_xyz
x,y,z
-y,x,z
-x,-y,z
y,-x,z
1/2+x,1/2-y,-z
1/2-x,1/2+y,-z
1/2+y,1/2+x,-z
1/2-y,1/2-x,-z
-x,-y,-z
y,-x,-z
x,y,-z
-y,x,-z
1/2-x,1/2+y,z
1/2+x,1/2-y,z
1/2-y,1/2-x,z
1/2+y,1/2+x,z
loop_
_atom_site_type_symbol
_atom_site_label
_atom_site_fract_x
_atom_site_fract_y
_atom_site_fract_z
Si Si1 0.229487 0.729487 0.780081
Si Si2 0.000000 0.000000 0.500000
Si Si3 0.699298 0.530783 0.500000
Si Si4 0.643420 0.525256 0.000000
Si Si5 0.121678 0.378323 0.848241
Si Si6 0.526042 0.758194 0.226687
Si Si7 0.226165 0.273836 0.500000
O O1 0.302186 0.802186 0.823582
O O2 0.127520 0.745354 0.816352
O O3 0.233983 0.733983 0.627566
O O4 0.948866 0.904602 0.500000
O O5 0.724260 0.481965 0.369905
O O6 0.752581 0.622681 0.500000
O O7 0.568606 0.596717 0.000000
O O8 0.697784 0.528630 0.128819
O O9 0.151789 0.471367 0.788551
O O10 0.113059 0.386941 0.000000
#
# Coordination Sequence:
#
# PCOD9564462 Si02
#       7
#     8   2   8   8   8  16   4
#     4  12  26  45  76 103 145 196 245 299 373 447
#     4  12  28  36  68 118 148 172 248 330 380 408
#     4  12  26  45  73 107 148 193 244 316 376 448
#     4  11  26  42  66 103 150 188 234 303 380 445
#     4  12  26  47  72 103 150 192 243 307 365 436
#     4  12  26  46  72 105 143 196 248 299 371 446
#     4  12  24  52  70 104 150 198 238 290 392 462
#
# _framework density 22.266680000000001
#
# number of rings (size 3 to 8) (size 9 to 14) (size 15 to 20)
#    0.000    0.148    4.444    4.444    6.222    0.593 
#    0.000    0.741    0.000    3.556    0.000    0.000 
#    0.000    0.000    0.000    0.000    0.000    0.000 
#
# Total GULP energy -301506.536867 kJ/mol
# GULP energy per Si atom -5583.454386 kJ/mol
# Density = 2.221600 g / cm^3
# Si number density = 22.266680 Si / 1000 Ang^3
#
#
#
# Elastic Constant Matrix: (Units=GPa)
#
#
# Indices 1 2 3 4 5 6 
#
# 1 85.5905 11.7391 1.5979 0.0000 0.0000 0.0000
# 2 11.7391 85.5910 1.5977 0.0000 0.0000 0.0000
# 3 1.5979 1.5977 127.7120 0.0000 0.0000 0.0000
# 4 0.0000 0.0000 0.0000 29.2925 0.0000 0.0000
# 5 0.0000 0.0000 0.0000 0.0000 29.2923 0.0000
# 6 0.0000 0.0000 0.0000 0.0000 0.0000 1.0587
#
#
#
# Elastic Compliance Matrix: (Units=1/GPa)
#
#
# Indices 1 2 3 4 5 6 
#
# 1 0.011910 -0.001631 -0.000129 0.000000 0.000000 0.000000
# 2 -0.001631 0.011910 -0.000129 0.000000 0.000000 0.000000
# 3 -0.000129 -0.000129 0.007833 0.000000 0.000000 0.000000
# 4 0.000000 0.000000 0.000000 0.034138 0.000000 0.000000
# 5 0.000000 0.000000 0.000000 0.000000 0.034139 0.000000
# 6 0.000000 0.000000 0.000000 0.000000 0.000000 0.944587
#
#
# Mechanical properties :
#
#
# Convention : Reuss Voigt Hill
#
# Bulk Modulus (GPa) = 35.87305 36.52921 36.20113
# Shear Modulus (GPa) = 4.72775 30.85927 17.79351
#
# Velocity S-wave (km/s) = 1.45872 3.72680 2.82992
# Velocity P-wave (km/s) = 4.35692 5.91267 5.19338
#
# Compressibility (1/GPa) = 0.02787608
#
# Stress axis : x y z
#
# Youngs Moduli (GPa) = 83.96555 83.96606 127.65954
#
# Poissons Ratio (x) = 0.13695 0.01642
# Poissons Ratio (y) = 0.13695 0.01642
# Poissons Ratio (z) = 0.01080 0.01080
#
# Static dielectric constant tensor:
#      x y z
#    x 1.850280 0.000000 0.000000 
#    y 0.000000 1.850280 0.000000 
#    z 0.000000 0.000000 1.784680 
# 
# From -- ./inp_files/2939.got.cif
#   From: 2010.05.17/outbox.cif.g08.bks.cpg/sg127_2_cif.got.tgz:2939.got - 2010.05.20 12:03:00.
