data_PCOD9564461
_publ_section_title
;
Structure prediction by ZEFSAII (Michael W. Deem and Ramdas Pophale) SiO2 
 PCOD9564461
Probable space group: P 4/M B M
;
_chemical_formula_sum "Si O2"
_cell_formula_units_Z 88
_cell_length_a 12.152581
_cell_length_b 12.152581
_cell_length_c 31.415511
_cell_angle_alpha 90.000000
_cell_angle_beta 90.000000
_cell_angle_gamma 90.000000
_cell_volume 4639.606809
_symmetry_space_group_name_H-M "P 4/M B M"
_symmetry_group_IT_number 127
_symmetry_cell_setting 'tetragonal'
loop_
_space_group_symop_operation_xyz
x,y,z
-y,x,z
-x,-y,z
y,-x,z
1/2+x,1/2-y,-z
1/2-x,1/2+y,-z
1/2+y,1/2+x,-z
1/2-y,1/2-x,-z
-x,-y,-z
y,-x,-z
x,y,-z
-y,x,-z
1/2-x,1/2+y,z
1/2+x,1/2-y,z
1/2-y,1/2-x,z
1/2+y,1/2+x,z
loop_
_atom_site_type_symbol
_atom_site_label
_atom_site_fract_x
_atom_site_fract_y
_atom_site_fract_z
Si Si1 0.408142 0.091859 0.551021
Si Si2 0.818640 0.495043 0.868959
Si Si3 0.495219 0.819955 0.221604
Si Si4 0.972096 0.181933 0.695581
Si Si5 0.184217 0.033207 0.598707
Si Si6 0.684131 0.520797 0.953751
O O1 0.403030 0.096971 0.500000
O O2 0.288414 0.056840 0.569070
O O3 0.500000 0.000000 0.562844
O O4 0.915391 0.584610 0.863883
O O5 0.755960 0.501014 0.823509
O O6 0.754742 0.524839 0.911412
O O7 0.876568 0.376568 0.874679
O O8 0.581966 0.918035 0.214594
O O9 0.532247 0.759834 0.264078
O O10 0.376229 0.876229 0.228316
O O11 0.962548 0.226952 0.647657
O O12 0.088788 0.120438 0.698499
O O13 0.085666 0.123458 0.593134
O O14 0.593310 0.616689 0.952852
O O15 0.742311 0.527210 0.000000
#
# Coordination Sequence:
#
# PCOD9564461 Si02
#       6
#     8  16  16  16  16  16
#     4  11  26  42  62  97 131 159 207 262 305 363
#     4   9  19  35  51  70 102 137 170 213 259 315
#     4   9  19  34  50  74 107 141 177 214 263 319
#     4   9  19  36  56  81 112 143 183 228 270 328
#     4   9  21  43  66  89 124 168 207 252 311 366
#     4   9  19  35  52  71  96 126 164 212 265 319
#
# _framework density 18.967123999999998
#
# number of rings (size 3 to 8) (size 9 to 14) (size 15 to 20)
#    0.000    2.818    0.000    2.727    2.545    5.091 
#    3.273    9.091    0.000    0.000    0.000    0.000 
#    0.000    0.000    0.000    0.000    0.000    0.000 
#
# Total GULP energy -490172.055243 kJ/mol
# GULP energy per Si atom -5570.136991 kJ/mol
# Density = 1.892395 g / cm^3
# Si number density = 18.967124 Si / 1000 Ang^3
#
#
#
# Elastic Constant Matrix: (Units=GPa)
#
#
# Indices 1 2 3 4 5 6 
#
# 1 62.5196 9.9258 55.9163 0.0000 0.0000 0.0000
# 2 9.9258 62.5197 55.9165 0.0000 0.0000 0.0000
# 3 55.9163 55.9165 157.6081 0.0000 0.0000 0.0000
# 4 0.0000 0.0000 0.0000 40.9072 0.0000 0.0000
# 5 0.0000 0.0000 0.0000 0.0000 40.9071 0.0000
# 6 0.0000 0.0000 0.0000 0.0000 0.0000 11.1059
#
#
#
# Elastic Compliance Matrix: (Units=1/GPa)
#
#
# Indices 1 2 3 4 5 6 
#
# 1 0.024765 0.005751 -0.010827 0.000000 0.000000 0.000000
# 2 0.005751 0.024765 -0.010827 0.000000 0.000000 0.000000
# 3 -0.010827 -0.010827 0.014027 0.000000 0.000000 0.000000
# 4 0.000000 0.000000 0.000000 0.024446 0.000000 0.000000
# 5 0.000000 0.000000 0.000000 0.000000 0.024446 0.000000
# 6 0.000000 0.000000 0.000000 0.000000 0.000000 0.090043
#
#
# Mechanical properties :
#
#
# Convention : Reuss Voigt Hill
#
# Bulk Modulus (GPa) = 31.49288 58.46277 44.97782
# Shear Modulus (GPa) = 20.41825 29.30996 24.86410
#
# Velocity S-wave (km/s) = 3.28458 3.93530 3.62457
# Velocity P-wave (km/s) = 5.56997 7.17906 6.42509
#
# Compressibility (1/GPa) = 0.03175321
#
# Stress axis : x y z
#
# Youngs Moduli (GPa) = 40.37955 40.37957 71.29092
#
# Poissons Ratio (x) = -0.23224 0.77184
# Poissons Ratio (y) = -0.23224 0.77184
# Poissons Ratio (z) = 0.43717 0.43718
#
# Static dielectric constant tensor:
#      x y z
#    x 1.653930 0.000000 0.000000 
#    y 0.000000 1.653930 0.000000 
#    z 0.000000 0.000000 1.696860 
# 
# From -- ./inp_files/6494.got.cif
#   From: 2010.05.17/outbox.cif.g08.bks.cpg/sg127_4_cif.got.tgz:6494.got - 2010.05.20 12:03:00.
