data_PCOD9564204
_publ_section_title
;
Structure prediction by ZEFSAII (Michael W. Deem and Ramdas Pophale) SiO2 
 PCOD9564204
Probable space group: P 4/M B M
;
_chemical_formula_sum "Si O2"
_cell_formula_units_Z 80
_cell_length_a 12.014705
_cell_length_b 12.014705
_cell_length_c 25.616119
_cell_angle_alpha 90.000000
_cell_angle_beta 90.000000
_cell_angle_gamma 90.000000
_cell_volume 3697.767116
_symmetry_space_group_name_H-M "P 4/M B M"
_symmetry_group_IT_number 127
_symmetry_cell_setting 'tetragonal'
loop_
_space_group_symop_operation_xyz
x,y,z
-y,x,z
-x,-y,z
y,-x,z
1/2+x,1/2-y,-z
1/2-x,1/2+y,-z
1/2+y,1/2+x,-z
1/2-y,1/2-x,-z
-x,-y,-z
y,-x,-z
x,y,-z
-y,x,-z
1/2-x,1/2+y,z
1/2+x,1/2-y,z
1/2-y,1/2-x,z
1/2+y,1/2+x,z
loop_
_atom_site_type_symbol
_atom_site_label
_atom_site_fract_x
_atom_site_fract_y
_atom_site_fract_z
Si Si1 0.686985 0.475182 0.170070
Si Si2 0.574131 0.737984 0.559146
Si Si3 0.812279 0.974890 0.056083
Si Si4 0.897514 0.781343 0.368443
Si Si5 0.682910 0.993098 0.724570
O O1 0.620175 0.592305 0.173034
O O2 0.743523 0.467478 0.112754
O O3 0.767966 0.468457 0.218817
O O4 0.549546 0.702712 0.500000
O O5 0.673453 0.826548 0.556820
O O6 0.468694 0.787204 0.588860
O O7 0.612332 0.639896 0.598258
O O8 0.880294 0.091475 0.056044
O O9 0.752104 0.966748 0.000000
O O10 0.785955 0.714046 0.355453
O O11 0.968553 0.779141 0.315395
O O12 0.593199 0.093199 0.727743
O O13 0.614199 0.885802 0.704997
#
# Coordination Sequence:
#
# PCOD9564204 Si02
#       5
#    16  16  16  16  16
#     4   9  18  31  51  82 113 138 174 223 272 322
#     4  10  21  37  59  85 109 137 175 216 262 317
#     4   7  10  20  41  70 104 139 172 211 261 314
#     4  10  22  39  57  79 110 143 177 218 260 314
#     4  10  22  38  55  75 102 143 189 222 258 315
#
# _framework density 21.634675999999999
#
# number of rings (size 3 to 8) (size 9 to 14) (size 15 to 20)
#    0.000    2.800    0.000    3.000    2.800    3.600 
#    0.000    2.000    0.000    1.200    0.000    7.000 
#    0.000    0.000    0.000    0.000    0.000    0.000 
#
# Total GULP energy -445672.396423 kJ/mol
# GULP energy per Si atom -5570.904955 kJ/mol
# Density = 2.158543 g / cm^3
# Si number density = 21.634676 Si / 1000 Ang^3
#
#
#
# Elastic Constant Matrix: (Units=GPa)
#
#
# Indices 1 2 3 4 5 6 
#
# 1 41.3821 2.6597 28.1336 0.0000 0.0000 0.0000
# 2 2.6597 41.3821 28.1336 0.0000 0.0000 0.0000
# 3 28.1336 28.1336 160.9242 0.0000 0.0000 0.0000
# 4 0.0000 0.0000 0.0000 18.0512 0.0000 0.0000
# 5 0.0000 0.0000 0.0000 0.0000 18.0512 0.0000
# 6 0.0000 0.0000 0.0000 0.0000 0.0000 0.4456
#
#
#
# Elastic Compliance Matrix: (Units=1/GPa)
#
#
# Indices 1 2 3 4 5 6 
#
# 1 0.027530 0.001705 -0.005111 0.000000 0.000000 0.000000
# 2 0.001705 0.027530 -0.005111 0.000000 0.000000 0.000000
# 3 -0.005111 -0.005111 0.008001 0.000000 0.000000 0.000000
# 4 0.000000 0.000000 0.000000 0.055398 0.000000 0.000000
# 5 0.000000 0.000000 0.000000 0.000000 0.055398 0.000000
# 6 0.000000 0.000000 0.000000 0.000000 0.000000 2.244328
#
#
# Mechanical properties :
#
#
# Convention : Reuss Voigt Hill
#
# Bulk Modulus (GPa) = 21.72593 40.17134 30.94864
# Shear Modulus (GPa) = 2.04035 19.62702 10.83368
#
# Velocity S-wave (km/s) = 0.97218 3.01525 2.24018
# Velocity P-wave (km/s) = 3.36514 5.54352 4.58556
#
# Compressibility (1/GPa) = 0.04602795
#
# Stress axis : x y z
#
# Youngs Moduli (GPa) = 36.32373 36.32373 124.98117
#
# Poissons Ratio (x) = -0.06195 0.63879
# Poissons Ratio (y) = -0.06195 0.63879
# Poissons Ratio (z) = 0.18565 0.18565
#
# Static dielectric constant tensor:
#      x y z
#    x 1.844310 0.000000 0.000000 
#    y 0.000000 1.844310 0.000000 
#    z 0.000000 0.000000 1.811720 
# 
# From -- ./inp_files/6451.got.cif
#   From: 2010.05.17/outbox.cif.g08.bks.cpg/sg127_4_cif.got.tgz:6451.got - 2010.05.20 12:03:00.
