data_PCOD9564427
_publ_section_title
;
Structure prediction by ZEFSAII (Michael W. Deem and Ramdas Pophale) SiO2 
 PCOD9564427
Probable space group: P 4/M B M
;
_chemical_formula_sum "Si O2"
_cell_formula_units_Z 72
_cell_length_a 21.160936
_cell_length_b 21.160936
_cell_length_c 7.648718
_cell_angle_alpha 90.000000
_cell_angle_beta 90.000000
_cell_angle_gamma 90.000000
_cell_volume 3424.982814
_symmetry_space_group_name_H-M "P 4/M B M"
_symmetry_group_IT_number 127
_symmetry_cell_setting 'tetragonal'
loop_
_space_group_symop_operation_xyz
x,y,z
-y,x,z
-x,-y,z
y,-x,z
1/2+x,1/2-y,-z
1/2-x,1/2+y,-z
1/2+y,1/2+x,-z
1/2-y,1/2-x,-z
-x,-y,-z
y,-x,-z
x,y,-z
-y,x,-z
1/2-x,1/2+y,z
1/2+x,1/2-y,z
1/2-y,1/2-x,z
1/2+y,1/2+x,z
loop_
_atom_site_type_symbol
_atom_site_label
_atom_site_fract_x
_atom_site_fract_y
_atom_site_fract_z
Si Si1 0.596475 0.671202 0.698494
Si Si2 0.601740 0.470680 0.000000
Si Si3 0.158279 0.240097 0.712948
Si Si4 0.157669 0.444022 0.711581
Si Si5 0.187055 0.585234 0.204103
O O1 0.589762 0.647291 0.500000
O O2 0.545608 0.642029 0.828703
O O3 0.667431 0.656893 0.766496
O O4 0.589645 0.746645 0.698742
O O5 0.575478 0.541183 0.000000
O O6 0.159611 0.239628 0.500000
O O7 0.220539 0.279462 0.769272
O O8 0.097565 0.281376 0.766218
O O9 0.158356 0.446126 0.500000
O O10 0.096349 0.403652 0.764896
O O11 0.160182 0.514731 0.778761
O O12 0.136484 0.636484 0.267685
O O13 0.199944 0.597837 0.000000
#
# Coordination Sequence:
#
# PCOD9564427 Si02
#       5
#    16   8  16  16  16
#     4  11  23  41  71  98 125 169 218 268 327 387
#     4  11  28  50  67  94 136 169 206 265 325 395
#     4   8  16  33  58  89 123 159 206 266 325 378
#     4   9  19  37  61  89 122 165 218 269 319 381
#     4  11  24  40  59  89 132 175 217 268 328 392
#
# _framework density 21.022003999999999
#
# number of rings (size 3 to 8) (size 9 to 14) (size 15 to 20)
#    0.000    2.111    1.111    2.667    3.111    4.444 
#    0.000    3.333    0.000    0.000    0.000    0.000 
#    0.000    0.000    0.000    0.000    0.000    0.000 
#
# Total GULP energy -402503.632662 kJ/mol
# GULP energy per Si atom -5590.328231 kJ/mol
# Density = 2.097416 g / cm^3
# Si number density = 21.022004 Si / 1000 Ang^3
#
#
#
# Elastic Constant Matrix: (Units=GPa)
#
#
# Indices 1 2 3 4 5 6 
#
# 1 92.3811 20.3555 12.8709 0.0000 0.0000 0.0000
# 2 20.3555 92.3811 12.8709 0.0000 0.0000 0.0000
# 3 12.8709 12.8709 70.7383 0.0000 0.0000 0.0000
# 4 0.0000 0.0000 0.0000 18.0535 0.0000 0.0000
# 5 0.0000 0.0000 0.0000 0.0000 18.0535 0.0000
# 6 0.0000 0.0000 0.0000 0.0000 0.0000 20.5712
#
#
#
# Elastic Compliance Matrix: (Units=1/GPa)
#
#
# Indices 1 2 3 4 5 6 
#
# 1 0.011569 -0.002315 -0.001684 0.000000 0.000000 0.000000
# 2 -0.002315 0.011569 -0.001684 0.000000 0.000000 0.000000
# 3 -0.001684 -0.001684 0.014749 0.000000 0.000000 0.000000
# 4 0.000000 0.000000 0.000000 0.055391 0.000000 0.000000
# 5 0.000000 0.000000 0.000000 0.000000 0.055391 0.000000
# 6 0.000000 0.000000 0.000000 0.000000 0.000000 0.048612
#
#
# Mechanical properties :
#
#
# Convention : Reuss Voigt Hill
#
# Bulk Modulus (GPa) = 37.70280 38.63278 38.16779
# Shear Modulus (GPa) = 22.98982 25.29586 24.14284
#
# Velocity S-wave (km/s) = 3.31056 3.47263 3.39256
# Velocity P-wave (km/s) = 5.70850 5.87334 5.79150
#
# Compressibility (1/GPa) = 0.02652323
#
# Stress axis : x y z
#
# Youngs Moduli (GPa) = 86.43538 86.43538 67.79947
#
# Poissons Ratio (x) = 0.20006 0.11417
# Poissons Ratio (y) = 0.20006 0.11417
# Poissons Ratio (z) = 0.14555 0.14555
#
# Static dielectric constant tensor:
#      x y z
#    x 1.728600 0.000000 0.000000 
#    y 0.000000 1.728600 0.000000 
#    z 0.000000 0.000000 1.806400 
# 
# From -- ./inp_files/1568.got.cif
#   From: 2010.05.17/outbox.cif.g08.bks.cpg/sg127_1_cif.got.tgz:1568.got - 2010.05.20 12:03:00.
