data_PCOD9564162
_publ_section_title
;
Structure prediction by ZEFSAII (Michael W. Deem and Ramdas Pophale) SiO2 
 PCOD9564162
Probable space group: P 4/M B M
;
_chemical_formula_sum "Si O2"
_cell_formula_units_Z 120
_cell_length_a 21.364932
_cell_length_b 21.364932
_cell_length_c 13.842236
_cell_angle_alpha 90.000000
_cell_angle_beta 90.000000
_cell_angle_gamma 90.000000
_cell_volume 6318.431465
_symmetry_space_group_name_H-M "P 4/M B M"
_symmetry_group_IT_number 127
_symmetry_cell_setting 'tetragonal'
loop_
_space_group_symop_operation_xyz
x,y,z
-y,x,z
-x,-y,z
y,-x,z
1/2+x,1/2-y,-z
1/2-x,1/2+y,-z
1/2+y,1/2+x,-z
1/2-y,1/2-x,-z
-x,-y,-z
y,-x,-z
x,y,-z
-y,x,-z
1/2-x,1/2+y,z
1/2+x,1/2-y,z
1/2-y,1/2-x,z
1/2+y,1/2+x,z
loop_
_atom_site_type_symbol
_atom_site_label
_atom_site_fract_x
_atom_site_fract_y
_atom_site_fract_z
Si Si1 0.596618 0.656022 0.616018
Si Si2 0.976694 0.686412 0.718581
Si Si3 0.220776 0.385120 0.110328
Si Si4 0.686183 0.348845 0.115263
Si Si5 0.446528 0.946528 0.383112
Si Si6 0.219769 0.620281 0.271741
Si Si7 0.950372 0.087148 0.117574
Si Si8 0.542031 0.317568 0.616383
O O1 0.598161 0.655513 0.500000
O O2 0.619543 0.722685 0.653897
O O3 0.640861 0.600111 0.650355
O O4 0.523904 0.650906 0.645150
O O5 0.936323 0.695025 0.815805
O O6 0.964882 0.620530 0.664495
O O7 0.957350 0.746638 0.654192
O O8 0.049993 0.695073 0.740413
O O9 0.172350 0.327651 0.110359
O O10 0.288165 0.356165 0.137931
O O11 0.226050 0.409327 0.000000
O O12 0.749866 0.352654 0.173974
O O13 0.647352 0.410734 0.144700
O O14 0.696090 0.348194 0.000000
O O15 0.440762 0.940762 0.500000
O O16 0.500000 0.000000 0.364465
O O17 0.164483 0.664483 0.305950
O O18 0.022533 0.083076 0.147835
O O19 0.950486 0.086697 0.000000
O O20 0.543593 0.315625 0.500000
#
# Coordination Sequence:
#
# PCOD9564162 Si02
#       8
#    16  16  16  16   8  16  16  16
#     4   9  19  37  59  83 115 152 192 239 290 355
#     4  11  22  40  63  88 121 155 196 255 308 368
#     4  10  21  38  60  86 116 157 203 245 295 355
#     4  10  21  35  57  84 118 158 201 244 286 343
#     4  11  24  44  71  99 121 149 196 258 333 398
#     4  11  24  39  57  83 116 154 196 241 301 364
#     4   8  15  29  49  75 109 147 188 236 285 330
#     4   9  18  34  58  88 120 155 195 238 295 359
#
# _framework density 18.992055000000001
#
# number of rings (size 3 to 8) (size 9 to 14) (size 15 to 20)
#    0.000    2.200    0.667    2.400    1.867    2.400 
#    1.200    1.333    0.000    1.600    0.000    0.000 
#    0.000    0.000    0.000    0.000    0.000    0.000 
#
# Total GULP energy -670061.198394 kJ/mol
# GULP energy per Si atom -5583.843320 kJ/mol
# Density = 1.894883 g / cm^3
# Si number density = 18.992055 Si / 1000 Ang^3
#
#
#
# Elastic Constant Matrix: (Units=GPa)
#
#
# Indices 1 2 3 4 5 6 
#
# 1 100.8234 70.9060 36.5922 0.0000 0.0000 0.0000
# 2 70.9060 100.8234 36.5922 0.0000 0.0000 0.0000
# 3 36.5922 36.5922 80.7085 0.0000 0.0000 0.0000
# 4 0.0000 0.0000 0.0000 26.1896 0.0000 0.0000
# 5 0.0000 0.0000 0.0000 0.0000 26.1896 0.0000
# 6 0.0000 0.0000 0.0000 0.0000 0.0000 36.7519
#
#
#
# Elastic Compliance Matrix: (Units=1/GPa)
#
#
# Indices 1 2 3 4 5 6 
#
# 1 0.020322 -0.013104 -0.003272 0.000000 0.000000 0.000000
# 2 -0.013104 0.020322 -0.003272 0.000000 0.000000 0.000000
# 3 -0.003272 -0.003272 0.015358 0.000000 0.000000 0.000000
# 4 0.000000 0.000000 0.000000 0.038183 0.000000 0.000000
# 5 0.000000 0.000000 0.000000 0.000000 0.038183 0.000000
# 6 0.000000 0.000000 0.000000 0.000000 0.000000 0.027210
#
#
# Mechanical properties :
#
#
# Convention : Reuss Voigt Hill
#
# Bulk Modulus (GPa) = 59.86824 63.39291 61.63057
# Shear Modulus (GPa) = 24.45688 27.04388 25.75038
#
# Velocity S-wave (km/s) = 3.59241 3.77763 3.68618
# Velocity P-wave (km/s) = 6.98558 7.24420 7.11607
#
# Compressibility (1/GPa) = 0.01670335
#
# Stress axis : x y z
#
# Youngs Moduli (GPa) = 49.20882 49.20882 65.11431
#
# Poissons Ratio (x) = 0.64483 0.21308
# Poissons Ratio (y) = 0.64483 0.21308
# Poissons Ratio (z) = 0.16103 0.16103
#
# Static dielectric constant tensor:
#      x y z
#    x 1.640040 0.000000 0.000000 
#    y 0.000000 1.640040 0.000000 
#    z 0.000000 0.000000 1.682600 
# 
# From -- ./inp_files/4641.got.cif
#   From: 2010.05.17/outbox.cif.g08.bks.cpg/sg127_3_cif.got.tgz:4641.got - 2010.05.20 12:03:00.
