data_PCOD9564705
_publ_section_title
;
Structure prediction by ZEFSAII (Michael W. Deem and Ramdas Pophale) SiO2 
 PCOD9564705
Probable space group: P 4/M N C
;
_chemical_formula_sum "Si O2"
_cell_formula_units_Z 96
_cell_length_a 25.723556
_cell_length_b 25.723556
_cell_length_c 8.826813
_cell_angle_alpha 90.000000
_cell_angle_beta 90.000000
_cell_angle_gamma 90.000000
_cell_volume 5840.713931
_symmetry_space_group_name_H-M "P 4/M N C"
_symmetry_group_IT_number 128
_symmetry_cell_setting 'tetragonal'
loop_
_space_group_symop_operation_xyz
x,y,z
-y,x,z
-x,-y,z
y,-x,z
1/2+x,1/2-y,1/2-z
1/2-x,1/2+y,1/2-z
1/2+y,1/2+x,1/2-z
1/2-y,1/2-x,1/2-z
-x,-y,-z
y,-x,-z
x,y,-z
-y,x,-z
1/2-x,1/2+y,1/2+z
1/2+x,1/2-y,1/2+z
1/2-y,1/2-x,1/2+z
1/2+y,1/2+x,1/2+z
loop_
_atom_site_type_symbol
_atom_site_label
_atom_site_fract_x
_atom_site_fract_y
_atom_site_fract_z
Si Si1 0.885703 0.694962 0.179768
Si Si2 0.687059 0.497851 0.173574
Si Si3 0.312880 0.992714 0.673468
Si Si4 0.109331 0.805163 0.820045
Si Si5 0.386609 0.689580 0.182625
Si Si6 0.891522 0.310444 0.317132
O O1 0.842826 0.657175 0.250000
O O2 0.943282 0.674717 0.224526
O O3 0.880313 0.752603 0.250350
O O4 0.880331 0.697791 0.000000
O O5 0.749958 0.502665 0.171560
O O6 0.674917 0.448398 0.275787
O O7 0.669414 0.555200 0.222777
O O8 0.670441 0.487823 0.000000
O O9 0.329488 0.982770 0.500000
O O10 0.330306 0.050151 0.722452
O O11 0.151756 0.843056 0.747376
O O12 0.114808 0.747438 0.749759
O O13 0.115184 0.802618 0.000000
O O14 0.384300 0.692486 0.000000
O O15 0.848387 0.348387 0.250000
O O16 0.888716 0.307735 0.500000
#
# Coordination Sequence:
#
# PCOD9564705 Si02
#       6
#    16  16  16  16  16  16
#     4  11  21  33  51  75 102 131 165 203 246 294
#     4   8  16  32  52  71  94 128 166 203 242 288
#     4   8  16  32  51  71  96 128 165 203 242 288
#     4  11  21  32  50  76 104 132 164 202 246 294
#     4  10  20  35  53  73 100 132 167 204 245 293
#     4  10  20  34  52  74 102 133 166 203 245 293
#
# _framework density 16.436347000000001
#
# number of rings (size 3 to 8) (size 9 to 14) (size 15 to 20)
#    0.000    2.333    0.000    6.000    0.000    8.000 
#    0.000    3.333    0.000    1.000    0.000    7.000 
#    0.000    0.000    0.000    0.000    0.000    0.000 
#
# Total GULP energy -535195.816465 kJ/mol
# GULP energy per Si atom -5574.956422 kJ/mol
# Density = 1.639894 g / cm^3
# Si number density = 16.436347 Si / 1000 Ang^3
#
#
#
# Elastic Constant Matrix: (Units=GPa)
#
#
# Indices 1 2 3 4 5 6 
#
# 1 102.3462 69.0832 62.5246 0.0000 0.0000 0.0000
# 2 69.0832 102.3443 62.5242 0.0000 0.0000 0.0000
# 3 62.5246 62.5242 110.5133 0.0000 0.0000 0.0000
# 4 0.0000 0.0000 0.0000 15.3659 0.0000 0.0000
# 5 0.0000 0.0000 0.0000 0.0000 15.3673 0.0000
# 6 0.0000 0.0000 0.0000 0.0000 0.0000 -5.7311
#
#
#
# Elastic Compliance Matrix: (Units=1/GPa)
#
#
# Indices 1 2 3 4 5 6 
#
# 1 0.019998 -0.010066 -0.005619 0.000000 0.000000 0.000000
# 2 -0.010066 0.019999 -0.005619 0.000000 0.000000 0.000000
# 3 -0.005619 -0.005619 0.015407 0.000000 0.000000 0.000000
# 4 0.000000 0.000000 0.000000 0.065079 0.000000 0.000000
# 5 0.000000 0.000000 0.000000 0.000000 0.065073 0.000000
# 6 0.000000 0.000000 0.000000 0.000000 0.000000 -0.174485
#
#
# Mechanical properties :
#
#
# Convention : Reuss Voigt Hill
#
# Bulk Modulus (GPa) = 78.15906 78.16310 78.16108
# Shear Modulus (GPa) = 86.28853 13.07188 49.68021
#
# Velocity S-wave (km/s) = 7.25345 2.82317 5.50377
# Velocity P-wave (km/s) = 10.85384 7.63448 9.38326
#
# Compressibility (1/GPa) = 0.01279442
#
# Stress axis : x y z
#
# Youngs Moduli (GPa) = 50.00473 50.00360 64.90477
#
# Poissons Ratio (x) = 0.50333 0.36472
# Poissons Ratio (y) = 0.50334 0.36473
# Poissons Ratio (z) = 0.28099 0.28099
#
# Static dielectric constant tensor:
#      x y z
#    x 1.549910 0.000000 0.000000 
#    y 0.000000 1.549910 0.000000 
#    z 0.000000 0.000000 1.547260 
# 
# From -- ./inp_files/1516.got.cif
#   From: 2010.05.17/outbox.cif.g08.bks.cpg/sg128_1_cif.got.tgz:1516.got - 2010.05.20 12:07:25.
