data_PCOD9564855
_publ_section_title
;
Structure prediction by ZEFSAII (Michael W. Deem and Ramdas Pophale) SiO2 
 PCOD9564855
Probable space group: P 4/M N C
;
_chemical_formula_sum "Si O2"
_cell_formula_units_Z 96
_cell_length_a 14.341047
_cell_length_b 14.341047
_cell_length_c 22.702788
_cell_angle_alpha 90.000000
_cell_angle_beta 90.000000
_cell_angle_gamma 90.000000
_cell_volume 4669.183175
_symmetry_space_group_name_H-M "P 4/M N C"
_symmetry_group_IT_number 128
_symmetry_cell_setting 'tetragonal'
loop_
_space_group_symop_operation_xyz
x,y,z
-y,x,z
-x,-y,z
y,-x,z
1/2+x,1/2-y,1/2-z
1/2-x,1/2+y,1/2-z
1/2+y,1/2+x,1/2-z
1/2-y,1/2-x,1/2-z
-x,-y,-z
y,-x,-z
x,y,-z
-y,x,-z
1/2-x,1/2+y,1/2+z
1/2+x,1/2-y,1/2+z
1/2-y,1/2-x,1/2+z
1/2+y,1/2+x,1/2+z
loop_
_atom_site_type_symbol
_atom_site_label
_atom_site_fract_x
_atom_site_fract_y
_atom_site_fract_z
Si Si1 0.726868 0.852916 0.101934
Si Si2 0.383577 0.891537 0.000000
Si Si3 0.121479 0.193542 0.500000
Si Si4 0.078850 0.863964 0.000000
Si Si5 0.110734 0.479702 0.372484
Si Si6 0.086969 0.702228 0.500000
Si Si7 0.709660 0.180177 0.316967
Si Si8 0.145520 0.945852 0.627349
O O1 0.760356 0.764519 0.139573
O O2 0.679387 0.934178 0.140500
O O3 0.807837 0.890396 0.058564
O O4 0.642485 0.826440 0.058266
O O5 0.371766 0.950568 0.058849
O O6 0.325681 0.794118 0.000000
O O7 0.488389 0.848971 0.000000
O O8 0.187436 0.104010 0.500000
O O9 0.069228 0.187037 0.562012
O O10 0.966887 0.876210 0.000000
O O11 0.142964 0.391959 0.334466
O O12 0.000000 0.500000 0.365843
O O13 0.712310 0.212310 0.250000
O O14 0.779240 0.094182 0.328188
O O15 0.052199 0.884506 0.634035
#
# Coordination Sequence:
#
# PCOD9564855 Si02
#       8
#    16   8   8   8  16   8  16  16
#     4  11  23  42  67  96 138 177 222 276 350 408
#     4  12  20  38  63 109 149 170 212 271 349 434
#     4  12  21  33  69  99 151 177 217 266 351 428
#     4  10  21  39  69 100 132 169 222 277 341 418
#     4  12  25  43  72 107 143 182 228 285 354 426
#     4  11  19  34  61 100 135 183 200 265 342 421
#     4  12  29  48  68  96 135 185 245 297 343 398
#     4  11  24  43  70 101 140 181 223 278 351 433
#
# _framework density 20.560341999999999
#
# number of rings (size 3 to 8) (size 9 to 14) (size 15 to 20)
#    0.000    0.583    5.000    3.750    2.333    4.333 
#    0.000    0.000    0.000    2.000    0.000    0.000 
#    0.000    0.000    0.000    0.000    0.000    0.000 
#
# Total GULP energy -537016.489988 kJ/mol
# GULP energy per Si atom -5593.921771 kJ/mol
# Density = 2.051355 g / cm^3
# Si number density = 20.560342 Si / 1000 Ang^3
#
#
#
# Elastic Constant Matrix: (Units=GPa)
#
#
# Indices 1 2 3 4 5 6 
#
# 1 78.8945 30.2870 19.6193 0.0000 0.0000 0.0000
# 2 30.2870 78.8945 19.6193 0.0000 0.0000 0.0000
# 3 19.6193 19.6193 72.8757 0.0000 0.0000 0.0000
# 4 0.0000 0.0000 0.0000 5.1295 0.0000 0.0000
# 5 0.0000 0.0000 0.0000 0.0000 5.1295 0.0000
# 6 0.0000 0.0000 0.0000 0.0000 0.0000 42.3284
#
#
#
# Elastic Compliance Matrix: (Units=1/GPa)
#
#
# Indices 1 2 3 4 5 6 
#
# 1 0.015357 -0.005216 -0.002730 0.000000 0.000000 0.000000
# 2 -0.005216 0.015357 -0.002730 0.000000 0.000000 0.000000
# 3 -0.002730 -0.002730 0.015192 0.000000 0.000000 0.000000
# 4 0.000000 0.000000 0.000000 0.194953 0.000000 0.000000
# 5 0.000000 0.000000 0.000000 0.000000 0.194953 0.000000
# 6 0.000000 0.000000 0.000000 0.000000 0.000000 0.023625
#
#
# Mechanical properties :
#
#
# Convention : Reuss Voigt Hill
#
# Bulk Modulus (GPa) = 40.72888 41.07954 40.90421
# Shear Modulus (GPa) = 10.22554 21.26008 15.74281
#
# Velocity S-wave (km/s) = 2.23254 3.21913 2.77011
# Velocity P-wave (km/s) = 5.14763 5.81725 5.49265
#
# Compressibility (1/GPa) = 0.02455260
#
# Stress axis : x y z
#
# Youngs Moduli (GPa) = 65.11883 65.11883 65.82479
#
# Poissons Ratio (x) = 0.33969 0.17969
# Poissons Ratio (y) = 0.33969 0.17969
# Poissons Ratio (z) = 0.17777 0.17777
#
# Static dielectric constant tensor:
#      x y z
#    x 1.797500 0.000000 0.000000 
#    y 0.000000 1.797500 0.000000 
#    z 0.000000 0.000000 1.715920 
# 
# From -- ./inp_files/5843.got.cif
#   From: 2010.05.17/outbox.cif.g08.bks.cpg/sg128_3_cif.got.tgz:5843.got - 2010.05.20 12:07:25.
