data_PCOD9564168
_publ_section_title
;
Structure prediction by ZEFSAII (Michael W. Deem and Ramdas Pophale) SiO2 
 PCOD9564168
Probable space group: P 4/M B M
;
_chemical_formula_sum "Si O2"
_cell_formula_units_Z 96
_cell_length_a 14.192497
_cell_length_b 14.192497
_cell_length_c 22.963179
_cell_angle_alpha 90.000000
_cell_angle_beta 90.000000
_cell_angle_gamma 90.000000
_cell_volume 4625.403593
_symmetry_space_group_name_H-M "P 4/M B M"
_symmetry_group_IT_number 127
_symmetry_cell_setting 'tetragonal'
loop_
_space_group_symop_operation_xyz
x,y,z
-y,x,z
-x,-y,z
y,-x,z
1/2+x,1/2-y,-z
1/2-x,1/2+y,-z
1/2+y,1/2+x,-z
1/2-y,1/2-x,-z
-x,-y,-z
y,-x,-z
x,y,-z
-y,x,-z
1/2-x,1/2+y,z
1/2+x,1/2-y,z
1/2-y,1/2-x,z
1/2+y,1/2+x,z
loop_
_atom_site_type_symbol
_atom_site_label
_atom_site_fract_x
_atom_site_fract_y
_atom_site_fract_z
Si Si1 0.304687 0.958889 0.271771
Si Si2 0.001847 0.657996 0.144746
Si Si3 0.845195 0.003639 0.069924
Si Si4 0.635906 0.296592 0.563661
Si Si5 0.623537 0.593358 0.686747
Si Si6 0.009265 0.652146 0.398821
O O1 0.401518 0.901518 0.269983
O O2 0.301441 0.010874 0.210516
O O3 0.219961 0.883146 0.280264
O O4 0.314300 0.017401 0.331815
O O5 0.908979 0.591022 0.141487
O O6 0.090201 0.590201 0.132314
O O7 0.994797 0.745790 0.101729
O O8 0.906769 0.910989 0.085242
O O9 0.833549 0.003942 0.000000
O O10 0.645688 0.341030 0.500000
O O11 0.722247 0.222247 0.571775
O O12 0.623758 0.362098 0.619598
O O13 0.540028 0.234552 0.565775
O O14 0.518882 0.624394 0.700681
O O15 0.106630 0.606630 0.419500
O O16 0.931180 0.568821 0.400034
#
# Coordination Sequence:
#
# PCOD9564168 Si02
#       6
#    16  16  16  16  16  16
#     4   9  18  35  55  74 103 139 170 207 260 317
#     4  10  21  36  57  89 124 154 189 236 290 348
#     4   9  20  40  62  83 113 157 205 247 287 335
#     4   9  18  33  51  70  95 126 161 207 261 315
#     4  10  21  36  53  73  98 131 172 215 260 315
#     4   8  13  24  45  69  92 122 158 195 240 296
#
# _framework density 20.754944999999999
#
# number of rings (size 3 to 8) (size 9 to 14) (size 15 to 20)
#    0.000    2.833    0.000    2.500    0.000    5.667 
#    0.000   16.667    0.000    0.000    0.000    0.000 
#    0.000    0.000    0.000    0.000    0.000    0.000 
#
# Total GULP energy -534994.784103 kJ/mol
# GULP energy per Si atom -5572.862334 kJ/mol
# Density = 2.070771 g / cm^3
# Si number density = 20.754945 Si / 1000 Ang^3
#
#
#
# Elastic Constant Matrix: (Units=GPa)
#
#
# Indices 1 2 3 4 5 6 
#
# 1 75.6505 13.3042 32.1581 0.0000 0.0000 0.0000
# 2 13.3042 75.6505 32.1581 0.0000 0.0000 0.0000
# 3 32.1581 32.1581 60.1494 0.0000 0.0000 0.0000
# 4 0.0000 0.0000 0.0000 8.2723 0.0000 0.0000
# 5 0.0000 0.0000 0.0000 0.0000 8.2723 0.0000
# 6 0.0000 0.0000 0.0000 0.0000 0.0000 19.6858
#
#
#
# Elastic Compliance Matrix: (Units=1/GPa)
#
#
# Indices 1 2 3 4 5 6 
#
# 1 0.017182 0.001143 -0.009797 0.000000 0.000000 0.000000
# 2 0.001143 0.017182 -0.009797 0.000000 0.000000 0.000000
# 3 -0.009797 -0.009797 0.027101 0.000000 0.000000 0.000000
# 4 0.000000 0.000000 0.000000 0.120885 0.000000 0.000000
# 5 0.000000 0.000000 0.000000 0.000000 0.120885 0.000000
# 6 0.000000 0.000000 0.000000 0.000000 0.000000 0.050798
#
#
# Mechanical properties :
#
#
# Convention : Reuss Voigt Hill
#
# Bulk Modulus (GPa) = 40.71248 40.74346 40.72797
# Shear Modulus (GPa) = 12.52737 16.16808 14.34772
#
# Velocity S-wave (km/s) = 2.45946 2.79408 2.63210
# Velocity P-wave (km/s) = 5.26532 5.48476 5.37616
#
# Compressibility (1/GPa) = 0.02456249
#
# Stress axis : x y z
#
# Youngs Moduli (GPa) = 58.19891 58.19891 36.89839
#
# Poissons Ratio (x) = -0.06652 0.36151
# Poissons Ratio (y) = -0.06652 0.36151
# Poissons Ratio (z) = 0.57020 0.57020
#
# Static dielectric constant tensor:
#      x y z
#    x 1.791340 0.000000 0.000000 
#    y 0.000000 1.791340 0.000000 
#    z 0.000000 0.000000 1.752130 
# 
# From -- ./inp_files/5763.got.cif
#   From: 2010.05.17/outbox.cif.g08.bks.cpg/sg127_3_cif.got.tgz:5763.got - 2010.05.20 12:03:00.
