data_PCOD9564853
_publ_section_title
;
Structure prediction by ZEFSAII (Michael W. Deem and Ramdas Pophale) SiO2 
 PCOD9564853
Probable space group: P 4/M N C
;
_chemical_formula_sum "Si O2"
_cell_formula_units_Z 112
_cell_length_a 15.015480
_cell_length_b 15.015480
_cell_length_c 23.085288
_cell_angle_alpha 90.000000
_cell_angle_beta 90.000000
_cell_angle_gamma 90.000000
_cell_volume 5204.916140
_symmetry_space_group_name_H-M "P 4/M N C"
_symmetry_group_IT_number 128
_symmetry_cell_setting 'tetragonal'
loop_
_space_group_symop_operation_xyz
x,y,z
-y,x,z
-x,-y,z
y,-x,z
1/2+x,1/2-y,1/2-z
1/2-x,1/2+y,1/2-z
1/2+y,1/2+x,1/2-z
1/2-y,1/2-x,1/2-z
-x,-y,-z
y,-x,-z
x,y,-z
-y,x,-z
1/2-x,1/2+y,1/2+z
1/2+x,1/2-y,1/2+z
1/2-y,1/2-x,1/2+z
1/2+y,1/2+x,1/2+z
loop_
_atom_site_type_symbol
_atom_site_label
_atom_site_fract_x
_atom_site_fract_y
_atom_site_fract_z
Si Si1 0.377051 0.583999 0.642289
Si Si2 0.632899 0.123237 0.566869
Si Si3 0.251111 0.200722 0.933097
Si Si4 0.556118 0.754286 0.066682
Si Si5 0.600540 0.036875 0.189691
Si Si6 0.142582 0.026324 0.669964
Si Si7 0.759626 0.398889 0.738384
O O1 0.381011 0.477412 0.637337
O O2 0.312926 0.630286 0.596640
O O3 0.331173 0.608326 0.702661
O O4 0.593612 0.132009 0.500000
O O5 0.706112 0.201785 0.571251
O O6 0.577390 0.128229 0.627063
O O7 0.678335 0.026273 0.568973
O O8 0.351446 0.205156 0.909497
O O9 0.257256 0.175958 0.000000
O O10 0.531328 0.668166 0.103158
O O11 0.572694 0.730839 0.000000
O O12 0.595890 0.095890 0.250000
O O13 0.500000 0.000000 0.183345
O O14 0.668740 0.957557 0.203864
O O15 0.232225 0.047832 0.704307
O O16 0.068370 0.099989 0.683713
O O17 0.804372 0.304372 0.750000
#
# Coordination Sequence:
#
# PCOD9564853 Si02
#       7
#    16  16  16  16  16  16  16
#     4  11  25  45  70  98 132 179 232 291 350 419
#     4  10  22  41  67  98 138 182 234 292 353 427
#     4  10  22  42  66  98 136 181 234 290 351 423
#     4  10  21  39  65  97 137 180 225 284 351 424
#     4  11  23  41  65  99 134 178 228 290 352 423
#     4  11  24  41  64  95 132 176 227 284 345 423
#     4  12  24  43  68  93 133 175 223 289 357 428
#
# _framework density 21.518118000000001
#
# number of rings (size 3 to 8) (size 9 to 14) (size 15 to 20)
#    0.000    1.286    1.429    4.286    2.000    3.714 
#    0.000    7.143    0.000    0.000    0.000    0.000 
#    0.000    0.000    0.000    0.000    0.000    0.000 
#
# Total GULP energy -625712.279888 kJ/mol
# GULP energy per Si atom -5586.716785 kJ/mol
# Density = 2.146914 g / cm^3
# Si number density = 21.518118 Si / 1000 Ang^3
#
#
#
# Elastic Constant Matrix: (Units=GPa)
#
#
# Indices 1 2 3 4 5 6 
#
# 1 43.0051 103.6517 43.7869 0.0000 0.0000 0.0000
# 2 103.6517 43.0051 43.7869 0.0000 0.0000 0.0000
# 3 43.7869 43.7869 120.8103 0.0000 0.0000 0.0000
# 4 0.0000 0.0000 0.0000 2.3602 0.0000 0.0000
# 5 0.0000 0.0000 0.0000 0.0000 2.3602 0.0000
# 6 0.0000 0.0000 0.0000 0.0000 0.0000 -8.7768
#
#
#
# Elastic Compliance Matrix: (Units=1/GPa)
#
#
# Indices 1 2 3 4 5 6 
#
# 1 -0.003893 0.012595 -0.003154 0.000000 0.000000 0.000000
# 2 0.012595 -0.003893 -0.003154 0.000000 0.000000 0.000000
# 3 -0.003154 -0.003154 0.010564 0.000000 0.000000 0.000000
# 4 0.000000 0.000000 0.000000 0.423686 0.000000 0.000000
# 5 0.000000 0.000000 0.000000 0.000000 0.423686 0.000000
# 6 0.000000 0.000000 0.000000 0.000000 0.000000 -0.113937
#
#
# Mechanical properties :
#
#
# Convention : Reuss Voigt Hill
#
# Bulk Modulus (GPa) = 65.13901 65.47460 65.30680
# Shear Modulus (GPa) = 6.86102 0.22840 3.54471
#
# Velocity S-wave (km/s) = 1.78757 0.32615 1.28487
# Velocity P-wave (km/s) = 5.88200 5.53494 5.71111
#
# Compressibility (1/GPa) = 0.01535178
#
# Stress axis : x y z
#
# Youngs Moduli (GPa) = -256.83896 -256.83896 94.66361
#
# Poissons Ratio (x) = 3.23501 0.29857
# Poissons Ratio (y) = 3.23501 0.29857
# Poissons Ratio (z) = -0.81007 -0.81007
#
# Static dielectric constant tensor:
#      x y z
#    x 1.779010 0.000000 0.000000 
#    y 0.000000 1.779010 0.000000 
#    z 0.000000 0.000000 1.928790 
# 
# From -- ./inp_files/6454.got.cif
#   From: 2010.05.17/outbox.cif.g08.bks.cpg/sg128_4_cif.got.tgz:6454.got - 2010.05.20 12:07:25.
