data_PCOD9564192
_publ_section_title
;
Structure prediction by ZEFSAII (Michael W. Deem and Ramdas Pophale) SiO2 
 PCOD9564192
Probable space group: P 4/M B M
;
_chemical_formula_sum "Si O2"
_cell_formula_units_Z 96
_cell_length_a 24.688229
_cell_length_b 24.688229
_cell_length_c 7.963507
_cell_angle_alpha 90.000000
_cell_angle_beta 90.000000
_cell_angle_gamma 90.000000
_cell_volume 4853.826410
_symmetry_space_group_name_H-M "P 4/M B M"
_symmetry_group_IT_number 127
_symmetry_cell_setting 'tetragonal'
loop_
_space_group_symop_operation_xyz
x,y,z
-y,x,z
-x,-y,z
y,-x,z
1/2+x,1/2-y,-z
1/2-x,1/2+y,-z
1/2+y,1/2+x,-z
1/2-y,1/2-x,-z
-x,-y,-z
y,-x,-z
x,y,-z
-y,x,-z
1/2-x,1/2+y,z
1/2+x,1/2-y,z
1/2-y,1/2-x,z
1/2+y,1/2+x,z
loop_
_atom_site_type_symbol
_atom_site_label
_atom_site_fract_x
_atom_site_fract_y
_atom_site_fract_z
Si Si1 0.139527 0.725863 0.801952
Si Si2 0.799378 0.069213 0.706570
Si Si3 0.030404 0.082088 0.295237
Si Si4 0.789830 0.483201 0.300927
Si Si5 0.087354 0.500189 0.797067
Si Si6 0.689305 0.275253 0.301859
O O1 0.171676 0.671676 0.746625
O O2 0.076483 0.721051 0.768205
O O3 0.169929 0.776050 0.717393
O O4 0.147804 0.731996 0.000000
O O5 0.800003 0.069933 0.500000
O O6 0.859517 0.051395 0.760705
O O7 0.783601 0.129245 0.766498
O O8 0.754124 0.026355 0.761924
O O9 0.030594 0.082526 0.500000
O O10 0.968866 0.067691 0.243522
O O11 0.783411 0.480104 0.500000
O O12 0.851347 0.499983 0.262583
O O13 0.051545 0.448456 0.743474
O O14 0.053617 0.553617 0.742940
O O15 0.087856 0.500723 0.000000
O O16 0.683329 0.264489 0.500000
O O17 0.726693 0.226693 0.230152
#
# Coordination Sequence:
#
# PCOD9564192 Si02
#       6
#    16  16  16  16  16  16
#     4  10  21  37  56  77 104 141 184 227 267 310
#     4   9  19  31  47  76 109 140 172 214 267 321
#     4   8  14  25  43  68  97 130 168 210 256 305
#     4  11  22  33  51  83 115 141 174 218 270 326
#     4   9  19  37  58  77 102 141 184 223 267 318
#     4   9  18  34  55  77 104 138 174 216 267 316
#
# _framework density 19.778210000000001
#
# number of rings (size 3 to 8) (size 9 to 14) (size 15 to 20)
#    0.000    2.667    0.000    2.500    2.333    4.333 
#    0.000    4.167    0.000    2.000    0.000    0.000 
#    0.000    1.333    0.000    0.000    0.000    0.000 
#
# Total GULP energy -535686.404501 kJ/mol
# GULP energy per Si atom -5580.066714 kJ/mol
# Density = 1.973319 g / cm^3
# Si number density = 19.778210 Si / 1000 Ang^3
#
#
#
# Elastic Constant Matrix: (Units=GPa)
#
#
# Indices 1 2 3 4 5 6 
#
# 1 91.4266 159.6485 -0.8477 0.0000 0.0000 0.0000
# 2 159.6485 91.4266 -0.8477 0.0000 0.0000 0.0000
# 3 -0.8477 -0.8477 15.2940 0.0000 0.0000 0.0000
# 4 0.0000 0.0000 0.0000 37.4388 0.0000 0.0000
# 5 0.0000 0.0000 0.0000 0.0000 37.4388 0.0000
# 6 0.0000 0.0000 0.0000 0.0000 0.0000 12.3297
#
#
#
# Elastic Compliance Matrix: (Units=1/GPa)
#
#
# Indices 1 2 3 4 5 6 
#
# 1 -0.005337 0.009321 0.000221 0.000000 0.000000 0.000000
# 2 0.009321 -0.005337 0.000221 0.000000 0.000000 0.000000
# 3 0.000221 0.000221 0.065410 0.000000 0.000000 0.000000
# 4 0.000000 0.000000 0.000000 0.026710 0.000000 0.000000
# 5 0.000000 0.000000 0.000000 0.000000 0.026710 0.000000
# 6 0.000000 0.000000 0.000000 0.000000 0.000000 0.081105
#
#
# Mechanical properties :
#
#
# Convention : Reuss Voigt Hill
#
# Bulk Modulus (GPa) = 13.46586 57.11704 35.29145
# Shear Modulus (GPa) = 25.70833 20.12109 22.91471
#
# Velocity S-wave (km/s) = 3.60923 3.19303 3.40749
# Velocity P-wave (km/s) = 4.91853 6.52192 5.77613
#
# Compressibility (1/GPa) = 0.07426185
#
# Stress axis : x y z
#
# Youngs Moduli (GPa) = -187.37649 -187.37649 15.28824
#
# Poissons Ratio (x) = 1.74658 -0.00338
# Poissons Ratio (y) = 1.74658 -0.00338
# Poissons Ratio (z) = 0.04138 0.04138
#
# Static dielectric constant tensor:
#      x y z
#    x 1.689840 0.000000 0.000000 
#    y 0.000000 1.689840 0.000000 
#    z 0.000000 0.000000 1.714480 
# 
# From -- ./inp_files/1954.got.cif
#   From: 2010.05.17/outbox.cif.g08.bks.cpg/sg127_1_cif.got.tgz:1954.got - 2010.05.20 12:03:00.
