data_PCOD9564262
_publ_section_title
;
Structure prediction by ZEFSAII (Michael W. Deem and Ramdas Pophale) SiO2 
 PCOD9564262
Probable space group: P 4/M B M
;
_chemical_formula_sum "Si O2"
_cell_formula_units_Z 72
_cell_length_a 21.534981
_cell_length_b 21.534981
_cell_length_c 7.631371
_cell_angle_alpha 90.000000
_cell_angle_beta 90.000000
_cell_angle_gamma 90.000000
_cell_volume 3539.089562
_symmetry_space_group_name_H-M "P 4/M B M"
_symmetry_group_IT_number 127
_symmetry_cell_setting 'tetragonal'
loop_
_space_group_symop_operation_xyz
x,y,z
-y,x,z
-x,-y,z
y,-x,z
1/2+x,1/2-y,-z
1/2-x,1/2+y,-z
1/2+y,1/2+x,-z
1/2-y,1/2-x,-z
-x,-y,-z
y,-x,-z
x,y,-z
-y,x,-z
1/2-x,1/2+y,z
1/2+x,1/2-y,z
1/2-y,1/2-x,z
1/2+y,1/2+x,z
loop_
_atom_site_type_symbol
_atom_site_label
_atom_site_fract_x
_atom_site_fract_y
_atom_site_fract_z
Si Si1 0.463667 0.402515 0.500000
Si Si2 0.841751 0.758033 0.790055
Si Si3 0.418143 0.180087 0.206278
Si Si4 0.058602 0.342271 0.292071
Si Si5 0.178300 0.099671 0.786574
O O1 0.534979 0.422782 0.500000
O O2 0.446295 0.363807 0.326302
O O3 0.784727 0.715274 0.721833
O O4 0.904728 0.721540 0.745820
O O5 0.839127 0.829450 0.736640
O O6 0.836233 0.758748 0.000000
O O7 0.369148 0.130853 0.282227
O O8 0.488795 0.158210 0.225693
O O9 0.410707 0.250328 0.269685
O O10 0.405114 0.184642 0.000000
O O11 0.055435 0.349199 0.500000
O O12 0.102427 0.397573 0.220853
O O13 0.172402 0.092103 0.000000
#
# Coordination Sequence:
#
# PCOD9564262 Si02
#       5
#     8  16  16  16  16
#     4  11  28  48  65  92 128 165 204 251 311 379
#     4   9  18  35  59  87 121 159 203 257 312 365
#     4  10  22  40  61  88 123 161 205 257 313 372
#     4  10  22  37  56  87 125 165 209 255 304 366
#     4  10  23  41  67  96 124 160 206 259 314 372
#
# _framework density 20.344215999999999
#
# number of rings (size 3 to 8) (size 9 to 14) (size 15 to 20)
#    0.000    2.111    0.000    1.333    6.222    5.778 
#    0.000    4.444    0.000    0.000    0.000    0.000 
#    0.000    0.000    0.000    0.000    0.000    0.000 
#
# Total GULP energy -402072.463099 kJ/mol
# GULP energy per Si atom -5584.339765 kJ/mol
# Density = 2.029791 g / cm^3
# Si number density = 20.344216 Si / 1000 Ang^3
#
#
#
# Elastic Constant Matrix: (Units=GPa)
#
#
# Indices 1 2 3 4 5 6 
#
# 1 127.5413 76.7056 20.1243 0.0000 0.0000 0.0000
# 2 76.7056 127.5413 20.1243 0.0000 0.0000 0.0000
# 3 20.1243 20.1243 58.6549 0.0000 0.0000 0.0000
# 4 0.0000 0.0000 0.0000 -70.4670 0.0000 0.0000
# 5 0.0000 0.0000 0.0000 0.0000 -70.4670 0.0000
# 6 0.0000 0.0000 0.0000 0.0000 0.0000 19.2721
#
#
#
# Elastic Compliance Matrix: (Units=1/GPa)
#
#
# Indices 1 2 3 4 5 6 
#
# 1 0.012461 -0.007210 -0.001802 0.000000 0.000000 0.000000
# 2 -0.007210 0.012461 -0.001802 0.000000 0.000000 0.000000
# 3 -0.001802 -0.001802 0.018285 0.000000 0.000000 0.000000
# 4 0.000000 0.000000 0.000000 -0.014191 0.000000 0.000000
# 5 0.000000 0.000000 0.000000 0.000000 -0.014191 0.000000
# 6 0.000000 0.000000 0.000000 0.000000 0.000000 0.051888
#
#
# Mechanical properties :
#
#
# Convention : Reuss Voigt Hill
#
# Bulk Modulus (GPa) = 46.33754 60.84955 53.59355
# Shear Modulus (GPa) = 52.33737 -11.21351 20.56193
#
# Velocity S-wave (km/s) = 5.07758 -2.35029 3.18260
# Velocity P-wave (km/s) = 7.56319 4.75498 6.31711
#
# Compressibility (1/GPa) = 0.02158077
#
# Stress axis : x y z
#
# Youngs Moduli (GPa) = 80.24947 80.24947 54.68922
#
# Poissons Ratio (x) = 0.57861 0.09853
# Poissons Ratio (y) = 0.57861 0.09853
# Poissons Ratio (z) = 0.14458 0.14458
#
# Static dielectric constant tensor:
#      x y z
#    x 1.713680 0.000000 0.000000 
#    y 0.000000 1.713680 0.000000 
#    z 0.000000 0.000000 1.734980 
# 
# From -- ./inp_files/1594.got.cif
#   From: 2010.05.17/outbox.cif.g08.bks.cpg/sg127_1_cif.got.tgz:1594.got - 2010.05.20 12:03:00.
