data_PCOD9564363
_publ_section_title
;
Structure prediction by ZEFSAII (Michael W. Deem and Ramdas Pophale) SiO2 
 PCOD9564363
Probable space group: P 4/M B M
;
_chemical_formula_sum "Si O2"
_cell_formula_units_Z 72
_cell_length_a 22.730664
_cell_length_b 22.730664
_cell_length_c 7.634970
_cell_angle_alpha 90.000000
_cell_angle_beta 90.000000
_cell_angle_gamma 90.000000
_cell_volume 3944.859860
_symmetry_space_group_name_H-M "P 4/M B M"
_symmetry_group_IT_number 127
_symmetry_cell_setting 'tetragonal'
loop_
_space_group_symop_operation_xyz
x,y,z
-y,x,z
-x,-y,z
y,-x,z
1/2+x,1/2-y,-z
1/2-x,1/2+y,-z
1/2+y,1/2+x,-z
1/2-y,1/2-x,-z
-x,-y,-z
y,-x,-z
x,y,-z
-y,x,-z
1/2-x,1/2+y,z
1/2+x,1/2-y,z
1/2-y,1/2-x,z
1/2+y,1/2+x,z
loop_
_atom_site_type_symbol
_atom_site_label
_atom_site_fract_x
_atom_site_fract_y
_atom_site_fract_z
Si Si1 0.738566 0.854596 0.787553
Si Si2 0.176679 0.982729 0.787485
Si Si3 0.889672 0.133843 0.786507
Si Si4 0.017249 0.692409 0.303371
Si Si5 0.900728 0.499926 0.000000
O O1 0.702198 0.797803 0.732466
O O2 0.806540 0.856180 0.733741
O O3 0.707232 0.913602 0.720943
O O4 0.737255 0.858110 0.000000
O O5 0.142095 0.925147 0.726132
O O6 0.143850 0.042742 0.731655
O O7 0.244553 0.986114 0.729840
O O8 0.177452 0.982900 0.000000
O O9 0.889898 0.131802 0.000000
O O10 0.005798 0.672765 0.500000
O O11 0.000034 0.642660 0.165922
O O12 0.941131 0.441131 0.000000
O O13 0.945221 0.554780 0.000000
#
# Coordination Sequence:
#
# PCOD9564363 Si02
#       5
#    16  16  16  16   8
#     4   9  16  30  52  79 109 140 182 233 279 325
#     4   9  16  32  52  77 115 150 192 232 277 327
#     4   8  15  26  48  76 108 152 191 229 277 327
#     4  11  21  36  59  84 111 147 185 224 277 335
#     4  11  24  42  62  84 112 143 178 228 280 331
#
# _framework density 18.2516
#
# number of rings (size 3 to 8) (size 9 to 14) (size 15 to 20)
#    0.000    2.556    2.222    2.000    0.000    2.667 
#    0.000    8.889    0.000    0.000    0.000    6.222 
#    0.000    0.000    0.000    0.000    0.000    0.000 
#
# Total GULP energy -401762.584226 kJ/mol
# GULP energy per Si atom -5580.035892 kJ/mol
# Density = 1.821006 g / cm^3
# Si number density = 18.251600 Si / 1000 Ang^3
#
#
#
# Elastic Constant Matrix: (Units=GPa)
#
#
# Indices 1 2 3 4 5 6 
#
# 1 133.9835 107.8112 44.8162 0.0000 0.0000 0.0000
# 2 107.8112 133.9831 44.8162 0.0000 0.0000 0.0000
# 3 44.8162 44.8162 90.8777 0.0000 0.0000 0.0000
# 4 0.0000 0.0000 0.0000 -6.3742 0.0000 0.0000
# 5 0.0000 0.0000 0.0000 0.0000 -6.3731 0.0000
# 6 0.0000 0.0000 0.0000 0.0000 0.0000 27.7098
#
#
#
# Elastic Compliance Matrix: (Units=1/GPa)
#
#
# Indices 1 2 3 4 5 6 
#
# 1 0.021635 -0.016574 -0.002496 0.000000 0.000000 0.000000
# 2 -0.016574 0.021635 -0.002496 0.000000 0.000000 0.000000
# 3 -0.002496 -0.002496 0.013465 0.000000 0.000000 0.000000
# 4 0.000000 0.000000 0.000000 -0.156882 0.000000 0.000000
# 5 0.000000 0.000000 0.000000 0.000000 -0.156911 0.000000
# 6 0.000000 0.000000 0.000000 0.000000 0.000000 0.036088
#
#
# Mechanical properties :
#
#
# Convention : Reuss Voigt Hill
#
# Bulk Modulus (GPa) = 73.50731 83.74793 78.62762
# Shear Modulus (GPa) = -28.85108 13.75255 -7.54927
#
# Velocity S-wave (km/s) = -3.98017 2.74797 -2.03598
# Velocity P-wave (km/s) = 4.38629 7.48688 6.13567
#
# Compressibility (1/GPa) = 0.01360409
#
# Stress axis : x y z
#
# Youngs Moduli (GPa) = 46.22201 46.22183 74.26447
#
# Poissons Ratio (x) = 0.76607 0.18535
# Poissons Ratio (y) = 0.76608 0.18535
# Poissons Ratio (z) = 0.11536 0.11536
#
# Static dielectric constant tensor:
#      x y z
#    x 1.603140 0.000000 0.000000 
#    y 0.000000 1.603140 0.000000 
#    z 0.000000 0.000000 1.678260 
# 
# From -- ./inp_files/1527.got.cif
#   From: 2010.05.17/outbox.cif.g08.bks.cpg/sg127_1_cif.got.tgz:1527.got - 2010.05.20 12:03:00.
