data_PCOD9564815
_publ_section_title
;
Structure prediction by ZEFSAII (Michael W. Deem and Ramdas Pophale) SiO2 
 PCOD9564815
Probable space group: P 4/M N C
;
_chemical_formula_sum "Si O2"
_cell_formula_units_Z 96
_cell_length_a 14.849071
_cell_length_b 14.849071
_cell_length_c 22.834876
_cell_angle_alpha 90.000000
_cell_angle_beta 90.000000
_cell_angle_gamma 90.000000
_cell_volume 5034.973919
_symmetry_space_group_name_H-M "P 4/M N C"
_symmetry_group_IT_number 128
_symmetry_cell_setting 'tetragonal'
loop_
_space_group_symop_operation_xyz
x,y,z
-y,x,z
-x,-y,z
y,-x,z
1/2+x,1/2-y,1/2-z
1/2-x,1/2+y,1/2-z
1/2+y,1/2+x,1/2-z
1/2-y,1/2-x,1/2-z
-x,-y,-z
y,-x,-z
x,y,-z
-y,x,-z
1/2-x,1/2+y,1/2+z
1/2+x,1/2-y,1/2+z
1/2-y,1/2-x,1/2+z
1/2+y,1/2+x,1/2+z
loop_
_atom_site_type_symbol
_atom_site_label
_atom_site_fract_x
_atom_site_fract_y
_atom_site_fract_z
Si Si1 0.574006 0.073825 0.068073
Si Si2 0.233956 0.354005 0.142980
Si Si3 0.065240 0.132414 0.733690
Si Si4 0.269220 0.518310 0.566730
Si Si5 0.663949 0.638349 0.361263
Si Si6 0.604513 0.395884 0.930417
O O1 0.583121 0.160858 0.109671
O O2 0.500000 0.000000 0.085206
O O3 0.668455 0.020769 0.069569
O O4 0.557474 0.101747 0.000000
O O5 0.280579 0.396513 0.200184
O O6 0.184577 0.259510 0.151977
O O7 0.319609 0.338630 0.100602
O O8 0.083470 0.139326 0.802969
O O9 0.960666 0.116660 0.718125
O O10 0.286128 0.548007 0.500000
O O11 0.329104 0.433248 0.586021
O O12 0.288125 0.593946 0.615209
O O13 0.622757 0.499626 0.915119
O O14 0.613432 0.388972 0.000000
#
# Coordination Sequence:
#
# PCOD9564815 Si02
#       6
#    16  16  16  16  16  16
#     4   9  20  39  60  87 126 164 198 242 299 362
#     4  11  22  35  59  87 117 155 202 242 295 363
#     4  11  23  41  63  84 114 154 199 251 309 357
#     4  10  21  37  62  90 116 152 197 246 307 373
#     4  11  22  40  58  83 120 149 192 254 305 359
#     4   9  18  33  53  82 119 152 190 246 302 353
#
# _framework density 19.066634000000001
#
# number of rings (size 3 to 8) (size 9 to 14) (size 15 to 20)
#    0.000    1.833    1.667    3.000    0.000    6.333 
#    0.000    4.167    0.000    4.000    0.000    0.000 
#    0.000    0.000    0.000    0.000    0.000    0.000 
#
# Total GULP energy -535518.901086 kJ/mol
# GULP energy per Si atom -5578.321886 kJ/mol
# Density = 1.902324 g / cm^3
# Si number density = 19.066634 Si / 1000 Ang^3
#
#
#
# Elastic Constant Matrix: (Units=GPa)
#
#
# Indices 1 2 3 4 5 6 
#
# 1 56.0971 22.0656 25.5009 0.0000 0.0000 0.0000
# 2 22.0656 56.0971 25.5009 0.0000 0.0000 0.0000
# 3 25.5009 25.5009 93.6175 0.0000 0.0000 0.0000
# 4 0.0000 0.0000 0.0000 30.4406 0.0000 0.0000
# 5 0.0000 0.0000 0.0000 0.0000 30.4406 0.0000
# 6 0.0000 0.0000 0.0000 0.0000 0.0000 18.5953
#
#
#
# Elastic Compliance Matrix: (Units=1/GPa)
#
#
# Indices 1 2 3 4 5 6 
#
# 1 0.022472 -0.006913 -0.004238 0.000000 0.000000 0.000000
# 2 -0.006913 0.022472 -0.004238 0.000000 0.000000 0.000000
# 3 -0.004238 -0.004238 0.012991 0.000000 0.000000 0.000000
# 4 0.000000 0.000000 0.000000 0.032851 0.000000 0.000000
# 5 0.000000 0.000000 0.000000 0.000000 0.032851 0.000000
# 6 0.000000 0.000000 0.000000 0.000000 0.000000 0.053777
#
#
# Mechanical properties :
#
#
# Convention : Reuss Voigt Hill
#
# Bulk Modulus (GPa) = 36.82387 39.10515 37.96451
# Shear Modulus (GPa) = 23.01564 24.74495 23.88030
#
# Velocity S-wave (km/s) = 3.47813 3.60643 3.54286
# Velocity P-wave (km/s) = 5.95693 6.15597 6.05727
#
# Compressibility (1/GPa) = 0.02715630
#
# Stress axis : x y z
#
# Youngs Moduli (GPa) = 44.49995 44.49995 76.97801
#
# Poissons Ratio (x) = 0.30761 0.32625
# Poissons Ratio (y) = 0.30761 0.32625
# Poissons Ratio (z) = 0.18860 0.18860
#
# Static dielectric constant tensor:
#      x y z
#    x 1.655150 0.000000 0.000000 
#    y 0.000000 1.655150 0.000000 
#    z 0.000000 0.000000 1.687820 
# 
# From -- ./inp_files/5721.got.cif
#   From: 2010.05.17/outbox.cif.g08.bks.cpg/sg128_3_cif.got.tgz:5721.got - 2010.05.20 12:07:25.
