data_PCOD9564563
_publ_section_title
;
Structure prediction by ZEFSAII (Michael W. Deem and Ramdas Pophale) SiO2 
 PCOD9564563
Probable space group: P 4/M N C
;
_chemical_formula_sum "Si O2"
_cell_formula_units_Z 116
_cell_length_a 27.069140
_cell_length_b 27.069140
_cell_length_c 8.776462
_cell_angle_alpha 90.000000
_cell_angle_beta 90.000000
_cell_angle_gamma 90.000000
_cell_volume 6430.850200
_symmetry_space_group_name_H-M "P 4/M N C"
_symmetry_group_IT_number 128
_symmetry_cell_setting 'tetragonal'
loop_
_space_group_symop_operation_xyz
x,y,z
-y,x,z
-x,-y,z
y,-x,z
1/2+x,1/2-y,1/2-z
1/2-x,1/2+y,1/2-z
1/2+y,1/2+x,1/2-z
1/2-y,1/2-x,1/2-z
-x,-y,-z
y,-x,-z
x,y,-z
-y,x,-z
1/2-x,1/2+y,1/2+z
1/2+x,1/2-y,1/2+z
1/2-y,1/2-x,1/2+z
1/2+y,1/2+x,1/2+z
loop_
_atom_site_type_symbol
_atom_site_label
_atom_site_fract_x
_atom_site_fract_y
_atom_site_fract_z
Si Si1 0.500000 0.500000 0.774591
Si Si2 0.266900 0.327386 0.326294
Si Si3 0.709732 0.425699 0.679821
Si Si4 0.826961 0.255528 0.322291
Si Si5 0.557041 0.595884 0.682581
Si Si6 0.391267 0.820955 0.817247
Si Si7 0.829151 0.075842 0.828779
Si Si8 0.744376 0.017237 0.677553
O O1 0.520642 0.557755 0.764405
O O2 0.258865 0.309702 0.500000
O O3 0.285428 0.285413 0.214644
O O4 0.219530 0.356028 0.263052
O O5 0.310307 0.368031 0.332810
O O6 0.705722 0.417781 0.500000
O O7 0.731874 0.376345 0.752759
O O8 0.653812 0.441627 0.730097
O O9 0.747558 0.469216 0.721541
O O10 0.806064 0.306064 0.250000
O O11 0.833374 0.262428 0.500000
O O12 0.545162 0.593319 0.500000
O O13 0.613104 0.576743 0.701308
O O14 0.373058 0.873058 0.750000
O O15 0.446538 0.801287 0.783874
O O16 0.384892 0.819748 0.000000
O O17 0.794159 0.048724 0.709823
O O18 0.820629 0.054681 0.000000
O O19 0.741358 0.004134 0.500000
#
# Coordination Sequence:
#
# PCOD9564563 Si02
#       8
#     4  16  16  16  16  16  16  16
#     4  12  21  28  48  80 109 138 185 252 305 338
#     4  10  18  32  52  75 106 140 178 221 273 332
#     4  11  22  39  58  77 105 144 185 227 276 337
#     4  12  24  38  57  81 109 139 175 222 276 338
#     4  10  19  32  50  74 101 132 180 236 289 335
#     4  10  20  33  50  75 107 139 176 218 265 318
#     4   9  17  32  52  73  99 137 182 228 275 331
#     4  10  21  35  51  76 105 136 175 219 268 324
#
# _framework density 18.038049000000001
#
# number of rings (size 3 to 8) (size 9 to 14) (size 15 to 20)
#    0.000    1.655    1.379    4.759    0.000    4.414 
#    0.000    0.000    0.000    0.000    0.000    4.345 
#    0.000    0.552    0.000    5.793    0.000    3.172 
#
# Total GULP energy -646466.984537 kJ/mol
# GULP energy per Si atom -5572.991246 kJ/mol
# Density = 1.799699 g / cm^3
# Si number density = 18.038049 Si / 1000 Ang^3
#
#
#
# Elastic Constant Matrix: (Units=GPa)
#
#
# Indices 1 2 3 4 5 6 
#
# 1 63.0205 47.9656 27.0013 0.0000 0.0000 0.0000
# 2 47.9656 63.0205 27.0013 0.0000 0.0000 0.0000
# 3 27.0013 27.0013 60.1413 0.0000 0.0000 0.0000
# 4 0.0000 0.0000 0.0000 8.8989 0.0000 0.0000
# 5 0.0000 0.0000 0.0000 0.0000 8.8989 0.0000
# 6 0.0000 0.0000 0.0000 0.0000 0.0000 19.9162
#
#
#
# Elastic Compliance Matrix: (Units=1/GPa)
#
#
# Indices 1 2 3 4 5 6 
#
# 1 0.038976 -0.027447 -0.005176 0.000000 0.000000 0.000000
# 2 -0.027447 0.038976 -0.005176 0.000000 0.000000 0.000000
# 3 -0.005176 -0.005176 0.021275 0.000000 0.000000 0.000000
# 4 0.000000 0.000000 0.000000 0.112373 0.000000 0.000000
# 5 0.000000 0.000000 0.000000 0.000000 0.112373 0.000000
# 6 0.000000 0.000000 0.000000 0.000000 0.000000 0.050210
#
#
# Mechanical properties :
#
#
# Convention : Reuss Voigt Hill
#
# Bulk Modulus (GPa) = 42.32158 43.34651 42.83404
# Shear Modulus (GPa) = 10.92517 13.15708 12.04112
#
# Velocity S-wave (km/s) = 2.46371 2.70368 2.58648
# Velocity P-wave (km/s) = 5.62197 5.81630 5.71996
#
# Compressibility (1/GPa) = 0.02362861
#
# Stress axis : x y z
#
# Youngs Moduli (GPa) = 25.65682 25.65682 47.00323
#
# Poissons Ratio (x) = 0.70421 0.24329
# Poissons Ratio (y) = 0.70421 0.24329
# Poissons Ratio (z) = 0.13280 0.13280
#
# Static dielectric constant tensor:
#      x y z
#    x 1.647590 0.000000 0.000000 
#    y 0.000000 1.647590 0.000000 
#    z 0.000000 0.000000 1.622580 
# 
# From -- ./inp_files/1767.got.cif
#   From: 2010.05.17/outbox.cif.g08.bks.cpg/sg128_1_cif.got.tgz:1767.got - 2010.05.20 12:07:25.
