data_PCOD9564526
_publ_section_title
;
Structure prediction by ZEFSAII (Michael W. Deem and Ramdas Pophale) SiO2 
 PCOD9564526
Probable space group: P 4/M N C
;
_chemical_formula_sum "Si O2"
_cell_formula_units_Z 96
_cell_length_a 21.434249
_cell_length_b 21.434249
_cell_length_c 9.163553
_cell_angle_alpha 90.000000
_cell_angle_beta 90.000000
_cell_angle_gamma 90.000000
_cell_volume 4209.983941
_symmetry_space_group_name_H-M "P 4/M N C"
_symmetry_group_IT_number 128
_symmetry_cell_setting 'tetragonal'
loop_
_space_group_symop_operation_xyz
x,y,z
-y,x,z
-x,-y,z
y,-x,z
1/2+x,1/2-y,1/2-z
1/2-x,1/2+y,1/2-z
1/2+y,1/2+x,1/2-z
1/2-y,1/2-x,1/2-z
-x,-y,-z
y,-x,-z
x,y,-z
-y,x,-z
1/2-x,1/2+y,1/2+z
1/2+x,1/2-y,1/2+z
1/2-y,1/2-x,1/2+z
1/2+y,1/2+x,1/2+z
loop_
_atom_site_type_symbol
_atom_site_label
_atom_site_fract_x
_atom_site_fract_y
_atom_site_fract_z
Si Si1 0.804130 0.151010 0.168011
Si Si2 0.232734 0.648145 0.171533
Si Si3 0.940603 0.189391 0.838260
Si Si4 0.405695 0.808488 0.175100
Si Si5 0.395602 0.489101 0.843156
Si Si6 0.091594 0.505187 0.824893
O O1 0.805672 0.213161 0.267728
O O2 0.879501 0.143191 0.159215
O O3 0.758243 0.103722 0.248324
O O4 0.783762 0.161240 0.000000
O O5 0.170644 0.670644 0.250000
O O6 0.258235 0.581618 0.225510
O O7 0.226918 0.651265 0.000000
O O8 0.000386 0.151616 0.787312
O O9 0.947262 0.215207 0.000000
O O10 0.353726 0.853726 0.250000
O O11 0.473013 0.841185 0.199528
O O12 0.395700 0.805085 0.000000
O O13 0.447112 0.435893 0.841723
O O14 0.362037 0.485003 0.000000
O O15 0.069638 0.569638 0.750000
O O16 0.045301 0.454700 0.750000
O O17 0.082127 0.508954 0.000000
#
# Coordination Sequence:
#
# PCOD9564526 Si02
#       6
#    16  16  16  16  16  16
#     4   9  18  28  38  56  83 113 147 184 222 270
#     4  10  17  27  42  60  88 125 159 193 233 278
#     4   9  19  31  44  67  95 125 161 196 234 278
#     4  10  18  25  35  51  72 103 142 180 221 273
#     4   9  18  33  53  76 101 131 166 201 242 292
#     4   9  16  24  33  45  62  89 126 168 215 262
#
# _framework density 22.802935000000002
#
# number of rings (size 3 to 8) (size 9 to 14) (size 15 to 20)
#    1.000    1.667    0.000    4.500    0.000    2.667 
#    0.000    0.833    0.000    0.000    0.000    0.000 
#    0.000    1.333    0.000   12.000    0.000    9.167 
#
# Total GULP energy -534760.870938 kJ/mol
# GULP energy per Si atom -5570.425739 kJ/mol
# Density = 2.275103 g / cm^3
# Si number density = 22.802935 Si / 1000 Ang^3
#
#
#
# Elastic Constant Matrix: (Units=GPa)
#
#
# Indices 1 2 3 4 5 6 
#
# 1 45.6961 53.2262 35.6484 0.0000 0.0000 0.0000
# 2 53.2262 45.6960 35.6486 0.0000 0.0000 0.0000
# 3 35.6484 35.6486 170.6859 0.0000 0.0000 0.0000
# 4 0.0000 0.0000 0.0000 24.8024 0.0000 0.0000
# 5 0.0000 0.0000 0.0000 0.0000 24.8012 0.0000
# 6 0.0000 0.0000 0.0000 0.0000 0.0000 53.5364
#
#
#
# Elastic Compliance Matrix: (Units=1/GPa)
#
#
# Indices 1 2 3 4 5 6 
#
# 1 -0.060449 0.072349 -0.002486 0.000000 0.000000 0.000000
# 2 0.072349 -0.060449 -0.002485 0.000000 0.000000 0.000000
# 3 -0.002486 -0.002485 0.006897 0.000000 0.000000 0.000000
# 4 0.000000 0.000000 0.000000 0.040319 0.000000 0.000000
# 5 0.000000 0.000000 0.000000 0.000000 0.040321 0.000000
# 6 0.000000 0.000000 0.000000 0.000000 0.000000 0.018679
#
#
# Mechanical properties :
#
#
# Convention : Reuss Voigt Hill
#
# Bulk Modulus (GPa) = 48.17938 56.79160 52.48549
# Shear Modulus (GPa) = -35.08239 29.79831 -2.64204
#
# Velocity S-wave (km/s) = -3.92663 3.61886 -1.07757
# Velocity P-wave (km/s) = 0.78521 6.51314 4.63883
#
# Compressibility (1/GPa) = 0.02075577
#
# Stress axis : x y z
#
# Youngs Moduli (GPa) = -16.54286 -16.54281 144.99279
#
# Poissons Ratio (x) = 1.19686 0.36038
# Poissons Ratio (y) = 1.19687 0.36035
# Poissons Ratio (z) = -0.04112 -0.04111
#
# Static dielectric constant tensor:
#      x y z
#    x 1.901350 0.000000 0.000000 
#    y 0.000000 1.901350 0.000000 
#    z 0.000000 0.000000 1.804770 
# 
# From -- ./inp_files/1598.got.cif
#   From: 2010.05.17/outbox.cif.g08.bks.cpg/sg128_1_cif.got.tgz:1598.got - 2010.05.20 12:07:25.
