data_PCOD9564879
_publ_section_title
;
Structure prediction by ZEFSAII (Michael W. Deem and Ramdas Pophale) SiO2 
 PCOD9564879
Probable space group: P 4/M N C
;
_chemical_formula_sum "Si O2"
_cell_formula_units_Z 112
_cell_length_a 14.376401
_cell_length_b 14.376401
_cell_length_c 27.931162
_cell_angle_alpha 90.000000
_cell_angle_beta 90.000000
_cell_angle_gamma 90.000000
_cell_volume 5772.837860
_symmetry_space_group_name_H-M "P 4/M N C"
_symmetry_group_IT_number 128
_symmetry_cell_setting 'tetragonal'
loop_
_space_group_symop_operation_xyz
x,y,z
-y,x,z
-x,-y,z
y,-x,z
1/2+x,1/2-y,1/2-z
1/2-x,1/2+y,1/2-z
1/2+y,1/2+x,1/2-z
1/2-y,1/2-x,1/2-z
-x,-y,-z
y,-x,-z
x,y,-z
-y,x,-z
1/2-x,1/2+y,1/2+z
1/2+x,1/2-y,1/2+z
1/2-y,1/2-x,1/2+z
1/2+y,1/2+x,1/2+z
loop_
_atom_site_type_symbol
_atom_site_label
_atom_site_fract_x
_atom_site_fract_y
_atom_site_fract_z
Si Si1 0.378275 0.836736 0.369683
Si Si2 0.487184 0.888453 0.054755
Si Si3 0.162032 0.459066 0.786140
Si Si4 0.149484 0.022527 0.239646
Si Si5 0.867827 0.196307 0.146730
Si Si6 0.052500 0.852092 0.948931
Si Si7 0.390201 0.094141 0.146120
O O1 0.363950 0.886329 0.421516
O O2 0.314980 0.890471 0.330706
O O3 0.359390 0.727515 0.361753
O O4 0.486241 0.860988 0.358915
O O5 0.562076 0.867348 0.097169
O O6 0.500000 0.000000 0.051404
O O7 0.498068 0.852517 0.000000
O O8 0.104793 0.395208 0.750000
O O9 0.248444 0.510327 0.761075
O O10 0.100858 0.537110 0.811330
O O11 0.157343 0.055382 0.183742
O O12 0.075049 0.101175 0.253844
O O13 0.917721 0.206523 0.095671
O O14 0.846180 0.301141 0.161336
O O15 0.946699 0.887030 0.946810
O O16 0.067660 0.805130 0.000000
#
# Coordination Sequence:
#
# PCOD9564879 Si02
#       7
#    16  16  16  16  16  16  16
#     4  10  22  37  57  88 117 151 202 249 304 357
#     4   8  16  35  59  81 112 151 193 242 296 355
#     4  11  23  41  63  81 112 151 200 253 298 358
#     4  11  25  41  59  85 117 157 197 242 308 373
#     4  12  22  35  56  86 120 154 196 253 300 361
#     4   9  18  32  50  73 109 157 196 227 277 349
#     4  10  22  36  57  86 114 154 201 245 308 363
#
# _framework density 19.401202999999999
#
# number of rings (size 3 to 8) (size 9 to 14) (size 15 to 20)
#    0.000    1.857    0.000    6.000    2.000    6.286 
#    0.000    2.857    0.000    0.000    0.000    0.000 
#    0.000    0.000    0.000   11.714    0.000    0.000 
#
# Total GULP energy -623828.571316 kJ/mol
# GULP energy per Si atom -5569.897958 kJ/mol
# Density = 1.935704 g / cm^3
# Si number density = 19.401203 Si / 1000 Ang^3
#
#
#
# Elastic Constant Matrix: (Units=GPa)
#
#
# Indices 1 2 3 4 5 6 
#
# 1 57.1785 62.3571 33.6173 0.0000 0.0000 0.0000
# 2 62.3571 57.1754 33.6172 0.0000 0.0000 0.0000
# 3 33.6173 33.6172 98.9622 0.0000 0.0000 0.0000
# 4 0.0000 0.0000 0.0000 19.0679 0.0000 0.0000
# 5 0.0000 0.0000 0.0000 0.0000 19.0680 0.0000
# 6 0.0000 0.0000 0.0000 0.0000 0.0000 19.9665
#
#
#
# Elastic Compliance Matrix: (Units=1/GPa)
#
#
# Indices 1 2 3 4 5 6 
#
# 1 -0.091349 0.101694 -0.003514 0.000000 0.000000 0.000000
# 2 0.101694 -0.091355 -0.003512 0.000000 0.000000 0.000000
# 3 -0.003514 -0.003512 0.012492 0.000000 0.000000 0.000000
# 4 0.000000 0.000000 0.000000 0.052444 0.000000 0.000000
# 5 0.000000 0.000000 0.000000 0.000000 0.052444 0.000000
# 6 0.000000 0.000000 0.000000 0.000000 0.000000 0.050084
#
#
# Mechanical properties :
#
#
# Convention : Reuss Voigt Hill
#
# Bulk Modulus (GPa) = 52.29327 52.49994 52.39660
# Shear Modulus (GPa) = -25.22668 17.20211 -4.01228
#
# Velocity S-wave (km/s) = -3.60983 2.98090 -1.43964
# Velocity P-wave (km/s) = 3.10446 6.24232 4.92972
#
# Compressibility (1/GPa) = 0.01912292
#
# Stress axis : x y z
#
# Youngs Moduli (GPa) = -10.94698 -10.94626 80.05346
#
# Poissons Ratio (x) = 1.11317 0.28131
# Poissons Ratio (y) = 1.11325 0.28116
# Poissons Ratio (z) = -0.03847 -0.03844
#
# Static dielectric constant tensor:
#      x y z
#    x 1.727760 0.000000 0.000000 
#    y 0.000000 1.727760 0.000000 
#    z 0.000000 0.000000 1.734580 
# 
# From -- ./inp_files/6919.got.cif
#   From: 2010.05.17/outbox.cif.g08.bks.cpg/sg128_4_cif.got.tgz:6919.got - 2010.05.20 12:07:25.
