data_PCOD9564873
_publ_section_title
;
Structure prediction by ZEFSAII (Michael W. Deem and Ramdas Pophale) SiO2 
 PCOD9564873
Probable space group: P 4/M N C
;
_chemical_formula_sum "Si O2"
_cell_formula_units_Z 80
_cell_length_a 16.000938
_cell_length_b 16.000938
_cell_length_c 14.565773
_cell_angle_alpha 90.000000
_cell_angle_beta 90.000000
_cell_angle_gamma 90.000000
_cell_volume 3729.275107
_symmetry_space_group_name_H-M "P 4/M N C"
_symmetry_group_IT_number 128
_symmetry_cell_setting 'tetragonal'
loop_
_space_group_symop_operation_xyz
x,y,z
-y,x,z
-x,-y,z
y,-x,z
1/2+x,1/2-y,1/2-z
1/2-x,1/2+y,1/2-z
1/2+y,1/2+x,1/2-z
1/2-y,1/2-x,1/2-z
-x,-y,-z
y,-x,-z
x,y,-z
-y,x,-z
1/2-x,1/2+y,1/2+z
1/2+x,1/2-y,1/2+z
1/2-y,1/2-x,1/2+z
1/2+y,1/2+x,1/2+z
loop_
_atom_site_type_symbol
_atom_site_label
_atom_site_fract_x
_atom_site_fract_y
_atom_site_fract_z
Si Si1 0.104100 0.908534 0.143344
Si Si2 0.809351 0.800668 0.000000
Si Si3 0.751639 0.930178 0.500000
Si Si4 0.579018 0.614379 0.856190
Si Si5 0.425396 0.156944 0.500000
Si Si6 0.807179 0.610046 0.000000
Si Si7 0.451390 0.914605 0.357348
O O1 0.105058 0.881608 0.249855
O O2 0.007195 0.887813 0.121651
O O3 0.177077 0.864038 0.088609
O O4 0.705939 0.221305 0.000000
O O5 0.740631 0.872634 0.000000
O O6 0.804219 0.895521 0.586800
O O7 0.652987 0.908379 0.500000
O O8 0.753455 0.031309 0.500000
O O9 0.479634 0.609172 0.875961
O O10 0.483475 0.149175 0.408334
O O11 0.866241 0.597932 0.088203
O O12 0.425817 0.925817 0.250000
O O13 0.500000 0.000000 0.380315
#
# Coordination Sequence:
#
# PCOD9564873 Si02
#       7
#    16   8   8  16   8   8  16
#     4   9  20  41  65  95 128 176 228 263 324 414
#     4  12  26  39  62 100 145 176 206 286 360 396
#     4  12  22  40  64  94 138 172 214 290 340 390
#     4   9  20  39  66  93 124 174 228 260 313 408
#     4  11  25  43  65 101 135 163 236 294 330 411
#     4  11  25  43  61 103 141 173 222 276 350 417
#     4  10  21  47  76  93 117 182 246 284 327 399
#
# _framework density 21.451889999999999
#
# number of rings (size 3 to 8) (size 9 to 14) (size 15 to 20)
#    0.000    1.800    2.000    3.000    8.400    3.200 
#    3.600    0.000    0.000    0.000    0.000    0.000 
#    0.000    0.000    0.000    0.000    0.000    0.000 
#
# Total GULP energy -445447.166765 kJ/mol
# GULP energy per Si atom -5568.089585 kJ/mol
# Density = 2.140306 g / cm^3
# Si number density = 21.451890 Si / 1000 Ang^3
#
#
#
# Elastic Constant Matrix: (Units=GPa)
#
#
# Indices 1 2 3 4 5 6 
#
# 1 78.7186 14.4909 57.4165 0.0000 0.0000 0.0000
# 2 14.4909 78.7186 57.4165 0.0000 0.0000 0.0000
# 3 57.4165 57.4165 105.9940 0.0000 0.0000 0.0000
# 4 0.0000 0.0000 0.0000 39.7664 0.0000 0.0000
# 5 0.0000 0.0000 0.0000 0.0000 39.7664 0.0000
# 6 0.0000 0.0000 0.0000 0.0000 0.0000 17.4323
#
#
#
# Elastic Compliance Matrix: (Units=1/GPa)
#
#
# Indices 1 2 3 4 5 6 
#
# 1 0.023911 0.008342 -0.017471 0.000000 0.000000 0.000000
# 2 0.008342 0.023911 -0.017471 0.000000 0.000000 0.000000
# 3 -0.017471 -0.017471 0.028363 0.000000 0.000000 0.000000
# 4 0.000000 0.000000 0.000000 0.025147 0.000000 0.000000
# 5 0.000000 0.000000 0.000000 0.000000 0.025147 0.000000
# 6 0.000000 0.000000 0.000000 0.000000 0.000000 0.057365
#
#
# Mechanical properties :
#
#
# Convention : Reuss Voigt Hill
#
# Bulk Modulus (GPa) = 43.50951 58.00880 50.75915
# Shear Modulus (GPa) = 20.43261 28.33352 24.38307
#
# Velocity S-wave (km/s) = 3.08958 3.63822 3.37507
# Velocity P-wave (km/s) = 5.74924 6.68946 6.23709
#
# Compressibility (1/GPa) = 0.02298348
#
# Stress axis : x y z
#
# Youngs Moduli (GPa) = 41.82125 41.82125 35.25746
#
# Poissons Ratio (x) = -0.34886 0.61599
# Poissons Ratio (y) = -0.34886 0.61599
# Poissons Ratio (z) = 0.73067 0.73067
#
# Static dielectric constant tensor:
#      x y z
#    x 1.809200 0.000000 0.000000 
#    y 0.000000 1.809200 0.000000 
#    z 0.000000 0.000000 1.500060 
# 
# From -- ./inp_files/3802.got.cif
#   From: 2010.05.17/outbox.cif.g08.bks.cpg/sg128_2_cif.got.tgz:3802.got - 2010.05.20 12:07:25.
