data_PCOD9564699
_publ_section_title
;
Structure prediction by ZEFSAII (Michael W. Deem and Ramdas Pophale) SiO2 
 PCOD9564699
Probable space group: P 4/M N C
;
_chemical_formula_sum "Si O2"
_cell_formula_units_Z 128
_cell_length_a 18.229957
_cell_length_b 18.229957
_cell_length_c 21.309198
_cell_angle_alpha 90.000000
_cell_angle_beta 90.000000
_cell_angle_gamma 90.000000
_cell_volume 7081.714160
_symmetry_space_group_name_H-M "P 4/M N C"
_symmetry_group_IT_number 128
_symmetry_cell_setting 'tetragonal'
loop_
_space_group_symop_operation_xyz
x,y,z
-y,x,z
-x,-y,z
y,-x,z
1/2+x,1/2-y,1/2-z
1/2-x,1/2+y,1/2-z
1/2+y,1/2+x,1/2-z
1/2-y,1/2-x,1/2-z
-x,-y,-z
y,-x,-z
x,y,-z
-y,x,-z
1/2-x,1/2+y,1/2+z
1/2+x,1/2-y,1/2+z
1/2-y,1/2-x,1/2+z
1/2+y,1/2+x,1/2+z
loop_
_atom_site_type_symbol
_atom_site_label
_atom_site_fract_x
_atom_site_fract_y
_atom_site_fract_z
Si Si1 0.387180 0.805344 0.134056
Si Si2 0.191890 0.236885 0.187834
Si Si3 0.895890 0.324406 0.430593
Si Si4 0.036804 0.429206 0.570973
Si Si5 0.193080 0.999568 0.427395
Si Si6 0.734851 0.034944 0.762389
Si Si7 0.617577 0.493626 0.198387
Si Si8 0.382407 0.192124 0.688796
O O1 0.300914 0.788628 0.138127
O O2 0.399929 0.885930 0.106024
O O3 0.431063 0.744715 0.093714
O O4 0.426766 0.805701 0.202749
O O5 0.229486 0.270515 0.250000
O O6 0.104347 0.238735 0.196856
O O7 0.228719 0.157617 0.181078
O O8 0.860932 0.328993 0.500000
O O9 0.970442 0.371659 0.433224
O O10 0.926729 0.242471 0.420237
O O11 0.850357 0.356435 0.373349
O O12 0.060373 0.449256 0.500000
O O13 0.000000 0.500000 0.601913
O O14 0.172312 0.992129 0.500000
O O15 0.129784 0.004833 0.376371
O O16 0.804057 0.994553 0.730681
O O17 0.694926 0.969910 0.799899
O O18 0.574627 0.567472 0.216069
O O19 0.347733 0.152268 0.750000
#
# Coordination Sequence:
#
# PCOD9564699 Si02
#       8
#    16  16  16  16  16  16  16  16
#     4   9  17  32  49  69 102 131 167 207 251 301
#     4   9  20  34  49  73 103 132 166 223 270 309
#     4   9  19  34  50  74 106 137 171 212 252 304
#     4   9  17  29  48  71  99 137 167 194 240 298
#     4   9  18  33  51  72 105 141 172 203 245 305
#     4  10  20  34  51  71  99 132 169 213 268 311
#     4  10  20  33  50  73 100 130 168 213 261 313
#     4  11  20  33  56  78 100 135 182 220 264 317
#
# _framework density 18.074719000000002
#
# number of rings (size 3 to 8) (size 9 to 14) (size 15 to 20)
#    0.000    2.500    0.000    4.125    1.750    4.500 
#    0.000    3.125    0.000    0.750    0.000    0.000 
#    0.000    0.000    0.000    3.875    0.000    0.000 
#
# Total GULP energy -713026.826684 kJ/mol
# GULP energy per Si atom -5570.522083 kJ/mol
# Density = 1.803358 g / cm^3
# Si number density = 18.074719 Si / 1000 Ang^3
#
#
#
# Elastic Constant Matrix: (Units=GPa)
#
#
# Indices 1 2 3 4 5 6 
#
# 1 50.3522 -13.9853 8.8408 0.0000 0.0000 0.0000
# 2 -13.9853 50.3522 8.8408 0.0000 0.0000 0.0000
# 3 8.8408 8.8408 65.9940 0.0000 0.0000 0.0000
# 4 0.0000 0.0000 0.0000 8.6885 0.0000 0.0000
# 5 0.0000 0.0000 0.0000 0.0000 8.6885 0.0000
# 6 0.0000 0.0000 0.0000 0.0000 0.0000 6.4896
#
#
#
# Elastic Compliance Matrix: (Units=1/GPa)
#
#
# Indices 1 2 3 4 5 6 
#
# 1 0.022478 0.006935 -0.003940 0.000000 0.000000 0.000000
# 2 0.006935 0.022478 -0.003940 0.000000 0.000000 0.000000
# 3 -0.003940 -0.003940 0.016209 0.000000 0.000000 0.000000
# 4 0.000000 0.000000 0.000000 0.115095 0.000000 0.000000
# 5 0.000000 0.000000 0.000000 0.000000 0.115095 0.000000
# 6 0.000000 0.000000 0.000000 0.000000 0.000000 0.154094
#
#
# Mechanical properties :
#
#
# Convention : Reuss Voigt Hill
#
# Bulk Modulus (GPa) = 16.87082 19.34345 18.10714
# Shear Modulus (GPa) = 10.70440 15.64011 13.17225
#
# Velocity S-wave (km/s) = 2.43622 2.94479 2.70250
# Velocity P-wave (km/s) = 4.15545 4.72097 4.44721
#
# Compressibility (1/GPa) = 0.05927395
#
# Stress axis : x y z
#
# Youngs Moduli (GPa) = 44.48760 44.48760 61.69555
#
# Poissons Ratio (x) = -0.30853 0.24310
# Poissons Ratio (y) = -0.30853 0.24310
# Poissons Ratio (z) = 0.17530 0.17530
#
# Static dielectric constant tensor:
#      x y z
#    x 1.645640 0.000000 0.000000 
#    y 0.000000 1.645650 0.000000 
#    z 0.000000 0.000000 1.645930 
# 
# From -- ./inp_files/6629.got.cif
#   From: 2010.05.17/outbox.cif.g08.bks.cpg/sg128_4_cif.got.tgz:6629.got - 2010.05.20 12:07:25.
