data_PCOD9564354
_publ_section_title
;
Structure prediction by ZEFSAII (Michael W. Deem and Ramdas Pophale) SiO2 
 PCOD9564354
Probable space group: P 4/M B M
;
_chemical_formula_sum "Si O2"
_cell_formula_units_Z 88
_cell_length_a 14.955408
_cell_length_b 14.955408
_cell_length_c 21.732386
_cell_angle_alpha 90.000000
_cell_angle_beta 90.000000
_cell_angle_gamma 90.000000
_cell_volume 4860.757347
_symmetry_space_group_name_H-M "P 4/M B M"
_symmetry_group_IT_number 127
_symmetry_cell_setting 'tetragonal'
loop_
_space_group_symop_operation_xyz
x,y,z
-y,x,z
-x,-y,z
y,-x,z
1/2+x,1/2-y,-z
1/2-x,1/2+y,-z
1/2+y,1/2+x,-z
1/2-y,1/2-x,-z
-x,-y,-z
y,-x,-z
x,y,-z
-y,x,-z
1/2-x,1/2+y,z
1/2+x,1/2-y,z
1/2-y,1/2-x,z
1/2+y,1/2+x,z
loop_
_atom_site_type_symbol
_atom_site_label
_atom_site_fract_x
_atom_site_fract_y
_atom_site_fract_z
Si Si1 0.903560 0.258424 0.822431
Si Si2 0.602442 0.609916 0.265309
Si Si3 0.503160 0.854834 0.292282
Si Si4 0.619451 0.269827 0.625709
Si Si5 0.561700 0.362141 0.500000
Si Si6 0.850882 0.979868 0.070671
O O1 0.827295 0.327295 0.842247
O O2 0.860604 0.171414 0.789092
O O3 0.960898 0.305915 0.768566
O O4 0.962326 0.224079 0.878934
O O5 0.495563 0.619492 0.260962
O O6 0.647287 0.640570 0.328821
O O7 0.586053 0.913948 0.317401
O O8 0.459024 0.787083 0.340741
O O9 0.424991 0.924991 0.275863
O O10 0.704148 0.204148 0.619998
O O11 0.587727 0.307498 0.560749
O O12 0.613690 0.456768 0.500000
O O13 0.926947 0.903464 0.078785
O O14 0.819199 0.975655 0.000000
#
# Coordination Sequence:
#
# PCOD9564354 Si02
#       6
#    16  16  16  16   8  16
#     4  11  21  34  56  87 115 146 195 242 284 335
#     4  11  21  35  54  81 116 151 185 227 286 342
#     4   9  20  39  60  83 116 153 189 237 291 339
#     4  11  22  40  62  86 113 146 194 242 283 335
#     4  11  25  44  60  81 117 157 188 223 290 355
#     4   9  19  37  57  78 111 154 193 232 286 347
#
# _framework density 18.104174
#
# number of rings (size 3 to 8) (size 9 to 14) (size 15 to 20)
#    0.000    1.727    1.818    3.545    0.000    3.273 
#    0.000    1.364    0.000    3.818    0.000    2.545 
#    0.000    0.000    0.000    0.000    0.000    0.000 
#
# Total GULP energy -491181.950067 kJ/mol
# GULP energy per Si atom -5581.613069 kJ/mol
# Density = 1.806297 g / cm^3
# Si number density = 18.104174 Si / 1000 Ang^3
#
#
#
# Elastic Constant Matrix: (Units=GPa)
#
#
# Indices 1 2 3 4 5 6 
#
# 1 51.4698 -1.5213 -2.3974 0.0000 0.0000 0.0000
# 2 -1.5213 51.4698 -2.3974 0.0000 0.0000 0.0000
# 3 -2.3974 -2.3974 60.0289 0.0000 0.0000 0.0000
# 4 0.0000 0.0000 0.0000 12.8222 0.0000 0.0000
# 5 0.0000 0.0000 0.0000 0.0000 12.8222 0.0000
# 6 0.0000 0.0000 0.0000 0.0000 0.0000 18.9419
#
#
#
# Elastic Compliance Matrix: (Units=1/GPa)
#
#
# Indices 1 2 3 4 5 6 
#
# 1 0.019484 0.000613 0.000803 0.000000 0.000000 0.000000
# 2 0.000613 0.019484 0.000803 0.000000 0.000000 0.000000
# 3 0.000803 0.000803 0.016723 0.000000 0.000000 0.000000
# 4 0.000000 0.000000 0.000000 0.077990 0.000000 0.000000
# 5 0.000000 0.000000 0.000000 0.000000 0.077990 0.000000
# 6 0.000000 0.000000 0.000000 0.000000 0.000000 0.052793
#
#
# Mechanical properties :
#
#
# Convention : Reuss Voigt Hill
#
# Bulk Modulus (GPa) = 16.63100 16.70404 16.66752
# Shear Modulus (GPa) = 17.85267 20.20289 19.02778
#
# Velocity S-wave (km/s) = 3.14364 3.34417 3.24545
# Velocity P-wave (km/s) = 4.73105 4.91507 4.82394
#
# Compressibility (1/GPa) = 0.06012866
#
# Stress axis : x y z
#
# Youngs Moduli (GPa) = 51.32315 51.32315 59.79881
#
# Poissons Ratio (x) = -0.03148 -0.04800
# Poissons Ratio (y) = -0.03148 -0.04800
# Poissons Ratio (z) = -0.04119 -0.04119
#
# Static dielectric constant tensor:
#      x y z
#    x 1.640060 0.000000 0.000000 
#    y 0.000000 1.640060 0.000000 
#    z 0.000000 0.000000 1.600140 
# 
# From -- ./inp_files/5703.got.cif
#   From: 2010.05.17/outbox.cif.g08.bks.cpg/sg127_3_cif.got.tgz:5703.got - 2010.05.20 12:03:00.
