data_PCOD9564069
_publ_section_title
;
Structure prediction by ZEFSAII (Michael W. Deem and Ramdas Pophale) SiO2 
 PCOD9564069
Probable space group: P 4/M B M
;
_chemical_formula_sum "Si O2"
_cell_formula_units_Z 96
_cell_length_a 25.402905
_cell_length_b 25.402905
_cell_length_c 7.273811
_cell_angle_alpha 90.000000
_cell_angle_beta 90.000000
_cell_angle_gamma 90.000000
_cell_volume 4693.845392
_symmetry_space_group_name_H-M "P 4/M B M"
_symmetry_group_IT_number 127
_symmetry_cell_setting 'tetragonal'
loop_
_space_group_symop_operation_xyz
x,y,z
-y,x,z
-x,-y,z
y,-x,z
1/2+x,1/2-y,-z
1/2-x,1/2+y,-z
1/2+y,1/2+x,-z
1/2-y,1/2-x,-z
-x,-y,-z
y,-x,-z
x,y,-z
-y,x,-z
1/2-x,1/2+y,z
1/2+x,1/2-y,z
1/2-y,1/2-x,z
1/2+y,1/2+x,z
loop_
_atom_site_type_symbol
_atom_site_label
_atom_site_fract_x
_atom_site_fract_y
_atom_site_fract_z
Si Si1 0.763449 0.820829 0.276278
Si Si2 0.538147 0.878765 0.000000
Si Si3 0.054926 0.935546 0.276348
Si Si4 0.956689 0.749279 0.719246
Si Si5 0.076079 0.337597 0.000000
Si Si6 0.930335 0.290984 0.280748
Si Si7 0.342361 0.380660 0.723592
O O1 0.763971 0.819860 0.500000
O O2 0.728499 0.771502 0.215469
O O3 0.735149 0.875453 0.224619
O O4 0.823831 0.822113 0.215231
O O5 0.558871 0.844804 0.826515
O O6 0.564475 0.935526 0.000000
O O7 0.475249 0.875222 0.000000
O O8 0.054332 0.934740 0.500000
O O9 0.098548 0.894142 0.216072
O O10 0.994564 0.928036 0.220259
O O11 0.950780 0.743299 0.500000
O O12 0.930113 0.700873 0.825513
O O13 0.927350 0.802608 0.774877
O O14 0.019049 0.746003 0.759757
O O15 0.128442 0.371559 0.000000
O O16 0.928780 0.299637 0.500000
O O17 0.343319 0.379533 0.500000
#
# Coordination Sequence:
#
# PCOD9564069 Si02
#       7
#    16   8  16  16   8  16  16
#     4   9  17  28  43  67 100 137 174 216 268 316
#     4  10  20  35  57  83 107 132 170 217 265 322
#     4   8  14  23  37  64 103 141 177 221 268 312
#     4   9  19  35  55  79 104 138 182 219 259 311
#     4  10  22  39  57  79 107 137 171 214 264 321
#     4   9  18  33  54  77 105 141 178 218 262 312
#     4   9  17  27  45  73 104 139 180 223 265 315
#
# _framework density 20.452313
#
# number of rings (size 3 to 8) (size 9 to 14) (size 15 to 20)
#    0.000    3.000    0.000    1.000    2.333    2.167 
#    0.000    2.500    0.000    1.000    0.000    4.667 
#    0.000    1.333    0.000    0.167    0.000    0.000 
#
# Total GULP energy -535918.666444 kJ/mol
# GULP energy per Si atom -5582.486109 kJ/mol
# Density = 2.040576 g / cm^3
# Si number density = 20.452313 Si / 1000 Ang^3
#
#
#
# Elastic Constant Matrix: (Units=GPa)
#
#
# Indices 1 2 3 4 5 6 
#
# 1 76.4367 56.1552 3.3996 0.0000 0.0000 0.0000
# 2 56.1552 76.4378 3.3998 0.0000 0.0000 0.0000
# 3 3.3996 3.3998 77.6665 0.0000 0.0000 0.0000
# 4 0.0000 0.0000 0.0000 34.8976 0.0000 0.0000
# 5 0.0000 0.0000 0.0000 0.0000 34.6922 0.0000
# 6 0.0000 0.0000 0.0000 0.0000 0.0000 30.0962
#
#
#
# Elastic Compliance Matrix: (Units=1/GPa)
#
#
# Indices 1 2 3 4 5 6 
#
# 1 0.028432 -0.020873 -0.000331 0.000000 0.000000 0.000000
# 2 -0.020873 0.028432 -0.000331 0.000000 0.000000 0.000000
# 3 -0.000331 -0.000331 0.012905 0.000000 0.000000 0.000000
# 4 0.000000 0.000000 0.000000 0.028655 0.000000 0.000000
# 5 0.000000 0.000000 0.000000 0.000000 0.028825 0.000000
# 6 0.000000 0.000000 0.000000 0.000000 0.000000 0.033227
#
#
# Mechanical properties :
#
#
# Convention : Reuss Voigt Hill
#
# Bulk Modulus (GPa) = 37.45489 39.60558 38.53023
# Shear Modulus (GPa) = 23.53561 31.10962 27.32261
#
# Velocity S-wave (km/s) = 3.39596 3.90433 3.65899
# Velocity P-wave (km/s) = 5.80773 6.30333 6.06060
#
# Compressibility (1/GPa) = 0.02669878
#
# Stress axis : x y z
#
# Youngs Moduli (GPa) = 35.17163 35.17215 77.49215
#
# Poissons Ratio (x) = 0.73415 0.02564
# Poissons Ratio (y) = 0.73413 0.02564
# Poissons Ratio (z) = 0.01164 0.01164
#
# Static dielectric constant tensor:
#      x y z
#    x 1.697130 0.000000 0.000000 
#    y 0.000000 1.697130 0.000000 
#    z 0.000000 0.000000 1.754430 
# 
# From -- ./inp_files/2115.got.cif
#   From: 2010.05.17/outbox.cif.g08.bks.cpg/sg127_2_cif.got.tgz:2115.got - 2010.05.20 12:03:00.
