data_PCOD9564602
_publ_section_title
;
Structure prediction by ZEFSAII (Michael W. Deem and Ramdas Pophale) SiO2 
 PCOD9564602
Probable space group: P 4/M N C
;
_chemical_formula_sum "Si O2"
_cell_formula_units_Z 112
_cell_length_a 14.213143
_cell_length_b 14.213143
_cell_length_c 36.428583
_cell_angle_alpha 90.000000
_cell_angle_beta 90.000000
_cell_angle_gamma 90.000000
_cell_volume 7359.063145
_symmetry_space_group_name_H-M "P 4/M N C"
_symmetry_group_IT_number 128
_symmetry_cell_setting 'tetragonal'
loop_
_space_group_symop_operation_xyz
x,y,z
-y,x,z
-x,-y,z
y,-x,z
1/2+x,1/2-y,1/2-z
1/2-x,1/2+y,1/2-z
1/2+y,1/2+x,1/2-z
1/2-y,1/2-x,1/2-z
-x,-y,-z
y,-x,-z
x,y,-z
-y,x,-z
1/2-x,1/2+y,1/2+z
1/2+x,1/2-y,1/2+z
1/2-y,1/2-x,1/2+z
1/2+y,1/2+x,1/2+z
loop_
_atom_site_type_symbol
_atom_site_label
_atom_site_fract_x
_atom_site_fract_y
_atom_site_fract_z
Si Si1 0.673205 0.665358 0.839046
Si Si2 0.477852 0.109063 0.173438
Si Si3 0.836387 0.654311 0.291273
Si Si4 0.011220 0.750469 0.382632
Si Si5 0.931705 0.323142 0.780428
Si Si6 0.362504 0.575429 0.238355
Si Si7 0.494660 0.658978 0.041326
O O1 0.773812 0.700104 0.822365
O O2 0.615644 0.720916 0.869847
O O3 0.689920 0.563989 0.858493
O O4 0.605748 0.660041 0.803318
O O5 0.550568 0.160307 0.201127
O O6 0.500595 0.146115 0.133168
O O7 0.369476 0.120423 0.184837
O O8 0.500000 0.000000 0.176787
O O9 0.814002 0.685999 0.250000
O O10 0.815193 0.542492 0.290799
O O11 0.994468 0.769362 0.425077
O O12 0.902881 0.402881 0.750000
O O13 0.897765 0.223854 0.764730
O O14 0.377279 0.463981 0.244355
O O15 0.407058 0.587061 0.044769
O O16 0.493272 0.698660 0.000000
#
# Coordination Sequence:
#
# PCOD9564602 Si02
#       7
#    16  16  16  16  16  16  16
#     4  11  21  30  44  64  89 120 147 183 234 267
#     4   9  20  32  46  63  84 116 152 194 233 255
#     4  10  19  32  45  61  83 114 156 198 228 261
#     4  11  19  31  47  67  92 117 143 184 223 269
#     4  11  20  33  49  62  82 116 159 203 231 265
#     4  11  23  34  42  60  90 120 153 193 240 277
#     4   9  17  29  47  70  95 121 142 164 203 262
#
# _framework density 15.219328000000001
#
# number of rings (size 3 to 8) (size 9 to 14) (size 15 to 20)
#    0.000    1.714    4.286    2.143    0.000    4.286 
#    0.000    0.000    0.000    0.429    0.000    0.000 
#    0.000    0.000    0.000    0.000    0.000    0.000 
#
# Total GULP energy -623576.408006 kJ/mol
# GULP energy per Si atom -5567.646500 kJ/mol
# Density = 1.518469 g / cm^3
# Si number density = 15.219328 Si / 1000 Ang^3
#
#
#
# Elastic Constant Matrix: (Units=GPa)
#
#
# Indices 1 2 3 4 5 6 
#
# 1 58.0060 11.0487 23.5739 0.0000 0.0000 0.0000
# 2 11.0487 58.0063 23.5740 0.0000 0.0000 0.0000
# 3 23.5739 23.5740 100.4315 0.0000 0.0000 0.0000
# 4 0.0000 0.0000 0.0000 20.7079 0.0000 0.0000
# 5 0.0000 0.0000 0.0000 0.0000 20.7079 0.0000
# 6 0.0000 0.0000 0.0000 0.0000 0.0000 13.8040
#
#
#
# Elastic Compliance Matrix: (Units=1/GPa)
#
#
# Indices 1 2 3 4 5 6 
#
# 1 0.019270 -0.002025 -0.004048 0.000000 0.000000 0.000000
# 2 -0.002025 0.019270 -0.004048 0.000000 0.000000 0.000000
# 3 -0.004048 -0.004048 0.011857 0.000000 0.000000 0.000000
# 4 0.000000 0.000000 0.000000 0.048291 0.000000 0.000000
# 5 0.000000 0.000000 0.000000 0.000000 0.048291 0.000000
# 6 0.000000 0.000000 0.000000 0.000000 0.000000 0.072443
#
#
# Mechanical properties :
#
#
# Convention : Reuss Voigt Hill
#
# Bulk Modulus (GPa) = 33.16111 36.98189 35.07150
# Shear Modulus (GPa) = 20.02268 21.59376 20.80822
#
# Velocity S-wave (km/s) = 3.63107 3.77083 3.70161
# Velocity P-wave (km/s) = 6.27819 6.58111 6.43143
#
# Compressibility (1/GPa) = 0.03015581
#
# Stress axis : x y z
#
# Youngs Moduli (GPa) = 51.89290 51.89315 84.33622
#
# Poissons Ratio (x) = 0.10511 0.34138
# Poissons Ratio (y) = 0.10511 0.34138
# Poissons Ratio (z) = 0.21005 0.21006
#
# Static dielectric constant tensor:
#      x y z
#    x 1.559960 0.000000 0.000000 
#    y 0.000000 1.559960 0.000000 
#    z 0.000000 0.000000 1.495270 
# 
# From -- ./inp_files/7394.got.cif
#   From: 2010.05.17/outbox.cif.g08.bks.cpg/sg128_4_cif.got.tgz:7394.got - 2010.05.20 12:07:25.
