data_PCOD9564298
_publ_section_title
;
Structure prediction by ZEFSAII (Michael W. Deem and Ramdas Pophale) SiO2 
 PCOD9564298
Probable space group: P 4/M B M
;
_chemical_formula_sum "Si O2"
_cell_formula_units_Z 88
_cell_length_a 14.490894
_cell_length_b 14.490894
_cell_length_c 22.465409
_cell_angle_alpha 90.000000
_cell_angle_beta 90.000000
_cell_angle_gamma 90.000000
_cell_volume 4717.421575
_symmetry_space_group_name_H-M "P 4/M B M"
_symmetry_group_IT_number 127
_symmetry_cell_setting 'tetragonal'
loop_
_space_group_symop_operation_xyz
x,y,z
-y,x,z
-x,-y,z
y,-x,z
1/2+x,1/2-y,-z
1/2-x,1/2+y,-z
1/2+y,1/2+x,-z
1/2-y,1/2-x,-z
-x,-y,-z
y,-x,-z
x,y,-z
-y,x,-z
1/2-x,1/2+y,z
1/2+x,1/2-y,z
1/2-y,1/2-x,z
1/2+y,1/2+x,z
loop_
_atom_site_type_symbol
_atom_site_label
_atom_site_fract_x
_atom_site_fract_y
_atom_site_fract_z
Si Si1 0.220405 0.133248 0.068836
Si Si2 0.076726 0.423275 0.068788
Si Si3 0.248332 0.596364 0.571378
Si Si4 0.262431 0.393303 0.627906
Si Si5 0.856019 0.061725 0.752453
Si Si6 0.231401 0.945447 0.121309
O O1 0.311378 0.188623 0.089737
O O2 0.135364 0.201801 0.076954
O O3 0.189192 0.043655 0.104618
O O4 0.235336 0.108319 0.000000
O O5 0.039963 0.337760 0.106616
O O6 0.000000 0.500000 0.065011
O O7 0.101024 0.398977 0.000000
O O8 0.254064 0.590968 0.500000
O O9 0.156982 0.656982 0.586763
O O10 0.247550 0.493417 0.598038
O O11 0.335011 0.656070 0.595573
O O12 0.171493 0.328508 0.625564
O O13 0.296683 0.411118 0.695065
O O14 0.798683 0.080770 0.812514
O O15 0.953090 0.116821 0.751430
#
# Coordination Sequence:
#
# PCOD9564298 Si02
#       6
#    16   8  16  16  16  16
#     4  11  23  39  60  87 120 157 200 256 323 390
#     4  11  24  44  66  90 126 169 216 268 327 399
#     4  10  22  41  66 101 138 171 217 270 324 387
#     4  11  23  41  67  96 130 176 222 267 323 386
#     4  11  23  43  64  88 124 167 211 263 318 382
#     4  12  23  40  62  91 121 158 209 262 318 383
#
# _framework density 18.654257999999999
#
# number of rings (size 3 to 8) (size 9 to 14) (size 15 to 20)
#    0.000    1.000    4.545    2.727    1.273    3.636 
#    0.000    4.545    0.000    0.000    0.000    0.000 
#    0.000    0.000    0.000    0.000    0.000    0.000 
#
# Total GULP energy -491217.752632 kJ/mol
# GULP energy per Si atom -5582.019916 kJ/mol
# Density = 1.861180 g / cm^3
# Si number density = 18.654258 Si / 1000 Ang^3
#
#
#
# Elastic Constant Matrix: (Units=GPa)
#
#
# Indices 1 2 3 4 5 6 
#
# 1 122.6618 34.8173 44.1509 0.0000 0.0000 0.0000
# 2 34.8173 122.6618 44.1510 0.0000 0.0000 0.0000
# 3 44.1509 44.1510 102.3953 0.0000 0.0000 0.0000
# 4 0.0000 0.0000 0.0000 26.3068 0.0000 0.0000
# 5 0.0000 0.0000 0.0000 0.0000 26.3069 0.0000
# 6 0.0000 0.0000 0.0000 0.0000 0.0000 23.6059
#
#
#
# Elastic Compliance Matrix: (Units=1/GPa)
#
#
# Indices 1 2 3 4 5 6 
#
# 1 0.009879 -0.001504 -0.003611 0.000000 0.000000 0.000000
# 2 -0.001504 0.009879 -0.003611 0.000000 0.000000 0.000000
# 3 -0.003611 -0.003611 0.012880 0.000000 0.000000 0.000000
# 4 0.000000 0.000000 0.000000 0.038013 0.000000 0.000000
# 5 0.000000 0.000000 0.000000 0.000000 0.038013 0.000000
# 6 0.000000 0.000000 0.000000 0.000000 0.000000 0.042362
#
#
# Mechanical properties :
#
#
# Convention : Reuss Voigt Hill
#
# Bulk Modulus (GPa) = 65.85220 65.99526 65.92373
# Shear Modulus (GPa) = 28.81147 30.21723 29.51435
#
# Velocity S-wave (km/s) = 3.93427 4.02911 3.98198
# Velocity P-wave (km/s) = 7.48439 7.55645 7.52051
#
# Compressibility (1/GPa) = 0.01518552
#
# Stress axis : x y z
#
# Youngs Moduli (GPa) = 101.22172 101.22169 77.63891
#
# Poissons Ratio (x) = 0.15228 0.28036
# Poissons Ratio (y) = 0.15228 0.28036
# Poissons Ratio (z) = 0.36552 0.36552
#
# Static dielectric constant tensor:
#      x y z
#    x 1.609720 0.000000 0.000000 
#    y 0.000000 1.609720 0.000000 
#    z 0.000000 0.000000 1.611590 
# 
# From -- ./inp_files/5674.got.cif
#   From: 2010.05.17/outbox.cif.g08.bks.cpg/sg127_3_cif.got.tgz:5674.got - 2010.05.20 12:03:00.
