data_PCOD9564345
_publ_section_title
;
Structure prediction by ZEFSAII (Michael W. Deem and Ramdas Pophale) SiO2 
 PCOD9564345
Probable space group: P 4/M B M
;
_chemical_formula_sum "Si O2"
_cell_formula_units_Z 88
_cell_length_a 16.945774
_cell_length_b 16.945774
_cell_length_c 21.450660
_cell_angle_alpha 90.000000
_cell_angle_beta 90.000000
_cell_angle_gamma 90.000000
_cell_volume 6159.755576
_symmetry_space_group_name_H-M "P 4/M B M"
_symmetry_group_IT_number 127
_symmetry_cell_setting 'tetragonal'
loop_
_space_group_symop_operation_xyz
x,y,z
-y,x,z
-x,-y,z
y,-x,z
1/2+x,1/2-y,-z
1/2-x,1/2+y,-z
1/2+y,1/2+x,-z
1/2-y,1/2-x,-z
-x,-y,-z
y,-x,-z
x,y,-z
-y,x,-z
1/2-x,1/2+y,z
1/2+x,1/2-y,z
1/2-y,1/2-x,z
1/2+y,1/2+x,z
loop_
_atom_site_type_symbol
_atom_site_label
_atom_site_fract_x
_atom_site_fract_y
_atom_site_fract_z
Si Si1 0.684595 0.315422 0.320846
Si Si2 0.721705 0.092933 0.783680
Si Si3 0.406375 0.593605 0.427557
Si Si4 0.592918 0.778317 0.216315
Si Si5 0.314508 0.314494 0.110110
Si Si6 0.404873 0.404863 0.000000
O O1 0.750002 0.250002 0.338306
O O2 0.621446 0.271907 0.276177
O O3 0.644041 0.355987 0.379420
O O4 0.728122 0.378557 0.276173
O O5 0.639043 0.139043 0.780755
O O6 0.767024 0.126349 0.844378
O O7 0.713620 0.000009 0.785746
O O8 0.392654 0.499989 0.418056
O O9 0.388481 0.611495 0.500000
O O10 0.639014 0.860987 0.219235
O O11 0.626338 0.732998 0.155619
O O12 0.250004 0.249997 0.085945
O O13 0.362891 0.362877 0.058906
O O14 0.500006 0.392099 0.000000
#
# Coordination Sequence:
#
# PCOD9564345 Si02
#       6
#    16  16  16  16  16   8
#     4   9  17  28  43  62  84 112 140 167 203 247
#     4   9  17  29  45  64  85 109 138 171 206 244
#     4   9  17  28  42  61  84 109 138 173 210 244
#     4   9  17  29  45  64  85 109 138 171 206 244
#     4   9  18  32  47  62  83 112 142 170 202 244
#     4  11  21  30  44  66  89 111 136 170 210 247
#
# _framework density 14.286281000000001
#
# number of rings (size 3 to 8) (size 9 to 14) (size 15 to 20)
#    0.000    2.818    0.000    5.182    0.000    0.727 
#    0.000    0.000    0.000    8.727    0.000    0.000 
#    0.000   13.091    0.000   33.818    0.000    0.000 
#
# Total GULP energy -490253.472185 kJ/mol
# GULP energy per Si atom -5571.062184 kJ/mol
# Density = 1.425376 g / cm^3
# Si number density = 14.286281 Si / 1000 Ang^3
#
#
#
# Elastic Constant Matrix: (Units=GPa)
#
#
# Indices 1 2 3 4 5 6 
#
# 1 133.8840 75.7401 69.6144 0.0000 0.0000 0.0000
# 2 75.7401 133.8840 69.6144 0.0000 0.0000 0.0000
# 3 69.6144 69.6144 108.9495 0.0000 0.0000 0.0000
# 4 0.0000 0.0000 0.0000 17.7598 0.0000 0.0000
# 5 0.0000 0.0000 0.0000 0.0000 17.7598 0.0000
# 6 0.0000 0.0000 0.0000 0.0000 0.0000 19.5052
#
#
#
# Elastic Compliance Matrix: (Units=1/GPa)
#
#
# Indices 1 2 3 4 5 6 
#
# 1 0.012743 -0.004456 -0.005295 0.000000 0.000000 0.000000
# 2 -0.004456 0.012743 -0.005295 0.000000 0.000000 0.000000
# 3 -0.005295 -0.005295 0.015946 0.000000 0.000000 0.000000
# 4 0.000000 0.000000 0.000000 0.056307 0.000000 0.000000
# 5 0.000000 0.000000 0.000000 0.000000 0.056307 0.000000
# 6 0.000000 0.000000 0.000000 0.000000 0.000000 0.051268
#
#
# Mechanical properties :
#
#
# Convention : Reuss Voigt Hill
#
# Bulk Modulus (GPa) = 88.19015 89.62835 88.90925
# Shear Modulus (GPa) = 20.90417 21.78820 21.34619
#
# Velocity S-wave (km/s) = 3.82937 3.90951 3.86965
# Velocity P-wave (km/s) = 9.02313 9.12428 9.07385
#
# Compressibility (1/GPa) = 0.01133913
#
# Stress axis : x y z
#
# Youngs Moduli (GPa) = 78.47356 78.47356 62.71280
#
# Poissons Ratio (x) = 0.34964 0.33209
# Poissons Ratio (y) = 0.34964 0.33209
# Poissons Ratio (z) = 0.41555 0.41555
#
# Static dielectric constant tensor:
#      x y z
#    x 1.451070 0.000000 0.000000 
#    y 0.000000 1.451070 0.000000 
#    z 0.000000 0.000000 1.457200 
# 
# From -- ./inp_files/5680.got.cif
#   From: 2010.05.17/outbox.cif.g08.bks.cpg/sg127_3_cif.got.tgz:5680.got - 2010.05.20 12:03:00.
