data_PCOD9564968
_publ_section_title
;
Structure prediction by ZEFSAII (Michael W. Deem and Ramdas Pophale) SiO2 
 PCOD9564968
Probable space group: P 4/M N C
;
_chemical_formula_sum "Si O2"
_cell_formula_units_Z 104
_cell_length_a 28.662176
_cell_length_b 28.662176
_cell_length_c 9.675313
_cell_angle_alpha 90.000000
_cell_angle_beta 90.000000
_cell_angle_gamma 90.000000
_cell_volume 7948.466358
_symmetry_space_group_name_H-M "P 4/M N C"
_symmetry_group_IT_number 128
_symmetry_cell_setting 'tetragonal'
loop_
_space_group_symop_operation_xyz
x,y,z
-y,x,z
-x,-y,z
y,-x,z
1/2+x,1/2-y,1/2-z
1/2-x,1/2+y,1/2-z
1/2+y,1/2+x,1/2-z
1/2-y,1/2-x,1/2-z
-x,-y,-z
y,-x,-z
x,y,-z
-y,x,-z
1/2-x,1/2+y,1/2+z
1/2+x,1/2-y,1/2+z
1/2-y,1/2-x,1/2+z
1/2+y,1/2+x,1/2+z
loop_
_atom_site_type_symbol
_atom_site_label
_atom_site_fract_x
_atom_site_fract_y
_atom_site_fract_z
Si Si1 0.299249 0.606816 0.661989
Si Si2 0.329969 0.234488 0.161899
Si Si3 0.046063 0.875602 0.280883
Si Si4 0.188470 0.878032 0.841831
Si Si5 0.249324 0.314536 0.160378
Si Si6 0.028044 0.927394 0.000000
Si Si7 0.867591 0.060275 0.352918
O O1 0.289207 0.595064 0.500000
O O2 0.256386 0.627910 0.748812
O O3 0.324273 0.566620 0.752201
O O4 0.338368 0.647946 0.656494
O O5 0.307676 0.192325 0.250000
O O6 0.289842 0.274695 0.158115
O O7 0.340533 0.223859 0.000000
O O8 0.084889 0.909243 0.348185
O O9 0.994877 0.876522 0.346123
O O10 0.039771 0.897678 0.131333
O O11 0.228618 0.857837 0.743152
O O12 0.164185 0.922793 0.773351
O O13 0.203271 0.885398 0.000000
O O14 0.207549 0.292452 0.250000
O O15 0.237484 0.324102 0.000000
O O16 0.974414 0.942166 0.000000
O O17 0.844406 0.071767 0.500000
#
# Coordination Sequence:
#
# PCOD9564968 Si02
#       7
#    16  16  16  16  16   8  16
#     4   9  17  27  42  57  72  91 115 145 179 222
#     4   9  16  25  38  55  76  95 114 136 167 209
#     4  11  21  32  47  57  74  93 124 156 199 241
#     4   9  18  29  42  57  72  93 119 146 181 222
#     4   9  15  24  39  57  78  97 115 138 168 211
#     4  11  20  32  48  62  70  90 124 166 200 244
#     4  11  23  34  43  56  75  95 120 158 200 241
#
# _framework density 13.084286000000001
#
# number of rings (size 3 to 8) (size 9 to 14) (size 15 to 20)
#    0.000    2.231    2.308    1.846    2.154    8.308 
#    0.000    0.769    0.000    0.000    0.000    0.000 
#    0.000    0.000    0.000    0.000    0.000    0.000 
#
# Total GULP energy -579084.119310 kJ/mol
# GULP energy per Si atom -5568.116532 kJ/mol
# Density = 1.305451 g / cm^3
# Si number density = 13.084286 Si / 1000 Ang^3
#
#
#
# Elastic Constant Matrix: (Units=GPa)
#
#
# Indices 1 2 3 4 5 6 
#
# 1 36.1861 33.6536 28.1251 0.0000 0.0000 0.0000
# 2 33.6536 36.1861 28.1254 0.0000 0.0000 0.0000
# 3 28.1251 28.1254 116.1322 0.0000 0.0000 0.0000
# 4 0.0000 0.0000 0.0000 18.4634 0.0000 0.0000
# 5 0.0000 0.0000 0.0000 0.0000 18.4610 0.0000
# 6 0.0000 0.0000 0.0000 0.0000 0.0000 20.4870
#
#
#
# Elastic Compliance Matrix: (Units=1/GPa)
#
#
# Indices 1 2 3 4 5 6 
#
# 1 0.206328 -0.188540 -0.004308 0.000000 0.000000 0.000000
# 2 -0.188540 0.206329 -0.004308 0.000000 0.000000 0.000000
# 3 -0.004308 -0.004308 0.010698 0.000000 0.000000 0.000000
# 4 0.000000 0.000000 0.000000 0.054161 0.000000 0.000000
# 5 0.000000 0.000000 0.000000 0.000000 0.054168 0.000000
# 6 0.000000 0.000000 0.000000 0.000000 0.000000 0.048811
#
#
# Mechanical properties :
#
#
# Convention : Reuss Voigt Hill
#
# Bulk Modulus (GPa) = 34.43287 40.92362 37.67825
# Shear Modulus (GPa) = 5.07878 18.05563 11.56721
#
# Velocity S-wave (km/s) = 1.97231 3.71879 2.97653
# Velocity P-wave (km/s) = 5.61783 7.05578 6.37746
#
# Compressibility (1/GPa) = 0.02904202
#
# Stress axis : x y z
#
# Youngs Moduli (GPa) = 4.84665 4.84664 93.47944
#
# Poissons Ratio (x) = 0.91379 0.40267
# Poissons Ratio (y) = 0.91379 0.40276
# Poissons Ratio (z) = 0.02088 0.02088
#
# Static dielectric constant tensor:
#      x y z
#    x 1.424320 0.000000 0.000000 
#    y 0.000000 1.424320 0.000000 
#    z 0.000000 0.000000 1.450400 
# 
# From -- ./inp_files/1683.got.cif
#   From: 2010.05.17/outbox.cif.g08.bks.cpg/sg128_1_cif.got.tgz:1683.got - 2010.05.20 12:07:25.
