data_PCOD9564992
_publ_section_title
;
Structure prediction by ZEFSAII (Michael W. Deem and Ramdas Pophale) SiO2 
 PCOD9564992
Probable space group: P 4/M N C
;
_chemical_formula_sum "Si O2"
_cell_formula_units_Z 88
_cell_length_a 18.013666
_cell_length_b 18.013666
_cell_length_c 14.842027
_cell_angle_alpha 90.000000
_cell_angle_beta 90.000000
_cell_angle_gamma 90.000000
_cell_volume 4816.121441
_symmetry_space_group_name_H-M "P 4/M N C"
_symmetry_group_IT_number 128
_symmetry_cell_setting 'tetragonal'
loop_
_space_group_symop_operation_xyz
x,y,z
-y,x,z
-x,-y,z
y,-x,z
1/2+x,1/2-y,1/2-z
1/2-x,1/2+y,1/2-z
1/2+y,1/2+x,1/2-z
1/2-y,1/2-x,1/2-z
-x,-y,-z
y,-x,-z
x,y,-z
-y,x,-z
1/2-x,1/2+y,1/2+z
1/2+x,1/2-y,1/2+z
1/2-y,1/2-x,1/2+z
1/2+y,1/2+x,1/2+z
loop_
_atom_site_type_symbol
_atom_site_label
_atom_site_fract_x
_atom_site_fract_y
_atom_site_fract_z
Si Si1 0.520556 0.278630 0.334645
Si Si2 0.334131 0.997130 0.000000
Si Si3 0.279478 0.878988 0.683910
Si Si4 0.570030 0.144297 0.000000
Si Si5 0.869625 0.161260 0.895834
Si Si6 0.730205 0.799157 0.347496
Si Si7 0.394775 0.164216 0.000000
O O1 0.518645 0.214493 0.410810
O O2 0.549869 0.248840 0.239177
O O3 0.439096 0.313848 0.335844
O O4 0.582458 0.337074 0.367415
O O5 0.402820 0.940736 0.000000
O O6 0.356925 0.083015 0.000000
O O7 0.337468 0.837468 0.750000
O O8 0.316628 0.898347 0.589463
O O9 0.215385 0.817430 0.667396
O O10 0.482004 0.152867 0.000000
O O11 0.804721 0.222761 0.887044
O O12 0.894275 0.159764 0.000000
O O13 0.692756 0.807245 0.250000
O O14 0.708584 0.864694 0.413583
#
# Coordination Sequence:
#
# PCOD9564992 Si02
#       7
#    16   8  16   8  16  16   8
#     4  12  23  38  64  94 129 161 211 262 329 384
#     4  12  21  42  62  86 128 165 210 257 323 381
#     4  11  23  40  66  90 118 172 218 267 310 377
#     4  12  26  39  60  91 131 166 215 261 323 393
#     4  12  21  38  64  94 125 162 200 269 325 377
#     4  11  21  39  64  90 115 162 219 254 305 373
#     4  12  26  39  62  94 130 164 208 273 313 374
#
# _framework density 18.271965000000002
#
# number of rings (size 3 to 8) (size 9 to 14) (size 15 to 20)
#    0.000    0.364   10.000    0.818    2.545    0.364 
#    0.000    0.909    0.000    0.000    0.000    0.000 
#    0.000    4.364    0.000    0.000    0.000    0.000 
#
# Total GULP energy -491944.461432 kJ/mol
# GULP energy per Si atom -5590.277971 kJ/mol
# Density = 1.823038 g / cm^3
# Si number density = 18.271965 Si / 1000 Ang^3
#
#
#
# Elastic Constant Matrix: (Units=GPa)
#
#
# Indices 1 2 3 4 5 6 
#
# 1 73.8254 22.6102 34.2537 0.0000 0.0000 0.0000
# 2 22.6102 73.8259 34.2537 0.0000 0.0000 0.0000
# 3 34.2537 34.2537 129.1951 0.0000 0.0000 0.0000
# 4 0.0000 0.0000 0.0000 25.7694 0.0000 0.0000
# 5 0.0000 0.0000 0.0000 0.0000 25.7695 0.0000
# 6 0.0000 0.0000 0.0000 0.0000 0.0000 34.3747
#
#
#
# Elastic Compliance Matrix: (Units=1/GPa)
#
#
# Indices 1 2 3 4 5 6 
#
# 1 0.016151 -0.003375 -0.003387 0.000000 0.000000 0.000000
# 2 -0.003375 0.016151 -0.003387 0.000000 0.000000 0.000000
# 3 -0.003387 -0.003387 0.009536 0.000000 0.000000 0.000000
# 4 0.000000 0.000000 0.000000 0.038806 0.000000 0.000000
# 5 0.000000 0.000000 0.000000 0.000000 0.038806 0.000000
# 6 0.000000 0.000000 0.000000 0.000000 0.000000 0.029091
#
#
# Mechanical properties :
#
#
# Convention : Reuss Voigt Hill
#
# Bulk Modulus (GPa) = 46.42740 51.00909 48.71824
# Shear Modulus (GPa) = 28.40612 29.56463 28.98538
#
# Velocity S-wave (km/s) = 3.94716 4.02684 3.98720
# Velocity P-wave (km/s) = 6.79983 7.04257 6.92226
#
# Compressibility (1/GPa) = 0.02153901
#
# Stress axis : x y z
#
# Youngs Moduli (GPa) = 61.91683 61.91728 104.86148
#
# Poissons Ratio (x) = 0.20895 0.35520
# Poissons Ratio (y) = 0.20895 0.35520
# Poissons Ratio (z) = 0.20973 0.20973
#
# Static dielectric constant tensor:
#      x y z
#    x 1.618770 0.000000 0.000000 
#    y 0.000000 1.618770 0.000000 
#    z 0.000000 0.000000 1.641770 
# 
# From -- ./inp_files/3900.got.cif
#   From: 2010.05.17/outbox.cif.g08.bks.cpg/sg128_2_cif.got.tgz:3900.got - 2010.05.20 12:07:25.
