data_PCOD9564157
_publ_section_title
;
Structure prediction by ZEFSAII (Michael W. Deem and Ramdas Pophale) SiO2 
 PCOD9564157
Probable space group: P 4/M B M
;
_chemical_formula_sum "Si O2"
_cell_formula_units_Z 56
_cell_length_a 19.550222
_cell_length_b 19.550222
_cell_length_c 8.932162
_cell_angle_alpha 90.000000
_cell_angle_beta 90.000000
_cell_angle_gamma 90.000000
_cell_volume 3413.972180
_symmetry_space_group_name_H-M "P 4/M B M"
_symmetry_group_IT_number 127
_symmetry_cell_setting 'tetragonal'
loop_
_space_group_symop_operation_xyz
x,y,z
-y,x,z
-x,-y,z
y,-x,z
1/2+x,1/2-y,-z
1/2-x,1/2+y,-z
1/2+y,1/2+x,-z
1/2-y,1/2-x,-z
-x,-y,-z
y,-x,-z
x,y,-z
-y,x,-z
1/2-x,1/2+y,z
1/2+x,1/2-y,z
1/2-y,1/2-x,z
1/2+y,1/2+x,z
loop_
_atom_site_type_symbol
_atom_site_label
_atom_site_fract_x
_atom_site_fract_y
_atom_site_fract_z
Si Si1 0.374392 0.239856 0.678302
Si Si2 0.018037 0.297269 0.820307
Si Si3 0.341861 0.727531 0.177909
Si Si4 0.557432 0.057432 0.321242
O O1 0.383840 0.241342 0.500000
O O2 0.324094 0.175907 0.714222
O O3 0.446194 0.229638 0.759433
O O4 0.334185 0.306938 0.733721
O O5 0.081060 0.247171 0.780825
O O6 0.034024 0.371057 0.749561
O O7 0.016589 0.303603 0.000000
O O8 0.294358 0.794358 0.204556
O O9 0.338919 0.713139 0.000000
O O10 0.564955 0.064955 0.500000
O O11 0.500000 0.000000 0.292854
#
# Coordination Sequence:
#
# PCOD9564157 Si02
#       4
#    16  16  16   8
#     4  10  21  35  52  78 109 141 178 218 266 320
#     4  11  21  35  55  79 106 141 181 222 268 318
#     4   9  18  35  55  76 102 135 180 223 262 315
#     4  11  23  35  49  75 113 149 179 216 265 324
#
# _framework density 16.403181
#
# number of rings (size 3 to 8) (size 9 to 14) (size 15 to 20)
#    0.000    1.857    1.429    3.000    0.000    8.571 
#    0.000    0.000    0.000    0.857    0.000    6.000 
#    0.000    0.000    0.000    0.000    0.000    0.000 
#
# Total GULP energy -312716.957069 kJ/mol
# GULP energy per Si atom -5584.231376 kJ/mol
# Density = 1.636585 g / cm^3
# Si number density = 16.403181 Si / 1000 Ang^3
#
#
#
# Elastic Constant Matrix: (Units=GPa)
#
#
# Indices 1 2 3 4 5 6 
#
# 1 112.8018 99.6804 64.7126 0.0000 0.0000 0.0000
# 2 99.6804 112.8018 64.7126 0.0000 0.0000 0.0000
# 3 64.7126 64.7126 61.6789 0.0000 0.0000 0.0000
# 4 0.0000 0.0000 0.0000 20.3034 0.0000 0.0000
# 5 0.0000 0.0000 0.0000 0.0000 20.3034 0.0000
# 6 0.0000 0.0000 0.0000 0.0000 0.0000 19.3104
#
#
#
# Elastic Compliance Matrix: (Units=1/GPa)
#
#
# Indices 1 2 3 4 5 6 
#
# 1 0.044625 -0.031586 -0.013681 0.000000 0.000000 0.000000
# 2 -0.031586 0.044625 -0.013681 0.000000 0.000000 0.000000
# 3 -0.013681 -0.013681 0.044920 0.000000 0.000000 0.000000
# 4 0.000000 0.000000 0.000000 0.049253 0.000000 0.000000
# 5 0.000000 0.000000 0.000000 0.000000 0.049253 0.000000
# 6 0.000000 0.000000 0.000000 0.000000 0.000000 0.051785
#
#
# Mechanical properties :
#
#
# Convention : Reuss Voigt Hill
#
# Bulk Modulus (GPa) = 61.43983 82.83264 72.13624
# Shear Modulus (GPa) = 12.26148 15.86190 14.06169
#
# Velocity S-wave (km/s) = 2.73702 3.11304 2.93107
# Velocity P-wave (km/s) = 6.89389 7.97050 7.45167
#
# Compressibility (1/GPa) = 0.01627609
#
# Stress axis : x y z
#
# Youngs Moduli (GPa) = 22.40892 22.40892 22.26174
#
# Poissons Ratio (x) = 0.70780 0.30456
# Poissons Ratio (y) = 0.70780 0.30456
# Poissons Ratio (z) = 0.30657 0.30657
#
# Static dielectric constant tensor:
#      x y z
#    x 1.529700 0.000000 0.000000 
#    y 0.000000 1.529700 0.000000 
#    z 0.000000 0.000000 1.544480 
# 
# From -- ./inp_files/1059.got.cif
#   From: 2010.05.17/outbox.cif.g08.bks.cpg/sg127_1_cif.got.tgz:1059.got - 2010.05.20 12:03:00.
