data_PCOD9564931
_publ_section_title
;
Structure prediction by ZEFSAII (Michael W. Deem and Ramdas Pophale) SiO2 
 PCOD9564931
Probable space group: P 4/M N C
;
_chemical_formula_sum "Si O2"
_cell_formula_units_Z 88
_cell_length_a 12.361975
_cell_length_b 12.361975
_cell_length_c 32.042385
_cell_angle_alpha 90.000000
_cell_angle_beta 90.000000
_cell_angle_gamma 90.000000
_cell_volume 4896.666838
_symmetry_space_group_name_H-M "P 4/M N C"
_symmetry_group_IT_number 128
_symmetry_cell_setting 'tetragonal'
loop_
_space_group_symop_operation_xyz
x,y,z
-y,x,z
-x,-y,z
y,-x,z
1/2+x,1/2-y,1/2-z
1/2-x,1/2+y,1/2-z
1/2+y,1/2+x,1/2-z
1/2-y,1/2-x,1/2-z
-x,-y,-z
y,-x,-z
x,y,-z
-y,x,-z
1/2-x,1/2+y,1/2+z
1/2+x,1/2-y,1/2+z
1/2-y,1/2-x,1/2+z
1/2+y,1/2+x,1/2+z
loop_
_atom_site_type_symbol
_atom_site_label
_atom_site_fract_x
_atom_site_fract_y
_atom_site_fract_z
Si Si1 0.114481 0.268047 0.413202
Si Si2 0.026091 0.819520 0.292053
Si Si3 0.375561 0.991686 0.131296
Si Si4 0.902086 0.843535 0.500000
Si Si5 0.002656 0.182949 0.803413
Si Si6 0.608104 0.770965 0.126136
O O1 0.127108 0.394574 0.402115
O O2 0.134891 0.223760 0.459331
O O3 0.190501 0.205696 0.380825
O O4 0.991769 0.235788 0.402393
O O5 0.015354 0.779998 0.244552
O O6 0.059355 0.733580 0.326998
O O7 0.912903 0.882936 0.297599
O O8 0.500000 0.000000 0.146880
O O9 0.285093 0.980951 0.166831
O O10 0.355711 0.110285 0.112762
O O11 0.033558 0.856368 0.500000
O O12 0.105463 0.102614 0.809729
#
# Coordination Sequence:
#
# PCOD9564931 Si02
#       6
#    16  16  16   8  16  16
#     4  11  22  38  59  89 118 148 190 240 300 360
#     4   9  17  30  55  86 110 145 200 256 298 328
#     4  10  23  38  52  79 121 165 190 226 290 364
#     4  11  22  38  65  99 119 138 187 252 301 357
#     4   9  18  36  60  82 106 150 214 261 281 320
#     4  11  20  35  59  83 116 157 193 238 296 359
#
# _framework density 17.971409000000001
#
# number of rings (size 3 to 8) (size 9 to 14) (size 15 to 20)
#    0.000    1.909    3.636    2.182    0.000    1.091 
#    0.000   11.364    0.000    0.000    0.000    0.000 
#    0.000    4.364    0.000    0.000    0.000    0.000 
#
# Total GULP energy -490096.711401 kJ/mol
# GULP energy per Si atom -5569.280811 kJ/mol
# Density = 1.793051 g / cm^3
# Si number density = 17.971409 Si / 1000 Ang^3
#
#
#
# Elastic Constant Matrix: (Units=GPa)
#
#
# Indices 1 2 3 4 5 6 
#
# 1 64.6269 18.7715 32.7432 0.0000 0.0000 0.0000
# 2 18.7715 64.6269 32.7432 0.0000 0.0000 0.0000
# 3 32.7432 32.7432 88.8968 0.0000 0.0000 0.0000
# 4 0.0000 0.0000 0.0000 13.2767 0.0000 0.0000
# 5 0.0000 0.0000 0.0000 0.0000 13.2767 0.0000
# 6 0.0000 0.0000 0.0000 0.0000 0.0000 11.3003
#
#
#
# Elastic Compliance Matrix: (Units=1/GPa)
#
#
# Indices 1 2 3 4 5 6 
#
# 1 0.019339 -0.002469 -0.006214 0.000000 0.000000 0.000000
# 2 -0.002469 0.019339 -0.006214 0.000000 0.000000 0.000000
# 3 -0.006214 -0.006214 0.015826 0.000000 0.000000 0.000000
# 4 0.000000 0.000000 0.000000 0.075320 0.000000 0.000000
# 5 0.000000 0.000000 0.000000 0.000000 0.075320 0.000000
# 6 0.000000 0.000000 0.000000 0.000000 0.000000 0.088493
#
#
# Mechanical properties :
#
#
# Convention : Reuss Voigt Hill
#
# Bulk Modulus (GPa) = 40.46726 42.96290 41.71508
# Shear Modulus (GPa) = 15.07539 16.49692 15.78615
#
# Velocity S-wave (km/s) = 2.89944 3.03306 2.96700
# Velocity P-wave (km/s) = 5.81167 6.01865 5.91606
#
# Compressibility (1/GPa) = 0.02471134
#
# Stress axis : x y z
#
# Youngs Moduli (GPa) = 51.70986 51.70986 63.18611
#
# Poissons Ratio (x) = 0.12767 0.39261
# Poissons Ratio (y) = 0.12767 0.39261
# Poissons Ratio (z) = 0.32130 0.32130
#
# Static dielectric constant tensor:
#      x y z
#    x 1.639080 0.000000 0.000000 
#    y 0.000000 1.639080 0.000000 
#    z 0.000000 0.000000 1.626080 
# 
# From -- ./inp_files/7263.got.cif
#   From: 2010.05.17/outbox.cif.g08.bks.cpg/sg128_4_cif.got.tgz:7263.got - 2010.05.20 12:07:25.
