data_PCOD9564593
_publ_section_title
;
Structure prediction by ZEFSAII (Michael W. Deem and Ramdas Pophale) SiO2 
 PCOD9564593
Probable space group: P 4/M N C
;
_chemical_formula_sum "Si O2"
_cell_formula_units_Z 112
_cell_length_a 26.506043
_cell_length_b 26.506043
_cell_length_c 7.346643
_cell_angle_alpha 90.000000
_cell_angle_beta 90.000000
_cell_angle_gamma 90.000000
_cell_volume 5161.533291
_symmetry_space_group_name_H-M "P 4/M N C"
_symmetry_group_IT_number 128
_symmetry_cell_setting 'tetragonal'
loop_
_space_group_symop_operation_xyz
x,y,z
-y,x,z
-x,-y,z
y,-x,z
1/2+x,1/2-y,1/2-z
1/2-x,1/2+y,1/2-z
1/2+y,1/2+x,1/2-z
1/2-y,1/2-x,1/2-z
-x,-y,-z
y,-x,-z
x,y,-z
-y,x,-z
1/2-x,1/2+y,1/2+z
1/2+x,1/2-y,1/2+z
1/2-y,1/2-x,1/2+z
1/2+y,1/2+x,1/2+z
loop_
_atom_site_type_symbol
_atom_site_label
_atom_site_fract_x
_atom_site_fract_y
_atom_site_fract_z
Si Si1 0.230770 0.491803 0.277384
Si Si2 0.880029 0.699501 0.217018
Si Si3 0.419463 0.159614 0.282732
Si Si4 0.020988 0.845928 0.777690
Si Si5 0.415131 0.614552 0.279674
Si Si6 0.838856 0.260575 0.784424
Si Si7 0.301586 0.341270 0.278669
O O1 0.232893 0.491401 0.500000
O O2 0.214714 0.435741 0.217086
O O3 0.184446 0.528319 0.221000
O O4 0.286927 0.512024 0.221684
O O5 0.854571 0.645430 0.250000
O O6 0.843445 0.744295 0.284748
O O7 0.882933 0.703991 0.000000
O O8 0.395976 0.104025 0.250000
O O9 0.420880 0.162907 0.500000
O O10 0.378364 0.199629 0.208580
O O11 0.973137 0.880595 0.723049
O O12 0.070779 0.876756 0.718212
O O13 0.022697 0.843823 0.000000
O O14 0.415806 0.610567 0.500000
O O15 0.391725 0.668826 0.233279
O O16 0.784460 0.284460 0.750000
O O17 0.835567 0.204709 0.711749
O O18 0.849057 0.257868 0.000000
O O19 0.300862 0.337192 0.500000
#
# Coordination Sequence:
#
# PCOD9564593 Si02
#       7
#    16  16  16  16  16  16  16
#     4   9  16  29  46  63  87 121 157 188 227 282
#     4  10  19  31  48  68  91 119 152 188 228 276
#     4   9  17  29  46  68  91 118 153 188 225 271
#     4   9  15  23  36  57  86 124 163 196 228 267
#     4   9  15  22  34  54  84 121 161 195 224 262
#     4   9  16  25  39  61  88 115 144 180 221 265
#     4   9  15  25  39  58  84 116 151 185 221 268
#
# _framework density 21.698979999999999
#
# number of rings (size 3 to 8) (size 9 to 14) (size 15 to 20)
#    0.000    2.857    1.429    1.286    0.000    3.714 
#    0.000    2.143    0.000    0.429    0.000    3.000 
#    0.000    0.000    0.000    0.000    0.000    2.571 
#
# Total GULP energy -623875.210754 kJ/mol
# GULP energy per Si atom -5570.314382 kJ/mol
# Density = 2.164959 g / cm^3
# Si number density = 21.698980 Si / 1000 Ang^3
#
#
#
# Elastic Constant Matrix: (Units=GPa)
#
#
# Indices 1 2 3 4 5 6 
#
# 1 112.2380 55.8097 -0.8767 0.0000 0.0000 0.0000
# 2 55.8097 112.2492 -0.8774 0.0000 0.0000 0.0000
# 3 -0.8767 -0.8774 81.4349 0.0000 0.0000 0.0000
# 4 0.0000 0.0000 0.0000 -30.6742 0.0000 0.0000
# 5 0.0000 0.0000 0.0000 0.0000 -30.6807 0.0000
# 6 0.0000 0.0000 0.0000 0.0000 0.0000 34.6051
#
#
#
# Elastic Compliance Matrix: (Units=1/GPa)
#
#
# Indices 1 2 3 4 5 6 
#
# 1 0.011836 -0.005884 0.000064 0.000000 0.000000 0.000000
# 2 -0.005884 0.011835 0.000064 0.000000 0.000000 0.000000
# 3 0.000064 0.000064 0.012281 0.000000 0.000000 0.000000
# 4 0.000000 0.000000 0.000000 -0.032601 0.000000 0.000000
# 5 0.000000 0.000000 0.000000 0.000000 -0.032594 0.000000
# 6 0.000000 0.000000 0.000000 0.000000 0.000000 0.028897
#
#
# Mechanical properties :
#
#
# Convention : Reuss Voigt Hill
#
# Bulk Modulus (GPa) = 40.91685 46.00373 43.46029
# Shear Modulus (GPa) = 258.87801 11.44113 135.15957
#
# Velocity S-wave (km/s) = 10.93450 2.29872 7.90086
# Velocity P-wave (km/s) = 13.35347 5.31906 10.16385
#
# Compressibility (1/GPa) = 0.02443981
#
# Stress axis : x y z
#
# Youngs Moduli (GPa) = 84.48733 84.49573 81.42578
#
# Poissons Ratio (x) = 0.49720 -0.00521
# Poissons Ratio (y) = 0.49715 -0.00522
# Poissons Ratio (z) = -0.00541 -0.00542
#
# Static dielectric constant tensor:
#      x y z
#    x 1.802670 0.000000 0.000000 
#    y 0.000000 1.802660 0.000000 
#    z 0.000000 0.000000 1.888090 
# 
# From -- ./inp_files/3002.got.cif
#   From: 2010.05.17/outbox.cif.g08.bks.cpg/sg128_2_cif.got.tgz:3002.got - 2010.05.20 12:07:25.
