data_PCOD9564125
_publ_section_title
;
Structure prediction by ZEFSAII (Michael W. Deem and Ramdas Pophale) SiO2 
 PCOD9564125
Probable space group: P 4/M B M
;
_chemical_formula_sum "Si O2"
_cell_formula_units_Z 48
_cell_length_a 13.271094
_cell_length_b 13.271094
_cell_length_c 13.543942
_cell_angle_alpha 90.000000
_cell_angle_beta 90.000000
_cell_angle_gamma 90.000000
_cell_volume 2385.385286
_symmetry_space_group_name_H-M "P 4/M B M"
_symmetry_group_IT_number 127
_symmetry_cell_setting 'tetragonal'
loop_
_space_group_symop_operation_xyz
x,y,z
-y,x,z
-x,-y,z
y,-x,z
1/2+x,1/2-y,-z
1/2-x,1/2+y,-z
1/2+y,1/2+x,-z
1/2-y,1/2-x,-z
-x,-y,-z
y,-x,-z
x,y,-z
-y,x,-z
1/2-x,1/2+y,z
1/2+x,1/2-y,z
1/2-y,1/2-x,z
1/2+y,1/2+x,z
loop_
_atom_site_type_symbol
_atom_site_label
_atom_site_fract_x
_atom_site_fract_y
_atom_site_fract_z
Si Si1 0.414390 0.085611 0.730545
Si Si2 0.283982 0.216019 0.114072
Si Si3 0.903202 0.866657 0.789760
Si Si4 0.266998 0.937782 0.611853
O O1 0.355662 0.144339 0.818051
O O2 0.472994 0.170739 0.666509
O O3 0.500000 0.000000 0.757488
O O4 0.300886 0.332006 0.142842
O O5 0.303410 0.196591 0.000000
O O6 0.899847 0.826644 0.677353
O O7 0.021111 0.865566 0.809374
O O8 0.239934 0.966113 0.500000
O O9 0.345719 0.845719 0.608368
#
# Coordination Sequence:
#
# PCOD9564125 Si02
#       4
#     8   8  16  16
#     4  10  21  43  70 101 138 166 228 296 327 399
#     4  12  26  46  71  95 129 182 232 286 345 390
#     4  11  24  44  66  96 138 173 222 281 333 410
#     4  10  20  38  69 102 136 178 216 269 343 403
#
# _framework density 20.122536
#
# number of rings (size 3 to 8) (size 9 to 14) (size 15 to 20)
#    0.000    1.333    5.000    0.500    0.000    5.000 
#    0.000    3.333    0.000    0.000    0.000    0.000 
#    0.000    0.000    0.000    0.000    0.000    0.000 
#
# Total GULP energy -267792.696290 kJ/mol
# GULP energy per Si atom -5579.014506 kJ/mol
# Density = 2.007674 g / cm^3
# Si number density = 20.122536 Si / 1000 Ang^3
#
#
#
# Elastic Constant Matrix: (Units=GPa)
#
#
# Indices 1 2 3 4 5 6 
#
# 1 94.6633 52.1661 44.7376 0.0000 0.0000 0.0000
# 2 52.1661 94.6645 44.7386 0.0000 0.0000 0.0000
# 3 44.7376 44.7386 119.4922 0.0000 0.0000 0.0000
# 4 0.0000 0.0000 0.0000 -17.4560 0.0000 0.0000
# 5 0.0000 0.0000 0.0000 0.0000 -17.4559 0.0000
# 6 0.0000 0.0000 0.0000 0.0000 0.0000 1.8499
#
#
#
# Elastic Compliance Matrix: (Units=1/GPa)
#
#
# Indices 1 2 3 4 5 6 
#
# 1 0.016177 -0.007353 -0.003304 0.000000 0.000000 0.000000
# 2 -0.007353 0.016177 -0.003304 0.000000 0.000000 0.000000
# 3 -0.003304 -0.003304 0.010843 0.000000 0.000000 0.000000
# 4 0.000000 0.000000 0.000000 -0.057287 0.000000 0.000000
# 5 0.000000 0.000000 0.000000 0.000000 -0.057287 0.000000
# 6 0.000000 0.000000 0.000000 0.000000 0.000000 0.540562
#
#
# Mechanical properties :
#
#
# Convention : Reuss Voigt Hill
#
# Bulk Modulus (GPa) = 65.46416 65.78942 65.62679
# Shear Modulus (GPa) = 9.95623 4.53279 7.24451
#
# Velocity S-wave (km/s) = 2.22678 1.50249 1.89948
# Velocity P-wave (km/s) = 6.26217 5.98125 6.12332
#
# Compressibility (1/GPa) = 0.01527553
#
# Stress axis : x y z
#
# Youngs Moduli (GPa) = 61.81523 61.81554 92.22944
#
# Poissons Ratio (x) = 0.45455 0.30469
# Poissons Ratio (y) = 0.45455 0.30470
# Poissons Ratio (z) = 0.20421 0.20422
#
# Static dielectric constant tensor:
#      x y z
#    x 1.720580 0.000000 0.000000 
#    y 0.000000 1.720580 0.000000 
#    z 0.000000 0.000000 1.699660 
# 
# From -- ./inp_files/2763.got.cif
#   From: 2010.05.17/outbox.cif.g08.bks.cpg/sg127_2_cif.got.tgz:2763.got - 2010.05.20 12:03:00.
