data_PCOD9564249
_publ_section_title
;
Structure prediction by ZEFSAII (Michael W. Deem and Ramdas Pophale) SiO2 
 PCOD9564249
Probable space group: P 4/M B M
;
_chemical_formula_sum "Si O2"
_cell_formula_units_Z 96
_cell_length_a 15.557437
_cell_length_b 15.557437
_cell_length_c 24.143016
_cell_angle_alpha 90.000000
_cell_angle_beta 90.000000
_cell_angle_gamma 90.000000
_cell_volume 5843.427017
_symmetry_space_group_name_H-M "P 4/M B M"
_symmetry_group_IT_number 127
_symmetry_cell_setting 'tetragonal'
loop_
_space_group_symop_operation_xyz
x,y,z
-y,x,z
-x,-y,z
y,-x,z
1/2+x,1/2-y,-z
1/2-x,1/2+y,-z
1/2+y,1/2+x,-z
1/2-y,1/2-x,-z
-x,-y,-z
y,-x,-z
x,y,-z
-y,x,-z
1/2-x,1/2+y,z
1/2+x,1/2-y,z
1/2-y,1/2-x,z
1/2+y,1/2+x,z
loop_
_atom_site_type_symbol
_atom_site_label
_atom_site_fract_x
_atom_site_fract_y
_atom_site_fract_z
Si Si1 0.421225 0.621645 0.062111
Si Si2 0.121209 0.233557 0.832973
Si Si3 0.638950 0.993666 0.217043
Si Si4 0.673160 0.319891 0.286219
Si Si5 0.355755 0.997951 0.562514
Si Si6 0.756857 0.494575 0.325665
O O1 0.386051 0.524540 0.066430
O O2 0.387409 0.678993 0.111874
O O3 0.400547 0.653815 0.000000
O O4 0.191203 0.308798 0.839997
O O5 0.151796 0.179423 0.779431
O O6 0.030976 0.279682 0.816137
O O7 0.597584 0.902417 0.200641
O O8 0.664874 0.991434 0.281509
O O9 0.565084 0.065084 0.210355
O O10 0.749354 0.249354 0.294438
O O11 0.700777 0.412087 0.308960
O O12 0.585799 0.288313 0.315108
O O13 0.319633 0.996459 0.500000
O O14 0.410775 0.910775 0.570889
O O15 0.424927 0.075074 0.564809
O O16 0.289482 0.009962 0.611823
#
# Coordination Sequence:
#
# PCOD9564249 Si02
#       6
#    16  16  16  16  16  16
#     4   9  19  35  53  72  96 132 175 209 244 301
#     4   9  19  33  49  76 106 128 163 216 261 308
#     4   9  17  30  50  73  97 132 171 209 267 324
#     4  10  22  35  51  80 108 138 181 217 259 326
#     4   9  17  30  52  80 103 131 180 233 274 313
#     4  11  20  34  51  71 110 144 169 219 268 309
#
# _framework density 16.428716000000001
#
# number of rings (size 3 to 8) (size 9 to 14) (size 15 to 20)
#    0.000    2.500    0.000    5.000    4.667    2.000 
#    0.000    0.833    0.000    4.500    0.000    3.500 
#    0.000    0.000    0.000    0.000    0.000    0.000 
#
# Total GULP energy -535137.310070 kJ/mol
# GULP energy per Si atom -5574.346980 kJ/mol
# Density = 1.639132 g / cm^3
# Si number density = 16.428716 Si / 1000 Ang^3
#
#
#
# Elastic Constant Matrix: (Units=GPa)
#
#
# Indices 1 2 3 4 5 6 
#
# 1 57.1360 25.3274 54.9725 0.0000 0.0000 0.0000
# 2 25.3274 57.1360 54.9725 0.0000 0.0000 0.0000
# 3 54.9725 54.9725 149.0179 0.0000 0.0000 0.0000
# 4 0.0000 0.0000 0.0000 18.5362 0.0000 0.0000
# 5 0.0000 0.0000 0.0000 0.0000 18.5362 0.0000
# 6 0.0000 0.0000 0.0000 0.0000 0.0000 12.4267
#
#
#
# Elastic Compliance Matrix: (Units=1/GPa)
#
#
# Indices 1 2 3 4 5 6 
#
# 1 0.027651 -0.003787 -0.008803 0.000000 0.000000 0.000000
# 2 -0.003787 0.027651 -0.008803 0.000000 0.000000 0.000000
# 3 -0.008803 -0.008803 0.013206 0.000000 0.000000 0.000000
# 4 0.000000 0.000000 0.000000 0.053949 0.000000 0.000000
# 5 0.000000 0.000000 0.000000 0.000000 0.053949 0.000000
# 6 0.000000 0.000000 0.000000 0.000000 0.000000 0.080472
#
#
# Mechanical properties :
#
#
# Convention : Reuss Voigt Hill
#
# Bulk Modulus (GPa) = 38.88052 59.31497 49.09774
# Shear Modulus (GPa) = 16.22129 18.43430 17.32779
#
# Velocity S-wave (km/s) = 3.14566 3.35338 3.25118
# Velocity P-wave (km/s) = 6.07545 7.15376 6.63655
#
# Compressibility (1/GPa) = 0.02571982
#
# Stress axis : x y z
#
# Youngs Moduli (GPa) = 36.16523 36.16523 75.72527
#
# Poissons Ratio (x) = 0.13697 0.66663
# Poissons Ratio (y) = 0.13697 0.66663
# Poissons Ratio (z) = 0.31837 0.31837
#
# Static dielectric constant tensor:
#      x y z
#    x 1.561330 0.000000 0.000000 
#    y 0.000000 1.561330 0.000000 
#    z 0.000000 0.000000 1.533520 
# 
# From -- ./inp_files/5781.got.cif
#   From: 2010.05.17/outbox.cif.g08.bks.cpg/sg127_3_cif.got.tgz:5781.got - 2010.05.20 12:03:00.
