data_PCOD9564025
_publ_section_title
;
Structure prediction by ZEFSAII (Michael W. Deem and Ramdas Pophale) SiO2 
 PCOD9564025
Probable space group: P 4/M B M
;
_chemical_formula_sum "Si O2"
_cell_formula_units_Z 96
_cell_length_a 23.447932
_cell_length_b 23.447932
_cell_length_c 8.831535
_cell_angle_alpha 90.000000
_cell_angle_beta 90.000000
_cell_angle_gamma 90.000000
_cell_volume 4855.626650
_symmetry_space_group_name_H-M "P 4/M B M"
_symmetry_group_IT_number 127
_symmetry_cell_setting 'tetragonal'
loop_
_space_group_symop_operation_xyz
x,y,z
-y,x,z
-x,-y,z
y,-x,z
1/2+x,1/2-y,-z
1/2-x,1/2+y,-z
1/2+y,1/2+x,-z
1/2-y,1/2-x,-z
-x,-y,-z
y,-x,-z
x,y,-z
-y,x,-z
1/2-x,1/2+y,z
1/2+x,1/2-y,z
1/2-y,1/2-x,z
1/2+y,1/2+x,z
loop_
_atom_site_type_symbol
_atom_site_label
_atom_site_fract_x
_atom_site_fract_y
_atom_site_fract_z
Si Si1 0.887195 0.289855 0.329678
Si Si2 0.416037 0.705643 0.319311
Si Si3 0.411056 0.474154 0.315629
Si Si4 0.172756 0.414597 0.818279
Si Si5 0.969381 0.378393 0.181607
Si Si6 0.803565 0.207993 0.820833
O O1 0.899952 0.269581 0.500000
O O2 0.836896 0.336896 0.339288
O O3 0.938683 0.324327 0.256786
O O4 0.861141 0.240877 0.225691
O O5 0.420443 0.707851 0.500000
O O6 0.452960 0.651151 0.264985
O O7 0.431355 0.767039 0.251700
O O8 0.350487 0.697995 0.269800
O O9 0.462271 0.431049 0.269562
O O10 0.410346 0.473980 0.500000
O O11 0.145444 0.354557 0.766704
O O12 0.127498 0.464372 0.784016
O O13 0.179568 0.411196 0.000000
O O14 0.935271 0.435271 0.229572
O O15 0.963233 0.374124 0.000000
O O16 0.750479 0.250479 0.784787
O O17 0.801498 0.197003 0.000000
#
# Coordination Sequence:
#
# PCOD9564025 Si02
#       6
#    16  16  16  16  16  16
#     4   9  17  30  50  77 107 137 173 221 274 326
#     4  11  22  34  54  84 111 139 180 227 276 330
#     4   8  16  34  58  82 109 139 171 211 261 319
#     4  10  22  39  56  76 107 147 188 230 277 329
#     4   9  18  34  56  80 106 139 182 231 281 331
#     4  10  20  34  52  74 106 150 193 230 273 326
#
# _framework density 19.770876999999999
#
# number of rings (size 3 to 8) (size 9 to 14) (size 15 to 20)
#    0.000    2.500    0.000    2.500    0.000    7.667 
#    0.000    3.333    0.000    3.000    0.000    8.167 
#    0.000    0.000    0.000    0.000    0.000    0.000 
#
# Total GULP energy -535380.621800 kJ/mol
# GULP energy per Si atom -5576.881477 kJ/mol
# Density = 1.972588 g / cm^3
# Si number density = 19.770877 Si / 1000 Ang^3
#
#
#
# Elastic Constant Matrix: (Units=GPa)
#
#
# Indices 1 2 3 4 5 6 
#
# 1 89.3412 80.6972 28.7284 0.0000 0.0000 0.0000
# 2 80.6972 89.3412 28.7284 0.0000 0.0000 0.0000
# 3 28.7284 28.7284 14.7239 0.0000 0.0000 0.0000
# 4 0.0000 0.0000 0.0000 18.2939 0.0000 0.0000
# 5 0.0000 0.0000 0.0000 0.0000 18.2939 0.0000
# 6 0.0000 0.0000 0.0000 0.0000 0.0000 28.4948
#
#
#
# Elastic Compliance Matrix: (Units=1/GPa)
#
#
# Indices 1 2 3 4 5 6 
#
# 1 0.066474 -0.049213 -0.033680 0.000000 0.000000 0.000000
# 2 -0.049213 0.066474 -0.033680 0.000000 0.000000 0.000000
# 3 -0.033680 -0.033680 0.199346 0.000000 0.000000 0.000000
# 4 0.000000 0.000000 0.000000 0.054663 0.000000 0.000000
# 5 0.000000 0.000000 0.000000 0.000000 0.054663 0.000000
# 6 0.000000 0.000000 0.000000 0.000000 0.000000 0.035094
#
#
# Mechanical properties :
#
#
# Convention : Reuss Voigt Hill
#
# Bulk Modulus (GPa) = 10.08578 52.19048 31.13813
# Shear Modulus (GPa) = 6.73028 16.70001 11.71515
#
# Velocity S-wave (km/s) = 1.84703 2.90949 2.43687
# Velocity P-wave (km/s) = 3.10823 6.14343 4.86841
#
# Compressibility (1/GPa) = 0.09914951
#
# Stress axis : x y z
#
# Youngs Moduli (GPa) = 15.04341 15.04341 5.01639
#
# Poissons Ratio (x) = 0.74033 0.16895
# Poissons Ratio (y) = 0.74033 0.16895
# Poissons Ratio (z) = 0.50666 0.50666
#
# Static dielectric constant tensor:
#      x y z
#    x 1.708520 0.000000 0.000000 
#    y 0.000000 1.708520 0.000000 
#    z 0.000000 0.000000 1.669460 
# 
# From -- ./inp_files/2043.got.cif
#   From: 2010.05.17/outbox.cif.g08.bks.cpg/sg127_2_cif.got.tgz:2043.got - 2010.05.20 12:03:00.
