data_PCOD9564712
_publ_section_title
;
Structure prediction by ZEFSAII (Michael W. Deem and Ramdas Pophale) SiO2 
 PCOD9564712
Probable space group: P 4/M N C
;
_chemical_formula_sum "Si O2"
_cell_formula_units_Z 120
_cell_length_a 25.519452
_cell_length_b 25.519452
_cell_length_c 9.840963
_cell_angle_alpha 90.000000
_cell_angle_beta 90.000000
_cell_angle_gamma 90.000000
_cell_volume 6408.852661
_symmetry_space_group_name_H-M "P 4/M N C"
_symmetry_group_IT_number 128
_symmetry_cell_setting 'tetragonal'
loop_
_space_group_symop_operation_xyz
x,y,z
-y,x,z
-x,-y,z
y,-x,z
1/2+x,1/2-y,1/2-z
1/2-x,1/2+y,1/2-z
1/2+y,1/2+x,1/2-z
1/2-y,1/2-x,1/2-z
-x,-y,-z
y,-x,-z
x,y,-z
-y,x,-z
1/2-x,1/2+y,1/2+z
1/2+x,1/2-y,1/2+z
1/2-y,1/2-x,1/2+z
1/2+y,1/2+x,1/2+z
loop_
_atom_site_type_symbol
_atom_site_label
_atom_site_fract_x
_atom_site_fract_y
_atom_site_fract_z
Si Si1 0.475359 0.204427 0.341337
Si Si2 0.621377 0.056401 0.845387
Si Si3 0.495580 0.410118 0.500000
Si Si4 0.355743 0.217035 0.339737
Si Si5 0.122054 0.811784 0.648399
Si Si6 0.206174 0.903177 0.352260
Si Si7 0.326132 0.510529 0.745674
Si Si8 0.144629 0.289785 0.845914
O O1 0.488936 0.203603 0.500000
O O2 0.511466 0.158718 0.281332
O O3 0.414021 0.192841 0.325417
O O4 0.484899 0.264629 0.299308
O O5 0.573920 0.073920 0.750000
O O6 0.660267 0.106362 0.856154
O O7 0.604692 0.043072 0.000000
O O8 0.548385 0.446576 0.500000
O O9 0.493372 0.369907 0.627881
O O10 0.314988 0.185013 0.250000
O O11 0.342860 0.219581 0.500000
O O12 0.362321 0.273734 0.271044
O O13 0.122531 0.784380 0.500000
O O14 0.163860 0.857525 0.645487
O O15 0.064226 0.834390 0.673478
O O16 0.233846 0.904671 0.500000
O O17 0.245665 0.888837 0.231346
O O18 0.175642 0.957145 0.329404
O O19 0.193057 0.306944 0.750000
O O20 0.159901 0.274774 0.000000
#
# Coordination Sequence:
#
# PCOD9564712 Si02
#       8
#    16  16   8  16  16  16  16  16
#     4   9  17  33  56  84 111 146 191 235 283 341
#     4   9  17  31  49  77 112 145 181 228 280 337
#     4  11  24  38  58  90 122 152 196 257 318 378
#     4  10  21  38  62  87 117 154 195 243 293 348
#     4  10  23  40  58  84 115 150 194 241 296 358
#     4  11  23  37  57  83 113 151 194 241 294 354
#     4  11  20  38  59  81 112 151 191 243 297 357
#     4  10  20  34  54  80 115 152 187 232 286 350
#
# _framework density 18.724101000000001
#
# number of rings (size 3 to 8) (size 9 to 14) (size 15 to 20)
#    0.000    1.933    2.000    2.000    1.867    1.600 
#    0.000    1.333    0.000    0.400    0.000    8.400 
#    0.000    0.000    0.000    0.000    0.000    0.000 
#
# Total GULP energy -668596.177724 kJ/mol
# GULP energy per Si atom -5571.634814 kJ/mol
# Density = 1.868148 g / cm^3
# Si number density = 18.724101 Si / 1000 Ang^3
#
#
#
# Elastic Constant Matrix: (Units=GPa)
#
#
# Indices 1 2 3 4 5 6 
#
# 1 38.4026 19.5524 36.8556 0.0000 0.0000 0.0000
# 2 19.5524 38.4033 36.8525 0.0000 0.0000 0.0000
# 3 36.8556 36.8525 128.2428 0.0000 0.0000 0.0000
# 4 0.0000 0.0000 0.0000 21.0635 0.0000 0.0000
# 5 0.0000 0.0000 0.0000 0.0000 21.0641 0.0000
# 6 0.0000 0.0000 0.0000 0.0000 0.0000 21.9640
#
#
#
# Elastic Compliance Matrix: (Units=1/GPa)
#
#
# Indices 1 2 3 4 5 6 
#
# 1 0.040123 -0.012928 -0.007816 0.000000 0.000000 0.000000
# 2 -0.012928 0.040119 -0.007814 0.000000 0.000000 0.000000
# 3 -0.007816 -0.007814 0.012289 0.000000 0.000000 0.000000
# 4 0.000000 0.000000 0.000000 0.047476 0.000000 0.000000
# 5 0.000000 0.000000 0.000000 0.000000 0.047474 0.000000
# 6 0.000000 0.000000 0.000000 0.000000 0.000000 0.045529
#
#
# Mechanical properties :
#
#
# Convention : Reuss Voigt Hill
#
# Bulk Modulus (GPa) = 28.23484 43.50775 35.87129
# Shear Modulus (GPa) = 16.56009 20.27086 18.41548
#
# Velocity S-wave (km/s) = 2.97716 3.29387 3.13951
# Velocity P-wave (km/s) = 5.18942 6.14433 5.68695
#
# Compressibility (1/GPa) = 0.03541724
#
# Stress axis : x y z
#
# Youngs Moduli (GPa) = 24.92336 24.92562 81.37152
#
# Poissons Ratio (x) = 0.32223 0.63600
# Poissons Ratio (y) = 0.32220 0.63581
# Poissons Ratio (z) = 0.19480 0.19476
#
# Static dielectric constant tensor:
#      x y z
#    x 1.659910 0.000000 0.000000 
#    y 0.000000 1.659910 0.000000 
#    z 0.000000 0.000000 1.692450 
# 
# From -- ./inp_files/1808.got.cif
#   From: 2010.05.17/outbox.cif.g08.bks.cpg/sg128_1_cif.got.tgz:1808.got - 2010.05.20 12:07:25.
