data_PCOD9564179
_publ_section_title
;
Structure prediction by ZEFSAII (Michael W. Deem and Ramdas Pophale) SiO2 
 PCOD9564179
Probable space group: P 4/M B M
;
_chemical_formula_sum "Si O2"
_cell_formula_units_Z 96
_cell_length_a 23.071482
_cell_length_b 23.071482
_cell_length_c 9.100532
_cell_angle_alpha 90.000000
_cell_angle_beta 90.000000
_cell_angle_gamma 90.000000
_cell_volume 4844.152043
_symmetry_space_group_name_H-M "P 4/M B M"
_symmetry_group_IT_number 127
_symmetry_cell_setting 'tetragonal'
loop_
_space_group_symop_operation_xyz
x,y,z
-y,x,z
-x,-y,z
y,-x,z
1/2+x,1/2-y,-z
1/2-x,1/2+y,-z
1/2+y,1/2+x,-z
1/2-y,1/2-x,-z
-x,-y,-z
y,-x,-z
x,y,-z
-y,x,-z
1/2-x,1/2+y,z
1/2+x,1/2-y,z
1/2-y,1/2-x,z
1/2+y,1/2+x,z
loop_
_atom_site_type_symbol
_atom_site_label
_atom_site_fract_x
_atom_site_fract_y
_atom_site_fract_z
Si Si1 0.223576 0.107536 0.824698
Si Si2 0.470635 0.592497 0.167249
Si Si3 0.808532 0.308532 0.666531
Si Si4 0.092588 0.592588 0.332641
Si Si5 0.318519 0.010129 0.823465
Si Si6 0.291585 0.887509 0.676850
Si Si7 0.841687 0.116939 0.326833
O O1 0.257536 0.162079 0.756410
O O2 0.262543 0.051063 0.787762
O O3 0.160745 0.115102 0.755077
O O4 0.220068 0.110531 0.000000
O O5 0.431200 0.535167 0.184470
O O6 0.447603 0.639999 0.278844
O O7 0.464354 0.614469 0.000000
O O8 0.791713 0.291713 0.500000
O O9 0.857906 0.357906 0.657073
O O10 0.076386 0.576386 0.500000
O O11 0.124722 0.540864 0.246562
O O12 0.309485 0.946729 0.756988
O O13 0.323812 0.008716 0.000000
O O14 0.293566 0.896599 0.500000
O O15 0.335622 0.835622 0.713081
O O16 0.225107 0.872790 0.715327
O O17 0.847568 0.124904 0.500000
#
# Coordination Sequence:
#
# PCOD9564179 Si02
#       7
#    16  16   8   8  16  16  16
#     4  10  21  36  56  86 119 155 197 246 303 363
#     4   9  20  40  63  86 118 158 197 244 304 366
#     4   9  17  31  53  82 116 151 189 240 295 350
#     4   9  17  33  60  92 123 157 195 242 307 369
#     4  10  21  38  63  93 125 159 203 260 312 367
#     4  10  24  45  63  84 122 168 209 253 310 372
#     4  11  24  38  59  88 118 158 208 259 308 366
#
# _framework density 19.817710999999999
#
# number of rings (size 3 to 8) (size 9 to 14) (size 15 to 20)
#    0.000    2.167    0.000    2.500    3.500    6.333 
#    0.000    1.250    0.000    2.500    0.000    0.000 
#    0.000    0.000    0.000    0.000    0.000    0.000 
#
# Total GULP energy -535991.065014 kJ/mol
# GULP energy per Si atom -5583.240261 kJ/mol
# Density = 1.977260 g / cm^3
# Si number density = 19.817711 Si / 1000 Ang^3
#
#
#
# Elastic Constant Matrix: (Units=GPa)
#
#
# Indices 1 2 3 4 5 6 
#
# 1 74.9436 48.6395 48.1251 0.0000 0.0000 0.0000
# 2 48.6395 74.9436 48.1251 0.0000 0.0000 0.0000
# 3 48.1251 48.1251 71.4339 0.0000 0.0000 0.0000
# 4 0.0000 0.0000 0.0000 25.1440 0.0000 0.0000
# 5 0.0000 0.0000 0.0000 0.0000 25.1440 0.0000
# 6 0.0000 0.0000 0.0000 0.0000 0.0000 29.3169
#
#
#
# Elastic Compliance Matrix: (Units=1/GPa)
#
#
# Indices 1 2 3 4 5 6 
#
# 1 0.027521 -0.010496 -0.011469 0.000000 0.000000 0.000000
# 2 -0.010496 0.027521 -0.011469 0.000000 0.000000 0.000000
# 3 -0.011469 -0.011469 0.029453 0.000000 0.000000 0.000000
# 4 0.000000 0.000000 0.000000 0.039771 0.000000 0.000000
# 5 0.000000 0.000000 0.000000 0.000000 0.039771 0.000000
# 6 0.000000 0.000000 0.000000 0.000000 0.000000 0.034110
#
#
# Mechanical properties :
#
#
# Convention : Reuss Voigt Hill
#
# Bulk Modulus (GPa) = 56.74027 56.78893 56.76460
# Shear Modulus (GPa) = 18.45763 21.01639 19.73701
#
# Velocity S-wave (km/s) = 3.05515 3.26004 3.15926
# Velocity P-wave (km/s) = 6.41393 6.54892 6.48178
#
# Compressibility (1/GPa) = 0.01762417
#
# Stress axis : x y z
#
# Youngs Moduli (GPa) = 36.33638 36.33638 33.95264
#
# Poissons Ratio (x) = 0.38139 0.38942
# Poissons Ratio (y) = 0.38139 0.38942
# Poissons Ratio (z) = 0.41676 0.41676
#
# Static dielectric constant tensor:
#      x y z
#    x 1.755800 0.000000 0.000000 
#    y 0.000000 1.755800 0.000000 
#    z 0.000000 0.000000 1.672260 
# 
# From -- ./inp_files/2073.got.cif
#   From: 2010.05.17/outbox.cif.g08.bks.cpg/sg127_2_cif.got.tgz:2073.got - 2010.05.20 12:03:00.
