data_PCOD9564476
_publ_section_title
;
Structure prediction by ZEFSAII (Michael W. Deem and Ramdas Pophale) SiO2 
 PCOD9564476
Probable space group: P 4/M B M
;
_chemical_formula_sum "Si O2"
_cell_formula_units_Z 56
_cell_length_a 15.604534
_cell_length_b 15.604534
_cell_length_c 10.496701
_cell_angle_alpha 90.000000
_cell_angle_beta 90.000000
_cell_angle_gamma 90.000000
_cell_volume 2555.962243
_symmetry_space_group_name_H-M "P 4/M B M"
_symmetry_group_IT_number 127
_symmetry_cell_setting 'tetragonal'
loop_
_space_group_symop_operation_xyz
x,y,z
-y,x,z
-x,-y,z
y,-x,z
1/2+x,1/2-y,-z
1/2-x,1/2+y,-z
1/2+y,1/2+x,-z
1/2-y,1/2-x,-z
-x,-y,-z
y,-x,-z
x,y,-z
-y,x,-z
1/2-x,1/2+y,z
1/2+x,1/2-y,z
1/2-y,1/2-x,z
1/2+y,1/2+x,z
loop_
_atom_site_type_symbol
_atom_site_label
_atom_site_fract_x
_atom_site_fract_y
_atom_site_fract_z
Si Si1 0.670984 0.975539 0.142960
Si Si2 0.830681 0.186747 0.857432
Si Si3 0.125595 0.928445 0.362226
Si Si4 0.926091 0.573910 0.351909
O O1 0.591124 0.908877 0.137859
O O2 0.753661 0.914994 0.159996
O O3 0.649487 0.034743 0.263742
O O4 0.674687 0.015843 0.000000
O O5 0.750636 0.250636 0.846591
O O6 0.826888 0.112487 0.755422
O O7 0.834430 0.151599 0.000000
O O8 0.163991 0.906248 0.500000
O O9 0.029779 0.888659 0.357371
O O10 0.905204 0.594797 0.500000
O O11 0.000000 0.500000 0.358428
#
# Coordination Sequence:
#
# PCOD9564476 Si02
#       4
#    16  16  16   8
#     4   8  14  25  40  59  88 127 164 200 248 302
#     4   9  18  32  52  80 110 138 174 221 270 322
#     4   9  19  36  57  81 109 141 179 224 271 320
#     4   9  15  21  33  57  87 119 163 213 249 289
#
# _framework density 21.909555999999998
#
# number of rings (size 3 to 8) (size 9 to 14) (size 15 to 20)
#    0.000    3.286    0.000    3.000    0.000    4.571 
#    0.000    4.286    3.143    0.000    0.000    0.000 
#    0.000    0.000    0.000    0.000    0.000    0.000 
#
# Total GULP energy -312676.888138 kJ/mol
# GULP energy per Si atom -5583.515860 kJ/mol
# Density = 2.185969 g / cm^3
# Si number density = 21.909556 Si / 1000 Ang^3
#
#
#
# Elastic Constant Matrix: (Units=GPa)
#
#
# Indices 1 2 3 4 5 6 
#
# 1 45.5998 25.2679 52.9080 0.0000 0.0000 0.0000
# 2 25.2679 45.5999 52.9081 0.0000 0.0000 0.0000
# 3 52.9080 52.9081 188.3508 0.0000 0.0000 0.0000
# 4 0.0000 0.0000 0.0000 18.2227 0.0000 0.0000
# 5 0.0000 0.0000 0.0000 0.0000 18.2228 0.0000
# 6 0.0000 0.0000 0.0000 0.0000 0.0000 19.5497
#
#
#
# Elastic Compliance Matrix: (Units=1/GPa)
#
#
# Indices 1 2 3 4 5 6 
#
# 1 0.036744 -0.012439 -0.006827 0.000000 0.000000 0.000000
# 2 -0.012439 0.036744 -0.006827 0.000000 0.000000 0.000000
# 3 -0.006827 -0.006827 0.009145 0.000000 0.000000 0.000000
# 4 0.000000 0.000000 0.000000 0.054876 0.000000 0.000000
# 5 0.000000 0.000000 0.000000 0.000000 0.054876 0.000000
# 6 0.000000 0.000000 0.000000 0.000000 0.000000 0.051152
#
#
# Mechanical properties :
#
#
# Convention : Reuss Voigt Hill
#
# Bulk Modulus (GPa) = 32.84550 60.19096 46.51823
# Shear Modulus (GPa) = 16.34657 21.09681 18.72169
#
# Velocity S-wave (km/s) = 2.73443 3.10644 2.92635
# Velocity P-wave (km/s) = 4.99935 6.35600 5.71805
#
# Compressibility (1/GPa) = 0.03044557
#
# Stress axis : x y z
#
# Youngs Moduli (GPa) = 27.21504 27.21514 109.35119
#
# Poissons Ratio (x) = 0.33854 0.74658
# Poissons Ratio (y) = 0.33854 0.74657
# Poissons Ratio (z) = 0.18581 0.18581
#
# Static dielectric constant tensor:
#      x y z
#    x 1.801350 0.000000 0.000000 
#    y 0.000000 1.801350 0.000000 
#    z 0.000000 0.000000 1.799210 
# 
# From -- ./inp_files/1068.got.cif
#   From: 2010.05.17/outbox.cif.g08.bks.cpg/sg127_1_cif.got.tgz:1068.got - 2010.05.20 12:03:00.
