data_PCOD9564530
_publ_section_title
;
Structure prediction by ZEFSAII (Michael W. Deem and Ramdas Pophale) SiO2 
 PCOD9564530
Probable space group: P 4/M N C
;
_chemical_formula_sum "Si O2"
_cell_formula_units_Z 48
_cell_length_a 16.947524
_cell_length_b 16.947524
_cell_length_c 8.684446
_cell_angle_alpha 90.000000
_cell_angle_beta 90.000000
_cell_angle_gamma 90.000000
_cell_volume 2494.334159
_symmetry_space_group_name_H-M "P 4/M N C"
_symmetry_group_IT_number 128
_symmetry_cell_setting 'tetragonal'
loop_
_space_group_symop_operation_xyz
x,y,z
-y,x,z
-x,-y,z
y,-x,z
1/2+x,1/2-y,1/2-z
1/2-x,1/2+y,1/2-z
1/2+y,1/2+x,1/2-z
1/2-y,1/2-x,1/2-z
-x,-y,-z
y,-x,-z
x,y,-z
-y,x,-z
1/2-x,1/2+y,1/2+z
1/2+x,1/2-y,1/2+z
1/2-y,1/2-x,1/2+z
1/2+y,1/2+x,1/2+z
loop_
_atom_site_type_symbol
_atom_site_label
_atom_site_fract_x
_atom_site_fract_y
_atom_site_fract_z
Si Si1 0.577373 0.395563 0.183996
Si Si2 0.993618 0.379692 0.315985
Si Si3 0.111159 0.265253 0.817875
O O1 0.605969 0.483798 0.219846
O O2 0.619775 0.325679 0.273177
O O3 0.586039 0.383872 0.000000
O O4 0.057611 0.442390 0.250000
O O5 0.992830 0.382732 0.500000
O O6 0.029697 0.297735 0.257554
O O7 0.910375 0.410375 0.250000
O O8 0.181820 0.318181 0.750000
O O9 0.107625 0.277153 0.000000
#
# Coordination Sequence:
#
# PCOD9564530 Si02
#       3
#    16  16  16
#     4   9  19  38  62  84 108 141 180 222 270 324
#     4  10  17  28  46  70 102 139 179 218 262 318
#     4  11  21  34  54  81 113 146 182 225 273 323
#
# _framework density 19.243614000000001
#
# number of rings (size 3 to 8) (size 9 to 14) (size 15 to 20)
#    0.000    2.000    0.000   10.000    0.000    1.333 
#    0.000    3.333    0.000    8.000    0.000    0.000 
#    0.000    0.000    0.000    0.000    0.000    0.000 
#
# Total GULP energy -267874.444955 kJ/mol
# GULP energy per Si atom -5580.717603 kJ/mol
# Density = 1.919981 g / cm^3
# Si number density = 19.243614 Si / 1000 Ang^3
#
#
#
# Elastic Constant Matrix: (Units=GPa)
#
#
# Indices 1 2 3 4 5 6 
#
# 1 61.6375 21.1663 36.4344 0.0000 0.0000 0.0000
# 2 21.1663 61.6384 36.4338 0.0000 0.0000 0.0000
# 3 36.4344 36.4338 147.3394 0.0000 0.0000 0.0000
# 4 0.0000 0.0000 0.0000 36.3499 0.0000 0.0000
# 5 0.0000 0.0000 0.0000 0.0000 36.3484 0.0000
# 6 0.0000 0.0000 0.0000 0.0000 0.0000 9.2102
#
#
#
# Elastic Compliance Matrix: (Units=1/GPa)
#
#
# Indices 1 2 3 4 5 6 
#
# 1 0.020072 -0.004637 -0.003817 0.000000 0.000000 0.000000
# 2 -0.004637 0.020072 -0.003817 0.000000 0.000000 0.000000
# 3 -0.003817 -0.003817 0.008675 0.000000 0.000000 0.000000
# 4 0.000000 0.000000 0.000000 0.027510 0.000000 0.000000
# 5 0.000000 0.000000 0.000000 0.000000 0.027512 0.000000
# 6 0.000000 0.000000 0.000000 0.000000 0.000000 0.108575
#
#
# Mechanical properties :
#
#
# Convention : Reuss Voigt Hill
#
# Bulk Modulus (GPa) = 41.18914 50.96493 46.07704
# Shear Modulus (GPa) = 20.40407 28.15377 24.27892
#
# Velocity S-wave (km/s) = 3.25976 3.82909 3.55584
# Velocity P-wave (km/s) = 5.96813 6.78902 6.39177
#
# Compressibility (1/GPa) = 0.02427824
#
# Stress axis : x y z
#
# Youngs Moduli (GPa) = 49.81984 49.82092 115.27715
#
# Poissons Ratio (x) = 0.23100 0.44001
# Poissons Ratio (y) = 0.23099 0.43999
# Poissons Ratio (z) = 0.19016 0.19016
#
# Static dielectric constant tensor:
#      x y z
#    x 1.714430 0.000000 0.000000 
#    y 0.000000 1.714420 0.000000 
#    z 0.000000 0.000000 1.642740 
# 
# From -- ./inp_files/622.got.cif
#   From: 2010.05.17/outbox.cif.g08.bks.cpg/sg128_1_cif.got.tgz:622.got - 2010.05.20 12:07:25.
