data_PCOD9564658
_publ_section_title
;
Structure prediction by ZEFSAII (Michael W. Deem and Ramdas Pophale) SiO2 
 PCOD9564658
Probable space group: P 4/M N C
;
_chemical_formula_sum "Si O2"
_cell_formula_units_Z 72
_cell_length_a 15.114818
_cell_length_b 15.114818
_cell_length_c 16.632287
_cell_angle_alpha 90.000000
_cell_angle_beta 90.000000
_cell_angle_gamma 90.000000
_cell_volume 3799.774419
_symmetry_space_group_name_H-M "P 4/M N C"
_symmetry_group_IT_number 128
_symmetry_cell_setting 'tetragonal'
loop_
_space_group_symop_operation_xyz
x,y,z
-y,x,z
-x,-y,z
y,-x,z
1/2+x,1/2-y,1/2-z
1/2-x,1/2+y,1/2-z
1/2+y,1/2+x,1/2-z
1/2-y,1/2-x,1/2-z
-x,-y,-z
y,-x,-z
x,y,-z
-y,x,-z
1/2-x,1/2+y,1/2+z
1/2+x,1/2-y,1/2+z
1/2-y,1/2-x,1/2+z
1/2+y,1/2+x,1/2+z
loop_
_atom_site_type_symbol
_atom_site_label
_atom_site_fract_x
_atom_site_fract_y
_atom_site_fract_z
Si Si1 0.166725 0.474112 0.219894
Si Si2 0.420356 0.257101 0.358191
Si Si3 0.329163 0.683452 0.774338
Si Si4 0.390329 0.211262 0.907740
Si Si5 0.001261 0.148599 0.000000
O O1 0.085114 0.414887 0.250000
O O2 0.191520 0.539537 0.292019
O O3 0.252124 0.410436 0.210195
O O4 0.158881 0.531564 0.138951
O O5 0.379030 0.335939 0.303934
O O6 0.346416 0.199844 0.404019
O O7 0.492010 0.291923 0.420822
O O8 0.247414 0.747414 0.750000
O O9 0.297194 0.629374 0.852296
O O10 0.412155 0.230253 0.000000
O O11 0.914289 0.085802 0.000000
#
# Coordination Sequence:
#
# PCOD9564658 Si02
#       5
#    16  16  16  16   8
#     4  10  20  36  56  82 108 143 191 230 270 330
#     4  10  19  36  54  76 111 147 180 221 280 341
#     4   8  17  33  55  75 101 142 186 224 265 324
#     4  10  20  35  55  79 110 149 181 226 284 331
#     4  11  22  34  54  83 110 138 180 235 284 326
#
# _framework density 18.948494
#
# number of rings (size 3 to 8) (size 9 to 14) (size 15 to 20)
#    0.000    2.333    1.111    3.333    0.000    2.667 
#    2.000    1.111    0.000    6.000    0.000    6.222 
#    0.000    0.000    0.000    0.000    0.000    0.000 
#
# Total GULP energy -401398.068665 kJ/mol
# GULP energy per Si atom -5574.973176 kJ/mol
# Density = 1.890537 g / cm^3
# Si number density = 18.948494 Si / 1000 Ang^3
#
#
#
# Elastic Constant Matrix: (Units=GPa)
#
#
# Indices 1 2 3 4 5 6 
#
# 1 40.1783 6.9264 21.6876 0.0000 0.0000 0.0000
# 2 6.9264 40.1778 21.6872 0.0000 0.0000 0.0000
# 3 21.6876 21.6872 145.3097 0.0000 0.0000 0.0000
# 4 0.0000 0.0000 0.0000 15.5552 0.0000 0.0000
# 5 0.0000 0.0000 0.0000 0.0000 15.5551 0.0000
# 6 0.0000 0.0000 0.0000 0.0000 0.0000 31.6856
#
#
#
# Elastic Compliance Matrix: (Units=1/GPa)
#
#
# Indices 1 2 3 4 5 6 
#
# 1 0.027343 -0.002731 -0.003673 0.000000 0.000000 0.000000
# 2 -0.002731 0.027343 -0.003673 0.000000 0.000000 0.000000
# 3 -0.003673 -0.003673 0.007978 0.000000 0.000000 0.000000
# 4 0.000000 0.000000 0.000000 0.064287 0.000000 0.000000
# 5 0.000000 0.000000 0.000000 0.000000 0.064288 0.000000
# 6 0.000000 0.000000 0.000000 0.000000 0.000000 0.031560
#
#
# Mechanical properties :
#
#
# Convention : Reuss Voigt Hill
#
# Bulk Modulus (GPa) = 23.52453 36.25201 29.88827
# Shear Modulus (GPa) = 19.44592 24.25015 21.84803
#
# Velocity S-wave (km/s) = 3.20699 3.58130 3.39930
# Velocity P-wave (km/s) = 5.11420 6.02282 5.58701
#
# Compressibility (1/GPa) = 0.04250883
#
# Stress axis : x y z
#
# Youngs Moduli (GPa) = 36.57295 36.57250 125.33952
#
# Poissons Ratio (x) = 0.09988 0.46041
# Poissons Ratio (y) = 0.09988 0.46041
# Poissons Ratio (z) = 0.13434 0.13434
#
# Static dielectric constant tensor:
#      x y z
#    x 1.688490 0.000000 0.000000 
#    y 0.000000 1.688490 0.000000 
#    z 0.000000 0.000000 1.652830 
# 
# From -- ./inp_files/4541.got.cif
#   From: 2010.05.17/outbox.cif.g08.bks.cpg/sg128_3_cif.got.tgz:4541.got - 2010.05.20 12:07:25.
