data_PCOD9564140
_publ_section_title
;
Structure prediction by ZEFSAII (Michael W. Deem and Ramdas Pophale) SiO2 
 PCOD9564140
Probable space group: P 4/M B M
;
_chemical_formula_sum "Si O2"
_cell_formula_units_Z 96
_cell_length_a 17.307541
_cell_length_b 17.307541
_cell_length_c 17.137141
_cell_angle_alpha 90.000000
_cell_angle_beta 90.000000
_cell_angle_gamma 90.000000
_cell_volume 5133.447303
_symmetry_space_group_name_H-M "P 4/M B M"
_symmetry_group_IT_number 127
_symmetry_cell_setting 'tetragonal'
loop_
_space_group_symop_operation_xyz
x,y,z
-y,x,z
-x,-y,z
y,-x,z
1/2+x,1/2-y,-z
1/2-x,1/2+y,-z
1/2+y,1/2+x,-z
1/2-y,1/2-x,-z
-x,-y,-z
y,-x,-z
x,y,-z
-y,x,-z
1/2-x,1/2+y,z
1/2+x,1/2-y,z
1/2-y,1/2-x,z
1/2+y,1/2+x,z
loop_
_atom_site_type_symbol
_atom_site_label
_atom_site_fract_x
_atom_site_fract_y
_atom_site_fract_z
Si Si1 0.912879 0.715548 0.588100
Si Si2 0.382343 0.545528 0.905890
Si Si3 0.391146 0.232931 0.819495
Si Si4 0.833574 0.214144 0.346120
Si Si5 0.000205 0.627988 0.718194
Si Si6 0.612467 0.453625 0.407033
O O1 0.935612 0.742460 0.500000
O O2 0.858833 0.641168 0.577344
O O3 0.855816 0.776834 0.629673
O O4 0.976572 0.683969 0.647535
O O5 0.402933 0.457125 0.882068
O O6 0.302096 0.576993 0.872229
O O7 0.379416 0.546673 0.000000
O O8 0.327083 0.172918 0.853214
O O9 0.349906 0.273451 0.744918
O O10 0.461533 0.180449 0.785795
O O11 0.791624 0.291624 0.375342
O O12 0.914201 0.190786 0.383262
O O13 0.067287 0.567287 0.694965
O O14 0.925302 0.574699 0.739782
O O15 0.596629 0.539534 0.377950
O O16 0.607518 0.453778 0.500000
#
# Coordination Sequence:
#
# PCOD9564140 Si02
#       6
#    16  16  16  16  16  16
#     4   9  18  32  50  72 102 145 192 241 295 340
#     4   9  20  40  65  93 122 152 188 229 276 337
#     4  10  22  37  57  88 119 152 192 235 288 346
#     4  10  21  34  49  75 107 138 180 230 279 335
#     4   9  19  36  56  80 112 150 196 246 290 338
#     4   9  19  34  50  68  92 129 178 229 279 332
#
# _framework density 18.700882
#
# number of rings (size 3 to 8) (size 9 to 14) (size 15 to 20)
#    0.000    2.667    0.000    1.500    4.667    1.667 
#    0.000    4.167    0.000    7.500    0.000    2.333 
#    0.000    0.000    0.000    0.000    0.000    0.000 
#
# Total GULP energy -534742.541175 kJ/mol
# GULP energy per Si atom -5570.234804 kJ/mol
# Density = 1.865832 g / cm^3
# Si number density = 18.700882 Si / 1000 Ang^3
#
#
#
# Elastic Constant Matrix: (Units=GPa)
#
#
# Indices 1 2 3 4 5 6 
#
# 1 116.6444 88.3148 40.1858 0.0000 0.0000 0.0000
# 2 88.3148 116.6444 40.1858 0.0000 0.0000 0.0000
# 3 40.1858 40.1858 35.8739 0.0000 0.0000 0.0000
# 4 0.0000 0.0000 0.0000 24.0208 0.0000 0.0000
# 5 0.0000 0.0000 0.0000 0.0000 24.0208 0.0000
# 6 0.0000 0.0000 0.0000 0.0000 0.0000 47.8102
#
#
#
# Elastic Compliance Matrix: (Units=1/GPa)
#
#
# Indices 1 2 3 4 5 6 
#
# 1 0.022000 -0.013299 -0.009747 0.000000 0.000000 0.000000
# 2 -0.013299 0.022000 -0.009747 0.000000 0.000000 0.000000
# 3 -0.009747 -0.009747 0.049713 0.000000 0.000000 0.000000
# 4 0.000000 0.000000 0.000000 0.041631 0.000000 0.000000
# 5 0.000000 0.000000 0.000000 0.000000 0.041631 0.000000
# 6 0.000000 0.000000 0.000000 0.000000 0.000000 0.020916
#
#
# Mechanical properties :
#
#
# Convention : Reuss Voigt Hill
#
# Bulk Modulus (GPa) = 35.55325 67.39285 51.47305
# Shear Modulus (GPa) = 18.32502 25.86878 22.09690
#
# Velocity S-wave (km/s) = 3.13373 3.72330 3.44117
# Velocity P-wave (km/s) = 5.66979 7.38914 6.58582
#
# Compressibility (1/GPa) = 0.02812682
#
# Stress axis : x y z
#
# Youngs Moduli (GPa) = 45.45466 45.45466 20.11564
#
# Poissons Ratio (x) = 0.60449 0.19607
# Poissons Ratio (y) = 0.60449 0.19607
# Poissons Ratio (z) = 0.44305 0.44305
#
# Static dielectric constant tensor:
#      x y z
#    x 1.693080 0.000000 0.000000 
#    y 0.000000 1.693080 0.000000 
#    z 0.000000 0.000000 1.630520 
# 
# From -- ./inp_files/5107.got.cif
#   From: 2010.05.17/outbox.cif.g08.bks.cpg/sg127_3_cif.got.tgz:5107.got - 2010.05.20 12:03:00.
