data_PCOD9564611
_publ_section_title
;
Structure prediction by ZEFSAII (Michael W. Deem and Ramdas Pophale) SiO2 
 PCOD9564611
Probable space group: P 4/M N C
;
_chemical_formula_sum "Si O2"
_cell_formula_units_Z 88
_cell_length_a 18.678178
_cell_length_b 18.678178
_cell_length_c 14.015608
_cell_angle_alpha 90.000000
_cell_angle_beta 90.000000
_cell_angle_gamma 90.000000
_cell_volume 4889.685898
_symmetry_space_group_name_H-M "P 4/M N C"
_symmetry_group_IT_number 128
_symmetry_cell_setting 'tetragonal'
loop_
_space_group_symop_operation_xyz
x,y,z
-y,x,z
-x,-y,z
y,-x,z
1/2+x,1/2-y,1/2-z
1/2-x,1/2+y,1/2-z
1/2+y,1/2+x,1/2-z
1/2-y,1/2-x,1/2-z
-x,-y,-z
y,-x,-z
x,y,-z
-y,x,-z
1/2-x,1/2+y,1/2+z
1/2+x,1/2-y,1/2+z
1/2-y,1/2-x,1/2+z
1/2+y,1/2+x,1/2+z
loop_
_atom_site_type_symbol
_atom_site_label
_atom_site_fract_x
_atom_site_fract_y
_atom_site_fract_z
Si Si1 0.915432 0.085773 0.392986
Si Si2 0.834321 0.665680 0.750000
Si Si3 0.938219 0.440189 0.389795
Si Si4 0.822027 0.495856 0.241714
Si Si5 0.232150 0.750512 0.886439
Si Si6 0.877548 0.211465 0.732834
O O1 0.892551 0.109037 0.500000
O O2 0.879734 0.132654 0.311379
O O3 0.001097 0.097012 0.386343
O O4 0.819905 0.581049 0.750305
O O5 0.796861 0.702711 0.841512
O O6 0.919198 0.435466 0.500000
O O7 0.870350 0.463676 0.327411
O O8 0.000000 0.500000 0.376668
O O9 0.971989 0.367011 0.351079
O O10 0.746861 0.455301 0.239390
O O11 0.162182 0.782380 0.834052
O O12 0.243091 0.671480 0.841417
O O13 0.229721 0.750759 0.000000
#
# Coordination Sequence:
#
# PCOD9564611 Si02
#       6
#    16   8  16  16  16  16
#     4   9  19  36  59  87 113 137 178 239 295 336
#     4  10  22  37  58  86 116 151 188 238 286 328
#     4  10  19  32  51  76 114 152 182 227 274 320
#     4  11  20  36  55  83 114 143 193 233 273 335
#     4  10  23  42  55  79 119 155 190 229 284 352
#     4  10  22  35  62  82 108 153 186 233 282 336
#
# _framework density 17.997066
#
# number of rings (size 3 to 8) (size 9 to 14) (size 15 to 20)
#    0.000    2.182    1.818    3.818    5.091    5.091 
#    0.000    0.000    0.000    0.000    0.000    1.273 
#    0.000    0.000    0.000    0.000    0.000    0.000 
#
# Total GULP energy -491078.667023 kJ/mol
# GULP energy per Si atom -5580.439398 kJ/mol
# Density = 1.795610 g / cm^3
# Si number density = 17.997066 Si / 1000 Ang^3
#
#
#
# Elastic Constant Matrix: (Units=GPa)
#
#
# Indices 1 2 3 4 5 6 
#
# 1 45.2085 24.2506 20.0815 0.0000 0.0000 0.0000
# 2 24.2506 45.2079 20.0812 0.0000 0.0000 0.0000
# 3 20.0815 20.0812 124.4842 0.0000 0.0000 0.0000
# 4 0.0000 0.0000 0.0000 13.4834 0.0000 0.0000
# 5 0.0000 0.0000 0.0000 0.0000 13.4846 0.0000
# 6 0.0000 0.0000 0.0000 0.0000 0.0000 29.6800
#
#
#
# Elastic Compliance Matrix: (Units=1/GPa)
#
#
# Indices 1 2 3 4 5 6 
#
# 1 0.031797 -0.015919 -0.002561 0.000000 0.000000 0.000000
# 2 -0.015919 0.031797 -0.002561 0.000000 0.000000 0.000000
# 3 -0.002561 -0.002561 0.008860 0.000000 0.000000 0.000000
# 4 0.000000 0.000000 0.000000 0.074165 0.000000 0.000000
# 5 0.000000 0.000000 0.000000 0.000000 0.074159 0.000000
# 6 0.000000 0.000000 0.000000 0.000000 0.000000 0.033693
#
#
# Mechanical properties :
#
#
# Convention : Reuss Voigt Hill
#
# Bulk Modulus (GPa) = 32.92711 38.19193 35.55952
# Shear Modulus (GPa) = 16.30387 21.36210 18.83298
#
# Velocity S-wave (km/s) = 3.01311 3.44899 3.23839
# Velocity P-wave (km/s) = 5.51731 6.09327 5.81243
#
# Compressibility (1/GPa) = 0.03037011
#
# Stress axis : x y z
#
# Youngs Moduli (GPa) = 31.44998 31.44963 112.87269
#
# Poissons Ratio (x) = 0.50063 0.28911
# Poissons Ratio (y) = 0.50064 0.28911
# Poissons Ratio (z) = 0.08056 0.08055
#
# Static dielectric constant tensor:
#      x y z
#    x 1.626530 0.000000 0.000000 
#    y 0.000000 1.626540 0.000000 
#    z 0.000000 0.000000 1.595520 
# 
# From -- ./inp_files/3854.got.cif
#   From: 2010.05.17/outbox.cif.g08.bks.cpg/sg128_2_cif.got.tgz:3854.got - 2010.05.20 12:07:25.
