data_PCOD9564947
_publ_section_title
;
Structure prediction by ZEFSAII (Michael W. Deem and Ramdas Pophale) SiO2 
 PCOD9564947
Probable space group: P 4/M N C
;
_chemical_formula_sum "Si O2"
_cell_formula_units_Z 72
_cell_length_a 12.611613
_cell_length_b 12.611613
_cell_length_c 25.011882
_cell_angle_alpha 90.000000
_cell_angle_beta 90.000000
_cell_angle_gamma 90.000000
_cell_volume 3978.209427
_symmetry_space_group_name_H-M "P 4/M N C"
_symmetry_group_IT_number 128
_symmetry_cell_setting 'tetragonal'
loop_
_space_group_symop_operation_xyz
x,y,z
-y,x,z
-x,-y,z
y,-x,z
1/2+x,1/2-y,1/2-z
1/2-x,1/2+y,1/2-z
1/2+y,1/2+x,1/2-z
1/2-y,1/2-x,1/2-z
-x,-y,-z
y,-x,-z
x,y,-z
-y,x,-z
1/2-x,1/2+y,1/2+z
1/2+x,1/2-y,1/2+z
1/2-y,1/2-x,1/2+z
1/2+y,1/2+x,1/2+z
loop_
_atom_site_type_symbol
_atom_site_label
_atom_site_fract_x
_atom_site_fract_y
_atom_site_fract_z
Si Si1 0.342912 0.583301 0.674777
Si Si2 0.267250 0.188534 0.000000
Si Si3 0.654875 0.412323 0.204032
Si Si4 0.000000 0.500000 0.586956
Si Si5 0.650345 0.819852 0.115083
Si Si6 0.947752 0.675787 0.000000
O O1 0.362364 0.457716 0.668952
O O2 0.305160 0.606811 0.735429
O O3 0.259190 0.624099 0.632523
O O4 0.333138 0.215327 0.946288
O O5 0.154983 0.249393 0.000000
O O6 0.260399 0.059435 0.000000
O O7 0.638730 0.538584 0.199801
O O8 0.727565 0.370872 0.156943
O O9 0.055386 0.595002 0.618478
O O10 0.094671 0.452989 0.550114
#
# Coordination Sequence:
#
# PCOD9564947 Si02
#       6
#    16   8  16   8  16   8
#     4   9  20  38  59  85 119 151 191 246 297 343
#     4  10  24  35  60  86 119 154 199 233 299 346
#     4   9  20  39  59  83 116 153 197 249 290 333
#     4   9  22  38  55  78 124 150 183 239 294 330
#     4  11  22  37  60  89 111 163 189 240 289 359
#     4   9  20  43  54  79 120 154 190 244 285 343
#
# _framework density 18.098595
#
# number of rings (size 3 to 8) (size 9 to 14) (size 15 to 20)
#    0.000    2.444    0.000    2.667    9.333    0.222 
#    0.000    4.444    0.000    1.333    0.000    0.000 
#    0.000    0.000    0.000    0.000    0.000    0.000 
#
# Total GULP energy -401635.128302 kJ/mol
# GULP energy per Si atom -5578.265671 kJ/mol
# Density = 1.805740 g / cm^3
# Si number density = 18.098595 Si / 1000 Ang^3
#
#
#
# Elastic Constant Matrix: (Units=GPa)
#
#
# Indices 1 2 3 4 5 6 
#
# 1 46.5397 37.3277 28.2936 0.0000 0.0000 0.0000
# 2 37.3277 46.5397 28.2936 0.0000 0.0000 0.0000
# 3 28.2936 28.2936 106.5356 0.0000 0.0000 0.0000
# 4 0.0000 0.0000 0.0000 22.5308 0.0000 0.0000
# 5 0.0000 0.0000 0.0000 0.0000 22.5308 0.0000
# 6 0.0000 0.0000 0.0000 0.0000 0.0000 18.0189
#
#
#
# Elastic Compliance Matrix: (Units=1/GPa)
#
#
# Indices 1 2 3 4 5 6 
#
# 1 0.061541 -0.047014 -0.003858 0.000000 0.000000 0.000000
# 2 -0.047014 0.061541 -0.003858 0.000000 0.000000 0.000000
# 3 -0.003858 -0.003858 0.011436 0.000000 0.000000 0.000000
# 4 0.000000 0.000000 0.000000 0.044384 0.000000 0.000000
# 5 0.000000 0.000000 0.000000 0.000000 0.044384 0.000000
# 6 0.000000 0.000000 0.000000 0.000000 0.000000 0.055497
#
#
# Mechanical properties :
#
#
# Convention : Reuss Voigt Hill
#
# Bulk Modulus (GPa) = 39.90879 43.04941 41.47910
# Shear Modulus (GPa) = 12.60736 19.66278 16.13507
#
# Velocity S-wave (km/s) = 2.64217 3.29967 2.98905
# Velocity P-wave (km/s) = 5.60417 6.19313 5.90599
#
# Compressibility (1/GPa) = 0.02505714
#
# Stress axis : x y z
#
# Youngs Moduli (GPa) = 16.24944 16.24944 87.44536
#
# Poissons Ratio (x) = 0.76395 0.33736
# Poissons Ratio (y) = 0.76395 0.33736
# Poissons Ratio (z) = 0.06269 0.06269
#
# Static dielectric constant tensor:
#      x y z
#    x 1.599110 0.000000 0.000000 
#    y 0.000000 1.599110 0.000000 
#    z 0.000000 0.000000 1.644020 
# 
# From -- ./inp_files/6799.got.cif
#   From: 2010.05.17/outbox.cif.g08.bks.cpg/sg128_4_cif.got.tgz:6799.got - 2010.05.20 12:07:25.
