data_PCOD9564397
_publ_section_title
;
Structure prediction by ZEFSAII (Michael W. Deem and Ramdas Pophale) SiO2 
 PCOD9564397
Probable space group: P 4/M B M
;
_chemical_formula_sum "Si O2"
_cell_formula_units_Z 88
_cell_length_a 12.505617
_cell_length_b 12.505617
_cell_length_c 27.991088
_cell_angle_alpha 90.000000
_cell_angle_beta 90.000000
_cell_angle_gamma 90.000000
_cell_volume 4377.539032
_symmetry_space_group_name_H-M "P 4/M B M"
_symmetry_group_IT_number 127
_symmetry_cell_setting 'tetragonal'
loop_
_space_group_symop_operation_xyz
x,y,z
-y,x,z
-x,-y,z
y,-x,z
1/2+x,1/2-y,-z
1/2-x,1/2+y,-z
1/2+y,1/2+x,-z
1/2-y,1/2-x,-z
-x,-y,-z
y,-x,-z
x,y,-z
-y,x,-z
1/2-x,1/2+y,z
1/2+x,1/2-y,z
1/2-y,1/2-x,z
1/2+y,1/2+x,z
loop_
_atom_site_type_symbol
_atom_site_label
_atom_site_fract_x
_atom_site_fract_y
_atom_site_fract_z
Si Si1 0.667979 0.458545 0.911705
Si Si2 0.773207 0.550132 0.747803
Si Si3 0.484606 0.678277 0.353922
Si Si4 0.411746 0.088255 0.057174
Si Si5 0.370362 0.298037 0.809280
Si Si6 0.996949 0.320917 0.553363
O O1 0.626008 0.575854 0.927308
O O2 0.789999 0.438862 0.927213
O O3 0.666638 0.440636 0.854311
O O4 0.874761 0.625240 0.753086
O O5 0.752014 0.526694 0.692488
O O6 0.779080 0.443003 0.777710
O O7 0.673323 0.612585 0.772749
O O8 0.388335 0.593883 0.351443
O O9 0.484027 0.741189 0.403498
O O10 0.500000 0.000000 0.074662
O O11 0.414628 0.085373 0.000000
O O12 0.266940 0.233061 0.827933
O O13 0.996032 0.272095 0.500000
O O14 0.090535 0.409466 0.554023
O O15 0.886632 0.386632 0.559786
#
# Coordination Sequence:
#
# PCOD9564397 Si02
#       6
#    16  16  16   8  16  16
#     4  11  24  43  74 107 139 184 235 288 350 422
#     4  11  23  38  60  87 126 171 214 259 321 391
#     4  11  23  38  59  85 118 159 200 252 314 374
#     4  11  28  50  74 105 147 191 235 298 361 412
#     4  11  22  38  63  95 129 171 216 267 326 391
#     4   9  20  40  63  85 113 152 198 250 309 375
#
# _framework density 20.102618
#
# number of rings (size 3 to 8) (size 9 to 14) (size 15 to 20)
#    0.000    1.364    4.545    1.091    1.273    5.091 
#    0.000    3.636    0.000    0.000    0.000    0.000 
#    0.000    0.000    0.000    0.000    0.000    0.000 
#
# Total GULP energy -491203.107684 kJ/mol
# GULP energy per Si atom -5581.853496 kJ/mol
# Density = 2.005686 g / cm^3
# Si number density = 20.102618 Si / 1000 Ang^3
#
#
#
# Elastic Constant Matrix: (Units=GPa)
#
#
# Indices 1 2 3 4 5 6 
#
# 1 110.6492 35.9952 21.1744 0.0000 0.0000 0.0000
# 2 35.9952 110.6487 21.1742 0.0000 0.0000 0.0000
# 3 21.1744 21.1742 60.7090 0.0000 0.0000 0.0000
# 4 0.0000 0.0000 0.0000 26.6744 0.0000 0.0000
# 5 0.0000 0.0000 0.0000 0.0000 26.6743 0.0000
# 6 0.0000 0.0000 0.0000 0.0000 0.0000 -89.2501
#
#
#
# Elastic Compliance Matrix: (Units=1/GPa)
#
#
# Indices 1 2 3 4 5 6 
#
# 1 0.010489 -0.002906 -0.002645 0.000000 0.000000 0.000000
# 2 -0.002906 0.010489 -0.002645 0.000000 0.000000 0.000000
# 3 -0.002645 -0.002645 0.018317 0.000000 0.000000 0.000000
# 4 0.000000 0.000000 0.000000 0.037489 0.000000 0.000000
# 5 0.000000 0.000000 0.000000 0.000000 0.037489 0.000000
# 6 0.000000 0.000000 0.000000 0.000000 0.000000 -0.011204
#
#
# Mechanical properties :
#
#
# Convention : Reuss Voigt Hill
#
# Bulk Modulus (GPa) = 43.66113 48.74384 46.20248
# Shear Modulus (GPa) = 39.34063 6.39727 22.86895
#
# Velocity S-wave (km/s) = 4.42859 1.78584 3.37651
# Velocity P-wave (km/s) = 6.92215 5.34345 6.18339
#
# Compressibility (1/GPa) = 0.02290367
#
# Stress axis : x y z
#
# Youngs Moduli (GPa) = 95.33728 95.33692 54.59420
#
# Poissons Ratio (x) = 0.27706 0.14439
# Poissons Ratio (y) = 0.27706 0.14439
# Poissons Ratio (z) = 0.25215 0.25215
#
# Static dielectric constant tensor:
#      x y z
#    x 1.748140 0.000000 0.000000 
#    y 0.000000 1.748140 0.000000 
#    z 0.000000 0.000000 1.695310 
# 
# From -- ./inp_files/6542.got.cif
#   From: 2010.05.17/outbox.cif.g08.bks.cpg/sg127_4_cif.got.tgz:6542.got - 2010.05.20 12:03:00.
