data_PCOD9564459
_publ_section_title
;
Structure prediction by ZEFSAII (Michael W. Deem and Ramdas Pophale) SiO2 
 PCOD9564459
Probable space group: P 4/M B M
;
_chemical_formula_sum "Si O2"
_cell_formula_units_Z 56
_cell_length_a 10.669775
_cell_length_b 10.669775
_cell_length_c 21.835278
_cell_angle_alpha 90.000000
_cell_angle_beta 90.000000
_cell_angle_gamma 90.000000
_cell_volume 2485.817541
_symmetry_space_group_name_H-M "P 4/M B M"
_symmetry_group_IT_number 127
_symmetry_cell_setting 'tetragonal'
loop_
_space_group_symop_operation_xyz
x,y,z
-y,x,z
-x,-y,z
y,-x,z
1/2+x,1/2-y,-z
1/2-x,1/2+y,-z
1/2+y,1/2+x,-z
1/2-y,1/2-x,-z
-x,-y,-z
y,-x,-z
x,y,-z
-y,x,-z
1/2-x,1/2+y,z
1/2+x,1/2-y,z
1/2-y,1/2-x,z
1/2+y,1/2+x,z
loop_
_atom_site_type_symbol
_atom_site_label
_atom_site_fract_x
_atom_site_fract_y
_atom_site_fract_z
Si Si1 0.103864 0.396137 0.432131
Si Si2 0.494861 0.713631 0.934080
Si Si3 0.713256 0.508900 0.802328
Si Si4 0.790357 0.018623 0.669702
O O1 0.146402 0.353599 0.500000
O O2 0.208414 0.459350 0.389606
O O3 0.000000 0.500000 0.440348
O O4 0.376719 0.617433 0.934090
O O5 0.491577 0.780341 0.868171
O O6 0.493849 0.780318 0.000000
O O7 0.615107 0.625242 0.802417
O O8 0.777411 0.516509 0.736140
O O9 0.890993 0.130974 0.668497
#
# Coordination Sequence:
#
# PCOD9564459 Si02
#       4
#     8  16  16  16
#     4  11  26  42  58  83 114 142 174 223 277 328
#     4   7   8  10  21  48  89 130 161 198 251 299
#     4   7  10  19  37  63  95 130 170 212 253 302
#     4   9  19  37  61  85 110 145 184 223 270 324
#
# _framework density 22.527801
#
# number of rings (size 3 to 8) (size 9 to 14) (size 15 to 20)
#    0.000    3.857    0.000    4.286    2.000    1.143 
#    0.000    1.429    0.000    0.000    0.000    1.000 
#    0.000    2.286    0.000    0.000    0.000    0.000 
#
# Total GULP energy -311807.553254 kJ/mol
# GULP energy per Si atom -5567.992022 kJ/mol
# Density = 2.247653 g / cm^3
# Si number density = 22.527801 Si / 1000 Ang^3
#
#
#
# Elastic Constant Matrix: (Units=GPa)
#
#
# Indices 1 2 3 4 5 6 
#
# 1 36.8668 13.7871 38.1516 0.0000 0.0000 0.0000
# 2 13.7871 36.8669 38.1516 0.0000 0.0000 0.0000
# 3 38.1516 38.1516 314.1500 0.0000 0.0000 0.0000
# 4 0.0000 0.0000 0.0000 731.6854 0.0000 0.0000
# 5 0.0000 0.0000 0.0000 0.0000 731.7357 0.0000
# 6 0.0000 0.0000 0.0000 0.0000 0.0000 -13.1804
#
#
#
# Elastic Compliance Matrix: (Units=1/GPa)
#
#
# Indices 1 2 3 4 5 6 
#
# 1 0.033745 -0.009583 -0.002934 0.000000 0.000000 0.000000
# 2 -0.009583 0.033745 -0.002934 0.000000 0.000000 0.000000
# 3 -0.002934 -0.002934 0.003896 0.000000 0.000000 0.000000
# 4 0.000000 0.000000 0.000000 0.001367 0.000000 0.000000
# 5 0.000000 0.000000 0.000000 0.000000 0.001367 0.000000
# 6 0.000000 0.000000 0.000000 0.000000 0.000000 -0.075870
#
#
# Mechanical properties :
#
#
# Convention : Reuss Voigt Hill
#
# Bulk Modulus (GPa) = 24.70202 63.11826 43.91014
# Shear Modulus (GPa) = 117.24364 309.90105 213.57234
#
# Velocity S-wave (km/s) = 7.22198 11.74148 9.74729
# Velocity P-wave (km/s) = 8.97394 14.55663 12.09188
#
# Compressibility (1/GPa) = 0.04048252
#
# Stress axis : x y z
#
# Youngs Moduli (GPa) = 29.63402 29.63409 256.67982
#
# Poissons Ratio (x) = 0.28398 0.75318
# Poissons Ratio (y) = 0.28398 0.75318
# Poissons Ratio (z) = 0.08696 0.08696
#
# Static dielectric constant tensor:
#      x y z
#    x 1.880240 0.000000 0.000000 
#    y 0.000000 1.880240 0.000000 
#    z 0.000000 0.000000 1.928130 
# 
# From -- ./inp_files/5457.got.cif
#   From: 2010.05.17/outbox.cif.g08.bks.cpg/sg127_3_cif.got.tgz:5457.got - 2010.05.20 12:03:00.
