data_PCOD9564836
_publ_section_title
;
Structure prediction by ZEFSAII (Michael W. Deem and Ramdas Pophale) SiO2 
 PCOD9564836
Probable space group: P 4/M N C
;
_chemical_formula_sum "Si O2"
_cell_formula_units_Z 120
_cell_length_a 15.077571
_cell_length_b 15.077571
_cell_length_c 30.896536
_cell_angle_alpha 90.000000
_cell_angle_beta 90.000000
_cell_angle_gamma 90.000000
_cell_volume 7023.806768
_symmetry_space_group_name_H-M "P 4/M N C"
_symmetry_group_IT_number 128
_symmetry_cell_setting 'tetragonal'
loop_
_space_group_symop_operation_xyz
x,y,z
-y,x,z
-x,-y,z
y,-x,z
1/2+x,1/2-y,1/2-z
1/2-x,1/2+y,1/2-z
1/2+y,1/2+x,1/2-z
1/2-y,1/2-x,1/2-z
-x,-y,-z
y,-x,-z
x,y,-z
-y,x,-z
1/2-x,1/2+y,1/2+z
1/2+x,1/2-y,1/2+z
1/2-y,1/2-x,1/2+z
1/2+y,1/2+x,1/2+z
loop_
_atom_site_type_symbol
_atom_site_label
_atom_site_fract_x
_atom_site_fract_y
_atom_site_fract_z
Si Si1 0.935552 0.578971 0.950017
Si Si2 0.515681 0.265920 0.949426
Si Si3 0.811983 0.836051 0.601545
Si Si4 0.600011 0.610283 0.809715
Si Si5 0.394254 0.392233 0.710860
Si Si6 0.691769 0.334774 0.626518
Si Si7 0.484330 0.738820 0.411957
Si Si8 0.852867 0.980465 0.000000
O O1 0.837041 0.541460 0.949865
O O2 0.947204 0.663151 0.919479
O O3 0.000000 0.500000 0.936942
O O4 0.956795 0.604342 0.000000
O O5 0.598418 0.310707 0.924558
O O6 0.424012 0.278007 0.923342
O O7 0.507915 0.295540 0.000000
O O8 0.837712 0.856949 0.651002
O O9 0.738768 0.757960 0.606348
O O10 0.494112 0.620191 0.814155
O O11 0.625467 0.633489 0.760537
O O12 0.501244 0.379540 0.704877
O O13 0.336088 0.336322 0.677022
O O14 0.596861 0.323088 0.602714
O O15 0.733235 0.431637 0.619090
O O16 0.522433 0.705218 0.457416
O O17 0.904517 0.073739 0.000000
#
# Coordination Sequence:
#
# PCOD9564836 Si02
#       8
#    16  16  16  16  16  16  16   8
#     4  10  21  39  58  76 111 160 201 237 286 344
#     4  11  24  41  59  86 119 154 200 254 301 345
#     4  12  23  40  61  88 113 154 203 246 299 355
#     4   9  18  36  63  86 111 146 189 240 300 365
#     4   9  18  35  60  88 117 149 183 235 302 364
#     4  12  24  35  60  87 118 154 196 241 295 354
#     4  12  22  37  54  83 116 151 194 239 283 346
#     4  11  22  34  51  78 112 150 190 231 291 332
#
# _framework density 17.084752000000002
#
# number of rings (size 3 to 8) (size 9 to 14) (size 15 to 20)
#    0.000    1.267    6.000    2.000    0.000    1.067 
#    3.600    0.667    0.000    0.000    0.000    0.000 
#    0.000    8.533    0.000    0.000    0.000    0.000 
#
# Total GULP energy -669061.658380 kJ/mol
# GULP energy per Si atom -5575.513820 kJ/mol
# Density = 1.704587 g / cm^3
# Si number density = 17.084752 Si / 1000 Ang^3
#
#
#
# Elastic Constant Matrix: (Units=GPa)
#
#
# Indices 1 2 3 4 5 6 
#
# 1 58.2480 15.1003 21.3410 0.0000 0.0000 0.0000
# 2 15.1003 58.2480 21.3410 0.0000 0.0000 0.0000
# 3 21.3410 21.3410 96.5035 0.0000 0.0000 0.0000
# 4 0.0000 0.0000 0.0000 22.1165 0.0000 0.0000
# 5 0.0000 0.0000 0.0000 0.0000 22.1165 0.0000
# 6 0.0000 0.0000 0.0000 0.0000 0.0000 32.8422
#
#
#
# Elastic Compliance Matrix: (Units=1/GPa)
#
#
# Indices 1 2 3 4 5 6 
#
# 1 0.019412 -0.003765 -0.003460 0.000000 0.000000 0.000000
# 2 -0.003765 0.019412 -0.003460 0.000000 0.000000 0.000000
# 3 -0.003460 -0.003460 0.011893 0.000000 0.000000 0.000000
# 4 0.000000 0.000000 0.000000 0.045215 0.000000 0.000000
# 5 0.000000 0.000000 0.000000 0.000000 0.045215 0.000000
# 6 0.000000 0.000000 0.000000 0.000000 0.000000 0.030449
#
#
# Mechanical properties :
#
#
# Convention : Reuss Voigt Hill
#
# Bulk Modulus (GPa) = 34.07614 36.50709 35.29162
# Shear Modulus (GPa) = 24.66130 25.76288 25.21209
#
# Velocity S-wave (km/s) = 3.80342 3.88744 3.84566
# Velocity P-wave (km/s) = 6.26711 6.44703 6.35771
#
# Compressibility (1/GPa) = 0.02934604
#
# Stress axis : x y z
#
# Youngs Moduli (GPa) = 51.51540 51.51540 84.08498
#
# Poissons Ratio (x) = 0.19393 0.29095
# Poissons Ratio (y) = 0.19393 0.29095
# Poissons Ratio (z) = 0.17826 0.17826
#
# Static dielectric constant tensor:
#      x y z
#    x 1.569680 0.000000 0.000000 
#    y 0.000000 1.569680 0.000000 
#    z 0.000000 0.000000 1.586210 
# 
# From -- ./inp_files/7431.got.cif
#   From: 2010.05.17/outbox.cif.g08.bks.cpg/sg128_4_cif.got.tgz:7431.got - 2010.05.20 12:07:25.
