data_PCOD9564145
_publ_section_title
;
Structure prediction by ZEFSAII (Michael W. Deem and Ramdas Pophale) SiO2 
 PCOD9564145
Probable space group: P 4/M B M
;
_chemical_formula_sum "Si O2"
_cell_formula_units_Z 96
_cell_length_a 24.619864
_cell_length_b 24.619864
_cell_length_c 7.627714
_cell_angle_alpha 90.000000
_cell_angle_beta 90.000000
_cell_angle_gamma 90.000000
_cell_volume 4623.445046
_symmetry_space_group_name_H-M "P 4/M B M"
_symmetry_group_IT_number 127
_symmetry_cell_setting 'tetragonal'
loop_
_space_group_symop_operation_xyz
x,y,z
-y,x,z
-x,-y,z
y,-x,z
1/2+x,1/2-y,-z
1/2-x,1/2+y,-z
1/2+y,1/2+x,-z
1/2-y,1/2-x,-z
-x,-y,-z
y,-x,-z
x,y,-z
-y,x,-z
1/2-x,1/2+y,z
1/2+x,1/2-y,z
1/2-y,1/2-x,z
1/2+y,1/2+x,z
loop_
_atom_site_type_symbol
_atom_site_label
_atom_site_fract_x
_atom_site_fract_y
_atom_site_fract_z
Si Si1 0.212450 0.488452 0.294722
Si Si2 0.073120 0.802845 0.795459
Si Si3 0.526074 0.583730 0.785887
Si Si4 0.222645 0.191512 0.790766
Si Si5 0.912474 0.500832 0.788088
Si Si6 0.220043 0.366422 0.288221
O O1 0.225712 0.487643 0.500000
O O2 0.252556 0.532220 0.213384
O O3 0.148958 0.501841 0.274284
O O4 0.221356 0.427751 0.222155
O O5 0.046145 0.857760 0.722152
O O6 0.131393 0.786321 0.717873
O O7 0.083456 0.815294 0.000000
O O8 0.465304 0.566165 0.732367
O O9 0.524988 0.584415 0.000000
O O10 0.273278 0.226723 0.719281
O O11 0.169256 0.227994 0.761956
O O12 0.231346 0.186987 0.000000
O O13 0.944755 0.555246 0.730875
O O14 0.949935 0.449935 0.733461
O O15 0.911695 0.501148 0.000000
O O16 0.217391 0.368310 0.500000
O O17 0.167266 0.332735 0.226584
#
# Coordination Sequence:
#
# PCOD9564145 Si02
#       6
#    16  16  16  16  16  16
#     4  11  23  36  52  80 115 149 183 220 265 324
#     4  10  21  34  53  79 107 144 183 227 275 322
#     4   8  15  29  50  76 102 130 172 228 283 329
#     4   9  19  35  54  78 106 137 177 224 273 322
#     4   9  19  37  60  84 110 142 181 227 277 323
#     4   9  19  36  56  77 104 141 181 222 267 313
#
# _framework density 20.763738
#
# number of rings (size 3 to 8) (size 9 to 14) (size 15 to 20)
#    0.000    2.667    0.000    2.000    2.333    4.000 
#    0.000    4.167    0.000    0.000    0.000    1.167 
#    0.000    0.000    0.000    0.000    0.000    0.000 
#
# Total GULP energy -535861.331206 kJ/mol
# GULP energy per Si atom -5581.888867 kJ/mol
# Density = 2.071648 g / cm^3
# Si number density = 20.763738 Si / 1000 Ang^3
#
#
#
# Elastic Constant Matrix: (Units=GPa)
#
#
# Indices 1 2 3 4 5 6 
#
# 1 268.3216 -11.2084 -9.3652 0.0000 0.0000 0.0000
# 2 -11.2084 268.3216 -9.3652 0.0000 0.0000 0.0000
# 3 -9.3652 -9.3652 38.2982 0.0000 0.0000 0.0000
# 4 0.0000 0.0000 0.0000 2.6271 0.0000 0.0000
# 5 0.0000 0.0000 0.0000 0.0000 2.6271 0.0000
# 6 0.0000 0.0000 0.0000 0.0000 0.0000 12.2939
#
#
#
# Elastic Compliance Matrix: (Units=1/GPa)
#
#
# Indices 1 2 3 4 5 6 
#
# 1 0.003769 0.000191 0.000968 0.000000 0.000000 0.000000
# 2 0.000191 0.003769 0.000968 0.000000 0.000000 0.000000
# 3 0.000968 0.000968 0.026584 0.000000 0.000000 0.000000
# 4 0.000000 0.000000 0.000000 0.380641 0.000000 0.000000
# 5 0.000000 0.000000 0.000000 0.000000 0.380641 0.000000
# 6 0.000000 0.000000 0.000000 0.000000 0.000000 0.081341
#
#
# Mechanical properties :
#
#
# Convention : Reuss Voigt Hill
#
# Bulk Modulus (GPa) = 26.05695 57.22933 41.64314
# Shear Modulus (GPa) = 5.64792 43.83498 24.74145
#
# Velocity S-wave (km/s) = 1.65106 4.59969 3.45566
# Velocity P-wave (km/s) = 4.02631 7.47205 6.00178
#
# Compressibility (1/GPa) = 0.03837748
#
# Stress axis : x y z
#
# Youngs Moduli (GPa) = 265.34656 265.34656 37.61598
#
# Poissons Ratio (x) = -0.05074 -0.03642
# Poissons Ratio (y) = -0.05074 -0.03642
# Poissons Ratio (z) = -0.25694 -0.25694
#
# Static dielectric constant tensor:
#      x y z
#    x 1.723170 0.000000 0.000000 
#    y 0.000000 1.723170 0.000000 
#    z 0.000000 0.000000 1.761000 
# 
# From -- ./inp_files/1990.got.cif
#   From: 2010.05.17/outbox.cif.g08.bks.cpg/sg127_1_cif.got.tgz:1990.got - 2010.05.20 12:03:00.
