data_PCOD9564097
_publ_section_title
;
Structure prediction by ZEFSAII (Michael W. Deem and Ramdas Pophale) SiO2 
 PCOD9564097
Probable space group: P 4/M B M
;
_chemical_formula_sum "Si O2"
_cell_formula_units_Z 96
_cell_length_a 24.402787
_cell_length_b 24.402787
_cell_length_c 8.224693
_cell_angle_alpha 90.000000
_cell_angle_beta 90.000000
_cell_angle_gamma 90.000000
_cell_volume 4897.771893
_symmetry_space_group_name_H-M "P 4/M B M"
_symmetry_group_IT_number 127
_symmetry_cell_setting 'tetragonal'
loop_
_space_group_symop_operation_xyz
x,y,z
-y,x,z
-x,-y,z
y,-x,z
1/2+x,1/2-y,-z
1/2-x,1/2+y,-z
1/2+y,1/2+x,-z
1/2-y,1/2-x,-z
-x,-y,-z
y,-x,-z
x,y,-z
-y,x,-z
1/2-x,1/2+y,z
1/2+x,1/2-y,z
1/2-y,1/2-x,z
1/2+y,1/2+x,z
loop_
_atom_site_type_symbol
_atom_site_label
_atom_site_fract_x
_atom_site_fract_y
_atom_site_fract_z
Si Si1 0.669211 0.709576 0.313761
Si Si2 0.397990 0.186349 0.805267
Si Si3 0.907920 0.120336 0.185792
Si Si4 0.357545 0.483119 0.688265
Si Si5 0.262920 0.988264 0.198025
Si Si6 0.861048 0.725848 0.195731
O O1 0.680728 0.722450 0.500000
O O2 0.644398 0.763858 0.231520
O O3 0.620520 0.666030 0.294111
O O4 0.722081 0.676932 0.244737
O O5 0.368726 0.131275 0.741770
O O6 0.460296 0.199078 0.749813
O O7 0.401460 0.182435 0.000000
O O8 0.869579 0.067917 0.197601
O O9 0.966188 0.105084 0.260589
O O10 0.913321 0.139417 0.000000
O O11 0.363697 0.468276 0.500000
O O12 0.296175 0.501532 0.727765
O O13 0.274143 0.924868 0.249652
O O14 0.260501 0.988629 0.000000
O O15 0.828096 0.671905 0.250554
O O16 0.862547 0.726370 0.000000
#
# Coordination Sequence:
#
# PCOD9564097 Si02
#       6
#    16  16  16  16  16  16
#     4  12  23  35  55  86 119 150 189 243 296 343
#     4  10  21  37  58  84 115 153 197 239 286 352
#     4  12  24  40  60  82 113 157 200 238 286 346
#     4  12  24  39  59  86 115 149 196 248 291 331
#     4  10  20  36  59  82 112 156 194 230 288 353
#     4  10  21  37  58  84 115 153 197 239 286 352
#
# _framework density 19.600750000000001
#
# number of rings (size 3 to 8) (size 9 to 14) (size 15 to 20)
#    0.000    1.000    3.333    5.000    0.000    3.000 
#    0.000    1.667    0.000    0.500    0.000    3.500 
#    0.000    0.000    0.000    4.500    0.000    5.000 
#
# Total GULP energy -535693.871094 kJ/mol
# GULP energy per Si atom -5580.144491 kJ/mol
# Density = 1.955614 g / cm^3
# Si number density = 19.600750 Si / 1000 Ang^3
#
#
#
# Elastic Constant Matrix: (Units=GPa)
#
#
# Indices 1 2 3 4 5 6 
#
# 1 188.0862 -57.4486 3.9595 0.0000 0.0000 0.0000
# 2 -57.4486 188.0862 3.9595 0.0000 0.0000 0.0000
# 3 3.9595 3.9595 39.2911 0.0000 0.0000 0.0000
# 4 0.0000 0.0000 0.0000 -5.4306 0.0000 0.0000
# 5 0.0000 0.0000 0.0000 0.0000 -5.4306 0.0000
# 6 0.0000 0.0000 0.0000 0.0000 0.0000 28.8968
#
#
#
# Elastic Compliance Matrix: (Units=1/GPa)
#
#
# Indices 1 2 3 4 5 6 
#
# 1 0.005887 0.001815 -0.000776 0.000000 0.000000 0.000000
# 2 0.001815 0.005887 -0.000776 0.000000 0.000000 0.000000
# 3 -0.000776 -0.000776 0.025607 0.000000 0.000000 0.000000
# 4 0.000000 0.000000 0.000000 -0.184143 0.000000 0.000000
# 5 0.000000 0.000000 0.000000 0.000000 -0.184143 0.000000
# 6 0.000000 0.000000 0.000000 0.000000 0.000000 0.034606
#
#
# Mechanical properties :
#
#
# Convention : Reuss Voigt Hill
#
# Bulk Modulus (GPa) = 26.38065 35.15603 30.76834
# Shear Modulus (GPa) = -17.59405 34.60668 8.50631
#
# Velocity S-wave (km/s) = -2.99928 4.20644 2.08548
# Velocity P-wave (km/s) = 1.22228 6.44726 4.64010
#
# Compressibility (1/GPa) = 0.03790657
#
# Stress axis : x y z
#
# Youngs Moduli (GPa) = 169.85787 169.85787 39.05110
#
# Poissons Ratio (x) = -0.30821 0.03031
# Poissons Ratio (y) = -0.30821 0.03031
# Poissons Ratio (z) = 0.13183 0.13183
#
# Static dielectric constant tensor:
#      x y z
#    x 1.733880 0.000000 0.000000 
#    y 0.000000 1.733880 0.000000 
#    z 0.000000 0.000000 1.671380 
# 
# From -- ./inp_files/1978.got.cif
#   From: 2010.05.17/outbox.cif.g08.bks.cpg/sg127_1_cif.got.tgz:1978.got - 2010.05.20 12:03:00.
