data_PCOD9564771
_publ_section_title
;
Structure prediction by ZEFSAII (Michael W. Deem and Ramdas Pophale) SiO2 
 PCOD9564771
Probable space group: P 4/M N C
;
_chemical_formula_sum "Si O2"
_cell_formula_units_Z 40
_cell_length_a 15.260723
_cell_length_b 15.260723
_cell_length_c 7.843690
_cell_angle_alpha 90.000000
_cell_angle_beta 90.000000
_cell_angle_gamma 90.000000
_cell_volume 1826.714348
_symmetry_space_group_name_H-M "P 4/M N C"
_symmetry_group_IT_number 128
_symmetry_cell_setting 'tetragonal'
loop_
_space_group_symop_operation_xyz
x,y,z
-y,x,z
-x,-y,z
y,-x,z
1/2+x,1/2-y,1/2-z
1/2-x,1/2+y,1/2-z
1/2+y,1/2+x,1/2-z
1/2-y,1/2-x,1/2-z
-x,-y,-z
y,-x,-z
x,y,-z
-y,x,-z
1/2-x,1/2+y,1/2+z
1/2+x,1/2-y,1/2+z
1/2-y,1/2-x,1/2+z
1/2+y,1/2+x,1/2+z
loop_
_atom_site_type_symbol
_atom_site_label
_atom_site_fract_x
_atom_site_fract_y
_atom_site_fract_z
Si Si1 0.867864 0.777400 0.295486
Si Si2 0.639183 0.993767 0.299070
Si Si3 0.403529 0.389992 0.500000
O O1 0.792448 0.707553 0.250000
O O2 0.867937 0.795058 0.500000
O O3 0.853660 0.859547 0.172522
O O4 0.959318 0.728642 0.242597
O O5 0.601534 0.898467 0.250000
O O6 0.644809 0.992507 0.500000
O O7 0.563878 0.063878 0.250000
O O8 0.506772 0.382761 0.500000
#
# Coordination Sequence:
#
# PCOD9564771 Si02
#       3
#    16  16   8
#     4  10  20  38  68  98 129 173 219 277 338 392
#     4   9  16  24  45  81 119 159 198 244 313 387
#     4  11  26  46  68  95 132 179 226 271 324 395
#
# _framework density 21.89724
#
# number of rings (size 3 to 8) (size 9 to 14) (size 15 to 20)
#    0.000    2.200    2.000    2.400    5.600    1.600 
#    0.000    4.000    0.000    0.000    0.000    0.000 
#    0.000    0.000    0.000    0.000    0.000    0.000 
#
# Total GULP energy -223035.465443 kJ/mol
# GULP energy per Si atom -5575.886636 kJ/mol
# Density = 2.184740 g / cm^3
# Si number density = 21.897240 Si / 1000 Ang^3
#
#
#
# Elastic Constant Matrix: (Units=GPa)
#
#
# Indices 1 2 3 4 5 6 
#
# 1 63.6971 3.3206 27.4325 0.0000 0.0000 0.0000
# 2 3.3206 63.6995 27.4308 0.0000 0.0000 0.0000
# 3 27.4325 27.4308 95.9532 0.0000 0.0000 0.0000
# 4 0.0000 0.0000 0.0000 21.5981 0.0000 0.0000
# 5 0.0000 0.0000 0.0000 0.0000 21.5982 0.0000
# 6 0.0000 0.0000 0.0000 0.0000 0.0000 16.6345
#
#
#
# Elastic Compliance Matrix: (Units=1/GPa)
#
#
# Indices 1 2 3 4 5 6 
#
# 1 0.018022 0.001459 -0.005569 0.000000 0.000000 0.000000
# 2 0.001459 0.018021 -0.005569 0.000000 0.000000 0.000000
# 3 -0.005569 -0.005569 0.013606 0.000000 0.000000 0.000000
# 4 0.000000 0.000000 0.000000 0.046300 0.000000 0.000000
# 5 0.000000 0.000000 0.000000 0.000000 0.046300 0.000000
# 6 0.000000 0.000000 0.000000 0.000000 0.000000 0.060116
#
#
# Mechanical properties :
#
#
# Convention : Reuss Voigt Hill
#
# Bulk Modulus (GPa) = 33.01428 37.74640 35.38034
# Shear Modulus (GPa) = 21.56843 22.97723 22.27283
#
# Velocity S-wave (km/s) = 3.14185 3.24284 3.19274
# Velocity P-wave (km/s) = 5.31707 5.59435 5.45747
#
# Compressibility (1/GPa) = 0.03028992
#
# Stress axis : x y z
#
# Youngs Moduli (GPa) = 55.48829 55.49164 73.49700
#
# Poissons Ratio (x) = -0.08096 0.40933
# Poissons Ratio (y) = -0.08095 0.40929
# Poissons Ratio (z) = 0.30904 0.30902
#
# Static dielectric constant tensor:
#      x y z
#    x 1.848680 0.000000 0.000000 
#    y 0.000000 1.848680 0.000000 
#    z 0.000000 0.000000 1.762880 
# 
# From -- ./inp_files/504.got.cif
#   From: 2010.05.17/outbox.cif.g08.bks.cpg/sg128_1_cif.got.tgz:504.got - 2010.05.20 12:07:25.
