data_PCOD9564698
_publ_section_title
;
Structure prediction by ZEFSAII (Michael W. Deem and Ramdas Pophale) SiO2 
 PCOD9564698
Probable space group: P 4/M N C
;
_chemical_formula_sum "Si O2"
_cell_formula_units_Z 80
_cell_length_a 15.630811
_cell_length_b 15.630811
_cell_length_c 15.216257
_cell_angle_alpha 90.000000
_cell_angle_beta 90.000000
_cell_angle_gamma 90.000000
_cell_volume 3717.670185
_symmetry_space_group_name_H-M "P 4/M N C"
_symmetry_group_IT_number 128
_symmetry_cell_setting 'tetragonal'
loop_
_space_group_symop_operation_xyz
x,y,z
-y,x,z
-x,-y,z
y,-x,z
1/2+x,1/2-y,1/2-z
1/2-x,1/2+y,1/2-z
1/2+y,1/2+x,1/2-z
1/2-y,1/2-x,1/2-z
-x,-y,-z
y,-x,-z
x,y,-z
-y,x,-z
1/2-x,1/2+y,1/2+z
1/2+x,1/2-y,1/2+z
1/2-y,1/2-x,1/2+z
1/2+y,1/2+x,1/2+z
loop_
_atom_site_type_symbol
_atom_site_label
_atom_site_fract_x
_atom_site_fract_y
_atom_site_fract_z
Si Si1 0.838558 0.135316 0.903681
Si Si2 0.038778 0.246083 0.240915
Si Si3 0.363581 0.232346 0.828123
Si Si4 0.728491 0.156642 0.404702
Si Si5 0.182691 0.562084 0.402265
O O1 0.741096 0.169912 0.904846
O O2 0.898328 0.219727 0.900074
O O3 0.832794 0.076593 0.816998
O O4 0.854567 0.093536 0.000000
O O5 0.948651 0.228960 0.288062
O O6 0.010941 0.318091 0.170185
O O7 0.100788 0.278777 0.317283
O O8 0.296301 0.203700 0.750000
O O9 0.321168 0.299325 0.892952
O O10 0.376691 0.141766 0.876425
O O11 0.719747 0.113466 0.500000
O O12 0.165839 0.531300 0.500000
#
# Coordination Sequence:
#
# PCOD9564698 Si02
#       5
#    16  16  16  16  16
#     4   9  18  34  54  75  99 125 160 205 249 292
#     4  11  18  28  51  81 101 121 161 207 248 286
#     4   9  18  32  51  73  98 129 162 201 243 288
#     4  10  20  33  50  72 100 133 165 199 239 287
#     4   9  18  33  53  75  99 128 162 204 249 289
#
# _framework density 21.518854999999999
#
# number of rings (size 3 to 8) (size 9 to 14) (size 15 to 20)
#    0.000    2.400    0.000    6.600    0.000    1.600 
#    0.000    0.000    0.000   31.200    0.000   47.600 
#    0.000    0.000    0.000    0.000    0.000    0.000 
#
# Total GULP energy -445742.677704 kJ/mol
# GULP energy per Si atom -5571.783471 kJ/mol
# Density = 2.146988 g / cm^3
# Si number density = 21.518855 Si / 1000 Ang^3
#
#
#
# Elastic Constant Matrix: (Units=GPa)
#
#
# Indices 1 2 3 4 5 6 
#
# 1 48.7739 -3.8066 23.3716 0.0000 0.0000 0.0000
# 2 -3.8066 48.7733 23.3716 0.0000 0.0000 0.0000
# 3 23.3716 23.3716 155.0882 0.0000 0.0000 0.0000
# 4 0.0000 0.0000 0.0000 23.9929 0.0000 0.0000
# 5 0.0000 0.0000 0.0000 0.0000 23.9928 0.0000
# 6 0.0000 0.0000 0.0000 0.0000 0.0000 5.1648
#
#
#
# Elastic Compliance Matrix: (Units=1/GPa)
#
#
# Indices 1 2 3 4 5 6 
#
# 1 0.022694 0.003675 -0.003974 0.000000 0.000000 0.000000
# 2 0.003675 0.022694 -0.003974 0.000000 0.000000 0.000000
# 3 -0.003974 -0.003974 0.007646 0.000000 0.000000 0.000000
# 4 0.000000 0.000000 0.000000 0.041679 0.000000 0.000000
# 5 0.000000 0.000000 0.000000 0.000000 0.041679 0.000000
# 6 0.000000 0.000000 0.000000 0.000000 0.000000 0.193618
#
#
# Mechanical properties :
#
#
# Convention : Reuss Voigt Hill
#
# Bulk Modulus (GPa) = 22.47749 37.61208 30.04479
# Shear Modulus (GPa) = 14.14891 24.61002 19.37946
#
# Velocity S-wave (km/s) = 2.56698 3.38546 3.00422
# Velocity P-wave (km/s) = 4.38794 5.72699 5.10159
#
# Compressibility (1/GPa) = 0.04448895
#
# Stress axis : x y z
#
# Youngs Moduli (GPa) = 44.06495 44.06437 130.79338
#
# Poissons Ratio (x) = -0.16195 0.51975
# Poissons Ratio (y) = -0.16196 0.51975
# Poissons Ratio (z) = 0.17511 0.17510
#
# Static dielectric constant tensor:
#      x y z
#    x 1.821180 0.000000 0.000000 
#    y 0.000000 1.821180 0.000000 
#    z 0.000000 0.000000 1.912780 
# 
# From -- ./inp_files/3716.got.cif
#   From: 2010.05.17/outbox.cif.g08.bks.cpg/sg128_2_cif.got.tgz:3716.got - 2010.05.20 12:07:25.
