data_PCOD9564811
_publ_section_title
;
Structure prediction by ZEFSAII (Michael W. Deem and Ramdas Pophale) SiO2 
 PCOD9564811
Probable space group: P 4/M N C
;
_chemical_formula_sum "Si O2"
_cell_formula_units_Z 96
_cell_length_a 16.926273
_cell_length_b 16.926273
_cell_length_c 17.913260
_cell_angle_alpha 90.000000
_cell_angle_beta 90.000000
_cell_angle_gamma 90.000000
_cell_volume 5132.126019
_symmetry_space_group_name_H-M "P 4/M N C"
_symmetry_group_IT_number 128
_symmetry_cell_setting 'tetragonal'
loop_
_space_group_symop_operation_xyz
x,y,z
-y,x,z
-x,-y,z
y,-x,z
1/2+x,1/2-y,1/2-z
1/2-x,1/2+y,1/2-z
1/2+y,1/2+x,1/2-z
1/2-y,1/2-x,1/2-z
-x,-y,-z
y,-x,-z
x,y,-z
-y,x,-z
1/2-x,1/2+y,1/2+z
1/2+x,1/2-y,1/2+z
1/2-y,1/2-x,1/2+z
1/2+y,1/2+x,1/2+z
loop_
_atom_site_type_symbol
_atom_site_label
_atom_site_fract_x
_atom_site_fract_y
_atom_site_fract_z
Si Si1 0.527796 0.628759 0.299868
Si Si2 0.258834 0.820129 0.910915
Si Si3 0.244443 0.506001 0.588704
Si Si4 0.314785 0.156271 0.837797
Si Si5 0.394589 0.698017 0.913026
Si Si6 0.934326 0.212248 0.651764
O O1 0.441641 0.590052 0.290192
O O2 0.529261 0.669010 0.380702
O O3 0.544287 0.696585 0.238578
O O4 0.196311 0.768081 0.863958
O O5 0.341625 0.775267 0.897268
O O6 0.264584 0.912871 0.892475
O O7 0.240133 0.813796 0.000000
O O8 0.236970 0.515565 0.500000
O O9 0.186740 0.567400 0.631032
O O10 0.329771 0.170230 0.750000
O O11 0.385566 0.209767 0.869967
O O12 0.484584 0.709814 0.892120
O O13 0.358767 0.624263 0.869077
O O14 0.385811 0.680370 0.000000
#
# Coordination Sequence:
#
# PCOD9564811 Si02
#       6
#    16  16  16  16  16  16
#     4  11  22  36  57  87 125 163 201 253 314 375
#     4   9  21  40  62  89 123 164 210 254 308 375
#     4  11  23  40  63  89 122 164 215 264 311 373
#     4  11  22  38  63  91 121 160 209 255 315 370
#     4  10  21  37  60  91 122 162 207 254 315 376
#     4  11  21  37  59  87 126 162 204 259 309 378
#
# _framework density 18.705698000000002
#
# number of rings (size 3 to 8) (size 9 to 14) (size 15 to 20)
#    0.000    1.500    3.333    2.000    0.000    4.333 
#    0.000    2.500    0.000    4.000    0.000    0.000 
#    0.000    0.000    0.000    0.000    0.000    0.000 
#
# Total GULP energy -535561.093785 kJ/mol
# GULP energy per Si atom -5578.761394 kJ/mol
# Density = 1.866312 g / cm^3
# Si number density = 18.705698 Si / 1000 Ang^3
#
#
#
# Elastic Constant Matrix: (Units=GPa)
#
#
# Indices 1 2 3 4 5 6 
#
# 1 104.4276 37.6907 38.6853 0.0000 0.0000 0.0000
# 2 37.6907 104.4279 38.6850 0.0000 0.0000 0.0000
# 3 38.6853 38.6850 72.1963 0.0000 0.0000 0.0000
# 4 0.0000 0.0000 0.0000 26.5555 0.0000 0.0000
# 5 0.0000 0.0000 0.0000 0.0000 26.5556 0.0000
# 6 0.0000 0.0000 0.0000 0.0000 0.0000 5.2525
#
#
#
# Elastic Compliance Matrix: (Units=1/GPa)
#
#
# Indices 1 2 3 4 5 6 
#
# 1 0.012459 -0.002525 -0.005323 0.000000 0.000000 0.000000
# 2 -0.002525 0.012459 -0.005323 0.000000 0.000000 0.000000
# 3 -0.005323 -0.005323 0.019556 0.000000 0.000000 0.000000
# 4 0.000000 0.000000 0.000000 0.037657 0.000000 0.000000
# 5 0.000000 0.000000 0.000000 0.000000 0.037657 0.000000
# 6 0.000000 0.000000 0.000000 0.000000 0.000000 0.190387
#
#
# Mechanical properties :
#
#
# Convention : Reuss Voigt Hill
#
# Bulk Modulus (GPa) = 55.15156 56.79710 55.97433
# Shear Modulus (GPa) = 14.59591 22.73877 18.66734
#
# Velocity S-wave (km/s) = 2.79640 3.49034 3.16246
# Velocity P-wave (km/s) = 6.32252 6.83174 6.58206
#
# Compressibility (1/GPa) = 0.01813185
#
# Stress axis : x y z
#
# Youngs Moduli (GPa) = 80.26132 80.26187 51.13584
#
# Poissons Ratio (x) = 0.20265 0.27221
# Poissons Ratio (y) = 0.20265 0.27220
# Poissons Ratio (z) = 0.42725 0.42724
#
# Static dielectric constant tensor:
#      x y z
#    x 1.655300 0.000000 0.000000 
#    y 0.000000 1.655300 0.000000 
#    z 0.000000 0.000000 1.684350 
# 
# From -- ./inp_files/4744.got.cif
#   From: 2010.05.17/outbox.cif.g08.bks.cpg/sg128_3_cif.got.tgz:4744.got - 2010.05.20 12:07:25.
