data_PCOD9564589
_publ_section_title
;
Structure prediction by ZEFSAII (Michael W. Deem and Ramdas Pophale) SiO2 
 PCOD9564589
Probable space group: P 4/M N C
;
_chemical_formula_sum "Si O2"
_cell_formula_units_Z 112
_cell_length_a 25.740979
_cell_length_b 25.740979
_cell_length_c 9.944658
_cell_angle_alpha 90.000000
_cell_angle_beta 90.000000
_cell_angle_gamma 90.000000
_cell_volume 6589.310500
_symmetry_space_group_name_H-M "P 4/M N C"
_symmetry_group_IT_number 128
_symmetry_cell_setting 'tetragonal'
loop_
_space_group_symop_operation_xyz
x,y,z
-y,x,z
-x,-y,z
y,-x,z
1/2+x,1/2-y,1/2-z
1/2-x,1/2+y,1/2-z
1/2+y,1/2+x,1/2-z
1/2-y,1/2-x,1/2-z
-x,-y,-z
y,-x,-z
x,y,-z
-y,x,-z
1/2-x,1/2+y,1/2+z
1/2+x,1/2-y,1/2+z
1/2-y,1/2-x,1/2+z
1/2+y,1/2+x,1/2+z
loop_
_atom_site_type_symbol
_atom_site_label
_atom_site_fract_x
_atom_site_fract_y
_atom_site_fract_z
Si Si1 0.650817 0.917630 0.338702
Si Si2 0.022364 0.411492 0.654218
Si Si3 0.054802 0.768602 0.662938
Si Si4 0.386106 0.366798 0.161292
Si Si5 0.043515 0.924642 0.146211
Si Si6 0.937304 0.788907 0.663510
Si Si7 0.677778 0.110332 0.343454
O O1 0.629519 0.870482 0.250000
O O2 0.650196 0.907150 0.500000
O O3 0.709180 0.934296 0.299178
O O4 0.612797 0.966599 0.314123
O O5 0.043860 0.456141 0.750000
O O6 0.022346 0.429542 0.500000
O O7 0.063088 0.363494 0.663957
O O8 0.051833 0.768989 0.500000
O O9 0.102319 0.806960 0.699984
O O10 0.997619 0.788211 0.710313
O O11 0.435245 0.394879 0.226726
O O12 0.335743 0.399440 0.208432
O O13 0.386585 0.369527 0.000000
O O14 0.982051 0.932126 0.150196
O O15 0.057385 0.900987 0.000000
O O16 0.939080 0.791441 0.500000
O O17 0.911319 0.733812 0.698351
O O18 0.655686 0.155686 0.250000
O O19 0.680582 0.126442 0.500000
#
# Coordination Sequence:
#
# PCOD9564589 Si02
#       7
#    16  16  16  16  16  16  16
#     4  10  20  35  53  72  99 137 172 201 244 301
#     4   9  17  30  50  73  98 130 162 197 243 296
#     4   9  17  32  51  72 102 134 162 199 253 303
#     4  10  19  30  51  79  98 121 168 219 246 278
#     4   9  18  32  47  65  97 137 164 191 249 317
#     4   9  16  29  50  74 100 130 162 200 253 303
#     4   9  16  29  49  71  96 126 160 198 242 293
#
# _framework density 16.997226000000001
#
# number of rings (size 3 to 8) (size 9 to 14) (size 15 to 20)
#    0.000    2.714    1.429    1.286    0.000    2.571 
#    0.000    4.286    0.000    1.714    0.000    0.000 
#    0.000    0.000    0.000    0.000    0.000    0.000 
#
# Total GULP energy -623526.898106 kJ/mol
# GULP energy per Si atom -5567.204447 kJ/mol
# Density = 1.695854 g / cm^3
# Si number density = 16.997226 Si / 1000 Ang^3
#
#
#
# Elastic Constant Matrix: (Units=GPa)
#
#
# Indices 1 2 3 4 5 6 
#
# 1 67.2936 80.1726 28.7601 0.0000 0.0000 0.0000
# 2 80.1726 67.2954 28.7612 0.0000 0.0000 0.0000
# 3 28.7601 28.7612 16.6613 0.0000 0.0000 0.0000
# 4 0.0000 0.0000 0.0000 16.0770 0.0000 0.0000
# 5 0.0000 0.0000 0.0000 0.0000 16.0771 0.0000
# 6 0.0000 0.0000 0.0000 0.0000 0.0000 25.0937
#
#
#
# Elastic Compliance Matrix: (Units=1/GPa)
#
#
# Indices 1 2 3 4 5 6 
#
# 1 -0.028445 0.049205 -0.035838 0.000000 0.000000 0.000000
# 2 0.049205 -0.028448 -0.035827 0.000000 0.000000 0.000000
# 3 -0.035838 -0.035827 0.183726 0.000000 0.000000 0.000000
# 4 0.000000 0.000000 0.000000 0.062201 0.000000 0.000000
# 5 0.000000 0.000000 0.000000 0.000000 0.062200 0.000000
# 6 0.000000 0.000000 0.000000 0.000000 0.000000 0.039851
#
#
# Mechanical properties :
#
#
# Convention : Reuss Voigt Hill
#
# Bulk Modulus (GPa) = 12.20810 47.40424 29.80617
# Shear Modulus (GPa) = 13.76243 12.35332 13.05788
#
# Velocity S-wave (km/s) = 2.84859 2.69882 2.77471
# Velocity P-wave (km/s) = 4.24467 6.13689 5.27630
#
# Compressibility (1/GPa) = 0.08191283
#
# Stress axis : x y z
#
# Youngs Moduli (GPa) = -35.15570 -35.15138 5.44289
#
# Poissons Ratio (x) = 1.72961 0.19506
# Poissons Ratio (y) = 1.72982 0.19500
# Poissons Ratio (z) = -1.25991 -1.25935
#
# Static dielectric constant tensor:
#      x y z
#    x 1.583830 0.000000 0.000000 
#    y 0.000000 1.583830 0.000000 
#    z 0.000000 0.000000 1.576950 
# 
# From -- ./inp_files/2978.got.cif
#   From: 2010.05.17/outbox.cif.g08.bks.cpg/sg128_2_cif.got.tgz:2978.got - 2010.05.20 12:07:25.
