data_PCOD9564963
_publ_section_title
;
Structure prediction by ZEFSAII (Michael W. Deem and Ramdas Pophale) SiO2 
 PCOD9564963
Probable space group: P 4/M N C
;
_chemical_formula_sum "Si O2"
_cell_formula_units_Z 92
_cell_length_a 14.272490
_cell_length_b 14.272490
_cell_length_c 18.692214
_cell_angle_alpha 90.000000
_cell_angle_beta 90.000000
_cell_angle_gamma 90.000000
_cell_volume 3807.678215
_symmetry_space_group_name_H-M "P 4/M N C"
_symmetry_group_IT_number 128
_symmetry_cell_setting 'tetragonal'
loop_
_space_group_symop_operation_xyz
x,y,z
-y,x,z
-x,-y,z
y,-x,z
1/2+x,1/2-y,1/2-z
1/2-x,1/2+y,1/2-z
1/2+y,1/2+x,1/2-z
1/2-y,1/2-x,1/2-z
-x,-y,-z
y,-x,-z
x,y,-z
-y,x,-z
1/2-x,1/2+y,1/2+z
1/2+x,1/2-y,1/2+z
1/2-y,1/2-x,1/2+z
1/2+y,1/2+x,1/2+z
loop_
_atom_site_type_symbol
_atom_site_label
_atom_site_fract_x
_atom_site_fract_y
_atom_site_fract_z
Si Si1 0.500000 0.500000 0.644493
Si Si2 0.313315 0.044230 0.159817
Si Si3 0.358629 0.550336 0.086803
Si Si4 0.221189 0.721189 0.250000
Si Si5 0.850650 0.878259 0.921433
Si Si6 0.179588 0.335709 0.361555
Si Si7 0.030407 0.650401 0.415438
O O1 0.426575 0.588266 0.635952
O O2 0.274027 0.116453 0.218620
O O3 0.245484 0.066746 0.092870
O O4 0.415932 0.076436 0.133875
O O5 0.312977 0.935800 0.179370
O O6 0.384912 0.444651 0.110807
O O7 0.252055 0.574102 0.103470
O O8 0.361955 0.550447 0.000000
O O9 0.249385 0.796348 0.310233
O O10 0.834540 0.767756 0.915106
O O11 0.886940 0.901517 0.000000
O O12 0.079472 0.338444 0.399088
O O13 0.042919 0.630535 0.500000
#
# Coordination Sequence:
#
# PCOD9564963 Si02
#       7
#     4  16  16   8  16  16  16
#     4  12  21  36  64  96 132 176 220 268 329 406
#     4  11  25  45  68  97 137 183 231 295 344 422
#     4   8  16  32  54  85 132 184 230 277 332 409
#     4  10  28  48  66  94 126 184 260 284 340 404
#     4  11  22  38  66 103 139 176 220 276 348 416
#     4  11  25  45  68  97 137 183 231 295 344 422
#     4  11  24  40  69 110 148 184 226 285 376 448
#
# _framework density 24.161707
#
# number of rings (size 3 to 8) (size 9 to 14) (size 15 to 20)
#    0.000    1.565    1.739    2.870    7.304    2.783 
#    0.000    0.000    0.000    0.000    0.000    0.000 
#    0.000    0.000    0.000    0.000    0.000    0.000 
#
# Total GULP energy -513295.391626 kJ/mol
# GULP energy per Si atom -5579.297735 kJ/mol
# Density = 2.410671 g / cm^3
# Si number density = 24.161707 Si / 1000 Ang^3
#
#
#
# Elastic Constant Matrix: (Units=GPa)
#
#
# Indices 1 2 3 4 5 6 
#
# 1 137.3212 3.2255 28.1941 0.0000 0.0000 0.0000
# 2 3.2255 137.3212 28.1941 0.0000 0.0000 0.0000
# 3 28.1941 28.1941 59.8186 0.0000 0.0000 0.0000
# 4 0.0000 0.0000 0.0000 7.2265 0.0000 0.0000
# 5 0.0000 0.0000 0.0000 0.0000 7.2265 0.0000
# 6 0.0000 0.0000 0.0000 0.0000 0.0000 37.5356
#
#
#
# Elastic Compliance Matrix: (Units=1/GPa)
#
#
# Indices 1 2 3 4 5 6 
#
# 1 0.008116 0.000658 -0.004136 0.000000 0.000000 0.000000
# 2 0.000658 0.008116 -0.004136 0.000000 0.000000 0.000000
# 3 -0.004136 -0.004136 0.020616 0.000000 0.000000 0.000000
# 4 0.000000 0.000000 0.000000 0.138379 0.000000 0.000000
# 5 0.000000 0.000000 0.000000 0.000000 0.138379 0.000000
# 6 0.000000 0.000000 0.000000 0.000000 0.000000 0.026641
#
#
# Mechanical properties :
#
#
# Convention : Reuss Voigt Hill
#
# Bulk Modulus (GPa) = 46.24928 50.40981 48.32954
# Shear Modulus (GPa) = 13.78628 28.72088 21.25358
#
# Velocity S-wave (km/s) = 2.39128 3.45149 2.96909
# Velocity P-wave (km/s) = 5.17759 6.06568 5.63914
#
# Compressibility (1/GPa) = 0.02162196
#
# Stress axis : x y z
#
# Youngs Moduli (GPa) = 123.21613 123.21613 48.50696
#
# Poissons Ratio (x) = -0.08113 0.20060
# Poissons Ratio (y) = -0.08113 0.20060
# Poissons Ratio (z) = 0.50957 0.50957
#
# Static dielectric constant tensor:
#      x y z
#    x 1.947180 0.000000 0.000000 
#    y 0.000000 1.947180 0.000000 
#    z 0.000000 0.000000 1.967130 
# 
# From -- ./inp_files/5800.got.cif
#   From: 2010.05.17/outbox.cif.g08.bks.cpg/sg128_3_cif.got.tgz:5800.got - 2010.05.20 12:07:25.
