data_PCOD9564362
_publ_section_title
;
Structure prediction by ZEFSAII (Michael W. Deem and Ramdas Pophale) SiO2 
 PCOD9564362
Probable space group: P 4/M B M
;
_chemical_formula_sum "Si O2"
_cell_formula_units_Z 96
_cell_length_a 14.148675
_cell_length_b 14.148675
_cell_length_c 26.710826
_cell_angle_alpha 90.000000
_cell_angle_beta 90.000000
_cell_angle_gamma 90.000000
_cell_volume 5347.106816
_symmetry_space_group_name_H-M "P 4/M B M"
_symmetry_group_IT_number 127
_symmetry_cell_setting 'tetragonal'
loop_
_space_group_symop_operation_xyz
x,y,z
-y,x,z
-x,-y,z
y,-x,z
1/2+x,1/2-y,-z
1/2-x,1/2+y,-z
1/2+y,1/2+x,-z
1/2-y,1/2-x,-z
-x,-y,-z
y,-x,-z
x,y,-z
-y,x,-z
1/2-x,1/2+y,z
1/2+x,1/2-y,z
1/2-y,1/2-x,z
1/2+y,1/2+x,z
loop_
_atom_site_type_symbol
_atom_site_label
_atom_site_fract_x
_atom_site_fract_y
_atom_site_fract_z
Si Si1 0.845320 0.041487 0.500000
Si Si2 0.652681 0.543595 0.000000
Si Si3 0.645875 0.563306 0.195774
Si Si4 0.434668 0.774811 0.099515
Si Si5 0.581265 0.918736 0.251859
Si Si6 0.064285 0.275560 0.708389
Si Si7 0.041282 0.154846 0.390482
Si Si8 0.918699 0.418699 0.136363
O O1 0.798799 0.053876 0.445660
O O2 0.936216 0.110514 0.500000
O O3 0.562560 0.612315 0.000000
O O4 0.713556 0.559771 0.049670
O O5 0.547717 0.619447 0.194213
O O6 0.710269 0.585141 0.147880
O O7 0.702086 0.582529 0.246798
O O8 0.353394 0.853394 0.095101
O O9 0.533164 0.829990 0.109621
O O10 0.533394 0.830049 0.278791
O O11 0.604269 0.895732 0.194120
O O12 0.500000 0.000000 0.250569
O O13 0.146772 0.353229 0.708250
O O14 0.058414 0.223398 0.655580
O O15 0.935736 0.110879 0.387325
O O16 0.000000 0.500000 0.137649
#
# Coordination Sequence:
#
# PCOD9564362 Si02
#       8
#     8   8  16  16   8  16  16   8
#     4   7  12  26  53  77 100 143 188 221 272 339
#     4  11  25  47  64  83 122 159 184 227 287 332
#     4  11  23  40  58  82 118 155 184 225 285 335
#     4  11  22  42  65  92 118 145 190 233 275 333
#     4   9  18  36  57  75 111 153 182 220 274 328
#     4  11  21  36  54  81 113 148 191 231 276 332
#     4   9  17  33  54  80 111 143 182 232 283 331
#     4   9  18  37  64  85 115 150 177 227 283 322
#
# _framework density 17.953634999999998
#
# number of rings (size 3 to 8) (size 9 to 14) (size 15 to 20)
#    0.000    2.000    1.667    3.750    0.000    3.000 
#   16.500    1.667    0.000    0.500    0.000    1.750 
#    0.000    0.000    0.000    0.000    0.000    0.000 
#
# Total GULP energy -535872.623745 kJ/mol
# GULP energy per Si atom -5582.006497 kJ/mol
# Density = 1.791277 g / cm^3
# Si number density = 17.953635 Si / 1000 Ang^3
#
#
#
# Elastic Constant Matrix: (Units=GPa)
#
#
# Indices 1 2 3 4 5 6 
#
# 1 82.2155 30.6382 63.5600 0.0000 0.0000 0.0000
# 2 30.6382 82.2155 63.5600 0.0000 0.0000 0.0000
# 3 63.5600 63.5600 197.7926 0.0000 0.0000 0.0000
# 4 0.0000 0.0000 0.0000 -0.5408 0.0000 0.0000
# 5 0.0000 0.0000 0.0000 0.0000 -0.5408 0.0000
# 6 0.0000 0.0000 0.0000 0.0000 0.0000 15.2002
#
#
#
# Elastic Compliance Matrix: (Units=1/GPa)
#
#
# Indices 1 2 3 4 5 6 
#
# 1 0.016638 -0.002750 -0.004463 0.000000 0.000000 0.000000
# 2 -0.002750 0.016638 -0.004463 0.000000 0.000000 0.000000
# 3 -0.004463 -0.004463 0.007924 0.000000 0.000000 0.000000
# 4 0.000000 0.000000 0.000000 -1.849150 0.000000 0.000000
# 5 0.000000 0.000000 0.000000 0.000000 -1.849150 0.000000
# 6 0.000000 0.000000 0.000000 0.000000 0.000000 0.065789
#
#
# Mechanical properties :
#
#
# Convention : Reuss Voigt Hill
#
# Bulk Modulus (GPa) = 56.02652 75.30444 65.66548
# Shear Modulus (GPa) = -1.40370 16.45476 7.52553
#
# Velocity S-wave (km/s) = -0.88518 3.03068 2.04957
# Velocity P-wave (km/s) = 5.49811 7.36761 6.50042
#
# Compressibility (1/GPa) = 0.01784869
#
# Stress axis : x y z
#
# Youngs Moduli (GPa) = 60.10259 60.10259 126.19772
#
# Poissons Ratio (x) = 0.16529 0.56321
# Poissons Ratio (y) = 0.16529 0.56321
# Poissons Ratio (z) = 0.26823 0.26823
#
# Static dielectric constant tensor:
#      x y z
#    x 1.609190 0.000000 0.000000 
#    y 0.000000 1.609190 0.000000 
#    z 0.000000 0.000000 1.599950 
# 
# From -- ./inp_files/6158.got.cif
#   From: 2010.05.17/outbox.cif.g08.bks.cpg/sg127_4_cif.got.tgz:6158.got - 2010.05.20 12:03:00.
