data_PCOD9564480
_publ_section_title
;
Structure prediction by ZEFSAII (Michael W. Deem and Ramdas Pophale) SiO2 
 PCOD9564480
Probable space group: P 4/M B M
;
_chemical_formula_sum "Si O2"
_cell_formula_units_Z 72
_cell_length_a 17.969207
_cell_length_b 17.969207
_cell_length_c 9.543178
_cell_angle_alpha 90.000000
_cell_angle_beta 90.000000
_cell_angle_gamma 90.000000
_cell_volume 3081.419650
_symmetry_space_group_name_H-M "P 4/M B M"
_symmetry_group_IT_number 127
_symmetry_cell_setting 'tetragonal'
loop_
_space_group_symop_operation_xyz
x,y,z
-y,x,z
-x,-y,z
y,-x,z
1/2+x,1/2-y,-z
1/2-x,1/2+y,-z
1/2+y,1/2+x,-z
1/2-y,1/2-x,-z
-x,-y,-z
y,-x,-z
x,y,-z
-y,x,-z
1/2-x,1/2+y,z
1/2+x,1/2-y,z
1/2-y,1/2-x,z
1/2+y,1/2+x,z
loop_
_atom_site_type_symbol
_atom_site_label
_atom_site_fract_x
_atom_site_fract_y
_atom_site_fract_z
Si Si1 0.254439 0.366961 0.844731
Si Si2 0.470737 0.382798 0.668652
Si Si3 0.935880 0.435880 0.841782
Si Si4 0.761135 0.856967 0.334670
Si Si5 0.964471 0.663626 0.343006
O O1 0.176639 0.323362 0.863283
O O2 0.308307 0.307863 0.774848
O O3 0.234031 0.426096 0.726826
O O4 0.277323 0.393435 0.000000
O O5 0.552442 0.411616 0.717159
O O6 0.475075 0.386885 0.500000
O O7 0.436478 0.300774 0.696562
O O8 0.868790 0.473118 0.758339
O O9 0.000000 0.500000 0.848062
O O10 0.915540 0.415540 0.000000
O O11 0.779584 0.842409 0.500000
O O12 0.677161 0.822840 0.320903
O O13 0.993295 0.676896 0.500000
O O14 0.901705 0.598296 0.354124
#
# Coordination Sequence:
#
# PCOD9564480 Si02
#       5
#    16  16   8  16  16
#     4   9  16  25  37  55  82 115 150 189 235 290
#     4   8  14  26  46  73 103 133 166 206 255 310
#     4   9  15  21  29  43  65  95 135 183 239 303
#     4   9  16  26  43  70  99 124 156 201 250 299
#     4   9  15  22  32  47  69  99 138 188 243 292
#
# _framework density 23.365850999999999
#
# number of rings (size 3 to 8) (size 9 to 14) (size 15 to 20)
#    0.000    3.222    0.000    2.333    0.000    6.667 
#    0.000    0.000    0.000    1.333    2.889    1.556 
#    0.000    0.000    0.444    0.667    0.000    0.000 
#
# Total GULP energy -401050.113808 kJ/mol
# GULP energy per Si atom -5570.140470 kJ/mol
# Density = 2.331267 g / cm^3
# Si number density = 23.365851 Si / 1000 Ang^3
#
#
#
# Elastic Constant Matrix: (Units=GPa)
#
#
# Indices 1 2 3 4 5 6 
#
# 1 84.2455 40.8523 18.1681 0.0000 0.0000 0.0000
# 2 40.8523 84.2455 18.1681 0.0000 0.0000 0.0000
# 3 18.1681 18.1681 123.2108 0.0000 0.0000 0.0000
# 4 0.0000 0.0000 0.0000 -6.0697 0.0000 0.0000
# 5 0.0000 0.0000 0.0000 0.0000 -6.0697 0.0000
# 6 0.0000 0.0000 0.0000 0.0000 0.0000 47.0835
#
#
#
# Elastic Compliance Matrix: (Units=1/GPa)
#
#
# Indices 1 2 3 4 5 6 
#
# 1 0.015698 -0.007347 -0.001231 0.000000 0.000000 0.000000
# 2 -0.007347 0.015698 -0.001231 0.000000 0.000000 0.000000
# 3 -0.001231 -0.001231 0.008479 0.000000 0.000000 0.000000
# 4 0.000000 0.000000 0.000000 -0.164753 0.000000 0.000000
# 5 0.000000 0.000000 0.000000 0.000000 -0.164753 0.000000
# 6 0.000000 0.000000 0.000000 0.000000 0.000000 0.021239
#
#
# Mechanical properties :
#
#
# Convention : Reuss Voigt Hill
#
# Bulk Modulus (GPa) = 49.36719 49.56430 49.46575
# Shear Modulus (GPa) = -20.65949 21.28970 0.31511
#
# Velocity S-wave (km/s) = -2.97673 3.02179 0.36763
# Velocity P-wave (km/s) = 3.05928 5.78216 4.62561
#
# Compressibility (1/GPa) = 0.02025637
#
# Stress axis : x y z
#
# Youngs Moduli (GPa) = 63.70122 63.70122 117.93367
#
# Poissons Ratio (x) = 0.46800 0.14523
# Poissons Ratio (y) = 0.46800 0.14523
# Poissons Ratio (z) = 0.07845 0.07845
#
# Static dielectric constant tensor:
#      x y z
#    x 1.963440 0.000000 0.000000 
#    y 0.000000 1.963440 0.000000 
#    z 0.000000 0.000000 1.831700 
# 
# From -- ./inp_files/1517.got.cif
#   From: 2010.05.17/outbox.cif.g08.bks.cpg/sg127_1_cif.got.tgz:1517.got - 2010.05.20 12:03:00.
