data_PCOD9564633
_publ_section_title
;
Structure prediction by ZEFSAII (Michael W. Deem and Ramdas Pophale) SiO2 
 PCOD9564633
Probable space group: P 4/M N C
;
_chemical_formula_sum "Si O2"
_cell_formula_units_Z 104
_cell_length_a 19.157770
_cell_length_b 19.157770
_cell_length_c 15.965890
_cell_angle_alpha 90.000000
_cell_angle_beta 90.000000
_cell_angle_gamma 90.000000
_cell_volume 5859.803365
_symmetry_space_group_name_H-M "P 4/M N C"
_symmetry_group_IT_number 128
_symmetry_cell_setting 'tetragonal'
loop_
_space_group_symop_operation_xyz
x,y,z
-y,x,z
-x,-y,z
y,-x,z
1/2+x,1/2-y,1/2-z
1/2-x,1/2+y,1/2-z
1/2+y,1/2+x,1/2-z
1/2-y,1/2-x,1/2-z
-x,-y,-z
y,-x,-z
x,y,-z
-y,x,-z
1/2-x,1/2+y,1/2+z
1/2+x,1/2-y,1/2+z
1/2-y,1/2-x,1/2+z
1/2+y,1/2+x,1/2+z
loop_
_atom_site_type_symbol
_atom_site_label
_atom_site_fract_x
_atom_site_fract_y
_atom_site_fract_z
Si Si1 0.149379 0.417616 0.406617
Si Si2 0.727661 0.500000 0.849330
Si Si3 0.000000 0.882417 0.500000
Si Si4 0.000000 0.379678 0.594973
Si Si5 0.251465 0.365888 0.272595
Si Si6 0.082384 0.649378 0.906617
Si Si7 0.865888 0.248535 0.772595
O O1 0.149214 0.385358 0.500000
O O2 0.074050 0.400388 0.365238
O O3 0.217477 0.396484 0.356256
O O4 0.150167 0.500000 0.413587
O O5 0.663819 0.499999 0.914800
O O6 0.796937 0.500000 0.905262
O O7 0.734141 0.570152 0.791871
O O8 0.734141 0.429847 0.791871
O O9 0.067763 0.932238 0.500000
O O10 0.000000 0.409631 0.500000
O O11 0.925951 0.400388 0.634762
O O12 0.191496 0.308505 0.250000
O O13 0.322125 0.322125 0.283340
O O14 0.103517 0.717476 0.856256
O O15 0.114643 0.649213 0.000000
O O16 0.808504 0.308504 0.750000
#
# Coordination Sequence:
#
# PCOD9564633 Si02
#       7
#    16  16   8  16  16  16  16
#     4  10  20  36  57  84 117 154 194 233 281 345
#     4  12  21  39  61  84 116 153 192 241 301 355
#     4  11  26  46  66  88 111 150 210 264 311 360
#     4  10  19  33  56  85 116 152 188 229 275 346
#     4  11  23  37  56  85 117 151 196 244 294 356
#     4  10  20  36  57  84 117 154 194 233 281 345
#     4  11  23  37  56  85 117 151 196 244 294 356
#
# _framework density 17.748035000000002
#
# number of rings (size 3 to 8) (size 9 to 14) (size 15 to 20)
#    0.000    1.308    5.385    1.385    0.000    2.462 
#    0.000    0.000    0.000    0.000    0.000    0.000 
#    0.000    2.462    0.000    0.000    0.000    0.000 
#
# Total GULP energy -578989.025997 kJ/mol
# GULP energy per Si atom -5567.202173 kJ/mol
# Density = 1.770764 g / cm^3
# Si number density = 17.748035 Si / 1000 Ang^3
#
#
#
# Elastic Constant Matrix: (Units=GPa)
#
#
# Indices 1 2 3 4 5 6 
#
# 1 122.1806 59.9687 54.3046 0.0000 0.0000 0.0000
# 2 59.9687 122.1805 54.3046 0.0000 0.0000 0.0000
# 3 54.3046 54.3046 81.1862 0.0000 0.0000 0.0000
# 4 0.0000 0.0000 0.0000 21.4979 0.0000 0.0000
# 5 0.0000 0.0000 0.0000 0.0000 21.4978 0.0000
# 6 0.0000 0.0000 0.0000 0.0000 0.0000 34.2426
#
#
#
# Elastic Compliance Matrix: (Units=1/GPa)
#
#
# Indices 1 2 3 4 5 6 
#
# 1 0.012603 -0.003471 -0.006108 0.000000 0.000000 0.000000
# 2 -0.003471 0.012603 -0.006108 0.000000 0.000000 0.000000
# 3 -0.006108 -0.006108 0.020489 0.000000 0.000000 0.000000
# 4 0.000000 0.000000 0.000000 0.046516 0.000000 0.000000
# 5 0.000000 0.000000 0.000000 0.000000 0.046516 0.000000
# 6 0.000000 0.000000 0.000000 0.000000 0.000000 0.029203
#
#
# Mechanical properties :
#
#
# Convention : Reuss Voigt Hill
#
# Bulk Modulus (GPa) = 69.83346 73.63367 71.73357
# Shear Modulus (GPa) = 24.50012 25.91227 25.20619
#
# Velocity S-wave (km/s) = 3.71946 3.82515 3.77267
# Velocity P-wave (km/s) = 7.60779 7.81585 7.71252
#
# Compressibility (1/GPa) = 0.01431978
#
# Stress axis : x y z
#
# Youngs Moduli (GPa) = 79.34502 79.34498 48.80632
#
# Poissons Ratio (x) = 0.27540 0.29813
# Poissons Ratio (y) = 0.27540 0.29813
# Poissons Ratio (z) = 0.48468 0.48468
#
# Static dielectric constant tensor:
#      x y z
#    x 1.606750 0.000000 0.000000 
#    y 0.000000 1.606750 0.000000 
#    z 0.000000 0.000000 1.651480 
# 
# From -- ./inp_files/4865.got.cif
#   From: 2010.05.17/outbox.cif.g08.bks.cpg/sg128_3_cif.got.tgz:4865.got - 2010.05.20 12:07:25.
