data_PCOD9564974
_publ_section_title
;
Structure prediction by ZEFSAII (Michael W. Deem and Ramdas Pophale) SiO2 
 PCOD9564974
Probable space group: P 4/M N C
;
_chemical_formula_sum "Si O2"
_cell_formula_units_Z 88
_cell_length_a 11.364842
_cell_length_b 11.364842
_cell_length_c 27.371206
_cell_angle_alpha 90.000000
_cell_angle_beta 90.000000
_cell_angle_gamma 90.000000
_cell_volume 3535.254940
_symmetry_space_group_name_H-M "P 4/M N C"
_symmetry_group_IT_number 128
_symmetry_cell_setting 'tetragonal'
loop_
_space_group_symop_operation_xyz
x,y,z
-y,x,z
-x,-y,z
y,-x,z
1/2+x,1/2-y,1/2-z
1/2-x,1/2+y,1/2-z
1/2+y,1/2+x,1/2-z
1/2-y,1/2-x,1/2-z
-x,-y,-z
y,-x,-z
x,y,-z
-y,x,-z
1/2-x,1/2+y,1/2+z
1/2+x,1/2-y,1/2+z
1/2-y,1/2-x,1/2+z
1/2+y,1/2+x,1/2+z
loop_
_atom_site_type_symbol
_atom_site_label
_atom_site_fract_x
_atom_site_fract_y
_atom_site_fract_z
Si Si1 0.194231 0.994021 0.348571
Si Si2 0.852311 0.323478 0.408076
Si Si3 0.183985 0.001758 0.074540
Si Si4 0.216090 0.522115 0.740452
Si Si5 0.141165 0.190782 0.829422
Si Si6 0.162395 0.114300 0.500000
O O1 0.305853 0.021194 0.382649
O O2 0.230756 0.990376 0.292576
O O3 0.112566 0.107859 0.358748
O O4 0.816741 0.453061 0.428203
O O5 0.753045 0.299439 0.365744
O O6 0.844867 0.232657 0.452377
O O7 0.168368 0.965033 0.132026
O O8 0.110258 0.113965 0.054708
O O9 0.101686 0.601686 0.750000
O O10 0.314339 0.603070 0.712984
O O11 0.202613 0.412601 0.703251
O O12 0.028125 0.157494 0.500000
#
# Coordination Sequence:
#
# PCOD9564974 Si02
#       6
#    16  16  16  16  16   8
#     4  11  22  34  56  90 127 166 223 278 327 395
#     4  11  22  39  66  98 129 168 221 292 353 404
#     4   9  17  33  61  94 128 167 218 271 329 386
#     4  12  21  34  57  94 134 181 224 274 326 395
#     4  11  20  35  65  92 136 181 227 276 329 392
#     4  11  26  52  82 101 122 160 228 299 358 406
#
# _framework density 24.892123999999999
#
# number of rings (size 3 to 8) (size 9 to 14) (size 15 to 20)
#    0.000    1.182    7.273    1.091    0.000    1.818 
#    0.000    3.636    0.000   44.182    0.000    0.000 
#    0.000    0.000    0.000    0.000    0.000    0.000 
#
# Total GULP energy -490302.013855 kJ/mol
# GULP energy per Si atom -5571.613794 kJ/mol
# Density = 2.483547 g / cm^3
# Si number density = 24.892124 Si / 1000 Ang^3
#
#
#
# Elastic Constant Matrix: (Units=GPa)
#
#
# Indices 1 2 3 4 5 6 
#
# 1 36.6284 47.6038 19.5422 0.0000 0.0000 0.0000
# 2 47.6038 36.6284 19.5422 0.0000 0.0000 0.0000
# 3 19.5422 19.5422 134.7385 0.0000 0.0000 0.0000
# 4 0.0000 0.0000 0.0000 19.8776 0.0000 0.0000
# 5 0.0000 0.0000 0.0000 0.0000 19.8776 0.0000
# 6 0.0000 0.0000 0.0000 0.0000 0.0000 62.4746
#
#
#
# Elastic Compliance Matrix: (Units=1/GPa)
#
#
# Indices 1 2 3 4 5 6 
#
# 1 -0.039192 0.051921 -0.001846 0.000000 0.000000 0.000000
# 2 0.051921 -0.039192 -0.001846 0.000000 0.000000 0.000000
# 3 -0.001846 -0.001846 0.007957 0.000000 0.000000 0.000000
# 4 0.000000 0.000000 0.000000 0.050308 0.000000 0.000000
# 5 0.000000 0.000000 0.000000 0.000000 0.050308 0.000000
# 6 0.000000 0.000000 0.000000 0.000000 0.000000 0.016007
#
#
# Mechanical properties :
#
#
# Convention : Reuss Voigt Hill
#
# Bulk Modulus (GPa) = 38.41732 42.37464 40.39598
# Shear Modulus (GPa) = -120.23503 28.53309 -45.85097
#
# Velocity S-wave (km/s) = -6.95754 3.38933 -4.29649
# Velocity P-wave (km/s) = 7.00543 5.69008 2.88955
#
# Compressibility (1/GPa) = 0.02602993
#
# Stress axis : x y z
#
# Youngs Moduli (GPa) = -25.51526 -25.51526 125.67078
#
# Poissons Ratio (x) = 1.32477 0.23200
# Poissons Ratio (y) = 1.32477 0.23200
# Poissons Ratio (z) = -0.04710 -0.04710
#
# Static dielectric constant tensor:
#      x y z
#    x 2.035960 0.000000 0.000000 
#    y 0.000000 2.035960 0.000000 
#    z 0.000000 0.000000 2.000090 
# 
# From -- ./inp_files/7283.got.cif
#   From: 2010.05.17/outbox.cif.g08.bks.cpg/sg128_4_cif.got.tgz:7283.got - 2010.05.20 12:07:25.
