data_PCOD9564598
_publ_section_title
;
Structure prediction by ZEFSAII (Michael W. Deem and Ramdas Pophale) SiO2 
 PCOD9564598
Probable space group: P 4/M N C
;
_chemical_formula_sum "Si O2"
_cell_formula_units_Z 96
_cell_length_a 15.998703
_cell_length_b 15.998703
_cell_length_c 16.139917
_cell_angle_alpha 90.000000
_cell_angle_beta 90.000000
_cell_angle_gamma 90.000000
_cell_volume 4131.148908
_symmetry_space_group_name_H-M "P 4/M N C"
_symmetry_group_IT_number 128
_symmetry_cell_setting 'tetragonal'
loop_
_space_group_symop_operation_xyz
x,y,z
-y,x,z
-x,-y,z
y,-x,z
1/2+x,1/2-y,1/2-z
1/2-x,1/2+y,1/2-z
1/2+y,1/2+x,1/2-z
1/2-y,1/2-x,1/2-z
-x,-y,-z
y,-x,-z
x,y,-z
-y,x,-z
1/2-x,1/2+y,1/2+z
1/2+x,1/2-y,1/2+z
1/2-y,1/2-x,1/2+z
1/2+y,1/2+x,1/2+z
loop_
_atom_site_type_symbol
_atom_site_label
_atom_site_fract_x
_atom_site_fract_y
_atom_site_fract_z
Si Si1 0.524966 0.631399 0.120117
Si Si2 0.205364 0.612218 0.092267
Si Si3 0.166347 0.872235 0.906371
Si Si4 0.973406 0.651184 0.291992
Si Si5 0.230974 0.325380 0.903439
Si Si6 0.471350 0.306617 0.695452
O O1 0.436193 0.594240 0.096609
O O2 0.545233 0.720157 0.084166
O O3 0.528788 0.642325 0.219262
O O4 0.142887 0.558367 0.151248
O O5 0.263133 0.691496 0.122484
O O6 0.171871 0.633087 0.000000
O O7 0.262943 0.847752 0.904568
O O8 0.154430 0.962838 0.867690
O O9 0.117387 0.808994 0.847636
O O10 0.136217 0.866023 0.000000
O O11 0.928680 0.571321 0.250000
O O12 0.900913 0.703099 0.343400
O O13 0.002059 0.714131 0.220198
O O14 0.246255 0.349697 0.000000
#
# Coordination Sequence:
#
# PCOD9564598 Si02
#       6
#    16  16  16  16  16  16
#     4  10  19  31  50  78 118 157 186 228 284 348
#     4  10  21  36  57  84 117 154 198 248 296 350
#     4  11  23  39  60  86 120 159 198 243 293 356
#     4  11  22  36  60  90 120 156 198 245 297 351
#     4  10  22  41  62  88 119 158 205 248 299 354
#     4  11  21  37  57  86 120 154 198 237 289 351
#
# _framework density 23.238085999999999
#
# number of rings (size 3 to 8) (size 9 to 14) (size 15 to 20)
#    0.000    1.500    3.333    3.000    2.333    2.333 
#    0.000    1.667    0.000    2.000    0.000    3.500 
#    0.000    0.000    0.000    0.000    0.000    0.000 
#
# Total GULP energy -535864.041017 kJ/mol
# GULP energy per Si atom -5581.917094 kJ/mol
# Density = 2.318520 g / cm^3
# Si number density = 23.238086 Si / 1000 Ang^3
#
#
#
# Elastic Constant Matrix: (Units=GPa)
#
#
# Indices 1 2 3 4 5 6 
#
# 1 52.9513 15.3077 21.9913 0.0000 0.0000 0.0000
# 2 15.3077 52.9521 21.9905 0.0000 0.0000 0.0000
# 3 21.9913 21.9905 96.9362 0.0000 0.0000 0.0000
# 4 0.0000 0.0000 0.0000 26.2376 0.0000 0.0000
# 5 0.0000 0.0000 0.0000 0.0000 26.2375 0.0000
# 6 0.0000 0.0000 0.0000 0.0000 0.0000 35.0457
#
#
#
# Elastic Compliance Matrix: (Units=1/GPa)
#
#
# Indices 1 2 3 4 5 6 
#
# 1 0.021862 -0.004703 -0.003893 0.000000 0.000000 0.000000
# 2 -0.004703 0.021861 -0.003892 0.000000 0.000000 0.000000
# 3 -0.003893 -0.003892 0.012082 0.000000 0.000000 0.000000
# 4 0.000000 0.000000 0.000000 0.038113 0.000000 0.000000
# 5 0.000000 0.000000 0.000000 0.000000 0.038113 0.000000
# 6 0.000000 0.000000 0.000000 0.000000 0.000000 0.028534
#
#
# Mechanical properties :
#
#
# Convention : Reuss Voigt Hill
#
# Bulk Modulus (GPa) = 32.43766 35.71318 34.07542
# Shear Modulus (GPa) = 25.53389 27.07417 26.30403
#
# Velocity S-wave (km/s) = 3.31840 3.41703 3.36808
# Velocity P-wave (km/s) = 5.35458 5.56505 5.46083
#
# Compressibility (1/GPa) = 0.03082837
#
# Stress axis : x y z
#
# Youngs Moduli (GPa) = 45.74232 45.74341 82.76677
#
# Poissons Ratio (x) = 0.21515 0.32218
# Poissons Ratio (y) = 0.21514 0.32215
# Poissons Ratio (z) = 0.17806 0.17805
#
# Static dielectric constant tensor:
#      x y z
#    x 1.925300 0.000000 0.000000 
#    y 0.000000 1.925300 0.000000 
#    z 0.000000 0.000000 1.925690 
# 
# From -- ./inp_files/4747.got.cif
#   From: 2010.05.17/outbox.cif.g08.bks.cpg/sg128_3_cif.got.tgz:4747.got - 2010.05.20 12:07:25.
