data_PCOD9564453
_publ_section_title
;
Structure prediction by ZEFSAII (Michael W. Deem and Ramdas Pophale) SiO2 
 PCOD9564453
Probable space group: P 4/M B M
;
_chemical_formula_sum "Si O2"
_cell_formula_units_Z 72
_cell_length_a 19.229577
_cell_length_b 19.229577
_cell_length_c 7.663968
_cell_angle_alpha 90.000000
_cell_angle_beta 90.000000
_cell_angle_gamma 90.000000
_cell_volume 2833.956272
_symmetry_space_group_name_H-M "P 4/M B M"
_symmetry_group_IT_number 127
_symmetry_cell_setting 'tetragonal'
loop_
_space_group_symop_operation_xyz
x,y,z
-y,x,z
-x,-y,z
y,-x,z
1/2+x,1/2-y,-z
1/2-x,1/2+y,-z
1/2+y,1/2+x,-z
1/2-y,1/2-x,-z
-x,-y,-z
y,-x,-z
x,y,-z
-y,x,-z
1/2-x,1/2+y,z
1/2+x,1/2-y,z
1/2-y,1/2-x,z
1/2+y,1/2+x,z
loop_
_atom_site_type_symbol
_atom_site_label
_atom_site_fract_x
_atom_site_fract_y
_atom_site_fract_z
Si Si1 0.437225 0.207444 0.000000
Si Si2 0.519092 0.131272 0.304176
Si Si3 0.648768 0.735338 0.310528
Si Si4 0.523025 0.388807 0.710491
Si Si5 0.259115 0.393498 0.798588
O O1 0.467278 0.155187 0.846058
O O2 0.402699 0.257073 0.848143
O O3 0.489162 0.130166 0.500000
O O4 0.559395 0.059395 0.271652
O O5 0.578060 0.191827 0.297016
O O6 0.614732 0.725894 0.500000
O O7 0.694942 0.805059 0.308981
O O8 0.703044 0.672635 0.282392
O O9 0.579561 0.448279 0.757449
O O10 0.525291 0.381678 0.500000
O O11 0.545768 0.316963 0.793910
O O12 0.240772 0.380168 0.000000
#
# Coordination Sequence:
#
# PCOD9564453 Si02
#       5
#     8  16  16  16  16
#     4  12  24  42  70 103 135 168 220 278 340 404
#     4  11  25  45  69  99 137 179 223 278 344 408
#     4  11  25  45  69  99 137 179 223 278 344 408
#     4   9  20  37  55  81 126 181 228 272 324 382
#     4  12  24  38  63  95 134 182 234 281 327 384
#
# _framework density 25.406178000000001
#
# number of rings (size 3 to 8) (size 9 to 14) (size 15 to 20)
#    0.000    1.111    2.222    4.667    3.111    3.556 
#    0.000    1.111    0.000    5.333    0.000   12.444 
#    0.000    0.000    0.000    0.000    0.000    0.000 
#
# Total GULP energy -401694.620006 kJ/mol
# GULP energy per Si atom -5579.091945 kJ/mol
# Density = 2.534835 g / cm^3
# Si number density = 25.406178 Si / 1000 Ang^3
#
#
#
# Elastic Constant Matrix: (Units=GPa)
#
#
# Indices 1 2 3 4 5 6 
#
# 1 76.4985 56.3809 36.0883 0.0000 0.0000 0.0000
# 2 56.3809 76.4985 36.0883 0.0000 0.0000 0.0000
# 3 36.0883 36.0883 218.5963 0.0000 0.0000 0.0000
# 4 0.0000 0.0000 0.0000 13.8927 0.0000 0.0000
# 5 0.0000 0.0000 0.0000 0.0000 13.8927 0.0000
# 6 0.0000 0.0000 0.0000 0.0000 0.0000 64.3208
#
#
#
# Elastic Compliance Matrix: (Units=1/GPa)
#
#
# Indices 1 2 3 4 5 6 
#
# 1 0.028987 -0.020720 -0.001365 0.000000 0.000000 0.000000
# 2 -0.020720 0.028987 -0.001365 0.000000 0.000000 0.000000
# 3 -0.001365 -0.001365 0.005025 0.000000 0.000000 0.000000
# 4 0.000000 0.000000 0.000000 0.071980 0.000000 0.000000
# 5 0.000000 0.000000 0.000000 0.000000 0.071980 0.000000
# 6 0.000000 0.000000 0.000000 0.000000 0.000000 0.015547
#
#
# Mechanical properties :
#
#
# Convention : Reuss Voigt Hill
#
# Bulk Modulus (GPa) = 62.11191 69.85647 65.98419
# Shear Modulus (GPa) = 18.19675 34.62362 26.41018
#
# Velocity S-wave (km/s) = 2.67916 3.69562 3.22765
# Velocity P-wave (km/s) = 5.83705 6.76504 6.31810
#
# Compressibility (1/GPa) = 0.01609997
#
# Stress axis : x y z
#
# Youngs Moduli (GPa) = 34.49780 34.49780 198.99411
#
# Poissons Ratio (x) = 0.71481 0.27159
# Poissons Ratio (y) = 0.71481 0.27159
# Poissons Ratio (z) = 0.04708 0.04708
#
# Static dielectric constant tensor:
#      x y z
#    x 2.019970 0.000000 0.000000 
#    y 0.000000 2.019970 0.000000 
#    z 0.000000 0.000000 1.941370 
# 
# From -- ./inp_files/1591.got.cif
#   From: 2010.05.17/outbox.cif.g08.bks.cpg/sg127_1_cif.got.tgz:1591.got - 2010.05.20 12:03:00.
