data_PCOD9564784
_publ_section_title
;
Structure prediction by ZEFSAII (Michael W. Deem and Ramdas Pophale) SiO2 
 PCOD9564784
Probable space group: P 4/M N C
;
_chemical_formula_sum "Si O2"
_cell_formula_units_Z 64
_cell_length_a 13.709134
_cell_length_b 13.709134
_cell_length_c 16.306540
_cell_angle_alpha 90.000000
_cell_angle_beta 90.000000
_cell_angle_gamma 90.000000
_cell_volume 3064.656917
_symmetry_space_group_name_H-M "P 4/M N C"
_symmetry_group_IT_number 128
_symmetry_cell_setting 'tetragonal'
loop_
_space_group_symop_operation_xyz
x,y,z
-y,x,z
-x,-y,z
y,-x,z
1/2+x,1/2-y,1/2-z
1/2-x,1/2+y,1/2-z
1/2+y,1/2+x,1/2-z
1/2-y,1/2-x,1/2-z
-x,-y,-z
y,-x,-z
x,y,-z
-y,x,-z
1/2-x,1/2+y,1/2+z
1/2+x,1/2-y,1/2+z
1/2-y,1/2-x,1/2+z
1/2+y,1/2+x,1/2+z
loop_
_atom_site_type_symbol
_atom_site_label
_atom_site_fract_x
_atom_site_fract_y
_atom_site_fract_z
Si Si1 0.790267 0.587860 0.690822
Si Si2 0.401018 0.061248 0.908325
Si Si3 0.826380 0.772837 0.594108
Si Si4 0.247819 0.031510 0.338759
O O1 0.881777 0.618224 0.750000
O O2 0.820086 0.515065 0.619432
O O3 0.768014 0.693023 0.649557
O O4 0.725644 0.523802 0.753354
O O5 0.415018 0.147602 0.843717
O O6 0.500000 0.000000 0.909696
O O7 0.383210 0.099649 0.000000
O O8 0.794826 0.770526 0.500000
O O9 0.820862 0.881401 0.631643
O O10 0.940528 0.744311 0.599016
#
# Coordination Sequence:
#
# PCOD9564784 Si02
#       4
#    16  16  16  16
#     4  10  21  34  56  84 117 158 203 262 321 381
#     4  11  19  32  55  84 115 154 206 261 319 380
#     4  11  22  40  60  88 125 168 214 266 330 404
#     4  11  24  37  59  90 127 168 215 271 329 392
#
# _framework density 20.88325
#
# number of rings (size 3 to 8) (size 9 to 14) (size 15 to 20)
#    0.000    1.250    5.000    3.750    0.000    6.500 
#    0.000    1.250    0.000    0.000    0.000    0.000 
#    0.000    0.000    0.000   68.000    0.000    0.000 
#
# Total GULP energy -356505.071038 kJ/mol
# GULP energy per Si atom -5570.391735 kJ/mol
# Density = 2.083572 g / cm^3
# Si number density = 20.883250 Si / 1000 Ang^3
#
#
#
# Elastic Constant Matrix: (Units=GPa)
#
#
# Indices 1 2 3 4 5 6 
#
# 1 62.2788 9.7605 28.6286 0.0000 0.0000 0.0000
# 2 9.7605 62.2793 28.6289 0.0000 0.0000 0.0000
# 3 28.6286 28.6289 136.4897 0.0000 0.0000 0.0000
# 4 0.0000 0.0000 0.0000 14.5712 0.0000 0.0000
# 5 0.0000 0.0000 0.0000 0.0000 14.5713 0.0000
# 6 0.0000 0.0000 0.0000 0.0000 0.0000 23.6073
#
#
#
# Elastic Compliance Matrix: (Units=1/GPa)
#
#
# Indices 1 2 3 4 5 6 
#
# 1 0.017850 -0.001191 -0.003494 0.000000 0.000000 0.000000
# 2 -0.001191 0.017850 -0.003494 0.000000 0.000000 0.000000
# 3 -0.003494 -0.003494 0.008792 0.000000 0.000000 0.000000
# 4 0.000000 0.000000 0.000000 0.068629 0.000000 0.000000
# 5 0.000000 0.000000 0.000000 0.000000 0.068628 0.000000
# 6 0.000000 0.000000 0.000000 0.000000 0.000000 0.042360
#
#
# Mechanical properties :
#
#
# Convention : Reuss Voigt Hill
#
# Bulk Modulus (GPa) = 35.54582 43.89821 39.72201
# Shear Modulus (GPa) = 20.01244 23.48527 21.74885
#
# Velocity S-wave (km/s) = 3.09900 3.35714 3.23065
# Velocity P-wave (km/s) = 5.46473 6.00780 5.74268
#
# Compressibility (1/GPa) = 0.02813270
#
# Stress axis : x y z
#
# Youngs Moduli (GPa) = 56.02339 56.02373 113.73536
#
# Poissons Ratio (x) = 0.06674 0.39740
# Poissons Ratio (y) = 0.06674 0.39740
# Poissons Ratio (z) = 0.19575 0.19575
#
# Static dielectric constant tensor:
#      x y z
#    x 1.785060 0.000000 0.000000 
#    y 0.000000 1.785060 0.000000 
#    z 0.000000 0.000000 1.802550 
# 
# From -- ./inp_files/4477.got.cif
#   From: 2010.05.17/outbox.cif.g08.bks.cpg/sg128_3_cif.got.tgz:4477.got - 2010.05.20 12:07:25.
