data_PCOD9564295
_publ_section_title
;
Structure prediction by ZEFSAII (Michael W. Deem and Ramdas Pophale) SiO2 
 PCOD9564295
Probable space group: P 4/M B M
;
_chemical_formula_sum "Si O2"
_cell_formula_units_Z 58
_cell_length_a 13.044374
_cell_length_b 13.044374
_cell_length_c 17.486227
_cell_angle_alpha 90.000000
_cell_angle_beta 90.000000
_cell_angle_gamma 90.000000
_cell_volume 2975.381074
_symmetry_space_group_name_H-M "P 4/M B M"
_symmetry_group_IT_number 127
_symmetry_cell_setting 'tetragonal'
loop_
_space_group_symop_operation_xyz
x,y,z
-y,x,z
-x,-y,z
y,-x,z
1/2+x,1/2-y,-z
1/2-x,1/2+y,-z
1/2+y,1/2+x,-z
1/2-y,1/2-x,-z
-x,-y,-z
y,-x,-z
x,y,-z
-y,x,-z
1/2-x,1/2+y,z
1/2+x,1/2-y,z
1/2-y,1/2-x,z
1/2+y,1/2+x,z
loop_
_atom_site_type_symbol
_atom_site_label
_atom_site_fract_x
_atom_site_fract_y
_atom_site_fract_z
Si Si1 0.834741 0.499531 0.214283
Si Si2 0.666968 0.533179 0.337898
Si Si3 0.769395 0.569286 0.500000
Si Si4 0.000000 0.500000 0.500000
Si Si5 0.470344 0.331299 0.910519
O O1 0.910201 0.589800 0.187428
O O2 0.762406 0.541598 0.281150
O O3 0.763210 0.460772 0.145902
O O4 0.907676 0.407676 0.242935
O O5 0.577815 0.615837 0.323970
O O6 0.705219 0.546171 0.424351
O O7 0.814153 0.685848 0.500000
O O8 0.873416 0.502754 0.500000
O O9 0.580355 0.386003 0.896837
O O10 0.464953 0.302950 0.000000
#
# Coordination Sequence:
#
# PCOD9564295 Si02
#       5
#    16  16   8   2  16
#     4  11  25  40  57  85 122 158 197 243 294 350
#     4  11  24  42  63  89 120 153 199 249 293 347
#     4  10  22  41  62  89 120 156 190 236 292 342
#     4   8  24  40  60  92 128 152 186 248 288 344
#     4   9  19  38  63  89 117 151 194 243 294 350
#
# _framework density 19.493300000000001
#
# number of rings (size 3 to 8) (size 9 to 14) (size 15 to 20)
#    0.414    1.379    0.000    4.138    1.931    9.931 
#    2.483    4.138    0.000    0.000    0.000    0.000 
#    0.000    0.000    0.000    0.000    0.000    0.000 
#
# Total GULP energy -323447.303324 kJ/mol
# GULP energy per Si atom -5576.677644 kJ/mol
# Density = 1.944893 g / cm^3
# Si number density = 19.493300 Si / 1000 Ang^3
#
#
#
# Elastic Constant Matrix: (Units=GPa)
#
#
# Indices 1 2 3 4 5 6 
#
# 1 65.6630 3.3697 7.9887 0.0000 0.0000 0.0000
# 2 3.3697 65.6627 7.9887 0.0000 0.0000 0.0000
# 3 7.9887 7.9887 44.3590 0.0000 0.0000 0.0000
# 4 0.0000 0.0000 0.0000 50.6799 0.0000 0.0000
# 5 0.0000 0.0000 0.0000 0.0000 50.6741 0.0000
# 6 0.0000 0.0000 0.0000 0.0000 0.0000 10.8639
#
#
#
# Elastic Compliance Matrix: (Units=1/GPa)
#
#
# Indices 1 2 3 4 5 6 
#
# 1 0.015585 -0.000469 -0.002722 0.000000 0.000000 0.000000
# 2 -0.000469 0.015585 -0.002722 0.000000 0.000000 0.000000
# 3 -0.002722 -0.002722 0.023524 0.000000 0.000000 0.000000
# 4 0.000000 0.000000 0.000000 0.019732 0.000000 0.000000
# 5 0.000000 0.000000 0.000000 0.000000 0.019734 0.000000
# 6 0.000000 0.000000 0.000000 0.000000 0.000000 0.092048
#
#
# Mechanical properties :
#
#
# Convention : Reuss Voigt Hill
#
# Bulk Modulus (GPa) = 23.32811 23.81989 23.57400
# Shear Modulus (GPa) = 23.54918 32.86608 28.20763
#
# Velocity S-wave (km/s) = 3.47949 4.11057 3.80813
# Velocity P-wave (km/s) = 5.30431 5.89704 5.60851
#
# Compressibility (1/GPa) = 0.04286673
#
# Stress axis : x y z
#
# Youngs Moduli (GPa) = 64.16622 64.16594 42.50999
#
# Poissons Ratio (x) = 0.03007 0.11572
# Poissons Ratio (y) = 0.03007 0.11572
# Poissons Ratio (z) = 0.17468 0.17468
#
# Static dielectric constant tensor:
#      x y z
#    x 1.701850 0.000000 0.000000 
#    y 0.000000 1.701850 0.000000 
#    z 0.000000 0.000000 1.666090 
# 
# From -- ./inp_files/5554.got.cif
#   From: 2010.05.17/outbox.cif.g08.bks.cpg/sg127_3_cif.got.tgz:5554.got - 2010.05.20 12:03:00.
