data_PCOD9564381
_publ_section_title
;
Structure prediction by ZEFSAII (Michael W. Deem and Ramdas Pophale) SiO2 
 PCOD9564381
Probable space group: P 4/M B M
;
_chemical_formula_sum "Si O2"
_cell_formula_units_Z 88
_cell_length_a 13.699432
_cell_length_b 13.699432
_cell_length_c 27.282177
_cell_angle_alpha 90.000000
_cell_angle_beta 90.000000
_cell_angle_gamma 90.000000
_cell_volume 5120.167212
_symmetry_space_group_name_H-M "P 4/M B M"
_symmetry_group_IT_number 127
_symmetry_cell_setting 'tetragonal'
loop_
_space_group_symop_operation_xyz
x,y,z
-y,x,z
-x,-y,z
y,-x,z
1/2+x,1/2-y,-z
1/2-x,1/2+y,-z
1/2+y,1/2+x,-z
1/2-y,1/2-x,-z
-x,-y,-z
y,-x,-z
x,y,-z
-y,x,-z
1/2-x,1/2+y,z
1/2+x,1/2-y,z
1/2-y,1/2-x,z
1/2+y,1/2+x,z
loop_
_atom_site_type_symbol
_atom_site_label
_atom_site_fract_x
_atom_site_fract_y
_atom_site_fract_z
Si Si1 0.858617 0.085349 0.445729
Si Si2 0.234278 0.893320 0.342681
Si Si3 0.000415 0.334031 0.000000
Si Si4 0.837788 0.977247 0.193003
Si Si5 0.245052 0.090697 0.708986
Si Si6 0.665227 0.489817 0.080277
O O1 0.819178 0.109272 0.500000
O O2 0.798316 0.118244 0.398877
O O3 0.968116 0.128275 0.442722
O O4 0.326968 0.826968 0.332620
O O5 0.147615 0.852757 0.308025
O O6 0.256797 0.003742 0.329289
O O7 0.993127 0.259227 0.954251
O O8 0.910433 0.410433 0.000000
O O9 0.099083 0.400918 0.000000
O O10 0.893992 0.079546 0.198102
O O11 0.764544 0.955435 0.236952
O O12 0.802115 0.978907 0.136959
O O13 0.331924 0.168077 0.707025
O O14 0.599543 0.588052 0.072333
#
# Coordination Sequence:
#
# PCOD9564381 Si02
#       6
#    16  16   8  16  16  16
#     4   9  17  31  54  82 107 135 178 233 286 328
#     4  11  22  35  55  81 108 148 189 222 276 335
#     4  11  24  39  54  78 114 157 196 225 270 334
#     4   9  17  33  58  85 110 139 177 227 279 325
#     4  11  22  35  55  83 112 145 187 230 273 332
#     4   9  19  36  60  89 113 138 183 237 283 327
#
# _framework density 17.186938000000001
#
# number of rings (size 3 to 8) (size 9 to 14) (size 15 to 20)
#    0.000    2.091    3.636    2.182    0.000    4.000 
#    0.000    3.636    0.000    0.545    0.000    1.273 
#    0.000    0.000    0.000    0.000    0.000    0.000 
#
# Total GULP energy -490413.026577 kJ/mol
# GULP energy per Si atom -5572.875302 kJ/mol
# Density = 1.714782 g / cm^3
# Si number density = 17.186938 Si / 1000 Ang^3
#
#
#
# Elastic Constant Matrix: (Units=GPa)
#
#
# Indices 1 2 3 4 5 6 
#
# 1 55.1832 12.1560 33.9992 0.0000 0.0000 0.0000
# 2 12.1560 55.1835 33.9993 0.0000 0.0000 0.0000
# 3 33.9992 33.9993 121.6811 0.0000 0.0000 0.0000
# 4 0.0000 0.0000 0.0000 16.3537 0.0000 0.0000
# 5 0.0000 0.0000 0.0000 0.0000 16.3540 0.0000
# 6 0.0000 0.0000 0.0000 0.0000 0.0000 13.8414
#
#
#
# Elastic Compliance Matrix: (Units=1/GPa)
#
#
# Indices 1 2 3 4 5 6 
#
# 1 0.021964 -0.001277 -0.005780 0.000000 0.000000 0.000000
# 2 -0.001277 0.021964 -0.005780 0.000000 0.000000 0.000000
# 3 -0.005780 -0.005780 0.011448 0.000000 0.000000 0.000000
# 4 0.000000 0.000000 0.000000 0.061148 0.000000 0.000000
# 5 0.000000 0.000000 0.000000 0.000000 0.061147 0.000000
# 6 0.000000 0.000000 0.000000 0.000000 0.000000 0.072247
#
#
# Mechanical properties :
#
#
# Convention : Reuss Voigt Hill
#
# Bulk Modulus (GPa) = 33.66845 43.59522 38.63183
# Shear Modulus (GPa) = 17.51352 19.43605 18.47479
#
# Velocity S-wave (km/s) = 3.19564 3.36648 3.28217
# Velocity P-wave (km/s) = 5.76613 6.36642 6.07370
#
# Compressibility (1/GPa) = 0.02970140
#
# Stress axis : x y z
#
# Youngs Moduli (GPa) = 45.52893 45.52924 87.34903
#
# Poissons Ratio (x) = 0.05814 0.50490
# Poissons Ratio (y) = 0.05814 0.50489
# Poissons Ratio (z) = 0.26317 0.26317
#
# Static dielectric constant tensor:
#      x y z
#    x 1.563740 0.000000 0.000000 
#    y 0.000000 1.563740 0.000000 
#    z 0.000000 0.000000 1.610300 
# 
# From -- ./inp_files/6536.got.cif
#   From: 2010.05.17/outbox.cif.g08.bks.cpg/sg127_4_cif.got.tgz:6536.got - 2010.05.20 12:03:00.
