data_PCOD9564869
_publ_section_title
;
Structure prediction by ZEFSAII (Michael W. Deem and Ramdas Pophale) SiO2 
 PCOD9564869
Probable space group: P 4/M N C
;
_chemical_formula_sum "Si O2"
_cell_formula_units_Z 72
_cell_length_a 14.251733
_cell_length_b 14.251733
_cell_length_c 17.490525
_cell_angle_alpha 90.000000
_cell_angle_beta 90.000000
_cell_angle_gamma 90.000000
_cell_volume 3552.533651
_symmetry_space_group_name_H-M "P 4/M N C"
_symmetry_group_IT_number 128
_symmetry_cell_setting 'tetragonal'
loop_
_space_group_symop_operation_xyz
x,y,z
-y,x,z
-x,-y,z
y,-x,z
1/2+x,1/2-y,1/2-z
1/2-x,1/2+y,1/2-z
1/2+y,1/2+x,1/2-z
1/2-y,1/2-x,1/2-z
-x,-y,-z
y,-x,-z
x,y,-z
-y,x,-z
1/2-x,1/2+y,1/2+z
1/2+x,1/2-y,1/2+z
1/2-y,1/2-x,1/2+z
1/2+y,1/2+x,1/2+z
loop_
_atom_site_type_symbol
_atom_site_label
_atom_site_fract_x
_atom_site_fract_y
_atom_site_fract_z
Si Si1 0.087168 0.573345 0.087775
Si Si2 0.424265 0.781417 0.143256
Si Si3 0.777504 0.560418 0.408341
Si Si4 0.942547 0.853739 0.500000
Si Si5 0.940946 0.856570 0.222019
O O1 0.165488 0.525015 0.139410
O O2 0.000000 0.500000 0.086644
O O3 0.039405 0.671454 0.109501
O O4 0.122350 0.578675 0.000000
O O5 0.346153 0.858905 0.123839
O O6 0.411692 0.727150 0.221928
O O7 0.421968 0.706636 0.074938
O O8 0.772220 0.568485 0.500000
O O9 0.680155 0.567974 0.364380
O O10 0.883217 0.948771 0.500000
O O11 0.049494 0.882571 0.236696
#
# Coordination Sequence:
#
# PCOD9564869 Si02
#       5
#    16  16  16   8  16
#     4   8  15  32  61  92 127 159 194 255 326 373
#     4  11  19  40  65  95 128 163 215 268 320 386
#     4  10  21  42  68  97 128 163 215 279 324 372
#     4  11  22  36  57  92 138 181 204 241 323 399
#     4  11  26  46  62  85 130 182 218 257 319 387
#
# _framework density 20.267223999999999
#
# number of rings (size 3 to 8) (size 9 to 14) (size 15 to 20)
#    0.000    1.889    2.222    3.333    0.000    3.556 
#   12.000    4.444    0.000    0.000    0.000    0.000 
#    0.000    0.000    0.000    0.000    0.000    0.000 
#
# Total GULP energy -402134.796433 kJ/mol
# GULP energy per Si atom -5585.205506 kJ/mol
# Density = 2.022109 g / cm^3
# Si number density = 20.267224 Si / 1000 Ang^3
#
#
#
# Elastic Constant Matrix: (Units=GPa)
#
#
# Indices 1 2 3 4 5 6 
#
# 1 52.4504 -0.4940 24.7826 0.0000 0.0000 0.0000
# 2 -0.4940 52.4504 24.7826 0.0000 0.0000 0.0000
# 3 24.7826 24.7826 84.9045 0.0000 0.0000 0.0000
# 4 0.0000 0.0000 0.0000 -69.4921 0.0000 0.0000
# 5 0.0000 0.0000 0.0000 0.0000 -69.4921 0.0000
# 6 0.0000 0.0000 0.0000 0.0000 0.0000 7.5123
#
#
#
# Elastic Compliance Matrix: (Units=1/GPa)
#
#
# Indices 1 2 3 4 5 6 
#
# 1 0.022781 0.003893 -0.007786 0.000000 0.000000 0.000000
# 2 0.003893 0.022781 -0.007786 0.000000 0.000000 0.000000
# 3 -0.007786 -0.007786 0.016323 0.000000 0.000000 0.000000
# 4 0.000000 0.000000 0.000000 -0.014390 0.000000 0.000000
# 5 0.000000 0.000000 0.000000 0.000000 -0.014390 0.000000
# 6 0.000000 0.000000 0.000000 0.000000 0.000000 0.133115
#
#
# Mechanical properties :
#
#
# Convention : Reuss Voigt Hill
#
# Bulk Modulus (GPa) = 25.95488 31.99416 28.97452
# Shear Modulus (GPa) = 24.70118 -16.91208 3.89455
#
# Velocity S-wave (km/s) = 3.49488 -2.89183 1.38772
# Velocity P-wave (km/s) = 5.39627 2.16107 4.11035
#
# Compressibility (1/GPa) = 0.03852840
#
# Stress axis : x y z
#
# Youngs Moduli (GPa) = 43.89600 43.89600 61.26255
#
# Poissons Ratio (x) = -0.17090 0.47699
# Poissons Ratio (y) = -0.17090 0.47699
# Poissons Ratio (z) = 0.34177 0.34177
#
# Static dielectric constant tensor:
#      x y z
#    x 1.723470 0.000000 0.000000 
#    y 0.000000 1.723470 0.000000 
#    z 0.000000 0.000000 1.706980 
# 
# From -- ./inp_files/4557.got.cif
#   From: 2010.05.17/outbox.cif.g08.bks.cpg/sg128_3_cif.got.tgz:4557.got - 2010.05.20 12:07:25.
