data_PCOD9564063
_publ_section_title
;
Structure prediction by ZEFSAII (Michael W. Deem and Ramdas Pophale) SiO2 
 PCOD9564063
Probable space group: P 4/M B M
;
_chemical_formula_sum "Si O2"
_cell_formula_units_Z 96
_cell_length_a 20.895892
_cell_length_b 20.895892
_cell_length_c 11.725893
_cell_angle_alpha 90.000000
_cell_angle_beta 90.000000
_cell_angle_gamma 90.000000
_cell_volume 5119.974015
_symmetry_space_group_name_H-M "P 4/M B M"
_symmetry_group_IT_number 127
_symmetry_cell_setting 'tetragonal'
loop_
_space_group_symop_operation_xyz
x,y,z
-y,x,z
-x,-y,z
y,-x,z
1/2+x,1/2-y,-z
1/2-x,1/2+y,-z
1/2+y,1/2+x,-z
1/2-y,1/2-x,-z
-x,-y,-z
y,-x,-z
x,y,-z
-y,x,-z
1/2-x,1/2+y,z
1/2+x,1/2-y,z
1/2-y,1/2-x,z
1/2+y,1/2+x,z
loop_
_atom_site_type_symbol
_atom_site_label
_atom_site_fract_x
_atom_site_fract_y
_atom_site_fract_z
Si Si1 0.919597 0.309684 0.500000
Si Si2 0.343211 0.051773 0.745822
Si Si3 0.723512 0.666878 0.255633
Si Si4 0.600894 0.477781 0.861523
Si Si5 0.814772 0.204503 0.500000
Si Si6 0.314264 0.923129 0.869716
Si Si7 0.279638 0.601246 0.135474
O O1 0.862656 0.362656 0.500000
O O2 0.958399 0.322581 0.614886
O O3 0.882419 0.241993 0.500000
O O4 0.409054 0.090947 0.749800
O O5 0.287218 0.094950 0.800416
O O6 0.343233 0.987060 0.816936
O O7 0.777308 0.722693 0.253975
O O8 0.695877 0.665347 0.383774
O O9 0.757319 0.603507 0.208743
O O10 0.667319 0.687434 0.170700
O O11 0.574439 0.547107 0.825626
O O12 0.671262 0.455013 0.827556
O O13 0.600769 0.477971 0.000000
O O14 0.760158 0.260158 0.500000
O O15 0.368528 0.868528 0.871966
O O16 0.292244 0.933973 0.000000
O O17 0.270185 0.597987 0.000000
#
# Coordination Sequence:
#
# PCOD9564063 Si02
#       7
#     8  16  16  16   8  16  16
#     4   9  18  37  59  82 113 146 189 251 307 346
#     4  11  23  39  60  84 112 154 205 252 301 359
#     4  10  20  35  56  81 111 148 189 236 296 355
#     4   8  16  31  48  69 102 145 184 218 271 345
#     4   9  16  33  58  81 109 146 184 230 291 352
#     4  10  23  41  59  84 121 159 196 246 305 364
#     4  11  21  30  51  83 115 145 185 240 294 354
#
# _framework density 18.750094000000001
#
# number of rings (size 3 to 8) (size 9 to 14) (size 15 to 20)
#    0.000    2.167    1.667    2.000    2.333    4.000 
#    0.000    2.083    0.000    1.500    0.000    0.000 
#    0.000    2.667    0.000    0.000    0.000    0.000 
#
# Total GULP energy -535747.422142 kJ/mol
# GULP energy per Si atom -5580.702314 kJ/mol
# Density = 1.870742 g / cm^3
# Si number density = 18.750094 Si / 1000 Ang^3
#
#
#
# Elastic Constant Matrix: (Units=GPa)
#
#
# Indices 1 2 3 4 5 6 
#
# 1 67.1016 -47.7945 0.6887 0.0000 0.0000 0.0000
# 2 -47.7945 67.1016 0.6887 0.0000 0.0000 0.0000
# 3 0.6887 0.6887 59.9104 0.0000 0.0000 0.0000
# 4 0.0000 0.0000 0.0000 21.7835 0.0000 0.0000
# 5 0.0000 0.0000 0.0000 0.0000 21.7835 0.0000
# 6 0.0000 0.0000 0.0000 0.0000 0.0000 16.5233
#
#
#
# Elastic Compliance Matrix: (Units=1/GPa)
#
#
# Indices 1 2 3 4 5 6 
#
# 1 0.030270 0.021567 -0.000596 0.000000 0.000000 0.000000
# 2 0.021567 0.030270 -0.000596 0.000000 0.000000 0.000000
# 3 -0.000596 -0.000596 0.016705 0.000000 0.000000 0.000000
# 4 0.000000 0.000000 0.000000 0.045906 0.000000 0.000000
# 5 0.000000 0.000000 0.000000 0.000000 0.045906 0.000000
# 6 0.000000 0.000000 0.000000 0.000000 0.000000 0.060521
#
#
# Mechanical properties :
#
#
# Convention : Reuss Voigt Hill
#
# Bulk Modulus (GPa) = 8.47490 11.25326 9.86408
# Shear Modulus (GPa) = 21.91438 28.05345 24.98391
#
# Velocity S-wave (km/s) = 3.42242 3.87224 3.65426
# Velocity P-wave (km/s) = 4.48855 5.09971 4.80386
#
# Compressibility (1/GPa) = 0.11799545
#
# Stress axis : x y z
#
# Youngs Moduli (GPa) = 33.03584 33.03584 59.86123
#
# Poissons Ratio (x) = -0.71247 0.03567
# Poissons Ratio (y) = -0.71247 0.03567
# Poissons Ratio (z) = 0.01968 0.01968
#
# Static dielectric constant tensor:
#      x y z
#    x 1.660150 0.000000 0.000000 
#    y 0.000000 1.660150 0.000000 
#    z 0.000000 0.000000 1.637430 
# 
# From -- ./inp_files/3591.got.cif
#   From: 2010.05.17/outbox.cif.g08.bks.cpg/sg127_2_cif.got.tgz:3591.got - 2010.05.20 12:03:00.
