data_PCOD9564479
_publ_section_title
;
Structure prediction by ZEFSAII (Michael W. Deem and Ramdas Pophale) SiO2 
 PCOD9564479
Probable space group: P 4/M B M
;
_chemical_formula_sum "Si O2"
_cell_formula_units_Z 56
_cell_length_a 17.837787
_cell_length_b 17.837787
_cell_length_c 8.709754
_cell_angle_alpha 90.000000
_cell_angle_beta 90.000000
_cell_angle_gamma 90.000000
_cell_volume 2771.327405
_symmetry_space_group_name_H-M "P 4/M B M"
_symmetry_group_IT_number 127
_symmetry_cell_setting 'tetragonal'
loop_
_space_group_symop_operation_xyz
x,y,z
-y,x,z
-x,-y,z
y,-x,z
1/2+x,1/2-y,-z
1/2-x,1/2+y,-z
1/2+y,1/2+x,-z
1/2-y,1/2-x,-z
-x,-y,-z
y,-x,-z
x,y,-z
-y,x,-z
1/2-x,1/2+y,z
1/2+x,1/2-y,z
1/2-y,1/2-x,z
1/2+y,1/2+x,z
loop_
_atom_site_type_symbol
_atom_site_label
_atom_site_fract_x
_atom_site_fract_y
_atom_site_fract_z
Si Si1 0.403455 0.428274 0.312872
Si Si2 0.954111 0.325396 0.825563
Si Si3 0.435156 0.935156 0.677221
Si Si4 0.717644 0.336128 0.315312
O O1 0.485745 0.398817 0.264685
O O2 0.402188 0.429388 0.500000
O O3 0.342897 0.367743 0.260480
O O4 0.893321 0.393321 0.828061
O O5 0.912317 0.261631 0.728758
O O6 0.028572 0.362340 0.755524
O O7 0.966081 0.300571 0.000000
O O8 0.419342 0.919342 0.500000
O O9 0.500000 0.000000 0.682488
O O10 0.716907 0.331326 0.500000
O O11 0.766704 0.266704 0.255093
#
# Coordination Sequence:
#
# PCOD9564479 Si02
#       4
#    16  16   8  16
#     4   8  14  26  46  69  91 118 154 197 242 287
#     4   9  16  25  38  58  85 120 157 187 223 278
#     4   9  15  23  37  57  83 115 155 201 237 265
#     4   9  16  26  43  67  92 116 147 193 243 287
#
# _framework density 20.206924000000001
#
# number of rings (size 3 to 8) (size 9 to 14) (size 15 to 20)
#    0.000    3.286    0.000    2.143    0.000    5.143 
#    0.000    0.000    3.143    1.714    0.000    2.000 
#    0.000    0.000    0.000    0.000    0.000    0.000 
#
# Total GULP energy -311878.680655 kJ/mol
# GULP energy per Si atom -5569.262155 kJ/mol
# Density = 2.016093 g / cm^3
# Si number density = 20.206924 Si / 1000 Ang^3
#
#
#
# Elastic Constant Matrix: (Units=GPa)
#
#
# Indices 1 2 3 4 5 6 
#
# 1 43.8349 30.5704 -0.4378 0.0000 0.0000 0.0000
# 2 30.5704 43.8349 -0.4378 0.0000 0.0000 0.0000
# 3 -0.4378 -0.4378 13.5594 0.0000 0.0000 0.0000
# 4 0.0000 0.0000 0.0000 -1.7469 0.0000 0.0000
# 5 0.0000 0.0000 0.0000 0.0000 -1.7469 0.0000
# 6 0.0000 0.0000 0.0000 0.0000 0.0000 6.1906
#
#
#
# Elastic Compliance Matrix: (Units=1/GPa)
#
#
# Indices 1 2 3 4 5 6 
#
# 1 0.044417 -0.030972 0.000434 0.000000 0.000000 0.000000
# 2 -0.030972 0.044417 0.000434 0.000000 0.000000 0.000000
# 3 0.000434 0.000434 0.073778 0.000000 0.000000 0.000000
# 4 0.000000 0.000000 0.000000 -0.572449 0.000000 0.000000
# 5 0.000000 0.000000 0.000000 0.000000 -0.572449 0.000000
# 6 0.000000 0.000000 0.000000 0.000000 0.000000 0.161535
#
#
# Mechanical properties :
#
#
# Convention : Reuss Voigt Hill
#
# Bulk Modulus (GPa) = 9.76523 17.84652 13.80587
# Shear Modulus (GPa) = -6.88318 5.30833 -0.78743
#
# Velocity S-wave (km/s) = -1.84763 1.62256 -0.62492
# Velocity P-wave (km/s) = 0.53986 3.51587 2.51523
#
# Compressibility (1/GPa) = 0.10240419
#
# Stress axis : x y z
#
# Youngs Moduli (GPa) = 22.51391 22.51391 13.55423
#
# Poissons Ratio (x) = 0.69730 -0.00588
# Poissons Ratio (y) = 0.69730 -0.00588
# Poissons Ratio (z) = -0.00977 -0.00977
#
# Static dielectric constant tensor:
#      x y z
#    x 1.745240 0.000000 0.000000 
#    y 0.000000 1.745240 0.000000 
#    z 0.000000 0.000000 1.686940 
# 
# From -- ./inp_files/1084.got.cif
#   From: 2010.05.17/outbox.cif.g08.bks.cpg/sg127_1_cif.got.tgz:1084.got - 2010.05.20 12:03:00.
