data_PCOD9564493
_publ_section_title
;
Structure prediction by ZEFSAII (Michael W. Deem and Ramdas Pophale) SiO2 
 PCOD9564493
Probable space group: P 4/M B M
;
_chemical_formula_sum "Si O2"
_cell_formula_units_Z 96
_cell_length_a 15.000000
_cell_length_b 15.000000
_cell_length_c 21.000000
_cell_angle_alpha 90.000000
_cell_angle_beta 90.000000
_cell_angle_gamma 90.000000
_cell_volume 4725.000000
_symmetry_space_group_name_H-M "P 4/M B M"
_symmetry_group_IT_number 127
_symmetry_cell_setting 'tetragonal'
loop_
_space_group_symop_operation_xyz
x,y,z
-y,x,z
-x,-y,z
y,-x,z
1/2+x,1/2-y,-z
1/2-x,1/2+y,-z
1/2+y,1/2+x,-z
1/2-y,1/2-x,-z
-x,-y,-z
y,-x,-z
x,y,-z
-y,x,-z
1/2-x,1/2+y,z
1/2+x,1/2-y,z
1/2-y,1/2-x,z
1/2+y,1/2+x,z
loop_
_atom_site_type_symbol
_atom_site_label
_atom_site_fract_x
_atom_site_fract_y
_atom_site_fract_z
Si Si1 0.684758 0.326157 0.284608
Si Si2 0.266650 0.906328 0.392516
Si Si3 0.926051 0.426051 0.924949
Si Si4 0.071223 0.127187 0.170392
Si Si5 0.979198 0.332601 0.275186
Si Si6 0.984801 0.849855 0.500000
Si Si7 0.447352 0.807448 0.865740
O O1 0.737139 0.237139 0.262158
O O2 0.654006 0.306544 0.355906
O O3 0.599399 0.347855 0.242096
O O4 0.754259 0.405627 0.277401
O O5 0.338915 0.838915 0.422458
O O6 0.214745 0.970589 0.439823
O O7 0.316263 0.959370 0.336109
O O8 0.831920 0.459850 0.899042
O O9 0.000000 0.500000 0.901866
O O10 0.926705 0.426705 0.000000
O O11 0.094106 0.210483 0.127518
O O12 0.966653 0.116139 0.160023
O O13 0.924618 0.424618 0.277447
O O14 0.031579 0.325387 0.208800
O O15 0.076302 0.905338 0.500000
O O16 0.375048 0.875048 0.891250
#
# Coordination Sequence:
#
# PCOD9564493 Si02
#       7
#    16  16   8  16  16   8  16
#     4  10  19  33  55  84 123 160 194 248 306 363
#     4  11  22  38  59  83 117 152 195 245 306 373
#     4   9  20  38  62  92 124 161 205 252 300 355
#     4  11  21  33  51  83 123 162 203 247 303 367
#     4  11  21  34  56  90 123 152 192 246 309 366
#     4  11  25  44  64  81 105 151 208 259 304 365
#     4  11  20  34  58  88 121 159 200 252 307 358
#
# _framework density 20.317460000000001
#
# number of rings (size 3 to 8) (size 9 to 14) (size 15 to 20)
#    0.000    1.333    4.167    2.250    0.000    1.000 
#    1.500    2.917    0.000    2.000    0.000    1.167 
#    0.000    0.000    0.000    0.000    0.000    0.000 
#
# Total GULP energy -535092.401970 kJ/mol
# GULP energy per Si atom -5573.879187 kJ/mol
# Density = 2.027122 g / cm^3
# Si number density = 20.317460 Si / 1000 Ang^3
#
#
#
# Elastic Constant Matrix: (Units=GPa)
#
#
# Indices 1 2 3 4 5 6 
#
# 1 73.2465 14.3258 4.7406 0.0000 0.0000 0.0000
# 2 14.3258 73.2465 4.7406 0.0000 0.0000 0.0000
# 3 4.7406 4.7406 16.5812 0.0000 0.0000 0.0000
# 4 0.0000 0.0000 0.0000 41.1392 0.0000 0.0000
# 5 0.0000 0.0000 0.0000 0.0000 41.1392 0.0000
# 6 0.0000 0.0000 0.0000 0.0000 0.0000 17.4065
#
#
#
# Elastic Compliance Matrix: (Units=1/GPa)
#
#
# Indices 1 2 3 4 5 6 
#
# 1 0.014378 -0.002594 -0.003369 0.000000 0.000000 0.000000
# 2 -0.002594 0.014378 -0.003369 0.000000 0.000000 0.000000
# 3 -0.003369 -0.003369 0.062236 0.000000 0.000000 0.000000
# 4 0.000000 0.000000 0.000000 0.024308 0.000000 0.000000
# 5 0.000000 0.000000 0.000000 0.000000 0.024308 0.000000
# 6 0.000000 0.000000 0.000000 0.000000 0.000000 0.057450
#
#
# Mechanical properties :
#
#
# Convention : Reuss Voigt Hill
#
# Bulk Modulus (GPa) = 13.82603 23.40979 18.61791
# Shear Modulus (GPa) = 20.84810 29.22148 25.03479
#
# Velocity S-wave (km/s) = 3.20678 3.79653 3.51405
# Velocity P-wave (km/s) = 4.53112 5.54664 5.06440
#
# Compressibility (1/GPa) = 0.07232732
#
# Stress axis : x y z
#
# Youngs Moduli (GPa) = 69.55108 69.55108 16.06796
#
# Poissons Ratio (x) = 0.18042 0.05413
# Poissons Ratio (y) = 0.18042 0.05413
# Poissons Ratio (z) = 0.23432 0.23432
#
# Static dielectric constant tensor:
#      x y z
#    x 1.774610 0.000000 0.000000 
#    y 0.000000 1.774610 0.000000 
#    z 0.000000 0.000000 1.678830 
# 
# From -- ./inp_files/5815.got.cif
#   From: 2010.05.17/outbox.ucp.g08.bks.cvg/sg127_3_cif.got.tgz:5815.got - 2010.06.11 11:37:05.
