data_PCOD9564047
_publ_section_title
;
Structure prediction by ZEFSAII (Michael W. Deem and Ramdas Pophale) SiO2 
 PCOD9564047
Probable space group: P 4/M B M
;
_chemical_formula_sum "Si O2"
_cell_formula_units_Z 72
_cell_length_a 20.782637
_cell_length_b 20.782637
_cell_length_c 7.258555
_cell_angle_alpha 90.000000
_cell_angle_beta 90.000000
_cell_angle_gamma 90.000000
_cell_volume 3135.100563
_symmetry_space_group_name_H-M "P 4/M B M"
_symmetry_group_IT_number 127
_symmetry_cell_setting 'tetragonal'
loop_
_space_group_symop_operation_xyz
x,y,z
-y,x,z
-x,-y,z
y,-x,z
1/2+x,1/2-y,-z
1/2-x,1/2+y,-z
1/2+y,1/2+x,-z
1/2-y,1/2-x,-z
-x,-y,-z
y,-x,-z
x,y,-z
-y,x,-z
1/2-x,1/2+y,z
1/2+x,1/2-y,z
1/2-y,1/2-x,z
1/2+y,1/2+x,z
loop_
_atom_site_type_symbol
_atom_site_label
_atom_site_fract_x
_atom_site_fract_y
_atom_site_fract_z
Si Si1 0.210094 0.126886 0.703222
Si Si2 0.352162 0.751909 0.723851
Si Si3 0.065168 0.919568 0.778111
Si Si4 0.998667 0.393001 0.000000
Si Si5 0.995999 0.721166 0.277035
O O1 0.239152 0.136957 0.500000
O O2 0.197032 0.196407 0.791058
O O3 0.136379 0.104691 0.690327
O O4 0.244376 0.063042 0.781946
O O5 0.351481 0.747739 0.500000
O O6 0.320576 0.820576 0.773646
O O7 0.427310 0.746552 0.778492
O O8 0.990604 0.912992 0.726549
O O9 0.069316 0.914657 0.000000
O O10 0.003430 0.347432 0.821848
O O11 0.055762 0.444238 0.000000
O O12 0.932218 0.432218 0.000000
O O13 0.996175 0.718064 0.500000
#
# Coordination Sequence:
#
# PCOD9564047 Si02
#       5
#    16  16  16   8  16
#     4  10  20  34  56  87 117 152 203 256 306 367
#     4   9  18  35  59  86 120 162 208 259 316 384
#     4   9  18  31  47  71 109 157 199 237 288 348
#     4  11  26  46  68  96 124 155 210 276 328 387
#     4  10  22  41  66  94 129 172 211 257 324 390
#
# _framework density 22.965769999999999
#
# number of rings (size 3 to 8) (size 9 to 14) (size 15 to 20)
#    0.000    2.333    0.000    2.667    1.556    5.333 
#    2.000    4.444    0.000    0.000    0.000    0.000 
#    0.000    0.000    0.000    0.000    0.000    0.000 
#
# Total GULP energy -401733.161747 kJ/mol
# GULP energy per Si atom -5579.627246 kJ/mol
# Density = 2.291350 g / cm^3
# Si number density = 22.965770 Si / 1000 Ang^3
#
#
#
# Elastic Constant Matrix: (Units=GPa)
#
#
# Indices 1 2 3 4 5 6 
#
# 1 -62.3474 235.2292 12.6272 0.0000 0.0000 0.0000
# 2 235.2292 -62.3507 12.6268 0.0000 0.0000 0.0000
# 3 12.6272 12.6268 100.7243 0.0000 0.0000 0.0000
# 4 0.0000 0.0000 0.0000 -0.1660 0.0000 0.0000
# 5 0.0000 0.0000 0.0000 0.0000 -0.1579 0.0000
# 6 0.0000 0.0000 0.0000 0.0000 0.0000 40.1238
#
#
#
# Elastic Compliance Matrix: (Units=1/GPa)
#
#
# Indices 1 2 3 4 5 6 
#
# 1 0.001266 0.004626 -0.000739 0.000000 0.000000 0.000000
# 2 0.004626 0.001266 -0.000739 0.000000 0.000000 0.000000
# 3 -0.000739 -0.000739 0.010113 0.000000 0.000000 0.000000
# 4 0.000000 0.000000 0.000000 -6.023576 0.000000 0.000000
# 5 0.000000 0.000000 0.000000 0.000000 -6.332769 0.000000
# 6 0.000000 0.000000 0.000000 0.000000 0.000000 0.024923
#
#
# Mechanical properties :
#
#
# Convention : Reuss Voigt Hill
#
# Bulk Modulus (GPa) = 52.78956 55.22142 54.00549
# Shear Modulus (GPa) = -0.40589 -11.00384 -5.70486
#
# Velocity S-wave (km/s) = -0.42085 -2.19130 -1.57780
# Velocity P-wave (km/s) = 4.77493 4.20653 4.49971
#
# Compressibility (1/GPa) = 0.01894314
#
# Stress axis : x y z
#
# Youngs Moduli (GPa) = 789.93387 789.97241 98.87972
#
# Poissons Ratio (x) = -3.65470 0.07304
# Poissons Ratio (y) = -3.65452 0.07304
# Poissons Ratio (z) = 0.58350 0.58353
#
# Static dielectric constant tensor:
#      x y z
#    x 1.858260 0.000000 0.000000 
#    y 0.000000 1.858260 0.000000 
#    z 0.000000 0.000000 1.867640 
# 
# From -- ./inp_files/1515.got.cif
#   From: 2010.05.17/outbox.cif.g08.bks.cpg/sg127_1_cif.got.tgz:1515.got - 2010.05.20 12:03:00.
