data_PCOD9564921
_publ_section_title
;
Structure prediction by ZEFSAII (Michael W. Deem and Ramdas Pophale) SiO2 
 PCOD9564921
Probable space group: P 4/M N C
;
_chemical_formula_sum "Si O2"
_cell_formula_units_Z 112
_cell_length_a 15.119167
_cell_length_b 15.119167
_cell_length_c 24.706891
_cell_angle_alpha 90.000000
_cell_angle_beta 90.000000
_cell_angle_gamma 90.000000
_cell_volume 5647.728714
_symmetry_space_group_name_H-M "P 4/M N C"
_symmetry_group_IT_number 128
_symmetry_cell_setting 'tetragonal'
loop_
_space_group_symop_operation_xyz
x,y,z
-y,x,z
-x,-y,z
y,-x,z
1/2+x,1/2-y,1/2-z
1/2-x,1/2+y,1/2-z
1/2+y,1/2+x,1/2-z
1/2-y,1/2-x,1/2-z
-x,-y,-z
y,-x,-z
x,y,-z
-y,x,-z
1/2-x,1/2+y,1/2+z
1/2+x,1/2-y,1/2+z
1/2-y,1/2-x,1/2+z
1/2+y,1/2+x,1/2+z
loop_
_atom_site_type_symbol
_atom_site_label
_atom_site_fract_x
_atom_site_fract_y
_atom_site_fract_z
Si Si1 0.111009 0.726783 0.210317
Si Si2 0.115977 0.360145 0.436414
Si Si3 0.092015 0.519986 0.646409
Si Si4 0.543900 0.642012 0.200784
Si Si5 0.717903 0.939170 0.396529
Si Si6 0.285014 0.252687 0.602571
Si Si7 0.622522 0.431897 0.435304
O O1 0.155585 0.655585 0.250000
O O2 0.027583 0.679520 0.181715
O O3 0.073775 0.807472 0.244985
O O4 0.187764 0.748543 0.166184
O O5 0.128543 0.378427 0.500000
O O6 0.100076 0.450023 0.402282
O O7 0.202727 0.314663 0.411362
O O8 0.030428 0.295910 0.428644
O O9 0.079341 0.619660 0.625932
O O10 0.000000 0.500000 0.676690
O O11 0.443838 0.606436 0.198022
O O12 0.552297 0.710803 0.151244
O O13 0.737595 0.843515 0.422336
O O14 0.374946 0.292950 0.578557
O O15 0.616993 0.532916 0.415357
O O16 0.617498 0.436117 0.500000
#
# Coordination Sequence:
#
# PCOD9564921 Si02
#       7
#    16  16  16  16  16  16  16
#     4  11  23  43  65  98 137 173 226 279 345 408
#     4  11  25  43  67 102 138 182 232 285 356 417
#     4   9  21  41  64  96 132 174 221 276 332 421
#     4  11  24  43  68  98 134 183 228 283 348 408
#     4  10  22  44  64  90 135 173 233 286 338 403
#     4  11  23  39  66  99 134 174 229 280 340 417
#     4   9  20  38  60  89 130 177 217 260 325 404
#
# _framework density 19.830981000000001
#
# number of rings (size 3 to 8) (size 9 to 14) (size 15 to 20)
#    0.000    1.714    2.857    1.714    6.000    4.000 
#    0.000    3.571    0.000    0.000    0.000    3.000 
#    0.000    0.000    0.000    0.000    0.000    0.000 
#
# Total GULP energy -624274.352756 kJ/mol
# GULP energy per Si atom -5573.878150 kJ/mol
# Density = 1.978584 g / cm^3
# Si number density = 19.830981 Si / 1000 Ang^3
#
#
#
# Elastic Constant Matrix: (Units=GPa)
#
#
# Indices 1 2 3 4 5 6 
#
# 1 103.9824 46.8236 47.9555 0.0000 0.0000 0.0000
# 2 46.8236 103.9824 47.9555 0.0000 0.0000 0.0000
# 3 47.9555 47.9555 87.4783 0.0000 0.0000 0.0000
# 4 0.0000 0.0000 0.0000 21.3958 0.0000 0.0000
# 5 0.0000 0.0000 0.0000 0.0000 21.3958 0.0000
# 6 0.0000 0.0000 0.0000 0.0000 0.0000 24.9620
#
#
#
# Elastic Compliance Matrix: (Units=1/GPa)
#
#
# Indices 1 2 3 4 5 6 
#
# 1 0.013838 -0.003657 -0.005581 0.000000 0.000000 0.000000
# 2 -0.003657 0.013838 -0.005581 0.000000 0.000000 0.000000
# 3 -0.005581 -0.005581 0.017550 0.000000 0.000000 0.000000
# 4 0.000000 0.000000 0.000000 0.046738 0.000000 0.000000
# 5 0.000000 0.000000 0.000000 0.000000 0.046738 0.000000
# 6 0.000000 0.000000 0.000000 0.000000 0.000000 0.040061
#
#
# Mechanical properties :
#
#
# Convention : Reuss Voigt Hill
#
# Bulk Modulus (GPa) = 64.15376 64.54582 64.34979
# Shear Modulus (GPa) = 23.40857 23.73130 23.56993
#
# Velocity S-wave (km/s) = 3.43943 3.46306 3.45126
# Velocity P-wave (km/s) = 6.94215 6.97201 6.95710
#
# Compressibility (1/GPa) = 0.01558755
#
# Stress axis : x y z
#
# Youngs Moduli (GPa) = 72.26601 72.26601 56.97917
#
# Poissons Ratio (x) = 0.26430 0.31799
# Poissons Ratio (y) = 0.26430 0.31799
# Poissons Ratio (z) = 0.40331 0.40331
#
# Static dielectric constant tensor:
#      x y z
#    x 1.742790 0.000000 0.000000 
#    y 0.000000 1.742790 0.000000 
#    z 0.000000 0.000000 1.722030 
# 
# From -- ./inp_files/6446.got.cif
#   From: 2010.05.17/outbox.cif.g08.bks.cpg/sg128_4_cif.got.tgz:6446.got - 2010.05.20 12:07:25.
