data_PCOD9564413
_publ_section_title
;
Structure prediction by ZEFSAII (Michael W. Deem and Ramdas Pophale) SiO2 
 PCOD9564413
Probable space group: P 4/M B M
;
_chemical_formula_sum "Si O2"
_cell_formula_units_Z 72
_cell_length_a 11.861800
_cell_length_b 11.861800
_cell_length_c 25.708646
_cell_angle_alpha 90.000000
_cell_angle_beta 90.000000
_cell_angle_gamma 90.000000
_cell_volume 3617.265603
_symmetry_space_group_name_H-M "P 4/M B M"
_symmetry_group_IT_number 127
_symmetry_cell_setting 'tetragonal'
loop_
_space_group_symop_operation_xyz
x,y,z
-y,x,z
-x,-y,z
y,-x,z
1/2+x,1/2-y,-z
1/2-x,1/2+y,-z
1/2+y,1/2+x,-z
1/2-y,1/2-x,-z
-x,-y,-z
y,-x,-z
x,y,-z
-y,x,-z
1/2-x,1/2+y,z
1/2+x,1/2-y,z
1/2-y,1/2-x,z
1/2+y,1/2+x,z
loop_
_atom_site_type_symbol
_atom_site_label
_atom_site_fract_x
_atom_site_fract_y
_atom_site_fract_z
Si Si1 0.404840 0.904840 0.560689
Si Si2 0.682956 0.528452 0.377220
Si Si3 0.310397 0.522838 0.830801
Si Si4 0.190568 0.022776 0.944102
Si Si5 0.315415 0.005907 0.276036
O O1 0.382798 0.882798 0.500000
O O2 0.293539 0.948508 0.589470
O O3 0.500000 0.000000 0.565033
O O4 0.590847 0.624248 0.388049
O O5 0.718766 0.526154 0.316664
O O6 0.379480 0.405128 0.828224
O O7 0.252283 0.529713 0.887721
O O8 0.231297 0.529053 0.781230
O O9 0.094370 0.119979 0.944115
O O10 0.251474 0.030088 0.000000
O O11 0.384418 0.115583 0.295138
O O12 0.403929 0.903929 0.274061
#
# Coordination Sequence:
#
# PCOD9564413 Si02
#       5
#     8  16  16  16  16
#     4  11  26  46  72 103 139 179 216 259 311 364
#     4  11  25  44  70 101 132 170 217 266 316 373
#     4   9  17  29  48  77 108 138 181 238 299 366
#     4   7  10  19  38  65  97 132 172 225 290 356
#     4  11  23  37  56  81 115 156 202 250 308 373
#
# _framework density 19.904539
#
# number of rings (size 3 to 8) (size 9 to 14) (size 15 to 20)
#    0.000    2.333    1.111    4.000    3.111    5.333 
#    0.000    1.111    0.000    1.333    0.000    7.778 
#    0.000    0.000    0.000    0.000    0.000    0.000 
#
# Total GULP energy -401749.853550 kJ/mol
# GULP energy per Si atom -5579.859077 kJ/mol
# Density = 1.985924 g / cm^3
# Si number density = 19.904539 Si / 1000 Ang^3
#
#
#
# Elastic Constant Matrix: (Units=GPa)
#
#
# Indices 1 2 3 4 5 6 
#
# 1 73.8187 14.6231 39.4373 0.0000 0.0000 0.0000
# 2 14.6231 73.8187 39.4373 0.0000 0.0000 0.0000
# 3 39.4373 39.4373 144.9093 0.0000 0.0000 0.0000
# 4 0.0000 0.0000 0.0000 23.2073 0.0000 0.0000
# 5 0.0000 0.0000 0.0000 0.0000 23.2073 0.0000
# 6 0.0000 0.0000 0.0000 0.0000 0.0000 1.5414
#
#
#
# Elastic Compliance Matrix: (Units=1/GPa)
#
#
# Indices 1 2 3 4 5 6 
#
# 1 0.015912 -0.000981 -0.004063 0.000000 0.000000 0.000000
# 2 -0.000981 0.015912 -0.004063 0.000000 0.000000 0.000000
# 3 -0.004063 -0.004063 0.009113 0.000000 0.000000 0.000000
# 4 0.000000 0.000000 0.000000 0.043090 0.000000 0.000000
# 5 0.000000 0.000000 0.000000 0.000000 0.043090 0.000000
# 6 0.000000 0.000000 0.000000 0.000000 0.000000 0.648740
#
#
# Mechanical properties :
#
#
# Convention : Reuss Voigt Hill
#
# Bulk Modulus (GPa) = 44.01333 53.28246 48.64789
# Shear Modulus (GPa) = 6.23717 22.86115 14.54916
#
# Velocity S-wave (km/s) = 1.77210 3.39269 2.70654
# Velocity P-wave (km/s) = 5.13297 6.49417 5.85327
#
# Compressibility (1/GPa) = 0.02272039
#
# Stress axis : x y z
#
# Youngs Moduli (GPa) = 62.84586 62.84586 109.73811
#
# Poissons Ratio (x) = 0.06166 0.44591
# Poissons Ratio (y) = 0.06166 0.44591
# Poissons Ratio (z) = 0.25537 0.25537
#
# Static dielectric constant tensor:
#      x y z
#    x 1.681020 0.000000 0.000000 
#    y 0.000000 1.681020 0.000000 
#    z 0.000000 0.000000 1.723370 
# 
# From -- ./inp_files/6306.got.cif
#   From: 2010.05.17/outbox.cif.g08.bks.cpg/sg127_4_cif.got.tgz:6306.got - 2010.05.20 12:03:00.
