data_PCOD9564117
_publ_section_title
;
Structure prediction by ZEFSAII (Michael W. Deem and Ramdas Pophale) SiO2 
 PCOD9564117
Probable space group: P 4/M B M
;
_chemical_formula_sum "Si O2"
_cell_formula_units_Z 72
_cell_length_a 15.062622
_cell_length_b 15.062622
_cell_length_c 13.456373
_cell_angle_alpha 90.000000
_cell_angle_beta 90.000000
_cell_angle_gamma 90.000000
_cell_volume 3053.016644
_symmetry_space_group_name_H-M "P 4/M B M"
_symmetry_group_IT_number 127
_symmetry_cell_setting 'tetragonal'
loop_
_space_group_symop_operation_xyz
x,y,z
-y,x,z
-x,-y,z
y,-x,z
1/2+x,1/2-y,-z
1/2-x,1/2+y,-z
1/2+y,1/2+x,-z
1/2-y,1/2-x,-z
-x,-y,-z
y,-x,-z
x,y,-z
-y,x,-z
1/2-x,1/2+y,z
1/2+x,1/2-y,z
1/2-y,1/2-x,z
1/2+y,1/2+x,z
loop_
_atom_site_type_symbol
_atom_site_label
_atom_site_fract_x
_atom_site_fract_y
_atom_site_fract_z
Si Si1 0.280719 0.372824 0.607343
Si Si2 0.675370 0.322132 0.179110
Si Si3 0.500944 0.857167 0.328876
Si Si4 0.819717 0.467812 0.887920
Si Si5 0.864618 0.061796 0.000000
O O1 0.325921 0.366055 0.500000
O O2 0.203036 0.296965 0.608931
O O3 0.335590 0.355079 0.707558
O O4 0.230663 0.467922 0.616134
O O5 0.731992 0.231992 0.172134
O O6 0.742157 0.398553 0.141746
O O7 0.594683 0.320347 0.101996
O O8 0.434797 0.934797 0.362596
O O9 0.479232 0.836652 0.213247
O O10 0.600364 0.899637 0.337444
O O11 0.908585 0.408585 0.895129
O O12 0.807339 0.503870 0.000000
O O13 0.959732 0.111191 0.000000
#
# Coordination Sequence:
#
# PCOD9564117 Si02
#       5
#    16  16  16  16   8
#     4   9  19  35  54  79 112 150 191 233 275 328
#     4  10  20  37  62  85 111 149 192 238 285 334
#     4   9  18  32  52  83 120 153 183 223 287 357
#     4   9  17  30  50  78 113 150 185 226 274 331
#     4  11  25  40  60  88 117 149 186 234 288 347
#
# _framework density 23.583231999999999
#
# number of rings (size 3 to 8) (size 9 to 14) (size 15 to 20)
#    0.000    2.556    1.111    0.333    3.111    0.889 
#    0.000    5.556    0.000    4.000    0.000    1.556 
#    0.000    0.000    0.000    0.000    0.000    0.000 
#
# Total GULP energy -401858.367623 kJ/mol
# GULP energy per Si atom -5581.366217 kJ/mol
# Density = 2.352956 g / cm^3
# Si number density = 23.583232 Si / 1000 Ang^3
#
#
#
# Elastic Constant Matrix: (Units=GPa)
#
#
# Indices 1 2 3 4 5 6 
#
# 1 33.0293 7.0392 19.9531 0.0000 0.0000 0.0000
# 2 7.0392 33.0293 19.9531 0.0000 0.0000 0.0000
# 3 19.9531 19.9531 181.8335 0.0000 0.0000 0.0000
# 4 0.0000 0.0000 0.0000 4.6328 0.0000 0.0000
# 5 0.0000 0.0000 0.0000 0.0000 4.6328 0.0000
# 6 0.0000 0.0000 0.0000 0.0000 0.0000 9.0195
#
#
#
# Elastic Compliance Matrix: (Units=1/GPa)
#
#
# Indices 1 2 3 4 5 6 
#
# 1 0.033248 -0.005228 -0.003075 0.000000 0.000000 0.000000
# 2 -0.005228 0.033248 -0.003075 0.000000 0.000000 0.000000
# 3 -0.003075 -0.003075 0.006174 0.000000 0.000000 0.000000
# 4 0.000000 0.000000 0.000000 0.215853 0.000000 0.000000
# 5 0.000000 0.000000 0.000000 0.000000 0.215853 0.000000
# 6 0.000000 0.000000 0.000000 0.000000 0.000000 0.110870
#
#
# Mechanical properties :
#
#
# Convention : Reuss Voigt Hill
#
# Bulk Modulus (GPa) = 20.03420 37.97589 29.00504
# Shear Modulus (GPa) = 7.63779 17.05347 12.34563
#
# Velocity S-wave (km/s) = 1.80158 2.69200 2.29048
# Velocity P-wave (km/s) = 3.58345 5.07941 4.39554
#
# Compressibility (1/GPa) = 0.04991464
#
# Stress axis : x y z
#
# Youngs Moduli (GPa) = 30.07712 30.07712 161.96123
#
# Poissons Ratio (x) = 0.15725 0.49798
# Poissons Ratio (y) = 0.15725 0.49798
# Poissons Ratio (z) = 0.09248 0.09248
#
# Static dielectric constant tensor:
#      x y z
#    x 1.950210 0.000000 0.000000 
#    y 0.000000 1.950210 0.000000 
#    z 0.000000 0.000000 1.918270 
# 
# From -- ./inp_files/3178.got.cif
#   From: 2010.05.17/outbox.cif.g08.bks.cpg/sg127_2_cif.got.tgz:3178.got - 2010.05.20 12:03:00.
