data_PCOD9564520
_publ_section_title
;
Structure prediction by ZEFSAII (Michael W. Deem and Ramdas Pophale) SiO2 
 PCOD9564520
Probable space group: P 4/M N C
;
_chemical_formula_sum "Si O2"
_cell_formula_units_Z 64
_cell_length_a 18.032979
_cell_length_b 18.032979
_cell_length_c 8.451766
_cell_angle_alpha 90.000000
_cell_angle_beta 90.000000
_cell_angle_gamma 90.000000
_cell_volume 2748.415685
_symmetry_space_group_name_H-M "P 4/M N C"
_symmetry_group_IT_number 128
_symmetry_cell_setting 'tetragonal'
loop_
_space_group_symop_operation_xyz
x,y,z
-y,x,z
-x,-y,z
y,-x,z
1/2+x,1/2-y,1/2-z
1/2-x,1/2+y,1/2-z
1/2+y,1/2+x,1/2-z
1/2-y,1/2-x,1/2-z
-x,-y,-z
y,-x,-z
x,y,-z
-y,x,-z
1/2-x,1/2+y,1/2+z
1/2+x,1/2-y,1/2+z
1/2-y,1/2-x,1/2+z
1/2+y,1/2+x,1/2+z
loop_
_atom_site_type_symbol
_atom_site_label
_atom_site_fract_x
_atom_site_fract_y
_atom_site_fract_z
Si Si1 0.897371 0.279109 0.688910
Si Si2 0.385648 0.993628 0.810935
Si Si3 0.164027 0.217387 0.814776
Si Si4 0.549124 0.389131 0.809329
O O1 0.845411 0.345411 0.750000
O O2 0.893720 0.269161 0.500000
O O3 0.856088 0.212323 0.773897
O O4 0.977511 0.308728 0.739688
O O5 0.414378 0.914378 0.750000
O O6 0.448327 0.051674 0.750000
O O7 0.383701 0.995316 0.000000
O O8 0.212843 0.287158 0.750000
O O9 0.085744 0.186856 0.750231
O O10 0.157472 0.229793 0.000000
O O11 0.594294 0.463996 0.761891
O O12 0.550629 0.386574 0.000000
#
# Coordination Sequence:
#
# PCOD9564520 Si02
#       4
#    16  16  16  16
#     4  10  17  27  42  63  93 130 174 223 277 335
#     4  10  16  23  34  52  79 115 162 215 272 331
#     4  11  21  34  55  85 121 159 201 249 303 365
#     4   9  19  38  64  93 126 164 205 252 311 377
#
# _framework density 23.286144
#
# number of rings (size 3 to 8) (size 9 to 14) (size 15 to 20)
#    0.000    2.000    0.000   11.250    0.000    1.000 
#    0.000    1.250    0.000    1.500    0.000    3.500 
#    0.000    0.000    0.000    0.000    0.000    0.000 
#
# Total GULP energy -357003.361959 kJ/mol
# GULP energy per Si atom -5578.177531 kJ/mol
# Density = 2.323314 g / cm^3
# Si number density = 23.286144 Si / 1000 Ang^3
#
#
#
# Elastic Constant Matrix: (Units=GPa)
#
#
# Indices 1 2 3 4 5 6 
#
# 1 59.9171 136.9758 12.8395 0.0000 0.0000 0.0000
# 2 136.9758 59.9135 12.8172 0.0000 0.0000 0.0000
# 3 12.8395 12.8172 80.9157 0.0000 0.0000 0.0000
# 4 0.0000 0.0000 0.0000 -6.2310 0.0000 0.0000
# 5 0.0000 0.0000 0.0000 0.0000 -6.2345 0.0000
# 6 0.0000 0.0000 0.0000 0.0000 0.0000 64.3591
#
#
#
# Elastic Compliance Matrix: (Units=1/GPa)
#
#
# Indices 1 2 3 4 5 6 
#
# 1 -0.003895 0.009081 -0.000820 0.000000 0.000000 0.000000
# 2 0.009081 -0.003895 -0.000824 0.000000 0.000000 0.000000
# 3 -0.000820 -0.000824 0.012619 0.000000 0.000000 0.000000
# 4 0.000000 0.000000 0.000000 -0.160487 0.000000 0.000000
# 5 0.000000 0.000000 0.000000 0.000000 -0.160397 0.000000
# 6 0.000000 0.000000 0.000000 0.000000 0.000000 0.015538
#
#
# Mechanical properties :
#
#
# Convention : Reuss Voigt Hill
#
# Bulk Modulus (GPa) = 50.75470 58.44571 54.60020
# Shear Modulus (GPa) = -16.19044 12.91962 -1.63541
#
# Velocity S-wave (km/s) = -2.63968 2.35802 -0.83895
# Velocity P-wave (km/s) = 3.54300 5.70676 4.74973
#
# Compressibility (1/GPa) = 0.01970261
#
# Stress axis : x y z
#
# Youngs Moduli (GPa) = -256.70766 -256.72300 79.24406
#
# Poissons Ratio (x) = 2.33142 0.06501
# Poissons Ratio (y) = 2.33128 0.06530
# Poissons Ratio (z) = -0.21060 -0.21154
#
# Static dielectric constant tensor:
#      x y z
#    x 1.905710 0.000000 0.000000 
#    y 0.000000 1.905690 0.000000 
#    z 0.000000 0.000000 1.780910 
# 
# From -- ./inp_files/1027.got.cif
#   From: 2010.05.17/outbox.cif.g08.bks.cpg/sg128_1_cif.got.tgz:1027.got - 2010.05.20 12:07:25.
