data_PCOD9564810
_publ_section_title
;
Structure prediction by ZEFSAII (Michael W. Deem and Ramdas Pophale) SiO2 
 PCOD9564810
Probable space group: P 4/M N C
;
_chemical_formula_sum "Si O2"
_cell_formula_units_Z 112
_cell_length_a 14.894130
_cell_length_b 14.894130
_cell_length_c 24.198456
_cell_angle_alpha 90.000000
_cell_angle_beta 90.000000
_cell_angle_gamma 90.000000
_cell_volume 5368.067111
_symmetry_space_group_name_H-M "P 4/M N C"
_symmetry_group_IT_number 128
_symmetry_cell_setting 'tetragonal'
loop_
_space_group_symop_operation_xyz
x,y,z
-y,x,z
-x,-y,z
y,-x,z
1/2+x,1/2-y,1/2-z
1/2-x,1/2+y,1/2-z
1/2+y,1/2+x,1/2-z
1/2-y,1/2-x,1/2-z
-x,-y,-z
y,-x,-z
x,y,-z
-y,x,-z
1/2-x,1/2+y,1/2+z
1/2+x,1/2-y,1/2+z
1/2-y,1/2-x,1/2+z
1/2+y,1/2+x,1/2+z
loop_
_atom_site_type_symbol
_atom_site_label
_atom_site_fract_x
_atom_site_fract_y
_atom_site_fract_z
Si Si1 0.724467 0.360645 0.932766
Si Si2 0.356859 0.508133 0.374571
Si Si3 0.500184 0.851161 0.261721
Si Si4 0.064194 0.271459 0.567451
Si Si5 0.699666 0.912017 0.936934
Si Si6 0.503339 0.647187 0.241182
Si Si7 0.035467 0.407651 0.122390
O O1 0.636302 0.305403 0.917585
O O2 0.735486 0.464912 0.917503
O O3 0.813615 0.310298 0.911180
O O4 0.727070 0.360249 0.000000
O O5 0.407624 0.418405 0.390460
O O6 0.269965 0.522302 0.410008
O O7 0.353442 0.507621 0.308204
O O8 0.412973 0.912973 0.250000
O O9 0.502111 0.754794 0.230127
O O10 0.486189 0.839417 0.327617
O O11 0.590220 0.909781 0.250000
O O12 0.067226 0.285875 0.500000
O O13 0.087111 0.363729 0.599678
O O14 0.607893 0.965849 0.927639
O O15 0.721712 0.899873 0.000000
O O16 0.414085 0.589965 0.223872
O O17 0.000000 0.500000 0.148251
#
# Coordination Sequence:
#
# PCOD9564810 Si02
#       7
#    16  16  16  16  16  16  16
#     4   9  20  35  52  81 115 151 204 251 285 337
#     4   9  19  35  54  81 120 162 196 227 277 341
#     4  11  23  40  63  91 118 144 194 244 292 355
#     4  10  21  37  59  86 116 156 201 244 293 347
#     4  11  22  33  53  84 116 155 202 238 278 339
#     4   9  19  38  64  91 119 153 192 237 295 359
#     4  12  22  39  60  82 118 154 183 240 298 339
#
# _framework density 20.86412
#
# number of rings (size 3 to 8) (size 9 to 14) (size 15 to 20)
#    0.000    1.857    4.286    1.286    2.000    2.000 
#    0.000    2.143    3.143    0.000    0.000    0.000 
#    0.000    0.000    0.000    0.000    0.000    0.000 
#
# Total GULP energy -623726.427590 kJ/mol
# GULP energy per Si atom -5568.985961 kJ/mol
# Density = 2.081663 g / cm^3
# Si number density = 20.864120 Si / 1000 Ang^3
#
#
#
# Elastic Constant Matrix: (Units=GPa)
#
#
# Indices 1 2 3 4 5 6 
#
# 1 68.4174 20.2163 9.0641 0.0000 0.0000 0.0000
# 2 20.2163 68.4177 9.0637 0.0000 0.0000 0.0000
# 3 9.0641 9.0637 32.8476 0.0000 0.0000 0.0000
# 4 0.0000 0.0000 0.0000 15.5036 0.0000 0.0000
# 5 0.0000 0.0000 0.0000 0.0000 15.5033 0.0000
# 6 0.0000 0.0000 0.0000 0.0000 0.0000 24.3923
#
#
#
# Elastic Compliance Matrix: (Units=1/GPa)
#
#
# Indices 1 2 3 4 5 6 
#
# 1 0.016352 -0.004395 -0.003300 0.000000 0.000000 0.000000
# 2 -0.004395 0.016352 -0.003299 0.000000 0.000000 0.000000
# 3 -0.003300 -0.003299 0.032265 0.000000 0.000000 0.000000
# 4 0.000000 0.000000 0.000000 0.064501 0.000000 0.000000
# 5 0.000000 0.000000 0.000000 0.000000 0.064502 0.000000
# 6 0.000000 0.000000 0.000000 0.000000 0.000000 0.040996
#
#
# Mechanical properties :
#
#
# Convention : Reuss Voigt Hill
#
# Bulk Modulus (GPa) = 23.26603 27.37455 25.32029
# Shear Modulus (GPa) = 18.43099 19.83574 19.13336
#
# Velocity S-wave (km/s) = 2.97540 3.08670 3.03156
# Velocity P-wave (km/s) = 4.79369 5.08454 4.94125
#
# Compressibility (1/GPa) = 0.04298112
#
# Stress axis : x y z
#
# Youngs Moduli (GPa) = 61.15522 61.15568 30.99378
#
# Poissons Ratio (x) = 0.26875 0.10227
# Poissons Ratio (y) = 0.26875 0.10226
# Poissons Ratio (z) = 0.20179 0.20177
#
# Static dielectric constant tensor:
#      x y z
#    x 1.804410 0.000000 0.000000 
#    y 0.000000 1.804410 0.000000 
#    z 0.000000 0.000000 1.892570 
# 
# From -- ./inp_files/6463.got.cif
#   From: 2010.05.17/outbox.cif.g08.bks.cpg/sg128_4_cif.got.tgz:6463.got - 2010.05.20 12:07:25.
