data_PCOD9564224
_publ_section_title
;
Structure prediction by ZEFSAII (Michael W. Deem and Ramdas Pophale) SiO2 
 PCOD9564224
Probable space group: P 4/M B M
;
_chemical_formula_sum "Si O2"
_cell_formula_units_Z 82
_cell_length_a 23.910047
_cell_length_b 23.910047
_cell_length_c 7.357736
_cell_angle_alpha 90.000000
_cell_angle_beta 90.000000
_cell_angle_gamma 90.000000
_cell_volume 4206.346651
_symmetry_space_group_name_H-M "P 4/M B M"
_symmetry_group_IT_number 127
_symmetry_cell_setting 'tetragonal'
loop_
_space_group_symop_operation_xyz
x,y,z
-y,x,z
-x,-y,z
y,-x,z
1/2+x,1/2-y,-z
1/2-x,1/2+y,-z
1/2+y,1/2+x,-z
1/2-y,1/2-x,-z
-x,-y,-z
y,-x,-z
x,y,-z
-y,x,-z
1/2-x,1/2+y,z
1/2+x,1/2-y,z
1/2-y,1/2-x,z
1/2+y,1/2+x,z
loop_
_atom_site_type_symbol
_atom_site_label
_atom_site_fract_x
_atom_site_fract_y
_atom_site_fract_z
Si Si1 0.081069 0.959982 0.278654
Si Si2 0.983522 0.633927 0.000000
Si Si3 0.902232 0.686570 0.715815
Si Si4 0.186661 0.888276 0.721235
Si Si5 0.399867 0.194564 0.000000
Si Si6 0.760087 0.832465 0.283508
Si Si7 0.500000 0.000000 0.000000
O O1 0.081741 0.959795 0.500000
O O2 0.137431 0.929557 0.217662
O O3 0.024566 0.927188 0.223606
O O4 0.946167 0.649878 0.826000
O O5 0.037711 0.673053 0.000000
O O6 0.999395 0.569237 0.000000
O O7 0.913163 0.684233 0.500000
O O8 0.841293 0.658708 0.745294
O O9 0.904238 0.750754 0.777317
O O10 0.186868 0.889141 0.500000
O O11 0.174828 0.824202 0.772897
O O12 0.382409 0.231082 0.174433
O O13 0.359063 0.140938 0.000000
O O14 0.758170 0.841921 0.500000
O O15 0.723142 0.776859 0.245440
#
# Coordination Sequence:
#
# PCOD9564224 Si02
#       7
#    16   8  16  16   8  16   2
#     4   8  14  25  42  68 105 148 189 225 266 324
#     4  12  24  43  65  85 115 156 196 250 299 354
#     4  10  21  38  60  89 117 145 189 245 299 352
#     4   9  17  30  53  82 115 152 189 232 285 344
#     4  10  22  37  56  81 112 146 191 240 288 350
#     4   9  18  34  55  82 115 151 186 230 291 351
#     4  12  24  48  70  80 112 162 204 236 306 376
#
# _framework density 19.494351000000002
#
# number of rings (size 3 to 8) (size 9 to 14) (size 15 to 20)
#    0.000    2.537    1.463    1.171    0.000    5.463 
#    0.000    6.829    0.000    0.000    0.000    0.000 
#    0.000    4.683    0.000    0.390    0.000    0.000 
#
# Total GULP energy -457267.110430 kJ/mol
# GULP energy per Si atom -5576.428176 kJ/mol
# Density = 1.944998 g / cm^3
# Si number density = 19.494351 Si / 1000 Ang^3
#
#
#
# Elastic Constant Matrix: (Units=GPa)
#
#
# Indices 1 2 3 4 5 6 
#
# 1 160.9213 98.8254 36.1464 0.0000 0.0000 0.0000
# 2 98.8254 160.9217 36.1465 0.0000 0.0000 0.0000
# 3 36.1464 36.1465 70.8588 0.0000 0.0000 0.0000
# 4 0.0000 0.0000 0.0000 16.3683 0.0000 0.0000
# 5 0.0000 0.0000 0.0000 0.0000 16.3691 0.0000
# 6 0.0000 0.0000 0.0000 0.0000 0.0000 34.8738
#
#
#
# Elastic Compliance Matrix: (Units=1/GPa)
#
#
# Indices 1 2 3 4 5 6 
#
# 1 0.010296 -0.005809 -0.002289 0.000000 0.000000 0.000000
# 2 -0.005809 0.010295 -0.002289 0.000000 0.000000 0.000000
# 3 -0.002289 -0.002289 0.016448 0.000000 0.000000 0.000000
# 4 0.000000 0.000000 0.000000 0.061094 0.000000 0.000000
# 5 0.000000 0.000000 0.000000 0.000000 0.061091 0.000000
# 6 0.000000 0.000000 0.000000 0.000000 0.000000 0.028675
#
#
# Mechanical properties :
#
#
# Convention : Reuss Voigt Hill
#
# Bulk Modulus (GPa) = 61.47733 81.65982 71.56857
# Shear Modulus (GPa) = 23.35435 28.29446 25.82440
#
# Velocity S-wave (km/s) = 3.46498 3.81388 3.64361
# Velocity P-wave (km/s) = 6.90018 7.83417 7.38196
#
# Compressibility (1/GPa) = 0.01626616
#
# Stress axis : x y z
#
# Youngs Moduli (GPa) = 97.12966 97.12986 60.79845
#
# Poissons Ratio (x) = 0.56418 0.13916
# Poissons Ratio (y) = 0.56418 0.13916
# Poissons Ratio (z) = 0.22232 0.22232
#
# Static dielectric constant tensor:
#      x y z
#    x 1.655690 0.000000 0.000000 
#    y 0.000000 1.655690 0.000000 
#    z 0.000000 0.000000 1.705370 
# 
# From -- ./inp_files/1912.got.cif
#   From: 2010.05.17/outbox.cif.g08.bks.cpg/sg127_1_cif.got.tgz:1912.got - 2010.05.20 12:03:00.
