data_PCOD9564258
_publ_section_title
;
Structure prediction by ZEFSAII (Michael W. Deem and Ramdas Pophale) SiO2 
 PCOD9564258
Probable space group: P 4/M B M
;
_chemical_formula_sum "Si O2"
_cell_formula_units_Z 72
_cell_length_a 12.533348
_cell_length_b 12.533348
_cell_length_c 20.057602
_cell_angle_alpha 90.000000
_cell_angle_beta 90.000000
_cell_angle_gamma 90.000000
_cell_volume 3150.744641
_symmetry_space_group_name_H-M "P 4/M B M"
_symmetry_group_IT_number 127
_symmetry_cell_setting 'tetragonal'
loop_
_space_group_symop_operation_xyz
x,y,z
-y,x,z
-x,-y,z
y,-x,z
1/2+x,1/2-y,-z
1/2-x,1/2+y,-z
1/2+y,1/2+x,-z
1/2-y,1/2-x,-z
-x,-y,-z
y,-x,-z
x,y,-z
-y,x,-z
1/2-x,1/2+y,z
1/2+x,1/2-y,z
1/2-y,1/2-x,z
1/2+y,1/2+x,z
loop_
_atom_site_type_symbol
_atom_site_label
_atom_site_fract_x
_atom_site_fract_y
_atom_site_fract_z
Si Si1 0.811257 0.857973 0.708273
Si Si2 0.959886 0.718738 0.211903
Si Si3 0.994579 0.819554 0.074918
Si Si4 0.427027 0.259810 0.575821
Si Si5 0.584323 0.084323 0.419540
O O1 0.753186 0.746815 0.694564
O O2 0.899446 0.826298 0.761857
O O3 0.839077 0.903363 0.635963
O O4 0.725974 0.936897 0.742004
O O5 0.884142 0.615859 0.219829
O O6 0.988591 0.736517 0.134885
O O7 0.099460 0.894046 0.080524
O O8 0.993052 0.773753 0.000000
O O9 0.429691 0.300544 0.500000
O O10 0.335303 0.164698 0.575983
O O11 0.538031 0.200138 0.594026
O O12 0.577627 0.077627 0.500000
O O13 0.500000 0.000000 0.390154
#
# Coordination Sequence:
#
# PCOD9564258 Si02
#       5
#    16  16  16  16   8
#     4  10  22  37  54  81 113 145 187 234 277 332
#     4  11  22  36  57  84 113 149 184 220 282 340
#     4   9  17  33  59  85 108 142 187 228 266 316
#     4   8  14  27  47  70 102 141 180 226 273 318
#     4   7  10  18  38  66  90 124 171 211 258 310
#
# _framework density 22.851739999999999
#
# number of rings (size 3 to 8) (size 9 to 14) (size 15 to 20)
#    0.000    2.778    2.222    2.000    1.556    1.333 
#    0.000    1.111    0.000    2.000    0.000    3.111 
#    0.000    0.000    0.000    0.000    0.000    0.000 
#
# Total GULP energy -401571.626564 kJ/mol
# GULP energy per Si atom -5577.383702 kJ/mol
# Density = 2.279973 g / cm^3
# Si number density = 22.851740 Si / 1000 Ang^3
#
#
#
# Elastic Constant Matrix: (Units=GPa)
#
#
# Indices 1 2 3 4 5 6 
#
# 1 26.0142 15.3811 20.8709 0.0000 0.0000 0.0000
# 2 15.3811 26.0142 20.8709 0.0000 0.0000 0.0000
# 3 20.8709 20.8709 154.0010 0.0000 0.0000 0.0000
# 4 0.0000 0.0000 0.0000 21.6032 0.0000 0.0000
# 5 0.0000 0.0000 0.0000 0.0000 21.6032 0.0000
# 6 0.0000 0.0000 0.0000 0.0000 0.0000 29.4767
#
#
#
# Elastic Compliance Matrix: (Units=1/GPa)
#
#
# Indices 1 2 3 4 5 6 
#
# 1 0.061013 -0.033032 -0.003792 0.000000 0.000000 0.000000
# 2 -0.033032 0.061013 -0.003792 0.000000 0.000000 0.000000
# 3 -0.003792 -0.003792 0.007521 0.000000 0.000000 0.000000
# 4 0.000000 0.000000 0.000000 0.046289 0.000000 0.000000
# 5 0.000000 0.000000 0.000000 0.000000 0.046289 0.000000
# 6 0.000000 0.000000 0.000000 0.000000 0.000000 0.033925
#
#
# Mechanical properties :
#
#
# Convention : Reuss Voigt Hill
#
# Bulk Modulus (GPa) = 20.69743 35.58613 28.14178
# Shear Modulus (GPa) = 14.14867 24.46375 19.30621
#
# Velocity S-wave (km/s) = 2.49097 3.27546 2.90978
# Velocity P-wave (km/s) = 4.16536 5.46912 4.86115
#
# Compressibility (1/GPa) = 0.04831517
#
# Stress axis : x y z
#
# Youngs Moduli (GPa) = 16.38983 16.38983 132.95542
#
# Poissons Ratio (x) = 0.54139 0.50418
# Poissons Ratio (y) = 0.54139 0.50418
# Poissons Ratio (z) = 0.06215 0.06215
#
# Static dielectric constant tensor:
#      x y z
#    x 1.892480 0.000000 0.000000 
#    y 0.000000 1.892480 0.000000 
#    z 0.000000 0.000000 1.843760 
# 
# From -- ./inp_files/4931.got.cif
#   From: 2010.05.17/outbox.cif.g08.bks.cpg/sg127_3_cif.got.tgz:4931.got - 2010.05.20 12:03:00.
