data_PCOD9564932
_publ_section_title
;
Structure prediction by ZEFSAII (Michael W. Deem and Ramdas Pophale) SiO2 
 PCOD9564932
Probable space group: P 4/M N C
;
_chemical_formula_sum "Si O2"
_cell_formula_units_Z 116
_cell_length_a 18.555466
_cell_length_b 18.555466
_cell_length_c 15.174571
_cell_angle_alpha 90.000000
_cell_angle_beta 90.000000
_cell_angle_gamma 90.000000
_cell_volume 5224.685501
_symmetry_space_group_name_H-M "P 4/M N C"
_symmetry_group_IT_number 128
_symmetry_cell_setting 'tetragonal'
loop_
_space_group_symop_operation_xyz
x,y,z
-y,x,z
-x,-y,z
y,-x,z
1/2+x,1/2-y,1/2-z
1/2-x,1/2+y,1/2-z
1/2+y,1/2+x,1/2-z
1/2-y,1/2-x,1/2-z
-x,-y,-z
y,-x,-z
x,y,-z
-y,x,-z
1/2-x,1/2+y,1/2+z
1/2+x,1/2-y,1/2+z
1/2-y,1/2-x,1/2+z
1/2+y,1/2+x,1/2+z
loop_
_atom_site_type_symbol
_atom_site_label
_atom_site_fract_x
_atom_site_fract_y
_atom_site_fract_z
Si Si1 0.352458 0.005198 0.356629
Si Si2 0.000000 0.500000 0.750000
Si Si3 0.921215 0.087591 0.392294
Si Si4 0.203640 0.803077 0.394933
Si Si5 0.273180 0.994113 0.818664
Si Si6 0.653628 0.142912 0.901661
Si Si7 0.882544 0.015965 0.105922
Si Si8 0.839246 0.356841 0.644663
O O1 0.288429 0.004641 0.284721
O O2 0.354435 0.082763 0.400854
O O3 0.428232 0.001192 0.306333
O O4 0.349967 0.932046 0.409028
O O5 0.921242 0.089217 0.500000
O O6 0.863442 0.147876 0.361601
O O7 0.005177 0.099259 0.366025
O O8 0.206468 0.817281 0.500000
O O9 0.281741 0.823800 0.358166
O O10 0.196718 0.717985 0.380612
O O11 0.297484 0.068208 0.867666
O O12 0.322805 0.927440 0.848820
O O13 0.191752 0.977066 0.843427
O O14 0.685729 0.136381 0.000000
O O15 0.940249 0.078271 0.126674
O O16 0.870279 0.017770 0.000000
O O17 0.853374 0.353374 0.750000
#
# Coordination Sequence:
#
# PCOD9564932 Si02
#       8
#    16   4  16  16  16  16  16  16
#     4  11  21  41  66  85 118 168 205 250 298 362
#     4  12  16  44  66  76 120 152 214 240 296 364
#     4   8  15  31  56  83 112 153 197 233 281 346
#     4  10  23  38  58  89 126 156 195 253 305 357
#     4  11  21  39  63  90 120 162 206 249 304 368
#     4  11  24  39  59  94 125 158 205 254 309 367
#     4   9  20  39  63  90 122 160 199 251 318 374
#     4  10  23  41  61  87 119 161 206 246 300 365
#
# _framework density 22.202292
#
# number of rings (size 3 to 8) (size 9 to 14) (size 15 to 20)
#    0.000    1.931    3.448    1.241    3.862    2.759 
#    2.483    2.414    0.000    0.000    0.000    0.000 
#    0.000    0.000    0.000    0.000    0.000    0.000 
#
# Total GULP energy -647976.921265 kJ/mol
# GULP energy per Si atom -5586.007942 kJ/mol
# Density = 2.215176 g / cm^3
# Si number density = 22.202292 Si / 1000 Ang^3
#
#
#
# Elastic Constant Matrix: (Units=GPa)
#
#
# Indices 1 2 3 4 5 6 
#
# 1 117.8542 33.7644 14.4385 0.0000 0.0000 0.0000
# 2 33.7644 117.8542 14.4385 0.0000 0.0000 0.0000
# 3 14.4385 14.4385 40.2869 0.0000 0.0000 0.0000
# 4 0.0000 0.0000 0.0000 -27.3891 0.0000 0.0000
# 5 0.0000 0.0000 0.0000 0.0000 -27.3891 0.0000
# 6 0.0000 0.0000 0.0000 0.0000 0.0000 24.7752
#
#
#
# Elastic Compliance Matrix: (Units=1/GPa)
#
#
# Indices 1 2 3 4 5 6 
#
# 1 0.009485 -0.002407 -0.002537 0.000000 0.000000 0.000000
# 2 -0.002407 0.009485 -0.002537 0.000000 0.000000 0.000000
# 3 -0.002537 -0.002537 0.026640 0.000000 0.000000 0.000000
# 4 0.000000 0.000000 0.000000 -0.036511 0.000000 0.000000
# 5 0.000000 0.000000 0.000000 0.000000 -0.036511 0.000000
# 6 0.000000 0.000000 0.000000 0.000000 0.000000 0.040363
#
#
# Mechanical properties :
#
#
# Convention : Reuss Voigt Hill
#
# Bulk Modulus (GPa) = 32.62646 44.58648 38.60647
# Shear Modulus (GPa) = 131.12975 8.22299 69.67637
#
# Velocity S-wave (km/s) = 7.69348 1.92658 5.60809
# Velocity P-wave (km/s) = 9.67711 5.00744 7.70457
#
# Compressibility (1/GPa) = 0.03064997
#
# Stress axis : x y z
#
# Youngs Moduli (GPa) = 105.42561 105.42561 37.53700
#
# Poissons Ratio (x) = 0.25373 0.09523
# Poissons Ratio (y) = 0.25373 0.09523
# Poissons Ratio (z) = 0.26746 0.26746
#
# Static dielectric constant tensor:
#      x y z
#    x 1.742380 0.000000 0.000000 
#    y 0.000000 1.742380 0.000000 
#    z 0.000000 0.000000 1.849620 
# 
# From -- ./inp_files/4960.got.cif
#   From: 2010.05.17/outbox.cif.g08.bks.cpg/sg128_3_cif.got.tgz:4960.got - 2010.05.20 12:07:25.
