data_PCOD9564877
_publ_section_title
;
Structure prediction by ZEFSAII (Michael W. Deem and Ramdas Pophale) SiO2 
 PCOD9564877
Probable space group: P 4/M N C
;
_chemical_formula_sum "Si O2"
_cell_formula_units_Z 96
_cell_length_a 15.121041
_cell_length_b 15.121041
_cell_length_c 24.297517
_cell_angle_alpha 90.000000
_cell_angle_beta 90.000000
_cell_angle_gamma 90.000000
_cell_volume 5555.527179
_symmetry_space_group_name_H-M "P 4/M N C"
_symmetry_group_IT_number 128
_symmetry_cell_setting 'tetragonal'
loop_
_space_group_symop_operation_xyz
x,y,z
-y,x,z
-x,-y,z
y,-x,z
1/2+x,1/2-y,1/2-z
1/2-x,1/2+y,1/2-z
1/2+y,1/2+x,1/2-z
1/2-y,1/2-x,1/2-z
-x,-y,-z
y,-x,-z
x,y,-z
-y,x,-z
1/2-x,1/2+y,1/2+z
1/2+x,1/2-y,1/2+z
1/2-y,1/2-x,1/2+z
1/2+y,1/2+x,1/2+z
loop_
_atom_site_type_symbol
_atom_site_label
_atom_site_fract_x
_atom_site_fract_y
_atom_site_fract_z
Si Si1 0.581115 0.626608 0.000000
Si Si2 0.947512 0.787517 0.683454
Si Si3 0.666609 0.728560 0.652686
Si Si4 0.210935 0.116736 0.382673
Si Si5 0.478364 0.356468 0.294861
Si Si6 0.194247 0.305754 0.750000
Si Si7 0.112444 0.903490 0.064342
O O1 0.474128 0.617489 0.000000
O O2 0.611897 0.677040 0.054919
O O3 0.871524 0.845825 0.654026
O O4 0.895390 0.710499 0.716131
O O5 0.019226 0.763540 0.637997
O O6 0.004218 0.836594 0.730983
O O7 0.707345 0.818433 0.629181
O O8 0.565199 0.727552 0.675202
O O9 0.727207 0.703586 0.705352
O O10 0.670811 0.657803 0.603181
O O11 0.569621 0.404654 0.308960
O O12 0.008711 0.880089 0.073923
O O13 0.130937 0.888113 0.000000
#
# Coordination Sequence:
#
# PCOD9564877 Si02
#       7
#     8  16  16  16  16   8  16
#     4  11  22  38  60  88 112 151 206 246 292 337
#     4  11  20  37  55  85 118 152 184 239 293 342
#     4  11  21  35  52  85 118 153 187 234 285 353
#     4  11  23  36  57  83 121 154 195 244 285 334
#     4  11  19  30  57  88 114 143 181 224 294 352
#     4  10  22  36  50  83 122 149 194 230 280 356
#     4   9  19  36  57  86 117 143 181 239 298 348
#
# _framework density 17.280087999999999
#
# number of rings (size 3 to 8) (size 9 to 14) (size 15 to 20)
#    0.000    1.417    5.000    2.500    1.167    1.667 
#    0.000    0.000    0.000    2.000    0.000    0.000 
#    0.000   10.333    0.000    0.000    0.000    0.000 
#
# Total GULP energy -534737.403291 kJ/mol
# GULP energy per Si atom -5570.181284 kJ/mol
# Density = 1.724076 g / cm^3
# Si number density = 17.280088 Si / 1000 Ang^3
#
#
#
# Elastic Constant Matrix: (Units=GPa)
#
#
# Indices 1 2 3 4 5 6 
#
# 1 65.5630 47.6109 43.5213 0.0000 0.0000 0.0000
# 2 47.6109 65.5636 43.5214 0.0000 0.0000 0.0000
# 3 43.5213 43.5214 121.8894 0.0000 0.0000 0.0000
# 4 0.0000 0.0000 0.0000 35.4606 0.0000 0.0000
# 5 0.0000 0.0000 0.0000 0.0000 35.4606 0.0000
# 6 0.0000 0.0000 0.0000 0.0000 0.0000 34.0588
#
#
#
# Elastic Compliance Matrix: (Units=1/GPa)
#
#
# Indices 1 2 3 4 5 6 
#
# 1 0.033942 -0.021761 -0.004349 0.000000 0.000000 0.000000
# 2 -0.021761 0.033942 -0.004349 0.000000 0.000000 0.000000
# 3 -0.004349 -0.004349 0.011310 0.000000 0.000000 0.000000
# 4 0.000000 0.000000 0.000000 0.028200 0.000000 0.000000
# 5 0.000000 0.000000 0.000000 0.000000 0.028200 0.000000
# 6 0.000000 0.000000 0.000000 0.000000 0.000000 0.029361
#
#
# Mechanical properties :
#
#
# Convention : Reuss Voigt Hill
#
# Bulk Modulus (GPa) = 54.72002 58.03591 56.37797
# Shear Modulus (GPa) = 21.55489 28.88684 25.22086
#
# Velocity S-wave (km/s) = 3.53566 4.09306 3.82453
# Velocity P-wave (km/s) = 6.95724 7.48304 7.22492
#
# Compressibility (1/GPa) = 0.01827485
#
# Stress axis : x y z
#
# Youngs Moduli (GPa) = 29.46203 29.46227 88.41698
#
# Poissons Ratio (x) = 0.64112 0.38455
# Poissons Ratio (y) = 0.64112 0.38455
# Poissons Ratio (z) = 0.12814 0.12814
#
# Static dielectric constant tensor:
#      x y z
#    x 1.598470 0.000000 0.000000 
#    y 0.000000 1.598470 0.000000 
#    z 0.000000 0.000000 1.643010 
# 
# From -- ./inp_files/6388.got.cif
#   From: 2010.05.17/outbox.cif.g08.bks.cpg/sg128_4_cif.got.tgz:6388.got - 2010.05.20 12:07:25.
