data_PCOD9564588
_publ_section_title
;
Structure prediction by ZEFSAII (Michael W. Deem and Ramdas Pophale) SiO2 
 PCOD9564588
Probable space group: P 4/M N C
;
_chemical_formula_sum "Si O2"
_cell_formula_units_Z 64
_cell_length_a 17.264920
_cell_length_b 17.264920
_cell_length_c 10.335511
_cell_angle_alpha 90.000000
_cell_angle_beta 90.000000
_cell_angle_gamma 90.000000
_cell_volume 3080.782894
_symmetry_space_group_name_H-M "P 4/M N C"
_symmetry_group_IT_number 128
_symmetry_cell_setting 'tetragonal'
loop_
_space_group_symop_operation_xyz
x,y,z
-y,x,z
-x,-y,z
y,-x,z
1/2+x,1/2-y,1/2-z
1/2-x,1/2+y,1/2-z
1/2+y,1/2+x,1/2-z
1/2-y,1/2-x,1/2-z
-x,-y,-z
y,-x,-z
x,y,-z
-y,x,-z
1/2-x,1/2+y,1/2+z
1/2+x,1/2-y,1/2+z
1/2-y,1/2-x,1/2+z
1/2+y,1/2+x,1/2+z
loop_
_atom_site_type_symbol
_atom_site_label
_atom_site_fract_x
_atom_site_fract_y
_atom_site_fract_z
Si Si1 0.190006 0.560288 0.765055
Si Si2 0.378463 0.986158 0.500000
Si Si3 0.139107 0.507140 0.500000
Si Si4 0.800697 0.798554 0.345203
Si Si5 0.892196 0.060100 0.343079
O O1 0.113615 0.613615 0.750000
O O2 0.173317 0.496967 0.873665
O O3 0.192658 0.522313 0.624340
O O4 0.253246 0.621651 0.815168
O O5 0.425857 0.906616 0.500000
O O6 0.434745 0.063090 0.500000
O O7 0.764523 0.735478 0.250000
O O8 0.793551 0.782322 0.500000
O O9 0.888528 0.819198 0.308390
O O10 0.893881 0.059371 0.500000
O O11 0.971833 0.101577 0.299723
#
# Coordination Sequence:
#
# PCOD9564588 Si02
#       5
#    16   8   8  16  16
#     4   9  16  24  36  59  88 124 164 211 252 302
#     4   9  14  24  34  52  80 117 166 214 261 302
#     4   9  16  22  36  52  80 121 170 216 259 296
#     4  10  19  30  50  80 110 141 173 215 273 332
#     4   8  15  31  57  87 110 134 179 236 281 315
#
# _framework density 20.773941000000001
#
# number of rings (size 3 to 8) (size 9 to 14) (size 15 to 20)
#    0.000    3.000    1.250    1.500    5.250    3.000 
#    0.000    0.000    0.000    4.500    0.000    1.750 
#    0.000    0.000    0.000    0.000    0.000    0.000 
#
# Total GULP energy -356585.823350 kJ/mol
# GULP energy per Si atom -5571.653490 kJ/mol
# Density = 2.072666 g / cm^3
# Si number density = 20.773941 Si / 1000 Ang^3
#
#
#
# Elastic Constant Matrix: (Units=GPa)
#
#
# Indices 1 2 3 4 5 6 
#
# 1 44.8796 57.9199 22.7228 0.0000 0.0000 0.0000
# 2 57.9199 44.8807 22.7223 0.0000 0.0000 0.0000
# 3 22.7228 22.7223 104.5510 0.0000 0.0000 0.0000
# 4 0.0000 0.0000 0.0000 -13.0121 0.0000 0.0000
# 5 0.0000 0.0000 0.0000 0.0000 -13.0069 0.0000
# 6 0.0000 0.0000 0.0000 0.0000 0.0000 11.4675
#
#
#
# Elastic Compliance Matrix: (Units=1/GPa)
#
#
# Indices 1 2 3 4 5 6 
#
# 1 -0.032964 0.043725 -0.002339 0.000000 0.000000 0.000000
# 2 0.043725 -0.032963 -0.002339 0.000000 0.000000 0.000000
# 3 -0.002339 -0.002339 0.010581 0.000000 0.000000 0.000000
# 4 0.000000 0.000000 0.000000 -0.076852 0.000000 0.000000
# 5 0.000000 0.000000 0.000000 0.000000 -0.076882 0.000000
# 6 0.000000 0.000000 0.000000 0.000000 0.000000 0.087203
#
#
# Mechanical properties :
#
#
# Convention : Reuss Voigt Hill
#
# Bulk Modulus (GPa) = 43.95790 44.56014 44.25902
# Shear Modulus (GPa) = -25.98908 3.15279 -11.41815
#
# Velocity S-wave (km/s) = -3.54085 1.23327 -2.34698
# Velocity P-wave (km/s) = 2.11879 4.85021 3.74258
#
# Compressibility (1/GPa) = 0.02274904
#
# Stress axis : x y z
#
# Youngs Moduli (GPa) = -30.33604 -30.33700 94.50596
#
# Poissons Ratio (x) = 1.32649 0.22101
# Poissons Ratio (y) = 1.32645 0.22106
# Poissons Ratio (z) = -0.07094 -0.07096
#
# Static dielectric constant tensor:
#      x y z
#    x 1.786100 0.000000 0.000000 
#    y 0.000000 1.786100 0.000000 
#    z 0.000000 0.000000 1.749020 
# 
# From -- ./inp_files/2541.got.cif
#   From: 2010.05.17/outbox.cif.g08.bks.cpg/sg128_2_cif.got.tgz:2541.got - 2010.05.20 12:07:25.
