data_PCOD9564805
_publ_section_title
;
Structure prediction by ZEFSAII (Michael W. Deem and Ramdas Pophale) SiO2 
 PCOD9564805
Probable space group: P 4/M N C
;
_chemical_formula_sum "Si O2"
_cell_formula_units_Z 96
_cell_length_a 13.863165
_cell_length_b 13.863165
_cell_length_c 18.592529
_cell_angle_alpha 90.000000
_cell_angle_beta 90.000000
_cell_angle_gamma 90.000000
_cell_volume 3573.248763
_symmetry_space_group_name_H-M "P 4/M N C"
_symmetry_group_IT_number 128
_symmetry_cell_setting 'tetragonal'
loop_
_space_group_symop_operation_xyz
x,y,z
-y,x,z
-x,-y,z
y,-x,z
1/2+x,1/2-y,1/2-z
1/2-x,1/2+y,1/2-z
1/2+y,1/2+x,1/2-z
1/2-y,1/2-x,1/2-z
-x,-y,-z
y,-x,-z
x,y,-z
-y,x,-z
1/2-x,1/2+y,1/2+z
1/2+x,1/2-y,1/2+z
1/2-y,1/2-x,1/2+z
1/2+y,1/2+x,1/2+z
loop_
_atom_site_type_symbol
_atom_site_label
_atom_site_fract_x
_atom_site_fract_y
_atom_site_fract_z
Si Si1 0.732234 0.213534 0.371313
Si Si2 0.191119 0.057053 0.421604
Si Si3 0.935746 0.833172 0.279884
Si Si4 0.412014 0.075496 0.576822
Si Si5 0.596617 0.617513 0.368475
Si Si6 0.464365 0.851575 0.307690
O O1 0.825111 0.190381 0.421550
O O2 0.785255 0.167939 0.302163
O O3 0.698724 0.323651 0.381845
O O4 0.625653 0.164501 0.363384
O O5 0.155482 0.024099 0.500000
O O6 0.305227 0.032791 0.417340
O O7 0.147578 0.001236 0.351608
O O8 0.093145 0.902134 0.218208
O O9 0.414760 0.129046 0.500000
O O10 0.439410 0.128930 0.649036
O O11 0.500000 0.000000 0.574080
O O12 0.488178 0.632070 0.396270
O O13 0.756305 0.519047 0.262300
O O14 0.429288 0.929288 0.250000
#
# Coordination Sequence:
#
# PCOD9564805 Si02
#       6
#    16  16  16  16  16  16
#     4  10  22  39  62  92 132 177 229 286 353 421
#     4  11  25  41  62  98 137 184 236 284 359 442
#     4  10  21  39  62  95 132 172 231 290 349 416
#     4  10  21  37  57  88 131 173 214 269 341 420
#     4  10  21  38  63  96 134 174 226 293 355 412
#     4   9  19  36  57  88 123 163 220 271 334 403
#
# _framework density 26.866309000000001
#
# number of rings (size 3 to 8) (size 9 to 14) (size 15 to 20)
#    0.000    2.000    0.000    4.500    4.667    3.667 
#    0.000    0.000    0.000    0.000    0.000    4.667 
#    0.000    0.000    0.000    0.000    0.000    0.000 
#
# Total GULP energy -535312.078790 kJ/mol
# GULP energy per Si atom -5576.167487 kJ/mol
# Density = 2.680516 g / cm^3
# Si number density = 26.866309 Si / 1000 Ang^3
#
#
#
# Elastic Constant Matrix: (Units=GPa)
#
#
# Indices 1 2 3 4 5 6 
#
# 1 110.9692 62.0080 19.8230 0.0000 0.0000 0.0000
# 2 62.0080 110.9692 19.8230 0.0000 0.0000 0.0000
# 3 19.8230 19.8230 106.6813 0.0000 0.0000 0.0000
# 4 0.0000 0.0000 0.0000 6.8234 0.0000 0.0000
# 5 0.0000 0.0000 0.0000 0.0000 6.8234 0.0000
# 6 0.0000 0.0000 0.0000 0.0000 0.0000 52.8062
#
#
#
# Elastic Compliance Matrix: (Units=1/GPa)
#
#
# Indices 1 2 3 4 5 6 
#
# 1 0.013231 -0.007193 -0.001122 0.000000 0.000000 0.000000
# 2 -0.007193 0.013231 -0.001122 0.000000 0.000000 0.000000
# 3 -0.001122 -0.001122 0.009791 0.000000 0.000000 0.000000
# 4 0.000000 0.000000 0.000000 0.146555 0.000000 0.000000
# 5 0.000000 0.000000 0.000000 0.000000 0.146555 0.000000
# 6 0.000000 0.000000 0.000000 0.000000 0.000000 0.018937
#
#
# Mechanical properties :
#
#
# Convention : Reuss Voigt Hill
#
# Bulk Modulus (GPa) = 57.54003 59.10311 58.32157
# Shear Modulus (GPa) = 13.40598 28.42164 20.91381
#
# Velocity S-wave (km/s) = 2.23623 3.25605 2.79308
# Velocity P-wave (km/s) = 5.30389 6.01519 5.67071
#
# Compressibility (1/GPa) = 0.01737921
#
# Stress axis : x y z
#
# Youngs Moduli (GPa) = 75.57837 75.57837 102.13788
#
# Poissons Ratio (x) = 0.54364 0.11460
# Poissons Ratio (y) = 0.54364 0.11460
# Poissons Ratio (z) = 0.08480 0.08480
#
# Static dielectric constant tensor:
#      x y z
#    x 2.211520 0.000000 0.000000 
#    y 0.000000 2.211520 0.000000 
#    z 0.000000 0.000000 2.265240 
# 
# From -- ./inp_files/5738.got.cif
#   From: 2010.05.17/outbox.cif.g08.bks.cpg/sg128_3_cif.got.tgz:5738.got - 2010.05.20 12:07:25.
