data_PCOD9564095
_publ_section_title
;
Structure prediction by ZEFSAII (Michael W. Deem and Ramdas Pophale) SiO2 
 PCOD9564095
Probable space group: P 4/M B M
;
_chemical_formula_sum "Si O2"
_cell_formula_units_Z 96
_cell_length_a 25.196340
_cell_length_b 25.196340
_cell_length_c 7.625961
_cell_angle_alpha 90.000000
_cell_angle_beta 90.000000
_cell_angle_gamma 90.000000
_cell_volume 4841.383660
_symmetry_space_group_name_H-M "P 4/M B M"
_symmetry_group_IT_number 127
_symmetry_cell_setting 'tetragonal'
loop_
_space_group_symop_operation_xyz
x,y,z
-y,x,z
-x,-y,z
y,-x,z
1/2+x,1/2-y,-z
1/2-x,1/2+y,-z
1/2+y,1/2+x,-z
1/2-y,1/2-x,-z
-x,-y,-z
y,-x,-z
x,y,-z
-y,x,-z
1/2-x,1/2+y,z
1/2+x,1/2-y,z
1/2-y,1/2-x,z
1/2+y,1/2+x,z
loop_
_atom_site_type_symbol
_atom_site_label
_atom_site_fract_x
_atom_site_fract_y
_atom_site_fract_z
Si Si1 0.852098 0.081763 0.790388
Si Si2 0.044454 0.455547 0.715557
Si Si3 0.655483 0.999018 0.300417
Si Si4 0.798662 0.865508 0.212919
Si Si5 0.067996 0.945094 0.500000
Si Si6 0.297169 0.202832 0.796758
Si Si7 0.886693 0.386693 0.797274
Si Si8 0.485836 0.276689 0.795114
O O1 0.840383 0.143641 0.755433
O O2 0.904462 0.073745 0.677014
O O3 0.810541 0.036457 0.729719
O O4 0.860264 0.076768 0.000000
O O5 0.043714 0.456287 0.500000
O O6 0.104122 0.470190 0.773940
O O7 0.000000 0.500000 0.767902
O O8 0.662550 0.017040 0.500000
O O9 0.635698 0.938501 0.293883
O O10 0.714018 0.998529 0.218660
O O11 0.753904 0.825739 0.282438
O O12 0.790388 0.926694 0.277572
O O13 0.791687 0.868748 0.000000
O O14 0.007962 0.928059 0.500000
O O15 0.342120 0.157881 0.799456
O O16 0.283675 0.216326 0.000000
O O17 0.899736 0.399736 0.000000
O O18 0.482408 0.290150 0.000000
#
# Coordination Sequence:
#
# PCOD9564095 Si02
#       8
#    16   8  16  16   8   8   8  16
#     4  10  22  40  61  86 121 159 196 241 301 365
#     4   9  18  34  51  72 110 153 188 230 288 353
#     4  11  21  34  55  80 111 151 193 236 292 354
#     4   9  17  33  56  82 112 150 189 233 293 355
#     4  11  24  40  62  91 120 150 195 243 290 354
#     4   9  16  29  53  81 110 146 187 235 296 352
#     4  11  19  32  52  80 115 143 181 244 298 349
#     4  10  20  36  58  83 112 147 190 239 294 355
#
# _framework density 19.829042999999999
#
# number of rings (size 3 to 8) (size 9 to 14) (size 15 to 20)
#    0.000    2.000    2.500    1.750    1.167    2.000 
#    1.500    3.750    0.000    2.000    0.000    0.000 
#    0.000    0.000    0.000    0.000    0.000    0.000 
#
# Total GULP energy -535110.209179 kJ/mol
# GULP energy per Si atom -5574.064679 kJ/mol
# Density = 1.978391 g / cm^3
# Si number density = 19.829043 Si / 1000 Ang^3
#
#
#
# Elastic Constant Matrix: (Units=GPa)
#
#
# Indices 1 2 3 4 5 6 
#
# 1 102.1289 47.9877 14.6761 0.0000 0.0000 0.0000
# 2 47.9877 102.1280 14.6764 0.0000 0.0000 0.0000
# 3 14.6761 14.6764 36.3063 0.0000 0.0000 0.0000
# 4 0.0000 0.0000 0.0000 43.7423 0.0000 0.0000
# 5 0.0000 0.0000 0.0000 0.0000 43.7377 0.0000
# 6 0.0000 0.0000 0.0000 0.0000 0.0000 39.0523
#
#
#
# Elastic Compliance Matrix: (Units=1/GPa)
#
#
# Indices 1 2 3 4 5 6 
#
# 1 0.012852 -0.005619 -0.002924 0.000000 0.000000 0.000000
# 2 -0.005619 0.012852 -0.002924 0.000000 0.000000 0.000000
# 3 -0.002924 -0.002924 0.029907 0.000000 0.000000 0.000000
# 4 0.000000 0.000000 0.000000 0.022861 0.000000 0.000000
# 5 0.000000 0.000000 0.000000 0.000000 0.022864 0.000000
# 6 0.000000 0.000000 0.000000 0.000000 0.000000 0.025607
#
#
# Mechanical properties :
#
#
# Convention : Reuss Voigt Hill
#
# Bulk Modulus (GPa) = 30.60156 43.91597 37.25876
# Shear Modulus (GPa) = 31.10074 36.18798 33.64436
#
# Velocity S-wave (km/s) = 3.96465 4.27664 4.12360
# Velocity P-wave (km/s) = 6.03525 6.82507 6.44227
#
# Compressibility (1/GPa) = 0.03267807
#
# Stress axis : x y z
#
# Youngs Moduli (GPa) = 77.81050 77.80967 33.43667
#
# Poissons Ratio (x) = 0.43718 0.09776
# Poissons Ratio (y) = 0.43718 0.09777
# Poissons Ratio (z) = 0.22750 0.22752
#
# Static dielectric constant tensor:
#      x y z
#    x 1.696150 0.000000 0.000000 
#    y 0.000000 1.696150 0.000000 
#    z 0.000000 0.000000 1.749290 
# 
# From -- ./inp_files/2149.got.cif
#   From: 2010.05.17/outbox.cif.g08.bks.cpg/sg127_2_cif.got.tgz:2149.got - 2010.05.20 12:03:00.
