data_PCOD9564973
_publ_section_title
;
Structure prediction by ZEFSAII (Michael W. Deem and Ramdas Pophale) SiO2 
 PCOD9564973
Probable space group: P 4/M N C
;
_chemical_formula_sum "Si O2"
_cell_formula_units_Z 80
_cell_length_a 15.209333
_cell_length_b 15.209333
_cell_length_c 14.280621
_cell_angle_alpha 90.000000
_cell_angle_beta 90.000000
_cell_angle_gamma 90.000000
_cell_volume 3303.447663
_symmetry_space_group_name_H-M "P 4/M N C"
_symmetry_group_IT_number 128
_symmetry_cell_setting 'tetragonal'
loop_
_space_group_symop_operation_xyz
x,y,z
-y,x,z
-x,-y,z
y,-x,z
1/2+x,1/2-y,1/2-z
1/2-x,1/2+y,1/2-z
1/2+y,1/2+x,1/2-z
1/2-y,1/2-x,1/2-z
-x,-y,-z
y,-x,-z
x,y,-z
-y,x,-z
1/2-x,1/2+y,1/2+z
1/2+x,1/2-y,1/2+z
1/2-y,1/2-x,1/2+z
1/2+y,1/2+x,1/2+z
loop_
_atom_site_type_symbol
_atom_site_label
_atom_site_fract_x
_atom_site_fract_y
_atom_site_fract_z
Si Si1 0.409913 0.908059 0.358659
Si Si2 0.607493 0.903274 0.137851
Si Si3 0.633023 0.569105 0.392091
Si Si4 0.219362 0.089874 0.604145
Si Si5 0.093856 0.222453 0.302457
O O1 0.428218 0.928218 0.250000
O O2 0.499157 0.859149 0.389353
O O3 0.312923 0.868745 0.348630
O O4 0.403803 0.006243 0.399088
O O5 0.607933 0.892068 0.250000
O O6 0.644945 0.810705 0.103977
O O7 0.536252 0.614551 0.381889
O O8 0.662634 0.585034 0.500000
O O9 0.695981 0.600778 0.307111
O O10 0.204866 0.055401 0.500000
O O11 0.138996 0.146332 0.639408
O O12 0.229112 0.009117 0.675060
#
# Coordination Sequence:
#
# PCOD9564973 Si02
#       5
#    16  16  16  16  16
#     4   8  16  33  61  89 110 153 212 267 332 392
#     4   8  16  36  62  83 111 155 214 275 327 381
#     4   9  17  32  56  87 124 172 228 276 320 389
#     4  11  23  36  55  89 132 178 223 262 323 405
#     4  11  20  35  58  89 132 175 213 268 334 398
#
# _framework density 24.217123999999998
#
# number of rings (size 3 to 8) (size 9 to 14) (size 15 to 20)
#    0.000    2.600    2.000    2.400    0.000    1.200 
#    0.000   10.000    0.000   26.400    0.000    5.600 
#    0.000    0.800    0.000    1.800    0.000    0.000 
#
# Total GULP energy -445580.164660 kJ/mol
# GULP energy per Si atom -5569.752058 kJ/mol
# Density = 2.416200 g / cm^3
# Si number density = 24.217124 Si / 1000 Ang^3
#
#
#
# Elastic Constant Matrix: (Units=GPa)
#
#
# Indices 1 2 3 4 5 6 
#
# 1 55.5495 25.7955 6.6576 0.0000 0.0000 0.0000
# 2 25.7955 55.5500 6.6575 0.0000 0.0000 0.0000
# 3 6.6576 6.6575 143.8758 0.0000 0.0000 0.0000
# 4 0.0000 0.0000 0.0000 114.8596 0.0000 0.0000
# 5 0.0000 0.0000 0.0000 0.0000 114.8597 0.0000
# 6 0.0000 0.0000 0.0000 0.0000 0.0000 21.2079
#
#
#
# Elastic Compliance Matrix: (Units=1/GPa)
#
#
# Indices 1 2 3 4 5 6 
#
# 1 0.022998 -0.010611 -0.000573 0.000000 0.000000 0.000000
# 2 -0.010611 0.022998 -0.000573 0.000000 0.000000 0.000000
# 3 -0.000573 -0.000573 0.007003 0.000000 0.000000 0.000000
# 4 0.000000 0.000000 0.000000 0.008706 0.000000 0.000000
# 5 0.000000 0.000000 0.000000 0.000000 0.008706 0.000000
# 6 0.000000 0.000000 0.000000 0.000000 0.000000 0.047152
#
#
# Mechanical properties :
#
#
# Convention : Reuss Voigt Hill
#
# Bulk Modulus (GPa) = 33.91561 37.02183 35.46872
# Shear Modulus (GPa) = 33.13308 64.57642 48.85475
#
# Velocity S-wave (km/s) = 3.70289 5.16948 4.49638
# Velocity P-wave (km/s) = 5.68481 7.13806 6.45248
#
# Compressibility (1/GPa) = 0.02948495
#
# Stress axis : x y z
#
# Youngs Moduli (GPa) = 43.48206 43.48247 142.78607
#
# Poissons Ratio (x) = 0.46138 0.08184
# Poissons Ratio (y) = 0.46138 0.08184
# Poissons Ratio (z) = 0.02492 0.02492
#
# Static dielectric constant tensor:
#      x y z
#    x 1.973620 0.000000 0.000000 
#    y 0.000000 1.973620 0.000000 
#    z 0.000000 0.000000 1.939930 
# 
# From -- ./inp_files/3708.got.cif
#   From: 2010.05.17/outbox.cif.g08.bks.cpg/sg128_2_cif.got.tgz:3708.got - 2010.05.20 12:07:25.
