data_PCOD9564148
_publ_section_title
;
Structure prediction by ZEFSAII (Michael W. Deem and Ramdas Pophale) SiO2 
 PCOD9564148
Probable space group: P 4/M B M
;
_chemical_formula_sum "Si O2"
_cell_formula_units_Z 80
_cell_length_a 15.093445
_cell_length_b 15.093445
_cell_length_c 15.859841
_cell_angle_alpha 90.000000
_cell_angle_beta 90.000000
_cell_angle_gamma 90.000000
_cell_volume 3613.063398
_symmetry_space_group_name_H-M "P 4/M B M"
_symmetry_group_IT_number 127
_symmetry_cell_setting 'tetragonal'
loop_
_space_group_symop_operation_xyz
x,y,z
-y,x,z
-x,-y,z
y,-x,z
1/2+x,1/2-y,-z
1/2-x,1/2+y,-z
1/2+y,1/2+x,-z
1/2-y,1/2-x,-z
-x,-y,-z
y,-x,-z
x,y,-z
-y,x,-z
1/2-x,1/2+y,z
1/2+x,1/2-y,z
1/2-y,1/2-x,z
1/2+y,1/2+x,z
loop_
_atom_site_type_symbol
_atom_site_label
_atom_site_fract_x
_atom_site_fract_y
_atom_site_fract_z
Si Si1 0.352145 0.004695 0.223342
Si Si2 0.103573 0.107704 0.769968
Si Si3 0.756129 0.106022 0.095496
Si Si4 0.108082 0.895182 0.589294
Si Si5 0.002814 0.350872 0.408541
O O1 0.402744 0.097257 0.209554
O O2 0.429924 0.929924 0.228538
O O3 0.289712 0.973547 0.148091
O O4 0.307379 0.004422 0.316484
O O5 0.138861 0.161480 0.849005
O O6 0.137563 0.142905 0.679186
O O7 0.997000 0.118093 0.773381
O O8 0.683180 0.183180 0.092604
O O9 0.779911 0.081258 0.000000
O O10 0.144410 0.860573 0.500000
O O11 0.001872 0.881515 0.589498
O O12 0.994887 0.304577 0.500000
O O13 0.094789 0.405212 0.410004
O O14 0.925503 0.425503 0.407304
#
# Coordination Sequence:
#
# PCOD9564148 Si02
#       5
#    16  16  16  16  16
#     4   8  14  26  44  64  88 123 165 201 234 283
#     4   9  18  34  57  81 101 126 164 205 243 289
#     4  10  21  35  49  68  99 135 167 208 262 305
#     4   7  10  20  43  75 104 125 150 189 234 280
#     4   7   9  15  31  56  84 114 150 192 234 276
#
# _framework density 22.141874999999999
#
# number of rings (size 3 to 8) (size 9 to 14) (size 15 to 20)
#    0.000    3.800    0.000    3.600    0.000    1.200 
#    0.000    5.000    0.000    1.800    0.000    0.000 
#    0.000    1.600    0.000    0.000    0.000    0.000 
#
# Total GULP energy -445774.250966 kJ/mol
# GULP energy per Si atom -5572.178137 kJ/mol
# Density = 2.209148 g / cm^3
# Si number density = 22.141875 Si / 1000 Ang^3
#
#
#
# Elastic Constant Matrix: (Units=GPa)
#
#
# Indices 1 2 3 4 5 6 
#
# 1 53.2167 3.6182 27.3182 0.0000 0.0000 0.0000
# 2 3.6182 53.2167 27.3182 0.0000 0.0000 0.0000
# 3 27.3182 27.3182 233.7215 0.0000 0.0000 0.0000
# 4 0.0000 0.0000 0.0000 16.6505 0.0000 0.0000
# 5 0.0000 0.0000 0.0000 0.0000 16.6505 0.0000
# 6 0.0000 0.0000 0.0000 0.0000 0.0000 2.9223
#
#
#
# Elastic Compliance Matrix: (Units=1/GPa)
#
#
# Indices 1 2 3 4 5 6 
#
# 1 0.019992 -0.000170 -0.002317 0.000000 0.000000 0.000000
# 2 -0.000170 0.019992 -0.002317 0.000000 0.000000 0.000000
# 3 -0.002317 -0.002317 0.004820 0.000000 0.000000 0.000000
# 4 0.000000 0.000000 0.000000 0.060058 0.000000 0.000000
# 5 0.000000 0.000000 0.000000 0.000000 0.060058 0.000000
# 6 0.000000 0.000000 0.000000 0.000000 0.000000 0.342197
#
#
# Mechanical properties :
#
#
# Convention : Reuss Voigt Hill
#
# Bulk Modulus (GPa) = 28.41162 50.74047 39.57605
# Shear Modulus (GPa) = 9.46149 26.03799 17.74974
#
# Velocity S-wave (km/s) = 2.06940 3.43295 2.83439
# Velocity P-wave (km/s) = 4.30922 6.21927 5.35017
#
# Compressibility (1/GPa) = 0.03519686
#
# Stress axis : x y z
#
# Youngs Moduli (GPa) = 50.01998 50.01998 207.45990
#
# Poissons Ratio (x) = 0.00850 0.48066
# Poissons Ratio (y) = 0.00850 0.48066
# Poissons Ratio (z) = 0.11589 0.11589
#
# Static dielectric constant tensor:
#      x y z
#    x 1.834750 0.000000 0.000000 
#    y 0.000000 1.834750 0.000000 
#    z 0.000000 0.000000 1.862950 
# 
# From -- ./inp_files/4243.got.cif
#   From: 2010.05.17/outbox.cif.g08.bks.cpg/sg127_3_cif.got.tgz:4243.got - 2010.05.20 12:03:00.
