data_PCOD9564790
_publ_section_title
;
Structure prediction by ZEFSAII (Michael W. Deem and Ramdas Pophale) SiO2 
 PCOD9564790
Probable space group: P 4/M N C
;
_chemical_formula_sum "Si O2"
_cell_formula_units_Z 96
_cell_length_a 24.575790
_cell_length_b 24.575790
_cell_length_c 8.483185
_cell_angle_alpha 90.000000
_cell_angle_beta 90.000000
_cell_angle_gamma 90.000000
_cell_volume 5123.584614
_symmetry_space_group_name_H-M "P 4/M N C"
_symmetry_group_IT_number 128
_symmetry_cell_setting 'tetragonal'
loop_
_space_group_symop_operation_xyz
x,y,z
-y,x,z
-x,-y,z
y,-x,z
1/2+x,1/2-y,1/2-z
1/2-x,1/2+y,1/2-z
1/2+y,1/2+x,1/2-z
1/2-y,1/2-x,1/2-z
-x,-y,-z
y,-x,-z
x,y,-z
-y,x,-z
1/2-x,1/2+y,1/2+z
1/2+x,1/2-y,1/2+z
1/2-y,1/2-x,1/2+z
1/2+y,1/2+x,1/2+z
loop_
_atom_site_type_symbol
_atom_site_label
_atom_site_fract_x
_atom_site_fract_y
_atom_site_fract_z
Si Si1 0.001248 0.414685 0.187792
Si Si2 0.082786 0.030675 0.190274
Si Si3 0.510239 0.206644 0.809044
Si Si4 0.305485 0.278117 0.809590
Si Si5 0.301224 0.571812 0.190632
Si Si6 0.133639 0.283077 0.310086
O O1 0.951723 0.451723 0.250000
O O2 0.056044 0.443957 0.250000
O O3 0.996668 0.353212 0.246959
O O4 0.001797 0.416386 0.000000
O O5 0.139896 0.051666 0.253976
O O6 0.031197 0.067907 0.239246
O O7 0.084398 0.031285 0.000000
O O8 0.468648 0.253294 0.756837
O O9 0.571586 0.221077 0.757807
O O10 0.509270 0.204855 0.000000
O O11 0.276713 0.223288 0.750000
O O12 0.366906 0.287919 0.755765
O O13 0.266733 0.328042 0.757232
O O14 0.305240 0.277037 0.000000
O O15 0.301576 0.571962 0.000000
O O16 0.162214 0.337787 0.250000
O O17 0.134255 0.283652 0.500000
#
# Coordination Sequence:
#
# PCOD9564790 Si02
#       6
#    16  16  16  16  16  16
#     4  11  22  38  60  84 112 149 189 234 283 339
#     4   9  20  39  59  81 113 151 191 238 290 343
#     4  10  21  36  53  81 116 147 181 232 283 332
#     4   9  19  36  55  78 107 144 185 225 272 326
#     4  10  22  36  57  86 116 149 189 235 284 336
#     4   9  18  33  54  76 105 139 177 224 273 320
#
# _framework density 18.736881
#
# number of rings (size 3 to 8) (size 9 to 14) (size 15 to 20)
#    0.000    2.333    0.000    3.000    2.333    4.667 
#    0.000    2.500    0.000    0.000    0.000    0.000 
#    0.000    0.000    0.000    0.000    0.000    0.000 
#
# Total GULP energy -535958.862856 kJ/mol
# GULP energy per Si atom -5582.904821 kJ/mol
# Density = 1.869424 g / cm^3
# Si number density = 18.736881 Si / 1000 Ang^3
#
#
#
# Elastic Constant Matrix: (Units=GPa)
#
#
# Indices 1 2 3 4 5 6 
#
# 1 162.3896 124.7454 27.0110 0.0000 0.0000 0.0000
# 2 124.7454 162.3845 27.0171 0.0000 0.0000 0.0000
# 3 27.0110 27.0171 21.1648 0.0000 0.0000 0.0000
# 4 0.0000 0.0000 0.0000 27.0994 0.0000 0.0000
# 5 0.0000 0.0000 0.0000 0.0000 27.0988 0.0000
# 6 0.0000 0.0000 0.0000 0.0000 0.0000 19.1486
#
#
#
# Elastic Compliance Matrix: (Units=1/GPa)
#
#
# Indices 1 2 3 4 5 6 
#
# 1 0.015574 -0.010991 -0.005845 0.000000 0.000000 0.000000
# 2 -0.010991 0.015576 -0.005856 0.000000 0.000000 0.000000
# 3 -0.005845 -0.005856 0.062182 0.000000 0.000000 0.000000
# 4 0.000000 0.000000 0.000000 0.036901 0.000000 0.000000
# 5 0.000000 0.000000 0.000000 0.000000 0.036902 0.000000
# 6 0.000000 0.000000 0.000000 0.000000 0.000000 0.052223
#
#
# Mechanical properties :
#
#
# Convention : Reuss Voigt Hill
#
# Bulk Modulus (GPa) = 20.85572 78.16510 49.51041
# Shear Modulus (GPa) = 17.81099 25.81370 21.81235
#
# Velocity S-wave (km/s) = 3.08650 3.71576 3.41565
# Velocity P-wave (km/s) = 4.88436 7.75996 6.48359
#
# Compressibility (1/GPa) = 0.04794848
#
# Stress axis : x y z
#
# Youngs Moduli (GPa) = 64.21097 64.20052 16.08170
#
# Poissons Ratio (x) = 0.70565 0.09399
# Poissons Ratio (y) = 0.70577 0.09417
# Poissons Ratio (z) = 0.37530 0.37594
#
# Static dielectric constant tensor:
#      x y z
#    x 1.631070 0.000000 0.000000 
#    y 0.000000 1.631070 0.000000 
#    z 0.000000 0.000000 1.645540 
# 
# From -- ./inp_files/1439.got.cif
#   From: 2010.05.17/outbox.cif.g08.bks.cpg/sg128_1_cif.got.tgz:1439.got - 2010.05.20 12:07:25.
