data_PCOD9564266
_publ_section_title
;
Structure prediction by ZEFSAII (Michael W. Deem and Ramdas Pophale) SiO2 
 PCOD9564266
Probable space group: P 4/M B M
;
_chemical_formula_sum "Si O2"
_cell_formula_units_Z 112
_cell_length_a 14.192562
_cell_length_b 14.192562
_cell_length_c 34.657957
_cell_angle_alpha 90.000000
_cell_angle_beta 90.000000
_cell_angle_gamma 90.000000
_cell_volume 6981.111248
_symmetry_space_group_name_H-M "P 4/M B M"
_symmetry_group_IT_number 127
_symmetry_cell_setting 'tetragonal'
loop_
_space_group_symop_operation_xyz
x,y,z
-y,x,z
-x,-y,z
y,-x,z
1/2+x,1/2-y,-z
1/2-x,1/2+y,-z
1/2+y,1/2+x,-z
1/2-y,1/2-x,-z
-x,-y,-z
y,-x,-z
x,y,-z
-y,x,-z
1/2-x,1/2+y,z
1/2+x,1/2-y,z
1/2-y,1/2-x,z
1/2+y,1/2+x,z
loop_
_atom_site_type_symbol
_atom_site_label
_atom_site_fract_x
_atom_site_fract_y
_atom_site_fract_z
Si Si1 0.100888 0.758674 0.662375
Si Si2 0.060945 0.148069 0.873866
Si Si3 0.899870 0.756399 0.622534
Si Si4 0.257676 0.399121 0.793824
Si Si5 0.742372 0.400073 0.246417
Si Si6 0.061599 0.147737 0.041478
Si Si7 0.939780 0.852620 0.543724
O O1 0.167251 0.667251 0.657444
O O2 0.157802 0.844882 0.643285
O O3 0.088411 0.774885 0.707988
O O4 0.001327 0.745635 0.641861
O O5 0.087538 0.213677 0.838380
O O6 0.079426 0.191198 0.916478
O O7 0.950786 0.118090 0.871156
O O8 0.835466 0.664535 0.627455
O O9 0.911439 0.783030 0.577674
O O10 0.165629 0.334372 0.789948
O O11 0.245692 0.499910 0.773913
O O12 0.342596 0.343222 0.772877
O O13 0.834533 0.334533 0.241566
O O14 0.951552 0.117708 0.041418
O O15 0.081596 0.195346 0.000000
O O16 0.925202 0.817423 0.500000
O O17 0.049529 0.882014 0.547719
#
# Coordination Sequence:
#
# PCOD9564266 Si02
#       7
#    16  16  16  16  16  16  16
#     4  10  22  38  55  79 106 134 172 213 254 306
#     4   9  15  26  45  68  95 126 162 205 256 305
#     4  11  21  35  57  81 107 140 174 211 257 302
#     4  11  21  34  52  73 100 134 171 213 257 303
#     4  10  22  38  54  75 103 133 169 212 256 304
#     4   7  10  17  33  60  91 121 153 192 243 303
#     4   9  17  32  55  81 108 137 171 212 256 301
#
# _framework density 16.043289999999999
#
# number of rings (size 3 to 8) (size 9 to 14) (size 15 to 20)
#    0.000    2.429    2.857    2.571    0.000    3.143 
#    0.000    2.857    0.000    0.857    0.000    1.000 
#    0.000    0.571    0.000    1.286    0.000    0.000 
#
# Total GULP energy -624062.103336 kJ/mol
# GULP energy per Si atom -5571.983065 kJ/mol
# Density = 1.600678 g / cm^3
# Si number density = 16.043290 Si / 1000 Ang^3
#
#
#
# Elastic Constant Matrix: (Units=GPa)
#
#
# Indices 1 2 3 4 5 6 
#
# 1 66.2433 20.3365 52.4392 0.0000 0.0000 0.0000
# 2 20.3365 66.2433 52.4392 0.0000 0.0000 0.0000
# 3 52.4392 52.4392 156.4365 0.0000 0.0000 0.0000
# 4 0.0000 0.0000 0.0000 16.0435 0.0000 0.0000
# 5 0.0000 0.0000 0.0000 0.0000 16.0435 0.0000
# 6 0.0000 0.0000 0.0000 0.0000 0.0000 3.4412
#
#
#
# Elastic Compliance Matrix: (Units=1/GPa)
#
#
# Indices 1 2 3 4 5 6 
#
# 1 0.020615 -0.001168 -0.006519 0.000000 0.000000 0.000000
# 2 -0.001168 0.020615 -0.006519 0.000000 0.000000 0.000000
# 3 -0.006519 -0.006519 0.010763 0.000000 0.000000 0.000000
# 4 0.000000 0.000000 0.000000 0.062331 0.000000 0.000000
# 5 0.000000 0.000000 0.000000 0.000000 0.062331 0.000000
# 6 0.000000 0.000000 0.000000 0.000000 0.000000 0.290592
#
#
# Mechanical properties :
#
#
# Convention : Reuss Voigt Hill
#
# Bulk Modulus (GPa) = 42.40731 59.92810 51.16771
# Shear Modulus (GPa) = 9.93015 18.01953 13.97484
#
# Velocity S-wave (km/s) = 2.49059 3.35503 2.95459
# Velocity P-wave (km/s) = 5.89586 7.24178 6.60320
#
# Compressibility (1/GPa) = 0.02358084
#
# Stress axis : x y z
#
# Youngs Moduli (GPa) = 48.50876 48.50876 92.91427
#
# Poissons Ratio (x) = 0.05668 0.60568
# Poissons Ratio (y) = 0.05668 0.60568
# Poissons Ratio (z) = 0.31621 0.31621
#
# Static dielectric constant tensor:
#      x y z
#    x 1.512050 0.000000 0.000000 
#    y 0.000000 1.512050 0.000000 
#    z 0.000000 0.000000 1.564350 
# 
# From -- ./inp_files/6649.got.cif
#   From: 2010.05.17/outbox.cif.g08.bks.cpg/sg127_4_cif.got.tgz:6649.got - 2010.05.20 12:03:00.
