data_PCOD9564292
_publ_section_title
;
Structure prediction by ZEFSAII (Michael W. Deem and Ramdas Pophale) SiO2 
 PCOD9564292
Probable space group: P 4/M B M
;
_chemical_formula_sum "Si O2"
_cell_formula_units_Z 96
_cell_length_a 14.464080
_cell_length_b 14.464080
_cell_length_c 24.179575
_cell_angle_alpha 90.000000
_cell_angle_beta 90.000000
_cell_angle_gamma 90.000000
_cell_volume 5058.599462
_symmetry_space_group_name_H-M "P 4/M B M"
_symmetry_group_IT_number 127
_symmetry_cell_setting 'tetragonal'
loop_
_space_group_symop_operation_xyz
x,y,z
-y,x,z
-x,-y,z
y,-x,z
1/2+x,1/2-y,-z
1/2-x,1/2+y,-z
1/2+y,1/2+x,-z
1/2-y,1/2-x,-z
-x,-y,-z
y,-x,-z
x,y,-z
-y,x,-z
1/2-x,1/2+y,z
1/2+x,1/2-y,z
1/2-y,1/2-x,z
1/2+y,1/2+x,z
loop_
_atom_site_type_symbol
_atom_site_label
_atom_site_fract_x
_atom_site_fract_y
_atom_site_fract_z
Si Si1 0.101599 0.250096 0.842527
Si Si2 0.987269 0.336244 0.938392
Si Si3 0.746393 0.398780 0.565985
Si Si4 0.848885 0.041034 0.733278
Si Si5 0.742051 0.600542 0.619389
Si Si6 0.679033 0.333831 0.058801
O O1 0.194861 0.305140 0.826055
O O2 0.053220 0.210923 0.788723
O O3 0.122670 0.166758 0.885139
O O4 0.045433 0.316962 0.883857
O O5 0.929482 0.429482 0.933818
O O6 0.913261 0.254064 0.939514
O O7 0.030795 0.335059 0.000000
O O8 0.732297 0.396600 0.500000
O O9 0.839061 0.339061 0.578494
O O10 0.753701 0.504675 0.585849
O O11 0.662113 0.342424 0.594548
O O12 0.786494 0.068173 0.680806
O O13 0.937546 0.109643 0.731834
O O14 0.832278 0.667723 0.618331
O O15 0.737928 0.237928 0.058838
O O16 0.628095 0.341293 0.000000
#
# Coordination Sequence:
#
# PCOD9564292 Si02
#       6
#    16  16  16  16  16  16
#     4  11  21  33  52  79 107 143 189 236 293 364
#     4   9  18  33  52  75 106 142 181 234 299 364
#     4  10  22  40  66 102 138 173 215 262 314 375
#     4  11  23  41  62  84 113 153 205 261 310 363
#     4  11  22  41  66  95 133 176 218 263 317 375
#     4   8  15  29  48  70  98 133 175 225 281 344
#
# _framework density 18.977584
#
# number of rings (size 3 to 8) (size 9 to 14) (size 15 to 20)
#    0.000    2.000    1.667    3.500    0.000    3.000 
#    0.000    4.167    0.000    2.000    0.000    7.000 
#    0.000    0.000    0.000    0.000    0.000    0.000 
#
# Total GULP energy -535214.877325 kJ/mol
# GULP energy per Si atom -5575.154972 kJ/mol
# Density = 1.893439 g / cm^3
# Si number density = 18.977584 Si / 1000 Ang^3
#
#
#
# Elastic Constant Matrix: (Units=GPa)
#
#
# Indices 1 2 3 4 5 6 
#
# 1 95.4593 47.8019 45.0109 0.0000 0.0000 0.0000
# 2 47.8019 95.4593 45.0109 0.0000 0.0000 0.0000
# 3 45.0109 45.0109 138.6430 0.0000 0.0000 0.0000
# 4 0.0000 0.0000 0.0000 556.3484 0.0000 0.0000
# 5 0.0000 0.0000 0.0000 0.0000 556.3484 0.0000
# 6 0.0000 0.0000 0.0000 0.0000 0.0000 34.6885
#
#
#
# Elastic Compliance Matrix: (Units=1/GPa)
#
#
# Indices 1 2 3 4 5 6 
#
# 1 0.014876 -0.006107 -0.002847 0.000000 0.000000 0.000000
# 2 -0.006107 0.014876 -0.002847 0.000000 0.000000 0.000000
# 3 -0.002847 -0.002847 0.009061 0.000000 0.000000 0.000000
# 4 0.000000 0.000000 0.000000 0.001797 0.000000 0.000000
# 5 0.000000 0.000000 0.000000 0.000000 0.001797 0.000000
# 6 0.000000 0.000000 0.000000 0.000000 0.000000 0.028828
#
#
# Mechanical properties :
#
#
# Convention : Reuss Voigt Hill
#
# Bulk Modulus (GPa) = 65.73788 67.24543 66.49166
# Shear Modulus (GPa) = 50.04563 242.25959 146.15261
#
# Velocity S-wave (km/s) = 5.14083 11.31074 8.78524
# Velocity P-wave (km/s) = 8.36376 14.35577 11.74820
#
# Compressibility (1/GPa) = 0.01521193
#
# Stress axis : x y z
#
# Youngs Moduli (GPa) = 67.22168 67.22168 110.35925
#
# Poissons Ratio (x) = 0.41052 0.31419
# Poissons Ratio (y) = 0.41052 0.31419
# Poissons Ratio (z) = 0.19138 0.19138
#
# Static dielectric constant tensor:
#      x y z
#    x 1.675090 0.000000 0.000000 
#    y 0.000000 1.675090 0.000000 
#    z 0.000000 0.000000 1.652200 
# 
# From -- ./inp_files/5771.got.cif
#   From: 2010.05.17/outbox.cif.g08.bks.cpg/sg127_3_cif.got.tgz:5771.got - 2010.05.20 12:03:00.
