data_PCOD9564681
_publ_section_title
;
Structure prediction by ZEFSAII (Michael W. Deem and Ramdas Pophale) SiO2 
 PCOD9564681
Probable space group: P 4/M N C
;
_chemical_formula_sum "Si O2"
_cell_formula_units_Z 96
_cell_length_a 24.079224
_cell_length_b 24.079224
_cell_length_c 10.534723
_cell_angle_alpha 90.000000
_cell_angle_beta 90.000000
_cell_angle_gamma 90.000000
_cell_volume 6108.127508
_symmetry_space_group_name_H-M "P 4/M N C"
_symmetry_group_IT_number 128
_symmetry_cell_setting 'tetragonal'
loop_
_space_group_symop_operation_xyz
x,y,z
-y,x,z
-x,-y,z
y,-x,z
1/2+x,1/2-y,1/2-z
1/2-x,1/2+y,1/2-z
1/2+y,1/2+x,1/2-z
1/2-y,1/2-x,1/2-z
-x,-y,-z
y,-x,-z
x,y,-z
-y,x,-z
1/2-x,1/2+y,1/2+z
1/2+x,1/2-y,1/2+z
1/2-y,1/2-x,1/2+z
1/2+y,1/2+x,1/2+z
loop_
_atom_site_type_symbol
_atom_site_label
_atom_site_fract_x
_atom_site_fract_y
_atom_site_fract_z
Si Si1 0.204621 0.235688 0.500000
Si Si2 0.739622 0.419662 0.220896
Si Si3 0.984755 0.832476 0.354734
Si Si4 0.356382 0.675841 0.221931
Si Si5 0.174764 0.205781 0.000000
Si Si6 0.299728 0.141290 0.500000
Si Si7 0.908204 0.985155 0.866215
Si Si8 0.389779 0.230763 0.500000
O O1 0.169560 0.221411 0.374068
O O2 0.234516 0.295016 0.500000
O O3 0.254590 0.191044 0.500000
O O4 0.723631 0.480661 0.170539
O O5 0.685812 0.377271 0.212393
O O6 0.759021 0.420770 0.366979
O O7 0.785187 0.393282 0.126443
O O8 0.991907 0.848888 0.500000
O O9 0.919593 0.833554 0.321704
O O10 0.015657 0.873276 0.258741
O O11 0.356911 0.695428 0.368224
O O12 0.223166 0.159259 0.000000
O O13 0.359049 0.171203 0.500000
O O14 0.939313 0.044132 0.866538
O O15 0.876231 0.979398 0.000000
#
# Coordination Sequence:
#
# PCOD9564681 Si02
#       8
#     8  16  16  16   8   8  16   8
#     4   9  16  31  50  68  91 114 146 191 231 275
#     4  10  20  32  47  69  92 120 156 191 231 277
#     4  12  23  33  45  64  94 124 152 191 238 281
#     4  10  20  32  47  69  92 120 156 191 231 277
#     4   9  18  31  50  70  87 112 150 195 235 271
#     4   9  16  31  50  68  91 114 146 191 231 275
#     4   9  20  36  50  62  78 110 158 206 243 271
#     4   9  18  31  50  70  87 112 150 195 235 271
#
# _framework density 15.716764
#
# number of rings (size 3 to 8) (size 9 to 14) (size 15 to 20)
#    0.000    2.167    1.667    2.500    2.333    6.000 
#    0.000    0.833    0.000    0.000    0.000    0.000 
#    0.000    0.000    0.000    0.000    0.000   58.333 
#
# Total GULP energy -534882.201585 kJ/mol
# GULP energy per Si atom -5571.689600 kJ/mol
# Density = 1.568099 g / cm^3
# Si number density = 15.716764 Si / 1000 Ang^3
#
#
#
# Elastic Constant Matrix: (Units=GPa)
#
#
# Indices 1 2 3 4 5 6 
#
# 1 22.1591 -1.1180 15.0686 0.0000 0.0000 0.0000
# 2 -1.1180 22.1591 15.0686 0.0000 0.0000 0.0000
# 3 15.0686 15.0686 145.3597 0.0000 0.0000 0.0000
# 4 0.0000 0.0000 0.0000 -27.6810 0.0000 0.0000
# 5 0.0000 0.0000 0.0000 0.0000 -27.6810 0.0000
# 6 0.0000 0.0000 0.0000 0.0000 0.0000 -18.1235
#
#
#
# Elastic Compliance Matrix: (Units=1/GPa)
#
#
# Indices 1 2 3 4 5 6 
#
# 1 0.049387 0.006426 -0.005786 0.000000 0.000000 0.000000
# 2 0.006426 0.049387 -0.005786 0.000000 0.000000 0.000000
# 3 -0.005786 -0.005786 0.008079 0.000000 0.000000 0.000000
# 4 0.000000 0.000000 0.000000 -0.036126 0.000000 0.000000
# 5 0.000000 0.000000 0.000000 0.000000 -0.036126 0.000000
# 6 0.000000 0.000000 0.000000 0.000000 0.000000 -0.055177
#
#
# Mechanical properties :
#
#
# Convention : Reuss Voigt Hill
#
# Bulk Modulus (GPa) = 10.35604 27.52402 18.94003
# Shear Modulus (GPa) = 228.28638 -3.98652 112.14993
#
# Velocity S-wave (km/s) = 12.06506 -1.59436 8.45646
# Velocity P-wave (km/s) = 14.16654 3.76314 10.36465
#
# Compressibility (1/GPa) = 0.09656205
#
# Stress axis : x y z
#
# Youngs Moduli (GPa) = 20.24829 20.24829 123.77700
#
# Poissons Ratio (x) = -0.13012 0.71615
# Poissons Ratio (y) = -0.13012 0.71615
# Poissons Ratio (z) = 0.11715 0.11715
#
# Static dielectric constant tensor:
#      x y z
#    x 1.535910 0.000000 0.000000 
#    y 0.000000 1.535910 0.000000 
#    z 0.000000 0.000000 1.560220 
# 
# From -- ./inp_files/1587.got.cif
#   From: 2010.05.17/outbox.cif.g08.bks.cpg/sg128_1_cif.got.tgz:1587.got - 2010.05.20 12:07:25.
