data_PCOD9564070
_publ_section_title
;
Structure prediction by ZEFSAII (Michael W. Deem and Ramdas Pophale) SiO2 
 PCOD9564070
Probable space group: P 4/M B M
;
_chemical_formula_sum "Si O2"
_cell_formula_units_Z 104
_cell_length_a 16.563301
_cell_length_b 16.563301
_cell_length_c 17.109976
_cell_angle_alpha 90.000000
_cell_angle_beta 90.000000
_cell_angle_gamma 90.000000
_cell_volume 4694.001119
_symmetry_space_group_name_H-M "P 4/M B M"
_symmetry_group_IT_number 127
_symmetry_cell_setting 'tetragonal'
loop_
_space_group_symop_operation_xyz
x,y,z
-y,x,z
-x,-y,z
y,-x,z
1/2+x,1/2-y,-z
1/2-x,1/2+y,-z
1/2+y,1/2+x,-z
1/2-y,1/2-x,-z
-x,-y,-z
y,-x,-z
x,y,-z
-y,x,-z
1/2-x,1/2+y,z
1/2+x,1/2-y,z
1/2-y,1/2-x,z
1/2+y,1/2+x,z
loop_
_atom_site_type_symbol
_atom_site_label
_atom_site_fract_x
_atom_site_fract_y
_atom_site_fract_z
Si Si1 0.068407 0.568407 0.251329
Si Si2 0.783356 0.584178 0.413831
Si Si3 0.323747 0.617410 0.585393
Si Si4 0.131628 0.631628 0.587459
Si Si5 0.600088 0.595325 0.000000
Si Si6 0.386911 0.567060 0.254862
Si Si7 0.192863 0.829514 0.148095
Si Si8 0.190433 0.446351 0.240505
O O1 0.086861 0.586861 0.342337
O O2 0.148481 0.529368 0.214717
O O3 0.000000 0.500000 0.246811
O O4 0.777984 0.543598 0.500000
O O5 0.866854 0.633147 0.414414
O O6 0.710073 0.647419 0.411572
O O7 0.776857 0.542103 0.329156
O O8 0.346102 0.585616 0.500000
O O9 0.227529 0.617910 0.594143
O O10 0.369975 0.572222 0.653591
O O11 0.105993 0.605993 0.500000
O O12 0.502762 0.610186 0.000000
O O13 0.644740 0.636885 0.926517
O O14 0.394861 0.473797 0.233319
O O15 0.320261 0.622565 0.213260
O O16 0.251088 0.751088 0.137376
O O17 0.250041 0.901083 0.181912
O O18 0.118958 0.381043 0.249246
#
# Coordination Sequence:
#
# PCOD9564070 Si02
#       8
#     8  16  16   8   8  16  16  16
#     4  10  22  39  56  85 136 180 222 278 345 411
#     4   9  15  28  52  80 114 164 222 275 327 376
#     4  10  20  35  57  83 121 168 227 294 352 397
#     4  10  22  35  54  86 123 172 236 302 354 398
#     4  11  25  50  82 110 146 180 207 257 328 397
#     4  11  25  42  63  95 136 178 228 283 344 408
#     4  11  23  43  75 108 138 172 219 268 319 396
#     4   9  19  35  58  91 129 177 223 268 326 393
#
# _framework density 22.155937000000002
#
# number of rings (size 3 to 8) (size 9 to 14) (size 15 to 20)
#    0.000    1.923    2.308    1.154    3.231    2.615 
#    0.000    5.385    1.692    0.000    0.000    2.692 
#    0.000    0.000    0.000    0.000    0.000    0.000 
#
# Total GULP energy -580665.864111 kJ/mol
# GULP energy per Si atom -5583.325616 kJ/mol
# Density = 2.210551 g / cm^3
# Si number density = 22.155937 Si / 1000 Ang^3
#
#
#
# Elastic Constant Matrix: (Units=GPa)
#
#
# Indices 1 2 3 4 5 6 
#
# 1 100.2393 46.6110 29.1937 0.0000 0.0000 0.0000
# 2 46.6110 100.2393 29.1937 0.0000 0.0000 0.0000
# 3 29.1937 29.1937 91.5006 0.0000 0.0000 0.0000
# 4 0.0000 0.0000 0.0000 23.7378 0.0000 0.0000
# 5 0.0000 0.0000 0.0000 0.0000 23.7378 0.0000
# 6 0.0000 0.0000 0.0000 0.0000 0.0000 35.4972
#
#
#
# Elastic Compliance Matrix: (Units=1/GPa)
#
#
# Indices 1 2 3 4 5 6 
#
# 1 0.013223 -0.005424 -0.002488 0.000000 0.000000 0.000000
# 2 -0.005424 0.013223 -0.002488 0.000000 0.000000 0.000000
# 3 -0.002488 -0.002488 0.012517 0.000000 0.000000 0.000000
# 4 0.000000 0.000000 0.000000 0.042127 0.000000 0.000000
# 5 0.000000 0.000000 0.000000 0.000000 0.042127 0.000000
# 6 0.000000 0.000000 0.000000 0.000000 0.000000 0.028171
#
#
# Mechanical properties :
#
#
# Convention : Reuss Voigt Hill
#
# Bulk Modulus (GPa) = 55.06160 55.77510 55.41835
# Shear Modulus (GPa) = 28.05166 29.05995 28.55581
#
# Velocity S-wave (km/s) = 3.56209 3.62554 3.59396
# Velocity P-wave (km/s) = 6.46713 6.53870 6.50302
#
# Compressibility (1/GPa) = 0.01816148
#
# Stress axis : x y z
#
# Youngs Moduli (GPa) = 75.62624 75.62624 79.89329
#
# Poissons Ratio (x) = 0.41019 0.19880
# Poissons Ratio (y) = 0.41019 0.19880
# Poissons Ratio (z) = 0.18818 0.18818
#
# Static dielectric constant tensor:
#      x y z
#    x 1.839890 0.000000 0.000000 
#    y 0.000000 1.839890 0.000000 
#    z 0.000000 0.000000 1.824180 
# 
# From -- ./inp_files/5254.got.cif
#   From: 2010.05.17/outbox.cif.g08.bks.cpg/sg127_3_cif.got.tgz:5254.got - 2010.05.20 12:03:00.
