data_PCOD9564046
_publ_section_title
;
Structure prediction by ZEFSAII (Michael W. Deem and Ramdas Pophale) SiO2 
 PCOD9564046
Probable space group: P 4/M B M
;
_chemical_formula_sum "Si O2"
_cell_formula_units_Z 80
_cell_length_a 16.936566
_cell_length_b 16.936566
_cell_length_c 14.997565
_cell_angle_alpha 90.000000
_cell_angle_beta 90.000000
_cell_angle_gamma 90.000000
_cell_volume 4302.010545
_symmetry_space_group_name_H-M "P 4/M B M"
_symmetry_group_IT_number 127
_symmetry_cell_setting 'tetragonal'
loop_
_space_group_symop_operation_xyz
x,y,z
-y,x,z
-x,-y,z
y,-x,z
1/2+x,1/2-y,-z
1/2-x,1/2+y,-z
1/2+y,1/2+x,-z
1/2-y,1/2-x,-z
-x,-y,-z
y,-x,-z
x,y,-z
-y,x,-z
1/2-x,1/2+y,z
1/2+x,1/2-y,z
1/2-y,1/2-x,z
1/2+y,1/2+x,z
loop_
_atom_site_type_symbol
_atom_site_label
_atom_site_fract_x
_atom_site_fract_y
_atom_site_fract_z
Si Si1 0.198356 0.827773 0.254353
Si Si2 0.198131 0.565928 0.773692
Si Si3 0.613199 0.568775 0.603673
Si Si4 0.711660 0.081022 0.103674
Si Si5 0.367439 0.996621 0.599161
O O1 0.269663 0.769663 0.282923
O O2 0.123779 0.772292 0.233165
O O3 0.173054 0.888506 0.330537
O O4 0.226584 0.872478 0.165692
O O5 0.121435 0.621435 0.783272
O O6 0.203235 0.505050 0.854259
O O7 0.187927 0.517700 0.681295
O O8 0.525125 0.604434 0.618212
O O9 0.633487 0.581803 0.500000
O O10 0.629699 0.129699 0.111498
O O11 0.733972 0.079805 0.000000
O O12 0.330715 0.995840 0.500000
O O13 0.415307 0.915307 0.613108
O O14 0.434626 0.065375 0.597544
#
# Coordination Sequence:
#
# PCOD9564046 Si02
#       5
#    16  16  16  16  16
#     4  10  21  36  54  78 110 145 177 215 268 328
#     4  10  20  34  56  83 107 139 185 228 266 321
#     4   9  18  34  57  82 107 139 180 223 262 303
#     4  10  22  39  56  76 106 140 174 222 282 333
#     4   8  14  26  46  74 108 141 170 205 251 302
#
# _framework density 18.595955
#
# number of rings (size 3 to 8) (size 9 to 14) (size 15 to 20)
#    0.000    2.600    0.000    3.000    0.000    3.600 
#    0.000    6.000    0.000    1.200    0.000    4.200 
#    0.000    0.000    0.000    0.000    0.000    0.000 
#
# Total GULP energy -446750.799765 kJ/mol
# GULP energy per Si atom -5584.384997 kJ/mol
# Density = 1.855363 g / cm^3
# Si number density = 18.595955 Si / 1000 Ang^3
#
#
#
# Elastic Constant Matrix: (Units=GPa)
#
#
# Indices 1 2 3 4 5 6 
#
# 1 83.0213 51.5315 68.1670 0.0000 0.0000 0.0000
# 2 51.5315 83.0213 68.1670 0.0000 0.0000 0.0000
# 3 68.1670 68.1670 125.2712 0.0000 0.0000 0.0000
# 4 0.0000 0.0000 0.0000 22.7564 0.0000 0.0000
# 5 0.0000 0.0000 0.0000 0.0000 22.7564 0.0000
# 6 0.0000 0.0000 0.0000 0.0000 0.0000 21.2497
#
#
#
# Elastic Compliance Matrix: (Units=1/GPa)
#
#
# Indices 1 2 3 4 5 6 
#
# 1 0.024161 -0.007595 -0.009014 0.000000 0.000000 0.000000
# 2 -0.007595 0.024161 -0.009014 0.000000 0.000000 0.000000
# 3 -0.009014 -0.009014 0.017793 0.000000 0.000000 0.000000
# 4 0.000000 0.000000 0.000000 0.043944 0.000000 0.000000
# 5 0.000000 0.000000 0.000000 0.000000 0.043944 0.000000
# 6 0.000000 0.000000 0.000000 0.000000 0.000000 0.047060
#
#
# Mechanical properties :
#
#
# Convention : Reuss Voigt Hill
#
# Bulk Modulus (GPa) = 67.26227 74.11609 70.68918
# Shear Modulus (GPa) = 19.43518 20.24905 19.84211
#
# Velocity S-wave (km/s) = 3.23635 3.30342 3.27006
# Velocity P-wave (km/s) = 7.08620 7.38192 7.23557
#
# Compressibility (1/GPa) = 0.01486718
#
# Stress axis : x y z
#
# Youngs Moduli (GPa) = 41.38902 41.38902 56.20178
#
# Poissons Ratio (x) = 0.31436 0.50662
# Poissons Ratio (y) = 0.31436 0.50662
# Poissons Ratio (z) = 0.37309 0.37309
#
# Static dielectric constant tensor:
#      x y z
#    x 1.645680 0.000000 0.000000 
#    y 0.000000 1.645680 0.000000 
#    z 0.000000 0.000000 1.610900 
# 
# From -- ./inp_files/4208.got.cif
#   From: 2010.05.17/outbox.cif.g08.bks.cpg/sg127_3_cif.got.tgz:4208.got - 2010.05.20 12:03:00.
