data_PCOD9564740
_publ_section_title
;
Structure prediction by ZEFSAII (Michael W. Deem and Ramdas Pophale) SiO2 
 PCOD9564740
Probable space group: P 4/M N C
;
_chemical_formula_sum "Si O2"
_cell_formula_units_Z 64
_cell_length_a 20.624218
_cell_length_b 20.624218
_cell_length_c 8.516518
_cell_angle_alpha 90.000000
_cell_angle_beta 90.000000
_cell_angle_gamma 90.000000
_cell_volume 3622.572198
_symmetry_space_group_name_H-M "P 4/M N C"
_symmetry_group_IT_number 128
_symmetry_cell_setting 'tetragonal'
loop_
_space_group_symop_operation_xyz
x,y,z
-y,x,z
-x,-y,z
y,-x,z
1/2+x,1/2-y,1/2-z
1/2-x,1/2+y,1/2-z
1/2+y,1/2+x,1/2-z
1/2-y,1/2-x,1/2-z
-x,-y,-z
y,-x,-z
x,y,-z
-y,x,-z
1/2-x,1/2+y,1/2+z
1/2+x,1/2-y,1/2+z
1/2-y,1/2-x,1/2+z
1/2+y,1/2+x,1/2+z
loop_
_atom_site_type_symbol
_atom_site_label
_atom_site_fract_x
_atom_site_fract_y
_atom_site_fract_z
Si Si1 0.425604 0.320378 0.690501
Si Si2 0.573147 0.823835 0.187096
Si Si3 0.825971 0.571063 0.311485
Si Si4 0.073581 0.177882 0.190829
O O1 0.424277 0.318036 0.500000
O O2 0.411075 0.248551 0.752453
O O3 0.499518 0.337144 0.737961
O O4 0.373931 0.373628 0.745366
O O5 0.624932 0.875069 0.250000
O O6 0.501075 0.839952 0.249103
O O7 0.572893 0.824382 0.000000
O O8 0.877046 0.622955 0.250000
O O9 0.827526 0.569426 0.500000
O O10 0.752050 0.587748 0.261693
O O11 0.074737 0.176437 0.000000
#
# Coordination Sequence:
#
# PCOD9564740 Si02
#       4
#    16  16  16  16
#     4   9  17  33  53  78 108 140 175 215 258 306
#     4  11  22  37  55  77 103 136 173 216 262 310
#     4  10  20  36  55  79 107 138 173 214 258 309
#     4   8  16  30  52  78 108 140 174 213 256 303
#
# _framework density 17.667006000000001
#
# number of rings (size 3 to 8) (size 9 to 14) (size 15 to 20)
#    0.000    2.500    0.000    4.500    0.000    2.000 
#    0.000   13.750    0.000    0.000    0.000    7.000 
#    0.000    0.000    0.000    0.000    0.000    0.000 
#
# Total GULP energy -357048.895838 kJ/mol
# GULP energy per Si atom -5578.888997 kJ/mol
# Density = 1.762680 g / cm^3
# Si number density = 17.667006 Si / 1000 Ang^3
#
#
#
# Elastic Constant Matrix: (Units=GPa)
#
#
# Indices 1 2 3 4 5 6 
#
# 1 168.7489 149.0648 42.4148 0.0000 0.0000 0.0000
# 2 149.0648 168.7347 42.4324 0.0000 0.0000 0.0000
# 3 42.4148 42.4324 61.0696 0.0000 0.0000 0.0000
# 4 0.0000 0.0000 0.0000 21.9855 0.0000 0.0000
# 5 0.0000 0.0000 0.0000 0.0000 21.9855 0.0000
# 6 0.0000 0.0000 0.0000 0.0000 0.0000 46.1878
#
#
#
# Elastic Compliance Matrix: (Units=1/GPa)
#
#
# Indices 1 2 3 4 5 6 
#
# 1 0.027338 -0.023479 -0.002674 0.000000 0.000000 0.000000
# 2 -0.023479 0.027346 -0.002694 0.000000 0.000000 0.000000
# 3 -0.002674 -0.002694 0.020103 0.000000 0.000000 0.000000
# 4 0.000000 0.000000 0.000000 0.045485 0.000000 0.000000
# 5 0.000000 0.000000 0.000000 0.000000 0.045485 0.000000
# 6 0.000000 0.000000 0.000000 0.000000 0.000000 0.021651
#
#
# Mechanical properties :
#
#
# Convention : Reuss Voigt Hill
#
# Bulk Modulus (GPa) = 58.49665 96.26412 77.38038
# Shear Modulus (GPa) = 19.93646 29.00785 24.47215
#
# Velocity S-wave (km/s) = 3.36290 4.05646 3.72585
# Velocity P-wave (km/s) = 6.94704 8.74907 7.89960
#
# Compressibility (1/GPa) = 0.01709500
#
# Stress axis : x y z
#
# Youngs Moduli (GPa) = 36.57909 36.56892 49.74347
#
# Poissons Ratio (x) = 0.85859 0.13299
# Poissons Ratio (y) = 0.85883 0.13398
# Poissons Ratio (z) = 0.09780 0.09850
#
# Static dielectric constant tensor:
#      x y z
#    x 1.584610 0.000000 0.000000 
#    y 0.000000 1.584610 0.000000 
#    z 0.000000 0.000000 1.601190 
# 
# From -- ./inp_files/1023.got.cif
#   From: 2010.05.17/outbox.cif.g08.bks.cpg/sg128_1_cif.got.tgz:1023.got - 2010.05.20 12:07:25.
