data_PCOD9564191
_publ_section_title
;
Structure prediction by ZEFSAII (Michael W. Deem and Ramdas Pophale) SiO2 
 PCOD9564191
Probable space group: P 4/M B M
;
_chemical_formula_sum "Si O2"
_cell_formula_units_Z 98
_cell_length_a 16.608088
_cell_length_b 16.608088
_cell_length_c 22.222259
_cell_angle_alpha 90.000000
_cell_angle_beta 90.000000
_cell_angle_gamma 90.000000
_cell_volume 6129.534300
_symmetry_space_group_name_H-M "P 4/M B M"
_symmetry_group_IT_number 127
_symmetry_cell_setting 'tetragonal'
loop_
_space_group_symop_operation_xyz
x,y,z
-y,x,z
-x,-y,z
y,-x,z
1/2+x,1/2-y,-z
1/2-x,1/2+y,-z
1/2+y,1/2+x,-z
1/2-y,1/2-x,-z
-x,-y,-z
y,-x,-z
x,y,-z
-y,x,-z
1/2-x,1/2+y,z
1/2+x,1/2-y,z
1/2-y,1/2-x,z
1/2+y,1/2+x,z
loop_
_atom_site_type_symbol
_atom_site_label
_atom_site_fract_x
_atom_site_fract_y
_atom_site_fract_z
Si Si1 0.598786 0.352855 0.000000
Si Si2 0.106982 0.264781 0.789730
Si Si3 0.828964 0.535405 0.000000
Si Si4 0.130440 0.960624 0.564436
Si Si5 0.293528 0.664997 0.887824
Si Si6 0.000000 0.000000 0.000000
Si Si7 0.164037 0.534778 0.867100
Si Si8 0.631646 0.539787 0.699359
O O1 0.574693 0.258979 0.000000
O O2 0.650545 0.367114 0.059626
O O3 0.517605 0.403761 0.000000
O O4 0.174063 0.325938 0.763012
O O5 0.153107 0.209468 0.838330
O O6 0.064024 0.202794 0.744395
O O7 0.042448 0.317618 0.826769
O O8 0.838847 0.486630 0.061979
O O9 0.895240 0.604761 0.000000
O O10 0.173793 0.947523 0.500000
O O11 0.165195 0.950146 0.631032
O O12 0.051433 0.904092 0.563704
O O13 0.230985 0.730985 0.913451
O O14 0.239461 0.595052 0.859685
O O15 0.083485 0.583485 0.850982
O O16 0.551749 0.596859 0.706674
#
# Coordination Sequence:
#
# PCOD9564191 Si02
#       8
#     8  16   8  16  16   2  16  16
#     4  12  22  38  53  74  99 125 153 194 247 314
#     4  11  22  35  51  71  98 136 169 199 245 297
#     4  12  23  39  59  74  93 123 160 205 253 300
#     4   7  10  19  40  70 101 129 159 197 240 283
#     4  10  21  37  56  71  92 125 159 196 248 305
#     4  12  28  36  48  80 104 116 148 196 250 300
#     4  11  23  38  55  77  97 121 165 214 251 294
#     4   9  17  31  50  75 103 132 166 204 243 287
#
# _framework density 15.988163999999999
#
# number of rings (size 3 to 8) (size 9 to 14) (size 15 to 20)
#    0.000    1.959    1.633    5.388    0.000    2.939 
#    0.000    0.000    0.000    0.490    0.000    0.000 
#    0.000    1.959    0.000    1.469    0.000    0.000 
#
# Total GULP energy -545668.990719 kJ/mol
# GULP energy per Si atom -5568.050926 kJ/mol
# Density = 1.595177 g / cm^3
# Si number density = 15.988164 Si / 1000 Ang^3
#
#
#
# Elastic Constant Matrix: (Units=GPa)
#
#
# Indices 1 2 3 4 5 6 
#
# 1 58.0723 40.4211 32.9952 0.0000 0.0000 0.0000
# 2 40.4211 58.0741 32.9951 0.0000 0.0000 0.0000
# 3 32.9952 32.9951 88.9271 0.0000 0.0000 0.0000
# 4 0.0000 0.0000 0.0000 28.6678 0.0000 0.0000
# 5 0.0000 0.0000 0.0000 0.0000 28.6647 0.0000
# 6 0.0000 0.0000 0.0000 0.0000 0.0000 26.8121
#
#
#
# Elastic Compliance Matrix: (Units=1/GPa)
#
#
# Indices 1 2 3 4 5 6 
#
# 1 0.035082 -0.021569 -0.005014 0.000000 0.000000 0.000000
# 2 -0.021569 0.035080 -0.005013 0.000000 0.000000 0.000000
# 3 -0.005014 -0.005013 0.014965 0.000000 0.000000 0.000000
# 4 0.000000 0.000000 0.000000 0.034882 0.000000 0.000000
# 5 0.000000 0.000000 0.000000 0.000000 0.034886 0.000000
# 6 0.000000 0.000000 0.000000 0.000000 0.000000 0.037297
#
#
# Mechanical properties :
#
#
# Convention : Reuss Voigt Hill
#
# Bulk Modulus (GPa) = 45.58805 46.43291 46.01048
# Shear Modulus (GPa) = 19.03335 23.40641 21.21988
#
# Velocity S-wave (km/s) = 3.45405 3.83035 3.64706
# Velocity P-wave (km/s) = 6.66955 6.97619 6.82459
#
# Compressibility (1/GPa) = 0.02193557
#
# Stress axis : x y z
#
# Youngs Moduli (GPa) = 28.50475 28.50588 66.82065
#
# Poissons Ratio (x) = 0.61485 0.33501
# Poissons Ratio (y) = 0.61483 0.33498
# Poissons Ratio (z) = 0.14291 0.14290
#
# Static dielectric constant tensor:
#      x y z
#    x 1.541540 0.000000 0.000000 
#    y 0.000000 1.541540 0.000000 
#    z 0.000000 0.000000 1.561840 
# 
# From -- ./inp_files/6153.got.cif
#   From: 2010.05.17/outbox.cif.g08.bks.cpg/sg127_4_cif.got.tgz:6153.got - 2010.05.20 12:03:00.
