data_PCOD9564390
_publ_section_title
;
Structure prediction by ZEFSAII (Michael W. Deem and Ramdas Pophale) SiO2 
 PCOD9564390
Probable space group: P 4/M B M
;
_chemical_formula_sum "Si O2"
_cell_formula_units_Z 88
_cell_length_a 14.192412
_cell_length_b 14.192412
_cell_length_c 24.745130
_cell_angle_alpha 90.000000
_cell_angle_beta 90.000000
_cell_angle_gamma 90.000000
_cell_volume 4984.276882
_symmetry_space_group_name_H-M "P 4/M B M"
_symmetry_group_IT_number 127
_symmetry_cell_setting 'tetragonal'
loop_
_space_group_symop_operation_xyz
x,y,z
-y,x,z
-x,-y,z
y,-x,z
1/2+x,1/2-y,-z
1/2-x,1/2+y,-z
1/2+y,1/2+x,-z
1/2-y,1/2-x,-z
-x,-y,-z
y,-x,-z
x,y,-z
-y,x,-z
1/2-x,1/2+y,z
1/2+x,1/2-y,z
1/2-y,1/2-x,z
1/2+y,1/2+x,z
loop_
_atom_site_type_symbol
_atom_site_label
_atom_site_fract_x
_atom_site_fract_y
_atom_site_fract_z
Si Si1 0.923568 0.423568 0.934437
Si Si2 0.150351 0.052365 0.561308
Si Si3 0.741294 0.603363 0.272611
Si Si4 0.434170 0.772527 0.062712
Si Si5 0.754421 0.901852 0.671085
Si Si6 0.642228 0.568743 0.838527
O O1 0.822793 0.466974 0.919947
O O2 0.000000 0.500000 0.914851
O O3 0.925833 0.425833 0.000000
O O4 0.185947 0.064974 0.500000
O O5 0.221546 0.078073 0.608594
O O6 0.055614 0.115208 0.566997
O O7 0.835483 0.664518 0.278309
O O8 0.752102 0.499985 0.297395
O O9 0.658935 0.659552 0.304095
O O10 0.710081 0.597561 0.210310
O O11 0.353543 0.853543 0.064917
O O12 0.411747 0.690356 0.104044
O O13 0.441249 0.742864 0.000000
O O14 0.661609 0.838392 0.676860
O O15 0.542459 0.620748 0.833775
#
# Coordination Sequence:
#
# PCOD9564390 Si02
#       6
#     8  16  16  16  16  16
#     4   7  12  28  54  78 102 138 176 211 266 332
#     4   9  17  31  56  89 121 157 202 248 291 340
#     4  11  23  41  62  86 117 153 197 246 293 356
#     4   9  18  36  59  82 111 145 183 229 279 336
#     4  11  22  37  63  90 116 160 202 241 298 350
#     4  11  23  39  59  81 111 149 186 232 287 348
#
# _framework density 17.655519000000002
#
# number of rings (size 3 to 8) (size 9 to 14) (size 15 to 20)
#    0.000    2.091    3.636    2.182    0.000    1.818 
#    4.909    0.909    0.000    0.545    0.000    1.273 
#    0.000    0.000    0.000    0.000    0.000    0.000 
#
# Total GULP energy -490868.354168 kJ/mol
# GULP energy per Si atom -5578.049479 kJ/mol
# Density = 1.761533 g / cm^3
# Si number density = 17.655519 Si / 1000 Ang^3
#
#
#
# Elastic Constant Matrix: (Units=GPa)
#
#
# Indices 1 2 3 4 5 6 
#
# 1 73.5706 39.4669 35.2526 0.0000 0.0000 0.0000
# 2 39.4669 73.5706 35.2526 0.0000 0.0000 0.0000
# 3 35.2526 35.2526 101.4146 0.0000 0.0000 0.0000
# 4 0.0000 0.0000 0.0000 25.5599 0.0000 0.0000
# 5 0.0000 0.0000 0.0000 0.0000 25.5599 0.0000
# 6 0.0000 0.0000 0.0000 0.0000 0.0000 5.1043
#
#
#
# Elastic Compliance Matrix: (Units=1/GPa)
#
#
# Indices 1 2 3 4 5 6 
#
# 1 0.020309 -0.009013 -0.003926 0.000000 0.000000 0.000000
# 2 -0.009013 0.020309 -0.003926 0.000000 0.000000 0.000000
# 3 -0.003926 -0.003926 0.012590 0.000000 0.000000 0.000000
# 4 0.000000 0.000000 0.000000 0.039124 0.000000 0.000000
# 5 0.000000 0.000000 0.000000 0.000000 0.039124 0.000000
# 6 0.000000 0.000000 0.000000 0.000000 0.000000 0.195912
#
#
# Mechanical properties :
#
#
# Convention : Reuss Voigt Hill
#
# Bulk Modulus (GPa) = 51.34593 52.05555 51.70074
# Shear Modulus (GPa) = 13.60204 20.48375 17.04289
#
# Velocity S-wave (km/s) = 2.77864 3.40985 3.11030
# Velocity P-wave (km/s) = 6.28010 6.71199 6.49963
#
# Compressibility (1/GPa) = 0.01947574
#
# Stress axis : x y z
#
# Youngs Moduli (GPa) = 49.23915 49.23915 79.42645
#
# Poissons Ratio (x) = 0.44381 0.31187
# Poissons Ratio (y) = 0.44381 0.31187
# Poissons Ratio (z) = 0.19334 0.19334
#
# Static dielectric constant tensor:
#      x y z
#    x 1.602070 0.000000 0.000000 
#    y 0.000000 1.602070 0.000000 
#    z 0.000000 0.000000 1.585510 
# 
# From -- ./inp_files/5706.got.cif
#   From: 2010.05.17/outbox.cif.g08.bks.cpg/sg127_3_cif.got.tgz:5706.got - 2010.05.20 12:03:00.
