data_PCOD9564475
_publ_section_title
;
Structure prediction by ZEFSAII (Michael W. Deem and Ramdas Pophale) SiO2 
 PCOD9564475
Probable space group: P 4/M B M
;
_chemical_formula_sum "Si O2"
_cell_formula_units_Z 112
_cell_length_a 25.268179
_cell_length_b 25.268179
_cell_length_c 7.283037
_cell_angle_alpha 90.000000
_cell_angle_beta 90.000000
_cell_angle_gamma 90.000000
_cell_volume 4650.079800
_symmetry_space_group_name_H-M "P 4/M B M"
_symmetry_group_IT_number 127
_symmetry_cell_setting 'tetragonal'
loop_
_space_group_symop_operation_xyz
x,y,z
-y,x,z
-x,-y,z
y,-x,z
1/2+x,1/2-y,-z
1/2-x,1/2+y,-z
1/2+y,1/2+x,-z
1/2-y,1/2-x,-z
-x,-y,-z
y,-x,-z
x,y,-z
-y,x,-z
1/2-x,1/2+y,z
1/2+x,1/2-y,z
1/2-y,1/2-x,z
1/2+y,1/2+x,z
loop_
_atom_site_type_symbol
_atom_site_label
_atom_site_fract_x
_atom_site_fract_y
_atom_site_fract_z
Si Si1 0.213810 0.572989 0.277476
Si Si2 0.266303 0.683004 0.276330
Si Si3 0.880874 0.849296 0.724618
Si Si4 0.970015 0.773080 0.708221
Si Si5 0.521182 0.897380 0.787207
Si Si6 0.069999 0.047832 0.277313
Si Si7 0.581528 0.163239 0.222753
O O1 0.213892 0.571180 0.500000
O O2 0.234458 0.630170 0.221314
O O3 0.252141 0.525330 0.212297
O O4 0.154198 0.559079 0.220580
O O5 0.266661 0.683078 0.500000
O O6 0.234676 0.734676 0.216284
O O7 0.326641 0.677410 0.215457
O O8 0.881378 0.847312 0.500000
O O9 0.933060 0.818370 0.788941
O O10 0.885403 0.910768 0.778315
O O11 0.982591 0.790314 0.500000
O O12 0.932868 0.720904 0.705789
O O13 0.552859 0.947142 0.707294
O O14 0.465515 0.876143 0.713552
O O15 0.510947 0.909955 0.000000
O O16 0.070471 0.046416 0.500000
O O17 0.012877 0.070966 0.219481
O O18 0.637131 0.137131 0.274196
O O19 0.579081 0.166131 0.000000
#
# Coordination Sequence:
#
# PCOD9564475 Si02
#       7
#    16  16  16  16  16  16  16
#     4   9  17  29  46  65  88 119 153 187 223 269
#     4   9  17  27  39  58  84 117 154 187 222 267
#     4   9  17  26  40  62  90 121 151 188 229 271
#     4   9  18  30  45  68  91 115 150 190 229 265
#     4   9  17  29  46  68  91 114 144 186 232 273
#     4   8  14  23  36  57  87 122 153 182 225 278
#     4   9  18  32  48  65  87 118 152 184 224 274
#
# _framework density 24.085607
#
# number of rings (size 3 to 8) (size 9 to 14) (size 15 to 20)
#    0.000    3.143    0.000    0.857    2.000    2.000 
#    0.000    2.857    0.000    0.857    0.000    6.000 
#    0.000    0.000    0.000    1.571    0.000    1.429 
#
# Total GULP energy -625577.717583 kJ/mol
# GULP energy per Si atom -5585.515336 kJ/mol
# Density = 2.403079 g / cm^3
# Si number density = 24.085607 Si / 1000 Ang^3
#
#
#
# Elastic Constant Matrix: (Units=GPa)
#
#
# Indices 1 2 3 4 5 6 
#
# 1 46.7137 70.4156 -4.4819 0.0000 0.0000 0.0000
# 2 70.4156 46.7137 -4.4819 0.0000 0.0000 0.0000
# 3 -4.4819 -4.4819 105.4105 0.0000 0.0000 0.0000
# 4 0.0000 0.0000 0.0000 -0.1088 0.0000 0.0000
# 5 0.0000 0.0000 0.0000 0.0000 -0.1088 0.0000
# 6 0.0000 0.0000 0.0000 0.0000 0.0000 34.4699
#
#
#
# Elastic Compliance Matrix: (Units=1/GPa)
#
#
# Indices 1 2 3 4 5 6 
#
# 1 -0.016813 0.025378 0.000364 0.000000 0.000000 0.000000
# 2 0.025378 -0.016813 0.000364 0.000000 0.000000 0.000000
# 3 0.000364 0.000364 0.009518 0.000000 0.000000 0.000000
# 4 0.000000 0.000000 0.000000 -9.189878 0.000000 0.000000
# 5 0.000000 0.000000 0.000000 0.000000 -9.189878 0.000000
# 6 0.000000 0.000000 0.000000 0.000000 0.000000 0.029011
#
#
# Mechanical properties :
#
#
# Convention : Reuss Voigt Hill
#
# Bulk Modulus (GPa) = 35.58040 35.74903 35.66471
# Shear Modulus (GPa) = -0.27148 16.00954 7.86903
#
# Velocity S-wave (km/s) = -0.33609 2.58096 1.80948
# Velocity P-wave (km/s) = 3.82805 4.87407 4.38238
#
# Compressibility (1/GPa) = 0.02810536
#
# Stress axis : x y z
#
# Youngs Moduli (GPa) = -59.47887 -59.47887 105.06748
#
# Poissons Ratio (x) = 1.50946 -0.03826
# Poissons Ratio (y) = 1.50946 -0.03826
# Poissons Ratio (z) = 0.02166 0.02166
#
# Static dielectric constant tensor:
#      x y z
#    x 1.884450 0.000000 0.000000 
#    y 0.000000 1.884450 0.000000 
#    z 0.000000 0.000000 1.949520 
# 
# From -- ./inp_files/3771.got.cif
#   From: 2010.05.17/outbox.cif.g08.bks.cpg/sg127_2_cif.got.tgz:3771.got - 2010.05.20 12:03:00.
