data_PCOD9564448
_publ_section_title
;
Structure prediction by ZEFSAII (Michael W. Deem and Ramdas Pophale) SiO2 
 PCOD9564448
Probable space group: P 4/M B M
;
_chemical_formula_sum "Si O2"
_cell_formula_units_Z 40
_cell_length_a 15.207372
_cell_length_b 15.207372
_cell_length_c 7.626186
_cell_angle_alpha 90.000000
_cell_angle_beta 90.000000
_cell_angle_gamma 90.000000
_cell_volume 1763.663523
_symmetry_space_group_name_H-M "P 4/M B M"
_symmetry_group_IT_number 127
_symmetry_cell_setting 'tetragonal'
loop_
_space_group_symop_operation_xyz
x,y,z
-y,x,z
-x,-y,z
y,-x,z
1/2+x,1/2-y,-z
1/2-x,1/2+y,-z
1/2+y,1/2+x,-z
1/2-y,1/2-x,-z
-x,-y,-z
y,-x,-z
x,y,-z
-y,x,-z
1/2-x,1/2+y,z
1/2+x,1/2-y,z
1/2-y,1/2-x,z
1/2+y,1/2+x,z
loop_
_atom_site_type_symbol
_atom_site_label
_atom_site_fract_x
_atom_site_fract_y
_atom_site_fract_z
Si Si1 0.385690 0.592599 0.000000
Si Si2 0.630500 0.280144 0.296701
Si Si3 0.992864 0.359675 0.287771
O O1 0.383539 0.488968 0.000000
O O2 0.347772 0.639179 0.172241
O O3 0.620482 0.306392 0.500000
O O4 0.707601 0.207601 0.288423
O O5 0.541358 0.229700 0.234894
O O6 0.987819 0.354591 0.500000
O O7 0.064904 0.435097 0.246516
O O8 0.899410 0.399410 0.225352
#
# Coordination Sequence:
#
# PCOD9564448 Si02
#       3
#     8  16  16
#     4  11  25  42  58  79 113 159 206 243 272 323
#     4   9  18  36  63  89 114 147 187 240 304 355
#     4   7  10  20  43  76 110 140 170 209 267 341
#
# _framework density 22.680064000000002
#
# number of rings (size 3 to 8) (size 9 to 14) (size 15 to 20)
#    0.000    3.400    0.000    4.200    0.000    1.600 
#    0.000    7.000    0.000    9.600    0.000    0.000 
#    0.000    0.000    0.000    0.000    0.000    0.000 
#
# Total GULP energy -223024.738602 kJ/mol
# GULP energy per Si atom -5575.618465 kJ/mol
# Density = 2.262844 g / cm^3
# Si number density = 22.680064 Si / 1000 Ang^3
#
#
#
# Elastic Constant Matrix: (Units=GPa)
#
#
# Indices 1 2 3 4 5 6 
#
# 1 62.8506 -17.4615 25.1823 0.0000 0.0000 0.0000
# 2 -17.4615 62.8506 25.1823 0.0000 0.0000 0.0000
# 3 25.1823 25.1823 75.9362 0.0000 0.0000 0.0000
# 4 0.0000 0.0000 0.0000 20.9751 0.0000 0.0000
# 5 0.0000 0.0000 0.0000 0.0000 20.9751 0.0000
# 6 0.0000 0.0000 0.0000 0.0000 0.0000 15.3940
#
#
#
# Elastic Compliance Matrix: (Units=1/GPa)
#
#
# Indices 1 2 3 4 5 6 
#
# 1 0.023655 0.011204 -0.011560 0.000000 0.000000 0.000000
# 2 0.011204 0.023655 -0.011560 0.000000 0.000000 0.000000
# 3 -0.011560 -0.011560 0.020836 0.000000 0.000000 0.000000
# 4 0.000000 0.000000 0.000000 0.047675 0.000000 0.000000
# 5 0.000000 0.000000 0.000000 0.000000 0.047675 0.000000
# 6 0.000000 0.000000 0.000000 0.000000 0.000000 0.064960
#
#
# Mechanical properties :
#
#
# Convention : Reuss Voigt Hill
#
# Bulk Modulus (GPa) = 22.56637 29.71599 26.14118
# Shear Modulus (GPa) = 18.72224 22.71781 20.72003
#
# Velocity S-wave (km/s) = 2.87626 3.16834 3.02583
# Velocity P-wave (km/s) = 4.58279 5.14929 4.87428
#
# Compressibility (1/GPa) = 0.04431374
#
# Stress axis : x y z
#
# Youngs Moduli (GPa) = 42.27399 42.27399 47.99342
#
# Poissons Ratio (x) = -0.47363 0.55481
# Poissons Ratio (y) = -0.47363 0.55481
# Poissons Ratio (z) = 0.48869 0.48869
#
# Static dielectric constant tensor:
#      x y z
#    x 1.872560 0.000000 0.000000 
#    y 0.000000 1.872560 0.000000 
#    z 0.000000 0.000000 1.814610 
# 
# From -- ./inp_files/603.got.cif
#   From: 2010.05.17/outbox.cif.g08.bks.cpg/sg127_1_cif.got.tgz:603.got - 2010.05.20 12:03:00.
