data_PCOD9564666
_publ_section_title
;
Structure prediction by ZEFSAII (Michael W. Deem and Ramdas Pophale) SiO2 
 PCOD9564666
Probable space group: P 4/M N C
;
_chemical_formula_sum "Si O2"
_cell_formula_units_Z 72
_cell_length_a 21.206091
_cell_length_b 21.206091
_cell_length_c 7.903167
_cell_angle_alpha 90.000000
_cell_angle_beta 90.000000
_cell_angle_gamma 90.000000
_cell_volume 3554.040729
_symmetry_space_group_name_H-M "P 4/M N C"
_symmetry_group_IT_number 128
_symmetry_cell_setting 'tetragonal'
loop_
_space_group_symop_operation_xyz
x,y,z
-y,x,z
-x,-y,z
y,-x,z
1/2+x,1/2-y,1/2-z
1/2-x,1/2+y,1/2-z
1/2+y,1/2+x,1/2-z
1/2-y,1/2-x,1/2-z
-x,-y,-z
y,-x,-z
x,y,-z
-y,x,-z
1/2-x,1/2+y,1/2+z
1/2+x,1/2-y,1/2+z
1/2-y,1/2-x,1/2+z
1/2+y,1/2+x,1/2+z
loop_
_atom_site_type_symbol
_atom_site_label
_atom_site_fract_x
_atom_site_fract_y
_atom_site_fract_z
Si Si1 0.188204 0.585094 0.203533
Si Si2 0.445773 0.846483 0.202853
Si Si3 0.169082 0.100976 0.811095
Si Si4 0.344187 0.743143 0.203409
Si Si5 0.540818 0.597565 0.000000
O O1 0.139958 0.639958 0.250000
O O2 0.161373 0.517235 0.260708
O O3 0.255935 0.595880 0.286071
O O4 0.196609 0.584160 0.000000
O O5 0.411123 0.911123 0.250000
O O6 0.400691 0.789227 0.262367
O O7 0.446180 0.842755 0.000000
O O8 0.151984 0.174301 0.782343
O O9 0.136480 0.059832 0.665984
O O10 0.151135 0.081178 0.000000
O O11 0.279762 0.779762 0.250000
O O12 0.346961 0.736573 0.000000
O O13 0.467494 0.579938 0.000000
#
# Coordination Sequence:
#
# PCOD9564666 Si02
#       5
#    16  16  16  16   8
#     4  11  23  41  62  93 135 178 225 282 338 395
#     4   9  21  38  62  89 127 175 221 275 335 393
#     4  12  25  42  71 102 130 176 223 273 333 401
#     4  10  19  36  60  92 132 172 222 285 339 394
#     4  11  28  52  74 100 138 173 213 275 333 399
#
# _framework density 20.258631000000001
#
# number of rings (size 3 to 8) (size 9 to 14) (size 15 to 20)
#    0.000    1.444    2.222    2.000    3.111    4.000 
#    0.000    3.333    0.000    0.000    0.000    0.000 
#    0.000    0.000    0.000    0.000    0.000    0.000 
#
# Total GULP energy -402751.176861 kJ/mol
# GULP energy per Si atom -5593.766345 kJ/mol
# Density = 2.021252 g / cm^3
# Si number density = 20.258631 Si / 1000 Ang^3
#
#
#
# Elastic Constant Matrix: (Units=GPa)
#
#
# Indices 1 2 3 4 5 6 
#
# 1 99.6193 53.4295 31.8696 0.0000 0.0000 0.0000
# 2 53.4295 99.6193 31.8696 0.0000 0.0000 0.0000
# 3 31.8696 31.8696 111.3972 0.0000 0.0000 0.0000
# 4 0.0000 0.0000 0.0000 20.3779 0.0000 0.0000
# 5 0.0000 0.0000 0.0000 0.0000 20.3779 0.0000
# 6 0.0000 0.0000 0.0000 0.0000 0.0000 17.8120
#
#
#
# Elastic Compliance Matrix: (Units=1/GPa)
#
#
# Indices 1 2 3 4 5 6 
#
# 1 0.014534 -0.007116 -0.002122 0.000000 0.000000 0.000000
# 2 -0.007116 0.014534 -0.002122 0.000000 0.000000 0.000000
# 3 -0.002122 -0.002122 0.010191 0.000000 0.000000 0.000000
# 4 0.000000 0.000000 0.000000 0.049073 0.000000 0.000000
# 5 0.000000 0.000000 0.000000 0.000000 0.049073 0.000000
# 6 0.000000 0.000000 0.000000 0.000000 0.000000 0.056142
#
#
# Mechanical properties :
#
#
# Convention : Reuss Voigt Hill
#
# Bulk Modulus (GPa) = 60.46697 60.55258 60.50977
# Shear Modulus (GPa) = 22.54492 24.61135 23.57814
#
# Velocity S-wave (km/s) = 3.33957 3.48926 3.41524
# Velocity P-wave (km/s) = 6.69198 6.79617 6.74428
#
# Compressibility (1/GPa) = 0.01653796
#
# Stress axis : x y z
#
# Youngs Moduli (GPa) = 68.80540 68.80540 98.12463
#
# Poissons Ratio (x) = 0.48963 0.20823
# Poissons Ratio (y) = 0.48963 0.20823
# Poissons Ratio (z) = 0.14601 0.14601
#
# Static dielectric constant tensor:
#      x y z
#    x 1.694590 0.000000 0.000000 
#    y 0.000000 1.694590 0.000000 
#    z 0.000000 0.000000 1.720670 
# 
# From -- ./inp_files/1191.got.cif
#   From: 2010.05.17/outbox.cif.g08.bks.cpg/sg128_1_cif.got.tgz:1191.got - 2010.05.20 12:07:25.
