data_PCOD9564990
_publ_section_title
;
Structure prediction by ZEFSAII (Michael W. Deem and Ramdas Pophale) SiO2 
 PCOD9564990
Probable space group: P 4/M N C
;
_chemical_formula_sum "Si O2"
_cell_formula_units_Z 88
_cell_length_a 12.323829
_cell_length_b 12.323829
_cell_length_c 28.602485
_cell_angle_alpha 90.000000
_cell_angle_beta 90.000000
_cell_angle_gamma 90.000000
_cell_volume 4344.052785
_symmetry_space_group_name_H-M "P 4/M N C"
_symmetry_group_IT_number 128
_symmetry_cell_setting 'tetragonal'
loop_
_space_group_symop_operation_xyz
x,y,z
-y,x,z
-x,-y,z
y,-x,z
1/2+x,1/2-y,1/2-z
1/2-x,1/2+y,1/2-z
1/2+y,1/2+x,1/2-z
1/2-y,1/2-x,1/2-z
-x,-y,-z
y,-x,-z
x,y,-z
-y,x,-z
1/2-x,1/2+y,1/2+z
1/2+x,1/2-y,1/2+z
1/2-y,1/2-x,1/2+z
1/2+y,1/2+x,1/2+z
loop_
_atom_site_type_symbol
_atom_site_label
_atom_site_fract_x
_atom_site_fract_y
_atom_site_fract_z
Si Si1 0.426273 0.334024 0.000000
Si Si2 0.462855 0.680600 0.268377
Si Si3 0.943796 0.825976 0.868745
Si Si4 0.836929 0.536914 0.446306
Si Si5 0.958944 0.327437 0.578793
Si Si6 0.315543 0.485591 0.166156
O O1 0.553738 0.363325 0.000000
O O2 0.406280 0.264178 0.046161
O O3 0.377828 0.580562 0.268397
O O4 0.438204 0.734871 0.318330
O O5 0.464612 0.735511 0.217667
O O6 0.916772 0.756793 0.913949
O O7 0.067077 0.869769 0.869913
O O8 0.807313 0.512325 0.500000
O O9 0.876834 0.428181 0.419601
O O10 0.936906 0.620025 0.446470
O O11 0.000996 0.274065 0.626416
O O12 0.404235 0.388613 0.161849
#
# Coordination Sequence:
#
# PCOD9564990 Si02
#       6
#     8  16  16  16  16  16
#     4  11  22  35  56  84 110 135 170 217 266 320
#     4   7  12  28  53  79 110 141 166 210 276 327
#     4   9  19  36  58  83 106 133 181 236 274 313
#     4  11  23  41  56  70 102 153 192 221 269 317
#     4  11  21  39  54  74 109 147 181 217 261 322
#     4   9  17  31  56  88 115 139 171 214 269 333
#
# _framework density 20.257580999999998
#
# number of rings (size 3 to 8) (size 9 to 14) (size 15 to 20)
#    0.000    2.455    1.818    3.818    0.000    5.091 
#    0.000    2.727    0.000    8.727    0.000    0.000 
#    0.000    0.000    0.000    0.000    0.000    0.000 
#
# Total GULP energy -490250.746971 kJ/mol
# GULP energy per Si atom -5571.031216 kJ/mol
# Density = 2.021147 g / cm^3
# Si number density = 20.257581 Si / 1000 Ang^3
#
#
#
# Elastic Constant Matrix: (Units=GPa)
#
#
# Indices 1 2 3 4 5 6 
#
# 1 36.2735 -18.1973 12.5482 0.0000 0.0000 0.0000
# 2 -18.1973 36.2735 12.5482 0.0000 0.0000 0.0000
# 3 12.5482 12.5482 113.5557 0.0000 0.0000 0.0000
# 4 0.0000 0.0000 0.0000 -100.9272 0.0000 0.0000
# 5 0.0000 0.0000 0.0000 0.0000 -100.9272 0.0000
# 6 0.0000 0.0000 0.0000 0.0000 0.0000 34.7712
#
#
#
# Elastic Compliance Matrix: (Units=1/GPa)
#
#
# Indices 1 2 3 4 5 6 
#
# 1 0.041852 0.023494 -0.007221 0.000000 0.000000 0.000000
# 2 0.023494 0.041852 -0.007221 0.000000 0.000000 0.000000
# 3 -0.007221 -0.007221 0.010402 0.000000 0.000000 0.000000
# 4 0.000000 0.000000 0.000000 -0.009908 0.000000 0.000000
# 5 0.000000 0.000000 0.000000 0.000000 -0.009908 0.000000
# 6 0.000000 0.000000 0.000000 0.000000 0.000000 0.028759
#
#
# Mechanical properties :
#
#
# Convention : Reuss Voigt Hill
#
# Bulk Modulus (GPa) = 8.91175 22.21121 15.56148
# Shear Modulus (GPa) = 40.86645 -21.46973 9.69836
#
# Velocity S-wave (km/s) = 4.49635 -3.25905 2.19041
# Velocity P-wave (km/s) = 5.60045 1.78147 3.75442
#
# Compressibility (1/GPa) = 0.11221139
#
# Stress axis : x y z
#
# Youngs Moduli (GPa) = 23.89344 23.89344 96.13429
#
# Poissons Ratio (x) = -0.56135 0.69418
# Poissons Ratio (y) = -0.56135 0.69418
# Poissons Ratio (z) = 0.17253 0.17253
#
# Static dielectric constant tensor:
#      x y z
#    x 1.704420 0.000000 0.000000 
#    y 0.000000 1.704420 0.000000 
#    z 0.000000 0.000000 1.775330 
# 
# From -- ./inp_files/7274.got.cif
#   From: 2010.05.17/outbox.cif.g08.bks.cpg/sg128_4_cif.got.tgz:7274.got - 2010.05.20 12:07:25.
