data_PCOD9564471
_publ_section_title
;
Structure prediction by ZEFSAII (Michael W. Deem and Ramdas Pophale) SiO2 
 PCOD9564471
Probable space group: P 4/M B M
;
_chemical_formula_sum "Si O2"
_cell_formula_units_Z 80
_cell_length_a 16.904884
_cell_length_b 16.904884
_cell_length_c 14.407992
_cell_angle_alpha 90.000000
_cell_angle_beta 90.000000
_cell_angle_gamma 90.000000
_cell_volume 4117.445399
_symmetry_space_group_name_H-M "P 4/M B M"
_symmetry_group_IT_number 127
_symmetry_cell_setting 'tetragonal'
loop_
_space_group_symop_operation_xyz
x,y,z
-y,x,z
-x,-y,z
y,-x,z
1/2+x,1/2-y,-z
1/2-x,1/2+y,-z
1/2+y,1/2+x,-z
1/2-y,1/2-x,-z
-x,-y,-z
y,-x,-z
x,y,-z
-y,x,-z
1/2-x,1/2+y,z
1/2+x,1/2-y,z
1/2-y,1/2-x,z
1/2+y,1/2+x,z
loop_
_atom_site_type_symbol
_atom_site_label
_atom_site_fract_x
_atom_site_fract_y
_atom_site_fract_z
Si Si1 0.614838 0.434690 0.107506
Si Si2 0.239125 0.397017 0.395154
Si Si3 0.822301 0.806640 0.219962
Si Si4 0.938841 0.692640 0.896382
Si Si5 0.368642 0.005711 0.281942
O O1 0.603054 0.527747 0.122130
O O2 0.675026 0.393100 0.176673
O O3 0.635560 0.420609 0.000000
O O4 0.267584 0.407484 0.500000
O O5 0.169927 0.330074 0.395886
O O6 0.301025 0.363557 0.320426
O O7 0.197123 0.475205 0.353962
O O8 0.738832 0.761169 0.223055
O O9 0.878779 0.754664 0.151380
O O10 0.886040 0.613961 0.906004
O O11 0.003955 0.669565 0.820489
O O12 0.964050 0.717103 0.000000
O O13 0.413035 0.086966 0.303614
O O14 0.436927 0.936927 0.282679
#
# Coordination Sequence:
#
# PCOD9564471 Si02
#       5
#    16  16  16  16  16
#     4   9  18  32  50  73 101 132 161 189 230 285
#     4   8  14  24  38  59  86 114 149 194 239 280
#     4   9  16  27  47  72  93 117 154 199 242 283
#     4   8  13  20  31  51  79 108 139 179 227 274
#     4   8  13  19  27  44  72 107 148 189 227 272
#
# _framework density 19.429523
#
# number of rings (size 3 to 8) (size 9 to 14) (size 15 to 20)
#    0.000    3.600    0.000    3.600    0.000    2.000 
#    0.000    4.000    0.000    6.000    0.000    7.000 
#    0.000    0.000    0.000    0.000    0.000    0.000 
#
# Total GULP energy -445749.241358 kJ/mol
# GULP energy per Si atom -5571.865517 kJ/mol
# Density = 1.938530 g / cm^3
# Si number density = 19.429523 Si / 1000 Ang^3
#
#
#
# Elastic Constant Matrix: (Units=GPa)
#
#
# Indices 1 2 3 4 5 6 
#
# 1 35.3630 38.6887 33.2426 0.0000 0.0000 0.0000
# 2 38.6887 35.3630 33.2426 0.0000 0.0000 0.0000
# 3 33.2426 33.2426 133.4938 0.0000 0.0000 0.0000
# 4 0.0000 0.0000 0.0000 8.1482 0.0000 0.0000
# 5 0.0000 0.0000 0.0000 0.0000 8.1482 0.0000
# 6 0.0000 0.0000 0.0000 0.0000 0.0000 11.5039
#
#
#
# Elastic Compliance Matrix: (Units=1/GPa)
#
#
# Indices 1 2 3 4 5 6 
#
# 1 -0.141648 0.159040 -0.004331 0.000000 0.000000 0.000000
# 2 0.159040 -0.141648 -0.004331 0.000000 0.000000 0.000000
# 3 -0.004331 -0.004331 0.009648 0.000000 0.000000 0.000000
# 4 0.000000 0.000000 0.000000 0.122727 0.000000 0.000000
# 5 0.000000 0.000000 0.000000 0.000000 0.122727 0.000000
# 6 0.000000 0.000000 0.000000 0.000000 0.000000 0.086927
#
#
# Mechanical properties :
#
#
# Convention : Reuss Voigt Hill
#
# Bulk Modulus (GPa) = 36.88831 46.06309 41.47570
# Shear Modulus (GPa) = -21.46048 12.16311 -4.64869
#
# Velocity S-wave (km/s) = -3.32705 2.50474 -1.54848
# Velocity P-wave (km/s) = 2.06589 5.66782 4.26568
#
# Compressibility (1/GPa) = 0.02710886
#
# Stress axis : x y z
#
# Youngs Moduli (GPa) = -7.05977 -7.05977 103.64785
#
# Poissons Ratio (x) = 1.12279 0.44891
# Poissons Ratio (y) = 1.12279 0.44891
# Poissons Ratio (z) = -0.03058 -0.03058
#
# Static dielectric constant tensor:
#      x y z
#    x 1.703880 0.000000 0.000000 
#    y 0.000000 1.703880 0.000000 
#    z 0.000000 0.000000 1.685310 
# 
# From -- ./inp_files/4249.got.cif
#   From: 2010.05.17/outbox.cif.g08.bks.cpg/sg127_3_cif.got.tgz:4249.got - 2010.05.20 12:03:00.
