data_PCOD9564797
_publ_section_title
;
Structure prediction by ZEFSAII (Michael W. Deem and Ramdas Pophale) SiO2 
 PCOD9564797
Probable space group: P 4/M N C
;
_chemical_formula_sum "Si O2"
_cell_formula_units_Z 56
_cell_length_a 18.416001
_cell_length_b 18.416001
_cell_length_c 8.742021
_cell_angle_alpha 90.000000
_cell_angle_beta 90.000000
_cell_angle_gamma 90.000000
_cell_volume 2964.848492
_symmetry_space_group_name_H-M "P 4/M N C"
_symmetry_group_IT_number 128
_symmetry_cell_setting 'tetragonal'
loop_
_space_group_symop_operation_xyz
x,y,z
-y,x,z
-x,-y,z
y,-x,z
1/2+x,1/2-y,1/2-z
1/2-x,1/2+y,1/2-z
1/2+y,1/2+x,1/2-z
1/2-y,1/2-x,1/2-z
-x,-y,-z
y,-x,-z
x,y,-z
-y,x,-z
1/2-x,1/2+y,1/2+z
1/2+x,1/2-y,1/2+z
1/2-y,1/2-x,1/2+z
1/2+y,1/2+x,1/2+z
loop_
_atom_site_type_symbol
_atom_site_label
_atom_site_fract_x
_atom_site_fract_y
_atom_site_fract_z
Si Si1 0.191297 0.415758 0.183348
Si Si2 0.181514 0.818479 0.174778
Si Si3 0.084238 0.691289 0.316652
Si Si4 0.584009 0.584018 0.500000
O O1 0.116515 0.383486 0.250000
O O2 0.253404 0.360287 0.242750
O O3 0.203816 0.499998 0.230517
O O4 0.189733 0.413378 0.000000
O O5 0.139711 0.753395 0.257253
O O6 0.120797 0.879191 0.145039
O O7 0.204018 0.795976 0.000000
O O8 0.116506 0.616506 0.250000
O O9 0.086616 0.689725 0.500000
O O10 0.499994 0.598697 0.500000
#
# Coordination Sequence:
#
# PCOD9564797 Si02
#       4
#    16  16  16   8
#     4  11  24  41  62  89 123 163 207 256 310 366
#     4  10  21  36  63  87 122 156 200 249 303 357
#     4  11  24  41  62  89 123 163 207 256 310 366
#     4   9  18  32  56  90 120 154 196 241 296 356
#
# _framework density 18.887982000000001
#
# number of rings (size 3 to 8) (size 9 to 14) (size 15 to 20)
#    0.857    0.714    0.000    5.143    0.000    4.000 
#    0.000    2.857    0.000    0.000    0.000   12.000 
#    0.000    0.000    0.000    0.000    0.000    0.000 
#
# Total GULP energy -312192.186490 kJ/mol
# GULP energy per Si atom -5574.860473 kJ/mol
# Density = 1.884499 g / cm^3
# Si number density = 18.887982 Si / 1000 Ang^3
#
#
#
# Elastic Constant Matrix: (Units=GPa)
#
#
# Indices 1 2 3 4 5 6 
#
# 1 116.9172 89.0542 44.6172 0.0000 0.0000 0.0000
# 2 89.0542 116.9076 44.6164 0.0000 0.0000 0.0000
# 3 44.6172 44.6164 84.1139 0.0000 0.0000 0.0000
# 4 0.0000 0.0000 0.0000 9.1308 0.0000 0.0000
# 5 0.0000 0.0000 0.0000 0.0000 9.1326 0.0000
# 6 0.0000 0.0000 0.0000 0.0000 0.0000 36.9393
#
#
#
# Elastic Compliance Matrix: (Units=1/GPa)
#
#
# Indices 1 2 3 4 5 6 
#
# 1 0.021099 -0.014796 -0.003343 0.000000 0.000000 0.000000
# 2 -0.014796 0.021101 -0.003344 0.000000 0.000000 0.000000
# 3 -0.003343 -0.003344 0.015436 0.000000 0.000000 0.000000
# 4 0.000000 0.000000 0.000000 0.109519 0.000000 0.000000
# 5 0.000000 0.000000 0.000000 0.000000 0.109498 0.000000
# 6 0.000000 0.000000 0.000000 0.000000 0.000000 0.027071
#
#
# Mechanical properties :
#
#
# Convention : Reuss Voigt Hill
#
# Bulk Modulus (GPa) = 68.17313 74.94603 71.55958
# Shear Modulus (GPa) = 14.22145 20.35060 17.28603
#
# Velocity S-wave (km/s) = 2.74695 3.28599 3.02849
# Velocity P-wave (km/s) = 6.79946 7.35951 7.08502
#
# Compressibility (1/GPa) = 0.01466854
#
# Stress axis : x y z
#
# Youngs Moduli (GPa) = 47.39570 47.39126 64.78398
#
# Poissons Ratio (x) = 0.70121 0.21660
# Poissons Ratio (y) = 0.70127 0.21664
# Poissons Ratio (z) = 0.15846 0.15848
#
# Static dielectric constant tensor:
#      x y z
#    x 1.656820 0.000000 0.000000 
#    y 0.000000 1.656820 0.000000 
#    z 0.000000 0.000000 1.646090 
# 
# From -- ./inp_files/812.got.cif
#   From: 2010.05.17/outbox.cif.g08.bks.cpg/sg128_1_cif.got.tgz:812.got - 2010.05.20 12:07:25.
