data_PCOD9564113
_publ_section_title
;
Structure prediction by ZEFSAII (Michael W. Deem and Ramdas Pophale) SiO2 
 PCOD9564113
Probable space group: P 4/M B M
;
_chemical_formula_sum "Si O2"
_cell_formula_units_Z 88
_cell_length_a 15.158999
_cell_length_b 15.158999
_cell_length_c 20.802529
_cell_angle_alpha 90.000000
_cell_angle_beta 90.000000
_cell_angle_gamma 90.000000
_cell_volume 4780.322366
_symmetry_space_group_name_H-M "P 4/M B M"
_symmetry_group_IT_number 127
_symmetry_cell_setting 'tetragonal'
loop_
_space_group_symop_operation_xyz
x,y,z
-y,x,z
-x,-y,z
y,-x,z
1/2+x,1/2-y,-z
1/2-x,1/2+y,-z
1/2+y,1/2+x,-z
1/2-y,1/2-x,-z
-x,-y,-z
y,-x,-z
x,y,-z
-y,x,-z
1/2-x,1/2+y,z
1/2+x,1/2-y,z
1/2-y,1/2-x,z
1/2+y,1/2+x,z
loop_
_atom_site_type_symbol
_atom_site_label
_atom_site_fract_x
_atom_site_fract_y
_atom_site_fract_z
Si Si1 0.753872 0.002611 0.187938
Si Si2 0.563276 0.366677 0.574553
Si Si3 0.668846 0.679967 0.866942
Si Si4 0.877766 0.912281 0.000000
Si Si5 0.426405 0.073596 0.187931
Si Si6 0.439208 0.789412 0.332697
Si Si7 0.075321 0.575321 0.337662
O O1 0.785230 0.087372 0.149205
O O2 0.741425 0.033889 0.261370
O O3 0.812013 0.914690 0.181279
O O4 0.661170 0.967581 0.159636
O O5 0.612716 0.459390 0.584534
O O6 0.575666 0.340972 0.500000
O O7 0.590420 0.290887 0.623289
O O8 0.739161 0.760839 0.861123
O O9 0.626050 0.670731 0.937340
O O10 0.980825 0.881368 0.000000
O O11 0.404951 0.095050 0.262669
O O12 0.500000 0.000000 0.188988
O O13 0.362434 0.862434 0.326475
O O14 0.525786 0.838227 0.363157
O O15 0.000000 0.500000 0.339195
#
# Coordination Sequence:
#
# PCOD9564113 Si02
#       7
#    16  16  16   8   8  16   8
#     4  11  23  37  60  94 127 160 200 252 311 371
#     4   9  20  40  60  80 115 165 209 248 301 359
#     4  12  24  42  65  92 124 163 211 255 305 374
#     4  11  23  44  66  84 119 167 206 254 318 372
#     4   9  16  36  58  80 120 163 195 237 308 369
#     4  10  20  37  60  90 123 154 195 248 305 360
#     4   7  14  30  53  78 112 152 180 222 293 357
#
# _framework density 18.408799999999999
#
# number of rings (size 3 to 8) (size 9 to 14) (size 15 to 20)
#    0.000    1.909    2.727    3.545    2.545    0.727 
#    1.636    0.455    0.000    1.636    0.000    3.818 
#    0.000    0.000    0.000    0.000    0.000    0.000 
#
# Total GULP energy -490421.949362 kJ/mol
# GULP energy per Si atom -5572.976697 kJ/mol
# Density = 1.836690 g / cm^3
# Si number density = 18.408800 Si / 1000 Ang^3
#
#
#
# Elastic Constant Matrix: (Units=GPa)
#
#
# Indices 1 2 3 4 5 6 
#
# 1 83.6992 28.3841 30.6524 0.0000 0.0000 0.0000
# 2 28.3841 83.6992 30.6524 0.0000 0.0000 0.0000
# 3 30.6524 30.6524 53.1262 0.0000 0.0000 0.0000
# 4 0.0000 0.0000 0.0000 6.4728 0.0000 0.0000
# 5 0.0000 0.0000 0.0000 0.0000 6.4728 0.0000
# 6 0.0000 0.0000 0.0000 0.0000 0.0000 29.6353
#
#
#
# Elastic Compliance Matrix: (Units=1/GPa)
#
#
# Indices 1 2 3 4 5 6 
#
# 1 0.015557 -0.002521 -0.007521 0.000000 0.000000 0.000000
# 2 -0.002521 0.015557 -0.007521 0.000000 0.000000 0.000000
# 3 -0.007521 -0.007521 0.027502 0.000000 0.000000 0.000000
# 4 0.000000 0.000000 0.000000 0.154494 0.000000 0.000000
# 5 0.000000 0.000000 0.000000 0.000000 0.154494 0.000000
# 6 0.000000 0.000000 0.000000 0.000000 0.000000 0.033744
#
#
# Mechanical properties :
#
#
# Convention : Reuss Voigt Hill
#
# Bulk Modulus (GPa) = 42.57378 44.43361 43.50369
# Shear Modulus (GPa) = 11.25355 17.23854 14.24605
#
# Velocity S-wave (km/s) = 2.47516 3.06343 2.78487
# Velocity P-wave (km/s) = 5.59872 6.05825 5.83301
#
# Compressibility (1/GPa) = 0.02348863
#
# Stress axis : x y z
#
# Youngs Moduli (GPa) = 64.27974 64.27974 36.36065
#
# Poissons Ratio (x) = 0.16206 0.27348
# Poissons Ratio (y) = 0.16206 0.27348
# Poissons Ratio (z) = 0.48347 0.48347
#
# Static dielectric constant tensor:
#      x y z
#    x 1.659490 0.000000 0.000000 
#    y 0.000000 1.659490 0.000000 
#    z 0.000000 0.000000 1.614980 
# 
# From -- ./inp_files/5727.got.cif
#   From: 2010.05.17/outbox.cif.g08.bks.cpg/sg127_3_cif.got.tgz:5727.got - 2010.05.20 12:03:00.
