data_PCOD9564572
_publ_section_title
;
Structure prediction by ZEFSAII (Michael W. Deem and Ramdas Pophale) SiO2 
 PCOD9564572
Probable space group: P 4/M N C
;
_chemical_formula_sum "Si O2"
_cell_formula_units_Z 48
_cell_length_a 15.278833
_cell_length_b 15.278833
_cell_length_c 8.881111
_cell_angle_alpha 90.000000
_cell_angle_beta 90.000000
_cell_angle_gamma 90.000000
_cell_volume 2073.230867
_symmetry_space_group_name_H-M "P 4/M N C"
_symmetry_group_IT_number 128
_symmetry_cell_setting 'tetragonal'
loop_
_space_group_symop_operation_xyz
x,y,z
-y,x,z
-x,-y,z
y,-x,z
1/2+x,1/2-y,1/2-z
1/2-x,1/2+y,1/2-z
1/2+y,1/2+x,1/2-z
1/2-y,1/2-x,1/2-z
-x,-y,-z
y,-x,-z
x,y,-z
-y,x,-z
1/2-x,1/2+y,1/2+z
1/2+x,1/2-y,1/2+z
1/2-y,1/2-x,1/2+z
1/2+y,1/2+x,1/2+z
loop_
_atom_site_type_symbol
_atom_site_label
_atom_site_fract_x
_atom_site_fract_y
_atom_site_fract_z
Si Si1 0.802150 0.558854 0.167214
Si Si2 0.751205 0.097389 0.000000
Si Si3 0.893195 0.393195 0.750000
Si Si4 0.103034 0.754411 0.000000
Si Si5 0.146059 0.000077 0.500000
O O1 0.795990 0.600512 0.333596
O O2 0.879447 0.487454 0.173677
O O3 0.802200 0.603590 0.000000
O O4 0.710723 0.505032 0.142509
O O5 0.785991 0.997106 0.000000
O O6 0.826470 0.169432 0.000000
O O7 0.885321 0.312425 0.862408
O O8 0.084123 0.915214 0.500000
#
# Coordination Sequence:
#
# PCOD9564572 Si02
#       5
#    16   8   8   8   8
#     4   9  20  33  50  72 101 147 175 223 258 313
#     4  10  22  31  52  82 112 137 194 210 260 323
#     4  10  18  36  54  68 106 150 190 218 276 306
#     4  10  21  37  53  82 111 151 179 234 258 334
#     4   9  19  32  47  70 103 144 177 201 254 322
#
# _framework density 23.152270000000001
#
# number of rings (size 3 to 8) (size 9 to 14) (size 15 to 20)
#    1.000    1.500    1.667    0.000    9.333    0.333 
#    3.000    0.000    0.000    0.000    0.000    0.000 
#    0.000   64.000    0.000    0.000    0.000    0.000 
#
# Total GULP energy -267414.156378 kJ/mol
# GULP energy per Si atom -5571.128258 kJ/mol
# Density = 2.309957 g / cm^3
# Si number density = 23.152270 Si / 1000 Ang^3
#
#
#
# Elastic Constant Matrix: (Units=GPa)
#
#
# Indices 1 2 3 4 5 6 
#
# 1 112.0905 -27.0070 67.3985 0.0000 0.0000 0.0000
# 2 -27.0070 112.0905 67.3985 0.0000 0.0000 0.0000
# 3 67.3985 67.3985 198.2241 0.0000 0.0000 0.0000
# 4 0.0000 0.0000 0.0000 -113.4168 0.0000 0.0000
# 5 0.0000 0.0000 0.0000 0.0000 -113.4168 0.0000
# 6 0.0000 0.0000 0.0000 0.0000 0.0000 41.4924
#
#
#
# Elastic Compliance Matrix: (Units=1/GPa)
#
#
# Indices 1 2 3 4 5 6 
#
# 1 0.016333 0.009144 -0.008663 0.000000 0.000000 0.000000
# 2 0.009144 0.016333 -0.008663 0.000000 0.000000 0.000000
# 3 -0.008663 -0.008663 0.010936 0.000000 0.000000 0.000000
# 4 0.000000 0.000000 0.000000 -0.008817 0.000000 0.000000
# 5 0.000000 0.000000 0.000000 0.000000 -0.008817 0.000000
# 6 0.000000 0.000000 0.000000 0.000000 0.000000 0.024101
#
#
# Mechanical properties :
#
#
# Convention : Reuss Voigt Hill
#
# Bulk Modulus (GPa) = 36.71113 70.88725 53.79919
# Shear Modulus (GPa) = 66.21580 -16.09392 25.06094
#
# Velocity S-wave (km/s) = 5.35371 -2.63940 3.29361
# Velocity P-wave (km/s) = 7.35575 4.62555 6.14422
#
# Compressibility (1/GPa) = 0.02723970
#
# Stress axis : x y z
#
# Youngs Moduli (GPa) = 61.22507 61.22507 91.44511
#
# Poissons Ratio (x) = -0.55984 0.79215
# Poissons Ratio (y) = -0.55984 0.79215
# Poissons Ratio (z) = 0.53036 0.53036
#
# Static dielectric constant tensor:
#      x y z
#    x 1.893080 0.000000 0.000000 
#    y 0.000000 1.893080 0.000000 
#    z 0.000000 0.000000 1.923830 
# 
# From -- ./inp_files/690.got.cif
#   From: 2010.05.17/outbox.cif.g08.bks.cpg/sg128_1_cif.got.tgz:690.got - 2010.05.20 12:07:25.
