data_PCOD9564622
_publ_section_title
;
Structure prediction by ZEFSAII (Michael W. Deem and Ramdas Pophale) SiO2 
 PCOD9564622
Probable space group: P 4/M N C
;
_chemical_formula_sum "Si O2"
_cell_formula_units_Z 96
_cell_length_a 26.066738
_cell_length_b 26.066738
_cell_length_c 8.265761
_cell_angle_alpha 90.000000
_cell_angle_beta 90.000000
_cell_angle_gamma 90.000000
_cell_volume 5616.376550
_symmetry_space_group_name_H-M "P 4/M N C"
_symmetry_group_IT_number 128
_symmetry_cell_setting 'tetragonal'
loop_
_space_group_symop_operation_xyz
x,y,z
-y,x,z
-x,-y,z
y,-x,z
1/2+x,1/2-y,1/2-z
1/2-x,1/2+y,1/2-z
1/2+y,1/2+x,1/2-z
1/2-y,1/2-x,1/2-z
-x,-y,-z
y,-x,-z
x,y,-z
-y,x,-z
1/2-x,1/2+y,1/2+z
1/2+x,1/2-y,1/2+z
1/2-y,1/2-x,1/2+z
1/2+y,1/2+x,1/2+z
loop_
_atom_site_type_symbol
_atom_site_label
_atom_site_fract_x
_atom_site_fract_y
_atom_site_fract_z
Si Si1 0.750849 0.832482 0.305396
Si Si2 0.863755 0.051672 0.814440
Si Si3 0.736238 0.444138 0.310342
Si Si4 0.947296 0.752146 0.312853
Si Si5 0.377121 0.553712 0.813063
Si Si6 0.750470 0.167327 0.695658
O O1 0.706698 0.793302 0.250000
O O2 0.751536 0.836329 0.500000
O O3 0.740585 0.888735 0.232698
O O4 0.804732 0.804264 0.254756
O O5 0.813941 0.054810 0.702698
O O6 0.900128 0.099162 0.786121
O O7 0.893485 0.000418 0.762219
O O8 0.846928 0.047649 0.000000
O O9 0.723986 0.444791 0.500000
O O10 0.763481 0.498632 0.269553
O O11 0.683980 0.444542 0.207026
O O12 0.950060 0.736636 0.500000
O O13 0.890579 0.738914 0.244982
O O14 0.391680 0.557924 0.000000
O O15 0.705883 0.205883 0.750000
O O16 0.751943 0.164805 0.500000
#
# Coordination Sequence:
#
# PCOD9564622 Si02
#       6
#    16  16  16  16  16  16
#     4  10  19  33  51  74 102 133 166 205 248 298
#     4  11  21  33  47  65  85 111 149 195 239 282
#     4  11  21  33  49  71  95 125 161 200 241 285
#     4  10  19  33  50  70  95 127 160 194 237 289
#     4  11  21  34  48  63  84 115 151 191 238 287
#     4   9  19  32  50  73  99 129 163 199 243 291
#
# _framework density 17.092870000000001
#
# number of rings (size 3 to 8) (size 9 to 14) (size 15 to 20)
#    0.000    1.667    0.000    8.500    0.000    3.667 
#    0.000    1.667    0.000    0.000    0.000    0.000 
#    0.000    0.667    0.000    7.000    0.000    3.833 
#
# Total GULP energy -535122.220047 kJ/mol
# GULP energy per Si atom -5574.189792 kJ/mol
# Density = 1.705397 g / cm^3
# Si number density = 17.092870 Si / 1000 Ang^3
#
#
#
# Elastic Constant Matrix: (Units=GPa)
#
#
# Indices 1 2 3 4 5 6 
#
# 1 84.0561 22.9469 4.2423 0.0000 0.0000 0.0000
# 2 22.9469 84.0561 4.2423 0.0000 0.0000 0.0000
# 3 4.2423 4.2423 45.3326 0.0000 0.0000 0.0000
# 4 0.0000 0.0000 0.0000 26.4437 0.0000 0.0000
# 5 0.0000 0.0000 0.0000 0.0000 26.4437 0.0000
# 6 0.0000 0.0000 0.0000 0.0000 0.0000 18.0980
#
#
#
# Elastic Compliance Matrix: (Units=1/GPa)
#
#
# Indices 1 2 3 4 5 6 
#
# 1 0.012890 -0.003474 -0.000881 0.000000 0.000000 0.000000
# 2 -0.003474 0.012890 -0.000881 0.000000 0.000000 0.000000
# 3 -0.000881 -0.000881 0.022224 0.000000 0.000000 0.000000
# 4 0.000000 0.000000 0.000000 0.037816 0.000000 0.000000
# 5 0.000000 0.000000 0.000000 0.000000 0.037816 0.000000
# 6 0.000000 0.000000 0.000000 0.000000 0.000000 0.055255
#
#
# Mechanical properties :
#
#
# Convention : Reuss Voigt Hill
#
# Bulk Modulus (GPa) = 26.64500 30.70085 28.67293
# Shear Modulus (GPa) = 24.76791 26.33130 25.54961
#
# Velocity S-wave (km/s) = 3.81073 3.92916 3.87040
# Velocity P-wave (km/s) = 5.91476 6.21165 6.06502
#
# Compressibility (1/GPa) = 0.03753049
#
# Stress axis : x y z
#
# Youngs Moduli (GPa) = 77.58085 77.58085 44.99619
#
# Poissons Ratio (x) = 0.26955 0.03965
# Poissons Ratio (y) = 0.26955 0.03965
# Poissons Ratio (z) = 0.06836 0.06836
#
# Static dielectric constant tensor:
#      x y z
#    x 1.611620 0.000000 0.000000 
#    y 0.000000 1.611620 0.000000 
#    z 0.000000 0.000000 1.579670 
# 
# From -- ./inp_files/1510.got.cif
#   From: 2010.05.17/outbox.cif.g08.bks.cpg/sg128_1_cif.got.tgz:1510.got - 2010.05.20 12:07:25.
