data_PCOD9564512
_publ_section_title
;
Structure prediction by ZEFSAII (Michael W. Deem and Ramdas Pophale) SiO2 
 PCOD9564512
Probable space group: P 4/M B M
;
_chemical_formula_sum "Si O2"
_cell_formula_units_Z 72
_cell_length_a 24.000000
_cell_length_b 24.000000
_cell_length_c 9.000000
_cell_angle_alpha 90.000000
_cell_angle_beta 90.000000
_cell_angle_gamma 90.000000
_cell_volume 5184.000000
_symmetry_space_group_name_H-M "P 4/M B M"
_symmetry_group_IT_number 127
_symmetry_cell_setting 'tetragonal'
loop_
_space_group_symop_operation_xyz
x,y,z
-y,x,z
-x,-y,z
y,-x,z
1/2+x,1/2-y,-z
1/2-x,1/2+y,-z
1/2+y,1/2+x,-z
1/2-y,1/2-x,-z
-x,-y,-z
y,-x,-z
x,y,-z
-y,x,-z
1/2-x,1/2+y,z
1/2+x,1/2-y,z
1/2-y,1/2-x,z
1/2+y,1/2+x,z
loop_
_atom_site_type_symbol
_atom_site_label
_atom_site_fract_x
_atom_site_fract_y
_atom_site_fract_z
Si Si1 0.514822 0.833262 0.180043
Si Si2 0.197937 0.395864 0.680116
Si Si3 0.631140 0.776398 0.178419
Si Si4 0.288154 0.307284 0.673069
Si Si5 0.547267 0.952734 0.678656
O O1 0.455735 0.811487 0.243934
O O2 0.567823 0.793363 0.219110
O O3 0.528089 0.894197 0.248950
O O4 0.512390 0.837280 0.000000
O O5 0.199045 0.401978 0.500000
O O6 0.146064 0.353937 0.714133
O O7 0.255124 0.363063 0.724598
O O8 0.671940 0.828060 0.222148
O O9 0.659014 0.720271 0.244503
O O10 0.633217 0.772244 0.000000
O O11 0.302539 0.315118 0.500000
O O12 0.240175 0.259826 0.681147
O O13 0.553695 0.946306 0.500000
O O14 0.500000 0.000000 0.704014
#
# Coordination Sequence:
#
# PCOD9564512 Si02
#       5
#    16  16  16  16   8
#     4  11  21  32  45  64  90 118 152 189 224 264
#     4   9  18  32  46  63  89 117 148 187 224 261
#     4   9  17  30  44  61  87 113 141 183 225 261
#     4   8  15  28  46  65  83 107 142 182 223 267
#     4  11  23  35  45  59  83 121 163 197 227 258
#
# _framework density 13.888889000000001
#
# number of rings (size 3 to 8) (size 9 to 14) (size 15 to 20)
#    0.000    2.556    1.111    3.000    0.000    6.667 
#    0.000    2.222    0.000    0.000    0.000    0.000 
#    0.000    0.889    0.000    9.778    0.000    7.111 
#
# Total GULP energy -401016.759339 kJ/mol
# GULP energy per Si atom -5569.677213 kJ/mol
# Density = 1.385728 g / cm^3
# Si number density = 13.888889 Si / 1000 Ang^3
#
#
#
# Elastic Constant Matrix: (Units=GPa)
#
#
# Indices 1 2 3 4 5 6 
#
# 1 107.4683 73.8626 41.0303 0.0000 0.0000 0.0000
# 2 73.8626 107.4684 41.0303 0.0000 0.0000 0.0000
# 3 41.0303 41.0303 46.4964 0.0000 0.0000 0.0000
# 4 0.0000 0.0000 0.0000 27.0923 0.0000 0.0000
# 5 0.0000 0.0000 0.0000 0.0000 27.0924 0.0000
# 6 0.0000 0.0000 0.0000 0.0000 0.0000 30.9761
#
#
#
# Elastic Compliance Matrix: (Units=1/GPa)
#
#
# Indices 1 2 3 4 5 6 
#
# 1 0.019469 -0.010288 -0.008102 0.000000 0.000000 0.000000
# 2 -0.010288 0.019469 -0.008102 0.000000 0.000000 0.000000
# 3 -0.008102 -0.008102 0.035806 0.000000 0.000000 0.000000
# 4 0.000000 0.000000 0.000000 0.036911 0.000000 0.000000
# 5 0.000000 0.000000 0.000000 0.000000 0.036911 0.000000
# 6 0.000000 0.000000 0.000000 0.000000 0.000000 0.032283
#
#
# Mechanical properties :
#
#
# Convention : Reuss Voigt Hill
#
# Bulk Modulus (GPa) = 45.95412 63.69772 54.82592
# Shear Modulus (GPa) = 20.73953 24.06615 22.40284
#
# Velocity S-wave (km/s) = 3.86845 4.16716 4.02058
# Velocity P-wave (km/s) = 7.28780 8.31358 7.81753
#
# Compressibility (1/GPa) = 0.02176083
#
# Stress axis : x y z
#
# Youngs Moduli (GPa) = 51.36354 51.36368 27.92824
#
# Poissons Ratio (x) = 0.52842 0.22627
# Poissons Ratio (y) = 0.52842 0.22627
# Poissons Ratio (z) = 0.41615 0.41614
#
# Static dielectric constant tensor:
#      x y z
#    x 1.452750 0.000000 0.000000 
#    y 0.000000 1.452750 0.000000 
#    z 0.000000 0.000000 1.471010 
# 
# From -- ./inp_files/1725.got.cif
#   From: 2010.05.17/outbox.ucp.g08.bks.cvg/sg127_1_cif.got.tgz:1725.got - 2010.06.11 11:37:05.
