data_PCOD9564419
_publ_section_title
;
Structure prediction by ZEFSAII (Michael W. Deem and Ramdas Pophale) SiO2 
 PCOD9564419
Probable space group: P 4/M B M
;
_chemical_formula_sum "Si O2"
_cell_formula_units_Z 96
_cell_length_a 15.002194
_cell_length_b 15.002194
_cell_length_c 21.723771
_cell_angle_alpha 90.000000
_cell_angle_beta 90.000000
_cell_angle_gamma 90.000000
_cell_volume 4889.278438
_symmetry_space_group_name_H-M "P 4/M B M"
_symmetry_group_IT_number 127
_symmetry_cell_setting 'tetragonal'
loop_
_space_group_symop_operation_xyz
x,y,z
-y,x,z
-x,-y,z
y,-x,z
1/2+x,1/2-y,-z
1/2-x,1/2+y,-z
1/2+y,1/2+x,-z
1/2-y,1/2-x,-z
-x,-y,-z
y,-x,-z
x,y,-z
-y,x,-z
1/2-x,1/2+y,z
1/2+x,1/2-y,z
1/2-y,1/2-x,z
1/2+y,1/2+x,z
loop_
_atom_site_type_symbol
_atom_site_label
_atom_site_fract_x
_atom_site_fract_y
_atom_site_fract_z
Si Si1 0.182032 0.832452 0.500000
Si Si2 0.499485 0.253554 0.806345
Si Si3 0.173662 0.822207 0.251441
Si Si4 0.923102 0.423102 0.605668
Si Si5 0.119269 0.091569 0.375442
Si Si6 0.425121 0.074880 0.252176
Si Si7 0.981588 0.669764 0.500000
Si Si8 0.488482 0.650275 0.929560
O O1 0.246162 0.746162 0.500000
O O2 0.122131 0.841428 0.440043
O O3 0.245088 0.919647 0.500000
O O4 0.417863 0.317123 0.786609
O O5 0.588721 0.275787 0.769016
O O6 0.465256 0.157638 0.784973
O O7 0.516335 0.273854 0.878006
O O8 0.237522 0.737522 0.241018
O O9 0.142336 0.829081 0.321643
O O10 0.900756 0.400756 0.676448
O O11 0.844524 0.462568 0.562671
O O12 0.000000 0.500000 0.608893
O O13 0.015240 0.120117 0.369956
O O14 0.500000 0.000000 0.256312
O O15 0.913869 0.586132 0.500000
O O16 0.408103 0.578959 0.922174
O O17 0.486093 0.683194 0.000000
#
# Coordination Sequence:
#
# PCOD9564419 Si02
#       8
#     8  16  16   8  16   8   8  16
#     4  11  23  39  62  88 121 159 207 264 328 402
#     4  12  23  41  68  97 140 173 222 277 330 392
#     4  12  25  42  66  99 134 176 223 277 333 401
#     4   8  16  33  54  79 112 154 216 266 309 373
#     4  11  24  43  66  89 120 166 216 272 337 399
#     4  11  25  42  62  94 139 190 222 267 335 406
#     4   8  16  31  55  82 108 149 205 268 317 365
#     4   9  18  35  65 102 134 166 213 273 329 382
#
# _framework density 19.634799999999998
#
# number of rings (size 3 to 8) (size 9 to 14) (size 15 to 20)
#    0.000    1.500    4.167    2.500    2.333    1.000 
#    0.000    0.417    7.333    3.500    0.000    0.000 
#    0.000    0.000    0.000    0.000    0.000    0.000 
#
# Total GULP energy -536557.862624 kJ/mol
# GULP energy per Si atom -5589.144402 kJ/mol
# Density = 1.959011 g / cm^3
# Si number density = 19.634800 Si / 1000 Ang^3
#
#
#
# Elastic Constant Matrix: (Units=GPa)
#
#
# Indices 1 2 3 4 5 6 
#
# 1 65.7003 14.4677 24.6792 0.0000 0.0000 0.0000
# 2 14.4677 65.7004 24.6791 0.0000 0.0000 0.0000
# 3 24.6792 24.6791 159.4283 0.0000 0.0000 0.0000
# 4 0.0000 0.0000 0.0000 17.2269 0.0000 0.0000
# 5 0.0000 0.0000 0.0000 0.0000 17.2269 0.0000
# 6 0.0000 0.0000 0.0000 0.0000 0.0000 36.2934
#
#
#
# Elastic Compliance Matrix: (Units=1/GPa)
#
#
# Indices 1 2 3 4 5 6 
#
# 1 0.016653 -0.002865 -0.002134 0.000000 0.000000 0.000000
# 2 -0.002865 0.016653 -0.002134 0.000000 0.000000 0.000000
# 3 -0.002134 -0.002134 0.006933 0.000000 0.000000 0.000000
# 4 0.000000 0.000000 0.000000 0.058049 0.000000 0.000000
# 5 0.000000 0.000000 0.000000 0.000000 0.058049 0.000000
# 6 0.000000 0.000000 0.000000 0.000000 0.000000 0.027553
#
#
# Mechanical properties :
#
#
# Convention : Reuss Voigt Hill
#
# Bulk Modulus (GPa) = 38.50358 46.49788 42.50073
# Shear Modulus (GPa) = 24.17606 29.28297 26.72951
#
# Velocity S-wave (km/s) = 3.51278 3.86603 3.69363
# Velocity P-wave (km/s) = 6.00876 6.60765 6.31531
#
# Compressibility (1/GPa) = 0.02597161
#
# Stress axis : x y z
#
# Youngs Moduli (GPa) = 60.04792 60.04806 144.23373
#
# Poissons Ratio (x) = 0.17207 0.30784
# Poissons Ratio (y) = 0.17207 0.30784
# Poissons Ratio (z) = 0.12816 0.12816
#
# Static dielectric constant tensor:
#      x y z
#    x 1.699110 0.000000 0.000000 
#    y 0.000000 1.699110 0.000000 
#    z 0.000000 0.000000 1.677110 
# 
# From -- ./inp_files/5849.got.cif
#   From: 2010.05.17/outbox.cif.g08.bks.cpg/sg127_3_cif.got.tgz:5849.got - 2010.05.20 12:03:00.
