data_PCOD9564892
_publ_section_title
;
Structure prediction by ZEFSAII (Michael W. Deem and Ramdas Pophale) SiO2 
 PCOD9564892
Probable space group: P 4/M N C
;
_chemical_formula_sum "Si O2"
_cell_formula_units_Z 56
_cell_length_a 17.257582
_cell_length_b 17.257582
_cell_length_c 9.560100
_cell_angle_alpha 90.000000
_cell_angle_beta 90.000000
_cell_angle_gamma 90.000000
_cell_volume 2847.228527
_symmetry_space_group_name_H-M "P 4/M N C"
_symmetry_group_IT_number 128
_symmetry_cell_setting 'tetragonal'
loop_
_space_group_symop_operation_xyz
x,y,z
-y,x,z
-x,-y,z
y,-x,z
1/2+x,1/2-y,1/2-z
1/2-x,1/2+y,1/2-z
1/2+y,1/2+x,1/2-z
1/2-y,1/2-x,1/2-z
-x,-y,-z
y,-x,-z
x,y,-z
-y,x,-z
1/2-x,1/2+y,1/2+z
1/2+x,1/2-y,1/2+z
1/2-y,1/2-x,1/2+z
1/2+y,1/2+x,1/2+z
loop_
_atom_site_type_symbol
_atom_site_label
_atom_site_fract_x
_atom_site_fract_y
_atom_site_fract_z
Si Si1 0.524746 0.123180 0.847924
Si Si2 0.316208 0.604171 0.665214
Si Si3 0.799290 0.056275 0.668492
Si Si4 0.144835 0.644835 0.750000
O O1 0.558528 0.058528 0.750000
O O2 0.562387 0.206556 0.817740
O O3 0.432770 0.137228 0.842327
O O4 0.548460 0.097753 0.000000
O O5 0.336066 0.597203 0.500000
O O6 0.320602 0.522284 0.747699
O O7 0.373378 0.659692 0.751907
O O8 0.227931 0.635907 0.676630
O O9 0.816816 0.052359 0.500000
#
# Coordination Sequence:
#
# PCOD9564892 Si02
#       4
#    16  16  16   8
#     4  10  22  39  60  89 125 163 204 248 302 361
#     4  11  23  41  66  93 122 160 211 259 306 369
#     4  10  23  42  62  90 127 165 204 254 316 370
#     4  10  23  40  62  92 124 165 200 256 308 364
#
# _framework density 19.66825
#
# number of rings (size 3 to 8) (size 9 to 14) (size 15 to 20)
#    0.000    1.714    0.000    3.000    2.000   12.000 
#    0.000    2.857    0.000    0.000    0.000    0.000 
#    0.000    0.000    0.000    0.000    0.000    0.000 
#
# Total GULP energy -312361.846824 kJ/mol
# GULP energy per Si atom -5577.890122 kJ/mol
# Density = 1.962348 g / cm^3
# Si number density = 19.668250 Si / 1000 Ang^3
#
#
#
# Elastic Constant Matrix: (Units=GPa)
#
#
# Indices 1 2 3 4 5 6 
#
# 1 27.7811 160.5573 85.4156 0.0000 0.0000 0.0000
# 2 160.5573 27.7811 85.4156 0.0000 0.0000 0.0000
# 3 85.4156 85.4156 170.1261 0.0000 0.0000 0.0000
# 4 0.0000 0.0000 0.0000 27.3754 0.0000 0.0000
# 5 0.0000 0.0000 0.0000 0.0000 27.3754 0.0000
# 6 0.0000 0.0000 0.0000 0.0000 0.0000 42.0481
#
#
#
# Elastic Compliance Matrix: (Units=1/GPa)
#
#
# Indices 1 2 3 4 5 6 
#
# 1 0.001109 0.008641 -0.004895 0.000000 0.000000 0.000000
# 2 0.008641 0.001109 -0.004895 0.000000 0.000000 0.000000
# 3 -0.004895 -0.004895 0.010793 0.000000 0.000000 0.000000
# 4 0.000000 0.000000 0.000000 0.036529 0.000000 0.000000
# 5 0.000000 0.000000 0.000000 0.000000 0.036529 0.000000
# 6 0.000000 0.000000 0.000000 0.000000 0.000000 0.023782
#
#
# Mechanical properties :
#
#
# Convention : Reuss Voigt Hill
#
# Bulk Modulus (GPa) = 93.34938 98.71838 96.03388
# Shear Modulus (GPa) = 43.20716 12.31311 27.76013
#
# Velocity S-wave (km/s) = 4.69209 2.50479 3.76096
# Velocity P-wave (km/s) = 8.77036 7.65938 8.23363
#
# Compressibility (1/GPa) = 0.01071244
#
# Stress axis : x y z
#
# Youngs Moduli (GPa) = 901.68231 901.68231 92.65048
#
# Poissons Ratio (x) = -7.79099 0.45352
# Poissons Ratio (y) = -7.79099 0.45352
# Poissons Ratio (z) = 4.41371 4.41371
#
# Static dielectric constant tensor:
#      x y z
#    x 1.696240 0.000000 0.000000 
#    y 0.000000 1.696240 0.000000 
#    z 0.000000 0.000000 1.679480 
# 
# From -- ./inp_files/794.got.cif
#   From: 2010.05.17/outbox.cif.g08.bks.cpg/sg128_1_cif.got.tgz:794.got - 2010.05.20 12:07:25.
