data_PCOD9564497
_publ_section_title
;
Structure prediction by ZEFSAII (Michael W. Deem and Ramdas Pophale) SiO2 
 PCOD9564497
Probable space group: P 4/M B M
;
_chemical_formula_sum "Si O2"
_cell_formula_units_Z 56
_cell_length_a 18.000000
_cell_length_b 18.000000
_cell_length_c 9.000000
_cell_angle_alpha 90.000000
_cell_angle_beta 90.000000
_cell_angle_gamma 90.000000
_cell_volume 2916.000000
_symmetry_space_group_name_H-M "P 4/M B M"
_symmetry_group_IT_number 127
_symmetry_cell_setting 'tetragonal'
loop_
_space_group_symop_operation_xyz
x,y,z
-y,x,z
-x,-y,z
y,-x,z
1/2+x,1/2-y,-z
1/2-x,1/2+y,-z
1/2+y,1/2+x,-z
1/2-y,1/2-x,-z
-x,-y,-z
y,-x,-z
x,y,-z
-y,x,-z
1/2-x,1/2+y,z
1/2+x,1/2-y,z
1/2-y,1/2-x,z
1/2+y,1/2+x,z
loop_
_atom_site_type_symbol
_atom_site_label
_atom_site_fract_x
_atom_site_fract_y
_atom_site_fract_z
Si Si1 0.439256 0.060745 0.681290
Si Si2 0.322152 0.949548 0.670059
Si Si3 0.594706 0.422645 0.321475
Si Si4 0.214613 0.836194 0.822558
O O1 0.439952 0.060049 0.500000
O O2 0.473046 0.140797 0.723678
O O3 0.500000 0.000000 0.733019
O O4 0.294461 0.958529 0.500000
O O5 0.391013 0.891013 0.663296
O O6 0.261538 0.908409 0.768877
O O7 0.601119 0.509829 0.281482
O O8 0.600973 0.417648 0.500000
O O9 0.653082 0.366577 0.248015
O O10 0.264041 0.764041 0.775625
O O11 0.209670 0.835143 0.000000
#
# Coordination Sequence:
#
# PCOD9564497 Si02
#       4
#     8  16  16  16
#     4   7  10  18  35  59  85 117 165 219 259 295
#     4   8  13  23  41  64  91 128 173 217 258 301
#     4   9  19  37  61  86 108 133 175 232 282 323
#     4  10  20  32  49  78 114 147 178 214 262 324
#
# _framework density 19.20439
#
# number of rings (size 3 to 8) (size 9 to 14) (size 15 to 20)
#    0.000    3.286    0.000    3.429    0.000    2.857 
#    0.000    2.143    3.143    4.286    0.000    0.000 
#    0.000    0.000    0.000    0.000    0.000    0.000 
#
# Total GULP energy -311944.316981 kJ/mol
# GULP energy per Si atom -5570.434232 kJ/mol
# Density = 1.916068 g / cm^3
# Si number density = 19.204390 Si / 1000 Ang^3
#
#
#
# Elastic Constant Matrix: (Units=GPa)
#
#
# Indices 1 2 3 4 5 6 
#
# 1 55.7621 25.3546 19.5694 0.0000 0.0000 0.0000
# 2 25.3546 55.7621 19.5692 0.0000 0.0000 0.0000
# 3 19.5694 19.5692 31.1911 0.0000 0.0000 0.0000
# 4 0.0000 0.0000 0.0000 8.9157 0.0000 0.0000
# 5 0.0000 0.0000 0.0000 0.0000 8.9156 0.0000
# 6 0.0000 0.0000 0.0000 0.0000 0.0000 19.2172
#
#
#
# Elastic Compliance Matrix: (Units=1/GPa)
#
#
# Indices 1 2 3 4 5 6 
#
# 1 0.025283 -0.007603 -0.011093 0.000000 0.000000 0.000000
# 2 -0.007603 0.025283 -0.011092 0.000000 0.000000 0.000000
# 3 -0.011093 -0.011092 0.045979 0.000000 0.000000 0.000000
# 4 0.000000 0.000000 0.000000 0.112162 0.000000 0.000000
# 5 0.000000 0.000000 0.000000 0.000000 0.112162 0.000000
# 6 0.000000 0.000000 0.000000 0.000000 0.000000 0.052037
#
#
# Mechanical properties :
#
#
# Convention : Reuss Voigt Hill
#
# Bulk Modulus (GPa) = 27.04933 30.18908 28.61921
# Shear Modulus (GPa) = 11.24084 12.62450 11.93267
#
# Velocity S-wave (km/s) = 2.42198 2.56672 2.49540
# Velocity P-wave (km/s) = 4.68368 4.95359 4.82052
#
# Compressibility (1/GPa) = 0.03696949
#
# Stress axis : x y z
#
# Youngs Moduli (GPa) = 39.55167 39.55187 21.74894
#
# Poissons Ratio (x) = 0.30073 0.24125
# Poissons Ratio (y) = 0.30072 0.24125
# Poissons Ratio (z) = 0.43873 0.43872
#
# Static dielectric constant tensor:
#      x y z
#    x 1.701730 0.000000 0.000000 
#    y 0.000000 1.701730 0.000000 
#    z 0.000000 0.000000 1.642620 
# 
# From -- ./inp_files/1076.got.cif
#   From: 2010.05.17/outbox.ucp.g08.bks.cvg/sg127_1_cif.got.tgz:1076.got - 2010.06.11 11:37:05.
