data_PCOD9564141
_publ_section_title
;
Structure prediction by ZEFSAII (Michael W. Deem and Ramdas Pophale) SiO2 
 PCOD9564141
Probable space group: P 4/M B M
;
_chemical_formula_sum "Si O2"
_cell_formula_units_Z 72
_cell_length_a 21.485750
_cell_length_b 21.485750
_cell_length_c 7.319622
_cell_angle_alpha 90.000000
_cell_angle_beta 90.000000
_cell_angle_gamma 90.000000
_cell_volume 3379.011657
_symmetry_space_group_name_H-M "P 4/M B M"
_symmetry_group_IT_number 127
_symmetry_cell_setting 'tetragonal'
loop_
_space_group_symop_operation_xyz
x,y,z
-y,x,z
-x,-y,z
y,-x,z
1/2+x,1/2-y,-z
1/2-x,1/2+y,-z
1/2+y,1/2+x,-z
1/2-y,1/2-x,-z
-x,-y,-z
y,-x,-z
x,y,-z
-y,x,-z
1/2-x,1/2+y,z
1/2+x,1/2-y,z
1/2-y,1/2-x,z
1/2+y,1/2+x,z
loop_
_atom_site_type_symbol
_atom_site_label
_atom_site_fract_x
_atom_site_fract_y
_atom_site_fract_z
Si Si1 0.350861 0.345056 0.779151
Si Si2 0.883914 0.520047 0.288658
Si Si3 0.617569 0.882432 0.277828
Si Si4 0.911888 0.939382 0.500000
Si Si5 0.218584 0.379703 0.781110
Si Si6 0.782721 0.282721 0.204311
O O1 0.409377 0.373383 0.671155
O O2 0.290196 0.386701 0.732040
O O3 0.321597 0.277343 0.723189
O O4 0.361249 0.344044 0.000000
O O5 0.899975 0.509378 0.500000
O O6 0.941397 0.558604 0.206364
O O7 0.869447 0.452642 0.215878
O O8 0.825065 0.564976 0.282331
O O9 0.623098 0.876903 0.500000
O O10 0.665203 0.834798 0.197453
O O11 0.984766 0.916096 0.500000
O O12 0.184472 0.315529 0.719001
O O13 0.216165 0.379605 0.000000
O O14 0.762483 0.262483 0.000000
#
# Coordination Sequence:
#
# PCOD9564141 Si02
#       6
#    16  16   8   8  16   8
#     4  10  22  43  71  97 128 167 206 261 332 393
#     4   9  18  32  50  76 114 163 210 244 286 346
#     4  10  21  34  50  78 122 164 197 243 294 354
#     4  11  28  49  68  96 130 167 222 281 330 396
#     4   9  17  33  57  86 118 153 200 256 306 362
#     4  10  22  41  63  93 128 161 201 251 317 391
#
# _framework density 21.308005999999999
#
# number of rings (size 3 to 8) (size 9 to 14) (size 15 to 20)
#    0.000    2.333    1.111    0.333    3.111    4.889 
#    0.000    5.556    0.000    3.333    0.000    0.000 
#    0.000    0.000    0.000    0.000    0.000    0.000 
#
# Total GULP energy -401206.041775 kJ/mol
# GULP energy per Si atom -5572.306136 kJ/mol
# Density = 2.125951 g / cm^3
# Si number density = 21.308006 Si / 1000 Ang^3
#
#
#
# Elastic Constant Matrix: (Units=GPa)
#
#
# Indices 1 2 3 4 5 6 
#
# 1 107.1724 69.1696 26.0491 0.0000 0.0000 0.0000
# 2 69.1696 107.1727 26.0492 0.0000 0.0000 0.0000
# 3 26.0491 26.0492 107.3788 0.0000 0.0000 0.0000
# 4 0.0000 0.0000 0.0000 22.3214 0.0000 0.0000
# 5 0.0000 0.0000 0.0000 0.0000 22.3214 0.0000
# 6 0.0000 0.0000 0.0000 0.0000 0.0000 33.0652
#
#
#
# Elastic Compliance Matrix: (Units=1/GPa)
#
#
# Indices 1 2 3 4 5 6 
#
# 1 0.016211 -0.010103 -0.001482 0.000000 0.000000 0.000000
# 2 -0.010103 0.016211 -0.001482 0.000000 0.000000 0.000000
# 3 -0.001482 -0.001482 0.010032 0.000000 0.000000 0.000000
# 4 0.000000 0.000000 0.000000 0.044800 0.000000 0.000000
# 5 0.000000 0.000000 0.000000 0.000000 0.044800 0.000000
# 6 0.000000 0.000000 0.000000 0.000000 0.000000 0.030243
#
#
# Mechanical properties :
#
#
# Convention : Reuss Voigt Hill
#
# Bulk Modulus (GPa) = 61.26909 62.69553 61.98231
# Shear Modulus (GPa) = 25.79039 28.90534 27.34787
#
# Velocity S-wave (km/s) = 3.48280 3.68713 3.58642
# Velocity P-wave (km/s) = 6.70743 6.90028 6.80454
#
# Compressibility (1/GPa) = 0.01632144
#
# Stress axis : x y z
#
# Youngs Moduli (GPa) = 61.68574 61.68586 99.68292
#
# Poissons Ratio (x) = 0.62319 0.14772
# Poissons Ratio (y) = 0.62319 0.14772
# Poissons Ratio (z) = 0.09141 0.09141
#
# Static dielectric constant tensor:
#      x y z
#    x 1.772100 0.000000 0.000000 
#    y 0.000000 1.772100 0.000000 
#    z 0.000000 0.000000 1.824080 
# 
# From -- ./inp_files/1637.got.cif
#   From: 2010.05.17/outbox.cif.g08.bks.cpg/sg127_1_cif.got.tgz:1637.got - 2010.05.20 12:03:00.
