data_PCOD9564659
_publ_section_title
;
Structure prediction by ZEFSAII (Michael W. Deem and Ramdas Pophale) SiO2 
 PCOD9564659
Probable space group: P 4/M N C
;
_chemical_formula_sum "Si O2"
_cell_formula_units_Z 96
_cell_length_a 16.261670
_cell_length_b 16.261670
_cell_length_c 21.865339
_cell_angle_alpha 90.000000
_cell_angle_beta 90.000000
_cell_angle_gamma 90.000000
_cell_volume 5782.112034
_symmetry_space_group_name_H-M "P 4/M N C"
_symmetry_group_IT_number 128
_symmetry_cell_setting 'tetragonal'
loop_
_space_group_symop_operation_xyz
x,y,z
-y,x,z
-x,-y,z
y,-x,z
1/2+x,1/2-y,1/2-z
1/2-x,1/2+y,1/2-z
1/2+y,1/2+x,1/2-z
1/2-y,1/2-x,1/2-z
-x,-y,-z
y,-x,-z
x,y,-z
-y,x,-z
1/2-x,1/2+y,1/2+z
1/2+x,1/2-y,1/2+z
1/2-y,1/2-x,1/2+z
1/2+y,1/2+x,1/2+z
loop_
_atom_site_type_symbol
_atom_site_label
_atom_site_fract_x
_atom_site_fract_y
_atom_site_fract_z
Si Si1 0.585467 0.848896 0.929523
Si Si2 0.177335 0.156152 0.223480
Si Si3 0.011748 0.248293 0.244692
Si Si4 0.419001 0.811981 0.126695
Si Si5 0.405306 0.998838 0.836578
Si Si6 0.757453 0.787017 0.356741
O O1 0.490361 0.820978 0.923240
O O2 0.642369 0.779084 0.899126
O O3 0.597044 0.932050 0.889463
O O4 0.606443 0.862736 0.000000
O O5 0.181802 0.058805 0.231751
O O6 0.215271 0.182373 0.289328
O O7 0.227236 0.183424 0.163459
O O8 0.093944 0.207255 0.219087
O O9 0.034122 0.272978 0.314231
O O10 0.985093 0.333868 0.212601
O O11 0.391411 0.905024 0.142072
O O12 0.337185 0.758666 0.115603
O O13 0.500000 0.000000 0.814714
#
# Coordination Sequence:
#
# PCOD9564659 Si02
#       6
#    16  16  16  16  16  16
#     4  11  23  37  54  77 109 151 193 228 268 315
#     4  10  20  32  58  81 113 137 179 222 280 340
#     4  11  19  35  54  87 112 144 174 222 285 340
#     4  10  21  35  55  81 111 141 179 229 277 335
#     4  10  21  32  53  82 115 140 174 222 283 335
#     4  10  19  36  54  81 107 145 179 228 274 327
#
# _framework density 16.602930000000001
#
# number of rings (size 3 to 8) (size 9 to 14) (size 15 to 20)
#    0.000    1.667    5.000    0.500    0.000    8.667 
#    0.000    0.000    0.000    0.500    0.000    1.167 
#    0.000    1.333    0.000    0.000    0.000    0.000 
#
# Total GULP energy -534627.766678 kJ/mol
# GULP energy per Si atom -5569.039236 kJ/mol
# Density = 1.656514 g / cm^3
# Si number density = 16.602930 Si / 1000 Ang^3
#
#
#
# Elastic Constant Matrix: (Units=GPa)
#
#
# Indices 1 2 3 4 5 6 
#
# 1 54.9964 31.5574 23.5786 0.0000 0.0000 0.0000
# 2 31.5574 54.9964 23.5786 0.0000 0.0000 0.0000
# 3 23.5786 23.5786 55.9420 0.0000 0.0000 0.0000
# 4 0.0000 0.0000 0.0000 11.0849 0.0000 0.0000
# 5 0.0000 0.0000 0.0000 0.0000 11.0849 0.0000
# 6 0.0000 0.0000 0.0000 0.0000 0.0000 33.5561
#
#
#
# Elastic Compliance Matrix: (Units=1/GPa)
#
#
# Indices 1 2 3 4 5 6 
#
# 1 0.028831 -0.013833 -0.006321 0.000000 0.000000 0.000000
# 2 -0.013833 0.028831 -0.006321 0.000000 0.000000 0.000000
# 3 -0.006321 -0.006321 0.023204 0.000000 0.000000 0.000000
# 4 0.000000 0.000000 0.000000 0.090213 0.000000 0.000000
# 5 0.000000 0.000000 0.000000 0.000000 0.090213 0.000000
# 6 0.000000 0.000000 0.000000 0.000000 0.000000 0.029801
#
#
# Mechanical properties :
#
#
# Convention : Reuss Voigt Hill
#
# Bulk Modulus (GPa) = 35.82377 35.92934 35.87656
# Shear Modulus (GPa) = 14.15034 16.95984 15.55509
#
# Velocity S-wave (km/s) = 2.92255 3.19955 3.06418
# Velocity P-wave (km/s) = 5.74561 5.94448 5.84589
#
# Compressibility (1/GPa) = 0.02791443
#
# Stress axis : x y z
#
# Youngs Moduli (GPa) = 34.68528 34.68528 43.09563
#
# Poissons Ratio (x) = 0.47981 0.27242
# Poissons Ratio (y) = 0.47981 0.27242
# Poissons Ratio (z) = 0.21925 0.21925
#
# Static dielectric constant tensor:
#      x y z
#    x 1.586480 0.000000 0.000000 
#    y 0.000000 1.586480 0.000000 
#    z 0.000000 0.000000 1.558220 
# 
# From -- ./inp_files/5736.got.cif
#   From: 2010.05.17/outbox.cif.g08.bks.cpg/sg128_3_cif.got.tgz:5736.got - 2010.05.20 12:07:25.
