data_PCOD9564997
_publ_section_title
;
Structure prediction by ZEFSAII (Michael W. Deem and Ramdas Pophale) SiO2 
 PCOD9564997
Probable space group: P 4/M N C
;
_chemical_formula_sum "Si O2"
_cell_formula_units_Z 80
_cell_length_a 11.732137
_cell_length_b 11.732137
_cell_length_c 30.262111
_cell_angle_alpha 90.000000
_cell_angle_beta 90.000000
_cell_angle_gamma 90.000000
_cell_volume 4165.368912
_symmetry_space_group_name_H-M "P 4/M N C"
_symmetry_group_IT_number 128
_symmetry_cell_setting 'tetragonal'
loop_
_space_group_symop_operation_xyz
x,y,z
-y,x,z
-x,-y,z
y,-x,z
1/2+x,1/2-y,1/2-z
1/2-x,1/2+y,1/2-z
1/2+y,1/2+x,1/2-z
1/2-y,1/2-x,1/2-z
-x,-y,-z
y,-x,-z
x,y,-z
-y,x,-z
1/2-x,1/2+y,1/2+z
1/2+x,1/2-y,1/2+z
1/2-y,1/2-x,1/2+z
1/2+y,1/2+x,1/2+z
loop_
_atom_site_type_symbol
_atom_site_label
_atom_site_fract_x
_atom_site_fract_y
_atom_site_fract_z
Si Si1 0.501527 0.861637 0.928491
Si Si2 0.319273 0.454371 0.771043
Si Si3 0.953450 0.819543 0.835576
Si Si4 0.136124 0.684668 0.000000
Si Si5 0.363938 0.817499 0.500000
Si Si6 0.114879 0.431949 0.836001
O O1 0.611452 0.828659 0.956921
O O2 0.494081 0.826490 0.877800
O O3 0.500000 0.000000 0.927233
O O4 0.392189 0.828175 0.957510
O O5 0.419537 0.365510 0.782710
O O6 0.308978 0.451960 0.717914
O O7 0.203353 0.427401 0.796052
O O8 0.920998 0.694653 0.852019
O O9 0.079488 0.865295 0.847917
O O10 0.197119 0.804262 0.000000
O O11 0.999999 0.691957 0.000000
O O12 0.000000 0.500000 0.823635
#
# Coordination Sequence:
#
# PCOD9564997 Si02
#       6
#    16  16  16   8   8  16
#     4   8  18  36  52  74 109 145 176 216 266 317
#     4   9  20  37  54  75 110 150 186 233 285 324
#     4   9  20  39  56  75 110 151 184 227 287 335
#     4   9  17  34  60  78 111 141 178 212 268 327
#     4   9  17  34  56  80 103 147 174 208 264 327
#     4  11  22  34  56  85 108 143 193 234 274 333
#
# _framework density 19.205981000000001
#
# number of rings (size 3 to 8) (size 9 to 14) (size 15 to 20)
#    0.000    2.800    0.000    3.000    2.800    3.400 
#    7.200    0.000    0.000    4.800    0.000    0.000 
#    0.000    0.000    0.000    0.000    0.000    0.000 
#
# Total GULP energy -446185.365009 kJ/mol
# GULP energy per Si atom -5577.317063 kJ/mol
# Density = 1.916227 g / cm^3
# Si number density = 19.205981 Si / 1000 Ang^3
#
#
#
# Elastic Constant Matrix: (Units=GPa)
#
#
# Indices 1 2 3 4 5 6 
#
# 1 65.4011 37.0949 4.5647 0.0000 0.0000 0.0000
# 2 37.0949 65.4011 4.5647 0.0000 0.0000 0.0000
# 3 4.5647 4.5647 34.8270 0.0000 0.0000 0.0000
# 4 0.0000 0.0000 0.0000 4.1700 0.0000 0.0000
# 5 0.0000 0.0000 0.0000 0.0000 4.1700 0.0000
# 6 0.0000 0.0000 0.0000 0.0000 0.0000 8.0341
#
#
#
# Elastic Compliance Matrix: (Units=1/GPa)
#
#
# Indices 1 2 3 4 5 6 
#
# 1 0.022600 -0.012728 -0.001294 0.000000 0.000000 0.000000
# 2 -0.012728 0.022600 -0.001294 0.000000 0.000000 0.000000
# 3 -0.001294 -0.001294 0.029053 0.000000 0.000000 0.000000
# 4 0.000000 0.000000 0.000000 0.239809 0.000000 0.000000
# 5 0.000000 0.000000 0.000000 0.000000 0.239809 0.000000
# 6 0.000000 0.000000 0.000000 0.000000 0.000000 0.124470
#
#
# Mechanical properties :
#
#
# Convention : Reuss Voigt Hill
#
# Bulk Modulus (GPa) = 22.92500 28.67532 25.80016
# Shear Modulus (GPa) = 6.91073 11.23514 9.07294
#
# Velocity S-wave (km/s) = 1.89895 2.42126 2.17584
# Velocity P-wave (km/s) = 4.09516 4.77279 4.44690
#
# Compressibility (1/GPa) = 0.04362051
#
# Stress axis : x y z
#
# Youngs Moduli (GPa) = 44.24815 44.24815 34.42042
#
# Poissons Ratio (x) = 0.56319 0.04454
# Poissons Ratio (y) = 0.56319 0.04454
# Poissons Ratio (z) = 0.05725 0.05725
#
# Static dielectric constant tensor:
#      x y z
#    x 1.660740 0.000000 0.000000 
#    y 0.000000 1.660740 0.000000 
#    z 0.000000 0.000000 1.703490 
# 
# From -- ./inp_files/7198.got.cif
#   From: 2010.05.17/outbox.cif.g08.bks.cpg/sg128_4_cif.got.tgz:7198.got - 2010.05.20 12:07:25.
