data_PCOD9564006
_publ_section_title
;
Structure prediction by ZEFSAII (Michael W. Deem and Ramdas Pophale) SiO2 
 PCOD9564006
Probable space group: P 4/M B M
;
_chemical_formula_sum "Si O2"
_cell_formula_units_Z 72
_cell_length_a 21.533867
_cell_length_b 21.533867
_cell_length_c 9.094350
_cell_angle_alpha 90.000000
_cell_angle_beta 90.000000
_cell_angle_gamma 90.000000
_cell_volume 4217.117648
_symmetry_space_group_name_H-M "P 4/M B M"
_symmetry_group_IT_number 127
_symmetry_cell_setting 'tetragonal'
loop_
_space_group_symop_operation_xyz
x,y,z
-y,x,z
-x,-y,z
y,-x,z
1/2+x,1/2-y,-z
1/2-x,1/2+y,-z
1/2+y,1/2+x,-z
1/2-y,1/2-x,-z
-x,-y,-z
y,-x,-z
x,y,-z
-y,x,-z
1/2-x,1/2+y,z
1/2+x,1/2-y,z
1/2-y,1/2-x,z
1/2+y,1/2+x,z
loop_
_atom_site_type_symbol
_atom_site_label
_atom_site_fract_x
_atom_site_fract_y
_atom_site_fract_z
Si Si1 0.185296 0.416716 0.177724
Si Si2 0.881946 0.812100 0.333593
Si Si3 0.846003 0.242967 0.824167
Si Si4 0.404806 0.458187 0.500000
Si Si5 0.945051 0.346135 0.821086
O O1 0.137680 0.362321 0.219942
O O2 0.252773 0.404444 0.243993
O O3 0.160013 0.484049 0.226034
O O4 0.189524 0.416880 0.000000
O O5 0.864591 0.792290 0.500000
O O6 0.821966 0.841508 0.257340
O O7 0.935586 0.863218 0.361910
O O8 0.784511 0.284511 0.796064
O O9 0.904202 0.285969 0.779257
O O10 0.849416 0.233345 0.000000
O O11 0.469568 0.420890 0.500000
O O12 0.906973 0.406973 0.771686
O O13 0.944822 0.347639 0.000000
#
# Coordination Sequence:
#
# PCOD9564006 Si02
#       5
#    16  16  16   8  16
#     4  10  20  33  51  78 112 142 170 212 261 306
#     4  10  22  32  55  77  99 130 174 210 265 312
#     4   9  17  31  51  75 106 138 170 214 262 302
#     4   9  22  42  57  74 102 133 168 213 269 321
#     4   8  16  31  52  77 104 139 179 214 249 297
#
# _framework density 17.073271999999999
#
# number of rings (size 3 to 8) (size 9 to 14) (size 15 to 20)
#    0.667    2.111    0.000    2.667    3.111    4.000 
#    0.000    2.222    0.000    2.000    0.000    7.778 
#    0.000    0.000    0.000    0.000    0.000    0.000 
#
# Total GULP energy -400972.408941 kJ/mol
# GULP energy per Si atom -5569.061235 kJ/mol
# Density = 1.703441 g / cm^3
# Si number density = 17.073272 Si / 1000 Ang^3
#
#
#
# Elastic Constant Matrix: (Units=GPa)
#
#
# Indices 1 2 3 4 5 6 
#
# 1 133.5917 69.8647 24.3074 0.0000 0.0000 0.0000
# 2 69.8647 133.5917 24.3074 0.0000 0.0000 0.0000
# 3 24.3074 24.3074 17.6738 0.0000 0.0000 0.0000
# 4 0.0000 0.0000 0.0000 15.1477 0.0000 0.0000
# 5 0.0000 0.0000 0.0000 0.0000 15.1477 0.0000
# 6 0.0000 0.0000 0.0000 0.0000 0.0000 16.0856
#
#
#
# Elastic Compliance Matrix: (Units=1/GPa)
#
#
# Indices 1 2 3 4 5 6 
#
# 1 0.011506 -0.004185 -0.010069 0.000000 0.000000 0.000000
# 2 -0.004185 0.011506 -0.010069 0.000000 0.000000 0.000000
# 3 -0.010069 -0.010069 0.084277 0.000000 0.000000 0.000000
# 4 0.000000 0.000000 0.000000 0.066017 0.000000 0.000000
# 5 0.000000 0.000000 0.000000 0.000000 0.066017 0.000000
# 6 0.000000 0.000000 0.000000 0.000000 0.000000 0.062168
#
#
# Mechanical properties :
#
#
# Convention : Reuss Voigt Hill
#
# Bulk Modulus (GPa) = 17.05214 57.97959 37.51586
# Shear Modulus (GPa) = 13.52505 20.36805 16.94655
#
# Velocity S-wave (km/s) = 2.81762 3.45770 3.15394
# Velocity P-wave (km/s) = 4.53813 7.06922 5.94005
#
# Compressibility (1/GPa) = 0.05864367
#
# Stress axis : x y z
#
# Youngs Moduli (GPa) = 86.90789 86.90789 11.86565
#
# Poissons Ratio (x) = 0.36375 0.11947
# Poissons Ratio (y) = 0.36375 0.11947
# Poissons Ratio (z) = 0.87506 0.87506
#
# Static dielectric constant tensor:
#      x y z
#    x 1.570500 0.000000 0.000000 
#    y 0.000000 1.570500 0.000000 
#    z 0.000000 0.000000 1.570520 
# 
# From -- ./inp_files/1597.got.cif
#   From: 2010.05.17/outbox.cif.g08.bks.cpg/sg127_1_cif.got.tgz:1597.got - 2010.05.20 12:03:00.
