data_PCOD9564474
_publ_section_title
;
Structure prediction by ZEFSAII (Michael W. Deem and Ramdas Pophale) SiO2 
 PCOD9564474
Probable space group: P 4/M B M
;
_chemical_formula_sum "Si O2"
_cell_formula_units_Z 56
_cell_length_a 17.849382
_cell_length_b 17.849382
_cell_length_c 7.392378
_cell_angle_alpha 90.000000
_cell_angle_beta 90.000000
_cell_angle_gamma 90.000000
_cell_volume 2355.214867
_symmetry_space_group_name_H-M "P 4/M B M"
_symmetry_group_IT_number 127
_symmetry_cell_setting 'tetragonal'
loop_
_space_group_symop_operation_xyz
x,y,z
-y,x,z
-x,-y,z
y,-x,z
1/2+x,1/2-y,-z
1/2-x,1/2+y,-z
1/2+y,1/2+x,-z
1/2-y,1/2-x,-z
-x,-y,-z
y,-x,-z
x,y,-z
-y,x,-z
1/2-x,1/2+y,z
1/2+x,1/2-y,z
1/2-y,1/2-x,z
1/2+y,1/2+x,z
loop_
_atom_site_type_symbol
_atom_site_label
_atom_site_fract_x
_atom_site_fract_y
_atom_site_fract_z
Si Si1 0.705989 0.677431 0.279372
Si Si2 0.205371 0.578698 0.700516
Si Si3 0.004395 0.374179 0.000000
Si Si4 0.109242 0.949982 0.719969
O O1 0.708191 0.678004 0.500000
O O2 0.781283 0.718718 0.216934
O O3 0.682276 0.594916 0.220130
O O4 0.730783 0.364675 0.230546
O O5 0.227498 0.552131 0.500000
O O6 0.134052 0.634052 0.684101
O O7 0.177513 0.513030 0.827993
O O8 0.082675 0.417326 0.000000
O O9 0.940001 0.440001 0.000000
O O10 0.109139 0.950635 0.500000
O O11 0.034925 0.904194 0.776780
#
# Coordination Sequence:
#
# PCOD9564474 Si02
#       4
#    16  16   8  16
#     4   8  13  22  37  56  80 112 147 184 230 284
#     4   8  14  24  37  55  80 109 144 188 231 269
#     4   9  16  24  36  56  80 109 148 190 233 282
#     4   8  13  21  35  58  87 115 145 189 243 290
#
# _framework density 23.777024999999998
#
# number of rings (size 3 to 8) (size 9 to 14) (size 15 to 20)
#    0.000    3.857    0.000    2.571    0.000    0.571 
#    0.000    2.857    0.000    1.714    0.000   10.000 
#    0.000    4.571    0.000    0.286    0.000    0.000 
#
# Total GULP energy -312497.318747 kJ/mol
# GULP energy per Si atom -5580.309263 kJ/mol
# Density = 2.372291 g / cm^3
# Si number density = 23.777025 Si / 1000 Ang^3
#
#
#
# Elastic Constant Matrix: (Units=GPa)
#
#
# Indices 1 2 3 4 5 6 
#
# 1 76.9853 85.7973 4.5877 0.0000 0.0000 0.0000
# 2 85.7973 76.9862 4.5881 0.0000 0.0000 0.0000
# 3 4.5877 4.5881 74.4671 0.0000 0.0000 0.0000
# 4 0.0000 0.0000 0.0000 -0.4216 0.0000 0.0000
# 5 0.0000 0.0000 0.0000 0.0000 -0.4220 0.0000
# 6 0.0000 0.0000 0.0000 0.0000 0.0000 38.4410
#
#
#
# Elastic Compliance Matrix: (Units=1/GPa)
#
#
# Indices 1 2 3 4 5 6 
#
# 1 -0.053662 0.059826 -0.000380 0.000000 0.000000 0.000000
# 2 0.059826 -0.053661 -0.000380 0.000000 0.000000 0.000000
# 3 -0.000380 -0.000380 0.013476 0.000000 0.000000 0.000000
# 4 0.000000 0.000000 0.000000 -2.371921 0.000000 0.000000
# 5 0.000000 0.000000 0.000000 0.000000 -2.369653 0.000000
# 6 0.000000 0.000000 0.000000 0.000000 0.000000 0.026014
#
#
# Mechanical properties :
#
#
# Convention : Reuss Voigt Hill
#
# Bulk Modulus (GPa) = 41.17690 46.48721 43.83206
# Shear Modulus (GPa) = -1.01637 16.41718 7.70040
#
# Velocity S-wave (km/s) = -0.65451 2.63052 1.80156
# Velocity P-wave (km/s) = 4.09687 5.36842 4.77516
#
# Compressibility (1/GPa) = 0.02428546
#
# Stress axis : x y z
#
# Youngs Moduli (GPa) = -18.63526 -18.63547 74.20854
#
# Poissons Ratio (x) = 1.11489 0.02820
# Poissons Ratio (y) = 1.11487 0.02817
# Poissons Ratio (z) = -0.00708 -0.00707
#
# Static dielectric constant tensor:
#      x y z
#    x 1.880720 0.000000 0.000000 
#    y 0.000000 1.880720 0.000000 
#    z 0.000000 0.000000 1.916400 
# 
# From -- ./inp_files/1097.got.cif
#   From: 2010.05.17/outbox.cif.g08.bks.cpg/sg127_1_cif.got.tgz:1097.got - 2010.05.20 12:03:00.
