data_PCOD9564483
_publ_section_title
;
Structure prediction by ZEFSAII (Michael W. Deem and Ramdas Pophale) SiO2 
 PCOD9564483
Probable space group: P 4/M B M
;
_chemical_formula_sum "Si O2"
_cell_formula_units_Z 72
_cell_length_a 22.188971
_cell_length_b 22.188971
_cell_length_c 7.537451
_cell_angle_alpha 90.000000
_cell_angle_beta 90.000000
_cell_angle_gamma 90.000000
_cell_volume 3711.067271
_symmetry_space_group_name_H-M "P 4/M B M"
_symmetry_group_IT_number 127
_symmetry_cell_setting 'tetragonal'
loop_
_space_group_symop_operation_xyz
x,y,z
-y,x,z
-x,-y,z
y,-x,z
1/2+x,1/2-y,-z
1/2-x,1/2+y,-z
1/2+y,1/2+x,-z
1/2-y,1/2-x,-z
-x,-y,-z
y,-x,-z
x,y,-z
-y,x,-z
1/2-x,1/2+y,z
1/2+x,1/2-y,z
1/2-y,1/2-x,z
1/2+y,1/2+x,z
loop_
_atom_site_type_symbol
_atom_site_label
_atom_site_fract_x
_atom_site_fract_y
_atom_site_fract_z
Si Si1 0.120187 0.113814 0.797371
Si Si2 0.186153 0.994006 0.214974
Si Si3 0.312593 0.044883 0.710710
Si Si4 0.242281 0.163714 0.714785
Si Si5 0.450445 0.049556 0.282614
O O1 0.063607 0.148989 0.719096
O O2 0.176685 0.158247 0.793944
O O3 0.149502 0.052990 0.719118
O O4 0.103255 0.098451 0.000000
O O5 0.257159 0.998502 0.260683
O O6 0.185143 0.994683 0.000000
O O7 0.319168 0.051526 0.500000
O O8 0.283969 0.107874 0.776797
O O9 0.381130 0.034868 0.774999
O O10 0.237919 0.159579 0.500000
O O11 0.275455 0.224546 0.761445
O O12 0.451483 0.048518 0.500000
O O13 0.500000 0.000000 0.225027
#
# Coordination Sequence:
#
# PCOD9564483 Si02
#       5
#    16  16  16  16   8
#     4   9  18  31  47  68  94 124 159 195 235 282
#     4   9  18  32  48  68  94 124 158 196 237 280
#     4   9  16  29  49  70  93 120 151 191 234 274
#     4   9  16  28  47  69  91 116 152 196 237 276
#     4   9  16  28  49  75  97 121 157 193 229 280
#
# _framework density 19.401425
#
# number of rings (size 3 to 8) (size 9 to 14) (size 15 to 20)
#    0.000    3.000    1.111    0.000    0.000    1.778 
#    0.000    3.889    0.000    5.333    0.000    6.222 
#    0.000    0.000    0.000    0.000    0.000    0.000 
#
# Total GULP energy -400811.924278 kJ/mol
# GULP energy per Si atom -5566.832282 kJ/mol
# Density = 1.935727 g / cm^3
# Si number density = 19.401425 Si / 1000 Ang^3
#
#
#
# Elastic Constant Matrix: (Units=GPa)
#
#
# Indices 1 2 3 4 5 6 
#
# 1 132.2060 95.8566 0.6900 0.0000 0.0000 0.0000
# 2 95.8566 132.2063 0.6902 0.0000 0.0000 0.0000
# 3 0.6900 0.6902 43.4756 0.0000 0.0000 0.0000
# 4 0.0000 0.0000 0.0000 11.8364 0.0000 0.0000
# 5 0.0000 0.0000 0.0000 0.0000 11.8364 0.0000
# 6 0.0000 0.0000 0.0000 0.0000 0.0000 29.7988
#
#
#
# Elastic Compliance Matrix: (Units=1/GPa)
#
#
# Indices 1 2 3 4 5 6 
#
# 1 0.015948 -0.011563 -0.000070 0.000000 0.000000 0.000000
# 2 -0.011563 0.015948 -0.000070 0.000000 0.000000 0.000000
# 3 -0.000070 -0.000070 0.023004 0.000000 0.000000 0.000000
# 4 0.000000 0.000000 0.000000 0.084485 0.000000 0.000000
# 5 0.000000 0.000000 0.000000 0.000000 0.084485 0.000000
# 6 0.000000 0.000000 0.000000 0.000000 0.000000 0.033558
#
#
# Mechanical properties :
#
#
# Convention : Reuss Voigt Hill
#
# Bulk Modulus (GPa) = 31.75053 55.81796 43.78424
# Shear Modulus (GPa) = 17.16262 24.73772 20.95017
#
# Velocity S-wave (km/s) = 2.97746 3.57465 3.28964
# Velocity P-wave (km/s) = 5.31234 6.77274 6.08650
#
# Compressibility (1/GPa) = 0.03149554
#
# Stress axis : x y z
#
# Youngs Moduli (GPa) = 62.70408 62.70420 43.47142
#
# Poissons Ratio (x) = 0.72503 0.00302
# Poissons Ratio (y) = 0.72503 0.00303
# Poissons Ratio (z) = 0.00436 0.00437
#
# Static dielectric constant tensor:
#      x y z
#    x 1.679290 0.000000 0.000000 
#    y 0.000000 1.679290 0.000000 
#    z 0.000000 0.000000 1.781340 
# 
# From -- ./inp_files/1508.got.cif
#   From: 2010.05.17/outbox.cif.g08.bks.cpg/sg127_1_cif.got.tgz:1508.got - 2010.05.20 12:03:00.
