data_PCOD9564412
_publ_section_title
;
Structure prediction by ZEFSAII (Michael W. Deem and Ramdas Pophale) SiO2 
 PCOD9564412
Probable space group: P 4/M B M
;
_chemical_formula_sum "Si O2"
_cell_formula_units_Z 96
_cell_length_a 15.309956
_cell_length_b 15.309956
_cell_length_c 23.938984
_cell_angle_alpha 90.000000
_cell_angle_beta 90.000000
_cell_angle_gamma 90.000000
_cell_volume 5611.172235
_symmetry_space_group_name_H-M "P 4/M B M"
_symmetry_group_IT_number 127
_symmetry_cell_setting 'tetragonal'
loop_
_space_group_symop_operation_xyz
x,y,z
-y,x,z
-x,-y,z
y,-x,z
1/2+x,1/2-y,-z
1/2-x,1/2+y,-z
1/2+y,1/2+x,-z
1/2-y,1/2-x,-z
-x,-y,-z
y,-x,-z
x,y,-z
-y,x,-z
1/2-x,1/2+y,z
1/2+x,1/2-y,z
1/2-y,1/2-x,z
1/2+y,1/2+x,z
loop_
_atom_site_type_symbol
_atom_site_label
_atom_site_fract_x
_atom_site_fract_y
_atom_site_fract_z
Si Si1 0.061284 0.290899 0.066637
Si Si2 0.503400 0.744392 0.387966
Si Si3 0.820148 0.176410 0.434363
Si Si4 0.354119 0.474061 0.277948
Si Si5 0.074736 0.574736 0.935315
Si Si6 0.957183 0.859696 0.152114
Si Si7 0.426195 0.073806 0.565531
O O1 0.141629 0.358372 0.073030
O O2 0.069958 0.206924 0.104477
O O3 0.973043 0.340366 0.087304
O O4 0.053932 0.273128 0.000000
O O5 0.587305 0.685546 0.403749
O O6 0.418409 0.721068 0.424237
O O7 0.474288 0.720098 0.325025
O O8 0.536030 0.841360 0.403039
O O9 0.835494 0.188982 0.500000
O O10 0.751699 0.251699 0.415811
O O11 0.432240 0.403184 0.283861
O O12 0.321346 0.456571 0.215002
O O13 0.000000 0.500000 0.935370
O O14 0.094108 0.594108 0.000000
O O15 0.055651 0.895780 0.146960
O O16 0.405010 0.094991 0.500000
O O17 0.500000 0.000000 0.564884
#
# Coordination Sequence:
#
# PCOD9564412 Si02
#       7
#    16  16  16  16   8  16   8
#     4   9  17  32  54  81 113 145 181 229 277 327
#     4  12  21  37  61  83 111 149 188 237 290 343
#     4  11  23  37  55  85 118 146 185 235 287 347
#     4   9  18  36  58  81 106 142 184 228 283 336
#     4   7  12  26  49  73 101 141 176 204 260 322
#     4   9  19  36  57  77 108 150 188 226 275 337
#     4  11  24  42  59  79 117 162 192 221 280 357
#
# _framework density 17.108725
#
# number of rings (size 3 to 8) (size 9 to 14) (size 15 to 20)
#    0.000    2.167    2.500    4.000    0.000    2.333 
#    1.500    4.167    5.500    1.000    0.000    0.000 
#    0.000    0.000    0.000    0.000    0.000    0.000 
#
# Total GULP energy -534701.654632 kJ/mol
# GULP energy per Si atom -5569.808902 kJ/mol
# Density = 1.706978 g / cm^3
# Si number density = 17.108725 Si / 1000 Ang^3
#
#
#
# Elastic Constant Matrix: (Units=GPa)
#
#
# Indices 1 2 3 4 5 6 
#
# 1 41.0710 18.7216 32.6020 0.0000 0.0000 0.0000
# 2 18.7216 41.0712 32.6021 0.0000 0.0000 0.0000
# 3 32.6020 32.6021 100.2681 0.0000 0.0000 0.0000
# 4 0.0000 0.0000 0.0000 22.5277 0.0000 0.0000
# 5 0.0000 0.0000 0.0000 0.0000 22.5276 0.0000
# 6 0.0000 0.0000 0.0000 0.0000 0.0000 16.5950
#
#
#
# Elastic Compliance Matrix: (Units=1/GPa)
#
#
# Indices 1 2 3 4 5 6 
#
# 1 0.035328 -0.009416 -0.008425 0.000000 0.000000 0.000000
# 2 -0.009416 0.035328 -0.008425 0.000000 0.000000 0.000000
# 3 -0.008425 -0.008425 0.015452 0.000000 0.000000 0.000000
# 4 0.000000 0.000000 0.000000 0.044390 0.000000 0.000000
# 5 0.000000 0.000000 0.000000 0.000000 0.044390 0.000000
# 6 0.000000 0.000000 0.000000 0.000000 0.000000 0.060259
#
#
# Mechanical properties :
#
#
# Convention : Reuss Voigt Hill
#
# Bulk Modulus (GPa) = 29.78365 38.91797 34.35081
# Shear Modulus (GPa) = 16.72956 18.89569 17.81262
#
# Velocity S-wave (km/s) = 3.13043 3.32693 3.23017
# Velocity P-wave (km/s) = 5.52380 6.12819 5.83383
#
# Compressibility (1/GPa) = 0.03357547
#
# Stress axis : x y z
#
# Youngs Moduli (GPa) = 28.30606 28.30615 64.71538
#
# Poissons Ratio (x) = 0.26652 0.54525
# Poissons Ratio (y) = 0.26652 0.54525
# Poissons Ratio (z) = 0.23849 0.23849
#
# Static dielectric constant tensor:
#      x y z
#    x 1.582580 0.000000 0.000000 
#    y 0.000000 1.582580 0.000000 
#    z 0.000000 0.000000 1.575750 
# 
# From -- ./inp_files/6123.got.cif
#   From: 2010.05.17/outbox.cif.g08.bks.cpg/sg127_4_cif.got.tgz:6123.got - 2010.05.20 12:03:00.
