data_PCOD9564786
_publ_section_title
;
Structure prediction by ZEFSAII (Michael W. Deem and Ramdas Pophale) SiO2 
 PCOD9564786
Probable space group: P 4/M N C
;
_chemical_formula_sum "Si O2"
_cell_formula_units_Z 80
_cell_length_a 23.267631
_cell_length_b 23.267631
_cell_length_c 9.503454
_cell_angle_alpha 90.000000
_cell_angle_beta 90.000000
_cell_angle_gamma 90.000000
_cell_volume 5145.005133
_symmetry_space_group_name_H-M "P 4/M N C"
_symmetry_group_IT_number 128
_symmetry_cell_setting 'tetragonal'
loop_
_space_group_symop_operation_xyz
x,y,z
-y,x,z
-x,-y,z
y,-x,z
1/2+x,1/2-y,1/2-z
1/2-x,1/2+y,1/2-z
1/2+y,1/2+x,1/2-z
1/2-y,1/2-x,1/2-z
-x,-y,-z
y,-x,-z
x,y,-z
-y,x,-z
1/2-x,1/2+y,1/2+z
1/2+x,1/2-y,1/2+z
1/2-y,1/2-x,1/2+z
1/2+y,1/2+x,1/2+z
loop_
_atom_site_type_symbol
_atom_site_label
_atom_site_fract_x
_atom_site_fract_y
_atom_site_fract_z
Si Si1 0.909188 0.520335 0.500000
Si Si2 0.875832 0.709294 0.665309
Si Si3 0.301314 0.285047 0.831056
Si Si4 0.997223 0.672904 0.756421
Si Si5 0.378306 0.207760 0.333516
Si Si6 0.905840 0.475258 0.000000
O O1 0.871484 0.530994 0.635246
O O2 0.925585 0.452865 0.500000
O O3 0.966096 0.557669 0.500000
O O4 0.838090 0.661911 0.750000
O O5 0.870092 0.695071 0.500000
O O6 0.847090 0.771945 0.687998
O O7 0.943097 0.709134 0.703089
O O8 0.255995 0.244006 0.750000
O O9 0.358482 0.265483 0.749409
O O10 0.305235 0.274664 0.000000
O O11 0.052883 0.702451 0.823232
O O12 0.023948 0.634574 0.633228
O O13 0.343948 0.156053 0.250000
O O14 0.362388 0.207325 0.500000
#
# Coordination Sequence:
#
# PCOD9564786 Si02
#       6
#     8  16  16  16  16   8
#     4  11  22  36  44  66  92 134 176 211 240 280
#     4  10  21  35  52  73  97 128 166 207 255 300
#     4   9  18  33  53  73  93 121 159 205 255 306
#     4  12  23  33  49  71  96 130 169 214 247 291
#     4  11  22  35  51  72  97 128 167 208 255 299
#     4  11  22  34  50  60  94 134 176 209 246 274
#
# _framework density 15.549061999999999
#
# number of rings (size 3 to 8) (size 9 to 14) (size 15 to 20)
#    0.000    1.400    2.000    6.000    4.200    2.400 
#    0.000    0.000    0.000    0.000    0.000    0.000 
#    0.000    0.800    0.000    6.200    0.000    1.600 
#
# Total GULP energy -445798.925222 kJ/mol
# GULP energy per Si atom -5572.486565 kJ/mol
# Density = 1.551367 g / cm^3
# Si number density = 15.549062 Si / 1000 Ang^3
#
#
#
# Elastic Constant Matrix: (Units=GPa)
#
#
# Indices 1 2 3 4 5 6 
#
# 1 66.2179 39.4937 24.8627 0.0000 0.0000 0.0000
# 2 39.4937 66.2190 24.8624 0.0000 0.0000 0.0000
# 3 24.8627 24.8624 109.9910 0.0000 0.0000 0.0000
# 4 0.0000 0.0000 0.0000 8.0513 0.0000 0.0000
# 5 0.0000 0.0000 0.0000 0.0000 8.0913 0.0000
# 6 0.0000 0.0000 0.0000 0.0000 0.0000 23.4407
#
#
#
# Elastic Compliance Matrix: (Units=1/GPa)
#
#
# Indices 1 2 3 4 5 6 
#
# 1 0.024002 -0.013417 -0.002393 0.000000 0.000000 0.000000
# 2 -0.013417 0.024002 -0.002393 0.000000 0.000000 0.000000
# 3 -0.002393 -0.002393 0.010173 0.000000 0.000000 0.000000
# 4 0.000000 0.000000 0.000000 0.124203 0.000000 0.000000
# 5 0.000000 0.000000 0.000000 0.000000 0.123590 0.000000
# 6 0.000000 0.000000 0.000000 0.000000 0.000000 0.042661
#
#
# Mechanical properties :
#
#
# Convention : Reuss Voigt Hill
#
# Bulk Modulus (GPa) = 45.92868 46.76281 46.34575
# Shear Modulus (GPa) = 12.74560 18.13061 15.43810
#
# Velocity S-wave (km/s) = 2.86615 3.41842 3.15439
# Velocity P-wave (km/s) = 6.36829 6.76169 6.56793
#
# Compressibility (1/GPa) = 0.02177289
#
# Stress axis : x y z
#
# Youngs Moduli (GPa) = 41.66306 41.66391 98.29614
#
# Poissons Ratio (x) = 0.55899 0.23520
# Poissons Ratio (y) = 0.55898 0.23518
# Poissons Ratio (z) = 0.09969 0.09968
#
# Static dielectric constant tensor:
#      x y z
#    x 1.539250 0.000000 0.000000 
#    y 0.000000 1.539240 0.000000 
#    z 0.000000 0.000000 1.539160 
# 
# From -- ./inp_files/1390.got.cif
#   From: 2010.05.17/outbox.cif.g08.bks.cpg/sg128_1_cif.got.tgz:1390.got - 2010.05.20 12:07:25.
