data_PCOD9564436
_publ_section_title
;
Structure prediction by ZEFSAII (Michael W. Deem and Ramdas Pophale) SiO2 
 PCOD9564436
Probable space group: P 4/M B M
;
_chemical_formula_sum "Si O2"
_cell_formula_units_Z 88
_cell_length_a 12.475419
_cell_length_b 12.475419
_cell_length_c 29.635674
_cell_angle_alpha 90.000000
_cell_angle_beta 90.000000
_cell_angle_gamma 90.000000
_cell_volume 4612.380107
_symmetry_space_group_name_H-M "P 4/M B M"
_symmetry_group_IT_number 127
_symmetry_cell_setting 'tetragonal'
loop_
_space_group_symop_operation_xyz
x,y,z
-y,x,z
-x,-y,z
y,-x,z
1/2+x,1/2-y,-z
1/2-x,1/2+y,-z
1/2+y,1/2+x,-z
1/2-y,1/2-x,-z
-x,-y,-z
y,-x,-z
x,y,-z
-y,x,-z
1/2-x,1/2+y,z
1/2+x,1/2-y,z
1/2-y,1/2-x,z
1/2+y,1/2+x,z
loop_
_atom_site_type_symbol
_atom_site_label
_atom_site_fract_x
_atom_site_fract_y
_atom_site_fract_z
Si Si1 0.998988 0.670558 0.779930
Si Si2 0.826166 0.036023 0.298260
Si Si3 0.464315 0.677123 0.405008
Si Si4 0.821740 0.504170 0.949335
Si Si5 0.410519 0.910519 0.554150
Si Si6 0.475692 0.322952 0.863197
O O1 0.909200 0.590801 0.798906
O O2 0.952074 0.732282 0.737124
O O3 0.034062 0.747660 0.819919
O O4 0.098313 0.598313 0.764512
O O5 0.799891 0.041310 0.351241
O O6 0.919534 0.121724 0.289853
O O7 0.377358 0.581457 0.414516
O O8 0.441582 0.790081 0.429286
O O9 0.883827 0.616174 0.940729
O O10 0.741157 0.475334 0.909856
O O11 0.913518 0.413518 0.949740
O O12 0.774643 0.508446 0.000000
O O13 0.409991 0.909991 0.500000
O O14 0.500000 0.000000 0.568702
O O15 0.588603 0.383908 0.861038
#
# Coordination Sequence:
#
# PCOD9564436 Si02
#       6
#    16  16  16  16   8  16
#     4  11  24  38  54  83 117 149 190 234 286 343
#     4   9  19  38  62  88 118 151 194 241 290 352
#     4   9  21  43  68  94 127 172 218 264 323 387
#     4   9  19  37  60  84 109 139 178 226 280 338
#     4  11  26  42  62  97 135 169 215 274 325 375
#     4  11  24  39  55  78 110 147 187 234 282 333
#
# _framework density 19.079087999999999
#
# number of rings (size 3 to 8) (size 9 to 14) (size 15 to 20)
#    0.000    2.091    0.000    3.818    2.545   10.182 
#    3.273    3.636    0.000    0.000    0.000    0.000 
#    0.000    0.000    0.000    0.000    0.000    0.000 
#
# Total GULP energy -491194.907165 kJ/mol
# GULP energy per Si atom -5581.760309 kJ/mol
# Density = 1.903566 g / cm^3
# Si number density = 19.079088 Si / 1000 Ang^3
#
#
#
# Elastic Constant Matrix: (Units=GPa)
#
#
# Indices 1 2 3 4 5 6 
#
# 1 77.6641 17.5496 29.7223 0.0000 0.0000 0.0000
# 2 17.5496 77.6641 29.7223 0.0000 0.0000 0.0000
# 3 29.7223 29.7223 52.7273 0.0000 0.0000 0.0000
# 4 0.0000 0.0000 0.0000 43.1255 0.0000 0.0000
# 5 0.0000 0.0000 0.0000 0.0000 43.1255 0.0000
# 6 0.0000 0.0000 0.0000 0.0000 0.0000 -56.0037
#
#
#
# Elastic Compliance Matrix: (Units=1/GPa)
#
#
# Indices 1 2 3 4 5 6 
#
# 1 0.016421 -0.000214 -0.009135 0.000000 0.000000 0.000000
# 2 -0.000214 0.016421 -0.009135 0.000000 0.000000 0.000000
# 3 -0.009135 -0.009135 0.029265 0.000000 0.000000 0.000000
# 4 0.000000 0.000000 0.000000 0.023188 0.000000 0.000000
# 5 0.000000 0.000000 0.000000 0.000000 0.023188 0.000000
# 6 0.000000 0.000000 0.000000 0.000000 0.000000 -0.017856
#
#
# Mechanical properties :
#
#
# Convention : Reuss Voigt Hill
#
# Bulk Modulus (GPa) = 39.78439 40.22711 40.00575
# Shear Modulus (GPa) = 36.77140 14.78687 25.77913
#
# Velocity S-wave (km/s) = 4.39488 2.78696 3.67982
# Velocity P-wave (km/s) = 6.83015 5.61127 6.25049
#
# Compressibility (1/GPa) = 0.02513548
#
# Stress axis : x y z
#
# Youngs Moduli (GPa) = 60.89923 60.89923 34.17073
#
# Poissons Ratio (x) = 0.01305 0.31216
# Poissons Ratio (y) = 0.01305 0.31216
# Poissons Ratio (z) = 0.55634 0.55634
#
# Static dielectric constant tensor:
#      x y z
#    x 1.632140 0.000000 0.000000 
#    y 0.000000 1.632140 0.000000 
#    z 0.000000 0.000000 1.634300 
# 
# From -- ./inp_files/6549.got.cif
#   From: 2010.05.17/outbox.cif.g08.bks.cpg/sg127_4_cif.got.tgz:6549.got - 2010.05.20 12:03:00.
