data_PCOD9564421
_publ_section_title
;
Structure prediction by ZEFSAII (Michael W. Deem and Ramdas Pophale) SiO2 
 PCOD9564421
Probable space group: P 4/M B M
;
_chemical_formula_sum "Si O2"
_cell_formula_units_Z 88
_cell_length_a 11.769994
_cell_length_b 11.769994
_cell_length_c 32.749359
_cell_angle_alpha 90.000000
_cell_angle_beta 90.000000
_cell_angle_gamma 90.000000
_cell_volume 4536.859050
_symmetry_space_group_name_H-M "P 4/M B M"
_symmetry_group_IT_number 127
_symmetry_cell_setting 'tetragonal'
loop_
_space_group_symop_operation_xyz
x,y,z
-y,x,z
-x,-y,z
y,-x,z
1/2+x,1/2-y,-z
1/2-x,1/2+y,-z
1/2+y,1/2+x,-z
1/2-y,1/2-x,-z
-x,-y,-z
y,-x,-z
x,y,-z
-y,x,-z
1/2-x,1/2+y,z
1/2+x,1/2-y,z
1/2-y,1/2-x,z
1/2+y,1/2+x,z
loop_
_atom_site_type_symbol
_atom_site_label
_atom_site_fract_x
_atom_site_fract_y
_atom_site_fract_z
Si Si1 0.465653 0.689936 0.365773
Si Si2 0.812612 0.966164 0.000000
Si Si3 0.995489 0.315074 0.916530
Si Si4 0.184715 0.968419 0.164493
Si Si5 0.403634 0.903634 0.688260
Si Si6 0.809969 0.032837 0.543768
Si Si7 0.095587 0.404414 0.784347
O O1 0.372764 0.588113 0.362252
O O2 0.444352 0.787417 0.333105
O O3 0.457185 0.743451 0.411550
O O4 0.740696 0.958305 0.958815
O O5 0.872823 0.088929 0.000000
O O6 0.099362 0.400639 0.924470
O O7 0.032651 0.225446 0.882528
O O8 0.891805 0.391805 0.899876
O O9 0.291483 0.946255 0.193061
O O10 0.089676 0.873443 0.171749
O O11 0.385373 0.885373 0.736398
O O12 0.500000 0.000000 0.683082
O O13 0.748122 0.043275 0.500000
O O14 0.911294 0.125779 0.543517
O O15 0.000000 0.500000 0.789170
#
# Coordination Sequence:
#
# PCOD9564421 Si02
#       7
#    16   8  16  16   8  16   8
#     4   9  19  37  62  89 120 161 207 253 306 370
#     4  11  24  39  56  86 128 171 220 268 307 359
#     4  11  23  39  63  93 128 169 212 259 311 373
#     4  11  25  44  70 101 128 162 208 260 316 379
#     4  11  26  42  61  91 123 161 203 256 318 379
#     4   7  10  21  47  82 114 149 198 249 295 353
#     4  11  26  46  68  91 125 163 204 258 324 383
#
# _framework density 19.396677
#
# number of rings (size 3 to 8) (size 9 to 14) (size 15 to 20)
#    0.000    2.091    0.909    3.818    3.818    6.545 
#    0.000    2.273    0.000    1.091    0.000    0.000 
#    0.000    0.000    0.000    0.000    0.000    0.000 
#
# Total GULP energy -491266.518892 kJ/mol
# GULP energy per Si atom -5582.574078 kJ/mol
# Density = 1.935253 g / cm^3
# Si number density = 19.396677 Si / 1000 Ang^3
#
#
#
# Elastic Constant Matrix: (Units=GPa)
#
#
# Indices 1 2 3 4 5 6 
#
# 1 68.0508 46.0092 55.2485 0.0000 0.0000 0.0000
# 2 46.0092 68.0508 55.2485 0.0000 0.0000 0.0000
# 3 55.2485 55.2485 156.0969 0.0000 0.0000 0.0000
# 4 0.0000 0.0000 0.0000 30.5391 0.0000 0.0000
# 5 0.0000 0.0000 0.0000 0.0000 30.5391 0.0000
# 6 0.0000 0.0000 0.0000 0.0000 0.0000 -0.1849
#
#
#
# Elastic Compliance Matrix: (Units=1/GPa)
#
#
# Indices 1 2 3 4 5 6 
#
# 1 0.029355 -0.016013 -0.004722 0.000000 0.000000 0.000000
# 2 -0.016013 0.029355 -0.004722 0.000000 0.000000 0.000000
# 3 -0.004722 -0.004722 0.009749 0.000000 0.000000 0.000000
# 4 0.000000 0.000000 0.000000 0.032745 0.000000 0.000000
# 5 0.000000 0.000000 0.000000 0.000000 0.032745 0.000000
# 6 0.000000 0.000000 0.000000 0.000000 0.000000 -5.407262
#
#
# Mechanical properties :
#
#
# Convention : Reuss Voigt Hill
#
# Bulk Modulus (GPa) = 56.99904 67.24563 62.12233
# Shear Modulus (GPa) = -0.95849 21.22481 10.13316
#
# Velocity S-wave (km/s) = -0.70372 3.31153 2.28812
# Velocity P-wave (km/s) = 5.36558 7.02606 6.25120
#
# Compressibility (1/GPa) = 0.01754416
#
# Stress axis : x y z
#
# Youngs Moduli (GPa) = 34.06527 34.06527 102.57422
#
# Poissons Ratio (x) = 0.54550 0.48438
# Poissons Ratio (y) = 0.54550 0.48438
# Poissons Ratio (z) = 0.16086 0.16086
#
# Static dielectric constant tensor:
#      x y z
#    x 1.664960 0.000000 0.000000 
#    y 0.000000 1.664960 0.000000 
#    z 0.000000 0.000000 1.678500 
# 
# From -- ./inp_files/6577.got.cif
#   From: 2010.05.17/outbox.cif.g08.bks.cpg/sg127_4_cif.got.tgz:6577.got - 2010.05.20 12:03:00.
