data_PCOD9564612
_publ_section_title
;
Structure prediction by ZEFSAII (Michael W. Deem and Ramdas Pophale) SiO2 
 PCOD9564612
Probable space group: P 4/M N C
;
_chemical_formula_sum "Si O2"
_cell_formula_units_Z 104
_cell_length_a 25.668276
_cell_length_b 25.668276
_cell_length_c 7.835163
_cell_angle_alpha 90.000000
_cell_angle_beta 90.000000
_cell_angle_gamma 90.000000
_cell_volume 5162.278572
_symmetry_space_group_name_H-M "P 4/M N C"
_symmetry_group_IT_number 128
_symmetry_cell_setting 'tetragonal'
loop_
_space_group_symop_operation_xyz
x,y,z
-y,x,z
-x,-y,z
y,-x,z
1/2+x,1/2-y,1/2-z
1/2-x,1/2+y,1/2-z
1/2+y,1/2+x,1/2-z
1/2-y,1/2-x,1/2-z
-x,-y,-z
y,-x,-z
x,y,-z
-y,x,-z
1/2-x,1/2+y,1/2+z
1/2+x,1/2-y,1/2+z
1/2-y,1/2-x,1/2+z
1/2+y,1/2+x,1/2+z
loop_
_atom_site_type_symbol
_atom_site_label
_atom_site_fract_x
_atom_site_fract_y
_atom_site_fract_z
Si Si1 0.867698 0.717142 0.295719
Si Si2 0.980752 0.839549 0.697732
Si Si3 0.165118 0.863986 0.196598
Si Si4 0.087229 0.009579 0.000000
Si Si5 0.170172 0.752000 0.200439
Si Si6 0.282024 0.983183 0.293194
Si Si7 0.834690 0.414175 0.203434
O O1 0.824350 0.675651 0.250000
O O2 0.866941 0.726945 0.500000
O O3 0.859995 0.772087 0.203848
O O4 0.925706 0.699340 0.244820
O O5 0.996365 0.846260 0.500000
O O6 0.918072 0.848872 0.712236
O O7 0.009368 0.876897 0.831280
O O8 0.989102 0.779101 0.751756
O O9 0.151370 0.807507 0.275127
O O10 0.147287 0.868646 0.000000
O O11 0.054864 0.955466 0.000000
O O12 0.225449 0.725449 0.250000
O O13 0.126948 0.708669 0.236058
O O14 0.173773 0.761138 0.000000
O O15 0.282660 0.984781 0.500000
O O16 0.317804 0.029736 0.228093
O O17 0.890505 0.390505 0.250000
O O18 0.831980 0.415196 0.000000
#
# Coordination Sequence:
#
# PCOD9564612 Si02
#       7
#    16  16  16   8  16  16  16
#     4  10  19  32  51  78 109 145 187 232 290 348
#     4  10  21  41  64  88 116 151 195 245 300 353
#     4  10  19  33  53  81 115 147 183 232 285 346
#     4  11  26  46  64  88 120 152 198 259 304 350
#     4  10  20  31  45  71 108 144 181 220 273 342
#     4   8  18  36  57  80 110 147 188 236 284 344
#     4  10  19  34  52  75 107 142 187 231 280 341
#
# _framework density 20.146142000000001
#
# number of rings (size 3 to 8) (size 9 to 14) (size 15 to 20)
#    0.000    2.231    0.769    4.154    0.000    5.538 
#    2.769    2.308    0.000    0.462    0.000    3.231 
#    0.000    0.000    0.000    0.000    0.000    0.000 
#
# Total GULP energy -580414.108645 kJ/mol
# GULP energy per Si atom -5580.904891 kJ/mol
# Density = 2.010029 g / cm^3
# Si number density = 20.146142 Si / 1000 Ang^3
#
#
#
# Elastic Constant Matrix: (Units=GPa)
#
#
# Indices 1 2 3 4 5 6 
#
# 1 38.2024 -6.8370 -0.0624 0.0000 0.0000 0.0000
# 2 -6.8370 38.1944 -0.0646 0.0000 0.0000 0.0000
# 3 -0.0624 -0.0646 65.2821 0.0000 0.0000 0.0000
# 4 0.0000 0.0000 0.0000 13.8468 0.0000 0.0000
# 5 0.0000 0.0000 0.0000 0.0000 13.8476 0.0000
# 6 0.0000 0.0000 0.0000 0.0000 0.0000 27.5216
#
#
#
# Elastic Compliance Matrix: (Units=1/GPa)
#
#
# Indices 1 2 3 4 5 6 
#
# 1 0.027043 0.004841 0.000031 0.000000 0.000000 0.000000
# 2 0.004841 0.027048 0.000031 0.000000 0.000000 0.000000
# 3 0.000031 0.000031 0.015318 0.000000 0.000000 0.000000
# 4 0.000000 0.000000 0.000000 0.072219 0.000000 0.000000
# 5 0.000000 0.000000 0.000000 0.000000 0.072215 0.000000
# 6 0.000000 0.000000 0.000000 0.000000 0.000000 0.036335
#
#
# Mechanical properties :
#
#
# Convention : Reuss Voigt Hill
#
# Bulk Modulus (GPa) = 12.62386 14.19456 13.40921
# Shear Modulus (GPa) = 18.74220 20.95272 19.84746
#
# Velocity S-wave (km/s) = 3.05341 3.22846 3.14215
# Velocity P-wave (km/s) = 4.32560 4.57803 4.45360
#
# Compressibility (1/GPa) = 0.07921509
#
# Stress axis : x y z
#
# Youngs Moduli (GPa) = 36.97851 36.97069 65.28187
#
# Poissons Ratio (x) = -0.17897 -0.00200
# Poissons Ratio (y) = -0.17901 -0.00205
# Poissons Ratio (z) = -0.00113 -0.00116
#
# Static dielectric constant tensor:
#      x y z
#    x 1.740430 0.000000 0.000000 
#    y 0.000000 1.740430 0.000000 
#    z 0.000000 0.000000 1.732690 
# 
# From -- ./inp_files/1677.got.cif
#   From: 2010.05.17/outbox.cif.g08.bks.cpg/sg128_1_cif.got.tgz:1677.got - 2010.05.20 12:07:25.
