data_PCOD9564268
_publ_section_title
;
Structure prediction by ZEFSAII (Michael W. Deem and Ramdas Pophale) SiO2 
 PCOD9564268
Probable space group: P 4/M B M
;
_chemical_formula_sum "Si O2"
_cell_formula_units_Z 112
_cell_length_a 13.813771
_cell_length_b 13.813771
_cell_length_c 34.917376
_cell_angle_alpha 90.000000
_cell_angle_beta 90.000000
_cell_angle_gamma 90.000000
_cell_volume 6662.943089
_symmetry_space_group_name_H-M "P 4/M B M"
_symmetry_group_IT_number 127
_symmetry_cell_setting 'tetragonal'
loop_
_space_group_symop_operation_xyz
x,y,z
-y,x,z
-x,-y,z
y,-x,z
1/2+x,1/2-y,-z
1/2-x,1/2+y,-z
1/2+y,1/2+x,-z
1/2-y,1/2-x,-z
-x,-y,-z
y,-x,-z
x,y,-z
-y,x,-z
1/2-x,1/2+y,z
1/2+x,1/2-y,z
1/2-y,1/2-x,z
1/2+y,1/2+x,z
loop_
_atom_site_type_symbol
_atom_site_label
_atom_site_fract_x
_atom_site_fract_y
_atom_site_fract_z
Si Si1 0.415725 0.247185 0.586128
Si Si2 0.388216 0.724535 0.543770
Si Si3 0.839022 0.973298 0.663062
Si Si4 0.984055 0.162514 0.249627
Si Si5 0.002999 0.338509 0.808158
Si Si6 0.500191 0.161914 0.897231
Si Si7 0.837594 0.999086 0.955743
O O1 0.343570 0.156431 0.583186
O O2 0.356878 0.341160 0.570944
O O3 0.509387 0.240391 0.559472
O O4 0.451607 0.264276 0.629447
O O5 0.395945 0.688887 0.500000
O O6 0.313064 0.813064 0.544125
O O7 0.800910 0.973378 0.706553
O O8 0.923701 0.893002 0.659070
O O9 0.984844 0.249398 0.219791
O O10 0.083630 0.101587 0.245049
O O11 0.916735 0.416735 0.804676
O O12 0.101967 0.398034 0.799897
O O13 0.005487 0.307199 0.852694
O O14 0.591787 0.091787 0.904337
O O15 0.498797 0.250656 0.926063
O O16 0.405434 0.094567 0.901723
O O17 0.906331 0.092634 0.950567
O O18 0.803766 0.998871 0.000000
#
# Coordination Sequence:
#
# PCOD9564268 Si02
#       7
#    16  16  16  16  16  16  16
#     4  11  21  35  57  81 106 140 179 217 260 310
#     4  10  22  38  55  80 110 138 176 220 260 310
#     4   9  17  34  56  77 103 135 170 212 260 304
#     4   9  19  34  54  81 108 134 171 214 258 313
#     4   9  19  36  54  74 105 142 177 215 261 311
#     4   9  19  35  53  74 102 137 177 220 264 311
#     4   9  19  35  52  73 104 139 174 216 267 320
#
# _framework density 16.809388999999999
#
# number of rings (size 3 to 8) (size 9 to 14) (size 15 to 20)
#    0.000    2.571    1.429    2.571    0.000    4.857 
#    0.000   10.714    0.000    0.000    0.000    0.000 
#    0.000    0.000    0.000    0.000    0.000    0.000 
#
# Total GULP energy -624400.075041 kJ/mol
# GULP energy per Si atom -5575.000670 kJ/mol
# Density = 1.677113 g / cm^3
# Si number density = 16.809389 Si / 1000 Ang^3
#
#
#
# Elastic Constant Matrix: (Units=GPa)
#
#
# Indices 1 2 3 4 5 6 
#
# 1 79.3388 9.2878 70.0257 0.0000 0.0000 0.0000
# 2 9.2878 79.3388 70.0257 0.0000 0.0000 0.0000
# 3 70.0257 70.0257 147.9629 0.0000 0.0000 0.0000
# 4 0.0000 0.0000 0.0000 32.9806 0.0000 0.0000
# 5 0.0000 0.0000 0.0000 0.0000 32.9806 0.0000
# 6 0.0000 0.0000 0.0000 0.0000 0.0000 3.8600
#
#
#
# Elastic Compliance Matrix: (Units=1/GPa)
#
#
# Indices 1 2 3 4 5 6 
#
# 1 0.029514 0.015239 -0.021180 0.000000 0.000000 0.000000
# 2 0.015239 0.029514 -0.021180 0.000000 0.000000 0.000000
# 3 -0.021180 -0.021180 0.026806 0.000000 0.000000 0.000000
# 4 0.000000 0.000000 0.000000 0.030321 0.000000 0.000000
# 5 0.000000 0.000000 0.000000 0.000000 0.030321 0.000000
# 6 0.000000 0.000000 0.000000 0.000000 0.000000 0.259070
#
#
# Mechanical properties :
#
#
# Convention : Reuss Voigt Hill
#
# Bulk Modulus (GPa) = 31.65398 67.25767 49.45583
# Shear Modulus (GPa) = 10.63110 24.45097 17.54103
#
# Velocity S-wave (km/s) = 2.51758 3.81806 3.23387
# Velocity P-wave (km/s) = 5.22714 7.71593 6.59009
#
# Compressibility (1/GPa) = 0.03159160
#
# Stress axis : x y z
#
# Youngs Moduli (GPa) = 33.88228 33.88228 37.30531
#
# Poissons Ratio (x) = -0.51632 0.79012
# Poissons Ratio (y) = -0.51632 0.79012
# Poissons Ratio (z) = 0.71762 0.71762
#
# Static dielectric constant tensor:
#      x y z
#    x 1.548100 0.000000 0.000000 
#    y 0.000000 1.548100 0.000000 
#    z 0.000000 0.000000 1.565720 
# 
# From -- ./inp_files/6397.got.cif
#   From: 2010.05.17/outbox.cif.g08.bks.cpg/sg127_4_cif.got.tgz:6397.got - 2010.05.20 12:03:00.
