data_PCOD9564393
_publ_section_title
;
Structure prediction by ZEFSAII (Michael W. Deem and Ramdas Pophale) SiO2 
 PCOD9564393
Probable space group: P 4/M B M
;
_chemical_formula_sum "Si O2"
_cell_formula_units_Z 112
_cell_length_a 14.474377
_cell_length_b 14.474377
_cell_length_c 29.264201
_cell_angle_alpha 90.000000
_cell_angle_beta 90.000000
_cell_angle_gamma 90.000000
_cell_volume 6131.072211
_symmetry_space_group_name_H-M "P 4/M B M"
_symmetry_group_IT_number 127
_symmetry_cell_setting 'tetragonal'
loop_
_space_group_symop_operation_xyz
x,y,z
-y,x,z
-x,-y,z
y,-x,z
1/2+x,1/2-y,-z
1/2-x,1/2+y,-z
1/2+y,1/2+x,-z
1/2-y,1/2-x,-z
-x,-y,-z
y,-x,-z
x,y,-z
-y,x,-z
1/2-x,1/2+y,z
1/2+x,1/2-y,z
1/2-y,1/2-x,z
1/2+y,1/2+x,z
loop_
_atom_site_type_symbol
_atom_site_label
_atom_site_fract_x
_atom_site_fract_y
_atom_site_fract_z
Si Si1 0.579538 0.920463 0.777040
Si Si2 0.480671 0.235011 0.051316
Si Si3 0.937126 0.719014 0.736476
Si Si4 0.030622 0.153783 0.549099
Si Si5 0.426369 0.637727 0.183749
Si Si6 0.687346 0.658954 0.913007
Si Si7 0.577183 0.922818 0.880339
Si Si8 0.030312 0.153901 0.649746
O O1 0.530245 0.833956 0.752913
O O2 0.605377 0.894624 0.829186
O O3 0.500000 0.000000 0.778283
O O4 0.412472 0.316883 0.066668
O O5 0.586274 0.264285 0.054017
O O6 0.464232 0.158710 0.089683
O O7 0.456686 0.204891 0.000000
O O8 0.858151 0.641850 0.730940
O O9 0.905902 0.792137 0.775198
O O10 0.955035 0.774377 0.690077
O O11 0.040626 0.203644 0.500000
O O12 0.039335 0.198285 0.599004
O O13 0.930679 0.103779 0.548948
O O14 0.379805 0.536668 0.186351
O O15 0.391077 0.679326 0.135974
O O16 0.748138 0.751863 0.909439
O O17 0.500000 0.000000 0.875210
O O18 0.930217 0.104086 0.653371
#
# Coordination Sequence:
#
# PCOD9564393 Si02
#       8
#     8  16  16  16  16  16   8  16
#     4   9  22  41  60  81 111 148 186 232 283 333
#     4  12  26  43  66  94 123 156 192 234 287 347
#     4  11  22  38  57  82 115 151 193 237 285 346
#     4   7  10  19  41  72 105 144 188 233 284 340
#     4  11  23  42  64  87 115 147 188 234 286 343
#     4  12  25  44  66  92 125 156 191 235 286 351
#     4  11  23  44  69  92 118 150 196 247 293 350
#     4   9  17  32  51  79 118 151 187 239 293 340
#
# _framework density 18.267603000000001
#
# number of rings (size 3 to 8) (size 9 to 14) (size 15 to 20)
#    0.000    1.714    2.143    4.500    0.000    4.571 
#    5.143    0.714    0.000    0.429    0.000    0.500 
#    0.000    1.714    0.000    0.000    0.000    0.000 
#
# Total GULP energy -624852.756386 kJ/mol
# GULP energy per Si atom -5579.042468 kJ/mol
# Density = 1.822603 g / cm^3
# Si number density = 18.267603 Si / 1000 Ang^3
#
#
#
# Elastic Constant Matrix: (Units=GPa)
#
#
# Indices 1 2 3 4 5 6 
#
# 1 58.7666 9.8991 41.4116 0.0000 0.0000 0.0000
# 2 9.8991 58.7666 41.4116 0.0000 0.0000 0.0000
# 3 41.4116 41.4116 191.5784 0.0000 0.0000 0.0000
# 4 0.0000 0.0000 0.0000 3025.2924 0.0000 0.0000
# 5 0.0000 0.0000 0.0000 0.0000 3025.2924 0.0000
# 6 0.0000 0.0000 0.0000 0.0000 0.0000 19.2785
#
#
#
# Elastic Compliance Matrix: (Units=1/GPa)
#
#
# Indices 1 2 3 4 5 6 
#
# 1 0.020082 -0.000382 -0.004258 0.000000 0.000000 0.000000
# 2 -0.000382 0.020082 -0.004258 0.000000 0.000000 0.000000
# 3 -0.004258 -0.004258 0.007061 0.000000 0.000000 0.000000
# 4 0.000000 0.000000 0.000000 0.000331 0.000000 0.000000
# 5 0.000000 0.000000 0.000000 0.000000 0.000331 0.000000
# 6 0.000000 0.000000 0.000000 0.000000 0.000000 0.051871
#
#
# Mechanical properties :
#
#
# Convention : Reuss Voigt Hill
#
# Bulk Modulus (GPa) = 33.98266 54.95071 44.46668
# Shear Modulus (GPa) = 39.25820 1228.39863 633.82841
#
# Velocity S-wave (km/s) = 4.64083 25.95971 18.64730
# Velocity P-wave (km/s) = 6.88182 30.47438 22.09126
#
# Compressibility (1/GPa) = 0.02942678
#
# Stress axis : x y z
#
# Youngs Moduli (GPa) = 49.79704 49.79704 141.62850
#
# Poissons Ratio (x) = 0.01902 0.60309
# Poissons Ratio (y) = 0.01902 0.60309
# Poissons Ratio (z) = 0.21205 0.21205
#
# Static dielectric constant tensor:
#      x y z
#    x 1.624250 0.000000 0.000000 
#    y 0.000000 1.624250 0.000000 
#    z 0.000000 0.000000 1.653830 
# 
# From -- ./inp_files/6436.got.cif
#   From: 2010.05.17/outbox.cif.g08.bks.cpg/sg127_4_cif.got.tgz:6436.got - 2010.05.20 12:03:00.
