data_PCOD9564294
_publ_section_title
;
Structure prediction by ZEFSAII (Michael W. Deem and Ramdas Pophale) SiO2 
 PCOD9564294
Probable space group: P 4/M B M
;
_chemical_formula_sum "Si O2"
_cell_formula_units_Z 96
_cell_length_a 15.195923
_cell_length_b 15.195923
_cell_length_c 21.176884
_cell_angle_alpha 90.000000
_cell_angle_beta 90.000000
_cell_angle_gamma 90.000000
_cell_volume 4890.082951
_symmetry_space_group_name_H-M "P 4/M B M"
_symmetry_group_IT_number 127
_symmetry_cell_setting 'tetragonal'
loop_
_space_group_symop_operation_xyz
x,y,z
-y,x,z
-x,-y,z
y,-x,z
1/2+x,1/2-y,-z
1/2-x,1/2+y,-z
1/2+y,1/2+x,-z
1/2-y,1/2-x,-z
-x,-y,-z
y,-x,-z
x,y,-z
-y,x,-z
1/2-x,1/2+y,z
1/2+x,1/2-y,z
1/2-y,1/2-x,z
1/2+y,1/2+x,z
loop_
_atom_site_type_symbol
_atom_site_label
_atom_site_fract_x
_atom_site_fract_y
_atom_site_fract_z
Si Si1 0.110504 0.900619 0.234037
Si Si2 0.994127 0.357229 0.205926
Si Si3 0.486850 0.229114 0.067481
Si Si4 0.816379 0.166734 0.101282
Si Si5 0.353741 0.478242 0.426287
Si Si6 0.407151 0.760005 0.681239
O O1 0.151552 0.861185 0.170749
O O2 0.170903 0.864758 0.290087
O O3 0.006925 0.882434 0.236157
O O4 0.901745 0.401745 0.223522
O O5 0.985454 0.319273 0.135202
O O6 0.067042 0.432959 0.200657
O O7 0.031118 0.296273 0.261787
O O8 0.400573 0.289677 0.069049
O O9 0.577178 0.283732 0.069642
O O10 0.485784 0.178995 0.000000
O O11 0.736867 0.236867 0.103367
O O12 0.429358 0.404060 0.415673
O O13 0.328415 0.474406 0.500000
O O14 0.273208 0.460476 0.379494
O O15 0.334378 0.834378 0.667844
#
# Coordination Sequence:
#
# PCOD9564294 Si02
#       6
#    16  16  16  16  16  16
#     4  11  21  37  62  89 117 155 204 255 312 376
#     4  10  22  41  62  84 116 161 213 262 306 365
#     4  12  26  42  62  88 119 158 204 260 329 393
#     4  12  24  42  63  87 119 153 199 259 320 382
#     4   9  19  38  64  93 125 162 202 245 298 360
#     4  11  21  36  60  92 127 162 202 249 306 362
#
# _framework density 19.631568000000001
#
# number of rings (size 3 to 8) (size 9 to 14) (size 15 to 20)
#    0.000    1.167    3.333    3.500    0.000    5.333 
#    0.000    6.667    0.000    1.500    0.000    2.333 
#    0.000    0.000    0.000    0.000    0.000    0.000 
#
# Total GULP energy -535920.010445 kJ/mol
# GULP energy per Si atom -5582.500109 kJ/mol
# Density = 1.958689 g / cm^3
# Si number density = 19.631568 Si / 1000 Ang^3
#
#
#
# Elastic Constant Matrix: (Units=GPa)
#
#
# Indices 1 2 3 4 5 6 
#
# 1 95.3260 47.6962 43.5784 0.0000 0.0000 0.0000
# 2 47.6962 95.3260 43.5784 0.0000 0.0000 0.0000
# 3 43.5784 43.5784 142.3104 0.0000 0.0000 0.0000
# 4 0.0000 0.0000 0.0000 0.6553 0.0000 0.0000
# 5 0.0000 0.0000 0.0000 0.0000 0.6553 0.0000
# 6 0.0000 0.0000 0.0000 0.0000 0.0000 10.2459
#
#
#
# Elastic Compliance Matrix: (Units=1/GPa)
#
#
# Indices 1 2 3 4 5 6 
#
# 1 0.014796 -0.006200 -0.002632 0.000000 0.000000 0.000000
# 2 -0.006200 0.014796 -0.002632 0.000000 0.000000 0.000000
# 3 -0.002632 -0.002632 0.008639 0.000000 0.000000 0.000000
# 4 0.000000 0.000000 0.000000 1.526055 0.000000 0.000000
# 5 0.000000 0.000000 0.000000 0.000000 1.526055 0.000000
# 6 0.000000 0.000000 0.000000 0.000000 0.000000 0.097600
#
#
# Mechanical properties :
#
#
# Convention : Reuss Voigt Hill
#
# Bulk Modulus (GPa) = 65.35124 66.96315 66.15720
# Shear Modulus (GPa) = 1.55474 15.51858 8.53666
#
# Velocity S-wave (km/s) = 0.89089 2.81462 2.08755
# Velocity P-wave (km/s) = 5.86680 6.68930 6.29151
#
# Compressibility (1/GPa) = 0.01530193
#
# Stress axis : x y z
#
# Youngs Moduli (GPa) = 67.58749 67.58749 115.75395
#
# Poissons Ratio (x) = 0.41902 0.30470
# Poissons Ratio (y) = 0.41902 0.30470
# Poissons Ratio (z) = 0.17791 0.17791
#
# Static dielectric constant tensor:
#      x y z
#    x 1.719670 0.000000 0.000000 
#    y 0.000000 1.719670 0.000000 
#    z 0.000000 0.000000 1.710830 
# 
# From -- ./inp_files/5761.got.cif
#   From: 2010.05.17/outbox.cif.g08.bks.cpg/sg127_3_cif.got.tgz:5761.got - 2010.05.20 12:03:00.
