data_PCOD9564669
_publ_section_title
;
Structure prediction by ZEFSAII (Michael W. Deem and Ramdas Pophale) SiO2 
 PCOD9564669
Probable space group: P 4/M N C
;
_chemical_formula_sum "Si O2"
_cell_formula_units_Z 116
_cell_length_a 18.474715
_cell_length_b 18.474715
_cell_length_c 16.861531
_cell_angle_alpha 90.000000
_cell_angle_beta 90.000000
_cell_angle_gamma 90.000000
_cell_volume 5755.095044
_symmetry_space_group_name_H-M "P 4/M N C"
_symmetry_group_IT_number 128
_symmetry_cell_setting 'tetragonal'
loop_
_space_group_symop_operation_xyz
x,y,z
-y,x,z
-x,-y,z
y,-x,z
1/2+x,1/2-y,1/2-z
1/2-x,1/2+y,1/2-z
1/2+y,1/2+x,1/2-z
1/2-y,1/2-x,1/2-z
-x,-y,-z
y,-x,-z
x,y,-z
-y,x,-z
1/2-x,1/2+y,1/2+z
1/2+x,1/2-y,1/2+z
1/2-y,1/2-x,1/2+z
1/2+y,1/2+x,1/2+z
loop_
_atom_site_type_symbol
_atom_site_label
_atom_site_fract_x
_atom_site_fract_y
_atom_site_fract_z
Si Si1 0.162452 0.227495 0.205996
Si Si2 0.979141 0.632537 0.330832
Si Si3 0.696290 0.787411 0.592961
Si Si4 0.587064 0.168590 0.407579
Si Si5 0.608716 0.926944 0.090494
Si Si6 0.003522 0.782999 0.591182
Si Si7 0.000000 0.500000 0.750000
Si Si8 0.146605 0.148876 0.634129
O O1 0.209239 0.290762 0.250000
O O2 0.216150 0.189495 0.144902
O O3 0.102235 0.265593 0.151970
O O4 0.138539 0.173014 0.274374
O O5 0.899289 0.628935 0.367828
O O6 0.027248 0.573739 0.378281
O O7 0.005044 0.713165 0.350356
O O8 0.995275 0.591931 0.247661
O O9 0.683035 0.773975 0.500000
O O10 0.638277 0.844703 0.626651
O O11 0.778429 0.815455 0.603213
O O12 0.610965 0.179490 0.500000
O O13 0.502947 0.148616 0.410001
O O14 0.599778 0.904332 0.000000
O O15 0.019119 0.759743 0.500000
O O16 0.064393 0.839860 0.618418
O O17 0.924394 0.818679 0.593436
#
# Coordination Sequence:
#
# PCOD9564669 Si02
#       8
#    16  16  16  16  16  16   4  16
#     4  10  23  38  57  84 120 163 205 261 316 371
#     4  12  23  37  59  86 129 172 213 255 315 376
#     4  10  19  38  61  86 120 164 214 256 307 379
#     4  11  22  37  59  90 126 169 217 260 309 375
#     4  10  20  35  59  88 121 161 210 262 306 364
#     4  12  25  44  69  91 119 163 213 268 325 387
#     4  12  28  36  54  96 140 184 210 260 304 392
#     4  11  25  41  64  92 121 155 207 268 329 385
#
# _framework density 20.156054999999999
#
# number of rings (size 3 to 8) (size 9 to 14) (size 15 to 20)
#    0.000    1.103    2.759    4.552    2.897    3.586 
#    0.000    0.690    0.000    0.000    0.000    0.000 
#    0.000    0.000    0.000   12.414    0.000    0.000 
#
# Total GULP energy -646256.151439 kJ/mol
# GULP energy per Si atom -5571.173719 kJ/mol
# Density = 2.011018 g / cm^3
# Si number density = 20.156055 Si / 1000 Ang^3
#
#
#
# Elastic Constant Matrix: (Units=GPa)
#
#
# Indices 1 2 3 4 5 6 
#
# 1 53.1496 19.4667 7.0599 0.0000 0.0000 0.0000
# 2 19.4667 53.1492 7.0599 0.0000 0.0000 0.0000
# 3 7.0599 7.0599 85.0350 0.0000 0.0000 0.0000
# 4 0.0000 0.0000 0.0000 56.3784 0.0000 0.0000
# 5 0.0000 0.0000 0.0000 0.0000 56.3782 0.0000
# 6 0.0000 0.0000 0.0000 0.0000 0.0000 31.4193
#
#
#
# Elastic Compliance Matrix: (Units=1/GPa)
#
#
# Indices 1 2 3 4 5 6 
#
# 1 0.021843 -0.007846 -0.001162 0.000000 0.000000 0.000000
# 2 -0.007846 0.021843 -0.001162 0.000000 0.000000 0.000000
# 3 -0.001162 -0.001162 0.011953 0.000000 0.000000 0.000000
# 4 0.000000 0.000000 0.000000 0.017737 0.000000 0.000000
# 5 0.000000 0.000000 0.000000 0.000000 0.017737 0.000000
# 6 0.000000 0.000000 0.000000 0.000000 0.000000 0.031828
#
#
# Mechanical properties :
#
#
# Convention : Reuss Voigt Hill
#
# Bulk Modulus (GPa) = 28.32977 28.72296 28.52637
# Shear Modulus (GPa) = 32.24825 39.35167 35.79996
#
# Velocity S-wave (km/s) = 4.00425 4.42333 4.21900
# Velocity P-wave (km/s) = 5.95520 6.35367 6.15766
#
# Compressibility (1/GPa) = 0.03529855
#
# Stress axis : x y z
#
# Youngs Moduli (GPa) = 45.78165 45.78124 83.66225
#
# Poissons Ratio (x) = 0.35919 0.09722
# Poissons Ratio (y) = 0.35920 0.09722
# Poissons Ratio (z) = 0.05320 0.05320
#
# Static dielectric constant tensor:
#      x y z
#    x 1.701370 0.000000 0.000000 
#    y 0.000000 1.701370 0.000000 
#    z 0.000000 0.000000 2.625630 
# 
# From -- ./inp_files/4951.got.cif
#   From: 2010.05.17/outbox.cif.g08.bks.cpg/sg128_3_cif.got.tgz:4951.got - 2010.05.20 12:07:25.
