data_PCOD9564929
_publ_section_title
;
Structure prediction by ZEFSAII (Michael W. Deem and Ramdas Pophale) SiO2 
 PCOD9564929
Probable space group: P 4/M N C
;
_chemical_formula_sum "Si O2"
_cell_formula_units_Z 88
_cell_length_a 11.632719
_cell_length_b 11.632719
_cell_length_c 36.709740
_cell_angle_alpha 90.000000
_cell_angle_beta 90.000000
_cell_angle_gamma 90.000000
_cell_volume 4967.567572
_symmetry_space_group_name_H-M "P 4/M N C"
_symmetry_group_IT_number 128
_symmetry_cell_setting 'tetragonal'
loop_
_space_group_symop_operation_xyz
x,y,z
-y,x,z
-x,-y,z
y,-x,z
1/2+x,1/2-y,1/2-z
1/2-x,1/2+y,1/2-z
1/2+y,1/2+x,1/2-z
1/2-y,1/2-x,1/2-z
-x,-y,-z
y,-x,-z
x,y,-z
-y,x,-z
1/2-x,1/2+y,1/2+z
1/2+x,1/2-y,1/2+z
1/2-y,1/2-x,1/2+z
1/2+y,1/2+x,1/2+z
loop_
_atom_site_type_symbol
_atom_site_label
_atom_site_fract_x
_atom_site_fract_y
_atom_site_fract_z
Si Si1 0.519029 0.689600 0.735690
Si Si2 0.345833 0.816838 0.360324
Si Si3 0.783920 0.407366 0.657727
Si Si4 0.819728 0.071689 0.500000
Si Si5 0.497805 0.862987 0.199375
Si Si6 0.927566 0.818419 0.419416
O O1 0.400750 0.621460 0.741827
O O2 0.536698 0.729854 0.694315
O O3 0.518988 0.793194 0.764070
O O4 0.300942 0.686509 0.358574
O O5 0.483162 0.816919 0.366742
O O6 0.329376 0.880718 0.321267
O O7 0.271779 0.886198 0.389598
O O8 0.898163 0.342293 0.671215
O O9 0.767729 0.092508 0.460183
O O10 0.938599 0.142515 0.500000
O O11 0.500000 0.000000 0.205358
O O12 0.061478 0.856249 0.415873
#
# Coordination Sequence:
#
# PCOD9564929 Si02
#       6
#    16  16  16   8  16  16
#     4  11  22  38  56  72  97 135 181 230 272 334
#     4  11  22  36  55  76 106 143 183 223 268 330
#     4  11  22  38  53  71 104 138 178 226 275 331
#     4   7  12  26  52  86 118 147 172 206 265 327
#     4  10  23  37  53  78 100 130 173 230 292 331
#     4   9  17  32  57  88 119 145 176 219 269 324
#
# _framework density 17.714908999999999
#
# number of rings (size 3 to 8) (size 9 to 14) (size 15 to 20)
#    0.000    1.909    1.818    3.818    0.000    5.455 
#    0.000    1.818    0.000    1.091    0.000    9.545 
#    0.000    1.455    0.000    0.000    0.000    0.000 
#
# Total GULP energy -491081.158812 kJ/mol
# GULP energy per Si atom -5580.467714 kJ/mol
# Density = 1.767459 g / cm^3
# Si number density = 17.714909 Si / 1000 Ang^3
#
#
#
# Elastic Constant Matrix: (Units=GPa)
#
#
# Indices 1 2 3 4 5 6 
#
# 1 65.1934 20.4378 36.3253 0.0000 0.0000 0.0000
# 2 20.4378 65.1934 36.3253 0.0000 0.0000 0.0000
# 3 36.3253 36.3253 91.5761 0.0000 0.0000 0.0000
# 4 0.0000 0.0000 0.0000 20.1132 0.0000 0.0000
# 5 0.0000 0.0000 0.0000 0.0000 20.1132 0.0000
# 6 0.0000 0.0000 0.0000 0.0000 0.0000 14.4994
#
#
#
# Elastic Compliance Matrix: (Units=1/GPa)
#
#
# Indices 1 2 3 4 5 6 
#
# 1 0.019973 -0.002371 -0.006982 0.000000 0.000000 0.000000
# 2 -0.002371 0.019973 -0.006982 0.000000 0.000000 0.000000
# 3 -0.006982 -0.006982 0.016459 0.000000 0.000000 0.000000
# 4 0.000000 0.000000 0.000000 0.049719 0.000000 0.000000
# 5 0.000000 0.000000 0.000000 0.000000 0.049719 0.000000
# 6 0.000000 0.000000 0.000000 0.000000 0.000000 0.068969
#
#
# Mechanical properties :
#
#
# Convention : Reuss Voigt Hill
#
# Bulk Modulus (GPa) = 42.13336 45.34887 43.74112
# Shear Modulus (GPa) = 18.84012 19.53679 19.18846
#
# Velocity S-wave (km/s) = 3.26470 3.32451 3.29474
# Velocity P-wave (km/s) = 6.16821 6.35542 6.26251
#
# Compressibility (1/GPa) = 0.02373416
#
# Stress axis : x y z
#
# Youngs Moduli (GPa) = 50.06866 50.06866 60.75722
#
# Poissons Ratio (x) = 0.11871 0.42421
# Poissons Ratio (y) = 0.11871 0.42421
# Poissons Ratio (z) = 0.34958 0.34958
#
# Static dielectric constant tensor:
#      x y z
#    x 1.629690 0.000000 0.000000 
#    y 0.000000 1.629690 0.000000 
#    z 0.000000 0.000000 1.615670 
# 
# From -- ./inp_files/7272.got.cif
#   From: 2010.05.17/outbox.cif.g08.bks.cpg/sg128_4_cif.got.tgz:7272.got - 2010.05.20 12:07:25.
