data_PCOD9564614
_publ_section_title
;
Structure prediction by ZEFSAII (Michael W. Deem and Ramdas Pophale) SiO2 
 PCOD9564614
Probable space group: P 4/M N C
;
_chemical_formula_sum "Si O2"
_cell_formula_units_Z 128
_cell_length_a 20.880472
_cell_length_b 20.880472
_cell_length_c 14.769622
_cell_angle_alpha 90.000000
_cell_angle_beta 90.000000
_cell_angle_gamma 90.000000
_cell_volume 6439.468213
_symmetry_space_group_name_H-M "P 4/M N C"
_symmetry_group_IT_number 128
_symmetry_cell_setting 'tetragonal'
loop_
_space_group_symop_operation_xyz
x,y,z
-y,x,z
-x,-y,z
y,-x,z
1/2+x,1/2-y,1/2-z
1/2-x,1/2+y,1/2-z
1/2+y,1/2+x,1/2-z
1/2-y,1/2-x,1/2-z
-x,-y,-z
y,-x,-z
x,y,-z
-y,x,-z
1/2-x,1/2+y,1/2+z
1/2+x,1/2-y,1/2+z
1/2-y,1/2-x,1/2+z
1/2+y,1/2+x,1/2+z
loop_
_atom_site_type_symbol
_atom_site_label
_atom_site_fract_x
_atom_site_fract_y
_atom_site_fract_z
Si Si1 0.716986 0.972149 0.768389
Si Si2 0.291180 0.416720 0.782653
Si Si3 0.162518 0.390274 0.897408
Si Si4 0.747835 0.186667 0.158557
Si Si5 0.708089 0.840215 0.847613
Si Si6 0.104766 0.480227 0.609124
Si Si7 0.912686 0.059413 0.607813
Si Si8 0.623105 0.932364 0.603153
O O1 0.737007 0.907998 0.819745
O O2 0.670573 0.010531 0.836536
O O3 0.671477 0.959210 0.679777
O O4 0.780383 0.010469 0.745144
O O5 0.224136 0.405750 0.836912
O O6 0.291032 0.370279 0.696894
O O7 0.353764 0.407597 0.842244
O O8 0.159187 0.312964 0.893782
O O9 0.092609 0.417750 0.868367
O O10 0.175424 0.409805 0.000000
O O11 0.718292 0.218292 0.250000
O O12 0.790044 0.241774 0.112262
O O13 0.687023 0.812978 0.750000
O O14 0.642852 0.857124 0.898943
O O15 0.112828 0.480246 0.500000
O O16 0.066027 0.546803 0.628647
O O17 0.903905 0.065624 0.500000
O O18 0.983370 0.085782 0.628977
O O19 0.629714 0.956984 0.500000
#
# Coordination Sequence:
#
# PCOD9564614 Si02
#       8
#    16  16  16  16  16  16  16  16
#     4  10  19  32  53  78 108 143 180 231 274 314
#     4  11  21  32  54  78 107 138 183 225 277 324
#     4  10  20  34  51  74 104 140 179 224 273 327
#     4   9  18  32  49  72 103 133 171 219 272 325
#     4   8  16  31  49  70 100 133 168 215 271 322
#     4   9  17  33  53  73 102 145 182 220 272 329
#     4   9  20  39  58  78 109 146 182 226 282 346
#     4   9  18  32  52  77 107 141 183 226 276 330
#
# _framework density 19.877417999999999
#
# number of rings (size 3 to 8) (size 9 to 14) (size 15 to 20)
#    0.000    2.625    1.250    1.875    1.750    1.500 
#    0.000    0.625    0.000    6.750    0.000    0.000 
#    0.000    0.000    0.000    3.000    0.000    0.000 
#
# Total GULP energy -713182.391771 kJ/mol
# GULP energy per Si atom -5571.737436 kJ/mol
# Density = 1.983218 g / cm^3
# Si number density = 19.877418 Si / 1000 Ang^3
#
#
#
# Elastic Constant Matrix: (Units=GPa)
#
#
# Indices 1 2 3 4 5 6 
#
# 1 58.0960 28.1010 7.6839 0.0000 0.0000 0.0000
# 2 28.1010 58.0967 7.6839 0.0000 0.0000 0.0000
# 3 7.6839 7.6839 43.5389 0.0000 0.0000 0.0000
# 4 0.0000 0.0000 0.0000 14.6193 0.0000 0.0000
# 5 0.0000 0.0000 0.0000 0.0000 14.6179 0.0000
# 6 0.0000 0.0000 0.0000 0.0000 0.0000 28.7051
#
#
#
# Elastic Compliance Matrix: (Units=1/GPa)
#
#
# Indices 1 2 3 4 5 6 
#
# 1 0.022658 -0.010680 -0.002114 0.000000 0.000000 0.000000
# 2 -0.010680 0.022658 -0.002114 0.000000 0.000000 0.000000
# 3 -0.002114 -0.002114 0.023714 0.000000 0.000000 0.000000
# 4 0.000000 0.000000 0.000000 0.068403 0.000000 0.000000
# 5 0.000000 0.000000 0.000000 0.000000 0.068409 0.000000
# 6 0.000000 0.000000 0.000000 0.000000 0.000000 0.034837
#
#
# Mechanical properties :
#
#
# Convention : Reuss Voigt Hill
#
# Bulk Modulus (GPa) = 25.50065 27.40769 26.45417
# Shear Modulus (GPa) = 17.63247 19.33930 18.48589
#
# Velocity S-wave (km/s) = 2.98159 3.12256 3.05289
# Velocity P-wave (km/s) = 4.97091 5.17869 5.07586
#
# Compressibility (1/GPa) = 0.03921468
#
# Stress axis : x y z
#
# Youngs Moduli (GPa) = 44.13360 44.13411 42.16895
#
# Poissons Ratio (x) = 0.47136 0.08914
# Poissons Ratio (y) = 0.47135 0.08914
# Poissons Ratio (z) = 0.09330 0.09330
#
# Static dielectric constant tensor:
#      x y z
#    x 1.748550 0.000000 0.000000 
#    y 0.000000 1.748550 0.000000 
#    z 0.000000 0.000000 1.682660 
# 
# From -- ./inp_files/5077.got.cif
#   From: 2010.05.17/outbox.cif.g08.bks.cpg/sg128_3_cif.got.tgz:5077.got - 2010.05.20 12:07:25.
