data_PCOD9564091
_publ_section_title
;
Structure prediction by ZEFSAII (Michael W. Deem and Ramdas Pophale) SiO2 
 PCOD9564091
Probable space group: P 4/M B M
;
_chemical_formula_sum "Si O2"
_cell_formula_units_Z 72
_cell_length_a 19.189830
_cell_length_b 19.189830
_cell_length_c 11.857849
_cell_angle_alpha 90.000000
_cell_angle_beta 90.000000
_cell_angle_gamma 90.000000
_cell_volume 4366.647860
_symmetry_space_group_name_H-M "P 4/M B M"
_symmetry_group_IT_number 127
_symmetry_cell_setting 'tetragonal'
loop_
_space_group_symop_operation_xyz
x,y,z
-y,x,z
-x,-y,z
y,-x,z
1/2+x,1/2-y,-z
1/2-x,1/2+y,-z
1/2+y,1/2+x,-z
1/2-y,1/2-x,-z
-x,-y,-z
y,-x,-z
x,y,-z
-y,x,-z
1/2-x,1/2+y,z
1/2+x,1/2-y,z
1/2-y,1/2-x,z
1/2+y,1/2+x,z
loop_
_atom_site_type_symbol
_atom_site_label
_atom_site_fract_x
_atom_site_fract_y
_atom_site_fract_z
Si Si1 0.183748 0.196968 0.000000
Si Si2 0.440914 0.059087 0.367911
Si Si3 0.365017 0.746785 0.235843
Si Si4 0.702792 0.979384 0.245937
Si Si5 0.648979 0.734637 0.633364
Si Si6 0.917916 0.298766 0.000000
O O1 0.140635 0.210482 0.886748
O O2 0.225768 0.124530 0.000000
O O3 0.244438 0.255563 0.000000
O O4 0.426292 0.073709 0.500000
O O5 0.370991 0.032677 0.307457
O O6 0.500000 0.000000 0.361225
O O7 0.314319 0.814319 0.234270
O O8 0.442833 0.769817 0.262432
O O9 0.331230 0.692900 0.323919
O O10 0.754349 0.922025 0.299322
O O11 0.695364 0.962506 0.113494
O O12 0.637379 0.732434 0.500000
O O13 0.698243 0.801758 0.659321
O O14 0.860055 0.360055 0.000000
#
# Coordination Sequence:
#
# PCOD9564091 Si02
#       6
#     8   8  16  16  16   8
#     4   9  17  34  56  80 111 144 183 240 286 333
#     4  11  24  39  55  81 123 166 193 222 281 354
#     4  10  21  36  56  84 115 145 186 238 285 332
#     4  12  21  36  59  86 115 151 193 236 286 346
#     4  10  20  36  57  81 110 149 198 240 276 332
#     4  11  19  34  60  87 110 147 194 234 284 347
#
# _framework density 16.488620000000001
#
# number of rings (size 3 to 8) (size 9 to 14) (size 15 to 20)
#    0.000    1.444    4.444    2.000    0.000    1.778 
#    0.000    4.444    0.000    0.667    0.000    3.111 
#    0.000    0.000    0.000    0.000    0.000    0.000 
#
# Total GULP energy -402078.140483 kJ/mol
# GULP energy per Si atom -5584.418618 kJ/mol
# Density = 1.645109 g / cm^3
# Si number density = 16.488620 Si / 1000 Ang^3
#
#
#
# Elastic Constant Matrix: (Units=GPa)
#
#
# Indices 1 2 3 4 5 6 
#
# 1 94.2772 60.4829 50.9360 0.0000 0.0000 0.0000
# 2 60.4829 94.2773 50.9363 0.0000 0.0000 0.0000
# 3 50.9360 50.9363 105.6824 0.0000 0.0000 0.0000
# 4 0.0000 0.0000 0.0000 16.2712 0.0000 0.0000
# 5 0.0000 0.0000 0.0000 0.0000 16.2711 0.0000
# 6 0.0000 0.0000 0.0000 0.0000 0.0000 19.3070
#
#
#
# Elastic Compliance Matrix: (Units=1/GPa)
#
#
# Indices 1 2 3 4 5 6 
#
# 1 0.019527 -0.010063 -0.004561 0.000000 0.000000 0.000000
# 2 -0.010063 0.019528 -0.004562 0.000000 0.000000 0.000000
# 3 -0.004561 -0.004562 0.013859 0.000000 0.000000 0.000000
# 4 0.000000 0.000000 0.000000 0.061458 0.000000 0.000000
# 5 0.000000 0.000000 0.000000 0.000000 0.061459 0.000000
# 6 0.000000 0.000000 0.000000 0.000000 0.000000 0.051795
#
#
# Mechanical properties :
#
#
# Convention : Reuss Voigt Hill
#
# Bulk Modulus (GPa) = 68.76719 68.77192 68.76956
# Shear Modulus (GPa) = 18.46068 19.16197 18.81132
#
# Velocity S-wave (km/s) = 3.34967 3.41271 3.38134
# Velocity P-wave (km/s) = 7.53371 7.57153 7.55264
#
# Compressibility (1/GPa) = 0.01454182
#
# Stress axis : x y z
#
# Youngs Moduli (GPa) = 51.20988 51.20977 72.15324
#
# Poissons Ratio (x) = 0.51534 0.32913
# Poissons Ratio (y) = 0.51534 0.32913
# Poissons Ratio (z) = 0.23359 0.23360
#
# Static dielectric constant tensor:
#      x y z
#    x 1.535340 0.000000 0.000000 
#    y 0.000000 1.535340 0.000000 
#    z 0.000000 0.000000 1.560550 
# 
# From -- ./inp_files/3213.got.cif
#   From: 2010.05.17/outbox.cif.g08.bks.cpg/sg127_2_cif.got.tgz:3213.got - 2010.05.20 12:03:00.
