data_PCOD9564766
_publ_section_title
;
Structure prediction by ZEFSAII (Michael W. Deem and Ramdas Pophale) SiO2 
 PCOD9564766
Probable space group: P 4/M N C
;
_chemical_formula_sum "Si O2"
_cell_formula_units_Z 104
_cell_length_a 17.992396
_cell_length_b 17.992396
_cell_length_c 18.336101
_cell_angle_alpha 90.000000
_cell_angle_beta 90.000000
_cell_angle_gamma 90.000000
_cell_volume 5935.878387
_symmetry_space_group_name_H-M "P 4/M N C"
_symmetry_group_IT_number 128
_symmetry_cell_setting 'tetragonal'
loop_
_space_group_symop_operation_xyz
x,y,z
-y,x,z
-x,-y,z
y,-x,z
1/2+x,1/2-y,1/2-z
1/2-x,1/2+y,1/2-z
1/2+y,1/2+x,1/2-z
1/2-y,1/2-x,1/2-z
-x,-y,-z
y,-x,-z
x,y,-z
-y,x,-z
1/2-x,1/2+y,1/2+z
1/2+x,1/2-y,1/2+z
1/2-y,1/2-x,1/2+z
1/2+y,1/2+x,1/2+z
loop_
_atom_site_type_symbol
_atom_site_label
_atom_site_fract_x
_atom_site_fract_y
_atom_site_fract_z
Si Si1 0.588288 0.003541 0.085401
Si Si2 0.720101 0.522035 0.796099
Si Si3 0.129023 0.346042 0.336863
Si Si4 0.899857 0.073716 0.500000
Si Si5 0.626073 0.646814 0.150740
Si Si6 0.752317 0.262103 0.663698
Si Si7 0.811899 0.410960 0.307031
O O1 0.632599 0.944763 0.134112
O O2 0.500000 0.000000 0.096450
O O3 0.612125 0.083166 0.115599
O O4 0.604127 0.994170 0.000000
O O5 0.785646 0.562584 0.841638
O O6 0.669190 0.457949 0.831369
O O7 0.664673 0.593706 0.787751
O O8 0.764099 0.476309 0.732487
O O9 0.134432 0.365569 0.250000
O O10 0.207453 0.311663 0.363925
O O11 0.866258 0.103994 0.425343
O O12 0.985289 0.099996 0.500000
O O13 0.670565 0.723529 0.141724
O O14 0.748689 0.248689 0.750000
O O15 0.757146 0.350186 0.655813
O O16 0.862961 0.362961 0.250000
#
# Coordination Sequence:
#
# PCOD9564766 Si02
#       7
#    16  16  16   8  16  16  16
#     4  11  25  40  56  87 122 149 191 249 301 353
#     4  11  21  34  60  85 111 151 203 239 288 343
#     4  10  20  38  60  83 113 158 193 237 296 353
#     4  11  22  36  52  76 124 169 195 233 306 367
#     4  11  21  37  54  84 117 156 197 247 285 358
#     4   9  19  35  58  84 110 137 194 249 287 338
#     4  11  20  37  64  87 110 152 199 247 295 348
#
# _framework density 17.520575000000001
#
# number of rings (size 3 to 8) (size 9 to 14) (size 15 to 20)
#    0.000    1.462    6.154    0.923    0.000    0.308 
#    8.308    0.000    1.692    0.000    0.000    0.000 
#    0.000    0.000    0.000    4.154    0.000    0.000 
#
# Total GULP energy -578961.630358 kJ/mol
# GULP energy per Si atom -5566.938753 kJ/mol
# Density = 1.748070 g / cm^3
# Si number density = 17.520575 Si / 1000 Ang^3
#
#
#
# Elastic Constant Matrix: (Units=GPa)
#
#
# Indices 1 2 3 4 5 6 
#
# 1 99.4087 47.9341 40.3679 0.0000 0.0000 0.0000
# 2 47.9341 99.4084 40.3683 0.0000 0.0000 0.0000
# 3 40.3679 40.3683 56.9867 0.0000 0.0000 0.0000
# 4 0.0000 0.0000 0.0000 15.6898 0.0000 0.0000
# 5 0.0000 0.0000 0.0000 0.0000 15.6898 0.0000
# 6 0.0000 0.0000 0.0000 0.0000 0.0000 42.4235
#
#
#
# Elastic Compliance Matrix: (Units=1/GPa)
#
#
# Indices 1 2 3 4 5 6 
#
# 1 0.015260 -0.004167 -0.007858 0.000000 0.000000 0.000000
# 2 -0.004167 0.015260 -0.007858 0.000000 0.000000 0.000000
# 3 -0.007858 -0.007858 0.028680 0.000000 0.000000 0.000000
# 4 0.000000 0.000000 0.000000 0.063736 0.000000 0.000000
# 5 0.000000 0.000000 0.000000 0.000000 0.063736 0.000000
# 6 0.000000 0.000000 0.000000 0.000000 0.000000 0.023572
#
#
# Mechanical properties :
#
#
# Convention : Reuss Voigt Hill
#
# Bulk Modulus (GPa) = 51.45452 57.01605 54.23528
# Shear Modulus (GPa) = 19.49419 23.23620 21.36520
#
# Velocity S-wave (km/s) = 3.33925 3.64569 3.49583
# Velocity P-wave (km/s) = 6.65577 7.09467 6.87872
#
# Compressibility (1/GPa) = 0.01943464
#
# Stress axis : x y z
#
# Youngs Moduli (GPa) = 65.53209 65.53122 34.86709
#
# Poissons Ratio (x) = 0.27309 0.27397
# Poissons Ratio (y) = 0.27309 0.27398
# Poissons Ratio (z) = 0.51492 0.51493
#
# Static dielectric constant tensor:
#      x y z
#    x 1.631450 0.000000 0.000000 
#    y 0.000000 1.631450 0.000000 
#    z 0.000000 0.000000 1.559980 
# 
# From -- ./inp_files/4884.got.cif
#   From: 2010.05.17/outbox.cif.g08.bks.cpg/sg128_3_cif.got.tgz:4884.got - 2010.05.20 12:07:25.
