data_PCOD9564714
_publ_section_title
;
Structure prediction by ZEFSAII (Michael W. Deem and Ramdas Pophale) SiO2 
 PCOD9564714
Probable space group: P 4/M N C
;
_chemical_formula_sum "Si O2"
_cell_formula_units_Z 84
_cell_length_a 16.304016
_cell_length_b 16.304016
_cell_length_c 15.702510
_cell_angle_alpha 90.000000
_cell_angle_beta 90.000000
_cell_angle_gamma 90.000000
_cell_volume 4174.055933
_symmetry_space_group_name_H-M "P 4/M N C"
_symmetry_group_IT_number 128
_symmetry_cell_setting 'tetragonal'
loop_
_space_group_symop_operation_xyz
x,y,z
-y,x,z
-x,-y,z
y,-x,z
1/2+x,1/2-y,1/2-z
1/2-x,1/2+y,1/2-z
1/2+y,1/2+x,1/2-z
1/2-y,1/2-x,1/2-z
-x,-y,-z
y,-x,-z
x,y,-z
-y,x,-z
1/2-x,1/2+y,1/2+z
1/2+x,1/2-y,1/2+z
1/2-y,1/2-x,1/2+z
1/2+y,1/2+x,1/2+z
loop_
_atom_site_type_symbol
_atom_site_label
_atom_site_fract_x
_atom_site_fract_y
_atom_site_fract_z
Si Si1 0.158450 0.562866 0.400085
Si Si2 0.769480 0.264196 0.852176
Si Si3 0.006989 0.662827 0.401444
Si Si4 0.386946 0.833236 0.655832
Si Si5 0.077331 0.831797 0.398795
Si Si6 0.000000 0.000000 0.345500
O O1 0.151850 0.540528 0.500000
O O2 0.215830 0.641881 0.389902
O O3 0.186225 0.482421 0.350509
O O4 0.070829 0.596418 0.365577
O O5 0.774138 0.274138 0.750000
O O6 0.738392 0.173506 0.872937
O O7 0.703455 0.330810 0.885935
O O8 0.032433 0.670365 0.500000
O O9 0.915609 0.631221 0.396413
O O10 0.021431 0.754807 0.367861
O O11 0.358802 0.858802 0.750000
O O12 0.063060 0.847754 0.500000
O O13 0.057603 0.916192 0.352372
#
# Coordination Sequence:
#
# PCOD9564714 Si02
#       6
#    16  16  16  16  16   4
#     4  10  22  38  60  88 116 155 200 244 298 354
#     4  10  23  41  58  80 117 160 200 247 302 362
#     4   9  19  35  55  83 118 151 188 233 284 346
#     4  11  23  35  57  88 115 149 198 244 301 357
#     4  10  20  34  56  84 118 156 189 227 287 361
#     4  12  21  32  56  96 128 156 193 230 289 372
#
# _framework density 20.124310000000001
#
# number of rings (size 3 to 8) (size 9 to 14) (size 15 to 20)
#    0.000    1.905    0.000    4.857    5.333    6.857 
#    0.000    0.000    0.000    0.571    0.000    1.333 
#    0.000    0.000    0.000    0.000    0.000    0.000 
#
# Total GULP energy -468007.768080 kJ/mol
# GULP energy per Si atom -5571.521049 kJ/mol
# Density = 2.007851 g / cm^3
# Si number density = 20.124310 Si / 1000 Ang^3
#
#
#
# Elastic Constant Matrix: (Units=GPa)
#
#
# Indices 1 2 3 4 5 6 
#
# 1 112.4703 43.7112 4.4430 0.0000 0.0000 0.0000
# 2 43.7112 112.4703 4.4430 0.0000 0.0000 0.0000
# 3 4.4430 4.4430 24.9930 0.0000 0.0000 0.0000
# 4 0.0000 0.0000 0.0000 13.6134 0.0000 0.0000
# 5 0.0000 0.0000 0.0000 0.0000 13.6134 0.0000
# 6 0.0000 0.0000 0.0000 0.0000 0.0000 20.4731
#
#
#
# Elastic Compliance Matrix: (Units=1/GPa)
#
#
# Indices 1 2 3 4 5 6 
#
# 1 0.010506 -0.004038 -0.001150 0.000000 0.000000 0.000000
# 2 -0.004038 0.010506 -0.001150 0.000000 0.000000 0.000000
# 3 -0.001150 -0.001150 0.040420 0.000000 0.000000 0.000000
# 4 0.000000 0.000000 0.000000 0.073457 0.000000 0.000000
# 5 0.000000 0.000000 0.000000 0.000000 0.073457 0.000000
# 6 0.000000 0.000000 0.000000 0.000000 0.000000 0.048845
#
#
# Mechanical properties :
#
#
# Convention : Reuss Voigt Hill
#
# Bulk Modulus (GPa) = 20.50987 39.45867 29.98427
# Shear Modulus (GPa) = 17.47531 22.69572 20.08552
#
# Velocity S-wave (km/s) = 2.95001 3.36188 3.16266
# Velocity P-wave (km/s) = 4.67088 5.89234 5.31680
#
# Compressibility (1/GPa) = 0.04875701
#
# Stress axis : x y z
#
# Youngs Moduli (GPa) = 95.18479 95.18479 24.74027
#
# Poissons Ratio (x) = 0.38432 0.02845
# Poissons Ratio (y) = 0.38432 0.02845
# Poissons Ratio (z) = 0.10945 0.10945
#
# Static dielectric constant tensor:
#      x y z
#    x 1.716180 0.000000 0.000000 
#    y 0.000000 1.716180 0.000000 
#    z 0.000000 0.000000 1.611770 
# 
# From -- ./inp_files/5641.got.cif
#   From: 2010.05.17/outbox.cif.g08.bks.cpg/sg128_3_cif.got.tgz:5641.got - 2010.05.20 12:07:25.
