data_PCOD9564109
_publ_section_title
;
Structure prediction by ZEFSAII (Michael W. Deem and Ramdas Pophale) SiO2 
 PCOD9564109
Probable space group: P 4/M B M
;
_chemical_formula_sum "Si O2"
_cell_formula_units_Z 96
_cell_length_a 19.374209
_cell_length_b 19.374209
_cell_length_c 12.350862
_cell_angle_alpha 90.000000
_cell_angle_beta 90.000000
_cell_angle_gamma 90.000000
_cell_volume 4636.019244
_symmetry_space_group_name_H-M "P 4/M B M"
_symmetry_group_IT_number 127
_symmetry_cell_setting 'tetragonal'
loop_
_space_group_symop_operation_xyz
x,y,z
-y,x,z
-x,-y,z
y,-x,z
1/2+x,1/2-y,-z
1/2-x,1/2+y,-z
1/2+y,1/2+x,-z
1/2-y,1/2-x,-z
-x,-y,-z
y,-x,-z
x,y,-z
-y,x,-z
1/2-x,1/2+y,z
1/2+x,1/2-y,z
1/2-y,1/2-x,z
1/2+y,1/2+x,z
loop_
_atom_site_type_symbol
_atom_site_label
_atom_site_fract_x
_atom_site_fract_y
_atom_site_fract_z
Si Si1 0.027623 0.110108 0.186515
Si Si2 0.817042 0.578880 0.300121
Si Si3 0.745807 0.867931 0.213855
Si Si4 0.698596 0.482147 0.623499
Si Si5 0.869981 0.781817 0.880740
Si Si6 0.860757 0.475020 0.879633
O O1 0.020299 0.137540 0.309965
O O2 0.058298 0.175082 0.123867
O O3 0.952273 0.080063 0.163294
O O4 0.870840 0.629161 0.357796
O O5 0.765059 0.532677 0.369712
O O6 0.770309 0.623523 0.218109
O O7 0.857070 0.528345 0.217807
O O8 0.691019 0.808982 0.250414
O O9 0.806099 0.831654 0.146228
O O10 0.702102 0.921684 0.141683
O O11 0.779891 0.913247 0.309951
O O12 0.680506 0.467696 0.500000
O O13 0.861633 0.752193 0.000000
O O14 0.929979 0.429979 0.875416
O O15 0.854501 0.505622 0.000000
#
# Coordination Sequence:
#
# PCOD9564109 Si02
#       6
#    16  16  16  16  16  16
#     4  10  21  40  60  86 121 153 195 240 288 348
#     4  10  22  38  55  84 122 152 190 244 295 349
#     4  10  20  37  58  83 116 151 196 247 292 348
#     4  10  22  41  63  85 112 151 200 250 299 349
#     4  11  22  36  59  87 121 161 195 232 287 355
#     4   9  18  33  55  81 111 152 196 235 281 341
#
# _framework density 20.707422000000001
#
# number of rings (size 3 to 8) (size 9 to 14) (size 15 to 20)
#    0.000    2.000    1.667    1.500    0.000    5.333 
#    0.000    2.500    0.000    2.000    0.000    4.667 
#    0.000    0.000    0.000    0.000    0.000    0.000 
#
# Total GULP energy -535836.802879 kJ/mol
# GULP energy per Si atom -5581.633363 kJ/mol
# Density = 2.066029 g / cm^3
# Si number density = 20.707422 Si / 1000 Ang^3
#
#
#
# Elastic Constant Matrix: (Units=GPa)
#
#
# Indices 1 2 3 4 5 6 
#
# 1 43.3541 44.0963 -5.8021 0.0000 0.0000 0.0000
# 2 44.0963 43.3541 -5.8021 0.0000 0.0000 0.0000
# 3 -5.8021 -5.8021 63.9777 0.0000 0.0000 0.0000
# 4 0.0000 0.0000 0.0000 1.6536 0.0000 0.0000
# 5 0.0000 0.0000 0.0000 0.0000 1.6536 0.0000
# 6 0.0000 0.0000 0.0000 0.0000 0.0000 45.0935
#
#
#
# Elastic Compliance Matrix: (Units=1/GPa)
#
#
# Indices 1 2 3 4 5 6 
#
# 1 -0.667852 0.679427 0.001050 0.000000 0.000000 0.000000
# 2 0.679427 -0.667852 0.001050 0.000000 0.000000 0.000000
# 3 0.001050 0.001050 0.015821 0.000000 0.000000 0.000000
# 4 0.000000 0.000000 0.000000 0.604728 0.000000 0.000000
# 5 0.000000 0.000000 0.000000 0.000000 0.604728 0.000000
# 6 0.000000 0.000000 0.000000 0.000000 0.000000 0.022176
#
#
# Mechanical properties :
#
#
# Convention : Reuss Voigt Hill
#
# Bulk Modulus (GPa) = 23.16520 23.96334 23.56427
# Shear Modulus (GPa) = -3.47968 17.55973 7.04003
#
# Velocity S-wave (km/s) = -1.29771 2.91519 1.84584
# Velocity P-wave (km/s) = 2.99429 4.78838 3.99339
#
# Compressibility (1/GPa) = 0.04316820
#
# Stress axis : x y z
#
# Youngs Moduli (GPa) = -1.49734 -1.49734 63.20777
#
# Poissons Ratio (x) = 1.01733 -0.06635
# Poissons Ratio (y) = 1.01733 -0.06635
# Poissons Ratio (z) = 0.00157 0.00157
#
# Static dielectric constant tensor:
#      x y z
#    x 1.768200 0.000000 0.000000 
#    y 0.000000 1.768200 0.000000 
#    z 0.000000 0.000000 1.681100 
# 
# From -- ./inp_files/3525.got.cif
#   From: 2010.05.17/outbox.cif.g08.bks.cpg/sg127_2_cif.got.tgz:3525.got - 2010.05.20 12:03:00.
