data_PCOD9564607
_publ_section_title
;
Structure prediction by ZEFSAII (Michael W. Deem and Ramdas Pophale) SiO2 
 PCOD9564607
Probable space group: P 4/M N C
;
_chemical_formula_sum "Si O2"
_cell_formula_units_Z 96
_cell_length_a 25.966073
_cell_length_b 25.966073
_cell_length_c 8.906497
_cell_angle_alpha 90.000000
_cell_angle_beta 90.000000
_cell_angle_gamma 90.000000
_cell_volume 6005.089346
_symmetry_space_group_name_H-M "P 4/M N C"
_symmetry_group_IT_number 128
_symmetry_cell_setting 'tetragonal'
loop_
_space_group_symop_operation_xyz
x,y,z
-y,x,z
-x,-y,z
y,-x,z
1/2+x,1/2-y,1/2-z
1/2-x,1/2+y,1/2-z
1/2+y,1/2+x,1/2-z
1/2-y,1/2-x,1/2-z
-x,-y,-z
y,-x,-z
x,y,-z
-y,x,-z
1/2-x,1/2+y,1/2+z
1/2+x,1/2-y,1/2+z
1/2-y,1/2-x,1/2+z
1/2+y,1/2+x,1/2+z
loop_
_atom_site_type_symbol
_atom_site_label
_atom_site_fract_x
_atom_site_fract_y
_atom_site_fract_z
Si Si1 0.391108 0.311118 0.179748
Si Si2 0.502530 0.689179 0.322658
Si Si3 0.501303 0.199478 0.821451
Si Si4 0.308917 0.387609 0.319696
Si Si5 0.615739 0.194941 0.821702
Si Si6 0.388543 0.190157 0.821428
O O1 0.447399 0.329902 0.234361
O O2 0.347020 0.344910 0.255431
O O3 0.385371 0.250560 0.223159
O O4 0.388003 0.314205 0.000000
O O5 0.510653 0.682654 0.500000
O O6 0.499197 0.749392 0.278790
O O7 0.445190 0.669953 0.282822
O O8 0.557059 0.174645 0.797126
O O9 0.447268 0.171892 0.788310
O O10 0.499128 0.214197 0.000000
O O11 0.304844 0.384273 0.500000
O O12 0.252107 0.381459 0.248735
O O13 0.657260 0.157260 0.750000
O O14 0.623980 0.198835 0.000000
O O15 0.345700 0.154301 0.750000
O O16 0.381798 0.188604 0.000000
#
# Coordination Sequence:
#
# PCOD9564607 Si02
#       6
#    16  16  16  16  16  16
#     4  10  20  33  49  70  98 130 161 193 234 285
#     4   9  17  30  49  71  93 120 158 200 237 277
#     4   8  16  31  48  66  91 123 159 197 236 281
#     4  10  20  33  50  73  99 126 159 198 240 285
#     4  10  19  32  50  71  97 127 159 197 240 287
#     4   9  18  31  47  69  94 122 156 193 234 279
#
# _framework density 15.98644
#
# number of rings (size 3 to 8) (size 9 to 14) (size 15 to 20)
#    0.000    2.667    0.000    3.000    0.000    6.667 
#    0.000    1.667    0.000    1.000    0.000    7.000 
#    0.000    0.000    0.000    0.000    0.000    0.000 
#
# Total GULP energy -534409.952711 kJ/mol
# GULP energy per Si atom -5566.770341 kJ/mol
# Density = 1.595005 g / cm^3
# Si number density = 15.986440 Si / 1000 Ang^3
#
#
#
# Elastic Constant Matrix: (Units=GPa)
#
#
# Indices 1 2 3 4 5 6 
#
# 1 103.5564 73.6991 45.8998 0.0000 0.0000 0.0000
# 2 73.6991 103.5532 45.8990 0.0000 0.0000 0.0000
# 3 45.8998 45.8990 52.2608 0.0000 0.0000 0.0000
# 4 0.0000 0.0000 0.0000 22.6572 0.0000 0.0000
# 5 0.0000 0.0000 0.0000 0.0000 22.6571 0.0000
# 6 0.0000 0.0000 0.0000 0.0000 0.0000 -3.2205
#
#
#
# Elastic Compliance Matrix: (Units=1/GPa)
#
#
# Indices 1 2 3 4 5 6 
#
# 1 0.021921 -0.011573 -0.009089 0.000000 0.000000 0.000000
# 2 -0.011573 0.021922 -0.009089 0.000000 0.000000 0.000000
# 3 -0.009089 -0.009089 0.035100 0.000000 0.000000 0.000000
# 4 0.000000 0.000000 0.000000 0.044136 0.000000 0.000000
# 5 0.000000 0.000000 0.000000 0.000000 0.044136 0.000000
# 6 0.000000 0.000000 0.000000 0.000000 0.000000 -0.310511
#
#
# Mechanical properties :
#
#
# Convention : Reuss Voigt Hill
#
# Bulk Modulus (GPa) = 51.43641 65.59623 58.51632
# Shear Modulus (GPa) = -64.67249 14.67692 -24.99779
#
# Velocity S-wave (km/s) = -6.36729 3.03328 -3.95864
# Velocity P-wave (km/s) = 4.67030 7.30679 3.97351
#
# Compressibility (1/GPa) = 0.01944148
#
# Stress axis : x y z
#
# Youngs Moduli (GPa) = 45.61765 45.61644 28.48972
#
# Poissons Ratio (x) = 0.52791 0.25895
# Poissons Ratio (y) = 0.52792 0.25895
# Poissons Ratio (z) = 0.41463 0.41461
#
# Static dielectric constant tensor:
#      x y z
#    x 1.538190 0.000000 0.000000 
#    y 0.000000 1.538190 0.000000 
#    z 0.000000 0.000000 1.533630 
# 
# From -- ./inp_files/1430.got.cif
#   From: 2010.05.17/outbox.cif.g08.bks.cpg/sg128_1_cif.got.tgz:1430.got - 2010.05.20 12:07:25.
