data_PCOD9564163
_publ_section_title
;
Structure prediction by ZEFSAII (Michael W. Deem and Ramdas Pophale) SiO2 
 PCOD9564163
Probable space group: P 4/M B M
;
_chemical_formula_sum "Si O2"
_cell_formula_units_Z 88
_cell_length_a 15.446128
_cell_length_b 15.446128
_cell_length_c 16.282001
_cell_angle_alpha 90.000000
_cell_angle_beta 90.000000
_cell_angle_gamma 90.000000
_cell_volume 3884.606531
_symmetry_space_group_name_H-M "P 4/M B M"
_symmetry_group_IT_number 127
_symmetry_cell_setting 'tetragonal'
loop_
_space_group_symop_operation_xyz
x,y,z
-y,x,z
-x,-y,z
y,-x,z
1/2+x,1/2-y,-z
1/2-x,1/2+y,-z
1/2+y,1/2+x,-z
1/2-y,1/2-x,-z
-x,-y,-z
y,-x,-z
x,y,-z
-y,x,-z
1/2-x,1/2+y,z
1/2+x,1/2-y,z
1/2-y,1/2-x,z
1/2+y,1/2+x,z
loop_
_atom_site_type_symbol
_atom_site_label
_atom_site_fract_x
_atom_site_fract_y
_atom_site_fract_z
Si Si1 0.139780 0.502086 0.148059
Si Si2 0.503397 0.145745 0.500000
Si Si3 0.182816 0.827223 0.264199
Si Si4 0.622160 0.271812 0.910991
Si Si5 0.311746 0.042571 0.678042
Si Si6 0.936330 0.868068 0.410458
O O1 0.063532 0.436469 0.124462
O O2 0.223019 0.470199 0.098700
O O3 0.163157 0.484762 0.243617
O O4 0.098506 0.598506 0.139176
O O5 0.426638 0.073363 0.500000
O O6 0.493062 0.197129 0.414373
O O7 0.592561 0.092561 0.500000
O O8 0.269037 0.769037 0.270794
O O9 0.173951 0.860105 0.171104
O O10 0.104156 0.764783 0.290127
O O11 0.182079 0.903483 0.330728
O O12 0.696290 0.196290 0.909934
O O13 0.627475 0.315268 0.000000
O O14 0.395027 0.104974 0.670601
O O15 0.911317 0.831257 0.500000
O O16 0.037432 0.890438 0.407875
#
# Coordination Sequence:
#
# PCOD9564163 Si02
#       6
#    16   8  16  16  16  16
#     4   9  17  31  54  83 115 150 190 238 295 365
#     4   9  16  28  48  74 112 161 201 233 279 340
#     4  10  21  35  57  86 116 153 193 242 298 353
#     4   9  19  36  55  76 109 152 193 238 298 361
#     4   9  18  30  47  76 114 155 195 234 280 345
#     4   9  20  39  62  85 110 149 195 237 283 339
#
# _framework density 22.653517999999998
#
# number of rings (size 3 to 8) (size 9 to 14) (size 15 to 20)
#    0.000    2.818    0.000    1.091    3.818    2.909 
#    0.000    2.727    0.000    3.273    0.000    1.273 
#    0.000    0.000    0.000    0.000    0.000    0.000 
#
# Total GULP energy -491196.747485 kJ/mol
# GULP energy per Si atom -5581.781221 kJ/mol
# Density = 2.260196 g / cm^3
# Si number density = 22.653518 Si / 1000 Ang^3
#
#
#
# Elastic Constant Matrix: (Units=GPa)
#
#
# Indices 1 2 3 4 5 6 
#
# 1 35.8655 10.2526 45.7085 0.0000 0.0000 0.0000
# 2 10.2526 35.8655 45.7086 0.0000 0.0000 0.0000
# 3 45.7085 45.7086 223.4342 0.0000 0.0000 0.0000
# 4 0.0000 0.0000 0.0000 15.5609 0.0000 0.0000
# 5 0.0000 0.0000 0.0000 0.0000 15.5608 0.0000
# 6 0.0000 0.0000 0.0000 0.0000 0.0000 14.7186
#
#
#
# Elastic Compliance Matrix: (Units=1/GPa)
#
#
# Indices 1 2 3 4 5 6 
#
# 1 0.037758 -0.001284 -0.007462 0.000000 0.000000 0.000000
# 2 -0.001284 0.037759 -0.007462 0.000000 0.000000 0.000000
# 3 -0.007462 -0.007462 0.007528 0.000000 0.000000 0.000000
# 4 0.000000 0.000000 0.000000 0.064264 0.000000 0.000000
# 5 0.000000 0.000000 0.000000 0.000000 0.064264 0.000000
# 6 0.000000 0.000000 0.000000 0.000000 0.000000 0.067941
#
#
# Mechanical properties :
#
#
# Convention : Reuss Voigt Hill
#
# Bulk Modulus (GPa) = 19.75103 55.38941 37.57022
# Shear Modulus (GPa) = 15.20653 22.06777 18.63715
#
# Velocity S-wave (km/s) = 2.59369 3.12451 2.87139
# Velocity P-wave (km/s) = 4.20801 6.12540 5.25490
#
# Compressibility (1/GPa) = 0.05063027
#
# Stress axis : x y z
#
# Youngs Moduli (GPa) = 26.48415 26.48408 132.82906
#
# Poissons Ratio (x) = 0.03402 0.99112
# Poissons Ratio (y) = 0.03402 0.99112
# Poissons Ratio (z) = 0.19761 0.19761
#
# Static dielectric constant tensor:
#      x y z
#    x 1.877350 0.000000 0.000000 
#    y 0.000000 1.877350 0.000000 
#    z 0.000000 0.000000 1.854030 
# 
# From -- ./inp_files/4392.got.cif
#   From: 2010.05.17/outbox.cif.g08.bks.cpg/sg127_3_cif.got.tgz:4392.got - 2010.05.20 12:03:00.
