data_PCOD9564267
_publ_section_title
;
Structure prediction by ZEFSAII (Michael W. Deem and Ramdas Pophale) SiO2 
 PCOD9564267
Probable space group: P 4/M B M
;
_chemical_formula_sum "Si O2"
_cell_formula_units_Z 88
_cell_length_a 13.094894
_cell_length_b 13.094894
_cell_length_c 28.355611
_cell_angle_alpha 90.000000
_cell_angle_beta 90.000000
_cell_angle_gamma 90.000000
_cell_volume 4862.313809
_symmetry_space_group_name_H-M "P 4/M B M"
_symmetry_group_IT_number 127
_symmetry_cell_setting 'tetragonal'
loop_
_space_group_symop_operation_xyz
x,y,z
-y,x,z
-x,-y,z
y,-x,z
1/2+x,1/2-y,-z
1/2-x,1/2+y,-z
1/2+y,1/2+x,-z
1/2-y,1/2-x,-z
-x,-y,-z
y,-x,-z
x,y,-z
-y,x,-z
1/2-x,1/2+y,z
1/2+x,1/2-y,z
1/2-y,1/2-x,z
1/2+y,1/2+x,z
loop_
_atom_site_type_symbol
_atom_site_label
_atom_site_fract_x
_atom_site_fract_y
_atom_site_fract_z
Si Si1 0.258078 0.930168 0.390866
Si Si2 0.994046 0.826535 0.086519
Si Si3 0.118668 0.790198 0.552768
Si Si4 0.672545 0.514754 0.292927
Si Si5 0.001256 0.671564 0.000000
Si Si6 0.672735 0.510590 0.190353
O O1 0.349406 0.849406 0.392384
O O2 0.154542 0.875307 0.409876
O O3 0.242925 0.971732 0.338174
O O4 0.270226 0.022536 0.427096
O O5 0.988924 0.776819 0.138945
O O6 0.898677 0.905320 0.082675
O O7 0.995023 0.743899 0.045645
O O8 0.099667 0.830906 0.500000
O O9 0.212784 0.712784 0.549916
O O10 0.589214 0.606360 0.295109
O O11 0.725748 0.516476 0.241331
O O12 0.907787 0.592214 0.000000
O O13 0.104676 0.604676 0.000000
O O14 0.591409 0.603336 0.190541
#
# Coordination Sequence:
#
# PCOD9564267 Si02
#       6
#    16  16  16  16   8  16
#     4  11  21  34  53  77 104 136 173 214 260 310
#     4   9  17  32  55  82 106 130 168 219 265 305
#     4  10  22  38  54  75 103 133 170 216 260 309
#     4   9  15  28  51  77 104 132 163 204 257 307
#     4  11  24  37  48  68 104 147 184 217 256 306
#     4   7  12  24  47  77 105 128 156 203 257 306
#
# _framework density 18.098379000000001
#
# number of rings (size 3 to 8) (size 9 to 14) (size 15 to 20)
#    0.000    2.636    1.818    3.273    0.000    4.000 
#    0.000    2.727    0.000    7.636    0.000    0.000 
#    0.000    0.000    0.000    0.000    0.000    0.000 
#
# Total GULP energy -489952.386761 kJ/mol
# GULP energy per Si atom -5567.640759 kJ/mol
# Density = 1.805719 g / cm^3
# Si number density = 18.098379 Si / 1000 Ang^3
#
#
#
# Elastic Constant Matrix: (Units=GPa)
#
#
# Indices 1 2 3 4 5 6 
#
# 1 39.7503 -2.7551 31.1007 0.0000 0.0000 0.0000
# 2 -2.7551 39.7505 31.1008 0.0000 0.0000 0.0000
# 3 31.1007 31.1008 182.1007 0.0000 0.0000 0.0000
# 4 0.0000 0.0000 0.0000 14.8985 0.0000 0.0000
# 5 0.0000 0.0000 0.0000 0.0000 14.9005 0.0000
# 6 0.0000 0.0000 0.0000 0.0000 0.0000 9.0307
#
#
#
# Elastic Compliance Matrix: (Units=1/GPa)
#
#
# Indices 1 2 3 4 5 6 
#
# 1 0.030723 0.007196 -0.006476 0.000000 0.000000 0.000000
# 2 0.007196 0.030723 -0.006476 0.000000 0.000000 0.000000
# 3 -0.006476 -0.006476 0.007704 0.000000 0.000000 0.000000
# 4 0.000000 0.000000 0.000000 0.067121 0.000000 0.000000
# 5 0.000000 0.000000 0.000000 0.000000 0.067112 0.000000
# 6 0.000000 0.000000 0.000000 0.000000 0.000000 0.110733
#
#
# Mechanical properties :
#
#
# Convention : Reuss Voigt Hill
#
# Bulk Modulus (GPa) = 17.34995 42.27714 29.81354
# Shear Modulus (GPa) = 14.49952 21.24295 17.87123
#
# Velocity S-wave (km/s) = 2.83353 3.42972 3.14578
# Velocity P-wave (km/s) = 4.50694 6.25254 5.45008
#
# Compressibility (1/GPa) = 0.05763707
#
# Stress axis : x y z
#
# Youngs Moduli (GPa) = 32.54914 32.54927 129.80993
#
# Poissons Ratio (x) = -0.23423 0.84067
# Poissons Ratio (y) = -0.23423 0.84067
# Poissons Ratio (z) = 0.21079 0.21079
#
# Static dielectric constant tensor:
#      x y z
#    x 1.610150 0.000000 0.000000 
#    y 0.000000 1.610150 0.000000 
#    z 0.000000 0.000000 1.671460 
# 
# From -- ./inp_files/6511.got.cif
#   From: 2010.05.17/outbox.cif.g08.bks.cpg/sg127_4_cif.got.tgz:6511.got - 2010.05.20 12:03:00.
