data_PCOD9564521
_publ_section_title
;
Structure prediction by ZEFSAII (Michael W. Deem and Ramdas Pophale) SiO2 
 PCOD9564521
Probable space group: P 4/M N C
;
_chemical_formula_sum "Si O2"
_cell_formula_units_Z 48
_cell_length_a 23.768629
_cell_length_b 23.768629
_cell_length_c 5.461955
_cell_angle_alpha 90.000000
_cell_angle_beta 90.000000
_cell_angle_gamma 90.000000
_cell_volume 3085.719049
_symmetry_space_group_name_H-M "P 4/M N C"
_symmetry_group_IT_number 128
_symmetry_cell_setting 'tetragonal'
loop_
_space_group_symop_operation_xyz
x,y,z
-y,x,z
-x,-y,z
y,-x,z
1/2+x,1/2-y,1/2-z
1/2-x,1/2+y,1/2-z
1/2+y,1/2+x,1/2-z
1/2-y,1/2-x,1/2-z
-x,-y,-z
y,-x,-z
x,y,-z
-y,x,-z
1/2-x,1/2+y,1/2+z
1/2+x,1/2-y,1/2+z
1/2-y,1/2-x,1/2+z
1/2+y,1/2+x,1/2+z
loop_
_atom_site_type_symbol
_atom_site_label
_atom_site_fract_x
_atom_site_fract_y
_atom_site_fract_z
Si Si1 0.896795 0.689373 0.000000
Si Si2 0.528649 0.076459 0.500000
Si Si3 0.846227 0.428051 0.500000
Si Si4 0.273268 0.868694 0.500000
Si Si5 0.096018 0.693660 0.500000
Si Si6 0.741736 0.294322 0.000000
O O1 0.903605 0.723701 0.750026
O O2 0.935116 0.634127 0.000000
O O3 0.832001 0.667165 0.000000
O O4 0.544590 0.044590 0.250000
O O5 0.464791 0.097399 0.500000
O O6 0.864629 0.362740 0.500000
O O7 0.812109 0.438377 0.749183
O O8 0.223854 0.823160 0.500000
O O9 0.139505 0.744855 0.500000
O O10 0.768827 0.268827 0.250000
#
# Coordination Sequence:
#
# PCOD9564521 Si02
#       6
#     8   8   8   8   8   8
#     4  10  16  27  38  55  84  94 113 149 180 230
#     4  12  21  32  44  57  71 102 133 162 201 244
#     4  10  20  32  46  54  71  97 127 164 213 235
#     4  10  16  25  41  63  80  94 110 140 192 238
#     4  10  19  35  42  57  76  92 124 174 201 234
#     4  12  16  25  46  62  76  96 112 140 206 243
#
# _framework density 15.555531
#
# number of rings (size 3 to 8) (size 9 to 14) (size 15 to 20)
#    0.000    1.333   10.000    1.000    0.000    0.000 
#    0.000   10.000    0.000    0.000    0.000    0.000 
#    0.000    0.000    0.000    0.000    0.000    0.000 
#
# Total GULP energy -267604.503758 kJ/mol
# GULP energy per Si atom -5575.093828 kJ/mol
# Density = 1.552013 g / cm^3
# Si number density = 15.555531 Si / 1000 Ang^3
#
#
#
# Elastic Constant Matrix: (Units=GPa)
#
#
# Indices 1 2 3 4 5 6 
#
# 1 30.6174 30.1579 17.5607 0.0000 0.0000 0.0000
# 2 30.1579 30.6174 17.5607 0.0000 0.0000 0.0000
# 3 17.5607 17.5607 191.8014 0.0000 0.0000 0.0000
# 4 0.0000 0.0000 0.0000 32.1810 0.0000 0.0000
# 5 0.0000 0.0000 0.0000 0.0000 32.1810 0.0000
# 6 0.0000 0.0000 0.0000 0.0000 0.0000 37.7879
#
#
#
# Elastic Compliance Matrix: (Units=1/GPa)
#
#
# Indices 1 2 3 4 5 6 
#
# 1 1.096686 -1.079313 -0.001591 0.000000 0.000000 0.000000
# 2 -1.079313 1.096686 -0.001591 0.000000 0.000000 0.000000
# 3 -0.001591 -0.001591 0.005505 0.000000 0.000000 0.000000
# 4 0.000000 0.000000 0.000000 0.031074 0.000000 0.000000
# 5 0.000000 0.000000 0.000000 0.000000 0.031074 0.000000
# 6 0.000000 0.000000 0.000000 0.000000 0.000000 0.026463
#
#
# Mechanical properties :
#
#
# Convention : Reuss Voigt Hill
#
# Bulk Modulus (GPa) = 29.50812 42.62163 36.06488
# Shear Modulus (GPa) = 1.12013 32.94712 17.03363
#
# Velocity S-wave (km/s) = 0.84950 4.60720 3.31270
# Velocity P-wave (km/s) = 4.46911 7.46732 6.15361
#
# Compressibility (1/GPa) = 0.03388897
#
# Stress axis : x y z
#
# Youngs Moduli (GPa) = 0.91184 0.91184 181.65329
#
# Poissons Ratio (x) = 0.98416 0.28894
# Poissons Ratio (y) = 0.98416 0.28894
# Poissons Ratio (z) = 0.00145 0.00145
#
# Static dielectric constant tensor:
#      x y z
#    x 1.337470 0.000000 0.000000 
#    y 0.000000 1.337470 0.000000 
#    z 0.000000 0.000000 1.677470 
# 
# From -- ./inp_files/251.got.cif
#   From: 2010.05.17/outbox.cif.g08.bks.cpg/sg128_1_cif.got.tgz:251.got - 2010.05.20 12:07:25.
