data_PCOD9564733
_publ_section_title
;
Structure prediction by ZEFSAII (Michael W. Deem and Ramdas Pophale) SiO2 
 PCOD9564733
Probable space group: P 4/M N C
;
_chemical_formula_sum "Si O2"
_cell_formula_units_Z 80
_cell_length_a 14.818125
_cell_length_b 14.818125
_cell_length_c 19.326261
_cell_angle_alpha 90.000000
_cell_angle_beta 90.000000
_cell_angle_gamma 90.000000
_cell_volume 4243.599097
_symmetry_space_group_name_H-M "P 4/M N C"
_symmetry_group_IT_number 128
_symmetry_cell_setting 'tetragonal'
loop_
_space_group_symop_operation_xyz
x,y,z
-y,x,z
-x,-y,z
y,-x,z
1/2+x,1/2-y,1/2-z
1/2-x,1/2+y,1/2-z
1/2+y,1/2+x,1/2-z
1/2-y,1/2-x,1/2-z
-x,-y,-z
y,-x,-z
x,y,-z
-y,x,-z
1/2-x,1/2+y,1/2+z
1/2+x,1/2-y,1/2+z
1/2-y,1/2-x,1/2+z
1/2+y,1/2+x,1/2+z
loop_
_atom_site_type_symbol
_atom_site_label
_atom_site_fract_x
_atom_site_fract_y
_atom_site_fract_z
Si Si1 0.907639 0.449577 0.158872
Si Si2 0.462804 0.229400 0.289142
Si Si3 0.292234 0.311236 0.915740
Si Si4 0.719243 0.668949 0.306402
Si Si5 0.510115 0.752269 0.920188
O O1 0.833217 0.464689 0.219695
O O2 0.930912 0.344500 0.154525
O O3 0.859274 0.487723 0.091478
O O4 0.000000 0.500000 0.173722
O O5 0.382833 0.302115 0.287518
O O6 0.561756 0.266601 0.304530
O O7 0.216658 0.251314 0.877780
O O8 0.282217 0.415246 0.891630
O O9 0.392976 0.281535 0.893912
O O10 0.284247 0.305749 0.000000
O O11 0.784714 0.715286 0.250000
O O12 0.508991 0.726362 0.000000
#
# Coordination Sequence:
#
# PCOD9564733 Si02
#       5
#    16  16  16  16  16
#     4  11  20  37  56  88 117 148 199 238 298 347
#     4  11  22  36  60  84 112 156 187 242 294 346
#     4  10  21  38  58  86 121 157 197 244 295 349
#     4  12  22  40  61  85 119 152 199 241 293 350
#     4  10  20  35  57  84 118 158 196 241 293 350
#
# _framework density 18.851921999999998
#
# number of rings (size 3 to 8) (size 9 to 14) (size 15 to 20)
#    0.000    1.200    4.000    4.800    0.000    1.200 
#    0.000    4.000    0.000    4.800    0.000    1.400 
#    0.000    0.000    0.000    0.000    0.000    0.000 
#
# Total GULP energy -446121.686739 kJ/mol
# GULP energy per Si atom -5576.521084 kJ/mol
# Density = 1.880901 g / cm^3
# Si number density = 18.851922 Si / 1000 Ang^3
#
#
#
# Elastic Constant Matrix: (Units=GPa)
#
#
# Indices 1 2 3 4 5 6 
#
# 1 161.4256 81.0084 25.3809 0.0000 0.0000 0.0000
# 2 81.0084 161.4256 25.3806 0.0000 0.0000 0.0000
# 3 25.3809 25.3806 39.2470 0.0000 0.0000 0.0000
# 4 0.0000 0.0000 0.0000 19.2619 0.0000 0.0000
# 5 0.0000 0.0000 0.0000 0.0000 19.2619 0.0000
# 6 0.0000 0.0000 0.0000 0.0000 0.0000 45.2205
#
#
#
# Elastic Compliance Matrix: (Units=1/GPa)
#
#
# Indices 1 2 3 4 5 6 
#
# 1 0.008603 -0.003832 -0.003085 0.000000 0.000000 0.000000
# 2 -0.003832 0.008603 -0.003085 0.000000 0.000000 0.000000
# 3 -0.003085 -0.003085 0.029470 0.000000 0.000000 0.000000
# 4 0.000000 0.000000 0.000000 0.051916 0.000000 0.000000
# 5 0.000000 0.000000 0.000000 0.000000 0.051916 0.000000
# 6 0.000000 0.000000 0.000000 0.000000 0.000000 0.022114
#
#
# Mechanical properties :
#
#
# Convention : Reuss Voigt Hill
#
# Bulk Modulus (GPa) = 37.49435 69.51535 53.50485
# Shear Modulus (GPa) = 24.81175 32.10409 28.45792
#
# Velocity S-wave (km/s) = 3.63180 4.13117 3.88951
# Velocity P-wave (km/s) = 6.12525 7.72722 6.97239
#
# Compressibility (1/GPa) = 0.02667068
#
# Stress axis : x y z
#
# Youngs Moduli (GPa) = 116.23843 116.23880 33.93275
#
# Poissons Ratio (x) = 0.44545 0.10469
# Poissons Ratio (y) = 0.44544 0.10469
# Poissons Ratio (z) = 0.35863 0.35862
#
# Static dielectric constant tensor:
#      x y z
#    x 1.661520 0.000000 0.000000 
#    y 0.000000 1.661520 0.000000 
#    z 0.000000 0.000000 1.751330 
# 
# From -- ./inp_files/5519.got.cif
#   From: 2010.05.17/outbox.cif.g08.bks.cpg/sg128_3_cif.got.tgz:5519.got - 2010.05.20 12:07:25.
