data_PCOD9564123
_publ_section_title
;
Structure prediction by ZEFSAII (Michael W. Deem and Ramdas Pophale) SiO2 
 PCOD9564123
Probable space group: P 4/M B M
;
_chemical_formula_sum "Si O2"
_cell_formula_units_Z 112
_cell_length_a 14.127709
_cell_length_b 14.127709
_cell_length_c 30.372933
_cell_angle_alpha 90.000000
_cell_angle_beta 90.000000
_cell_angle_gamma 90.000000
_cell_volume 6062.199351
_symmetry_space_group_name_H-M "P 4/M B M"
_symmetry_group_IT_number 127
_symmetry_cell_setting 'tetragonal'
loop_
_space_group_symop_operation_xyz
x,y,z
-y,x,z
-x,-y,z
y,-x,z
1/2+x,1/2-y,-z
1/2-x,1/2+y,-z
1/2+y,1/2+x,-z
1/2-y,1/2-x,-z
-x,-y,-z
y,-x,-z
x,y,-z
-y,x,-z
1/2-x,1/2+y,z
1/2+x,1/2-y,z
1/2-y,1/2-x,z
1/2+y,1/2+x,z
loop_
_atom_site_type_symbol
_atom_site_label
_atom_site_fract_x
_atom_site_fract_y
_atom_site_fract_z
Si Si1 0.581608 0.918393 0.688319
Si Si2 0.403000 0.253439 0.139549
Si Si3 0.563037 0.224589 0.450607
Si Si4 0.646767 0.436481 0.050012
Si Si5 0.081390 0.581390 0.585892
Si Si6 0.226523 0.434434 0.283150
Si Si7 0.897031 0.763265 0.185477
Si Si8 0.144910 0.936340 0.632173
O O1 0.602524 0.897477 0.637024
O O2 0.534983 0.827357 0.711097
O O3 0.500000 0.000000 0.688613
O O4 0.339972 0.160029 0.145978
O O5 0.406955 0.282784 0.088384
O O6 0.508231 0.244100 0.158184
O O7 0.350436 0.338644 0.165364
O O8 0.557674 0.263990 0.500000
O O9 0.644637 0.144637 0.449933
O O10 0.465699 0.170328 0.438097
O O11 0.584241 0.298688 0.412462
O O12 0.619496 0.547354 0.054823
O O13 0.681066 0.421453 0.000000
O O14 0.000000 0.500000 0.586004
O O15 0.144895 0.355106 0.284015
O O16 0.277725 0.425247 0.236429
O O17 0.292634 0.416839 0.324893
O O18 0.826843 0.673158 0.183214
O O19 0.047365 0.879991 0.633062
#
# Coordination Sequence:
#
# PCOD9564123 Si02
#       8
#     8  16  16  16   8  16  16  16
#     4   9  16  31  62  87 110 146 179 224 291 335
#     4  11  22  38  61  89 123 165 204 248 310 361
#     4  10  20  38  63  88 112 139 179 231 283 335
#     4   9  17  33  59  88 118 157 207 259 307 358
#     4   9  15  30  57  90 114 132 166 225 284 326
#     4  10  21  41  62  86 116 148 193 241 283 336
#     4  10  24  40  58  90 124 157 205 252 299 365
#     4  11  25  42  57  79 115 155 189 224 279 345
#
# _framework density 18.475142999999999
#
# number of rings (size 3 to 8) (size 9 to 14) (size 15 to 20)
#    0.000    2.000    2.857    1.071    3.000    2.286 
#    5.143    0.714    0.000    0.429    0.000    1.000 
#    0.000    0.000    0.000    0.000    0.000    0.000 
#
# Total GULP energy -625339.734944 kJ/mol
# GULP energy per Si atom -5583.390491 kJ/mol
# Density = 1.843309 g / cm^3
# Si number density = 18.475143 Si / 1000 Ang^3
#
#
#
# Elastic Constant Matrix: (Units=GPa)
#
#
# Indices 1 2 3 4 5 6 
#
# 1 42.1239 4.0496 26.2267 0.0000 0.0000 0.0000
# 2 4.0496 42.1239 26.2267 0.0000 0.0000 0.0000
# 3 26.2267 26.2267 136.6585 0.0000 0.0000 0.0000
# 4 0.0000 0.0000 0.0000 17.7345 0.0000 0.0000
# 5 0.0000 0.0000 0.0000 0.0000 17.7345 0.0000
# 6 0.0000 0.0000 0.0000 0.0000 0.0000 -0.2314
#
#
#
# Elastic Compliance Matrix: (Units=1/GPa)
#
#
# Indices 1 2 3 4 5 6 
#
# 1 0.026980 0.000716 -0.005315 0.000000 0.000000 0.000000
# 2 0.000716 0.026980 -0.005315 0.000000 0.000000 0.000000
# 3 -0.005315 -0.005315 0.009358 0.000000 0.000000 0.000000
# 4 0.000000 0.000000 0.000000 0.056387 0.000000 0.000000
# 5 0.000000 0.000000 0.000000 0.000000 0.056387 0.000000
# 6 0.000000 0.000000 0.000000 0.000000 0.000000 -4.320658
#
#
# Mechanical properties :
#
#
# Convention : Reuss Voigt Hill
#
# Bulk Modulus (GPa) = 22.99484 37.10137 30.04811
# Shear Modulus (GPa) = -1.21647 18.00773 8.39563
#
# Velocity S-wave (km/s) = -0.81232 3.12541 2.13405
# Velocity P-wave (km/s) = 3.40493 5.75757 4.72986
#
# Compressibility (1/GPa) = 0.04348801
#
# Stress axis : x y z
#
# Youngs Moduli (GPa) = 37.06449 37.06449 106.86474
#
# Poissons Ratio (x) = -0.02652 0.56800
# Poissons Ratio (y) = -0.02652 0.56800
# Poissons Ratio (z) = 0.19700 0.19700
#
# Static dielectric constant tensor:
#      x y z
#    x 1.628290 0.000000 0.000000 
#    y 0.000000 1.628290 0.000000 
#    z 0.000000 0.000000 1.629530 
# 
# From -- ./inp_files/6428.got.cif
#   From: 2010.05.17/outbox.cif.g08.bks.cpg/sg127_4_cif.got.tgz:6428.got - 2010.05.20 12:03:00.
