data_PCOD9564535
_publ_section_title
;
Structure prediction by ZEFSAII (Michael W. Deem and Ramdas Pophale) SiO2 
 PCOD9564535
Probable space group: P 4/M N C
;
_chemical_formula_sum "Si O2"
_cell_formula_units_Z 72
_cell_length_a 11.953838
_cell_length_b 11.953838
_cell_length_c 25.728321
_cell_angle_alpha 90.000000
_cell_angle_beta 90.000000
_cell_angle_gamma 90.000000
_cell_volume 3676.428951
_symmetry_space_group_name_H-M "P 4/M N C"
_symmetry_group_IT_number 128
_symmetry_cell_setting 'tetragonal'
loop_
_space_group_symop_operation_xyz
x,y,z
-y,x,z
-x,-y,z
y,-x,z
1/2+x,1/2-y,1/2-z
1/2-x,1/2+y,1/2-z
1/2+y,1/2+x,1/2-z
1/2-y,1/2-x,1/2-z
-x,-y,-z
y,-x,-z
x,y,-z
-y,x,-z
1/2-x,1/2+y,1/2+z
1/2+x,1/2-y,1/2+z
1/2-y,1/2-x,1/2+z
1/2+y,1/2+x,1/2+z
loop_
_atom_site_type_symbol
_atom_site_label
_atom_site_fract_x
_atom_site_fract_y
_atom_site_fract_z
Si Si1 0.163835 0.907141 0.500000
Si Si2 0.339120 0.083587 0.058860
Si Si3 0.437119 0.881580 0.305416
Si Si4 0.921531 0.660372 0.413923
Si Si5 0.546523 0.680506 0.651406
O O1 0.145785 0.041600 0.500000
O O2 0.236147 0.880716 0.448412
O O3 0.443255 0.152397 0.082772
O O4 0.380025 0.954397 0.059384
O O5 0.232037 0.080046 0.095693
O O6 0.317684 0.119729 0.000000
O O7 0.377196 0.877196 0.250000
O O8 0.353017 0.879513 0.354765
O O9 0.533696 0.788180 0.311703
O O10 0.500000 0.000000 0.309473
O O11 0.422580 0.628900 0.658218
#
# Coordination Sequence:
#
# PCOD9564535 Si02
#       5
#     8  16  16  16  16
#     4  11  24  37  52  84 126 165 206 257 310 362
#     4  10  17  32  57  84 110 149 193 232 287 364
#     4  10  20  40  64  89 114 153 210 259 296 368
#     4  10  17  36  57  81 115 151 194 254 299 356
#     4  10  22  39  56  85 126 157 188 247 314 362
#
# _framework density 19.584223000000001
#
# number of rings (size 3 to 8) (size 9 to 14) (size 15 to 20)
#    0.000    1.889    6.667    0.667    0.000    4.444 
#    4.000    1.111    0.000    2.667    0.000    0.000 
#    0.000    0.000    0.000    0.000    0.000    0.000 
#
# Total GULP energy -401341.247111 kJ/mol
# GULP energy per Si atom -5574.183988 kJ/mol
# Density = 1.953965 g / cm^3
# Si number density = 19.584223 Si / 1000 Ang^3
#
#
#
# Elastic Constant Matrix: (Units=GPa)
#
#
# Indices 1 2 3 4 5 6 
#
# 1 62.9276 -5.4300 1.4781 0.0000 0.0000 0.0000
# 2 -5.4300 62.9276 1.4781 0.0000 0.0000 0.0000
# 3 1.4781 1.4781 136.0453 0.0000 0.0000 0.0000
# 4 0.0000 0.0000 0.0000 -33.0867 0.0000 0.0000
# 5 0.0000 0.0000 0.0000 0.0000 -33.0867 0.0000
# 6 0.0000 0.0000 0.0000 0.0000 0.0000 21.0416
#
#
#
# Elastic Compliance Matrix: (Units=1/GPa)
#
#
# Indices 1 2 3 4 5 6 
#
# 1 0.016015 0.001386 -0.000189 0.000000 0.000000 0.000000
# 2 0.001386 0.016015 -0.000189 0.000000 0.000000 0.000000
# 3 -0.000189 -0.000189 0.007355 0.000000 0.000000 0.000000
# 4 0.000000 0.000000 0.000000 -0.030224 0.000000 0.000000
# 5 0.000000 0.000000 0.000000 0.000000 -0.030224 0.000000
# 6 0.000000 0.000000 0.000000 0.000000 0.000000 0.047525
#
#
# Mechanical properties :
#
#
# Convention : Reuss Voigt Hill
#
# Bulk Modulus (GPa) = 24.15348 28.55028 26.35188
# Shear Modulus (GPa) = 130.72856 8.59857 69.66356
#
# Velocity S-wave (km/s) = 8.17905 2.09764 5.97064
# Velocity P-wave (km/s) = 10.07749 4.52511 7.81129
#
# Compressibility (1/GPa) = 0.04140190
#
# Stress axis : x y z
#
# Youngs Moduli (GPa) = 62.44005 62.44005 135.96926
#
# Poissons Ratio (x) = -0.08657 0.02571
# Poissons Ratio (y) = -0.08657 0.02571
# Poissons Ratio (z) = 0.01180 0.01180
#
# Static dielectric constant tensor:
#      x y z
#    x 1.707730 0.000000 0.000000 
#    y 0.000000 1.707730 0.000000 
#    z 0.000000 0.000000 1.702540 
# 
# From -- ./inp_files/6788.got.cif
#   From: 2010.05.17/outbox.cif.g08.bks.cpg/sg128_4_cif.got.tgz:6788.got - 2010.05.20 12:07:25.
