data_PCOD9564368
_publ_section_title
;
Structure prediction by ZEFSAII (Michael W. Deem and Ramdas Pophale) SiO2 
 PCOD9564368
Probable space group: P 4/M B M
;
_chemical_formula_sum "Si O2"
_cell_formula_units_Z 96
_cell_length_a 14.175293
_cell_length_b 14.175293
_cell_length_c 27.784815
_cell_angle_alpha 90.000000
_cell_angle_beta 90.000000
_cell_angle_gamma 90.000000
_cell_volume 5583.051042
_symmetry_space_group_name_H-M "P 4/M B M"
_symmetry_group_IT_number 127
_symmetry_cell_setting 'tetragonal'
loop_
_space_group_symop_operation_xyz
x,y,z
-y,x,z
-x,-y,z
y,-x,z
1/2+x,1/2-y,-z
1/2-x,1/2+y,-z
1/2+y,1/2+x,-z
1/2-y,1/2-x,-z
-x,-y,-z
y,-x,-z
x,y,-z
-y,x,-z
1/2-x,1/2+y,z
1/2+x,1/2-y,z
1/2-y,1/2-x,z
1/2+y,1/2+x,z
loop_
_atom_site_type_symbol
_atom_site_label
_atom_site_fract_x
_atom_site_fract_y
_atom_site_fract_z
Si Si1 0.567682 0.645011 0.747884
Si Si2 0.065130 0.725494 0.445403
Si Si3 0.150822 0.947416 0.000000
Si Si4 0.255212 0.599614 0.153268
Si Si5 0.399132 0.740734 0.101759
Si Si6 0.071936 0.858659 0.640886
Si Si7 0.424088 0.924088 0.558287
O O1 0.456230 0.620222 0.751930
O O2 0.594893 0.712771 0.791226
O O3 0.589154 0.682527 0.694208
O O4 0.057104 0.764040 0.500000
O O5 0.139962 0.639962 0.447780
O O6 0.097760 0.796898 0.404874
O O7 0.965069 0.678236 0.429937
O O8 0.210016 0.925212 0.952274
O O9 0.055814 0.884076 0.000000
O O10 0.160428 0.660428 0.147829
O O11 0.337564 0.656417 0.125244
O O12 0.246373 0.495306 0.131528
O O13 0.333099 0.833099 0.102477
O O14 0.960106 0.878873 0.638453
O O15 0.428052 0.928052 0.500000
O O16 0.500000 0.000000 0.577474
#
# Coordination Sequence:
#
# PCOD9564368 Si02
#       7
#    16  16   8  16  16  16   8
#     4   9  17  33  58  80 102 136 182 230 271 320
#     4   9  17  31  51  73  98 132 174 216 259 313
#     4  11  21  36  62  91 118 154 200 245 282 322
#     4  11  22  36  61  88 111 152 198 232 285 344
#     4  11  23  39  59  88 124 154 189 241 287 333
#     4   9  19  34  51  75 105 138 170 210 272 329
#     4   7  12  26  48  68  88 122 166 207 247 298
#
# _framework density 17.194900000000001
#
# number of rings (size 3 to 8) (size 9 to 14) (size 15 to 20)
#    0.000    2.333    3.333    2.250    0.000    2.000 
#    1.500    1.250    3.667    1.000    0.000    0.000 
#    0.000    0.000    0.000    0.000    0.000    0.000 
#
# Total GULP energy -534968.644315 kJ/mol
# GULP energy per Si atom -5572.590045 kJ/mol
# Density = 1.715576 g / cm^3
# Si number density = 17.194900 Si / 1000 Ang^3
#
#
#
# Elastic Constant Matrix: (Units=GPa)
#
#
# Indices 1 2 3 4 5 6 
#
# 1 62.3939 28.1072 33.1099 0.0000 0.0000 0.0000
# 2 28.1072 62.3939 33.1099 0.0000 0.0000 0.0000
# 3 33.1099 33.1099 121.7703 0.0000 0.0000 0.0000
# 4 0.0000 0.0000 0.0000 20.3319 0.0000 0.0000
# 5 0.0000 0.0000 0.0000 0.0000 20.3319 0.0000
# 6 0.0000 0.0000 0.0000 0.0000 0.0000 6.8154
#
#
#
# Elastic Compliance Matrix: (Units=1/GPa)
#
#
# Indices 1 2 3 4 5 6 
#
# 1 0.021480 -0.007686 -0.003751 0.000000 0.000000 0.000000
# 2 -0.007686 0.021480 -0.003751 0.000000 0.000000 0.000000
# 3 -0.003751 -0.003751 0.010252 0.000000 0.000000 0.000000
# 4 0.000000 0.000000 0.000000 0.049184 0.000000 0.000000
# 5 0.000000 0.000000 0.000000 0.000000 0.049184 0.000000
# 6 0.000000 0.000000 0.000000 0.000000 0.000000 0.146727
#
#
# Mechanical properties :
#
#
# Convention : Reuss Voigt Hill
#
# Bulk Modulus (GPa) = 43.78831 48.35689 46.07260
# Shear Modulus (GPa) = 14.86799 19.64456 17.25627
#
# Velocity S-wave (km/s) = 2.94372 3.38370 3.17135
# Velocity P-wave (km/s) = 6.08894 6.59165 6.34527
#
# Compressibility (1/GPa) = 0.02283714
#
# Stress axis : x y z
#
# Youngs Moduli (GPa) = 46.55515 46.55515 97.54382
#
# Poissons Ratio (x) = 0.35782 0.36585
# Poissons Ratio (y) = 0.35782 0.36585
# Poissons Ratio (z) = 0.17461 0.17461
#
# Static dielectric constant tensor:
#      x y z
#    x 1.586330 0.000000 0.000000 
#    y 0.000000 1.586330 0.000000 
#    z 0.000000 0.000000 1.578100 
# 
# From -- ./inp_files/6125.got.cif
#   From: 2010.05.17/outbox.cif.g08.bks.cpg/sg127_4_cif.got.tgz:6125.got - 2010.05.20 12:03:00.
