data_PCOD9564261
_publ_section_title
;
Structure prediction by ZEFSAII (Michael W. Deem and Ramdas Pophale) SiO2 
 PCOD9564261
Probable space group: P 4/M B M
;
_chemical_formula_sum "Si O2"
_cell_formula_units_Z 56
_cell_length_a 12.332629
_cell_length_b 12.332629
_cell_length_c 18.071644
_cell_angle_alpha 90.000000
_cell_angle_beta 90.000000
_cell_angle_gamma 90.000000
_cell_volume 2748.583889
_symmetry_space_group_name_H-M "P 4/M B M"
_symmetry_group_IT_number 127
_symmetry_cell_setting 'tetragonal'
loop_
_space_group_symop_operation_xyz
x,y,z
-y,x,z
-x,-y,z
y,-x,z
1/2+x,1/2-y,-z
1/2-x,1/2+y,-z
1/2+y,1/2+x,-z
1/2-y,1/2-x,-z
-x,-y,-z
y,-x,-z
x,y,-z
-y,x,-z
1/2-x,1/2+y,z
1/2+x,1/2-y,z
1/2-y,1/2-x,z
1/2+y,1/2+x,z
loop_
_atom_site_type_symbol
_atom_site_label
_atom_site_fract_x
_atom_site_fract_y
_atom_site_fract_z
Si Si1 0.280840 0.604828 0.814452
Si Si2 0.757052 0.073821 0.915951
Si Si3 0.964805 0.173560 0.650874
Si Si4 0.589229 0.910772 0.588687
O O1 0.208510 0.708510 0.792759
O O2 0.214342 0.526672 0.868801
O O3 0.378555 0.645353 0.866539
O O4 0.314361 0.544709 0.739763
O O5 0.667865 0.167865 0.919309
O O6 0.787185 0.045155 0.000000
O O7 0.942208 0.290999 0.616969
O O8 0.082129 0.124353 0.630318
O O9 0.589886 0.910115 0.500000
O O10 0.500000 0.000000 0.613690
#
# Coordination Sequence:
#
# PCOD9564261 Si02
#       4
#    16  16  16   8
#     4  11  21  37  61  89 123 167 220 278 336 400
#     4  10  22  37  55  83 123 170 223 279 336 395
#     4  11  24  44  73 106 140 181 232 288 343 411
#     4  11  28  50  76 109 144 182 223 277 350 422
#
# _framework density 20.374129
#
# number of rings (size 3 to 8) (size 9 to 14) (size 15 to 20)
#    0.000    1.286    4.286    0.857    2.000    5.143 
#    0.000    4.286    0.000    0.000    0.000    0.000 
#    0.000    0.000    0.000    0.000    0.000    0.000 
#
# Total GULP energy -312640.836073 kJ/mol
# GULP energy per Si atom -5582.872073 kJ/mol
# Density = 2.032776 g / cm^3
# Si number density = 20.374129 Si / 1000 Ang^3
#
#
#
# Elastic Constant Matrix: (Units=GPa)
#
#
# Indices 1 2 3 4 5 6 
#
# 1 122.9708 59.3670 42.9488 0.0000 0.0000 0.0000
# 2 59.3670 122.9709 42.9488 0.0000 0.0000 0.0000
# 3 42.9488 42.9488 70.8912 0.0000 0.0000 0.0000
# 4 0.0000 0.0000 0.0000 21.3726 0.0000 0.0000
# 5 0.0000 0.0000 0.0000 0.0000 21.3727 0.0000
# 6 0.0000 0.0000 0.0000 0.0000 0.0000 14.0007
#
#
#
# Elastic Compliance Matrix: (Units=1/GPa)
#
#
# Indices 1 2 3 4 5 6 
#
# 1 0.011699 -0.004024 -0.004650 0.000000 0.000000 0.000000
# 2 -0.004024 0.011699 -0.004650 0.000000 0.000000 0.000000
# 3 -0.004650 -0.004650 0.019740 0.000000 0.000000 0.000000
# 4 0.000000 0.000000 0.000000 0.046789 0.000000 0.000000
# 5 0.000000 0.000000 0.000000 0.000000 0.046789 0.000000
# 6 0.000000 0.000000 0.000000 0.000000 0.000000 0.071425
#
#
# Mechanical properties :
#
#
# Convention : Reuss Voigt Hill
#
# Bulk Modulus (GPa) = 60.63973 67.48468 64.06220
# Shear Modulus (GPa) = 20.80880 22.78708 21.79794
#
# Velocity S-wave (km/s) = 3.19930 3.34793 3.27446
# Velocity P-wave (km/s) = 6.59356 6.93826 6.76811
#
# Compressibility (1/GPa) = 0.01649084
#
# Stress axis : x y z
#
# Youngs Moduli (GPa) = 85.48068 85.48086 50.65842
#
# Poissons Ratio (x) = 0.34396 0.23555
# Poissons Ratio (y) = 0.34396 0.23554
# Poissons Ratio (z) = 0.39746 0.39746
#
# Static dielectric constant tensor:
#      x y z
#    x 1.764250 0.000000 0.000000 
#    y 0.000000 1.764250 0.000000 
#    z 0.000000 0.000000 1.700250 
# 
# From -- ./inp_files/5468.got.cif
#   From: 2010.05.17/outbox.cif.g08.bks.cpg/sg127_3_cif.got.tgz:5468.got - 2010.05.20 12:03:00.
