data_PCOD9564576
_publ_section_title
;
Structure prediction by ZEFSAII (Michael W. Deem and Ramdas Pophale) SiO2 
 PCOD9564576
Probable space group: P 4/M N C
;
_chemical_formula_sum "Si O2"
_cell_formula_units_Z 128
_cell_length_a 18.120864
_cell_length_b 18.120864
_cell_length_c 22.761665
_cell_angle_alpha 90.000000
_cell_angle_beta 90.000000
_cell_angle_gamma 90.000000
_cell_volume 7474.150336
_symmetry_space_group_name_H-M "P 4/M N C"
_symmetry_group_IT_number 128
_symmetry_cell_setting 'tetragonal'
loop_
_space_group_symop_operation_xyz
x,y,z
-y,x,z
-x,-y,z
y,-x,z
1/2+x,1/2-y,1/2-z
1/2-x,1/2+y,1/2-z
1/2+y,1/2+x,1/2-z
1/2-y,1/2-x,1/2-z
-x,-y,-z
y,-x,-z
x,y,-z
-y,x,-z
1/2-x,1/2+y,1/2+z
1/2+x,1/2-y,1/2+z
1/2-y,1/2-x,1/2+z
1/2+y,1/2+x,1/2+z
loop_
_atom_site_type_symbol
_atom_site_label
_atom_site_fract_x
_atom_site_fract_y
_atom_site_fract_z
Si Si1 0.263286 0.058358 0.928828
Si Si2 0.330472 0.868092 0.568247
Si Si3 0.877249 0.007366 0.122892
Si Si4 0.483927 0.621586 0.761877
Si Si5 0.254260 0.722988 0.429417
Si Si6 0.116294 0.825168 0.429757
Si Si7 0.041590 0.204870 0.625225
Si Si8 0.998945 0.582513 0.068163
O O1 0.239980 0.139918 0.907121
O O2 0.200776 0.000604 0.909160
O O3 0.346993 0.043165 0.907495
O O4 0.265501 0.056315 0.000000
O O5 0.303557 0.874885 0.500000
O O6 0.315331 0.783709 0.587146
O O7 0.282395 0.921736 0.608499
O O8 0.414889 0.890224 0.568447
O O9 0.862321 0.013948 0.192638
O O10 0.933103 0.074784 0.109196
O O11 0.420265 0.561024 0.773816
O O12 0.470913 0.688326 0.806205
O O13 0.257453 0.716575 0.500000
O O14 0.176291 0.761785 0.414874
O O15 0.115507 0.833446 0.500000
O O16 0.145246 0.900521 0.400646
O O17 0.036269 0.804204 0.406764
O O18 0.000000 0.500000 0.094510
O O19 0.024470 0.573882 0.000000
#
# Coordination Sequence:
#
# PCOD9564576 Si02
#       8
#    16  16  16  16  16  16  16  16
#     4  10  20  33  56  82 103 135 173 216 270 324
#     4   9  18  31  46  70 106 139 166 211 264 306
#     4   9  20  36  55  79 108 137 167 214 272 331
#     4   9  17  33  50  70  99 136 180 211 249 306
#     4   8  17  31  45  68 104 136 163 200 255 315
#     4  10  19  28  41  71 108 137 168 207 256 300
#     4  11  18  28  47  70  98 139 176 207 245 302
#     4   9  19  33  50  76 105 138 178 209 249 317
#
# _framework density 17.125692000000001
#
# number of rings (size 3 to 8) (size 9 to 14) (size 15 to 20)
#    0.000    2.625    1.250    2.625    3.500    0.750 
#    0.000    1.250    0.000    1.500    0.000    0.875 
#    0.000    0.000    0.000    0.000    0.000    0.000 
#
# Total GULP energy -712839.850153 kJ/mol
# GULP energy per Si atom -5569.061329 kJ/mol
# Density = 1.708671 g / cm^3
# Si number density = 17.125692 Si / 1000 Ang^3
#
#
#
# Elastic Constant Matrix: (Units=GPa)
#
#
# Indices 1 2 3 4 5 6 
#
# 1 72.8172 20.4255 9.1570 0.0000 0.0000 0.0000
# 2 20.4255 72.8172 9.1570 0.0000 0.0000 0.0000
# 3 9.1570 9.1570 17.2974 0.0000 0.0000 0.0000
# 4 0.0000 0.0000 0.0000 12.3281 0.0000 0.0000
# 5 0.0000 0.0000 0.0000 0.0000 12.3281 0.0000
# 6 0.0000 0.0000 0.0000 0.0000 0.0000 12.6981
#
#
#
# Elastic Compliance Matrix: (Units=1/GPa)
#
#
# Indices 1 2 3 4 5 6 
#
# 1 0.015528 -0.003559 -0.006336 0.000000 0.000000 0.000000
# 2 -0.003559 0.015528 -0.006336 0.000000 0.000000 0.000000
# 3 -0.006336 -0.006336 0.064521 0.000000 0.000000 0.000000
# 4 0.000000 0.000000 0.000000 0.081115 0.000000 0.000000
# 5 0.000000 0.000000 0.000000 0.000000 0.081115 0.000000
# 6 0.000000 0.000000 0.000000 0.000000 0.000000 0.078752
#
#
# Mechanical properties :
#
#
# Convention : Reuss Voigt Hill
#
# Bulk Modulus (GPa) = 15.84432 26.71229 21.27831
# Shear Modulus (GPa) = 12.81851 15.75036 14.28444
#
# Velocity S-wave (km/s) = 2.73883 3.03593 2.89120
# Velocity P-wave (km/s) = 4.39016 5.28402 4.85769
#
# Compressibility (1/GPa) = 0.06311410
#
# Stress axis : x y z
#
# Youngs Moduli (GPa) = 64.39932 64.39932 15.49884
#
# Poissons Ratio (x) = 0.22919 0.09821
# Poissons Ratio (y) = 0.22919 0.09821
# Poissons Ratio (z) = 0.40806 0.40806
#
# Static dielectric constant tensor:
#      x y z
#    x 1.596430 0.000000 0.000000 
#    y 0.000000 1.596430 0.000000 
#    z 0.000000 0.000000 1.565480 
# 
# From -- ./inp_files/6614.got.cif
#   From: 2010.05.17/outbox.cif.g08.bks.cpg/sg128_4_cif.got.tgz:6614.got - 2010.05.20 12:07:25.
