data_PCOD9564510
_publ_section_title
;
Structure prediction by ZEFSAII (Michael W. Deem and Ramdas Pophale) SiO2 
 PCOD9564510
Probable space group: P 4/M B M
;
_chemical_formula_sum "Si O2"
_cell_formula_units_Z 96
_cell_length_a 24.000000
_cell_length_b 24.000000
_cell_length_c 9.000000
_cell_angle_alpha 90.000000
_cell_angle_beta 90.000000
_cell_angle_gamma 90.000000
_cell_volume 5184.000000
_symmetry_space_group_name_H-M "P 4/M B M"
_symmetry_group_IT_number 127
_symmetry_cell_setting 'tetragonal'
loop_
_space_group_symop_operation_xyz
x,y,z
-y,x,z
-x,-y,z
y,-x,z
1/2+x,1/2-y,-z
1/2-x,1/2+y,-z
1/2+y,1/2+x,-z
1/2-y,1/2-x,-z
-x,-y,-z
y,-x,-z
x,y,-z
-y,x,-z
1/2-x,1/2+y,z
1/2+x,1/2-y,z
1/2-y,1/2-x,z
1/2+y,1/2+x,z
loop_
_atom_site_type_symbol
_atom_site_label
_atom_site_fract_x
_atom_site_fract_y
_atom_site_fract_z
Si Si1 0.978572 0.167994 0.172322
Si Si2 0.269532 0.085149 0.678315
Si Si3 0.311509 0.302150 0.674336
Si Si4 0.900151 0.599850 0.180732
Si Si5 0.807478 0.692523 0.821884
Si Si6 0.470738 0.121019 0.820861
Si Si7 0.101510 0.126688 0.826916
O O1 0.954385 0.218464 0.269338
O O2 0.938874 0.113939 0.181704
O O3 0.040598 0.148892 0.206685
O O4 0.976677 0.187191 0.000000
O O5 0.274268 0.084612 0.500000
O O6 0.249896 0.148473 0.721362
O O7 0.326168 0.061245 0.749376
O O8 0.299712 0.295619 0.500000
O O9 0.255011 0.315767 0.761445
O O10 0.348378 0.355615 0.710204
O O11 0.853702 0.646299 0.227057
O O12 0.884894 0.535984 0.225717
O O13 0.900072 0.599929 0.000000
O O14 0.807888 0.692112 0.000000
O O15 0.434755 0.065246 0.787284
O O16 0.470509 0.127995 0.000000
O O17 0.114828 0.142622 0.000000
#
# Coordination Sequence:
#
# PCOD9564510 Si02
#       7
#    16  16  16   8   8  16  16
#     4   9  18  33  54  80 112 148 191 238 286 342
#     4  10  22  38  57  83 116 154 193 238 290 340
#     4  10  22  39  56  79 115 154 192 236 287 343
#     4   9  21  41  62  90 122 152 187 234 293 348
#     4  11  23  38  61  88 116 149 189 237 286 343
#     4  10  21  39  65  91 116 150 192 238 290 353
#     4   9  18  33  54  80 110 147 188 236 286 337
#
# _framework density 18.518519000000001
#
# number of rings (size 3 to 8) (size 9 to 14) (size 15 to 20)
#    0.000    2.333    0.000    1.500    3.500    4.333 
#    0.000    2.917    0.000    1.000    0.000    4.667 
#    0.000    0.000    0.000    0.000    0.000    0.000 
#
# Total GULP energy -534893.845020 kJ/mol
# GULP energy per Si atom -5571.810886 kJ/mol
# Density = 1.847637 g / cm^3
# Si number density = 18.518519 Si / 1000 Ang^3
#
#
#
# Elastic Constant Matrix: (Units=GPa)
#
#
# Indices 1 2 3 4 5 6 
#
# 1 133.1285 71.5204 37.4820 0.0000 0.0000 0.0000
# 2 71.5204 133.1287 37.4819 0.0000 0.0000 0.0000
# 3 37.4820 37.4819 39.0185 0.0000 0.0000 0.0000
# 4 0.0000 0.0000 0.0000 -24.7098 0.0000 0.0000
# 5 0.0000 0.0000 0.0000 0.0000 -24.7094 0.0000
# 6 0.0000 0.0000 0.0000 0.0000 0.0000 26.5886
#
#
#
# Elastic Compliance Matrix: (Units=1/GPa)
#
#
# Indices 1 2 3 4 5 6 
#
# 1 0.011886 -0.004346 -0.007242 0.000000 0.000000 0.000000
# 2 -0.004346 0.011885 -0.007242 0.000000 0.000000 0.000000
# 3 -0.007242 -0.007242 0.039543 0.000000 0.000000 0.000000
# 4 0.000000 0.000000 0.000000 -0.040470 0.000000 0.000000
# 5 0.000000 0.000000 0.000000 0.000000 -0.040470 0.000000
# 6 0.000000 0.000000 0.000000 0.000000 0.000000 0.037610
#
#
# Mechanical properties :
#
#
# Convention : Reuss Voigt Hill
#
# Bulk Modulus (GPa) = 38.98292 66.47157 52.72725
# Shear Modulus (GPa) = 75.53206 6.01997 40.77601
#
# Velocity S-wave (km/s) = 6.39342 1.80495 4.69754
# Velocity P-wave (km/s) = 8.69469 6.34952 7.61295
#
# Compressibility (1/GPa) = 0.02565226
#
# Stress axis : x y z
#
# Youngs Moduli (GPa) = 84.13605 84.13638 25.28871
#
# Poissons Ratio (x) = 0.36567 0.18315
# Poissons Ratio (y) = 0.36567 0.18315
# Poissons Ratio (z) = 0.60935 0.60935
#
# Static dielectric constant tensor:
#      x y z
#    x 1.676190 0.000000 0.000000 
#    y 0.000000 1.676190 0.000000 
#    z 0.000000 0.000000 1.631240 
# 
# From -- ./inp_files/2122.got.cif
#   From: 2010.05.17/outbox.ucp.g08.bks.cvg/sg127_2_cif.got.tgz:2122.got - 2010.06.11 11:37:05.
