data_PCOD9564948
_publ_section_title
;
Structure prediction by ZEFSAII (Michael W. Deem and Ramdas Pophale) SiO2 
 PCOD9564948
Probable space group: P 4/M N C
;
_chemical_formula_sum "Si O2"
_cell_formula_units_Z 80
_cell_length_a 11.813308
_cell_length_b 11.813308
_cell_length_c 33.257065
_cell_angle_alpha 90.000000
_cell_angle_beta 90.000000
_cell_angle_gamma 90.000000
_cell_volume 4641.164627
_symmetry_space_group_name_H-M "P 4/M N C"
_symmetry_group_IT_number 128
_symmetry_cell_setting 'tetragonal'
loop_
_space_group_symop_operation_xyz
x,y,z
-y,x,z
-x,-y,z
y,-x,z
1/2+x,1/2-y,1/2-z
1/2-x,1/2+y,1/2-z
1/2+y,1/2+x,1/2-z
1/2-y,1/2-x,1/2-z
-x,-y,-z
y,-x,-z
x,y,-z
-y,x,-z
1/2-x,1/2+y,1/2+z
1/2+x,1/2-y,1/2+z
1/2-y,1/2-x,1/2+z
1/2+y,1/2+x,1/2+z
loop_
_atom_site_type_symbol
_atom_site_label
_atom_site_fract_x
_atom_site_fract_y
_atom_site_fract_z
Si Si1 0.993521 0.636870 0.817670
Si Si2 0.099657 0.733637 0.336438
Si Si3 0.164445 0.901558 0.546360
Si Si4 0.309655 0.495055 0.246947
Si Si5 0.711393 0.123765 0.624459
O O1 0.902293 0.663110 0.852582
O O2 0.000000 0.500000 0.811809
O O3 0.120649 0.670844 0.829569
O O4 0.973259 0.706181 0.777068
O O5 0.024014 0.760634 0.297174
O O6 0.182453 0.832399 0.349400
O O7 0.011232 0.707911 0.371374
O O8 0.197256 0.882060 0.500000
O O9 0.253379 0.852396 0.578601
O O10 0.037533 0.851561 0.552004
O O11 0.393843 0.388889 0.252621
#
# Coordination Sequence:
#
# PCOD9564948 Si02
#       5
#    16  16  16  16  16
#     4  10  24  37  49  74 107 145 181 218 264 320
#     4  11  21  35  53  75 104 142 183 221 269 322
#     4   9  17  30  54  87 114 134 167 219 276 331
#     4  11  22  37  55  74 100 138 192 237 268 301
#     4  11  20  34  57  77 108 141 176 220 270 326
#
# _framework density 17.237051999999998
#
# number of rings (size 3 to 8) (size 9 to 14) (size 15 to 20)
#    0.000    1.600    4.000    2.400    0.000    6.000 
#    0.000    0.000    0.000    6.600    0.000    0.000 
#    0.000    0.000    0.000    6.200    0.000    0.000 
#
# Total GULP energy -445462.863002 kJ/mol
# GULP energy per Si atom -5568.285788 kJ/mol
# Density = 1.719782 g / cm^3
# Si number density = 17.237052 Si / 1000 Ang^3
#
#
#
# Elastic Constant Matrix: (Units=GPa)
#
#
# Indices 1 2 3 4 5 6 
#
# 1 43.6447 3.8173 36.5345 0.0000 0.0000 0.0000
# 2 3.8173 43.6447 36.5345 0.0000 0.0000 0.0000
# 3 36.5345 36.5345 138.4081 0.0000 0.0000 0.0000
# 4 0.0000 0.0000 0.0000 18.2078 0.0000 0.0000
# 5 0.0000 0.0000 0.0000 0.0000 18.2078 0.0000
# 6 0.0000 0.0000 0.0000 0.0000 0.0000 -3.2962
#
#
#
# Elastic Compliance Matrix: (Units=1/GPa)
#
#
# Indices 1 2 3 4 5 6 
#
# 1 0.030301 0.005192 -0.009369 0.000000 0.000000 0.000000
# 2 0.005192 0.030301 -0.009369 0.000000 0.000000 0.000000
# 3 -0.009369 -0.009369 0.012171 0.000000 0.000000 0.000000
# 4 0.000000 0.000000 0.000000 0.054922 0.000000 0.000000
# 5 0.000000 0.000000 0.000000 0.000000 0.054922 0.000000
# 6 0.000000 0.000000 0.000000 0.000000 0.000000 -0.303380
#
#
# Mechanical properties :
#
#
# Convention : Reuss Voigt Hill
#
# Bulk Modulus (GPa) = 21.89054 42.16334 32.02694
# Shear Modulus (GPa) = -63.73786 16.54463 -23.59662
#
# Velocity S-wave (km/s) = -6.08749 3.10147 -3.70394
# Velocity P-wave (km/s) = 6.05663 6.11060 0.57303
#
# Compressibility (1/GPa) = 0.04568184
#
# Stress axis : x y z
#
# Youngs Moduli (GPa) = 33.00258 33.00258 82.16233
#
# Poissons Ratio (x) = -0.17136 0.76976
# Poissons Ratio (y) = -0.17136 0.76976
# Poissons Ratio (z) = 0.30919 0.30919
#
# Static dielectric constant tensor:
#      x y z
#    x 1.605870 0.000000 0.000000 
#    y 0.000000 1.605870 0.000000 
#    z 0.000000 0.000000 1.615550 
# 
# From -- ./inp_files/7157.got.cif
#   From: 2010.05.17/outbox.cif.g08.bks.cpg/sg128_4_cif.got.tgz:7157.got - 2010.05.20 12:07:25.
