data_PCOD9564169
_publ_section_title
;
Structure prediction by ZEFSAII (Michael W. Deem and Ramdas Pophale) SiO2 
 PCOD9564169
Probable space group: P 4/M B M
;
_chemical_formula_sum "Si O2"
_cell_formula_units_Z 120
_cell_length_a 27.655163
_cell_length_b 27.655163
_cell_length_c 8.278244
_cell_angle_alpha 90.000000
_cell_angle_beta 90.000000
_cell_angle_gamma 90.000000
_cell_volume 6331.267573
_symmetry_space_group_name_H-M "P 4/M B M"
_symmetry_group_IT_number 127
_symmetry_cell_setting 'tetragonal'
loop_
_space_group_symop_operation_xyz
x,y,z
-y,x,z
-x,-y,z
y,-x,z
1/2+x,1/2-y,-z
1/2-x,1/2+y,-z
1/2+y,1/2+x,-z
1/2-y,1/2-x,-z
-x,-y,-z
y,-x,-z
x,y,-z
-y,x,-z
1/2-x,1/2+y,z
1/2+x,1/2-y,z
1/2-y,1/2-x,z
1/2+y,1/2+x,z
loop_
_atom_site_type_symbol
_atom_site_label
_atom_site_fract_x
_atom_site_fract_y
_atom_site_fract_z
Si Si1 0.460423 0.960423 0.692643
Si Si2 0.554466 0.774711 0.812048
Si Si3 0.155131 0.736939 0.313429
Si Si4 0.497332 0.688687 0.692773
Si Si5 0.421534 0.500558 0.302683
Si Si6 0.975007 0.649432 0.193032
Si Si7 0.269411 0.309181 0.697406
Si Si8 0.414733 0.762722 0.303952
O O1 0.462257 0.962257 0.500000
O O2 0.472159 0.905142 0.743247
O O3 0.500000 0.000000 0.754681
O O4 0.610659 0.782950 0.786105
O O5 0.542236 0.723493 0.729968
O O6 0.521382 0.818859 0.748216
O O7 0.542731 0.769778 0.000000
O O8 0.139556 0.743172 0.500000
O O9 0.198390 0.698390 0.313173
O O10 0.179265 0.786700 0.251989
O O11 0.492018 0.684752 0.500000
O O12 0.500249 0.633885 0.755318
O O13 0.452866 0.721945 0.751893
O O14 0.452615 0.453257 0.254358
O O15 0.420708 0.500899 0.500000
O O16 0.930633 0.684516 0.242523
O O17 0.976795 0.646065 0.000000
O O18 0.270557 0.308705 0.500000
O O19 0.227464 0.272537 0.748697
O O20 0.254953 0.362329 0.749239
O O21 0.415807 0.764628 0.500000
#
# Coordination Sequence:
#
# PCOD9564169 Si02
#       8
#     8  16  16  16  16  16  16  16
#     4  11  25  43  63  87 111 135 173 225 273 323
#     4  10  21  36  53  74 104 141 176 212 258 311
#     4   9  18  33  53  77 105 136 171 212 254 299
#     4   9  17  29  47  72  99 129 170 217 259 307
#     4   8  14  25  43  70 102 133 170 222 279 324
#     4  10  22  39  57  79 109 143 177 215 266 326
#     4   8  15  28  47  74 105 134 167 208 254 300
#     4   9  17  30  51  78 106 137 176 217 259 312
#
# _framework density 18.953551000000001
#
# number of rings (size 3 to 8) (size 9 to 14) (size 15 to 20)
#    0.000    2.867    0.000    2.200    0.933    4.000 
#    0.000    7.333    0.000    4.800    0.000    0.933 
#    0.000    0.000    0.000    0.000    0.000    0.000 
#
# Total GULP energy -668461.134190 kJ/mol
# GULP energy per Si atom -5570.509452 kJ/mol
# Density = 1.891041 g / cm^3
# Si number density = 18.953551 Si / 1000 Ang^3
#
#
#
# Elastic Constant Matrix: (Units=GPa)
#
#
# Indices 1 2 3 4 5 6 
#
# 1 126.7014 53.9440 16.9222 0.0000 0.0000 0.0000
# 2 53.9440 126.7014 16.9222 0.0000 0.0000 0.0000
# 3 16.9222 16.9222 12.3304 0.0000 0.0000 0.0000
# 4 0.0000 0.0000 0.0000 1.4333 0.0000 0.0000
# 5 0.0000 0.0000 0.0000 0.0000 1.4333 0.0000
# 6 0.0000 0.0000 0.0000 0.0000 0.0000 12.7947
#
#
#
# Elastic Compliance Matrix: (Units=1/GPa)
#
#
# Indices 1 2 3 4 5 6 
#
# 1 0.010598 -0.003146 -0.010227 0.000000 0.000000 0.000000
# 2 -0.003146 0.010598 -0.010227 0.000000 0.000000 0.000000
# 3 -0.010227 -0.010227 0.109170 0.000000 0.000000 0.000000
# 4 0.000000 0.000000 0.000000 0.697707 0.000000 0.000000
# 5 0.000000 0.000000 0.000000 0.000000 0.697707 0.000000
# 6 0.000000 0.000000 0.000000 0.000000 0.000000 0.078157
#
#
# Mechanical properties :
#
#
# Convention : Reuss Voigt Hill
#
# Bulk Modulus (GPa) = 12.02397 49.03444 30.52921
# Shear Modulus (GPa) = 2.97821 14.99524 8.98673
#
# Velocity S-wave (km/s) = 1.25488 2.81580 2.17985
# Velocity P-wave (km/s) = 2.90815 6.04141 4.74110
#
# Compressibility (1/GPa) = 0.08316720
#
# Stress axis : x y z
#
# Youngs Moduli (GPa) = 94.35741 94.35741 9.15998
#
# Poissons Ratio (x) = 0.29688 0.09368
# Poissons Ratio (y) = 0.29688 0.09368
# Poissons Ratio (z) = 0.96496 0.96496
#
# Static dielectric constant tensor:
#      x y z
#    x 1.668390 0.000000 0.000000 
#    y 0.000000 1.668390 0.000000 
#    z 0.000000 0.000000 1.686640 
# 
# From -- ./inp_files/2391.got.cif
#   From: 2010.05.17/outbox.cif.g08.bks.cpg/sg127_2_cif.got.tgz:2391.got - 2010.05.20 12:03:00.
