data_PCOD9564773
_publ_section_title
;
Structure prediction by ZEFSAII (Michael W. Deem and Ramdas Pophale) SiO2 
 PCOD9564773
Probable space group: P 4/M N C
;
_chemical_formula_sum "Si O2"
_cell_formula_units_Z 112
_cell_length_a 14.884773
_cell_length_b 14.884773
_cell_length_c 24.050151
_cell_angle_alpha 90.000000
_cell_angle_beta 90.000000
_cell_angle_gamma 90.000000
_cell_volume 5328.466493
_symmetry_space_group_name_H-M "P 4/M N C"
_symmetry_group_IT_number 128
_symmetry_cell_setting 'tetragonal'
loop_
_space_group_symop_operation_xyz
x,y,z
-y,x,z
-x,-y,z
y,-x,z
1/2+x,1/2-y,1/2-z
1/2-x,1/2+y,1/2-z
1/2+y,1/2+x,1/2-z
1/2-y,1/2-x,1/2-z
-x,-y,-z
y,-x,-z
x,y,-z
-y,x,-z
1/2-x,1/2+y,1/2+z
1/2+x,1/2-y,1/2+z
1/2-y,1/2-x,1/2+z
1/2+y,1/2+x,1/2+z
loop_
_atom_site_type_symbol
_atom_site_label
_atom_site_fract_x
_atom_site_fract_y
_atom_site_fract_z
Si Si1 0.591300 0.822583 0.200997
Si Si2 0.137260 0.058039 0.236980
Si Si3 0.631010 0.964941 0.062575
Si Si4 0.202820 0.260523 0.434852
Si Si5 0.113926 0.086735 0.567554
Si Si6 0.867859 0.230082 0.131480
Si Si7 0.034484 0.368104 0.602718
O O1 0.604076 0.895925 0.250000
O O2 0.585743 0.722581 0.226001
O O3 0.683405 0.836329 0.167121
O O4 0.506229 0.840286 0.161666
O O5 0.165968 0.079212 0.173234
O O6 0.046200 0.113763 0.247253
O O7 0.725339 0.928029 0.083312
O O8 0.553253 0.889225 0.065393
O O9 0.592740 0.040412 0.103777
O O10 0.635179 0.000981 0.000000
O O11 0.225232 0.265642 0.500000
O O12 0.191651 0.155775 0.417670
O O13 0.278262 0.307453 0.397643
O O14 0.104190 0.299975 0.424480
O O15 0.111665 0.085591 0.500000
O O16 0.015731 0.120875 0.586696
#
# Coordination Sequence:
#
# PCOD9564773 Si02
#       7
#    16  16  16  16  16  16  16
#     4   9  21  43  64  95 127 154 208 270 331 395
#     4  10  23  45  70  90 118 164 216 271 335 385
#     4  10  20  39  61  89 134 176 209 255 316 386
#     4  11  22  34  57  93 129 169 214 257 314 384
#     4   8  16  30  46  70 112 166 210 244 291 364
#     4  10  23  39  63  92 128 164 214 267 318 379
#     4  10  21  36  62  92 124 164 211 259 324 390
#
# _framework density 21.019179999999999
#
# number of rings (size 3 to 8) (size 9 to 14) (size 15 to 20)
#    0.000    2.286    0.000    2.571    8.000    0.000 
#    0.000   12.143    0.000    0.000    0.000    4.000 
#    0.000    0.000    0.000    0.000    0.000    0.000 
#
# Total GULP energy -625110.018757 kJ/mol
# GULP energy per Si atom -5581.339453 kJ/mol
# Density = 2.097134 g / cm^3
# Si number density = 21.019180 Si / 1000 Ang^3
#
#
#
# Elastic Constant Matrix: (Units=GPa)
#
#
# Indices 1 2 3 4 5 6 
#
# 1 60.9956 19.8244 18.0720 0.0000 0.0000 0.0000
# 2 19.8244 60.9947 18.0718 0.0000 0.0000 0.0000
# 3 18.0720 18.0718 80.5219 0.0000 0.0000 0.0000
# 4 0.0000 0.0000 0.0000 22.9753 0.0000 0.0000
# 5 0.0000 0.0000 0.0000 0.0000 22.9754 0.0000
# 6 0.0000 0.0000 0.0000 0.0000 0.0000 21.7442
#
#
#
# Elastic Compliance Matrix: (Units=1/GPa)
#
#
# Indices 1 2 3 4 5 6 
#
# 1 0.019021 -0.005268 -0.003087 0.000000 0.000000 0.000000
# 2 -0.005268 0.019022 -0.003087 0.000000 0.000000 0.000000
# 3 -0.003087 -0.003087 0.013805 0.000000 0.000000 0.000000
# 4 0.000000 0.000000 0.000000 0.043525 0.000000 0.000000
# 5 0.000000 0.000000 0.000000 0.000000 0.043525 0.000000
# 6 0.000000 0.000000 0.000000 0.000000 0.000000 0.045989
#
#
# Mechanical properties :
#
#
# Convention : Reuss Voigt Hill
#
# Bulk Modulus (GPa) = 34.52472 34.93873 34.73173
# Shear Modulus (GPa) = 22.99653 23.30857 23.15255
#
# Velocity S-wave (km/s) = 3.31127 3.33366 3.32248
# Velocity P-wave (km/s) = 5.57497 5.61035 5.59269
#
# Compressibility (1/GPa) = 0.02896475
#
# Stress axis : x y z
#
# Youngs Moduli (GPa) = 52.57274 52.57197 72.43989
#
# Poissons Ratio (x) = 0.27693 0.22361
# Poissons Ratio (y) = 0.27694 0.22361
# Poissons Ratio (z) = 0.16228 0.16228
#
# Static dielectric constant tensor:
#      x y z
#    x 1.781600 0.000000 0.000000 
#    y 0.000000 1.781600 0.000000 
#    z 0.000000 0.000000 1.763300 
# 
# From -- ./inp_files/6481.got.cif
#   From: 2010.05.17/outbox.cif.g08.bks.cpg/sg128_4_cif.got.tgz:6481.got - 2010.05.20 12:07:25.
