data_PCOD9564254
_publ_section_title
;
Structure prediction by ZEFSAII (Michael W. Deem and Ramdas Pophale) SiO2 
 PCOD9564254
Probable space group: P 4/M B M
;
_chemical_formula_sum "Si O2"
_cell_formula_units_Z 88
_cell_length_a 15.508850
_cell_length_b 15.508850
_cell_length_c 21.260332
_cell_angle_alpha 90.000000
_cell_angle_beta 90.000000
_cell_angle_gamma 90.000000
_cell_volume 5113.629200
_symmetry_space_group_name_H-M "P 4/M B M"
_symmetry_group_IT_number 127
_symmetry_cell_setting 'tetragonal'
loop_
_space_group_symop_operation_xyz
x,y,z
-y,x,z
-x,-y,z
y,-x,z
1/2+x,1/2-y,-z
1/2-x,1/2+y,-z
1/2+y,1/2+x,-z
1/2-y,1/2-x,-z
-x,-y,-z
y,-x,-z
x,y,-z
-y,x,-z
1/2-x,1/2+y,z
1/2+x,1/2-y,z
1/2-y,1/2-x,z
1/2+y,1/2+x,z
loop_
_atom_site_type_symbol
_atom_site_label
_atom_site_fract_x
_atom_site_fract_y
_atom_site_fract_z
Si Si1 0.232005 0.122630 0.620919
Si Si2 0.419180 0.379641 0.500000
Si Si3 0.506375 0.139453 0.677163
Si Si4 0.819696 0.826261 0.758237
Si Si5 0.497792 0.144585 0.929327
Si Si6 0.242671 0.494477 0.801640
O O1 0.306919 0.193082 0.608448
O O2 0.170955 0.111268 0.561813
O O3 0.279707 0.032451 0.639326
O O4 0.182504 0.154399 0.683499
O O5 0.522939 0.384828 0.500000
O O6 0.434620 0.065381 0.670187
O O7 0.509598 0.165537 0.750369
O O8 0.597677 0.097677 0.658008
O O9 0.751225 0.748776 0.769550
O O10 0.787099 0.913590 0.790600
O O11 0.913223 0.800907 0.782975
O O12 0.409800 0.090201 0.920096
O O13 0.511000 0.209305 0.872407
O O14 0.574351 0.074351 0.927502
O O15 0.496504 0.182044 0.000000
#
# Coordination Sequence:
#
# PCOD9564254 Si02
#       6
#    16   8  16  16  16  16
#     4   9  20  39  57  79 110 137 174 233 282 330
#     4  11  25  40  56  77 105 147 188 213 260 337
#     4   9  17  31  55  82 105 135 177 231 294 338
#     4  10  22  36  57  86 111 144 191 234 281 337
#     4   9  17  30  52  82 113 147 188 236 291 342
#     4  11  20  34  53  78 116 149 186 235 277 327
#
# _framework density 17.208914
#
# number of rings (size 3 to 8) (size 9 to 14) (size 15 to 20)
#    0.000    2.273    0.000    5.182    5.091    1.818 
#    0.000    2.273    0.000    5.455    0.000    1.273 
#    0.000    0.000    0.000    0.000    0.000    0.000 
#
# Total GULP energy -490889.104810 kJ/mol
# GULP energy per Si atom -5578.285282 kJ/mol
# Density = 1.716975 g / cm^3
# Si number density = 17.208914 Si / 1000 Ang^3
#
#
#
# Elastic Constant Matrix: (Units=GPa)
#
#
# Indices 1 2 3 4 5 6 
#
# 1 57.5438 21.9446 51.9374 0.0000 0.0000 0.0000
# 2 21.9446 57.5438 51.9374 0.0000 0.0000 0.0000
# 3 51.9374 51.9374 121.9899 0.0000 0.0000 0.0000
# 4 0.0000 0.0000 0.0000 8.1429 0.0000 0.0000
# 5 0.0000 0.0000 0.0000 0.0000 8.1429 0.0000
# 6 0.0000 0.0000 0.0000 0.0000 0.0000 15.2187
#
#
#
# Elastic Compliance Matrix: (Units=1/GPa)
#
#
# Indices 1 2 3 4 5 6 
#
# 1 0.028224 0.000134 -0.012073 0.000000 0.000000 0.000000
# 2 0.000134 0.028224 -0.012073 0.000000 0.000000 0.000000
# 3 -0.012073 -0.012073 0.018478 0.000000 0.000000 0.000000
# 4 0.000000 0.000000 0.000000 0.122806 0.000000 0.000000
# 5 0.000000 0.000000 0.000000 0.000000 0.122806 0.000000
# 6 0.000000 0.000000 0.000000 0.000000 0.000000 0.065709
#
#
# Mechanical properties :
#
#
# Convention : Reuss Voigt Hill
#
# Bulk Modulus (GPa) = 37.17456 54.30182 45.73819
# Shear Modulus (GPa) = 11.28055 13.71811 12.49933
#
# Velocity S-wave (km/s) = 2.56306 2.82645 2.69797
# Velocity P-wave (km/s) = 5.51433 6.50190 6.02837
#
# Compressibility (1/GPa) = 0.02690012
#
# Stress axis : x y z
#
# Youngs Moduli (GPa) = 35.43052 35.43052 54.11842
#
# Poissons Ratio (x) = -0.00474 0.65340
# Poissons Ratio (y) = -0.00474 0.65340
# Poissons Ratio (z) = 0.42777 0.42777
#
# Static dielectric constant tensor:
#      x y z
#    x 1.592210 0.000000 0.000000 
#    y 0.000000 1.592210 0.000000 
#    z 0.000000 0.000000 1.556460 
# 
# From -- ./inp_files/5698.got.cif
#   From: 2010.05.17/outbox.cif.g08.bks.cpg/sg127_3_cif.got.tgz:5698.got - 2010.05.20 12:03:00.
