data_PCOD9564847
_publ_section_title
;
Structure prediction by ZEFSAII (Michael W. Deem and Ramdas Pophale) SiO2 
 PCOD9564847
Probable space group: P 4/M N C
;
_chemical_formula_sum "Si O2"
_cell_formula_units_Z 60
_cell_length_a 18.526222
_cell_length_b 18.526222
_cell_length_c 7.334326
_cell_angle_alpha 90.000000
_cell_angle_beta 90.000000
_cell_angle_gamma 90.000000
_cell_volume 2517.293982
_symmetry_space_group_name_H-M "P 4/M N C"
_symmetry_group_IT_number 128
_symmetry_cell_setting 'tetragonal'
loop_
_space_group_symop_operation_xyz
x,y,z
-y,x,z
-x,-y,z
y,-x,z
1/2+x,1/2-y,1/2-z
1/2-x,1/2+y,1/2-z
1/2+y,1/2+x,1/2-z
1/2-y,1/2-x,1/2-z
-x,-y,-z
y,-x,-z
x,y,-z
-y,x,-z
1/2-x,1/2+y,1/2+z
1/2+x,1/2-y,1/2+z
1/2-y,1/2-x,1/2+z
1/2+y,1/2+x,1/2+z
loop_
_atom_site_type_symbol
_atom_site_label
_atom_site_fract_x
_atom_site_fract_y
_atom_site_fract_z
Si Si1 0.975707 0.883082 0.500000
Si Si2 0.707545 0.600192 0.281901
Si Si3 0.251576 0.631970 0.284855
Si Si4 0.500000 0.000000 0.750000
Si Si5 0.836312 0.508944 0.277869
O O1 0.961157 0.837701 0.319504
O O2 0.052978 0.918128 0.500000
O O3 0.701734 0.594982 0.500000
O O4 0.670510 0.674801 0.218741
O O5 0.790877 0.581634 0.236607
O O6 0.190549 0.690549 0.250000
O O7 0.263360 0.620675 0.500000
O O8 0.215639 0.557336 0.219916
O O9 0.498684 0.915091 0.808851
O O10 0.847334 0.505003 0.500000
#
# Coordination Sequence:
#
# PCOD9564847 Si02
#       5
#     8  16  16   4  16
#     4  11  24  42  68 107 136 168 224 279 343 419
#     4  10  23  44  68  94 135 182 227 282 339 408
#     4  10  21  39  63  92 126 173 226 280 338 403
#     4  12  22  40  60  98 136 182 224 282 342 408
#     4  10  22  42  63  92 133 177 225 276 344 416
#
# _framework density 23.835118999999999
#
# number of rings (size 3 to 8) (size 9 to 14) (size 15 to 20)
#    0.000    1.733    1.333    2.000    3.733    3.200 
#    7.200    1.333    0.000    0.000    0.000    0.000 
#    0.000    0.000    0.000    0.000    0.000    0.000 
#
# Total GULP energy -334507.860990 kJ/mol
# GULP energy per Si atom -5575.131017 kJ/mol
# Density = 2.378087 g / cm^3
# Si number density = 23.835119 Si / 1000 Ang^3
#
#
#
# Elastic Constant Matrix: (Units=GPa)
#
#
# Indices 1 2 3 4 5 6 
#
# 1 148.6961 136.1716 26.8793 0.0000 0.0000 0.0000
# 2 136.1716 148.6961 26.8793 0.0000 0.0000 0.0000
# 3 26.8793 26.8793 77.2391 0.0000 0.0000 0.0000
# 4 0.0000 0.0000 0.0000 17.8897 0.0000 0.0000
# 5 0.0000 0.0000 0.0000 0.0000 17.8897 0.0000
# 6 0.0000 0.0000 0.0000 0.0000 0.0000 59.3280
#
#
#
# Elastic Compliance Matrix: (Units=1/GPa)
#
#
# Indices 1 2 3 4 5 6 
#
# 1 0.041800 -0.038043 -0.001307 0.000000 0.000000 0.000000
# 2 -0.038043 0.041800 -0.001307 0.000000 0.000000 0.000000
# 3 -0.001307 -0.001307 0.013857 0.000000 0.000000 0.000000
# 4 0.000000 0.000000 0.000000 0.055898 0.000000 0.000000
# 5 0.000000 0.000000 0.000000 0.000000 0.055898 0.000000
# 6 0.000000 0.000000 0.000000 0.000000 0.000000 0.016855
#
#
# Mechanical properties :
#
#
# Convention : Reuss Voigt Hill
#
# Bulk Modulus (GPa) = 61.95348 83.83242 72.89295
# Shear Modulus (GPa) = 15.98439 31.33490 23.65965
#
# Velocity S-wave (km/s) = 2.59245 3.62975 3.15403
# Velocity P-wave (km/s) = 5.91693 7.26739 6.62665
#
# Compressibility (1/GPa) = 0.01614114
#
# Stress axis : x y z
#
# Youngs Moduli (GPa) = 23.92330 23.92330 72.16663
#
# Poissons Ratio (x) = 0.91012 0.09436
# Poissons Ratio (y) = 0.91012 0.09436
# Poissons Ratio (z) = 0.03128 0.03128
#
# Static dielectric constant tensor:
#      x y z
#    x 1.900260 0.000000 0.000000 
#    y 0.000000 1.900260 0.000000 
#    z 0.000000 0.000000 1.944640 
# 
# From -- ./inp_files/842.got.cif
#   From: 2010.05.17/outbox.cif.g08.bks.cpg/sg128_1_cif.got.tgz:842.got - 2010.05.20 12:07:25.
