data_PCOD9564059
_publ_section_title
;
Structure prediction by ZEFSAII (Michael W. Deem and Ramdas Pophale) SiO2 
 PCOD9564059
Probable space group: P 4/M B M
;
_chemical_formula_sum "Si O2"
_cell_formula_units_Z 120
_cell_length_a 20.981403
_cell_length_b 20.981403
_cell_length_c 14.387813
_cell_angle_alpha 90.000000
_cell_angle_beta 90.000000
_cell_angle_gamma 90.000000
_cell_volume 6333.792562
_symmetry_space_group_name_H-M "P 4/M B M"
_symmetry_group_IT_number 127
_symmetry_cell_setting 'tetragonal'
loop_
_space_group_symop_operation_xyz
x,y,z
-y,x,z
-x,-y,z
y,-x,z
1/2+x,1/2-y,-z
1/2-x,1/2+y,-z
1/2+y,1/2+x,-z
1/2-y,1/2-x,-z
-x,-y,-z
y,-x,-z
x,y,-z
-y,x,-z
1/2-x,1/2+y,z
1/2+x,1/2-y,z
1/2-y,1/2-x,z
1/2+y,1/2+x,z
loop_
_atom_site_type_symbol
_atom_site_label
_atom_site_fract_x
_atom_site_fract_y
_atom_site_fract_z
Si Si1 0.145106 0.457897 0.890980
Si Si2 0.421614 0.651453 0.700308
Si Si3 0.404248 0.452213 0.500000
Si Si4 0.112196 0.287827 0.728027
Si Si5 0.196547 0.594708 0.889195
Si Si6 0.201169 0.600230 0.388657
Si Si7 0.122038 0.477179 0.388541
Si Si8 0.563348 0.689635 0.752610
O O1 0.077798 0.422203 0.871727
O O2 0.196036 0.423969 0.824177
O O3 0.151119 0.532969 0.872999
O O4 0.158964 0.447966 0.000000
O O5 0.434747 0.630816 0.594840
O O6 0.381631 0.715538 0.703121
O O7 0.488914 0.671551 0.745852
O O8 0.377920 0.599262 0.750251
O O9 0.472460 0.417590 0.500000
O O10 0.179865 0.320135 0.734506
O O11 0.070797 0.324737 0.650582
O O12 0.157647 0.657647 0.859230
O O13 0.262768 0.581375 0.836676
O O14 0.206970 0.598883 0.000000
O O15 0.210343 0.595732 0.500000
O O16 0.168212 0.668212 0.368453
O O17 0.148534 0.546291 0.360909
O O18 0.266386 0.583730 0.335875
O O19 0.120186 0.477811 0.500000
O O20 0.054662 0.445338 0.357581
#
# Coordination Sequence:
#
# PCOD9564059 Si02
#       8
#    16  16   8  16  16  16  16  16
#     4   9  17  32  58  93 129 163 204 252 302 357
#     4  12  25  41  66  90 122 163 204 260 328 377
#     4  11  24  42  65  98 122 150 208 277 331 390
#     4  10  20  35  55  85 120 158 200 240 294 371
#     4  10  21  40  67  97 131 171 213 256 307 373
#     4  10  21  36  56  84 120 161 201 243 303 378
#     4   9  17  30  51  78 110 150 196 241 288 354
#     4  12  25  42  63  91 119 161 206 262 316 378
#
# _framework density 18.945993999999999
#
# number of rings (size 3 to 8) (size 9 to 14) (size 15 to 20)
#    0.000    1.667    4.000    0.400    2.800    1.867 
#    0.000    4.000    0.000    5.600    0.000    0.933 
#    0.000    0.000    0.000    0.000    0.000    0.000 
#
# Total GULP energy -669282.861004 kJ/mol
# GULP energy per Si atom -5577.357175 kJ/mol
# Density = 1.890287 g / cm^3
# Si number density = 18.945994 Si / 1000 Ang^3
#
#
#
# Elastic Constant Matrix: (Units=GPa)
#
#
# Indices 1 2 3 4 5 6 
#
# 1 76.0553 46.2463 41.2164 0.0000 0.0000 0.0000
# 2 46.2463 76.0553 41.2164 0.0000 0.0000 0.0000
# 3 41.2164 41.2164 68.0105 0.0000 0.0000 0.0000
# 4 0.0000 0.0000 0.0000 99.0097 0.0000 0.0000
# 5 0.0000 0.0000 0.0000 0.0000 99.0097 0.0000
# 6 0.0000 0.0000 0.0000 0.0000 0.0000 22.7583
#
#
#
# Elastic Compliance Matrix: (Units=1/GPa)
#
#
# Indices 1 2 3 4 5 6 
#
# 1 0.023685 -0.009862 -0.008377 0.000000 0.000000 0.000000
# 2 -0.009862 0.023685 -0.008377 0.000000 0.000000 0.000000
# 3 -0.008377 -0.008377 0.024857 0.000000 0.000000 0.000000
# 4 0.000000 0.000000 0.000000 0.010100 0.000000 0.000000
# 5 0.000000 0.000000 0.000000 0.000000 0.010100 0.000000
# 6 0.000000 0.000000 0.000000 0.000000 0.000000 0.043940
#
#
# Mechanical properties :
#
#
# Convention : Reuss Voigt Hill
#
# Bulk Modulus (GPa) = 52.64678 53.05325 52.85002
# Shear Modulus (GPa) = 25.51927 50.25167 37.88547
#
# Velocity S-wave (km/s) = 3.67406 5.15570 4.47660
# Velocity P-wave (km/s) = 6.77100 7.96899 7.39430
#
# Compressibility (1/GPa) = 0.01899451
#
# Stress axis : x y z
#
# Youngs Moduli (GPa) = 42.22114 42.22114 40.23012
#
# Poissons Ratio (x) = 0.41639 0.33701
# Poissons Ratio (y) = 0.41639 0.33701
# Poissons Ratio (z) = 0.35369 0.35369
#
# Static dielectric constant tensor:
#      x y z
#    x 1.754700 0.000000 0.000000 
#    y 0.000000 1.754700 0.000000 
#    z 0.000000 0.000000 1.679950 
# 
# From -- ./inp_files/4675.got.cif
#   From: 2010.05.17/outbox.cif.g08.bks.cpg/sg127_3_cif.got.tgz:4675.got - 2010.05.20 12:03:00.
