data_PCOD9564300
_publ_section_title
;
Structure prediction by ZEFSAII (Michael W. Deem and Ramdas Pophale) SiO2 
 PCOD9564300
Probable space group: P 4/M B M
;
_chemical_formula_sum "Si O2"
_cell_formula_units_Z 64
_cell_length_a 11.322907
_cell_length_b 11.322907
_cell_length_c 26.930267
_cell_angle_alpha 90.000000
_cell_angle_beta 90.000000
_cell_angle_gamma 90.000000
_cell_volume 3452.681675
_symmetry_space_group_name_H-M "P 4/M B M"
_symmetry_group_IT_number 127
_symmetry_cell_setting 'tetragonal'
loop_
_space_group_symop_operation_xyz
x,y,z
-y,x,z
-x,-y,z
y,-x,z
1/2+x,1/2-y,-z
1/2-x,1/2+y,-z
1/2+y,1/2+x,-z
1/2-y,1/2-x,-z
-x,-y,-z
y,-x,-z
x,y,-z
-y,x,-z
1/2-x,1/2+y,z
1/2+x,1/2-y,z
1/2-y,1/2-x,z
1/2+y,1/2+x,z
loop_
_atom_site_type_symbol
_atom_site_label
_atom_site_fract_x
_atom_site_fract_y
_atom_site_fract_z
Si Si1 0.598631 0.901370 0.055629
Si Si2 0.303775 0.463929 0.500000
Si Si3 0.398568 0.898568 0.424196
Si Si4 0.901765 0.598236 0.311139
Si Si5 0.487190 0.301422 0.872493
Si Si6 0.487273 0.698613 0.239297
O O1 0.703952 0.960159 0.086898
O O2 0.500000 0.000000 0.050913
O O3 0.636111 0.863890 0.000000
O O4 0.408524 0.366817 0.500000
O O5 0.217206 0.444968 0.453103
O O6 0.368133 0.868133 0.367291
O O7 0.500000 0.000000 0.427169
O O8 0.796468 0.539785 0.279762
O O9 0.000000 0.500000 0.316902
O O10 0.605451 0.379466 0.877099
O O11 0.499908 0.250658 0.816605
O O12 0.379490 0.605530 0.243922
#
# Coordination Sequence:
#
# PCOD9564300 Si02
#       6
#     8   8   8   8  16  16
#     4  11  26  39  56  89 121 152 197 251 303 358
#     4  10  22  41  69  93 112 160 215 250 298 359
#     4  10  24  41  59  91 131 159 196 258 307 347
#     4  11  25  37  58  94 127 164 200 241 306 359
#     4   9  21  41  64  87 114 156 202 248 301 356
#     4   9  21  40  61  88 120 158 203 247 294 355
#
# _framework density 18.536314999999998
#
# number of rings (size 3 to 8) (size 9 to 14) (size 15 to 20)
#    0.000    2.250    0.000    2.250   10.500    5.000 
#    0.000    3.750    0.000    0.000    0.000    0.000 
#    0.000    0.000    0.000    0.000    0.000    0.000 
#
# Total GULP energy -356931.110018 kJ/mol
# GULP energy per Si atom -5577.048594 kJ/mol
# Density = 1.849413 g / cm^3
# Si number density = 18.536315 Si / 1000 Ang^3
#
#
#
# Elastic Constant Matrix: (Units=GPa)
#
#
# Indices 1 2 3 4 5 6 
#
# 1 -309.3804 427.0822 72.4807 0.0000 0.0000 0.0000
# 2 427.0822 -309.3831 72.4792 0.0000 0.0000 0.0000
# 3 72.4807 72.4792 195.2236 0.0000 0.0000 0.0000
# 4 0.0000 0.0000 0.0000 -89.7667 0.0000 0.0000
# 5 0.0000 0.0000 0.0000 0.0000 -89.7736 0.0000
# 6 0.0000 0.0000 0.0000 0.0000 0.0000 12.5700
#
#
#
# Elastic Compliance Matrix: (Units=1/GPa)
#
#
# Indices 1 2 3 4 5 6 
#
# 1 0.007148 0.008506 -0.005812 0.000000 0.000000 0.000000
# 2 0.008506 0.007148 -0.005812 0.000000 0.000000 0.000000
# 3 -0.005812 -0.005812 0.009438 0.000000 0.000000 0.000000
# 4 0.000000 0.000000 0.000000 -0.011140 0.000000 0.000000
# 5 0.000000 0.000000 0.000000 0.000000 -0.011139 0.000000
# 6 0.000000 0.000000 0.000000 0.000000 0.000000 0.079554
#
#
# Mechanical properties :
#
#
# Convention : Reuss Voigt Hill
#
# Bulk Modulus (GPa) = 57.14767 80.06046 68.60407
# Shear Modulus (GPa) = 53.71873 -99.76619 -23.02373
#
# Velocity S-wave (km/s) = 5.38917 -7.34431 -3.52815
# Velocity P-wave (km/s) = 8.34394 5.35104 4.52701
#
# Compressibility (1/GPa) = 0.01749852
#
# Stress axis : x y z
#
# Youngs Moduli (GPa) = 139.89801 139.89867 105.95729
#
# Poissons Ratio (x) = -1.18996 0.61580
# Poissons Ratio (y) = -1.18996 0.61580
# Poissons Ratio (z) = 0.81306 0.81306
#
# Static dielectric constant tensor:
#      x y z
#    x 1.632640 0.000000 0.000000 
#    y 0.000000 1.632640 0.000000 
#    z 0.000000 0.000000 1.656900 
# 
# From -- ./inp_files/6292.got.cif
#   From: 2010.05.17/outbox.cif.g08.bks.cpg/sg127_4_cif.got.tgz:6292.got - 2010.05.20 12:03:00.
