data_PCOD9564482
_publ_section_title
;
Structure prediction by ZEFSAII (Michael W. Deem and Ramdas Pophale) SiO2 
 PCOD9564482
Probable space group: P 4/M B M
;
_chemical_formula_sum "Si O2"
_cell_formula_units_Z 72
_cell_length_a 23.708222
_cell_length_b 23.708222
_cell_length_c 9.083740
_cell_angle_alpha 90.000000
_cell_angle_beta 90.000000
_cell_angle_gamma 90.000000
_cell_volume 5105.786675
_symmetry_space_group_name_H-M "P 4/M B M"
_symmetry_group_IT_number 127
_symmetry_cell_setting 'tetragonal'
loop_
_space_group_symop_operation_xyz
x,y,z
-y,x,z
-x,-y,z
y,-x,z
1/2+x,1/2-y,-z
1/2-x,1/2+y,-z
1/2+y,1/2+x,-z
1/2-y,1/2-x,-z
-x,-y,-z
y,-x,-z
x,y,-z
-y,x,-z
1/2-x,1/2+y,z
1/2+x,1/2-y,z
1/2-y,1/2-x,z
1/2+y,1/2+x,z
loop_
_atom_site_type_symbol
_atom_site_label
_atom_site_fract_x
_atom_site_fract_y
_atom_site_fract_z
Si Si1 0.327181 0.016570 0.679467
Si Si2 0.727104 0.867518 0.676514
Si Si3 0.454119 0.045882 0.320294
Si Si4 0.296899 0.890519 0.677312
Si Si5 0.690010 0.286898 0.830739
O O1 0.327643 0.016467 0.500000
O O2 0.288462 0.069286 0.724370
O O3 0.391299 0.029057 0.726719
O O4 0.307331 0.954650 0.725968
O O5 0.734672 0.866743 0.500000
O O6 0.673382 0.826619 0.707684
O O7 0.781460 0.840241 0.752371
O O8 0.453890 0.046111 0.500000
O O9 0.500000 0.000000 0.273141
O O10 0.291754 0.889516 0.500000
O O11 0.350747 0.850747 0.714586
O O12 0.241854 0.862086 0.747556
O O13 0.738859 0.238859 0.827051
O O14 0.676454 0.298769 0.000000
#
# Coordination Sequence:
#
# PCOD9564482 Si02
#       5
#    16  16   8  16  16
#     4   9  15  23  36  58  85 110 138 170 202 238
#     4   9  15  25  41  59  80 105 134 169 208 244
#     4   9  14  20  32  54  85 117 143 169 199 230
#     4   9  16  26  40  59  82 109 139 169 202 240
#     4   9  17  28  41  56  75 101 136 175 213 248
#
# _framework density 14.101647
#
# number of rings (size 3 to 8) (size 9 to 14) (size 15 to 20)
#    0.000    3.000    1.111    1.333    0.000    5.333 
#    0.000    1.111    0.000    0.000    0.000    0.000 
#    0.000    6.222    0.000   10.222    0.000    4.000 
#
# Total GULP energy -400872.947228 kJ/mol
# GULP energy per Si atom -5567.679823 kJ/mol
# Density = 1.406955 g / cm^3
# Si number density = 14.101647 Si / 1000 Ang^3
#
#
#
# Elastic Constant Matrix: (Units=GPa)
#
#
# Indices 1 2 3 4 5 6 
#
# 1 102.9819 87.9719 31.7650 0.0000 0.0000 0.0000
# 2 87.9719 102.9820 31.7651 0.0000 0.0000 0.0000
# 3 31.7650 31.7651 18.8347 0.0000 0.0000 0.0000
# 4 0.0000 0.0000 0.0000 4.5426 0.0000 0.0000
# 5 0.0000 0.0000 0.0000 0.0000 4.5426 0.0000
# 6 0.0000 0.0000 0.0000 0.0000 0.0000 25.6604
#
#
#
# Elastic Compliance Matrix: (Units=1/GPa)
#
#
# Indices 1 2 3 4 5 6 
#
# 1 0.039277 -0.027345 -0.020123 0.000000 0.000000 0.000000
# 2 -0.027345 0.039277 -0.020123 0.000000 0.000000 0.000000
# 3 -0.020123 -0.020123 0.120970 0.000000 0.000000 0.000000
# 4 0.000000 0.000000 0.000000 0.220140 0.000000 0.000000
# 5 0.000000 0.000000 0.000000 0.000000 0.220140 0.000000
# 6 0.000000 0.000000 0.000000 0.000000 0.000000 0.038971
#
#
# Mechanical properties :
#
#
# Convention : Reuss Voigt Hill
#
# Bulk Modulus (GPa) = 15.54232 58.64474 37.09353
# Shear Modulus (GPa) = 5.98513 11.83555 8.91034
#
# Velocity S-wave (km/s) = 2.06240 2.90022 2.51642
# Velocity P-wave (km/s) = 4.08863 7.27272 5.89955
#
# Compressibility (1/GPa) = 0.06434046
#
# Stress axis : x y z
#
# Youngs Moduli (GPa) = 25.46026 25.46027 8.26653
#
# Poissons Ratio (x) = 0.69621 0.16635
# Poissons Ratio (y) = 0.69621 0.16635
# Poissons Ratio (z) = 0.51234 0.51234
#
# Static dielectric constant tensor:
#      x y z
#    x 1.453780 0.000000 0.000000 
#    y 0.000000 1.453780 0.000000 
#    z 0.000000 0.000000 1.466770 
# 
# From -- ./inp_files/1724.got.cif
#   From: 2010.05.17/outbox.cif.g08.bks.cpg/sg127_1_cif.got.tgz:1724.got - 2010.05.20 12:03:00.
