data_PCOD9564762
_publ_section_title
;
Structure prediction by ZEFSAII (Michael W. Deem and Ramdas Pophale) SiO2 
 PCOD9564762
Probable space group: P 4/M N C
;
_chemical_formula_sum "Si O2"
_cell_formula_units_Z 96
_cell_length_a 15.453665
_cell_length_b 15.453665
_cell_length_c 18.764131
_cell_angle_alpha 90.000000
_cell_angle_beta 90.000000
_cell_angle_gamma 90.000000
_cell_volume 4481.170242
_symmetry_space_group_name_H-M "P 4/M N C"
_symmetry_group_IT_number 128
_symmetry_cell_setting 'tetragonal'
loop_
_space_group_symop_operation_xyz
x,y,z
-y,x,z
-x,-y,z
y,-x,z
1/2+x,1/2-y,1/2-z
1/2-x,1/2+y,1/2-z
1/2+y,1/2+x,1/2-z
1/2-y,1/2-x,1/2-z
-x,-y,-z
y,-x,-z
x,y,-z
-y,x,-z
1/2-x,1/2+y,1/2+z
1/2+x,1/2-y,1/2+z
1/2-y,1/2-x,1/2+z
1/2+y,1/2+x,1/2+z
loop_
_atom_site_type_symbol
_atom_site_label
_atom_site_fract_x
_atom_site_fract_y
_atom_site_fract_z
Si Si1 0.857503 0.595177 0.582044
Si Si2 0.624179 0.345696 0.419525
Si Si3 0.458452 0.632829 0.275398
Si Si4 0.316854 0.096553 0.913750
Si Si5 0.607845 0.720419 0.914242
Si Si6 0.077067 0.236197 0.648693
O O1 0.891152 0.594921 0.500000
O O2 0.758494 0.628945 0.578343
O O3 0.851822 0.496675 0.609976
O O4 0.908956 0.664456 0.628004
O O5 0.603735 0.374972 0.500000
O O6 0.553192 0.364060 0.360063
O O7 0.716678 0.383913 0.396310
O O8 0.395483 0.554169 0.253953
O O9 0.430996 0.717532 0.232820
O O10 0.369696 0.181040 0.891845
O O11 0.318426 0.091961 0.000000
O O12 0.510876 0.702699 0.888232
O O13 0.678387 0.655538 0.881697
O O14 0.613062 0.715383 0.000000
#
# Coordination Sequence:
#
# PCOD9564762 Si02
#       6
#    16  16  16  16  16  16
#     4  10  20  37  64  97 131 168 217 269 328 394
#     4  10  20  39  68  96 123 162 214 273 338 406
#     4  11  24  41  59  90 135 172 215 275 333 393
#     4   9  19  37  63  99 134 163 209 281 338 389
#     4  11  22  39  64  94 131 177 231 275 319 384
#     4  12  23  40  60  92 134 182 224 268 325 389
#
# _framework density 21.422975000000001
#
# number of rings (size 3 to 8) (size 9 to 14) (size 15 to 20)
#    0.000    1.500    3.333    2.500    0.000    3.667 
#    0.000    4.167    0.000    0.000    0.000    2.333 
#    0.000    0.000    0.000    0.000    0.000    0.000 
#
# Total GULP energy -536345.776508 kJ/mol
# GULP energy per Si atom -5586.935172 kJ/mol
# Density = 2.137422 g / cm^3
# Si number density = 21.422975 Si / 1000 Ang^3
#
#
#
# Elastic Constant Matrix: (Units=GPa)
#
#
# Indices 1 2 3 4 5 6 
#
# 1 91.5639 38.9003 24.4954 0.0000 0.0000 0.0000
# 2 38.9003 91.5639 24.4954 0.0000 0.0000 0.0000
# 3 24.4954 24.4954 69.7441 0.0000 0.0000 0.0000
# 4 0.0000 0.0000 0.0000 19.7810 0.0000 0.0000
# 5 0.0000 0.0000 0.0000 0.0000 19.7810 0.0000
# 6 0.0000 0.0000 0.0000 0.0000 0.0000 25.8311
#
#
#
# Elastic Compliance Matrix: (Units=1/GPa)
#
#
# Indices 1 2 3 4 5 6 
#
# 1 0.013909 -0.005080 -0.003101 0.000000 0.000000 0.000000
# 2 -0.005080 0.013909 -0.003101 0.000000 0.000000 0.000000
# 3 -0.003101 -0.003101 0.016516 0.000000 0.000000 0.000000
# 4 0.000000 0.000000 0.000000 0.050553 0.000000 0.000000
# 5 0.000000 0.000000 0.000000 0.000000 0.050553 0.000000
# 6 0.000000 0.000000 0.000000 0.000000 0.000000 0.038713
#
#
# Mechanical properties :
#
#
# Convention : Reuss Voigt Hill
#
# Bulk Modulus (GPa) = 45.93254 47.62821 46.78038
# Shear Modulus (GPa) = 23.36729 24.07738 23.72233
#
# Velocity S-wave (km/s) = 3.30625 3.35611 3.33127
# Velocity P-wave (km/s) = 6.00519 6.10725 6.05644
#
# Compressibility (1/GPa) = 0.02177106
#
# Stress axis : x y z
#
# Youngs Moduli (GPa) = 71.89634 71.89634 60.54587
#
# Poissons Ratio (x) = 0.36520 0.18776
# Poissons Ratio (y) = 0.36520 0.18776
# Poissons Ratio (z) = 0.22295 0.22295
#
# Static dielectric constant tensor:
#      x y z
#    x 1.783530 0.000000 0.000000 
#    y 0.000000 1.783530 0.000000 
#    z 0.000000 0.000000 1.786510 
# 
# From -- ./inp_files/5744.got.cif
#   From: 2010.05.17/outbox.cif.g08.bks.cpg/sg128_3_cif.got.tgz:5744.got - 2010.05.20 12:07:25.
