data_PCOD9564684
_publ_section_title
;
Structure prediction by ZEFSAII (Michael W. Deem and Ramdas Pophale) SiO2 
 PCOD9564684
Probable space group: P 4/M N C
;
_chemical_formula_sum "Si O2"
_cell_formula_units_Z 96
_cell_length_a 25.891678
_cell_length_b 25.891678
_cell_length_c 8.860397
_cell_angle_alpha 90.000000
_cell_angle_beta 90.000000
_cell_angle_gamma 90.000000
_cell_volume 5939.823989
_symmetry_space_group_name_H-M "P 4/M N C"
_symmetry_group_IT_number 128
_symmetry_cell_setting 'tetragonal'
loop_
_space_group_symop_operation_xyz
x,y,z
-y,x,z
-x,-y,z
y,-x,z
1/2+x,1/2-y,1/2-z
1/2-x,1/2+y,1/2-z
1/2+y,1/2+x,1/2-z
1/2-y,1/2-x,1/2-z
-x,-y,-z
y,-x,-z
x,y,-z
-y,x,-z
1/2-x,1/2+y,1/2+z
1/2+x,1/2-y,1/2+z
1/2-y,1/2-x,1/2+z
1/2+y,1/2+x,1/2+z
loop_
_atom_site_type_symbol
_atom_site_label
_atom_site_fract_x
_atom_site_fract_y
_atom_site_fract_z
Si Si1 0.611079 0.190549 0.818565
Si Si2 0.501672 0.304447 0.320276
Si Si3 0.188741 0.893668 0.319811
Si Si4 0.613634 0.688400 0.679505
Si Si5 0.110347 0.689621 0.180218
Si Si6 0.503175 0.809173 0.820035
O O1 0.655571 0.155571 0.750000
O O2 0.615232 0.251098 0.774687
O O3 0.553595 0.170504 0.775188
O O4 0.614092 0.188860 0.000000
O O5 0.505112 0.294215 0.500000
O O6 0.553912 0.330451 0.261748
O O7 0.445654 0.329486 0.293547
O O8 0.499564 0.250694 0.229531
O O9 0.187500 0.900740 0.500000
O O10 0.153904 0.845890 0.269809
O O11 0.623722 0.683982 0.500000
O O12 0.616344 0.749429 0.718805
O O13 0.155754 0.655754 0.250000
O O14 0.054813 0.670491 0.241592
O O15 0.110649 0.685874 0.000000
O O16 0.508408 0.813186 0.000000
#
# Coordination Sequence:
#
# PCOD9564684 Si02
#       6
#    16  16  16  16  16  16
#     4   9  19  32  47  70  97 126 159 194 235 282
#     4   9  17  31  50  70  93 124 163 201 238 284
#     4  10  20  32  48  72  99 128 161 197 240 285
#     4   9  19  33  49  71  97 127 161 195 237 287
#     4  10  20  33  50  73  99 130 164 198 242 290
#     4   9  17  31  49  70  95 123 161 203 239 282
#
# _framework density 16.162095999999998
#
# number of rings (size 3 to 8) (size 9 to 14) (size 15 to 20)
#    0.000    2.667    0.000    4.000    0.000    8.667 
#    0.000    3.333    0.000    1.000    0.000    7.000 
#    0.000    0.000    0.000    0.000    0.000    0.000 
#
# Total GULP energy -534577.535960 kJ/mol
# GULP energy per Si atom -5568.516000 kJ/mol
# Density = 1.612531 g / cm^3
# Si number density = 16.162096 Si / 1000 Ang^3
#
#
#
# Elastic Constant Matrix: (Units=GPa)
#
#
# Indices 1 2 3 4 5 6 
#
# 1 90.8437 59.0884 39.5344 0.0000 0.0000 0.0000
# 2 59.0884 90.8437 39.5344 0.0000 0.0000 0.0000
# 3 39.5344 39.5344 43.0036 0.0000 0.0000 0.0000
# 4 0.0000 0.0000 0.0000 29.1378 0.0000 0.0000
# 5 0.0000 0.0000 0.0000 0.0000 29.1378 0.0000
# 6 0.0000 0.0000 0.0000 0.0000 0.0000 -3.2651
#
#
#
# Elastic Compliance Matrix: (Units=1/GPa)
#
#
# Indices 1 2 3 4 5 6 
#
# 1 0.022219 -0.009272 -0.011902 0.000000 0.000000 0.000000
# 2 -0.009272 0.022219 -0.011902 0.000000 0.000000 0.000000
# 3 -0.011902 -0.011902 0.045137 0.000000 0.000000 0.000000
# 4 0.000000 0.000000 0.000000 0.034320 0.000000 0.000000
# 5 0.000000 0.000000 0.000000 0.000000 0.034320 0.000000
# 6 0.000000 0.000000 0.000000 0.000000 0.000000 -0.306271
#
#
# Mechanical properties :
#
#
# Convention : Reuss Voigt Hill
#
# Bulk Modulus (GPa) = 42.69425 55.66726 49.18075
# Shear Modulus (GPa) = -67.47864 16.77104 -25.35380
#
# Velocity S-wave (km/s) = -6.46852 3.22479 -3.96500
# Velocity P-wave (km/s) = 5.41437 6.95583 3.08773
#
# Compressibility (1/GPa) = 0.02342236
#
# Stress axis : x y z
#
# Youngs Moduli (GPa) = 45.00749 45.00749 22.15464
#
# Poissons Ratio (x) = 0.41732 0.26368
# Poissons Ratio (y) = 0.41732 0.26368
# Poissons Ratio (z) = 0.53567 0.53567
#
# Static dielectric constant tensor:
#      x y z
#    x 1.550080 0.000000 0.000000 
#    y 0.000000 1.550080 0.000000 
#    z 0.000000 0.000000 1.538250 
# 
# From -- ./inp_files/1465.got.cif
#   From: 2010.05.17/outbox.cif.g08.bks.cpg/sg128_1_cif.got.tgz:1465.got - 2010.05.20 12:07:25.
