data_PCOD9564111
_publ_section_title
;
Structure prediction by ZEFSAII (Michael W. Deem and Ramdas Pophale) SiO2 
 PCOD9564111
Probable space group: P 4/M B M
;
_chemical_formula_sum "Si O2"
_cell_formula_units_Z 116
_cell_length_a 17.686473
_cell_length_b 17.686473
_cell_length_c 18.139607
_cell_angle_alpha 90.000000
_cell_angle_beta 90.000000
_cell_angle_gamma 90.000000
_cell_volume 5674.274540
_symmetry_space_group_name_H-M "P 4/M B M"
_symmetry_group_IT_number 127
_symmetry_cell_setting 'tetragonal'
loop_
_space_group_symop_operation_xyz
x,y,z
-y,x,z
-x,-y,z
y,-x,z
1/2+x,1/2-y,-z
1/2-x,1/2+y,-z
1/2+y,1/2+x,-z
1/2-y,1/2-x,-z
-x,-y,-z
y,-x,-z
x,y,-z
-y,x,-z
1/2-x,1/2+y,z
1/2+x,1/2-y,z
1/2-y,1/2-x,z
1/2+y,1/2+x,z
loop_
_atom_site_type_symbol
_atom_site_label
_atom_site_fract_x
_atom_site_fract_y
_atom_site_fract_z
Si Si1 0.818684 0.800840 0.130232
Si Si2 0.160197 0.785329 0.713104
Si Si3 0.826484 0.453003 0.225425
Si Si4 0.100061 0.600061 0.500000
Si Si5 0.228198 0.858509 0.583056
Si Si6 0.478397 0.853068 0.380710
Si Si7 0.556468 0.183133 0.082333
Si Si8 0.441419 0.395229 0.088181
O O1 0.738991 0.761010 0.113510
O O2 0.827610 0.799694 0.218595
O O3 0.883092 0.751078 0.091950
O O4 0.826595 0.887394 0.107432
O O5 0.211587 0.711587 0.697154
O O6 0.082383 0.751514 0.743061
O O7 0.164143 0.836591 0.641432
O O8 0.884614 0.384614 0.209570
O O9 0.858522 0.499836 0.294916
O O10 0.816165 0.500907 0.151532
O O11 0.142294 0.549609 0.434773
O O12 0.200020 0.865589 0.500000
O O13 0.290263 0.790263 0.584132
O O14 0.276750 0.931231 0.606056
O O15 0.423622 0.923622 0.400854
O O16 0.606773 0.106773 0.085573
O O17 0.522420 0.189184 0.000000
O O18 0.527480 0.400239 0.114984
O O19 0.445724 0.398181 0.000000
#
# Coordination Sequence:
#
# PCOD9564111 Si02
#       8
#    16  16  16   4  16  16  16  16
#     4  10  20  37  60  82 112 150 192 249 305 364
#     4   9  20  37  52  77 111 147 196 242 289 361
#     4  11  23  37  54  82 119 160 195 245 310 366
#     4  12  21  32  52  92 130 154 200 250 290 373
#     4   9  17  33  55  76 104 149 195 237 287 348
#     4  11  20  33  55  85 122 156 193 242 301 364
#     4  10  22  39  59  84 111 151 208 255 304 381
#     4   9  19  35  56  85 116 144 181 237 304 367
#
# _framework density 20.443142000000002
#
# number of rings (size 3 to 8) (size 9 to 14) (size 15 to 20)
#    0.000    2.069    1.379    2.690    1.931    4.138 
#    1.241    1.379    0.000    4.966    0.000    0.000 
#    0.000    0.000    0.000    4.552    0.000    1.655 
#
# Total GULP energy -646342.703082 kJ/mol
# GULP energy per Si atom -5571.919854 kJ/mol
# Density = 2.039661 g / cm^3
# Si number density = 20.443142 Si / 1000 Ang^3
#
#
#
# Elastic Constant Matrix: (Units=GPa)
#
#
# Indices 1 2 3 4 5 6 
#
# 1 45.4744 29.9108 34.6346 0.0000 0.0000 0.0000
# 2 29.9108 45.4744 34.6346 0.0000 0.0000 0.0000
# 3 34.6346 34.6346 121.6236 0.0000 0.0000 0.0000
# 4 0.0000 0.0000 0.0000 12.4173 0.0000 0.0000
# 5 0.0000 0.0000 0.0000 0.0000 12.4173 0.0000
# 6 0.0000 0.0000 0.0000 0.0000 0.0000 26.9424
#
#
#
# Elastic Compliance Matrix: (Units=1/GPa)
#
#
# Indices 1 2 3 4 5 6 
#
# 1 0.041109 -0.023143 -0.005116 0.000000 0.000000 0.000000
# 2 -0.023143 0.041109 -0.005116 0.000000 0.000000 0.000000
# 3 -0.005116 -0.005116 0.011136 0.000000 0.000000 0.000000
# 4 0.000000 0.000000 0.000000 0.080533 0.000000 0.000000
# 5 0.000000 0.000000 0.000000 0.000000 0.080533 0.000000
# 6 0.000000 0.000000 0.000000 0.000000 0.000000 0.037116
#
#
# Mechanical properties :
#
#
# Convention : Reuss Voigt Hill
#
# Bulk Modulus (GPa) = 37.58877 45.65915 41.62396
# Shear Modulus (GPa) = 13.61819 17.91490 15.76655
#
# Velocity S-wave (km/s) = 2.58379 2.96350 2.78013
# Velocity P-wave (km/s) = 5.22764 5.83892 5.54171
#
# Compressibility (1/GPa) = 0.02660369
#
# Stress axis : x y z
#
# Youngs Moduli (GPa) = 24.32531 24.32531 89.79902
#
# Poissons Ratio (x) = 0.56296 0.45943
# Poissons Ratio (y) = 0.56296 0.45943
# Poissons Ratio (z) = 0.12445 0.12445
#
# Static dielectric constant tensor:
#      x y z
#    x 1.755140 0.000000 0.000000 
#    y 0.000000 1.755140 0.000000 
#    z 0.000000 0.000000 1.732150 
# 
# From -- ./inp_files/5292.got.cif
#   From: 2010.05.17/outbox.cif.g08.bks.cpg/sg127_3_cif.got.tgz:5292.got - 2010.05.20 12:03:00.
