data_PCOD9564804
_publ_section_title
;
Structure prediction by ZEFSAII (Michael W. Deem and Ramdas Pophale) SiO2 
 PCOD9564804
Probable space group: P 4/M N C
;
_chemical_formula_sum "Si O2"
_cell_formula_units_Z 96
_cell_length_a 22.554513
_cell_length_b 22.554513
_cell_length_c 10.636641
_cell_angle_alpha 90.000000
_cell_angle_beta 90.000000
_cell_angle_gamma 90.000000
_cell_volume 5410.923699
_symmetry_space_group_name_H-M "P 4/M N C"
_symmetry_group_IT_number 128
_symmetry_cell_setting 'tetragonal'
loop_
_space_group_symop_operation_xyz
x,y,z
-y,x,z
-x,-y,z
y,-x,z
1/2+x,1/2-y,1/2-z
1/2-x,1/2+y,1/2-z
1/2+y,1/2+x,1/2-z
1/2-y,1/2-x,1/2-z
-x,-y,-z
y,-x,-z
x,y,-z
-y,x,-z
1/2-x,1/2+y,1/2+z
1/2+x,1/2-y,1/2+z
1/2-y,1/2-x,1/2+z
1/2+y,1/2+x,1/2+z
loop_
_atom_site_type_symbol
_atom_site_label
_atom_site_fract_x
_atom_site_fract_y
_atom_site_fract_z
Si Si1 0.096403 0.022624 0.500000
Si Si2 0.524151 0.784211 0.854764
Si Si3 0.602183 0.173880 0.146087
Si Si4 0.660254 0.767117 0.852337
Si Si5 0.314325 0.370272 0.851956
Si Si6 0.597754 0.484700 0.500000
Si Si7 0.494953 0.662837 0.246936
O O1 0.042118 0.067078 0.500000
O O2 0.133760 0.026719 0.373418
O O3 0.469630 0.829518 0.838784
O O4 0.594093 0.795043 0.841756
O O5 0.509381 0.731689 0.760306
O O6 0.516116 0.762829 0.000000
O O7 0.634726 0.134726 0.250000
O O8 0.622917 0.242772 0.163742
O O9 0.616114 0.158507 0.000000
O O10 0.701650 0.798351 0.750000
O O11 0.662668 0.696095 0.826052
O O12 0.678591 0.773917 0.000000
O O13 0.342767 0.423912 0.773108
O O14 0.325302 0.381811 0.000000
O O15 0.564601 0.547597 0.500000
O O16 0.635042 0.482534 0.373909
#
# Coordination Sequence:
#
# PCOD9564804 Si02
#       7
#     8  16  16  16  16   8  16
#     4  11  22  30  52  80  98 136 198 243 259 307
#     4   9  19  36  59  82 106 138 181 229 274 319
#     4   9  17  33  53  79 110 139 172 217 266 318
#     4  10  21  37  57  84 112 142 174 219 275 325
#     4   9  18  33  56  82 107 139 179 226 266 315
#     4  11  26  40  46  66 114 160 186 233 289 319
#     4  11  20  37  55  75 105 144 191 227 279 316
#
# _framework density 17.741887999999999
#
# number of rings (size 3 to 8) (size 9 to 14) (size 15 to 20)
#    0.000    2.167    1.667    2.500    4.667    1.333 
#    9.000    0.000    0.000    0.500    0.000    3.500 
#    0.000    0.000    0.000    0.000    0.000    0.000 
#
# Total GULP energy -535222.438039 kJ/mol
# GULP energy per Si atom -5575.233730 kJ/mol
# Density = 1.770151 g / cm^3
# Si number density = 17.741888 Si / 1000 Ang^3
#
#
#
# Elastic Constant Matrix: (Units=GPa)
#
#
# Indices 1 2 3 4 5 6 
#
# 1 42.4645 5.4420 15.4248 0.0000 0.0000 0.0000
# 2 5.4420 42.4682 15.4269 0.0000 0.0000 0.0000
# 3 15.4248 15.4269 87.6784 0.0000 0.0000 0.0000
# 4 0.0000 0.0000 0.0000 98.9637 0.0000 0.0000
# 5 0.0000 0.0000 0.0000 0.0000 98.9661 0.0000
# 6 0.0000 0.0000 0.0000 0.0000 0.0000 41.9266
#
#
#
# Elastic Compliance Matrix: (Units=1/GPa)
#
#
# Indices 1 2 3 4 5 6 
#
# 1 0.025276 -0.001734 -0.004141 0.000000 0.000000 0.000000
# 2 -0.001734 0.025274 -0.004142 0.000000 0.000000 0.000000
# 3 -0.004141 -0.004142 0.012863 0.000000 0.000000 0.000000
# 4 0.000000 0.000000 0.000000 0.010105 0.000000 0.000000
# 5 0.000000 0.000000 0.000000 0.000000 0.010104 0.000000
# 6 0.000000 0.000000 0.000000 0.000000 0.000000 0.023851
#
#
# Mechanical properties :
#
#
# Convention : Reuss Voigt Hill
#
# Bulk Modulus (GPa) = 23.05381 27.24428 25.14904
# Shear Modulus (GPa) = 35.21950 57.05910 46.13930
#
# Velocity S-wave (km/s) = 4.46028 5.67719 5.10513
# Velocity P-wave (km/s) = 6.28870 7.63958 6.99682
#
# Compressibility (1/GPa) = 0.04337678
#
# Stress axis : x y z
#
# Youngs Moduli (GPa) = 39.56373 39.56662 77.74449
#
# Poissons Ratio (x) = 0.06863 0.32197
# Poissons Ratio (y) = 0.06862 0.32200
# Poissons Ratio (z) = 0.16385 0.16388
#
# Static dielectric constant tensor:
#      x y z
#    x 1.633270 0.000000 0.000000 
#    y 0.000000 1.633270 0.000000 
#    z 0.000000 0.000000 1.574570 
# 
# From -- ./inp_files/1550.got.cif
#   From: 2010.05.17/outbox.cif.g08.bks.cpg/sg128_1_cif.got.tgz:1550.got - 2010.05.20 12:07:25.
