data_PCOD9564849
_publ_section_title
;
Structure prediction by ZEFSAII (Michael W. Deem and Ramdas Pophale) SiO2 
 PCOD9564849
Probable space group: P 4/M N C
;
_chemical_formula_sum "Si O2"
_cell_formula_units_Z 88
_cell_length_a 18.101621
_cell_length_b 18.101621
_cell_length_c 13.690989
_cell_angle_alpha 90.000000
_cell_angle_beta 90.000000
_cell_angle_gamma 90.000000
_cell_volume 4486.108332
_symmetry_space_group_name_H-M "P 4/M N C"
_symmetry_group_IT_number 128
_symmetry_cell_setting 'tetragonal'
loop_
_space_group_symop_operation_xyz
x,y,z
-y,x,z
-x,-y,z
y,-x,z
1/2+x,1/2-y,1/2-z
1/2-x,1/2+y,1/2-z
1/2+y,1/2+x,1/2-z
1/2-y,1/2-x,1/2-z
-x,-y,-z
y,-x,-z
x,y,-z
-y,x,-z
1/2-x,1/2+y,1/2+z
1/2+x,1/2-y,1/2+z
1/2-y,1/2-x,1/2+z
1/2+y,1/2+x,1/2+z
loop_
_atom_site_type_symbol
_atom_site_label
_atom_site_fract_x
_atom_site_fract_y
_atom_site_fract_z
Si Si1 0.205762 0.112017 0.388770
Si Si2 0.212323 0.267206 0.888657
Si Si3 0.329902 0.045507 0.747905
Si Si4 0.485276 0.295701 0.611676
Si Si5 0.139435 0.872891 0.202593
Si Si6 0.125948 0.374053 0.750000
O O1 0.191386 0.087981 0.500000
O O2 0.221762 0.199990 0.391202
O O3 0.274319 0.068407 0.340036
O O4 0.139082 0.107176 0.310476
O O5 0.191571 0.197996 0.821360
O O6 0.166689 0.335065 0.842204
O O7 0.187892 0.253456 0.000000
O O8 0.397008 0.102993 0.750000
O O9 0.279014 0.049797 0.845072
O O10 0.357982 0.961188 0.744106
O O11 0.507250 0.287595 0.500000
O O12 0.426088 0.360659 0.626123
O O13 0.553221 0.316536 0.681189
#
# Coordination Sequence:
#
# PCOD9564849 Si02
#       6
#    16  16  16  16  16   8
#     4  10  21  39  64  90 121 170 225 274 321 384
#     4  11  20  37  63  87 119 164 220 278 330 385
#     4  11  24  39  60  91 133 173 218 265 322 388
#     4  11  22  38  63  91 125 165 212 273 334 388
#     4  11  21  38  58  91 124 160 211 272 330 399
#     4  12  23  40  60  92 132 171 218 268 328 392
#
# _framework density 19.616111
#
# number of rings (size 3 to 8) (size 9 to 14) (size 15 to 20)
#    0.000    1.091    3.636    4.091    0.000    3.273 
#    0.000    6.364    0.000    3.273    0.000    5.091 
#    0.000    0.000    0.000    0.000    0.000    0.000 
#
# Total GULP energy -491178.852968 kJ/mol
# GULP energy per Si atom -5581.577875 kJ/mol
# Density = 1.957146 g / cm^3
# Si number density = 19.616111 Si / 1000 Ang^3
#
#
#
# Elastic Constant Matrix: (Units=GPa)
#
#
# Indices 1 2 3 4 5 6 
#
# 1 21.0507 101.0738 26.5408 0.0000 0.0000 0.0000
# 2 101.0738 21.0560 26.5445 0.0000 0.0000 0.0000
# 3 26.5408 26.5445 152.1990 0.0000 0.0000 0.0000
# 4 0.0000 0.0000 0.0000 13.2421 0.0000 0.0000
# 5 0.0000 0.0000 0.0000 0.0000 13.2423 0.0000
# 6 0.0000 0.0000 0.0000 0.0000 0.0000 37.2430
#
#
#
# Elastic Compliance Matrix: (Units=1/GPa)
#
#
# Indices 1 2 3 4 5 6 
#
# 1 -0.001819 0.010678 -0.001545 0.000000 0.000000 0.000000
# 2 0.010678 -0.001818 -0.001545 0.000000 0.000000 0.000000
# 3 -0.001545 -0.001545 0.007109 0.000000 0.000000 0.000000
# 4 0.000000 0.000000 0.000000 0.075517 0.000000 0.000000
# 5 0.000000 0.000000 0.000000 0.000000 0.075516 0.000000
# 6 0.000000 0.000000 0.000000 0.000000 0.000000 0.026851
#
#
# Mechanical properties :
#
#
# Convention : Reuss Voigt Hill
#
# Bulk Modulus (GPa) = 53.62373 55.84710 54.73541
# Shear Modulus (GPa) = 29.00315 15.42192 22.21253
#
# Velocity S-wave (km/s) = 3.84935 2.80694 3.36871
# Velocity P-wave (km/s) = 6.86677 6.24796 6.56466
#
# Compressibility (1/GPa) = 0.01864846
#
# Stress axis : x y z
#
# Youngs Moduli (GPa) = -549.83512 -549.97187 140.66167
#
# Poissons Ratio (x) = 5.87276 0.21735
# Poissons Ratio (y) = 5.87130 0.21732
# Poissons Ratio (z) = -0.84961 -0.84970
#
# Static dielectric constant tensor:
#      x y z
#    x 1.714160 0.000000 0.000000 
#    y 0.000000 1.714160 0.000000 
#    z 0.000000 0.000000 1.724080 
# 
# From -- ./inp_files/3855.got.cif
#   From: 2010.05.17/outbox.cif.g08.bks.cpg/sg128_2_cif.got.tgz:3855.got - 2010.05.20 12:07:25.
