data_PCOD9564676
_publ_section_title
;
Structure prediction by ZEFSAII (Michael W. Deem and Ramdas Pophale) SiO2 
 PCOD9564676
Probable space group: P 4/M N C
;
_chemical_formula_sum "Si O2"
_cell_formula_units_Z 104
_cell_length_a 18.206759
_cell_length_b 18.206759
_cell_length_c 18.007030
_cell_angle_alpha 90.000000
_cell_angle_beta 90.000000
_cell_angle_gamma 90.000000
_cell_volume 5969.079666
_symmetry_space_group_name_H-M "P 4/M N C"
_symmetry_group_IT_number 128
_symmetry_cell_setting 'tetragonal'
loop_
_space_group_symop_operation_xyz
x,y,z
-y,x,z
-x,-y,z
y,-x,z
1/2+x,1/2-y,1/2-z
1/2-x,1/2+y,1/2-z
1/2+y,1/2+x,1/2-z
1/2-y,1/2-x,1/2-z
-x,-y,-z
y,-x,-z
x,y,-z
-y,x,-z
1/2-x,1/2+y,1/2+z
1/2+x,1/2-y,1/2+z
1/2-y,1/2-x,1/2+z
1/2+y,1/2+x,1/2+z
loop_
_atom_site_type_symbol
_atom_site_label
_atom_site_fract_x
_atom_site_fract_y
_atom_site_fract_z
Si Si1 0.397373 0.568250 0.000000
Si Si2 0.074828 0.545472 0.331526
Si Si3 0.205676 0.011481 0.708087
Si Si4 0.658215 0.201619 0.913396
Si Si5 0.176271 0.514615 0.082678
Si Si6 0.918101 0.683399 0.806570
Si Si7 0.630430 0.360091 0.153629
O O1 0.401028 0.480714 0.000000
O O2 0.362245 0.598192 0.924757
O O3 0.082901 0.582901 0.250000
O O4 0.060163 0.604449 0.395241
O O5 0.137370 0.485383 0.340781
O O6 0.000000 0.500000 0.328097
O O7 0.266267 0.029590 0.646477
O O8 0.168879 0.091365 0.717850
O O9 0.249364 0.960214 0.766789
O O10 0.146572 0.955267 0.674172
O O11 0.574381 0.169275 0.914042
O O12 0.704464 0.140944 0.869090
O O13 0.656792 0.277218 0.865931
O O14 0.677654 0.214287 0.000000
O O15 0.201481 0.532520 0.000000
O O16 0.871371 0.628630 0.750000
#
# Coordination Sequence:
#
# PCOD9564676 Si02
#       7
#     8  16  16  16  16  16  16
#     4  11  20  30  50  82 114 147 177 227 283 343
#     4  11  16  29  49  70  98 136 177 225 285 330
#     4  11  23  36  52  78 111 154 198 240 290 354
#     4  10  20  33  54  80 109 148 190 234 286 346
#     4  10  20  30  46  77 108 136 180 233 283 340
#     4  12  19  35  55  77 109 150 193 238 288 353
#     4  11  21  33  54  80 113 147 190 235 286 346
#
# _framework density 17.423120999999998
#
# number of rings (size 3 to 8) (size 9 to 14) (size 15 to 20)
#    0.000    1.154   10.000    0.000    2.154    1.231 
#    0.000    3.077    0.000    0.000    0.000    1.077 
#    0.000    0.000    0.000    1.385    0.000    0.000 
#
# Total GULP energy -578949.932047 kJ/mol
# GULP energy per Si atom -5566.826270 kJ/mol
# Density = 1.738347 g / cm^3
# Si number density = 17.423121 Si / 1000 Ang^3
#
#
#
# Elastic Constant Matrix: (Units=GPa)
#
#
# Indices 1 2 3 4 5 6 
#
# 1 -1.6288 93.6787 26.7794 0.0000 0.0000 0.0000
# 2 93.6787 -1.6292 26.7797 0.0000 0.0000 0.0000
# 3 26.7794 26.7797 40.6740 0.0000 0.0000 0.0000
# 4 0.0000 0.0000 0.0000 25.9728 0.0000 0.0000
# 5 0.0000 0.0000 0.0000 0.0000 25.9728 0.0000
# 6 0.0000 0.0000 0.0000 0.0000 0.0000 24.2512
#
#
#
# Elastic Compliance Matrix: (Units=1/GPa)
#
#
# Indices 1 2 3 4 5 6 
#
# 1 0.003559 0.014051 -0.011594 0.000000 0.000000 0.000000
# 2 0.014051 0.003559 -0.011594 0.000000 0.000000 0.000000
# 3 -0.011594 -0.011594 0.039853 0.000000 0.000000 0.000000
# 4 0.000000 0.000000 0.000000 0.038502 0.000000 0.000000
# 5 0.000000 0.000000 0.000000 0.000000 0.038502 0.000000
# 6 0.000000 0.000000 0.000000 0.000000 0.000000 0.041235
#
#
# Mechanical properties :
#
#
# Convention : Reuss Voigt Hill
#
# Bulk Modulus (GPa) = 34.84850 36.87685 35.86268
# Shear Modulus (GPa) = 25.90020 7.91793 16.90906
#
# Velocity S-wave (km/s) = 3.85975 2.13409 3.11866
# Velocity P-wave (km/s) = 6.31730 5.22340 5.79621
#
# Compressibility (1/GPa) = 0.02869564
#
# Stress axis : x y z
#
# Youngs Moduli (GPa) = 280.99412 281.00540 25.09231
#
# Poissons Ratio (x) = -3.94842 0.29093
# Poissons Ratio (y) = -3.94826 0.29092
# Poissons Ratio (z) = 3.25792 3.25801
#
# Static dielectric constant tensor:
#      x y z
#    x 1.631930 0.000000 0.000000 
#    y 0.000000 1.631930 0.000000 
#    z 0.000000 0.000000 1.636600 
# 
# From -- ./inp_files/4866.got.cif
#   From: 2010.05.17/outbox.cif.g08.bks.cpg/sg128_3_cif.got.tgz:4866.got - 2010.05.20 12:07:25.
