data_PCOD9564455
_publ_section_title
;
Structure prediction by ZEFSAII (Michael W. Deem and Ramdas Pophale) SiO2 
 PCOD9564455
Probable space group: P 4/M B M
;
_chemical_formula_sum "Si O2"
_cell_formula_units_Z 72
_cell_length_a 11.228453
_cell_length_b 11.228453
_cell_length_c 28.777074
_cell_angle_alpha 90.000000
_cell_angle_beta 90.000000
_cell_angle_gamma 90.000000
_cell_volume 3628.160447
_symmetry_space_group_name_H-M "P 4/M B M"
_symmetry_group_IT_number 127
_symmetry_cell_setting 'tetragonal'
loop_
_space_group_symop_operation_xyz
x,y,z
-y,x,z
-x,-y,z
y,-x,z
1/2+x,1/2-y,-z
1/2-x,1/2+y,-z
1/2+y,1/2+x,-z
1/2-y,1/2-x,-z
-x,-y,-z
y,-x,-z
x,y,-z
-y,x,-z
1/2-x,1/2+y,z
1/2+x,1/2-y,z
1/2-y,1/2-x,z
1/2+y,1/2+x,z
loop_
_atom_site_type_symbol
_atom_site_label
_atom_site_fract_x
_atom_site_fract_y
_atom_site_fract_z
Si Si1 0.600441 0.899560 0.327795
Si Si2 0.200255 0.026093 0.500000
Si Si3 0.399655 0.100346 0.222135
Si Si4 0.471293 0.300926 0.398389
Si Si5 0.972640 0.199275 0.848371
Si Si6 0.798745 0.977197 0.049909
O O1 0.633265 0.866736 0.274954
O O2 0.549239 0.789411 0.356984
O O3 0.500000 0.000000 0.326130
O O4 0.259845 0.034607 0.550387
O O5 0.098367 0.127919 0.500000
O O6 0.451490 0.210194 0.192929
O O7 0.500000 0.000000 0.224047
O O8 0.596795 0.370138 0.395920
O O9 0.968414 0.260096 0.899604
O O10 0.097660 0.129206 0.845878
O O11 0.899438 0.873662 0.049802
O O12 0.734399 0.970707 0.000000
#
# Coordination Sequence:
#
# PCOD9564455 Si02
#       6
#     8   8   8  16  16  16
#     4  11  26  41  56  81 117 151 194 245 287 325
#     4   7  12  29  58  89 117 145 180 220 271 336
#     4  11  26  42  56  79 113 153 191 245 297 320
#     4   9  19  38  64  89 116 152 187 225 279 342
#     4   9  19  37  62  87 109 144 192 233 279 346
#     4   7  10  21  47  82 112 136 170 219 273 334
#
# _framework density 19.844766
#
# number of rings (size 3 to 8) (size 9 to 14) (size 15 to 20)
#    0.000    3.222    0.000    3.333    3.111    2.222 
#    0.000    3.889    0.000    1.333    0.000    0.000 
#    0.000    0.000    0.000    0.000    0.000    0.000 
#
# Total GULP energy -401164.365720 kJ/mol
# GULP energy per Si atom -5571.727302 kJ/mol
# Density = 1.979960 g / cm^3
# Si number density = 19.844766 Si / 1000 Ang^3
#
#
#
# Elastic Constant Matrix: (Units=GPa)
#
#
# Indices 1 2 3 4 5 6 
#
# 1 68.7372 -13.1314 48.2287 0.0000 0.0000 0.0000
# 2 -13.1314 68.7372 48.2287 0.0000 0.0000 0.0000
# 3 48.2287 48.2287 242.1251 0.0000 0.0000 0.0000
# 4 0.0000 0.0000 0.0000 4.8112 0.0000 0.0000
# 5 0.0000 0.0000 0.0000 0.0000 4.8112 0.0000
# 6 0.0000 0.0000 0.0000 0.0000 0.0000 9.2107
#
#
#
# Elastic Compliance Matrix: (Units=1/GPa)
#
#
# Indices 1 2 3 4 5 6 
#
# 1 0.019846 0.007632 -0.005473 0.000000 0.000000 0.000000
# 2 0.007632 0.019846 -0.005473 0.000000 0.000000 0.000000
# 3 -0.005473 -0.005473 0.006311 0.000000 0.000000 0.000000
# 4 0.000000 0.000000 0.000000 0.207850 0.000000 0.000000
# 5 0.000000 0.000000 0.000000 0.000000 0.207850 0.000000
# 6 0.000000 0.000000 0.000000 0.000000 0.000000 0.108569
#
#
# Mechanical properties :
#
#
# Convention : Reuss Voigt Hill
#
# Bulk Modulus (GPa) = 25.39777 60.69458 43.04618
# Shear Modulus (GPa) = 8.47419 23.51817 15.99618
#
# Velocity S-wave (km/s) = 2.06870 3.44627 2.84221
# Velocity P-wave (km/s) = 4.30488 6.81812 5.70170
#
# Compressibility (1/GPa) = 0.03937353
#
# Stress axis : x y z
#
# Youngs Moduli (GPa) = 50.38685 50.38685 158.46451
#
# Poissons Ratio (x) = -0.38454 0.86733
# Poissons Ratio (y) = -0.38454 0.86733
# Poissons Ratio (z) = 0.27579 0.27579
#
# Static dielectric constant tensor:
#      x y z
#    x 1.698720 0.000000 0.000000 
#    y 0.000000 1.698720 0.000000 
#    z 0.000000 0.000000 1.735470 
# 
# From -- ./inp_files/6324.got.cif
#   From: 2010.05.17/outbox.cif.g08.bks.cpg/sg127_4_cif.got.tgz:6324.got - 2010.05.20 12:03:00.
