data_PCOD9564837
_publ_section_title
;
Structure prediction by ZEFSAII (Michael W. Deem and Ramdas Pophale) SiO2 
 PCOD9564837
Probable space group: P 4/M N C
;
_chemical_formula_sum "Si O2"
_cell_formula_units_Z 96
_cell_length_a 13.684033
_cell_length_b 13.684033
_cell_length_c 22.200158
_cell_angle_alpha 90.000000
_cell_angle_beta 90.000000
_cell_angle_gamma 90.000000
_cell_volume 4157.040839
_symmetry_space_group_name_H-M "P 4/M N C"
_symmetry_group_IT_number 128
_symmetry_cell_setting 'tetragonal'
loop_
_space_group_symop_operation_xyz
x,y,z
-y,x,z
-x,-y,z
y,-x,z
1/2+x,1/2-y,1/2-z
1/2-x,1/2+y,1/2-z
1/2+y,1/2+x,1/2-z
1/2-y,1/2-x,1/2-z
-x,-y,-z
y,-x,-z
x,y,-z
-y,x,-z
1/2-x,1/2+y,1/2+z
1/2+x,1/2-y,1/2+z
1/2-y,1/2-x,1/2+z
1/2+y,1/2+x,1/2+z
loop_
_atom_site_type_symbol
_atom_site_label
_atom_site_fract_x
_atom_site_fract_y
_atom_site_fract_z
Si Si1 0.611881 0.385681 0.259211
Si Si2 0.764740 0.517383 0.570859
Si Si3 0.339473 0.379408 0.000000
Si Si4 0.318171 0.298620 0.626251
Si Si5 0.194985 0.885542 0.371235
Si Si6 0.531412 0.099535 0.883065
Si Si7 0.035157 0.682271 0.500000
O O1 0.633230 0.498369 0.273379
O O2 0.677011 0.319854 0.302723
O O3 0.623194 0.368304 0.188340
O O4 0.761082 0.499011 0.500000
O O5 0.751799 0.417551 0.606772
O O6 0.685942 0.598782 0.590671
O O7 0.864537 0.569073 0.590296
O O8 0.361503 0.417917 0.932013
O O9 0.387994 0.271536 0.000000
O O10 0.228054 0.423812 0.000000
O O11 0.222528 0.235231 0.612696
O O12 0.291648 0.951540 0.356492
O O13 0.460212 0.118654 0.939929
O O14 0.500000 0.000000 0.848481
#
# Coordination Sequence:
#
# PCOD9564837 Si02
#       7
#    16  16   8  16  16  16   8
#     4  11  24  45  66  89 121 171 225 267 325 391
#     4  11  23  38  64  99 129 166 208 268 329 398
#     4  10  24  39  64 100 135 172 222 277 336 390
#     4  11  23  42  65  91 132 167 214 268 326 404
#     4  10  25  41  65  96 132 171 219 274 329 396
#     4  10  22  39  62  96 133 173 216 261 332 401
#     4  10  21  39  58  92 141 176 213 269 327 404
#
# _framework density 23.093350000000001
#
# number of rings (size 3 to 8) (size 9 to 14) (size 15 to 20)
#    0.000    1.500    2.500    1.250   11.667    0.500 
#    0.000    0.833    0.000    4.000    0.000    0.000 
#    0.000    0.000    0.000    0.000    0.000    0.000 
#
# Total GULP energy -535645.220090 kJ/mol
# GULP energy per Si atom -5579.637709 kJ/mol
# Density = 2.304079 g / cm^3
# Si number density = 23.093350 Si / 1000 Ang^3
#
#
#
# Elastic Constant Matrix: (Units=GPa)
#
#
# Indices 1 2 3 4 5 6 
#
# 1 77.0513 34.0593 7.9022 0.0000 0.0000 0.0000
# 2 34.0593 77.0513 7.9022 0.0000 0.0000 0.0000
# 3 7.9022 7.9022 100.5807 0.0000 0.0000 0.0000
# 4 0.0000 0.0000 0.0000 29.2350 0.0000 0.0000
# 5 0.0000 0.0000 0.0000 0.0000 29.2350 0.0000
# 6 0.0000 0.0000 0.0000 0.0000 0.0000 44.8038
#
#
#
# Elastic Compliance Matrix: (Units=1/GPa)
#
#
# Indices 1 2 3 4 5 6 
#
# 1 0.016181 -0.007079 -0.000715 0.000000 0.000000 0.000000
# 2 -0.007079 0.016181 -0.000715 0.000000 0.000000 0.000000
# 3 -0.000715 -0.000715 0.010055 0.000000 0.000000 0.000000
# 4 0.000000 0.000000 0.000000 0.034206 0.000000 0.000000
# 5 0.000000 0.000000 0.000000 0.000000 0.034206 0.000000
# 6 0.000000 0.000000 0.000000 0.000000 0.000000 0.022320
#
#
# Mechanical properties :
#
#
# Convention : Reuss Voigt Hill
#
# Bulk Modulus (GPa) = 39.37351 39.37898 39.37624
# Shear Modulus (GPa) = 31.51952 34.30940 32.91446
#
# Velocity S-wave (km/s) = 3.69843 3.85864 3.77938
# Velocity P-wave (km/s) = 5.94345 6.07793 6.01106
#
# Compressibility (1/GPa) = 0.02539779
#
# Stress axis : x y z
#
# Youngs Moduli (GPa) = 61.80106 61.80106 99.45666
#
# Poissons Ratio (x) = 0.43750 0.07112
# Poissons Ratio (y) = 0.43750 0.07112
# Poissons Ratio (z) = 0.04419 0.04419
#
# Static dielectric constant tensor:
#      x y z
#    x 1.896410 0.000000 0.000000 
#    y 0.000000 1.896410 0.000000 
#    z 0.000000 0.000000 1.865800 
# 
# From -- ./inp_files/5794.got.cif
#   From: 2010.05.17/outbox.cif.g08.bks.cpg/sg128_3_cif.got.tgz:5794.got - 2010.05.20 12:07:25.
