data_PCOD9564550
_publ_section_title
;
Structure prediction by ZEFSAII (Michael W. Deem and Ramdas Pophale) SiO2 
 PCOD9564550
Probable space group: P 4/M N C
;
_chemical_formula_sum "Si O2"
_cell_formula_units_Z 96
_cell_length_a 24.681872
_cell_length_b 24.681872
_cell_length_c 8.411251
_cell_angle_alpha 90.000000
_cell_angle_beta 90.000000
_cell_angle_gamma 90.000000
_cell_volume 5124.090416
_symmetry_space_group_name_H-M "P 4/M N C"
_symmetry_group_IT_number 128
_symmetry_cell_setting 'tetragonal'
loop_
_space_group_symop_operation_xyz
x,y,z
-y,x,z
-x,-y,z
y,-x,z
1/2+x,1/2-y,1/2-z
1/2-x,1/2+y,1/2-z
1/2+y,1/2+x,1/2-z
1/2-y,1/2-x,1/2-z
-x,-y,-z
y,-x,-z
x,y,-z
-y,x,-z
1/2-x,1/2+y,1/2+z
1/2+x,1/2-y,1/2+z
1/2-y,1/2-x,1/2+z
1/2+y,1/2+x,1/2+z
loop_
_atom_site_type_symbol
_atom_site_label
_atom_site_fract_x
_atom_site_fract_y
_atom_site_fract_z
Si Si1 0.444545 0.726132 0.690421
Si Si2 0.553453 0.860231 0.190048
Si Si3 0.352900 0.643586 0.808327
Si Si4 0.930878 0.950236 0.306726
Si Si5 0.936349 0.648864 0.189901
Si Si6 0.564662 0.735728 0.192395
O O1 0.447118 0.723752 0.500000
O O2 0.392427 0.690780 0.744585
O O3 0.434266 0.788336 0.743151
O O4 0.505527 0.712061 0.753399
O O5 0.598113 0.901888 0.250000
O O6 0.493350 0.874587 0.249309
O O7 0.564784 0.798406 0.244766
O O8 0.553482 0.859916 0.000000
O O9 0.384792 0.589488 0.758755
O O10 0.293227 0.621695 0.759405
O O11 0.352593 0.650109 0.000000
O O12 0.931200 0.951382 0.500000
O O13 0.988437 0.927172 0.252671
O O14 0.886520 0.613481 0.250000
O O15 0.936532 0.648637 0.000000
O O16 0.563165 0.732662 0.000000
#
# Coordination Sequence:
#
# PCOD9564550 Si02
#       6
#    16  16  16  16  16  16
#     4  10  21  35  52  77 109 142 175 218 273 322
#     4  10  20  36  58  84 113 142 174 213 260 315
#     4  10  18  30  50  73  99 137 185 225 258 307
#     4   8  13  21  36  61  90 119 158 212 264 302
#     4  10  21  38  59  83 110 140 174 213 261 316
#     4   9  19  35  55  78 104 140 184 225 264 311
#
# _framework density 18.735033999999999
#
# number of rings (size 3 to 8) (size 9 to 14) (size 15 to 20)
#    0.000    2.500    0.000    3.000    0.000    6.333 
#    0.000    2.500    0.000    4.000    0.000    3.500 
#    0.000    0.000    0.000    0.000    0.000    0.000 
#
# Total GULP energy -534466.756160 kJ/mol
# GULP energy per Si atom -5567.362043 kJ/mol
# Density = 1.869239 g / cm^3
# Si number density = 18.735034 Si / 1000 Ang^3
#
#
#
# Elastic Constant Matrix: (Units=GPa)
#
#
# Indices 1 2 3 4 5 6 
#
# 1 54.4624 82.0971 17.3832 0.0000 0.0000 0.0000
# 2 82.0971 54.4665 17.3862 0.0000 0.0000 0.0000
# 3 17.3832 17.3862 23.4101 0.0000 0.0000 0.0000
# 4 0.0000 0.0000 0.0000 21.2171 0.0000 0.0000
# 5 0.0000 0.0000 0.0000 0.0000 21.2174 0.0000
# 6 0.0000 0.0000 0.0000 0.0000 0.0000 39.0968
#
#
#
# Elastic Compliance Matrix: (Units=1/GPa)
#
#
# Indices 1 2 3 4 5 6 
#
# 1 -0.013579 0.022610 -0.006708 0.000000 0.000000 0.000000
# 2 0.022610 -0.013580 -0.006703 0.000000 0.000000 0.000000
# 3 -0.006708 -0.006703 0.052676 0.000000 0.000000 0.000000
# 4 0.000000 0.000000 0.000000 0.047132 0.000000 0.000000
# 5 0.000000 0.000000 0.000000 0.000000 0.047131 0.000000
# 6 0.000000 0.000000 0.000000 0.000000 0.000000 0.025578
#
#
# Mechanical properties :
#
#
# Convention : Reuss Voigt Hill
#
# Bulk Modulus (GPa) = 22.77226 40.67467 31.72347
# Shear Modulus (GPa) = 35.31075 17.33776 26.32426
#
# Velocity S-wave (km/s) = 4.34607 3.04537 3.75251
# Velocity P-wave (km/s) = 6.11276 5.84152 5.97867
#
# Compressibility (1/GPa) = 0.04391307
#
# Stress axis : x y z
#
# Youngs Moduli (GPa) = -73.64095 -73.64009 18.98383
#
# Poissons Ratio (x) = 1.66497 0.12735
# Poissons Ratio (y) = 1.66499 0.12726
# Poissons Ratio (z) = -0.49400 -0.49364
#
# Static dielectric constant tensor:
#      x y z
#    x 1.671010 0.000000 0.000000 
#    y 0.000000 1.671010 0.000000 
#    z 0.000000 0.000000 1.655600 
# 
# From -- ./inp_files/1415.got.cif
#   From: 2010.05.17/outbox.cif.g08.bks.cpg/sg128_1_cif.got.tgz:1415.got - 2010.05.20 12:07:25.
