data_PCOD9564324
_publ_section_title
;
Structure prediction by ZEFSAII (Michael W. Deem and Ramdas Pophale) SiO2 
 PCOD9564324
Probable space group: P 4/M B M
;
_chemical_formula_sum "Si O2"
_cell_formula_units_Z 64
_cell_length_a 13.122705
_cell_length_b 13.122705
_cell_length_c 18.647998
_cell_angle_alpha 90.000000
_cell_angle_beta 90.000000
_cell_angle_gamma 90.000000
_cell_volume 3211.285703
_symmetry_space_group_name_H-M "P 4/M B M"
_symmetry_group_IT_number 127
_symmetry_cell_setting 'tetragonal'
loop_
_space_group_symop_operation_xyz
x,y,z
-y,x,z
-x,-y,z
y,-x,z
1/2+x,1/2-y,-z
1/2-x,1/2+y,-z
1/2+y,1/2+x,-z
1/2-y,1/2-x,-z
-x,-y,-z
y,-x,-z
x,y,-z
-y,x,-z
1/2-x,1/2+y,z
1/2+x,1/2-y,z
1/2-y,1/2-x,z
1/2+y,1/2+x,z
loop_
_atom_site_type_symbol
_atom_site_label
_atom_site_fract_x
_atom_site_fract_y
_atom_site_fract_z
Si Si1 0.270770 0.770770 0.915265
Si Si2 0.979652 0.828975 0.579871
Si Si3 0.081907 0.418094 0.823577
Si Si4 0.358459 0.593941 0.829686
Si Si5 0.450693 0.213086 0.711169
O O1 0.349787 0.849787 0.876979
O O2 0.295235 0.657382 0.887146
O O3 0.278867 0.778867 0.000000
O O4 0.973876 0.782893 0.500000
O O5 0.085944 0.891795 0.584922
O O6 0.981595 0.752736 0.645986
O O7 0.156387 0.482706 0.771815
O O8 0.000000 0.500000 0.855281
O O9 0.365767 0.472886 0.837210
O O10 0.306001 0.606287 0.752099
O O11 0.366852 0.133149 0.684704
#
# Coordination Sequence:
#
# PCOD9564324 Si02
#       5
#     8  16   8  16  16
#     4  12  26  45  68  96 131 164 211 272 326 391
#     4   9  19  36  58  89 127 167 211 261 322 381
#     4  10  24  45  65  94 125 168 224 261 325 400
#     4  11  23  41  66  95 125 166 216 262 321 379
#     4  11  21  38  66  90 127 170 217 270 311 390
#
# _framework density 19.929711999999999
#
# number of rings (size 3 to 8) (size 9 to 14) (size 15 to 20)
#    0.000    1.500    3.750    2.250    0.000    3.750 
#    0.000    1.875    0.000    2.250    0.000    0.000 
#    0.000    0.000    0.000    0.000    0.000    0.000 
#
# Total GULP energy -357250.940133 kJ/mol
# GULP energy per Si atom -5582.045940 kJ/mol
# Density = 1.988435 g / cm^3
# Si number density = 19.929712 Si / 1000 Ang^3
#
#
#
# Elastic Constant Matrix: (Units=GPa)
#
#
# Indices 1 2 3 4 5 6 
#
# 1 61.3116 10.4343 9.5788 0.0000 0.0000 0.0000
# 2 10.4343 61.3116 9.5788 0.0000 0.0000 0.0000
# 3 9.5788 9.5788 92.3911 0.0000 0.0000 0.0000
# 4 0.0000 0.0000 0.0000 21.5651 0.0000 0.0000
# 5 0.0000 0.0000 0.0000 0.0000 21.5651 0.0000
# 6 0.0000 0.0000 0.0000 0.0000 0.0000 15.2300
#
#
#
# Elastic Compliance Matrix: (Units=1/GPa)
#
#
# Indices 1 2 3 4 5 6 
#
# 1 0.016995 -0.002660 -0.001486 0.000000 0.000000 0.000000
# 2 -0.002660 0.016995 -0.001486 0.000000 0.000000 0.000000
# 3 -0.001486 -0.001486 0.011132 0.000000 0.000000 0.000000
# 4 0.000000 0.000000 0.000000 0.046371 0.000000 0.000000
# 5 0.000000 0.000000 0.000000 0.000000 0.046371 0.000000
# 6 0.000000 0.000000 0.000000 0.000000 0.000000 0.065660
#
#
# Mechanical properties :
#
#
# Convention : Reuss Voigt Hill
#
# Bulk Modulus (GPa) = 29.53617 30.46644 30.00130
# Shear Modulus (GPa) = 22.11660 24.03356 23.07508
#
# Velocity S-wave (km/s) = 3.33488 3.47640 3.40637
# Velocity P-wave (km/s) = 5.44801 5.60660 5.52787
#
# Compressibility (1/GPa) = 0.03385679
#
# Stress axis : x y z
#
# Youngs Moduli (GPa) = 58.84077 58.84077 89.83338
#
# Poissons Ratio (x) = 0.15652 0.13351
# Poissons Ratio (y) = 0.15652 0.13351
# Poissons Ratio (z) = 0.08745 0.08745
#
# Static dielectric constant tensor:
#      x y z
#    x 1.746620 0.000000 0.000000 
#    y 0.000000 1.746620 0.000000 
#    z 0.000000 0.000000 1.675910 
# 
# From -- ./inp_files/4895.got.cif
#   From: 2010.05.17/outbox.cif.g08.bks.cpg/sg127_3_cif.got.tgz:4895.got - 2010.05.20 12:03:00.
