data_PCOD9564621
_publ_section_title
;
Structure prediction by ZEFSAII (Michael W. Deem and Ramdas Pophale) SiO2 
 PCOD9564621
Probable space group: P 4/M N C
;
_chemical_formula_sum "Si O2"
_cell_formula_units_Z 120
_cell_length_a 30.365037
_cell_length_b 30.365037
_cell_length_c 8.580153
_cell_angle_alpha 90.000000
_cell_angle_beta 90.000000
_cell_angle_gamma 90.000000
_cell_volume 7911.205421
_symmetry_space_group_name_H-M "P 4/M N C"
_symmetry_group_IT_number 128
_symmetry_cell_setting 'tetragonal'
loop_
_space_group_symop_operation_xyz
x,y,z
-y,x,z
-x,-y,z
y,-x,z
1/2+x,1/2-y,1/2-z
1/2-x,1/2+y,1/2-z
1/2+y,1/2+x,1/2-z
1/2-y,1/2-x,1/2-z
-x,-y,-z
y,-x,-z
x,y,-z
-y,x,-z
1/2-x,1/2+y,1/2+z
1/2+x,1/2-y,1/2+z
1/2-y,1/2-x,1/2+z
1/2+y,1/2+x,1/2+z
loop_
_atom_site_type_symbol
_atom_site_label
_atom_site_fract_x
_atom_site_fract_y
_atom_site_fract_z
Si Si1 0.429051 0.480757 0.500000
Si Si2 0.265085 0.564849 0.190777
Si Si3 0.721237 0.712266 0.185921
Si Si4 0.497700 0.613524 0.174312
Si Si5 0.096713 0.861990 0.317354
Si Si6 0.216089 0.970514 0.322739
Si Si7 0.148941 0.715258 0.312328
Si Si8 0.809392 0.119760 0.816851
O O1 0.469896 0.448115 0.500000
O O2 0.404598 0.477036 0.333835
O O3 0.312520 0.584969 0.239320
O O4 0.260540 0.514327 0.243843
O O5 0.227892 0.599639 0.237324
O O6 0.266777 0.562972 0.000000
O O7 0.765578 0.734423 0.250000
O O8 0.681287 0.744655 0.237809
O O9 0.711517 0.663153 0.240660
O O10 0.722141 0.713232 0.000000
O O11 0.550857 0.611635 0.191215
O O12 0.485536 0.664978 0.168406
O O13 0.485883 0.595192 0.000000
O O14 0.108575 0.858658 0.500000
O O15 0.139260 0.881551 0.234537
O O16 0.231399 0.962761 0.500000
O O17 0.215334 0.924767 0.233003
O O18 0.170835 0.670835 0.250000
O O19 0.149553 0.714142 0.500000
O O20 0.807742 0.124573 0.000000
#
# Coordination Sequence:
#
# PCOD9564621 Si02
#       8
#     8  16  16  16  16  16  16  16
#     4  11  26  40  50  62  84 108 138 186 244 302
#     4   8  14  30  48  62  83 113 146 182 224 266
#     4  10  19  33  50  68  97 125 151 188 226 271
#     4   9  21  37  55  69  83 110 145 186 242 292
#     4   9  17  32  49  65  84 111 145 185 229 277
#     4   9  19  34  50  66  85 113 149 188 228 272
#     4   9  16  27  45  66  88 115 145 179 219 269
#     4  12  23  30  45  73  95 118 151 186 230 282
#
# _framework density 15.168358
#
# number of rings (size 3 to 8) (size 9 to 14) (size 15 to 20)
#    0.000    2.467    1.333    3.200    3.733    1.067 
#    0.000    1.333    0.000    0.000    0.000    0.000 
#    0.000    0.000    0.000    0.000    0.000    0.667 
#
# Total GULP energy -668965.051764 kJ/mol
# GULP energy per Si atom -5574.708765 kJ/mol
# Density = 1.513383 g / cm^3
# Si number density = 15.168358 Si / 1000 Ang^3
#
#
#
# Elastic Constant Matrix: (Units=GPa)
#
#
# Indices 1 2 3 4 5 6 
#
# 1 46.6500 21.8449 16.2002 0.0000 0.0000 0.0000
# 2 21.8449 46.6549 16.2004 0.0000 0.0000 0.0000
# 3 16.2002 16.2004 55.1471 0.0000 0.0000 0.0000
# 4 0.0000 0.0000 0.0000 13.8818 0.0000 0.0000
# 5 0.0000 0.0000 0.0000 0.0000 13.8812 0.0000
# 6 0.0000 0.0000 0.0000 0.0000 0.0000 224.7370
#
#
#
# Elastic Compliance Matrix: (Units=1/GPa)
#
#
# Indices 1 2 3 4 5 6 
#
# 1 0.028634 -0.011678 -0.004981 0.000000 0.000000 0.000000
# 2 -0.011678 0.028631 -0.004980 0.000000 0.000000 0.000000
# 3 -0.004981 -0.004980 0.021060 0.000000 0.000000 0.000000
# 4 0.000000 0.000000 0.000000 0.072037 0.000000 0.000000
# 5 0.000000 0.000000 0.000000 0.000000 0.072040 0.000000
# 6 0.000000 0.000000 0.000000 0.000000 0.000000 0.004450
#
#
# Mechanical properties :
#
#
# Convention : Reuss Voigt Hill
#
# Bulk Modulus (GPa) = 28.53336 28.54919 28.54128
# Shear Modulus (GPa) = 17.74231 56.78042 37.26136
#
# Velocity S-wave (km/s) = 3.42379 6.12493 4.96171
# Velocity P-wave (km/s) = 5.87211 8.29952 7.18901
#
# Compressibility (1/GPa) = 0.03504670
#
# Stress axis : x y z
#
# Youngs Moduli (GPa) = 34.92310 34.92707 47.48402
#
# Poissons Ratio (x) = 0.40786 0.23653
# Poissons Ratio (y) = 0.40782 0.23649
# Poissons Ratio (z) = 0.17396 0.17395
#
# Static dielectric constant tensor:
#      x y z
#    x 1.512490 0.000000 0.000000 
#    y 0.000000 1.512490 0.000000 
#    z 0.000000 0.000000 1.539350 
# 
# From -- ./inp_files/1811.got.cif
#   From: 2010.05.17/outbox.cif.g08.bks.cpg/sg128_1_cif.got.tgz:1811.got - 2010.05.20 12:07:25.
