data_PCOD9564127
_publ_section_title
;
Structure prediction by ZEFSAII (Michael W. Deem and Ramdas Pophale) SiO2 
 PCOD9564127
Probable space group: P 4/M B M
;
_chemical_formula_sum "Si O2"
_cell_formula_units_Z 96
_cell_length_a 14.327175
_cell_length_b 14.327175
_cell_length_c 23.290847
_cell_angle_alpha 90.000000
_cell_angle_beta 90.000000
_cell_angle_gamma 90.000000
_cell_volume 4780.864266
_symmetry_space_group_name_H-M "P 4/M B M"
_symmetry_group_IT_number 127
_symmetry_cell_setting 'tetragonal'
loop_
_space_group_symop_operation_xyz
x,y,z
-y,x,z
-x,-y,z
y,-x,z
1/2+x,1/2-y,-z
1/2-x,1/2+y,-z
1/2+y,1/2+x,-z
1/2-y,1/2-x,-z
-x,-y,-z
y,-x,-z
x,y,-z
-y,x,-z
1/2-x,1/2+y,z
1/2+x,1/2-y,z
1/2-y,1/2-x,z
1/2+y,1/2+x,z
loop_
_atom_site_type_symbol
_atom_site_label
_atom_site_fract_x
_atom_site_fract_y
_atom_site_fract_z
Si Si1 0.232944 0.516057 0.156643
Si Si2 0.683923 0.665545 0.120640
Si Si3 0.882731 0.227980 0.566079
Si Si4 0.494899 0.149969 0.722102
Si Si5 0.242080 0.414863 0.615329
Si Si6 0.421105 0.078896 0.933968
Si Si7 0.410897 0.629686 0.000000
O O1 0.321966 0.579800 0.143403
O O2 0.258928 0.408328 0.157006
O O3 0.192944 0.540262 0.218622
O O4 0.162690 0.537082 0.104112
O O5 0.735607 0.764394 0.122323
O O6 0.679715 0.626924 0.056351
O O7 0.870273 0.196772 0.500000
O O8 0.822606 0.322606 0.572953
O O9 0.832551 0.150660 0.606304
O O10 0.991409 0.246142 0.578054
O O11 0.409540 0.090461 0.694849
O O12 0.542940 0.221787 0.678547
O O13 0.574062 0.074062 0.737157
O O14 0.152678 0.347323 0.601298
O O15 0.500000 0.000000 0.937475
O O16 0.394949 0.105052 0.000000
O O17 0.374758 0.522910 0.000000
#
# Coordination Sequence:
#
# PCOD9564127 Si02
#       7
#    16  16  16  16  16   8   8
#     4  12  25  42  63  93 124 165 210 265 328 394
#     4  12  25  41  63  89 121 160 208 259 325 400
#     4  10  21  38  62  94 134 175 216 268 322 379
#     4  10  20  39  66  92 125 168 217 271 324 384
#     4  10  22  39  62  94 129 174 223 269 323 385
#     4  11  24  42  62  88 122 157 208 272 334 384
#     4  11  23  42  64  82 117 165 202 254 332 404
#
# _framework density 20.080051000000001
#
# number of rings (size 3 to 8) (size 9 to 14) (size 15 to 20)
#    0.000    1.167    3.333    2.750    2.333    4.000 
#    0.000    5.000    0.000    2.000    0.000    0.000 
#    0.000    0.000    0.000    0.000    0.000    0.000 
#
# Total GULP energy -536051.668780 kJ/mol
# GULP energy per Si atom -5583.871550 kJ/mol
# Density = 2.003435 g / cm^3
# Si number density = 20.080051 Si / 1000 Ang^3
#
#
#
# Elastic Constant Matrix: (Units=GPa)
#
#
# Indices 1 2 3 4 5 6 
#
# 1 80.4275 24.9273 23.8316 0.0000 0.0000 0.0000
# 2 24.9273 80.4275 23.8316 0.0000 0.0000 0.0000
# 3 23.8316 23.8316 83.8696 0.0000 0.0000 0.0000
# 4 0.0000 0.0000 0.0000 28.6519 0.0000 0.0000
# 5 0.0000 0.0000 0.0000 0.0000 28.6519 0.0000
# 6 0.0000 0.0000 0.0000 0.0000 0.0000 30.7144
#
#
#
# Elastic Compliance Matrix: (Units=1/GPa)
#
#
# Indices 1 2 3 4 5 6 
#
# 1 0.014455 -0.003563 -0.003095 0.000000 0.000000 0.000000
# 2 -0.003563 0.014455 -0.003095 0.000000 0.000000 0.000000
# 3 -0.003095 -0.003095 0.013682 0.000000 0.000000 0.000000
# 4 0.000000 0.000000 0.000000 0.034902 0.000000 0.000000
# 5 0.000000 0.000000 0.000000 0.000000 0.034902 0.000000
# 6 0.000000 0.000000 0.000000 0.000000 0.000000 0.032558
#
#
# Mechanical properties :
#
#
# Convention : Reuss Voigt Hill
#
# Bulk Modulus (GPa) = 43.31597 43.32286 43.31942
# Shear Modulus (GPa) = 29.04364 29.07923 29.06144
#
# Velocity S-wave (km/s) = 3.80727 3.80961 3.80844
# Velocity P-wave (km/s) = 6.39887 6.40099 6.39993
#
# Compressibility (1/GPa) = 0.02308617
#
# Stress axis : x y z
#
# Youngs Moduli (GPa) = 69.18049 69.18051 73.08802
#
# Poissons Ratio (x) = 0.24649 0.22620
# Poissons Ratio (y) = 0.24649 0.22620
# Poissons Ratio (z) = 0.21411 0.21411
#
# Static dielectric constant tensor:
#      x y z
#    x 1.700330 0.000000 0.000000 
#    y 0.000000 1.700330 0.000000 
#    z 0.000000 0.000000 1.708480 
# 
# From -- ./inp_files/5810.got.cif
#   From: 2010.05.17/outbox.cif.g08.bks.cpg/sg127_3_cif.got.tgz:5810.got - 2010.05.20 12:03:00.
