data_PCOD9564620
_publ_section_title
;
Structure prediction by ZEFSAII (Michael W. Deem and Ramdas Pophale) SiO2 
 PCOD9564620
Probable space group: P 4/M N C
;
_chemical_formula_sum "Si O2"
_cell_formula_units_Z 96
_cell_length_a 26.288986
_cell_length_b 26.288986
_cell_length_c 7.769449
_cell_angle_alpha 90.000000
_cell_angle_beta 90.000000
_cell_angle_gamma 90.000000
_cell_volume 5369.549997
_symmetry_space_group_name_H-M "P 4/M N C"
_symmetry_group_IT_number 128
_symmetry_cell_setting 'tetragonal'
loop_
_space_group_symop_operation_xyz
x,y,z
-y,x,z
-x,-y,z
y,-x,z
1/2+x,1/2-y,1/2-z
1/2-x,1/2+y,1/2-z
1/2+y,1/2+x,1/2-z
1/2-y,1/2-x,1/2-z
-x,-y,-z
y,-x,-z
x,y,-z
-y,x,-z
1/2-x,1/2+y,1/2+z
1/2+x,1/2-y,1/2+z
1/2-y,1/2-x,1/2+z
1/2+y,1/2+x,1/2+z
loop_
_atom_site_type_symbol
_atom_site_label
_atom_site_fract_x
_atom_site_fract_y
_atom_site_fract_z
Si Si1 0.054781 0.871341 0.796954
Si Si2 0.551567 0.363795 0.194232
Si Si3 0.241347 0.657481 0.707120
Si Si4 0.177924 0.237933 0.207672
Si Si5 0.065263 0.246784 0.194987
Si Si6 0.954588 0.247211 0.790291
O O1 0.099265 0.901127 0.706363
O O2 0.999243 0.892669 0.752315
O O3 0.051465 0.812357 0.747132
O O4 0.064043 0.874162 0.000000
O O5 0.558654 0.314357 0.310553
O O6 0.545066 0.345369 0.000000
O O7 0.195487 0.695487 0.750000
O O8 0.245995 0.654558 0.500000
O O9 0.293362 0.686075 0.768305
O O10 0.230998 0.599868 0.768501
O O11 0.216869 0.283132 0.250000
O O12 0.121512 0.251169 0.276267
O O13 0.173197 0.233354 0.000000
O O14 0.010726 0.265036 0.271200
O O15 0.068267 0.267373 0.000000
O O16 0.957000 0.251057 0.000000
#
# Coordination Sequence:
#
# PCOD9564620 Si02
#       6
#    16  16  16  16  16  16
#     4  10  19  33  48  59  75 108 147 178 214 265
#     4  11  21  31  43  63  85 104 134 183 230 261
#     4   9  16  27  42  63  88 114 141 175 213 255
#     4   9  17  28  44  65  90 117 149 182 218 263
#     4   9  17  31  48  64  83 115 150 177 211 266
#     4   8  15  28  47  64  80 106 145 181 207 246
#
# _framework density 17.878592000000001
#
# number of rings (size 3 to 8) (size 9 to 14) (size 15 to 20)
#    0.000    2.667    0.000    4.000    0.000    3.667 
#    0.000    9.167    0.000    0.000    0.000    0.000 
#    0.000    0.667    0.000    8.333    0.000    0.000 
#
# Total GULP energy -534450.841921 kJ/mol
# GULP energy per Si atom -5567.196270 kJ/mol
# Density = 1.783790 g / cm^3
# Si number density = 17.878592 Si / 1000 Ang^3
#
#
#
# Elastic Constant Matrix: (Units=GPa)
#
#
# Indices 1 2 3 4 5 6 
#
# 1 84.6113 21.8520 -4.6346 0.0000 0.0000 0.0000
# 2 21.8520 84.6141 -4.6330 0.0000 0.0000 0.0000
# 3 -4.6346 -4.6330 39.2994 0.0000 0.0000 0.0000
# 4 0.0000 0.0000 0.0000 13.1470 0.0000 0.0000
# 5 0.0000 0.0000 0.0000 0.0000 13.1467 0.0000
# 6 0.0000 0.0000 0.0000 0.0000 0.0000 20.5226
#
#
#
# Elastic Compliance Matrix: (Units=1/GPa)
#
#
# Indices 1 2 3 4 5 6 
#
# 1 0.012712 -0.003222 0.001119 0.000000 0.000000 0.000000
# 2 -0.003222 0.012712 0.001119 0.000000 0.000000 0.000000
# 3 0.001119 0.001119 0.025710 0.000000 0.000000 0.000000
# 4 0.000000 0.000000 0.000000 0.076063 0.000000 0.000000
# 5 0.000000 0.000000 0.000000 0.000000 0.076064 0.000000
# 6 0.000000 0.000000 0.000000 0.000000 0.000000 0.048727
#
#
# Mechanical properties :
#
#
# Convention : Reuss Voigt Hill
#
# Bulk Modulus (GPa) = 20.33928 25.96594 23.15261
# Shear Modulus (GPa) = 18.49499 22.42596 20.46048
#
# Velocity S-wave (km/s) = 3.21982 3.54552 3.38659
# Velocity P-wave (km/s) = 5.02235 5.59607 5.31695
#
# Compressibility (1/GPa) = 0.04916594
#
# Stress axis : x y z
#
# Youngs Moduli (GPa) = 78.66522 78.66813 38.89600
#
# Poissons Ratio (x) = 0.25344 -0.04354
# Poissons Ratio (y) = 0.25343 -0.04351
# Poissons Ratio (z) = -0.08805 -0.08800
#
# Static dielectric constant tensor:
#      x y z
#    x 1.646100 0.000000 0.000000 
#    y 0.000000 1.646100 0.000000 
#    z 0.000000 0.000000 1.665880 
# 
# From -- ./inp_files/1495.got.cif
#   From: 2010.05.17/outbox.cif.g08.bks.cpg/sg128_1_cif.got.tgz:1495.got - 2010.05.20 12:07:25.
