data_PCOD9564690
_publ_section_title
;
Structure prediction by ZEFSAII (Michael W. Deem and Ramdas Pophale) SiO2 
 PCOD9564690
Probable space group: P 4/M N C
;
_chemical_formula_sum "Si O2"
_cell_formula_units_Z 96
_cell_length_a 24.902671
_cell_length_b 24.902671
_cell_length_c 8.447408
_cell_angle_alpha 90.000000
_cell_angle_beta 90.000000
_cell_angle_gamma 90.000000
_cell_volume 5238.601133
_symmetry_space_group_name_H-M "P 4/M N C"
_symmetry_group_IT_number 128
_symmetry_cell_setting 'tetragonal'
loop_
_space_group_symop_operation_xyz
x,y,z
-y,x,z
-x,-y,z
y,-x,z
1/2+x,1/2-y,1/2-z
1/2-x,1/2+y,1/2-z
1/2+y,1/2+x,1/2-z
1/2-y,1/2-x,1/2-z
-x,-y,-z
y,-x,-z
x,y,-z
-y,x,-z
1/2-x,1/2+y,1/2+z
1/2+x,1/2-y,1/2+z
1/2-y,1/2-x,1/2+z
1/2+y,1/2+x,1/2+z
loop_
_atom_site_type_symbol
_atom_site_label
_atom_site_fract_x
_atom_site_fract_y
_atom_site_fract_z
Si Si1 0.562592 0.854803 0.809968
Si Si2 0.439491 0.562788 0.693013
Si Si3 0.151286 0.853229 0.808669
Si Si4 0.940612 0.640960 0.309268
Si Si5 0.646405 0.229016 0.189760
Si Si6 0.352422 0.230745 0.689583
O O1 0.591426 0.908575 0.750000
O O2 0.501365 0.851608 0.754878
O O3 0.598642 0.805968 0.747604
O O4 0.564077 0.854066 0.000000
O O5 0.426068 0.501361 0.740934
O O6 0.438915 0.563327 0.500000
O O7 0.396585 0.607217 0.747287
O O8 0.211803 0.864300 0.753974
O O9 0.140394 0.791945 0.756208
O O10 0.149981 0.853945 0.000000
O O11 0.913698 0.586303 0.250000
O O12 0.940517 0.640625 0.500000
O O13 0.901369 0.689101 0.257369
O O14 0.701411 0.201411 0.250000
O O15 0.648119 0.230381 0.000000
O O16 0.298303 0.201698 0.750000
O O17 0.350786 0.229953 0.500000
#
# Coordination Sequence:
#
# PCOD9564690 Si02
#       6
#    16  16  16  16  16  16
#     4  10  20  35  53  74 101 133 170 210 251 296
#     4   8  15  30  51  74 102 134 167 206 249 292
#     4  10  20  32  51  80 105 129 167 209 249 298
#     4   9  20  36  53  74 101 133 169 209 252 299
#     4  10  20  35  53  74 102 135 168 204 250 299
#     4  10  20  33  49  72 102 134 167 205 251 299
#
# _framework density 18.325503999999999
#
# number of rings (size 3 to 8) (size 9 to 14) (size 15 to 20)
#    0.000    2.500    0.000    3.500    0.000    6.333 
#    0.000    3.333    0.000    1.000    0.000    1.167 
#    0.000    0.000    0.000    0.000    0.000    0.000 
#
# Total GULP energy -535547.845430 kJ/mol
# GULP energy per Si atom -5578.623390 kJ/mol
# Density = 1.828379 g / cm^3
# Si number density = 18.325504 Si / 1000 Ang^3
#
#
#
# Elastic Constant Matrix: (Units=GPa)
#
#
# Indices 1 2 3 4 5 6 
#
# 1 144.6668 113.6233 18.5344 0.0000 0.0000 0.0000
# 2 113.6233 144.6647 18.5213 0.0000 0.0000 0.0000
# 3 18.5344 18.5213 13.8609 0.0000 0.0000 0.0000
# 4 0.0000 0.0000 0.0000 12.3445 0.0000 0.0000
# 5 0.0000 0.0000 0.0000 0.0000 12.3422 0.0000
# 6 0.0000 0.0000 0.0000 0.0000 0.0000 25.4433
#
#
#
# Elastic Compliance Matrix: (Units=1/GPa)
#
#
# Indices 1 2 3 4 5 6 
#
# 1 0.018505 -0.013712 -0.006422 0.000000 0.000000 0.000000
# 2 -0.013712 0.018500 -0.006384 0.000000 0.000000 0.000000
# 3 -0.006422 -0.006384 0.089264 0.000000 0.000000 0.000000
# 4 0.000000 0.000000 0.000000 0.081008 0.000000 0.000000
# 5 0.000000 0.000000 0.000000 0.000000 0.081023 0.000000
# 6 0.000000 0.000000 0.000000 0.000000 0.000000 0.039303
#
#
# Mechanical properties :
#
#
# Convention : Reuss Voigt Hill
#
# Bulk Modulus (GPa) = 13.65529 67.17228 40.41379
# Shear Modulus (GPa) = 12.34420 20.19356 16.26888
#
# Velocity S-wave (km/s) = 2.59821 3.32315 2.98278
# Velocity P-wave (km/s) = 4.05816 7.17350 5.82785
#
# Compressibility (1/GPa) = 0.07323170
#
# Stress axis : x y z
#
# Youngs Moduli (GPa) = 54.04038 54.05527 11.20274
#
# Poissons Ratio (x) = 0.74120 0.07194
# Poissons Ratio (y) = 0.74099 0.07152
# Poissons Ratio (z) = 0.34704 0.34511
#
# Static dielectric constant tensor:
#      x y z
#    x 1.622930 0.000000 0.000000 
#    y 0.000000 1.622940 0.000000 
#    z 0.000000 0.000000 1.626320 
# 
# From -- ./inp_files/1490.got.cif
#   From: 2010.05.17/outbox.cif.g08.bks.cpg/sg128_1_cif.got.tgz:1490.got - 2010.05.20 12:07:25.
