data_PCOD9564834
_publ_section_title
;
Structure prediction by ZEFSAII (Michael W. Deem and Ramdas Pophale) SiO2 
 PCOD9564834
Probable space group: P 4/M N C
;
_chemical_formula_sum "Si O2"
_cell_formula_units_Z 116
_cell_length_a 17.096467
_cell_length_b 17.096467
_cell_length_c 17.811743
_cell_angle_alpha 90.000000
_cell_angle_beta 90.000000
_cell_angle_gamma 90.000000
_cell_volume 5206.179825
_symmetry_space_group_name_H-M "P 4/M N C"
_symmetry_group_IT_number 128
_symmetry_cell_setting 'tetragonal'
loop_
_space_group_symop_operation_xyz
x,y,z
-y,x,z
-x,-y,z
y,-x,z
1/2+x,1/2-y,1/2-z
1/2-x,1/2+y,1/2-z
1/2+y,1/2+x,1/2-z
1/2-y,1/2-x,1/2-z
-x,-y,-z
y,-x,-z
x,y,-z
-y,x,-z
1/2-x,1/2+y,1/2+z
1/2+x,1/2-y,1/2+z
1/2-y,1/2-x,1/2+z
1/2+y,1/2+x,1/2+z
loop_
_atom_site_type_symbol
_atom_site_label
_atom_site_fract_x
_atom_site_fract_y
_atom_site_fract_z
Si Si1 0.525479 0.690829 0.234091
Si Si2 0.277686 0.170642 0.675613
Si Si3 0.584475 0.922886 0.839682
Si Si4 0.629907 0.524575 0.919874
Si Si5 0.000000 0.000000 0.100423
Si Si6 0.080147 0.407514 0.590417
Si Si7 0.096001 0.142213 0.160921
Si Si8 0.274741 0.800721 0.911102
O O1 0.586126 0.754260 0.205866
O O2 0.476236 0.671698 0.159498
O O3 0.464016 0.702894 0.300254
O O4 0.583113 0.625175 0.272228
O O5 0.276595 0.223406 0.750000
O O6 0.365171 0.157095 0.646452
O O7 0.223143 0.210900 0.615378
O O8 0.571344 0.928657 0.750000
O O9 0.505969 0.889250 0.878086
O O10 0.598544 0.007418 0.875236
O O11 0.560123 0.587234 0.919911
O O12 0.673797 0.532644 0.000000
O O13 0.916260 0.049352 0.106070
O O14 0.077293 0.412019 0.500000
O O15 0.147653 0.346936 0.612936
O O16 0.162239 0.195218 0.123505
O O17 0.269683 0.806095 0.000000
#
# Coordination Sequence:
#
# PCOD9564834 Si02
#       8
#    16  16  16  16   4  16  16  16
#     4  11  20  37  62  92 121 171 215 268 315 388
#     4  11  25  41  62  97 131 165 214 266 334 404
#     4  10  22  40  66 101 128 159 218 283 330 390
#     4   9  17  30  52  85 120 157 201 249 307 373
#     4   8  20  36  61  92 125 160 216 274 312 396
#     4  10  22  43  69  93 122 171 222 267 334 403
#     4  10  21  38  64  93 127 167 222 271 326 388
#     4  11  26  45  65  94 136 181 219 273 350 414
#
# _framework density 22.281213000000001
#
# number of rings (size 3 to 8) (size 9 to 14) (size 15 to 20)
#    0.000    1.793    2.759    2.069    3.862    3.862 
#    0.000    5.862    0.000    0.000    0.000    0.000 
#    0.000    0.000    0.000    0.000    0.000    0.000 
#
# Total GULP energy -646321.640442 kJ/mol
# GULP energy per Si atom -5571.738280 kJ/mol
# Density = 2.223050 g / cm^3
# Si number density = 22.281213 Si / 1000 Ang^3
#
#
#
# Elastic Constant Matrix: (Units=GPa)
#
#
# Indices 1 2 3 4 5 6 
#
# 1 47.2342 47.2167 24.7070 0.0000 0.0000 0.0000
# 2 47.2167 47.2341 24.7064 0.0000 0.0000 0.0000
# 3 24.7070 24.7064 67.5773 0.0000 0.0000 0.0000
# 4 0.0000 0.0000 0.0000 18.2514 0.0000 0.0000
# 5 0.0000 0.0000 0.0000 0.0000 18.2515 0.0000
# 6 0.0000 0.0000 0.0000 0.0000 0.0000 34.0247
#
#
#
# Elastic Compliance Matrix: (Units=1/GPa)
#
#
# Indices 1 2 3 4 5 6 
#
# 1 28.587267-28.574036 -0.005082 0.000000 0.000000 0.000000
# 2 -28.574036 28.586988 -0.004491 0.000000 0.000000 0.000000
# 3 -0.005082 -0.004491 0.018298 0.000000 0.000000 0.000000
# 4 0.000000 0.000000 0.000000 0.054790 0.000000 0.000000
# 5 0.000000 0.000000 0.000000 0.000000 0.054790 0.000000
# 6 0.000000 0.000000 0.000000 0.000000 0.000000 0.029390
#
#
# Mechanical properties :
#
#
# Convention : Reuss Voigt Hill
#
# Bulk Modulus (GPa) = 39.47043 39.47841 39.47442
# Shear Modulus (GPa) = 0.04367 18.46655 9.25511
#
# Velocity S-wave (km/s) = 0.14014 2.88200 2.04029
# Velocity P-wave (km/s) = 4.21655 5.36948 4.82756
#
# Compressibility (1/GPa) = 0.02533542
#
# Stress axis : x y z
#
# Youngs Moduli (GPa) = 0.03498 0.03498 54.65163
#
# Poissons Ratio (x) = 0.99955 0.27774
# Poissons Ratio (y) = 0.99954 0.24542
# Poissons Ratio (z) = 0.00018 0.00016
#
# Static dielectric constant tensor:
#      x y z
#    x 1.710270 0.000000 0.000000 
#    y 0.000000 1.710280 0.000000 
#    z 0.000000 0.000000 1.837210 
# 
# From -- ./inp_files/4970.got.cif
#   From: 2010.05.17/outbox.cif.g08.bks.cpg/sg128_3_cif.got.tgz:4970.got - 2010.05.20 12:07:25.
