data_PCOD9564861
_publ_section_title
;
Structure prediction by ZEFSAII (Michael W. Deem and Ramdas Pophale) SiO2 
 PCOD9564861
Probable space group: P 4/M N C
;
_chemical_formula_sum "Si O2"
_cell_formula_units_Z 72
_cell_length_a 13.741269
_cell_length_b 13.741269
_cell_length_c 18.075832
_cell_angle_alpha 90.000000
_cell_angle_beta 90.000000
_cell_angle_gamma 90.000000
_cell_volume 3413.123313
_symmetry_space_group_name_H-M "P 4/M N C"
_symmetry_group_IT_number 128
_symmetry_cell_setting 'tetragonal'
loop_
_space_group_symop_operation_xyz
x,y,z
-y,x,z
-x,-y,z
y,-x,z
1/2+x,1/2-y,1/2-z
1/2-x,1/2+y,1/2-z
1/2+y,1/2+x,1/2-z
1/2-y,1/2-x,1/2-z
-x,-y,-z
y,-x,-z
x,y,-z
-y,x,-z
1/2-x,1/2+y,1/2+z
1/2+x,1/2-y,1/2+z
1/2-y,1/2-x,1/2+z
1/2+y,1/2+x,1/2+z
loop_
_atom_site_type_symbol
_atom_site_label
_atom_site_fract_x
_atom_site_fract_y
_atom_site_fract_z
Si Si1 0.159858 0.031642 0.500000
Si Si2 0.363973 0.234088 0.125447
Si Si3 0.884172 0.488872 0.412047
Si Si4 0.334742 0.773831 0.665582
Si Si5 0.361866 0.586832 0.259363
O O1 0.224671 0.054584 0.429081
O O2 0.072003 0.109335 0.500000
O O3 0.358504 0.119568 0.114276
O O4 0.259997 0.287676 0.114271
O O5 0.389507 0.271334 0.206778
O O6 0.864724 0.498070 0.500000
O O7 0.824926 0.570590 0.367184
O O8 0.000000 0.500000 0.400507
O O9 0.313048 0.813048 0.750000
O O10 0.342063 0.655625 0.669794
O O11 0.374121 0.471874 0.247287
#
# Coordination Sequence:
#
# PCOD9564861 Si02
#       5
#     8  16  16  16  16
#     4  11  24  38  63  95 127 172 223 277 349 417
#     4  11  23  40  65  95 135 175 225 285 347 413
#     4  11  26  43  66 102 144 189 237 296 360 429
#     4  10  24  42  64  95 132 183 233 282 345 420
#     4  10  21  40  66  93 129 172 226 287 343 412
#
# _framework density 21.095047999999998
#
# number of rings (size 3 to 8) (size 9 to 14) (size 15 to 20)
#    0.000    1.444    1.111    2.667   10.889    2.222 
#    0.000    0.000    0.000    0.000    0.000    4.667 
#    0.000    0.000    0.000    0.000    0.000    0.000 
#
# Total GULP energy -401124.885401 kJ/mol
# GULP energy per Si atom -5571.178964 kJ/mol
# Density = 2.104703 g / cm^3
# Si number density = 21.095048 Si / 1000 Ang^3
#
#
#
# Elastic Constant Matrix: (Units=GPa)
#
#
# Indices 1 2 3 4 5 6 
#
# 1 93.3377 49.8096 35.9406 0.0000 0.0000 0.0000
# 2 49.8096 93.3377 35.9406 0.0000 0.0000 0.0000
# 3 35.9406 35.9406 56.9159 0.0000 0.0000 0.0000
# 4 0.0000 0.0000 0.0000 -13.5638 0.0000 0.0000
# 5 0.0000 0.0000 0.0000 0.0000 -13.5638 0.0000
# 6 0.0000 0.0000 0.0000 0.0000 0.0000 35.7635
#
#
#
# Elastic Compliance Matrix: (Units=1/GPa)
#
#
# Indices 1 2 3 4 5 6 
#
# 1 0.016602 -0.006372 -0.006460 0.000000 0.000000 0.000000
# 2 -0.006372 0.016602 -0.006460 0.000000 0.000000 0.000000
# 3 -0.006460 -0.006460 0.025728 0.000000 0.000000 0.000000
# 4 0.000000 0.000000 0.000000 -0.073726 0.000000 0.000000
# 5 0.000000 0.000000 0.000000 0.000000 -0.073726 0.000000
# 6 0.000000 0.000000 0.000000 0.000000 0.000000 0.027961
#
#
# Mechanical properties :
#
#
# Convention : Reuss Voigt Hill
#
# Bulk Modulus (GPa) = 49.14387 54.10812 51.62599
# Shear Modulus (GPa) = -329.07798 9.85390 -159.61204
#
# Velocity S-wave (km/s) = -12.50346 2.16364 -8.70790
# Velocity P-wave (km/s) = 13.60520 5.65218 8.75084
#
# Compressibility (1/GPa) = 0.02034842
#
# Stress axis : x y z
#
# Youngs Moduli (GPa) = 60.23530 60.23530 38.86840
#
# Poissons Ratio (x) = 0.38382 0.25107
# Poissons Ratio (y) = 0.38382 0.25107
# Poissons Ratio (z) = 0.38910 0.38910
#
# Static dielectric constant tensor:
#      x y z
#    x 1.832050 0.000000 0.000000 
#    y 0.000000 1.832050 0.000000 
#    z 0.000000 0.000000 1.767990 
# 
# From -- ./inp_files/4566.got.cif
#   From: 2010.05.17/outbox.cif.g08.bks.cpg/sg128_3_cif.got.tgz:4566.got - 2010.05.20 12:07:25.
