data_PCOD9564514
_publ_section_title
;
Structure prediction by ZEFSAII (Michael W. Deem and Ramdas Pophale) SiO2 
 PCOD9564514
Probable space group: P 4/M B M
;
_chemical_formula_sum "Si O2"
_cell_formula_units_Z 92
_cell_length_a 15.000000
_cell_length_b 15.000000
_cell_length_c 21.000000
_cell_angle_alpha 90.000000
_cell_angle_beta 90.000000
_cell_angle_gamma 90.000000
_cell_volume 4725.000000
_symmetry_space_group_name_H-M "P 4/M B M"
_symmetry_group_IT_number 127
_symmetry_cell_setting 'tetragonal'
loop_
_space_group_symop_operation_xyz
x,y,z
-y,x,z
-x,-y,z
y,-x,z
1/2+x,1/2-y,-z
1/2-x,1/2+y,-z
1/2+y,1/2+x,-z
1/2-y,1/2-x,-z
-x,-y,-z
y,-x,-z
x,y,-z
-y,x,-z
1/2-x,1/2+y,z
1/2+x,1/2-y,z
1/2-y,1/2-x,z
1/2+y,1/2+x,z
loop_
_atom_site_type_symbol
_atom_site_label
_atom_site_fract_x
_atom_site_fract_y
_atom_site_fract_z
Si Si1 0.475739 0.165647 0.215941
Si Si2 0.911386 0.723232 0.666317
Si Si3 0.055450 0.139824 0.000000
Si Si4 0.004807 0.148664 0.574180
Si Si5 0.500000 0.500000 0.266804
Si Si6 0.256403 0.391252 0.873917
Si Si7 0.374319 0.341968 0.244730
O O1 0.426660 0.073341 0.209147
O O2 0.538778 0.172725 0.277093
O O3 0.532798 0.192339 0.154500
O O4 0.403590 0.242563 0.229555
O O5 0.844151 0.655850 0.632385
O O6 0.981477 0.768488 0.619436
O O7 0.853937 0.799868 0.701474
O O8 0.079457 0.197054 0.061671
O O9 0.952027 0.111339 0.000000
O O10 0.172846 0.995004 0.500000
O O11 0.918438 0.087861 0.585866
O O12 0.462075 0.397380 0.263847
O O13 0.198738 0.301263 0.880082
O O14 0.332199 0.379417 0.820362
#
# Coordination Sequence:
#
# PCOD9564514 Si02
#       7
#    16  16   8  16   4  16  16
#     4  11  22  38  60  85 115 152 194 238 283 338
#     4  11  22  34  53  83 116 151 192 236 285 338
#     4  11  25  40  64  89 113 147 190 237 292 348
#     4   9  19  35  57  83 111 146 189 236 291 348
#     4  12  20  32  60  85 121 144 180 244 302 356
#     4  11  23  40  59  84 118 152 189 232 282 339
#     4  11  21  34  57  88 115 147 185 239 297 345
#
# _framework density 19.470898999999999
#
# number of rings (size 3 to 8) (size 9 to 14) (size 15 to 20)
#    0.000    1.304    3.478    6.000    0.000    1.739 
#    0.000    1.304    0.000    2.609    0.000    1.217 
#    0.000    0.000    0.000    0.000    0.000    0.000 
#
# Total GULP energy -513017.307254 kJ/mol
# GULP energy per Si atom -5576.275079 kJ/mol
# Density = 1.942658 g / cm^3
# Si number density = 19.470899 Si / 1000 Ang^3
#
#
#
# Elastic Constant Matrix: (Units=GPa)
#
#
# Indices 1 2 3 4 5 6 
#
# 1 1.8610 63.4778 17.3186 0.0000 0.0000 0.0000
# 2 63.4778 1.8610 17.3186 0.0000 0.0000 0.0000
# 3 17.3186 17.3186 91.8256 0.0000 0.0000 0.0000
# 4 0.0000 0.0000 0.0000 -40.2586 0.0000 0.0000
# 5 0.0000 0.0000 0.0000 0.0000 -40.2586 0.0000
# 6 0.0000 0.0000 0.0000 0.0000 0.0000 51.5267
#
#
#
# Elastic Compliance Matrix: (Units=1/GPa)
#
#
# Indices 1 2 3 4 5 6 
#
# 1 0.000388 0.016617 -0.003207 0.000000 0.000000 0.000000
# 2 0.016617 0.000388 -0.003207 0.000000 0.000000 0.000000
# 3 -0.003207 -0.003207 0.012100 0.000000 0.000000 0.000000
# 4 0.000000 0.000000 0.000000 -0.024839 0.000000 0.000000
# 5 0.000000 0.000000 0.000000 0.000000 -0.024839 0.000000
# 6 0.000000 0.000000 0.000000 0.000000 0.000000 0.019407
#
#
# Mechanical properties :
#
#
# Convention : Reuss Voigt Hill
#
# Bulk Modulus (GPa) = 30.04697 32.41975 31.23336
# Shear Modulus (GPa) = -187.21325 -5.96926 -96.59126
#
# Velocity S-wave (km/s) = -9.81626 -1.75282 -7.05094
# Velocity P-wave (km/s) = 10.63078 3.54824 7.08602
#
# Compressibility (1/GPa) = 0.03328123
#
# Stress axis : x y z
#
# Youngs Moduli (GPa) = 2578.26650 2578.26650 82.64472
#
# Poissons Ratio (x) = -42.84352 0.26506
# Poissons Ratio (y) = -42.84352 0.26506
# Poissons Ratio (z) = 8.26904 8.26904
#
# Static dielectric constant tensor:
#      x y z
#    x 1.706100 0.000000 0.000000 
#    y 0.000000 1.706100 0.000000 
#    z 0.000000 0.000000 1.676230 
# 
# From -- ./inp_files/5826.got.cif
#   From: 2010.05.17/outbox.ucp.g08.bks.cvg/sg127_3_cif.got.tgz:5826.got - 2010.06.11 11:37:05.
