data_PCOD9564813
_publ_section_title
;
Structure prediction by ZEFSAII (Michael W. Deem and Ramdas Pophale) SiO2 
 PCOD9564813
Probable space group: P 4/M N C
;
_chemical_formula_sum "Si O2"
_cell_formula_units_Z 96
_cell_length_a 14.615552
_cell_length_b 14.615552
_cell_length_c 20.352663
_cell_angle_alpha 90.000000
_cell_angle_beta 90.000000
_cell_angle_gamma 90.000000
_cell_volume 4347.621086
_symmetry_space_group_name_H-M "P 4/M N C"
_symmetry_group_IT_number 128
_symmetry_cell_setting 'tetragonal'
loop_
_space_group_symop_operation_xyz
x,y,z
-y,x,z
-x,-y,z
y,-x,z
1/2+x,1/2-y,1/2-z
1/2-x,1/2+y,1/2-z
1/2+y,1/2+x,1/2-z
1/2-y,1/2-x,1/2-z
-x,-y,-z
y,-x,-z
x,y,-z
-y,x,-z
1/2-x,1/2+y,1/2+z
1/2+x,1/2-y,1/2+z
1/2-y,1/2-x,1/2+z
1/2+y,1/2+x,1/2+z
loop_
_atom_site_type_symbol
_atom_site_label
_atom_site_fract_x
_atom_site_fract_y
_atom_site_fract_z
Si Si1 0.694089 0.051662 0.000000
Si Si2 0.915651 0.119606 0.711459
Si Si3 0.675611 0.391053 0.358136
Si Si4 0.302426 0.759548 0.824722
Si Si5 0.389939 0.934455 0.621949
Si Si6 0.390825 0.340154 0.500000
Si Si7 0.434034 0.119348 0.322291
O O1 0.624239 0.071671 0.939412
O O2 0.783016 0.122124 0.000000
O O3 0.740031 0.948259 0.000000
O O4 0.909160 0.123577 0.790742
O O5 0.849855 0.196394 0.681634
O O6 0.020531 0.122901 0.692383
O O7 0.696656 0.282863 0.361753
O O8 0.631114 0.420525 0.426524
O O9 0.776920 0.430281 0.346442
O O10 0.294421 0.794421 0.750000
O O11 0.393246 0.793061 0.859922
O O12 0.459495 0.906024 0.679871
O O13 0.393343 0.044419 0.626176
O O14 0.390855 0.109146 0.250000
#
# Coordination Sequence:
#
# PCOD9564813 Si02
#       7
#     8  16  16  16  16   8  16
#     4  12  26  47  65  90 131 182 229 275 324 398
#     4  10  24  41  62  93 130 168 213 267 328 387
#     4  11  24  40  63  92 125 173 216 267 327 390
#     4  10  21  37  61  87 122 163 207 270 325 376
#     4  11  23  39  64  93 130 166 216 266 334 398
#     4  12  26  44  64  85 132 175 228 269 319 397
#     4  11  23  39  65 101 128 164 211 274 346 409
#
# _framework density 22.081043000000001
#
# number of rings (size 3 to 8) (size 9 to 14) (size 15 to 20)
#    0.000    1.167    3.333    3.500   11.667    2.167 
#    0.000    0.000    0.000    0.000    0.000    0.000 
#    0.000    2.667    0.000    0.000    0.000    0.000 
#
# Total GULP energy -534660.960063 kJ/mol
# GULP energy per Si atom -5569.385001 kJ/mol
# Density = 2.203079 g / cm^3
# Si number density = 22.081043 Si / 1000 Ang^3
#
#
#
# Elastic Constant Matrix: (Units=GPa)
#
#
# Indices 1 2 3 4 5 6 
#
# 1 73.2878 47.8662 19.8099 0.0000 0.0000 0.0000
# 2 47.8662 73.2869 19.8089 0.0000 0.0000 0.0000
# 3 19.8099 19.8089 77.3047 0.0000 0.0000 0.0000
# 4 0.0000 0.0000 0.0000 20.3693 0.0000 0.0000
# 5 0.0000 0.0000 0.0000 0.0000 20.3693 0.0000
# 6 0.0000 0.0000 0.0000 0.0000 0.0000 27.7826
#
#
#
# Elastic Compliance Matrix: (Units=1/GPa)
#
#
# Indices 1 2 3 4 5 6 
#
# 1 0.024173 -0.015164 -0.002309 0.000000 0.000000 0.000000
# 2 -0.015164 0.024173 -0.002308 0.000000 0.000000 0.000000
# 3 -0.002309 -0.002308 0.014119 0.000000 0.000000 0.000000
# 4 0.000000 0.000000 0.000000 0.049093 0.000000 0.000000
# 5 0.000000 0.000000 0.000000 0.000000 0.049093 0.000000
# 6 0.000000 0.000000 0.000000 0.000000 0.000000 0.035994
#
#
# Mechanical properties :
#
#
# Convention : Reuss Voigt Hill
#
# Bulk Modulus (GPa) = 43.66314 44.31660 43.98987
# Shear Modulus (GPa) = 20.50503 22.79721 21.65112
#
# Velocity S-wave (km/s) = 3.05064 3.21664 3.13474
# Velocity P-wave (km/s) = 5.67675 5.82316 5.75042
#
# Compressibility (1/GPa) = 0.02290261
#
# Stress axis : x y z
#
# Youngs Moduli (GPa) = 41.36834 41.36811 70.82678
#
# Poissons Ratio (x) = 0.62732 0.16352
# Poissons Ratio (y) = 0.62732 0.16349
# Poissons Ratio (z) = 0.09551 0.09549
#
# Static dielectric constant tensor:
#      x y z
#    x 1.885650 0.000000 0.000000 
#    y 0.000000 1.885650 0.000000 
#    z 0.000000 0.000000 1.794350 
# 
# From -- ./inp_files/5807.got.cif
#   From: 2010.05.17/outbox.cif.g08.bks.cpg/sg128_3_cif.got.tgz:5807.got - 2010.05.20 12:07:25.
