data_PCOD9564383
_publ_section_title
;
Structure prediction by ZEFSAII (Michael W. Deem and Ramdas Pophale) SiO2 
 PCOD9564383
Probable space group: P 4/M B M
;
_chemical_formula_sum "Si O2"
_cell_formula_units_Z 120
_cell_length_a 14.318378
_cell_length_b 14.318378
_cell_length_c 34.225193
_cell_angle_alpha 90.000000
_cell_angle_beta 90.000000
_cell_angle_gamma 90.000000
_cell_volume 7016.710407
_symmetry_space_group_name_H-M "P 4/M B M"
_symmetry_group_IT_number 127
_symmetry_cell_setting 'tetragonal'
loop_
_space_group_symop_operation_xyz
x,y,z
-y,x,z
-x,-y,z
y,-x,z
1/2+x,1/2-y,-z
1/2-x,1/2+y,-z
1/2+y,1/2+x,-z
1/2-y,1/2-x,-z
-x,-y,-z
y,-x,-z
x,y,-z
-y,x,-z
1/2-x,1/2+y,z
1/2+x,1/2-y,z
1/2-y,1/2-x,z
1/2+y,1/2+x,z
loop_
_atom_site_type_symbol
_atom_site_label
_atom_site_fract_x
_atom_site_fract_y
_atom_site_fract_z
Si Si1 0.571322 0.928679 0.453317
Si Si2 0.605711 0.261425 0.248327
Si Si3 0.277858 0.508854 0.454431
Si Si4 0.050381 0.849671 0.041980
Si Si5 0.549881 0.650963 0.128039
Si Si6 0.595893 0.747779 0.792437
Si Si7 0.425749 0.639616 0.330305
Si Si8 0.680974 0.664649 0.589105
O O1 0.564078 0.935923 0.500000
O O2 0.546090 0.824194 0.445024
O O3 0.500000 0.000000 0.434227
O O4 0.667471 0.167471 0.246512
O O5 0.502258 0.247890 0.230645
O O6 0.663380 0.340729 0.224714
O O7 0.599080 0.300000 0.292386
O O8 0.301881 0.524852 0.500000
O O9 0.275848 0.400690 0.444312
O O10 0.336653 0.572638 0.424860
O O11 0.064719 0.806169 0.084665
O O12 0.943746 0.887055 0.041865
O O13 0.066827 0.800999 0.000000
O O14 0.443042 0.613324 0.131196
O O15 0.573456 0.720581 0.162886
O O16 0.658825 0.841176 0.789201
O O17 0.378130 0.536999 0.329515
O O18 0.386928 0.687676 0.369458
O O19 0.737937 0.762064 0.590345
#
# Coordination Sequence:
#
# PCOD9564383 Si02
#       8
#     8  16  16  16  16  16  16  16
#     4   9  18  36  58  82 112 147 191 231 265 316
#     4  11  23  40  62  86 113 146 183 227 283 342
#     4  11  23  38  60  88 117 152 191 230 275 323
#     4   7  10  17  32  60  97 137 181 229 284 340
#     4   9  15  25  46  73 105 144 187 237 289 340
#     4  11  22  35  56  85 115 147 185 234 289 342
#     4  11  22  40  65  88 112 147 187 230 276 327
#     4  12  24  41  62  86 121 156 189 231 279 327
#
# _framework density 17.102032000000001
#
# number of rings (size 3 to 8) (size 9 to 14) (size 15 to 20)
#    0.000    1.800    4.667    2.400    0.000    2.133 
#    0.000    0.667    1.467    0.400    0.000    0.000 
#    0.000    0.533    0.000    1.200    0.000    0.000 
#
# Total GULP energy -668100.783045 kJ/mol
# GULP energy per Si atom -5567.506525 kJ/mol
# Density = 1.706311 g / cm^3
# Si number density = 17.102032 Si / 1000 Ang^3
#
#
#
# Elastic Constant Matrix: (Units=GPa)
#
#
# Indices 1 2 3 4 5 6 
#
# 1 62.6821 32.5792 37.4330 0.0000 0.0000 0.0000
# 2 32.5792 62.6822 37.4326 0.0000 0.0000 0.0000
# 3 37.4330 37.4326 144.4353 0.0000 0.0000 0.0000
# 4 0.0000 0.0000 0.0000 14.1596 0.0000 0.0000
# 5 0.0000 0.0000 0.0000 0.0000 14.1596 0.0000
# 6 0.0000 0.0000 0.0000 0.0000 0.0000 17.6231
#
#
#
# Elastic Compliance Matrix: (Units=1/GPa)
#
#
# Indices 1 2 3 4 5 6 
#
# 1 0.023201 -0.010018 -0.003416 0.000000 0.000000 0.000000
# 2 -0.010018 0.023201 -0.003416 0.000000 0.000000 0.000000
# 3 -0.003416 -0.003416 0.008694 0.000000 0.000000 0.000000
# 4 0.000000 0.000000 0.000000 0.070623 0.000000 0.000000
# 5 0.000000 0.000000 0.000000 0.000000 0.070623 0.000000
# 6 0.000000 0.000000 0.000000 0.000000 0.000000 0.056744
#
#
# Mechanical properties :
#
#
# Convention : Reuss Voigt Hill
#
# Bulk Modulus (GPa) = 46.74331 53.85434 50.29883
# Shear Modulus (GPa) = 17.01140 20.01212 18.51176
#
# Velocity S-wave (km/s) = 3.15731 3.42447 3.29360
# Velocity P-wave (km/s) = 6.37831 6.86982 6.62862
#
# Compressibility (1/GPa) = 0.02139343
#
# Stress axis : x y z
#
# Youngs Moduli (GPa) = 43.10168 43.10193 115.01700
#
# Poissons Ratio (x) = 0.43182 0.39296
# Poissons Ratio (y) = 0.43181 0.39294
# Poissons Ratio (z) = 0.14726 0.14725
#
# Static dielectric constant tensor:
#      x y z
#    x 1.629740 0.000000 0.000000 
#    y 0.000000 1.629770 0.000000 
#    z 0.000000 0.000000 1.605110 
# 
# From -- ./inp_files/6684.got.cif
#   From: 2010.05.17/outbox.cif.g08.bks.cpg/sg127_4_cif.got.tgz:6684.got - 2010.05.20 12:03:00.
