data_PCOD9564495
_publ_section_title
;
Structure prediction by ZEFSAII (Michael W. Deem and Ramdas Pophale) SiO2 
 PCOD9564495
Probable space group: P 4/M B M
;
_chemical_formula_sum "Si O2"
_cell_formula_units_Z 112
_cell_length_a 15.000000
_cell_length_b 15.000000
_cell_length_c 24.000000
_cell_angle_alpha 90.000000
_cell_angle_beta 90.000000
_cell_angle_gamma 90.000000
_cell_volume 5400.000000
_symmetry_space_group_name_H-M "P 4/M B M"
_symmetry_group_IT_number 127
_symmetry_cell_setting 'tetragonal'
loop_
_space_group_symop_operation_xyz
x,y,z
-y,x,z
-x,-y,z
y,-x,z
1/2+x,1/2-y,-z
1/2-x,1/2+y,-z
1/2+y,1/2+x,-z
1/2-y,1/2-x,-z
-x,-y,-z
y,-x,-z
x,y,-z
-y,x,-z
1/2-x,1/2+y,z
1/2+x,1/2-y,z
1/2-y,1/2-x,z
1/2+y,1/2+x,z
loop_
_atom_site_type_symbol
_atom_site_label
_atom_site_fract_x
_atom_site_fract_y
_atom_site_fract_z
Si Si1 0.267467 0.091870 0.652318
Si Si2 0.379792 0.586055 0.849074
Si Si3 0.149616 0.009534 0.563937
Si Si4 0.722613 0.626495 0.938019
Si Si5 0.478824 0.832496 0.244730
Si Si6 0.645316 0.992372 0.883127
Si Si7 0.183905 0.827319 0.256729
O O1 0.335533 0.164468 0.627798
O O2 0.228060 0.024117 0.607750
O O3 0.185956 0.144095 0.682246
O O4 0.315748 0.044577 0.704390
O O5 0.382499 0.481677 0.854695
O O6 0.337165 0.646921 0.896459
O O7 0.344627 0.608935 0.788298
O O8 0.181480 0.011324 0.500000
O O9 0.079574 0.091164 0.571034
O O10 0.798912 0.701089 0.939546
O O11 0.774335 0.537469 0.916828
O O12 0.686648 0.611325 0.000000
O O13 0.424729 0.924729 0.250434
O O14 0.517775 0.830306 0.182248
O O15 0.406020 0.754286 0.250155
O O16 0.568291 0.068291 0.884027
O O17 0.598118 0.901883 0.903647
O O18 0.237250 0.737250 0.243275
#
# Coordination Sequence:
#
# PCOD9564495 Si02
#       7
#    16  16  16  16  16  16  16
#     4  11  22  33  54  90 121 150 187 232 282 332
#     4  11  23  38  57  80 107 142 181 224 279 340
#     4   9  19  38  62  84 111 153 199 239 279 325
#     4  10  21  39  61  81 105 140 183 233 284 335
#     4  10  19  34  54  78 115 156 188 223 280 347
#     4   9  17  31  53  79 107 142 179 218 272 335
#     4  10  20  35  56  82 114 147 184 232 279 325
#
# _framework density 20.740741
#
# number of rings (size 3 to 8) (size 9 to 14) (size 15 to 20)
#    0.000    2.000    1.429    3.000    0.000    2.000 
#    0.000    4.286    0.000    1.286    0.000    1.000 
#    0.000    0.000    0.000    0.000    0.000    0.000 
#
# Total GULP energy -625139.025605 kJ/mol
# GULP energy per Si atom -5581.598443 kJ/mol
# Density = 2.069353 g / cm^3
# Si number density = 20.740741 Si / 1000 Ang^3
#
#
#
# Elastic Constant Matrix: (Units=GPa)
#
#
# Indices 1 2 3 4 5 6 
#
# 1 36.2542 2.8333 0.4835 0.0000 0.0000 0.0000
# 2 2.8333 36.2542 0.4835 0.0000 0.0000 0.0000
# 3 0.4835 0.4835 49.5351 0.0000 0.0000 0.0000
# 4 0.0000 0.0000 0.0000 438.7189 0.0000 0.0000
# 5 0.0000 0.0000 0.0000 0.0000 438.7189 0.0000
# 6 0.0000 0.0000 0.0000 0.0000 0.0000 25.0672
#
#
#
# Elastic Compliance Matrix: (Units=1/GPa)
#
#
# Indices 1 2 3 4 5 6 
#
# 1 0.027756 -0.002166 -0.000250 0.000000 0.000000 0.000000
# 2 -0.002166 0.027756 -0.000250 0.000000 0.000000 0.000000
# 3 -0.000250 -0.000250 0.020193 0.000000 0.000000 0.000000
# 4 0.000000 0.000000 0.000000 0.002279 0.000000 0.000000
# 5 0.000000 0.000000 0.000000 0.000000 0.002279 0.000000
# 6 0.000000 0.000000 0.000000 0.000000 0.000000 0.039893
#
#
# Mechanical properties :
#
#
# Convention : Reuss Voigt Hill
#
# Bulk Modulus (GPa) = 14.20996 14.40488 14.30742
# Shear Modulus (GPa) = 33.56969 188.38387 110.97678
#
# Velocity S-wave (km/s) = 4.02747 9.54071 7.32276
# Velocity P-wave (km/s) = 5.33793 11.32816 8.85496
#
# Compressibility (1/GPa) = 0.07037316
#
# Stress axis : x y z
#
# Youngs Moduli (GPa) = 36.02871 36.02871 49.52310
#
# Poissons Ratio (x) = 0.07803 0.01237
# Poissons Ratio (y) = 0.07803 0.01237
# Poissons Ratio (z) = 0.00900 0.00900
#
# Static dielectric constant tensor:
#      x y z
#    x 1.770650 0.000000 0.000000 
#    y 0.000000 1.770650 0.000000 
#    z 0.000000 0.000000 1.730260 
# 
# From -- ./inp_files/6186.got.cif
#   From: 2010.05.17/outbox.ucp.g08.bks.cvg/sg127_4_cif.got.tgz:6186.got - 2010.06.11 11:37:05.
