data_PCOD9564275
_publ_section_title
;
Structure prediction by ZEFSAII (Michael W. Deem and Ramdas Pophale) SiO2 
 PCOD9564275
Probable space group: P 4/M B M
;
_chemical_formula_sum "Si O2"
_cell_formula_units_Z 80
_cell_length_a 13.827111
_cell_length_b 13.827111
_cell_length_c 23.253686
_cell_angle_alpha 90.000000
_cell_angle_beta 90.000000
_cell_angle_gamma 90.000000
_cell_volume 4445.848940
_symmetry_space_group_name_H-M "P 4/M B M"
_symmetry_group_IT_number 127
_symmetry_cell_setting 'tetragonal'
loop_
_space_group_symop_operation_xyz
x,y,z
-y,x,z
-x,-y,z
y,-x,z
1/2+x,1/2-y,-z
1/2-x,1/2+y,-z
1/2+y,1/2+x,-z
1/2-y,1/2-x,-z
-x,-y,-z
y,-x,-z
x,y,-z
-y,x,-z
1/2-x,1/2+y,z
1/2+x,1/2-y,z
1/2-y,1/2-x,z
1/2+y,1/2+x,z
loop_
_atom_site_type_symbol
_atom_site_label
_atom_site_fract_x
_atom_site_fract_y
_atom_site_fract_z
Si Si1 0.601315 0.371390 0.436538
Si Si2 0.743292 0.915491 0.732610
Si Si3 0.658914 0.515881 0.931166
Si Si4 0.726884 0.617723 0.318136
Si Si5 0.499511 0.160190 0.850465
O O1 0.629835 0.484281 0.433475
O O2 0.630120 0.334753 0.500000
O O3 0.639312 0.314924 0.381375
O O4 0.654981 0.845019 0.715609
O O5 0.838157 0.848580 0.728064
O O6 0.759069 0.004960 0.690732
O O7 0.715776 0.960651 0.794043
O O8 0.584042 0.602404 0.916968
O O9 0.759215 0.522232 0.897799
O O10 0.673341 0.517522 0.000000
O O11 0.826789 0.673212 0.309981
O O12 0.592598 0.092598 0.837754
O O13 0.413796 0.086205 0.868507
#
# Coordination Sequence:
#
# PCOD9564275 Si02
#       5
#    16  16  16  16  16
#     4   9  17  32  54  79 109 142 180 234 289 330
#     4  10  23  39  55  84 117 145 185 233 279 336
#     4   9  20  39  60  85 117 150 189 236 282 328
#     4  11  21  35  59  83 109 151 191 227 278 338
#     4  10  22  39  58  82 115 152 188 231 284 337
#
# _framework density 17.994312999999998
#
# number of rings (size 3 to 8) (size 9 to 14) (size 15 to 20)
#    0.000    2.200    2.000    1.800    2.800    3.600 
#    0.000    3.000    0.000    0.600    0.000    1.400 
#    0.000    0.000    0.000    0.000    0.000    0.000 
#
# Total GULP energy -446113.269020 kJ/mol
# GULP energy per Si atom -5576.415863 kJ/mol
# Density = 1.795336 g / cm^3
# Si number density = 17.994313 Si / 1000 Ang^3
#
#
#
# Elastic Constant Matrix: (Units=GPa)
#
#
# Indices 1 2 3 4 5 6 
#
# 1 76.0713 18.9263 29.0771 0.0000 0.0000 0.0000
# 2 18.9263 76.0713 29.0771 0.0000 0.0000 0.0000
# 3 29.0771 29.0771 55.1852 0.0000 0.0000 0.0000
# 4 0.0000 0.0000 0.0000 18.5144 0.0000 0.0000
# 5 0.0000 0.0000 0.0000 0.0000 18.5144 0.0000
# 6 0.0000 0.0000 0.0000 0.0000 0.0000 8.7625
#
#
#
# Elastic Compliance Matrix: (Units=1/GPa)
#
#
# Indices 1 2 3 4 5 6 
#
# 1 0.016519 -0.000980 -0.008187 0.000000 0.000000 0.000000
# 2 -0.000980 0.016519 -0.008187 0.000000 0.000000 0.000000
# 3 -0.008187 -0.008187 0.026749 0.000000 0.000000 0.000000
# 4 0.000000 0.000000 0.000000 0.054012 0.000000 0.000000
# 5 0.000000 0.000000 0.000000 0.000000 0.054012 0.000000
# 6 0.000000 0.000000 0.000000 0.000000 0.000000 0.114123
#
#
# Mechanical properties :
#
#
# Convention : Reuss Voigt Hill
#
# Bulk Modulus (GPa) = 39.87788 40.16545 40.02166
# Shear Modulus (GPa) = 15.38450 17.84140 16.61295
#
# Velocity S-wave (km/s) = 2.92715 3.15223 3.04177
# Velocity P-wave (km/s) = 5.79946 5.96811 5.88439
#
# Compressibility (1/GPa) = 0.02507656
#
# Stress axis : x y z
#
# Youngs Moduli (GPa) = 60.53654 60.53654 37.38514
#
# Poissons Ratio (x) = 0.05935 0.30608
# Poissons Ratio (y) = 0.05935 0.30608
# Poissons Ratio (z) = 0.49563 0.49563
#
# Static dielectric constant tensor:
#      x y z
#    x 1.597210 0.000000 0.000000 
#    y 0.000000 1.597210 0.000000 
#    z 0.000000 0.000000 1.623560 
# 
# From -- ./inp_files/5627.got.cif
#   From: 2010.05.17/outbox.cif.g08.bks.cpg/sg127_3_cif.got.tgz:5627.got - 2010.05.20 12:03:00.
