data_PCOD9564741
_publ_section_title
;
Structure prediction by ZEFSAII (Michael W. Deem and Ramdas Pophale) SiO2 
 PCOD9564741
Probable space group: P 4/M N C
;
_chemical_formula_sum "Si O2"
_cell_formula_units_Z 96
_cell_length_a 18.155385
_cell_length_b 18.155385
_cell_length_c 13.875324
_cell_angle_alpha 90.000000
_cell_angle_beta 90.000000
_cell_angle_gamma 90.000000
_cell_volume 4573.556609
_symmetry_space_group_name_H-M "P 4/M N C"
_symmetry_group_IT_number 128
_symmetry_cell_setting 'tetragonal'
loop_
_space_group_symop_operation_xyz
x,y,z
-y,x,z
-x,-y,z
y,-x,z
1/2+x,1/2-y,1/2-z
1/2-x,1/2+y,1/2-z
1/2+y,1/2+x,1/2-z
1/2-y,1/2-x,1/2-z
-x,-y,-z
y,-x,-z
x,y,-z
-y,x,-z
1/2-x,1/2+y,1/2+z
1/2+x,1/2-y,1/2+z
1/2-y,1/2-x,1/2+z
1/2+y,1/2+x,1/2+z
loop_
_atom_site_type_symbol
_atom_site_label
_atom_site_fract_x
_atom_site_fract_y
_atom_site_fract_z
Si Si1 0.010090 0.288692 0.893750
Si Si2 0.071004 0.455482 0.890869
Si Si3 0.039596 0.889146 0.384270
Si Si4 0.836821 0.198114 0.316505
Si Si5 0.339204 0.243502 0.390050
Si Si6 0.786313 0.596304 0.212660
O O1 0.921826 0.288908 0.883663
O O2 0.042576 0.371337 0.893546
O O3 0.050117 0.253833 0.801863
O O4 0.026817 0.256355 0.000000
O O5 0.149731 0.453117 0.837395
O O6 0.000000 0.500000 0.852981
O O7 0.083711 0.481988 0.000000
O O8 0.039440 0.886017 0.500000
O O9 0.079889 0.818958 0.343967
O O10 0.958218 0.909922 0.353433
O O11 0.814047 0.274748 0.365210
O O12 0.831780 0.201600 0.200396
O O13 0.778208 0.135022 0.348845
O O14 0.329123 0.271010 0.500000
O O15 0.833279 0.666722 0.250000
#
# Coordination Sequence:
#
# PCOD9564741 Si02
#       6
#    16  16  16  16  16  16
#     4   9  20  37  56  78 112 154 193 233 284 343
#     4   9  19  35  55  81 114 152 192 231 278 338
#     4   9  20  40  63  85 113 150 192 248 311 360
#     4  11  22  37  59  91 118 154 199 248 296 357
#     4  10  22  39  58  84 120 157 195 245 297 346
#     4  10  20  36  55  85 114 155 197 235 289 344
#
# _framework density 20.990228999999999
#
# number of rings (size 3 to 8) (size 9 to 14) (size 15 to 20)
#    0.000    2.333    1.667    1.000    2.333    7.667 
#    0.000    0.000    0.000    0.000    0.000    1.167 
#    0.000    0.000    0.000    0.000    0.000    0.000 
#
# Total GULP energy -534929.743907 kJ/mol
# GULP energy per Si atom -5572.184832 kJ/mol
# Density = 2.094245 g / cm^3
# Si number density = 20.990229 Si / 1000 Ang^3
#
#
#
# Elastic Constant Matrix: (Units=GPa)
#
#
# Indices 1 2 3 4 5 6 
#
# 1 48.1177 18.1032 13.3391 0.0000 0.0000 0.0000
# 2 18.1032 48.1169 13.3387 0.0000 0.0000 0.0000
# 3 13.3391 13.3387 72.9701 0.0000 0.0000 0.0000
# 4 0.0000 0.0000 0.0000 21.7587 0.0000 0.0000
# 5 0.0000 0.0000 0.0000 0.0000 21.7590 0.0000
# 6 0.0000 0.0000 0.0000 0.0000 0.0000 32.7500
#
#
#
# Elastic Compliance Matrix: (Units=1/GPa)
#
#
# Indices 1 2 3 4 5 6 
#
# 1 0.024809 -0.008508 -0.002980 0.000000 0.000000 0.000000
# 2 -0.008508 0.024810 -0.002980 0.000000 0.000000 0.000000
# 3 -0.002980 -0.002980 0.014794 0.000000 0.000000 0.000000
# 4 0.000000 0.000000 0.000000 0.045959 0.000000 0.000000
# 5 0.000000 0.000000 0.000000 0.000000 0.045958 0.000000
# 6 0.000000 0.000000 0.000000 0.000000 0.000000 0.030534
#
#
# Mechanical properties :
#
#
# Convention : Reuss Voigt Hill
#
# Bulk Modulus (GPa) = 28.18717 28.75187 28.46952
# Shear Modulus (GPa) = 21.96592 23.54846 22.75719
#
# Velocity S-wave (km/s) = 3.23845 3.35308 3.29626
# Velocity P-wave (km/s) = 5.23844 5.35895 5.29904
#
# Compressibility (1/GPa) = 0.03547713
#
# Stress axis : x y z
#
# Youngs Moduli (GPa) = 40.30727 40.30671 67.59638
#
# Poissons Ratio (x) = 0.34293 0.20144
# Poissons Ratio (y) = 0.34294 0.20143
# Poissons Ratio (z) = 0.12011 0.12011
#
# Static dielectric constant tensor:
#      x y z
#    x 1.763010 0.000000 0.000000 
#    y 0.000000 1.763010 0.000000 
#    z 0.000000 0.000000 1.819180 
# 
# From -- ./inp_files/4013.got.cif
#   From: 2010.05.17/outbox.cif.g08.bks.cpg/sg128_3_cif.got.tgz:4013.got - 2010.05.20 12:07:25.
