data_PCOD9564038
_publ_section_title
;
Structure prediction by ZEFSAII (Michael W. Deem and Ramdas Pophale) SiO2 
 PCOD9564038
Probable space group: P 4/M B M
;
_chemical_formula_sum "Si O2"
_cell_formula_units_Z 104
_cell_length_a 18.298643
_cell_length_b 18.298643
_cell_length_c 18.599698
_cell_angle_alpha 90.000000
_cell_angle_beta 90.000000
_cell_angle_gamma 90.000000
_cell_volume 6227.929121
_symmetry_space_group_name_H-M "P 4/M B M"
_symmetry_group_IT_number 127
_symmetry_cell_setting 'tetragonal'
loop_
_space_group_symop_operation_xyz
x,y,z
-y,x,z
-x,-y,z
y,-x,z
1/2+x,1/2-y,-z
1/2-x,1/2+y,-z
1/2+y,1/2+x,-z
1/2-y,1/2-x,-z
-x,-y,-z
y,-x,-z
x,y,-z
-y,x,-z
1/2-x,1/2+y,z
1/2+x,1/2-y,z
1/2-y,1/2-x,z
1/2+y,1/2+x,z
loop_
_atom_site_type_symbol
_atom_site_label
_atom_site_fract_x
_atom_site_fract_y
_atom_site_fract_z
Si Si1 0.294019 0.032177 0.325676
Si Si2 0.197722 0.577247 0.839006
Si Si3 0.308062 0.316622 0.837332
Si Si4 0.061877 0.561877 0.416166
Si Si5 0.152900 0.776206 0.416291
Si Si6 0.866852 0.756104 0.687158
Si Si7 0.201251 0.420488 0.085677
O O1 0.306803 0.066589 0.247121
O O2 0.367049 0.034154 0.373762
O O3 0.236704 0.081472 0.369154
O O4 0.266648 0.950294 0.314942
O O5 0.131847 0.631847 0.861087
O O6 0.275410 0.616786 0.855104
O O7 0.193152 0.498489 0.876189
O O8 0.248964 0.251037 0.838577
O O9 0.305191 0.348461 0.756786
O O10 0.274783 0.378799 0.888613
O O11 0.079013 0.579013 0.500000
O O12 0.000000 0.500000 0.415091
O O13 0.137383 0.785594 0.500000
O O14 0.203650 0.703650 0.407406
O O15 0.200445 0.841366 0.383196
O O16 0.815630 0.684370 0.693158
O O17 0.133778 0.366223 0.105375
O O18 0.201449 0.428948 0.000000
#
# Coordination Sequence:
#
# PCOD9564038 Si02
#       7
#    16  16  16   8  16  16  16
#     4  12  20  34  56  82 110 147 188 234 283 330
#     4  11  21  35  59  88 114 147 191 232 276 336
#     4   9  18  35  57  81 109 144 189 233 272 325
#     4  11  24  36  48  76 121 161 189 224 283 350
#     4  10  20  35  54  77 109 147 186 232 286 334
#     4  10  20  34  55  81 109 141 188 237 275 326
#     4  10  22  39  58  85 121 152 179 224 285 339
#
# _framework density 16.698969000000002
#
# number of rings (size 3 to 8) (size 9 to 14) (size 15 to 20)
#    0.000    1.615    4.615    0.923    0.000    3.077 
#    0.000    3.846    0.000    0.923    0.000    2.154 
#    0.000    0.000    0.000    0.000    0.000    0.000 
#
# Total GULP energy -580259.546554 kJ/mol
# GULP energy per Si atom -5579.418717 kJ/mol
# Density = 1.666096 g / cm^3
# Si number density = 16.698969 Si / 1000 Ang^3
#
#
#
# Elastic Constant Matrix: (Units=GPa)
#
#
# Indices 1 2 3 4 5 6 
#
# 1 50.7927 90.7962 34.9122 0.0000 0.0000 0.0000
# 2 90.7962 50.7927 34.9122 0.0000 0.0000 0.0000
# 3 34.9122 34.9122 79.6134 0.0000 0.0000 0.0000
# 4 0.0000 0.0000 0.0000 24.9153 0.0000 0.0000
# 5 0.0000 0.0000 0.0000 0.0000 24.9153 0.0000
# 6 0.0000 0.0000 0.0000 0.0000 0.0000 22.3273
#
#
#
# Elastic Compliance Matrix: (Units=1/GPa)
#
#
# Indices 1 2 3 4 5 6 
#
# 1 -0.007993 0.017005 -0.003952 0.000000 0.000000 0.000000
# 2 0.017005 -0.007993 -0.003952 0.000000 0.000000 0.000000
# 3 -0.003952 -0.003952 0.016027 0.000000 0.000000 0.000000
# 4 0.000000 0.000000 0.000000 0.040136 0.000000 0.000000
# 5 0.000000 0.000000 0.000000 0.000000 0.040136 0.000000
# 6 0.000000 0.000000 0.000000 0.000000 0.000000 0.044788
#
#
# Mechanical properties :
#
#
# Convention : Reuss Voigt Hill
#
# Bulk Modulus (GPa) = 54.81681 55.82669 55.32175
# Shear Modulus (GPa) = 44.25597 15.80344 30.02970
#
# Velocity S-wave (km/s) = 5.15362 3.07965 4.24523
# Velocity P-wave (km/s) = 8.26503 6.79334 7.56506
#
# Compressibility (1/GPa) = 0.01824258
#
# Stress axis : x y z
#
# Youngs Moduli (GPa) = -125.10685 -125.10685 62.39649
#
# Poissons Ratio (x) = 2.12740 0.24657
# Poissons Ratio (y) = 2.12740 0.24657
# Poissons Ratio (z) = -0.49439 -0.49439
#
# Static dielectric constant tensor:
#      x y z
#    x 1.554730 0.000000 0.000000 
#    y 0.000000 1.554730 0.000000 
#    z 0.000000 0.000000 1.562150 
# 
# From -- ./inp_files/5221.got.cif
#   From: 2010.05.17/outbox.cif.g08.bks.cpg/sg127_3_cif.got.tgz:5221.got - 2010.05.20 12:03:00.
