data_PCOD9564406
_publ_section_title
;
Structure prediction by ZEFSAII (Michael W. Deem and Ramdas Pophale) SiO2 
 PCOD9564406
Probable space group: P 4/M B M
;
_chemical_formula_sum "Si O2"
_cell_formula_units_Z 64
_cell_length_a 15.289967
_cell_length_b 15.289967
_cell_length_c 16.914189
_cell_angle_alpha 90.000000
_cell_angle_beta 90.000000
_cell_angle_gamma 90.000000
_cell_volume 3954.251384
_symmetry_space_group_name_H-M "P 4/M B M"
_symmetry_group_IT_number 127
_symmetry_cell_setting 'tetragonal'
loop_
_space_group_symop_operation_xyz
x,y,z
-y,x,z
-x,-y,z
y,-x,z
1/2+x,1/2-y,-z
1/2-x,1/2+y,-z
1/2+y,1/2+x,-z
1/2-y,1/2-x,-z
-x,-y,-z
y,-x,-z
x,y,-z
-y,x,-z
1/2-x,1/2+y,z
1/2+x,1/2-y,z
1/2-y,1/2-x,z
1/2+y,1/2+x,z
loop_
_atom_site_type_symbol
_atom_site_label
_atom_site_fract_x
_atom_site_fract_y
_atom_site_fract_z
Si Si1 0.755432 0.986709 0.335720
Si Si2 0.073902 0.573902 0.592246
Si Si3 0.851310 0.988185 0.174303
Si Si4 0.314091 0.329664 0.405704
Si Si5 0.647323 0.488178 0.000000
O O1 0.657864 0.962299 0.361884
O O2 0.780797 0.983320 0.243568
O O3 0.814330 0.912639 0.377480
O O4 0.777049 0.082615 0.367562
O O5 0.096683 0.596683 0.500000
O O6 0.000000 0.500000 0.589496
O O7 0.922844 0.909572 0.181483
O O8 0.809671 0.984750 0.086291
O O9 0.311142 0.337487 0.500000
O O10 0.253278 0.246723 0.383058
O O11 0.589915 0.576560 0.000000
#
# Coordination Sequence:
#
# PCOD9564406 Si02
#       5
#    16   8  16  16   8
#     4  12  21  35  56  80 107 141 176 230 279 317
#     4  11  24  42  58  73 101 150 204 229 248 310
#     4   9  16  29  48  80 113 139 168 209 267 331
#     4  11  23  37  52  75 107 143 184 225 273 325
#     4   7  12  24  46  71 108 145 167 198 254 325
#
# _framework density 16.185112
#
# number of rings (size 3 to 8) (size 9 to 14) (size 15 to 20)
#    0.000    1.750    3.750    4.500    0.000    2.500 
#    0.000    1.250    0.000    0.750    0.000    6.125 
#    0.000    0.000    0.000    0.000    0.000    0.000 
#
# Total GULP energy -356783.610524 kJ/mol
# GULP energy per Si atom -5574.743914 kJ/mol
# Density = 1.614827 g / cm^3
# Si number density = 16.185112 Si / 1000 Ang^3
#
#
#
# Elastic Constant Matrix: (Units=GPa)
#
#
# Indices 1 2 3 4 5 6 
#
# 1 59.0081 -2.5770 35.1018 0.0000 0.0000 0.0000
# 2 -2.5770 59.0081 35.1018 0.0000 0.0000 0.0000
# 3 35.1018 35.1018 157.3401 0.0000 0.0000 0.0000
# 4 0.0000 0.0000 0.0000 9.0804 0.0000 0.0000
# 5 0.0000 0.0000 0.0000 0.0000 9.0804 0.0000
# 6 0.0000 0.0000 0.0000 0.0000 0.0000 23.3693
#
#
#
# Elastic Compliance Matrix: (Units=1/GPa)
#
#
# Indices 1 2 3 4 5 6 
#
# 1 0.020383 0.004145 -0.005472 0.000000 0.000000 0.000000
# 2 0.004145 0.020383 -0.005472 0.000000 0.000000 0.000000
# 3 -0.005472 -0.005472 0.008797 0.000000 0.000000 0.000000
# 4 0.000000 0.000000 0.000000 0.110127 0.000000 0.000000
# 5 0.000000 0.000000 0.000000 0.000000 0.110127 0.000000
# 6 0.000000 0.000000 0.000000 0.000000 0.000000 0.042791
#
#
# Mechanical properties :
#
#
# Convention : Reuss Voigt Hill
#
# Bulk Modulus (GPa) = 27.80443 45.62326 36.71385
# Shear Modulus (GPa) = 14.78439 22.15468 18.46953
#
# Velocity S-wave (km/s) = 3.02562 3.70378 3.38175
# Velocity P-wave (km/s) = 5.42422 6.82205 6.16289
#
# Compressibility (1/GPa) = 0.03596549
#
# Stress axis : x y z
#
# Youngs Moduli (GPa) = 49.06030 49.06030 113.67136
#
# Poissons Ratio (x) = -0.20337 0.62203
# Poissons Ratio (y) = -0.20337 0.62203
# Poissons Ratio (z) = 0.26847 0.26847
#
# Static dielectric constant tensor:
#      x y z
#    x 1.533490 0.000000 0.000000 
#    y 0.000000 1.533490 0.000000 
#    z 0.000000 0.000000 1.561740 
# 
# From -- ./inp_files/4891.got.cif
#   From: 2010.05.17/outbox.cif.g08.bks.cpg/sg127_3_cif.got.tgz:4891.got - 2010.05.20 12:03:00.
