data_PCOD9564152
_publ_section_title
;
Structure prediction by ZEFSAII (Michael W. Deem and Ramdas Pophale) SiO2 
 PCOD9564152
Probable space group: P 4/M B M
;
_chemical_formula_sum "Si O2"
_cell_formula_units_Z 96
_cell_length_a 19.951301
_cell_length_b 19.951301
_cell_length_c 13.750527
_cell_angle_alpha 90.000000
_cell_angle_beta 90.000000
_cell_angle_gamma 90.000000
_cell_volume 5473.457934
_symmetry_space_group_name_H-M "P 4/M B M"
_symmetry_group_IT_number 127
_symmetry_cell_setting 'tetragonal'
loop_
_space_group_symop_operation_xyz
x,y,z
-y,x,z
-x,-y,z
y,-x,z
1/2+x,1/2-y,-z
1/2-x,1/2+y,-z
1/2+y,1/2+x,-z
1/2-y,1/2-x,-z
-x,-y,-z
y,-x,-z
x,y,-z
-y,x,-z
1/2-x,1/2+y,z
1/2+x,1/2-y,z
1/2-y,1/2-x,z
1/2+y,1/2+x,z
loop_
_atom_site_type_symbol
_atom_site_label
_atom_site_fract_x
_atom_site_fract_y
_atom_site_fract_z
Si Si1 0.075298 0.083875 0.391019
Si Si2 0.802566 0.101011 0.248826
Si Si3 0.999618 0.387799 0.783687
Si Si4 0.329691 0.278555 0.113735
Si Si5 0.819636 0.566877 0.610660
Si Si6 0.747044 0.485867 0.114384
O O1 0.095226 0.105985 0.500000
O O2 0.106034 0.128083 0.306726
O O3 0.994744 0.090943 0.383449
O O4 0.795882 0.166200 0.182037
O O5 0.745066 0.090658 0.329462
O O6 0.796782 0.036590 0.178655
O O7 0.934124 0.434124 0.789581
O O8 0.997107 0.324705 0.855652
O O9 0.063324 0.436677 0.802533
O O10 0.010598 0.356103 0.676344
O O11 0.291775 0.208226 0.127199
O O12 0.408532 0.271159 0.134243
O O13 0.322286 0.297558 0.000000
O O14 0.804219 0.546186 0.500000
O O15 0.871607 0.628394 0.606839
O O16 0.738041 0.498548 0.000000
#
# Coordination Sequence:
#
# PCOD9564152 Si02
#       6
#    16  16  16  16  16  16
#     4   9  18  32  50  73  99 126 158 198 246 299
#     4  11  19  32  52  75  97 127 168 212 249 293
#     4   9  18  32  51  75 100 129 168 211 256 310
#     4  10  21  36  53  73 100 136 173 209 256 313
#     4   9  18  31  47  70  99 128 159 198 245 296
#     4  10  21  35  51  73 103 136 171 214 264 314
#
# _framework density 17.539186000000001
#
# number of rings (size 3 to 8) (size 9 to 14) (size 15 to 20)
#    0.000    2.333    0.000    3.500    0.000    2.333 
#    0.000    2.500    0.000    1.000    0.000    7.000 
#    0.000    0.000    0.000    0.000    0.000    0.000 
#
# Total GULP energy -535367.815000 kJ/mol
# GULP energy per Si atom -5576.748073 kJ/mol
# Density = 1.749927 g / cm^3
# Si number density = 17.539186 Si / 1000 Ang^3
#
#
#
# Elastic Constant Matrix: (Units=GPa)
#
#
# Indices 1 2 3 4 5 6 
#
# 1 26.6046 -8.6995 15.6604 0.0000 0.0000 0.0000
# 2 -8.6995 26.6046 15.6604 0.0000 0.0000 0.0000
# 3 15.6604 15.6604 79.3245 0.0000 0.0000 0.0000
# 4 0.0000 0.0000 0.0000 24.0160 0.0000 0.0000
# 5 0.0000 0.0000 0.0000 0.0000 24.0160 0.0000
# 6 0.0000 0.0000 0.0000 0.0000 0.0000 14.3764
#
#
#
# Elastic Compliance Matrix: (Units=1/GPa)
#
#
# Indices 1 2 3 4 5 6 
#
# 1 0.056818 0.028493 -0.016842 0.000000 0.000000 0.000000
# 2 0.028493 0.056818 -0.016842 0.000000 0.000000 0.000000
# 3 -0.016842 -0.016842 0.019257 0.000000 0.000000 0.000000
# 4 0.000000 0.000000 0.000000 0.041639 0.000000 0.000000
# 5 0.000000 0.000000 0.000000 0.000000 0.041639 0.000000
# 6 0.000000 0.000000 0.000000 0.000000 0.000000 0.069558
#
#
# Mechanical properties :
#
#
# Convention : Reuss Voigt Hill
#
# Bulk Modulus (GPa) = 8.16257 19.75292 13.95775
# Shear Modulus (GPa) = 14.83902 19.80920 17.32411
#
# Velocity S-wave (km/s) = 2.91185 3.36434 3.14624
# Velocity P-wave (km/s) = 3.99614 5.13598 4.60149
#
# Compressibility (1/GPa) = 0.12251038
#
# Stress axis : x y z
#
# Youngs Moduli (GPa) = 17.59990 17.59990 51.93042
#
# Poissons Ratio (x) = -0.50148 0.87463
# Poissons Ratio (y) = -0.50148 0.87463
# Poissons Ratio (z) = 0.29642 0.29642
#
# Static dielectric constant tensor:
#      x y z
#    x 1.579910 0.000000 0.000000 
#    y 0.000000 1.579910 0.000000 
#    z 0.000000 0.000000 1.595010 
# 
# From -- ./inp_files/3531.got.cif
#   From: 2010.05.17/outbox.cif.g08.bks.cpg/sg127_2_cif.got.tgz:3531.got - 2010.05.20 12:03:00.
