data_PCOD9564147
_publ_section_title
;
Structure prediction by ZEFSAII (Michael W. Deem and Ramdas Pophale) SiO2 
 PCOD9564147
Probable space group: P 4/M B M
;
_chemical_formula_sum "Si O2"
_cell_formula_units_Z 96
_cell_length_a 25.418399
_cell_length_b 25.418399
_cell_length_c 7.412508
_cell_angle_alpha 90.000000
_cell_angle_beta 90.000000
_cell_angle_gamma 90.000000
_cell_volume 4789.184414
_symmetry_space_group_name_H-M "P 4/M B M"
_symmetry_group_IT_number 127
_symmetry_cell_setting 'tetragonal'
loop_
_space_group_symop_operation_xyz
x,y,z
-y,x,z
-x,-y,z
y,-x,z
1/2+x,1/2-y,-z
1/2-x,1/2+y,-z
1/2+y,1/2+x,-z
1/2-y,1/2-x,-z
-x,-y,-z
y,-x,-z
x,y,-z
-y,x,-z
1/2-x,1/2+y,z
1/2+x,1/2-y,z
1/2-y,1/2-x,z
1/2+y,1/2+x,z
loop_
_atom_site_type_symbol
_atom_site_label
_atom_site_fract_x
_atom_site_fract_y
_atom_site_fract_z
Si Si1 0.891826 0.391826 0.779498
Si Si2 0.690141 0.108533 0.709484
Si Si3 0.144036 0.805733 0.220981
Si Si4 0.804695 0.304695 0.780005
Si Si5 0.525530 0.717275 0.220073
Si Si6 0.003773 0.662727 0.217533
Si Si7 0.413915 0.691971 0.204386
O O1 0.848269 0.348269 0.725713
O O2 0.875297 0.449930 0.720786
O O3 0.891253 0.391253 0.000000
O O4 0.701975 0.118226 0.500000
O O5 0.657765 0.157765 0.782511
O O6 0.655149 0.055841 0.721306
O O7 0.745395 0.096832 0.801720
O O8 0.176433 0.753541 0.277473
O O9 0.082986 0.801661 0.274622
O O10 0.167083 0.861354 0.285275
O O11 0.146158 0.805243 0.000000
O O12 0.804497 0.304497 0.000000
O O13 0.519768 0.778191 0.273507
O O14 0.472704 0.687577 0.284133
O O15 0.524128 0.716047 0.000000
O O16 0.003062 0.661606 0.000000
O O17 0.417350 0.671265 0.000000
#
# Coordination Sequence:
#
# PCOD9564147 Si02
#       7
#     8  16  16   8  16  16  16
#     4   9  14  24  44  72  97 116 144 188 235 271
#     4  10  21  35  47  60  86 124 156 184 227 277
#     4   9  15  23  39  67  98 120 144 183 226 270
#     4   9  14  20  36  66 100 123 140 173 231 282
#     4   8  13  24  40  62  93 121 146 179 220 263
#     4   9  16  28  48  70  89 115 153 192 226 265
#     4   9  18  29  47  72  90 114 153 191 222 261
#
# _framework density 20.045166999999999
#
# number of rings (size 3 to 8) (size 9 to 14) (size 15 to 20)
#    0.000    3.000    1.667    1.500    1.167    1.333 
#    0.000    0.833    0.000    7.000    0.000    3.500 
#    0.000    0.000    0.000    6.000    0.000    6.667 
#
# Total GULP energy -535170.059426 kJ/mol
# GULP energy per Si atom -5574.688119 kJ/mol
# Density = 1.999954 g / cm^3
# Si number density = 20.045167 Si / 1000 Ang^3
#
#
#
# Elastic Constant Matrix: (Units=GPa)
#
#
# Indices 1 2 3 4 5 6 
#
# 1 96.1147 63.2922 -1.7039 0.0000 0.0000 0.0000
# 2 63.2922 96.1147 -1.7039 0.0000 0.0000 0.0000
# 3 -1.7039 -1.7039 66.1702 0.0000 0.0000 0.0000
# 4 0.0000 0.0000 0.0000 42.2714 0.0000 0.0000
# 5 0.0000 0.0000 0.0000 0.0000 42.2714 0.0000
# 6 0.0000 0.0000 0.0000 0.0000 0.0000 33.0460
#
#
#
# Elastic Compliance Matrix: (Units=1/GPa)
#
#
# Indices 1 2 3 4 5 6 
#
# 1 0.018372 -0.012095 0.000162 0.000000 0.000000 0.000000
# 2 -0.012095 0.018372 0.000162 0.000000 0.000000 0.000000
# 3 0.000162 0.000162 0.015121 0.000000 0.000000 0.000000
# 4 0.000000 0.000000 0.000000 0.023657 0.000000 0.000000
# 5 0.000000 0.000000 0.000000 0.000000 0.023657 0.000000
# 6 0.000000 0.000000 0.000000 0.000000 0.000000 0.030261
#
#
# Mechanical properties :
#
#
# Convention : Reuss Voigt Hill
#
# Bulk Modulus (GPa) = 35.30977 42.01873 38.66425
# Shear Modulus (GPa) = 30.78388 36.75210 33.76799
#
# Velocity S-wave (km/s) = 3.92309 4.28654 4.10883
# Velocity P-wave (km/s) = 6.17852 6.74587 6.46842
#
# Compressibility (1/GPa) = 0.02832078
#
# Stress axis : x y z
#
# Youngs Moduli (GPa) = 54.43118 54.43118 66.13381
#
# Poissons Ratio (x) = 0.65835 -0.01069
# Poissons Ratio (y) = 0.65835 -0.01069
# Poissons Ratio (z) = -0.00880 -0.00880
#
# Static dielectric constant tensor:
#      x y z
#    x 1.697070 0.000000 0.000000 
#    y 0.000000 1.697070 0.000000 
#    z 0.000000 0.000000 1.811830 
# 
# From -- ./inp_files/2089.got.cif
#   From: 2010.05.17/outbox.cif.g08.bks.cpg/sg127_2_cif.got.tgz:2089.got - 2010.05.20 12:03:00.
