data_PCOD9564959
_publ_section_title
;
Structure prediction by ZEFSAII (Michael W. Deem and Ramdas Pophale) SiO2 
 PCOD9564959
Probable space group: P 4/M N C
;
_chemical_formula_sum "Si O2"
_cell_formula_units_Z 112
_cell_length_a 15.302912
_cell_length_b 15.302912
_cell_length_c 21.833068
_cell_angle_alpha 90.000000
_cell_angle_beta 90.000000
_cell_angle_gamma 90.000000
_cell_volume 5112.848557
_symmetry_space_group_name_H-M "P 4/M N C"
_symmetry_group_IT_number 128
_symmetry_cell_setting 'tetragonal'
loop_
_space_group_symop_operation_xyz
x,y,z
-y,x,z
-x,-y,z
y,-x,z
1/2+x,1/2-y,1/2-z
1/2-x,1/2+y,1/2-z
1/2+y,1/2+x,1/2-z
1/2-y,1/2-x,1/2-z
-x,-y,-z
y,-x,-z
x,y,-z
-y,x,-z
1/2-x,1/2+y,1/2+z
1/2+x,1/2-y,1/2+z
1/2-y,1/2-x,1/2+z
1/2+y,1/2+x,1/2+z
loop_
_atom_site_type_symbol
_atom_site_label
_atom_site_fract_x
_atom_site_fract_y
_atom_site_fract_z
Si Si1 0.969740 0.856617 0.811773
Si Si2 0.101035 0.634050 0.317331
Si Si3 0.770075 0.775582 0.363680
Si Si4 0.731703 0.601223 0.570103
Si Si5 0.424887 0.799472 0.217674
Si Si6 0.103790 0.514751 0.433184
Si Si7 0.416702 0.386490 0.073660
O O1 0.956539 0.821750 0.881081
O O2 0.951880 0.774806 0.766940
O O3 0.065155 0.899404 0.801781
O O4 0.094118 0.594118 0.250000
O O5 0.181186 0.700054 0.319463
O O6 0.120189 0.570084 0.372898
O O7 0.007688 0.679883 0.324615
O O8 0.729841 0.700353 0.405992
O O9 0.846099 0.734767 0.323220
O O10 0.811510 0.854588 0.402157
O O11 0.701099 0.593407 0.500000
O O12 0.832975 0.568961 0.571201
O O13 0.386008 0.886008 0.250000
O O14 0.125428 0.556090 0.500000
O O15 0.000000 0.500000 0.433507
O O16 0.517816 0.381900 0.093809
O O17 0.416623 0.385614 0.000000
#
# Coordination Sequence:
#
# PCOD9564959 Si02
#       7
#    16  16  16  16  16  16  16
#     4  11  26  48  73 101 140 185 235 296 359 417
#     4  12  28  42  70 104 139 185 234 291 360 425
#     4  12  24  42  64  99 136 178 230 288 353 418
#     4  11  25  43  70 101 138 185 239 295 353 422
#     4  12  25  44  71 102 138 180 231 288 354 431
#     4  10  24  46  70 102 144 189 236 292 357 431
#     4   9  19  37  62  93 132 178 228 283 347 425
#
# _framework density 21.905598000000001
#
# number of rings (size 3 to 8) (size 9 to 14) (size 15 to 20)
#    0.000    1.000    1.429    4.714    6.000    1.714 
#    0.000    5.714    0.000    0.000    0.000    0.000 
#    0.000    0.000    0.000    0.000    0.000    0.000 
#
# Total GULP energy -626471.908765 kJ/mol
# GULP energy per Si atom -5593.499185 kJ/mol
# Density = 2.185574 g / cm^3
# Si number density = 21.905598 Si / 1000 Ang^3
#
#
#
# Elastic Constant Matrix: (Units=GPa)
#
#
# Indices 1 2 3 4 5 6 
#
# 1 66.8776 22.5370 19.4346 0.0000 0.0000 0.0000
# 2 22.5370 66.8776 19.4346 0.0000 0.0000 0.0000
# 3 19.4346 19.4346 88.8967 0.0000 0.0000 0.0000
# 4 0.0000 0.0000 0.0000 29.8073 0.0000 0.0000
# 5 0.0000 0.0000 0.0000 0.0000 29.8073 0.0000
# 6 0.0000 0.0000 0.0000 0.0000 0.0000 31.6930
#
#
#
# Elastic Compliance Matrix: (Units=1/GPa)
#
#
# Indices 1 2 3 4 5 6 
#
# 1 0.017456 -0.005097 -0.002702 0.000000 0.000000 0.000000
# 2 -0.005097 0.017456 -0.002702 0.000000 0.000000 0.000000
# 3 -0.002702 -0.002702 0.012430 0.000000 0.000000 0.000000
# 4 0.000000 0.000000 0.000000 0.033549 0.000000 0.000000
# 5 0.000000 0.000000 0.000000 0.000000 0.033549 0.000000
# 6 0.000000 0.000000 0.000000 0.000000 0.000000 0.031553
#
#
# Mechanical properties :
#
#
# Convention : Reuss Voigt Hill
#
# Bulk Modulus (GPa) = 37.96523 38.38492 38.17507
# Shear Modulus (GPa) = 28.44575 29.01124 28.72849
#
# Velocity S-wave (km/s) = 3.60746 3.64314 3.62535
# Velocity P-wave (km/s) = 5.89242 5.93781 5.91516
#
# Compressibility (1/GPa) = 0.02633989
#
# Stress axis : x y z
#
# Youngs Moduli (GPa) = 57.28852 57.28852 80.44839
#
# Poissons Ratio (x) = 0.29201 0.21735
# Poissons Ratio (y) = 0.29201 0.21735
# Poissons Ratio (z) = 0.15478 0.15478
#
# Static dielectric constant tensor:
#      x y z
#    x 1.816810 0.000000 0.000000 
#    y 0.000000 1.816810 0.000000 
#    z 0.000000 0.000000 1.855520 
# 
# From -- ./inp_files/6448.got.cif
#   From: 2010.05.17/outbox.cif.g08.bks.cpg/sg128_4_cif.got.tgz:6448.got - 2010.05.20 12:07:25.
