data_PCOD9564037
_publ_section_title
;
Structure prediction by ZEFSAII (Michael W. Deem and Ramdas Pophale) SiO2 
 PCOD9564037
Probable space group: P 4/M B M
;
_chemical_formula_sum "Si O2"
_cell_formula_units_Z 96
_cell_length_a 21.177973
_cell_length_b 21.177973
_cell_length_c 12.313796
_cell_angle_alpha 90.000000
_cell_angle_beta 90.000000
_cell_angle_gamma 90.000000
_cell_volume 5522.818043
_symmetry_space_group_name_H-M "P 4/M B M"
_symmetry_group_IT_number 127
_symmetry_cell_setting 'tetragonal'
loop_
_space_group_symop_operation_xyz
x,y,z
-y,x,z
-x,-y,z
y,-x,z
1/2+x,1/2-y,-z
1/2-x,1/2+y,-z
1/2+y,1/2+x,-z
1/2-y,1/2-x,-z
-x,-y,-z
y,-x,-z
x,y,-z
-y,x,-z
1/2-x,1/2+y,z
1/2+x,1/2-y,z
1/2-y,1/2-x,z
1/2+y,1/2+x,z
loop_
_atom_site_type_symbol
_atom_site_label
_atom_site_fract_x
_atom_site_fract_y
_atom_site_fract_z
Si Si1 0.556735 0.840860 0.130432
Si Si2 0.878004 0.808099 0.266427
Si Si3 0.403500 0.454649 0.125004
Si Si4 0.847473 0.239951 0.876159
Si Si5 0.442873 0.841810 0.500000
Si Si6 0.437024 0.829964 0.266359
Si Si7 0.268124 0.336878 0.500000
O O1 0.601416 0.898585 0.166430
O O2 0.589559 0.774988 0.165120
O O3 0.487011 0.846057 0.174936
O O4 0.557588 0.840414 0.000000
O O5 0.929352 0.857251 0.218708
O O6 0.816693 0.822749 0.195070
O O7 0.906080 0.738239 0.248756
O O8 0.853756 0.807401 0.391511
O O9 0.470850 0.418775 0.134610
O O10 0.379987 0.444238 0.000000
O O11 0.794776 0.294776 0.878751
O O12 0.858216 0.218504 0.000000
O O13 0.410518 0.910518 0.500000
O O14 0.473402 0.831752 0.382868
O O15 0.386730 0.789866 0.500000
O O16 0.380925 0.880925 0.271913
O O17 0.231736 0.268265 0.500000
#
# Coordination Sequence:
#
# PCOD9564037 Si02
#       7
#    16  16  16  16   8  16   8
#     4   9  20  37  53  73 108 149 177 209 272 340
#     4  11  20  33  58  84 106 144 182 230 279 330
#     4   9  20  38  57  80 113 151 187 228 285 350
#     4   9  18  33  52  75 105 137 172 218 272 327
#     4   7  14  32  52  71 101 136 169 217 275 316
#     4  10  20  34  55  80 104 136 184 233 271 322
#     4   9  18  34  53  79 116 149 178 219 282 339
#
# _framework density 17.382432000000001
#
# number of rings (size 3 to 8) (size 9 to 14) (size 15 to 20)
#    0.000    2.667    0.000    4.500    2.333    2.000 
#    0.000    2.917    0.000    4.500    0.000    0.000 
#    0.000    0.000    0.000    0.000    0.000    0.000 
#
# Total GULP energy -534495.301502 kJ/mol
# GULP energy per Si atom -5567.659391 kJ/mol
# Density = 1.734287 g / cm^3
# Si number density = 17.382432 Si / 1000 Ang^3
#
#
#
# Elastic Constant Matrix: (Units=GPa)
#
#
# Indices 1 2 3 4 5 6 
#
# 1 70.2104 24.9287 39.7890 0.0000 0.0000 0.0000
# 2 24.9287 70.2106 39.7889 0.0000 0.0000 0.0000
# 3 39.7890 39.7889 83.9306 0.0000 0.0000 0.0000
# 4 0.0000 0.0000 0.0000 0.7072 0.0000 0.0000
# 5 0.0000 0.0000 0.0000 0.0000 0.7072 0.0000
# 6 0.0000 0.0000 0.0000 0.0000 0.0000 20.4025
#
#
#
# Elastic Compliance Matrix: (Units=1/GPa)
#
#
# Indices 1 2 3 4 5 6 
#
# 1 0.019751 -0.002333 -0.008257 0.000000 0.000000 0.000000
# 2 -0.002333 0.019751 -0.008257 0.000000 0.000000 0.000000
# 3 -0.008257 -0.008257 0.019743 0.000000 0.000000 0.000000
# 4 0.000000 0.000000 0.000000 1.413995 0.000000 0.000000
# 5 0.000000 0.000000 0.000000 0.000000 1.413963 0.000000
# 6 0.000000 0.000000 0.000000 0.000000 0.000000 0.049014
#
#
# Mechanical properties :
#
#
# Convention : Reuss Voigt Hill
#
# Bulk Modulus (GPa) = 46.40366 48.15165 47.27765
# Shear Modulus (GPa) = 1.67724 12.35304 7.01514
#
# Velocity S-wave (km/s) = 0.98336 2.66872 2.01110
# Velocity P-wave (km/s) = 5.29556 6.10390 5.71404
#
# Compressibility (1/GPa) = 0.02155003
#
# Stress axis : x y z
#
# Youngs Moduli (GPa) = 50.63100 50.63125 50.64967
#
# Poissons Ratio (x) = 0.11814 0.41822
# Poissons Ratio (y) = 0.11814 0.41822
# Poissons Ratio (z) = 0.41807 0.41806
#
# Static dielectric constant tensor:
#      x y z
#    x 1.590370 0.000000 0.000000 
#    y 0.000000 1.590370 0.000000 
#    z 0.000000 0.000000 1.619790 
# 
# From -- ./inp_files/3572.got.cif
#   From: 2010.05.17/outbox.cif.g08.bks.cpg/sg127_2_cif.got.tgz:3572.got - 2010.05.20 12:03:00.
