data_PCOD9564987
_publ_section_title
;
Structure prediction by ZEFSAII (Michael W. Deem and Ramdas Pophale) SiO2 
 PCOD9564987
Probable space group: P 4/M N C
;
_chemical_formula_sum "Si O2"
_cell_formula_units_Z 56
_cell_length_a 11.702009
_cell_length_b 11.702009
_cell_length_c 19.531307
_cell_angle_alpha 90.000000
_cell_angle_beta 90.000000
_cell_angle_gamma 90.000000
_cell_volume 2674.558873
_symmetry_space_group_name_H-M "P 4/M N C"
_symmetry_group_IT_number 128
_symmetry_cell_setting 'tetragonal'
loop_
_space_group_symop_operation_xyz
x,y,z
-y,x,z
-x,-y,z
y,-x,z
1/2+x,1/2-y,1/2-z
1/2-x,1/2+y,1/2-z
1/2+y,1/2+x,1/2-z
1/2-y,1/2-x,1/2-z
-x,-y,-z
y,-x,-z
x,y,-z
-y,x,-z
1/2-x,1/2+y,1/2+z
1/2+x,1/2-y,1/2+z
1/2-y,1/2-x,1/2+z
1/2+y,1/2+x,1/2+z
loop_
_atom_site_type_symbol
_atom_site_label
_atom_site_fract_x
_atom_site_fract_y
_atom_site_fract_z
Si Si1 0.245724 0.973346 0.500000
Si Si2 0.882112 0.151154 0.861946
Si Si3 0.678819 0.546753 0.842553
Si Si4 0.719451 0.751280 0.500000
Si Si5 0.293047 0.793047 0.750000
O O1 0.188581 0.958735 0.574993
O O2 0.305668 0.847360 0.500000
O O3 0.280492 0.108345 0.500000
O O4 0.812197 0.211093 0.802179
O O5 0.018282 0.154089 0.857258
O O6 0.843458 0.206794 0.932895
O O7 0.577706 0.634387 0.823694
O O8 0.784255 0.595303 0.799229
#
# Coordination Sequence:
#
# PCOD9564987 Si02
#       5
#     8  16  16   8   8
#     4  12  20  39  69 104 132 168 217 295 338 402
#     4  11  25  47  72  97 134 187 237 277 326 410
#     4  11  21  37  64  95 128 167 221 278 333 397
#     4  12  24  42  72 102 140 170 232 282 350 402
#     4  12  22  38  64  98 132 166 226 284 332 380
#
# _framework density 20.938033999999998
#
# number of rings (size 3 to 8) (size 9 to 14) (size 15 to 20)
#    0.000    0.571    5.714    2.571    0.000    4.857 
#    0.000    2.857    0.000    7.714    0.000    0.000 
#    0.000    0.000    0.000    0.000    0.000    0.000 
#
# Total GULP energy -312084.377129 kJ/mol
# GULP energy per Si atom -5572.935306 kJ/mol
# Density = 2.089038 g / cm^3
# Si number density = 20.938034 Si / 1000 Ang^3
#
#
#
# Elastic Constant Matrix: (Units=GPa)
#
#
# Indices 1 2 3 4 5 6 
#
# 1 81.4647 71.4379 60.9584 0.0000 0.0000 0.0000
# 2 71.4379 81.4647 60.9584 0.0000 0.0000 0.0000
# 3 60.9584 60.9584 177.9119 0.0000 0.0000 0.0000
# 4 0.0000 0.0000 0.0000 -1.1139 0.0000 0.0000
# 5 0.0000 0.0000 0.0000 0.0000 -1.1139 0.0000
# 6 0.0000 0.0000 0.0000 0.0000 0.0000 33.9255
#
#
#
# Elastic Compliance Matrix: (Units=1/GPa)
#
#
# Indices 1 2 3 4 5 6 
#
# 1 0.054365 -0.045367 -0.003083 0.000000 0.000000 0.000000
# 2 -0.045367 0.054365 -0.003083 0.000000 0.000000 0.000000
# 3 -0.003083 -0.003083 0.007734 0.000000 0.000000 0.000000
# 4 0.000000 0.000000 0.000000 -0.897754 0.000000 0.000000
# 5 0.000000 0.000000 0.000000 0.000000 -0.897749 0.000000
# 6 0.000000 0.000000 0.000000 0.000000 0.000000 0.029476
#
#
# Mechanical properties :
#
#
# Convention : Reuss Voigt Hill
#
# Bulk Modulus (GPa) = 74.63902 80.83897 77.73900
# Shear Modulus (GPa) = -3.24248 16.17199 6.46475
#
# Velocity S-wave (km/s) = -1.24578 2.78218 1.75905
# Velocity P-wave (km/s) = 5.80135 7.00094 6.42918
#
# Compressibility (1/GPa) = 0.01339782
#
# Stress axis : x y z
#
# Youngs Moduli (GPa) = 18.39408 18.39408 129.30680
#
# Poissons Ratio (x) = 0.83448 0.39867
# Poissons Ratio (y) = 0.83448 0.39867
# Poissons Ratio (z) = 0.05671 0.05671
#
# Static dielectric constant tensor:
#      x y z
#    x 1.775530 0.000000 0.000000 
#    y 0.000000 1.775530 0.000000 
#    z 0.000000 0.000000 1.770210 
# 
# From -- ./inp_files/5370.got.cif
#   From: 2010.05.17/outbox.cif.g08.bks.cpg/sg128_3_cif.got.tgz:5370.got - 2010.05.20 12:07:25.
