data_PCOD9564491
_publ_section_title
;
Structure prediction by ZEFSAII (Michael W. Deem and Ramdas Pophale) SiO2 
 PCOD9564491
Probable space group: P 4/M B M
;
_chemical_formula_sum "Si O2"
_cell_formula_units_Z 96
_cell_length_a 24.000000
_cell_length_b 24.000000
_cell_length_c 9.000000
_cell_angle_alpha 90.000000
_cell_angle_beta 90.000000
_cell_angle_gamma 90.000000
_cell_volume 5184.000000
_symmetry_space_group_name_H-M "P 4/M B M"
_symmetry_group_IT_number 127
_symmetry_cell_setting 'tetragonal'
loop_
_space_group_symop_operation_xyz
x,y,z
-y,x,z
-x,-y,z
y,-x,z
1/2+x,1/2-y,-z
1/2-x,1/2+y,-z
1/2+y,1/2+x,-z
1/2-y,1/2-x,-z
-x,-y,-z
y,-x,-z
x,y,-z
-y,x,-z
1/2-x,1/2+y,z
1/2+x,1/2-y,z
1/2-y,1/2-x,z
1/2+y,1/2+x,z
loop_
_atom_site_type_symbol
_atom_site_label
_atom_site_fract_x
_atom_site_fract_y
_atom_site_fract_z
Si Si1 0.344619 0.005591 0.833735
Si Si2 0.899255 0.685671 0.673500
Si Si3 0.314520 0.427348 0.323370
Si Si4 0.384741 0.115260 0.323367
Si Si5 0.144100 0.812988 0.322890
Si Si6 0.713854 0.465638 0.166148
Si Si7 0.707228 0.792773 0.681929
O O1 0.369296 0.054513 0.735118
O O2 0.278234 0.016481 0.839154
O O3 0.348452 0.944441 0.766003
O O4 0.367290 0.008755 0.000000
O O5 0.911809 0.676635 0.500000
O O6 0.838217 0.661784 0.703838
O O7 0.905791 0.751128 0.697377
O O8 0.322403 0.438260 0.500000
O O9 0.351020 0.375909 0.269169
O O10 0.320750 0.482809 0.229331
O O11 0.383578 0.116423 0.500000
O O12 0.338849 0.161152 0.271200
O O13 0.151164 0.815860 0.500000
O O14 0.084649 0.789793 0.279644
O O15 0.188709 0.768113 0.266646
O O16 0.696902 0.449184 0.000000
O O17 0.707187 0.792814 0.500000
#
# Coordination Sequence:
#
# PCOD9564491 Si02
#       7
#    16  16  16   8  16  16   8
#     4  10  20  33  49  71 100 136 175 213 255 307
#     4   9  18  33  52  74 100 133 173 214 256 305
#     4   9  19  33  54  80 106 137 171 211 256 307
#     4  11  19  31  52  76 101 133 169 216 263 307
#     4  10  19  33  54  81 110 137 171 213 258 307
#     4  10  20  34  52  73 104 142 177 210 249 305
#     4   9  18  29  49  80 110 135 163 206 259 306
#
# _framework density 18.518519000000001
#
# number of rings (size 3 to 8) (size 9 to 14) (size 15 to 20)
#    0.000    2.333    1.667    1.250    1.167    2.333 
#    0.000    0.833    0.000    3.000    0.000    3.500 
#    0.000    0.000    0.000    0.000    0.000    0.000 
#
# Total GULP energy -534654.526101 kJ/mol
# GULP energy per Si atom -5569.317980 kJ/mol
# Density = 1.847637 g / cm^3
# Si number density = 18.518519 Si / 1000 Ang^3
#
#
#
# Elastic Constant Matrix: (Units=GPa)
#
#
# Indices 1 2 3 4 5 6 
#
# 1 44.2123 -25.7267 -4.1137 0.0000 0.0000 0.0000
# 2 -25.7267 44.2119 -4.1149 0.0000 0.0000 0.0000
# 3 -4.1137 -4.1149 1.4566 0.0000 0.0000 0.0000
# 4 0.0000 0.0000 0.0000 7.1103 0.0000 0.0000
# 5 0.0000 0.0000 0.0000 0.0000 7.1103 0.0000
# 6 0.0000 0.0000 0.0000 0.0000 0.0000 19.4733
#
#
#
# Elastic Compliance Matrix: (Units=1/GPa)
#
#
# Indices 1 2 3 4 5 6 
#
# 1 -0.097928 -0.112237 -0.593655 0.000000 0.000000 0.000000
# 2 -0.112237 -0.097950 -0.593705 0.000000 0.000000 0.000000
# 3 -0.593655 -0.593705 -2.667361 0.000000 0.000000 0.000000
# 4 0.000000 0.000000 0.000000 0.140641 0.000000 0.000000
# 5 0.000000 0.000000 0.000000 0.000000 0.140640 0.000000
# 6 0.000000 0.000000 0.000000 0.000000 0.000000 0.051352
#
#
# Mechanical properties :
#
#
# Convention : Reuss Voigt Hill
#
# Bulk Modulus (GPa) = -0.18307 2.44111 1.12902
# Shear Modulus (GPa) = -2.85352 14.99453 6.07051
#
# Velocity S-wave (km/s) = -1.24268 2.84862 1.81251
# Velocity P-wave (km/s) = 1.46904 3.48433 2.23411
#
# Compressibility (1/GPa) = -5.46243584
#
# Stress axis : x y z
#
# Youngs Moduli (GPa) = -10.21155 -10.20927 -0.37490
#
# Poissons Ratio (x) = -1.14586 -0.22256
# Poissons Ratio (y) = -1.14612 -0.22258
# Poissons Ratio (z) = -6.06214 -6.06130
#
# Static dielectric constant tensor:
#      x y z
#    x 1.652740 0.000000 0.000000 
#    y 0.000000 1.652740 0.000000 
#    z 0.000000 0.000000 1.640120 
# 
# From -- ./inp_files/2111.got.cif
#   From: 2010.05.17/outbox.ucp.g08.bks.cvg/sg127_2_cif.got.tgz:2111.got - 2010.06.11 11:37:05.
