data_PCOD9564547
_publ_section_title
;
Structure prediction by ZEFSAII (Michael W. Deem and Ramdas Pophale) SiO2 
 PCOD9564547
Probable space group: P 4/M N C
;
_chemical_formula_sum "Si O2"
_cell_formula_units_Z 112
_cell_length_a 17.893194
_cell_length_b 17.893194
_cell_length_c 13.589304
_cell_angle_alpha 90.000000
_cell_angle_beta 90.000000
_cell_angle_gamma 90.000000
_cell_volume 4350.838425
_symmetry_space_group_name_H-M "P 4/M N C"
_symmetry_group_IT_number 128
_symmetry_cell_setting 'tetragonal'
loop_
_space_group_symop_operation_xyz
x,y,z
-y,x,z
-x,-y,z
y,-x,z
1/2+x,1/2-y,1/2-z
1/2-x,1/2+y,1/2-z
1/2+y,1/2+x,1/2-z
1/2-y,1/2-x,1/2-z
-x,-y,-z
y,-x,-z
x,y,-z
-y,x,-z
1/2-x,1/2+y,1/2+z
1/2+x,1/2-y,1/2+z
1/2-y,1/2-x,1/2+z
1/2+y,1/2+x,1/2+z
loop_
_atom_site_type_symbol
_atom_site_label
_atom_site_fract_x
_atom_site_fract_y
_atom_site_fract_z
Si Si1 0.849144 0.685684 0.892276
Si Si2 0.578114 0.705768 0.879788
Si Si3 0.226789 0.508621 0.380001
Si Si4 0.387044 0.537798 0.380571
Si Si5 0.794947 0.096793 0.379742
Si Si6 0.358950 0.123412 0.614414
Si Si7 0.575951 0.032923 0.639372
O O1 0.921465 0.728721 0.846598
O O2 0.771134 0.655280 0.847364
O O3 0.890814 0.606460 0.904872
O O4 0.832575 0.720568 0.000000
O O5 0.624310 0.631475 0.854333
O O6 0.490673 0.709583 0.849945
O O7 0.630840 0.775312 0.845914
O O8 0.576748 0.709962 0.000000
O O9 0.223014 0.502481 0.500000
O O10 0.302364 0.551858 0.352494
O O11 0.160923 0.564716 0.346139
O O12 0.408927 0.453897 0.349583
O O13 0.388297 0.539476 0.500000
O O14 0.788028 0.097033 0.500000
O O15 0.357642 0.145960 0.500000
O O16 0.368613 0.034786 0.624405
O O17 0.556745 0.056745 0.750000
O O18 0.500000 0.000000 0.598109
#
# Coordination Sequence:
#
# PCOD9564547 Si02
#       7
#    16  16  16  16  16  16  16
#     4  10  18  30  48  71 101 135 168 205 250 302
#     4   9  17  28  44  69 101 137 170 207 252 298
#     4   9  17  25  41  67  91 125 167 202 240 298
#     4   8  14  25  39  58  92 133 165 200 251 302
#     4   9  17  28  44  69 100 135 172 209 252 297
#     4  10  18  30  48  71 102 135 167 204 255 308
#     4  11  21  31  47  73  97 129 166 202 246 303
#
# _framework density 25.742163000000001
#
# number of rings (size 3 to 8) (size 9 to 14) (size 15 to 20)
#    0.000    2.571    2.857    0.857    0.000    2.000 
#    0.000    7.143    0.000    0.000    3.714    0.000 
#    0.000    0.000    0.000    0.000    0.000    0.000 
#
# Total GULP energy -624861.200010 kJ/mol
# GULP energy per Si atom -5579.117857 kJ/mol
# Density = 2.568357 g / cm^3
# Si number density = 25.742163 Si / 1000 Ang^3
#
#
#
# Elastic Constant Matrix: (Units=GPa)
#
#
# Indices 1 2 3 4 5 6 
#
# 1 110.5756 36.9432 -7.6595 0.0000 0.0000 0.0000
# 2 36.9432 110.5756 -7.6595 0.0000 0.0000 0.0000
# 3 -7.6595 -7.6595 90.5678 0.0000 0.0000 0.0000
# 4 0.0000 0.0000 0.0000 8.4161 0.0000 0.0000
# 5 0.0000 0.0000 0.0000 0.0000 8.4161 0.0000
# 6 0.0000 0.0000 0.0000 0.0000 0.0000 31.2492
#
#
#
# Elastic Compliance Matrix: (Units=1/GPa)
#
#
# Indices 1 2 3 4 5 6 
#
# 1 0.010210 -0.003371 0.000578 0.000000 0.000000 0.000000
# 2 -0.003371 0.010210 0.000578 0.000000 0.000000 0.000000
# 3 0.000578 0.000578 0.011139 0.000000 0.000000 0.000000
# 4 0.000000 0.000000 0.000000 0.118819 0.000000 0.000000
# 5 0.000000 0.000000 0.000000 0.000000 0.118819 0.000000
# 6 0.000000 0.000000 0.000000 0.000000 0.000000 0.032001
#
#
# Mechanical properties :
#
#
# Convention : Reuss Voigt Hill
#
# Bulk Modulus (GPa) = 36.85890 39.44085 38.14988
# Shear Modulus (GPa) = 15.88962 28.95595 22.42278
#
# Velocity S-wave (km/s) = 2.48717 3.35751 2.95456
# Velocity P-wave (km/s) = 4.75369 5.51228 5.14698
#
# Compressibility (1/GPa) = 0.02713049
#
# Stress axis : x y z
#
# Youngs Moduli (GPa) = 97.94400 97.94400 89.77239
#
# Poissons Ratio (x) = 0.33018 -0.05192
# Poissons Ratio (y) = 0.33018 -0.05192
# Poissons Ratio (z) = -0.05665 -0.05665
#
# Static dielectric constant tensor:
#      x y z
#    x 2.043850 0.000000 0.000000 
#    y 0.000000 2.043850 0.000000 
#    z 0.000000 0.000000 2.059490 
# 
# From -- ./inp_files/5951.got.cif
#   From: 2010.05.17/outbox.cif.g08.bks.cpg/sg128_3_cif.got.tgz:5951.got - 2010.05.20 12:07:25.
