data_PCOD9564816
_publ_section_title
;
Structure prediction by ZEFSAII (Michael W. Deem and Ramdas Pophale) SiO2 
 PCOD9564816
Probable space group: P 4/M N C
;
_chemical_formula_sum "Si O2"
_cell_formula_units_Z 112
_cell_length_a 15.346439
_cell_length_b 15.346439
_cell_length_c 24.311590
_cell_angle_alpha 90.000000
_cell_angle_beta 90.000000
_cell_angle_gamma 90.000000
_cell_volume 5725.700114
_symmetry_space_group_name_H-M "P 4/M N C"
_symmetry_group_IT_number 128
_symmetry_cell_setting 'tetragonal'
loop_
_space_group_symop_operation_xyz
x,y,z
-y,x,z
-x,-y,z
y,-x,z
1/2+x,1/2-y,1/2-z
1/2-x,1/2+y,1/2-z
1/2+y,1/2+x,1/2-z
1/2-y,1/2-x,1/2-z
-x,-y,-z
y,-x,-z
x,y,-z
-y,x,-z
1/2-x,1/2+y,1/2+z
1/2+x,1/2-y,1/2+z
1/2-y,1/2-x,1/2+z
1/2+y,1/2+x,1/2+z
loop_
_atom_site_type_symbol
_atom_site_label
_atom_site_fract_x
_atom_site_fract_y
_atom_site_fract_z
Si Si1 0.313479 0.875439 0.616949
Si Si2 0.326033 0.066258 0.382686
Si Si3 0.926894 0.120305 0.932885
Si Si4 0.145566 0.216972 0.272052
Si Si5 0.288564 0.243089 0.564457
Si Si6 0.003585 0.598793 0.832812
Si Si7 0.952666 0.259921 0.257308
O O1 0.238535 0.862084 0.663111
O O2 0.301045 0.796516 0.575532
O O3 0.407675 0.874161 0.647095
O O4 0.307114 0.972123 0.591558
O O5 0.279425 0.149175 0.407886
O O6 0.428388 0.089599 0.382873
O O7 0.300937 0.052964 0.318495
O O8 0.870849 0.201801 0.912682
O O9 0.028061 0.116421 0.916206
O O10 0.925651 0.121820 0.000000
O O11 0.200330 0.299671 0.250000
O O12 0.197949 0.131119 0.254515
O O13 0.046157 0.213194 0.252044
O O14 0.301678 0.230225 0.500000
O O15 0.000000 0.500000 0.810470
O O16 0.042454 0.665768 0.788851
#
# Coordination Sequence:
#
# PCOD9564816 Si02
#       7
#    16  16  16  16  16  16  16
#     4  10  22  39  58  89 122 156 204 254 310 369
#     4  10  22  37  59  90 118 155 207 254 304 367
#     4   8  16  33  57  82 109 148 198 245 298 365
#     4  11  21  38  58  90 123 159 200 250 303 371
#     4  11  23  39  61  86 119 164 208 259 311 356
#     4  10  21  37  62  93 126 159 199 249 313 379
#     4  11  22  36  63  87 125 164 199 247 308 376
#
# _framework density 19.560928000000001
#
# number of rings (size 3 to 8) (size 9 to 14) (size 15 to 20)
#    0.000    1.857    2.857    1.714    2.000    3.714 
#    0.000    0.000    0.000    3.000    0.000    1.000 
#    0.000    0.000    0.000    0.000    0.000    0.000 
#
# Total GULP energy -624898.934055 kJ/mol
# GULP energy per Si atom -5579.454768 kJ/mol
# Density = 1.951641 g / cm^3
# Si number density = 19.560928 Si / 1000 Ang^3
#
#
#
# Elastic Constant Matrix: (Units=GPa)
#
#
# Indices 1 2 3 4 5 6 
#
# 1 101.6314 59.3915 18.5236 0.0000 0.0000 0.0000
# 2 59.3915 101.6306 18.5236 0.0000 0.0000 0.0000
# 3 18.5236 18.5236 15.1880 0.0000 0.0000 0.0000
# 4 0.0000 0.0000 0.0000 17.0890 0.0000 0.0000
# 5 0.0000 0.0000 0.0000 0.0000 17.0891 0.0000
# 6 0.0000 0.0000 0.0000 0.0000 0.0000 38.7863
#
#
#
# Elastic Compliance Matrix: (Units=1/GPa)
#
#
# Indices 1 2 3 4 5 6 
#
# 1 0.016154 -0.007521 -0.010528 0.000000 0.000000 0.000000
# 2 -0.007521 0.016154 -0.010529 0.000000 0.000000 0.000000
# 3 -0.010528 -0.010529 0.091523 0.000000 0.000000 0.000000
# 4 0.000000 0.000000 0.000000 0.058517 0.000000 0.000000
# 5 0.000000 0.000000 0.000000 0.000000 0.058517 0.000000
# 6 0.000000 0.000000 0.000000 0.000000 0.000000 0.025782
#
#
# Mechanical properties :
#
#
# Convention : Reuss Voigt Hill
#
# Bulk Modulus (GPa) = 14.99832 45.70305 30.35068
# Shear Modulus (GPa) = 14.44974 22.72698 18.58836
#
# Velocity S-wave (km/s) = 2.72086 3.41230 3.08601
# Velocity P-wave (km/s) = 4.18986 6.24021 5.31484
#
# Compressibility (1/GPa) = 0.06667412
#
# Stress axis : x y z
#
# Youngs Moduli (GPa) = 61.90601 61.90544 10.92622
#
# Poissons Ratio (x) = 0.46559 0.11504
# Poissons Ratio (y) = 0.46559 0.11504
# Poissons Ratio (z) = 0.65178 0.65178
#
# Static dielectric constant tensor:
#      x y z
#    x 1.713840 0.000000 0.000000 
#    y 0.000000 1.713840 0.000000 
#    z 0.000000 0.000000 1.707460 
# 
# From -- ./inp_files/6478.got.cif
#   From: 2010.05.17/outbox.cif.g08.bks.cpg/sg128_4_cif.got.tgz:6478.got - 2010.05.20 12:07:25.
