data_PCOD9564288
_publ_section_title
;
Structure prediction by ZEFSAII (Michael W. Deem and Ramdas Pophale) SiO2 
 PCOD9564288
Probable space group: P 4/M B M
;
_chemical_formula_sum "Si O2"
_cell_formula_units_Z 84
_cell_length_a 12.580543
_cell_length_b 12.580543
_cell_length_c 25.605360
_cell_angle_alpha 90.000000
_cell_angle_beta 90.000000
_cell_angle_gamma 90.000000
_cell_volume 4052.561919
_symmetry_space_group_name_H-M "P 4/M B M"
_symmetry_group_IT_number 127
_symmetry_cell_setting 'tetragonal'
loop_
_space_group_symop_operation_xyz
x,y,z
-y,x,z
-x,-y,z
y,-x,z
1/2+x,1/2-y,-z
1/2-x,1/2+y,-z
1/2+y,1/2+x,-z
1/2-y,1/2-x,-z
-x,-y,-z
y,-x,-z
x,y,-z
-y,x,-z
1/2-x,1/2+y,z
1/2+x,1/2-y,z
1/2-y,1/2-x,z
1/2+y,1/2+x,z
loop_
_atom_site_type_symbol
_atom_site_label
_atom_site_fract_x
_atom_site_fract_y
_atom_site_fract_z
Si Si1 0.500000 0.500000 0.838314
Si Si2 0.323324 0.004385 0.559291
Si Si3 0.474514 0.675678 0.657008
Si Si4 0.675163 0.006145 0.940983
Si Si5 0.889567 0.214586 0.847859
Si Si6 0.831137 0.499978 0.248784
O O1 0.597731 0.589131 0.838673
O O2 0.280690 0.010817 0.500000
O O3 0.385389 0.114612 0.570973
O O4 0.413512 0.913512 0.559665
O O5 0.238337 0.975150 0.602697
O O6 0.384341 0.586913 0.660471
O O7 0.463166 0.754015 0.705635
O O8 0.580483 0.919518 0.943063
O O9 0.755644 0.955718 0.900107
O O10 0.616753 0.116753 0.926179
O O11 0.718298 0.017849 0.000000
O O12 0.773517 0.273517 0.852508
O O13 0.944144 0.271702 0.798500
O O14 0.912827 0.412827 0.271817
O O15 0.902664 0.597337 0.229136
#
# Coordination Sequence:
#
# PCOD9564288 Si02
#       6
#     4  16  16  16  16  16
#     4  12  28  44  69 100 132 172 225 276 324 406
#     4   9  19  38  63  88 115 150 197 252 306 366
#     4  11  25  39  55  84 124 163 201 250 307 371
#     4   8  14  30  61  97 132 173 222 276 335 401
#     4  10  23  42  64  93 131 173 215 269 333 392
#     4  10  22  40  64  91 120 159 208 261 316 382
#
# _framework density 20.727627999999999
#
# number of rings (size 3 to 8) (size 9 to 14) (size 15 to 20)
#    0.000    2.286    0.000    2.857    2.667    9.143 
#    0.000    4.286    0.000    2.286    0.000    0.000 
#    0.000    0.000    0.000    0.000    0.000    0.000 
#
# Total GULP energy -467995.772235 kJ/mol
# GULP energy per Si atom -5571.378241 kJ/mol
# Density = 2.068045 g / cm^3
# Si number density = 20.727628 Si / 1000 Ang^3
#
#
#
# Elastic Constant Matrix: (Units=GPa)
#
#
# Indices 1 2 3 4 5 6 
#
# 1 143.1339 -45.7203 8.7162 0.0000 0.0000 0.0000
# 2 -45.7203 143.1339 8.7162 0.0000 0.0000 0.0000
# 3 8.7162 8.7162 47.9147 0.0000 0.0000 0.0000
# 4 0.0000 0.0000 0.0000 0.5162 0.0000 0.0000
# 5 0.0000 0.0000 0.0000 0.0000 0.5162 0.0000
# 6 0.0000 0.0000 0.0000 0.0000 0.0000 4.4908
#
#
#
# Elastic Compliance Matrix: (Units=1/GPa)
#
#
# Indices 1 2 3 4 5 6 
#
# 1 0.007953 0.002658 -0.001930 0.000000 0.000000 0.000000
# 2 0.002658 0.007953 -0.001930 0.000000 0.000000 0.000000
# 3 -0.001930 -0.001930 0.021573 0.000000 0.000000 0.000000
# 4 0.000000 0.000000 0.000000 1.937186 0.000000 0.000000
# 5 0.000000 0.000000 0.000000 0.000000 1.937186 0.000000
# 6 0.000000 0.000000 0.000000 0.000000 0.000000 0.222678
#
#
# Mechanical properties :
#
#
# Convention : Reuss Voigt Hill
#
# Bulk Modulus (GPa) = 28.51149 30.84519 29.67834
# Shear Modulus (GPa) = 1.20522 25.26934 13.23728
#
# Velocity S-wave (km/s) = 0.76336 3.49537 2.52985
# Velocity P-wave (km/s) = 3.81604 5.58602 4.78361
#
# Compressibility (1/GPa) = 0.03507358
#
# Stress axis : x y z
#
# Youngs Moduli (GPa) = 125.73859 125.73859 46.35487
#
# Poissons Ratio (x) = -0.33420 0.08948
# Poissons Ratio (y) = -0.33420 0.08948
# Poissons Ratio (z) = 0.24271 0.24271
#
# Static dielectric constant tensor:
#      x y z
#    x 1.747080 0.000000 0.000000 
#    y 0.000000 1.747080 0.000000 
#    z 0.000000 0.000000 1.717270 
# 
# From -- ./inp_files/6515.got.cif
#   From: 2010.05.17/outbox.cif.g08.bks.cpg/sg127_4_cif.got.tgz:6515.got - 2010.05.20 12:03:00.
