data_PCOD9564399
_publ_section_title
;
Structure prediction by ZEFSAII (Michael W. Deem and Ramdas Pophale) SiO2 
 PCOD9564399
Probable space group: P 4/M B M
;
_chemical_formula_sum "Si O2"
_cell_formula_units_Z 96
_cell_length_a 15.643336
_cell_length_b 15.643336
_cell_length_c 22.367639
_cell_angle_alpha 90.000000
_cell_angle_beta 90.000000
_cell_angle_gamma 90.000000
_cell_volume 5473.673543
_symmetry_space_group_name_H-M "P 4/M B M"
_symmetry_group_IT_number 127
_symmetry_cell_setting 'tetragonal'
loop_
_space_group_symop_operation_xyz
x,y,z
-y,x,z
-x,-y,z
y,-x,z
1/2+x,1/2-y,-z
1/2-x,1/2+y,-z
1/2+y,1/2+x,-z
1/2-y,1/2-x,-z
-x,-y,-z
y,-x,-z
x,y,-z
-y,x,-z
1/2-x,1/2+y,z
1/2+x,1/2-y,z
1/2-y,1/2-x,z
1/2+y,1/2+x,z
loop_
_atom_site_type_symbol
_atom_site_label
_atom_site_fract_x
_atom_site_fract_y
_atom_site_fract_z
Si Si1 0.431776 0.931776 0.238652
Si Si2 0.516527 0.257984 0.618220
Si Si3 0.431632 0.931632 0.384011
Si Si4 0.017568 0.241962 0.761863
Si Si5 0.665091 0.688759 0.184512
Si Si6 0.309904 0.668837 0.571570
Si Si7 0.393894 0.596833 0.930159
O O1 0.432148 0.932148 0.311328
O O2 0.458496 0.838045 0.219472
O O3 0.500000 0.000000 0.217389
O O4 0.542114 0.162787 0.597765
O O5 0.511135 0.261445 0.690043
O O6 0.424692 0.280429 0.591755
O O7 0.595744 0.315197 0.597192
O O8 0.500000 0.000000 0.405551
O O9 0.099079 0.187452 0.783111
O O10 0.925985 0.218580 0.789167
O O11 0.739650 0.760351 0.192775
O O12 0.649292 0.664435 0.115277
O O13 0.312885 0.673053 0.500000
O O14 0.242395 0.742395 0.592472
O O15 0.383731 0.494659 0.919644
O O16 0.376063 0.613155 0.000000
#
# Coordination Sequence:
#
# PCOD9564399 Si02
#       7
#     8  16   8  16  16  16  16
#     4   9  18  36  54  79 119 160 194 230 290 357
#     4  11  22  40  62  86 121 157 193 240 305 361
#     4   9  18  34  61  88 111 148 200 241 281 349
#     4  11  23  36  58  89 121 158 195 245 298 363
#     4  12  23  37  59  90 125 159 204 249 300 359
#     4  11  24  42  63  87 116 152 198 250 298 352
#     4   9  18  36  61  85 115 158 205 253 301 345
#
# _framework density 17.538495999999999
#
# number of rings (size 3 to 8) (size 9 to 14) (size 15 to 20)
#    0.000    1.500    3.333    3.000    0.000    4.333 
#    0.000    2.500    0.000    2.000    0.000    0.000 
#    0.000    5.333    0.000    0.000    0.000    0.000 
#
# Total GULP energy -535865.923210 kJ/mol
# GULP energy per Si atom -5581.936700 kJ/mol
# Density = 1.749858 g / cm^3
# Si number density = 17.538496 Si / 1000 Ang^3
#
#
#
# Elastic Constant Matrix: (Units=GPa)
#
#
# Indices 1 2 3 4 5 6 
#
# 1 98.6190 36.5422 13.6836 0.0000 0.0000 0.0000
# 2 36.5422 98.6190 13.6836 0.0000 0.0000 0.0000
# 3 13.6836 13.6836 50.1683 0.0000 0.0000 0.0000
# 4 0.0000 0.0000 0.0000 17.9234 0.0000 0.0000
# 5 0.0000 0.0000 0.0000 0.0000 17.9234 0.0000
# 6 0.0000 0.0000 0.0000 0.0000 0.0000 40.4931
#
#
#
# Elastic Compliance Matrix: (Units=1/GPa)
#
#
# Indices 1 2 3 4 5 6 
#
# 1 0.011970 -0.004139 -0.002136 0.000000 0.000000 0.000000
# 2 -0.004139 0.011970 -0.002136 0.000000 0.000000 0.000000
# 3 -0.002136 -0.002136 0.021098 0.000000 0.000000 0.000000
# 4 0.000000 0.000000 0.000000 0.055793 0.000000 0.000000
# 5 0.000000 0.000000 0.000000 0.000000 0.055793 0.000000
# 6 0.000000 0.000000 0.000000 0.000000 0.000000 0.024696
#
#
# Mechanical properties :
#
#
# Convention : Reuss Voigt Hill
#
# Bulk Modulus (GPa) = 35.44037 41.69167 38.56602
# Shear Modulus (GPa) = 24.09091 27.50110 25.79600
#
# Velocity S-wave (km/s) = 3.71023 3.96415 3.83929
# Velocity P-wave (km/s) = 6.21333 6.69147 6.45683
#
# Compressibility (1/GPa) = 0.02821641
#
# Stress axis : x y z
#
# Youngs Moduli (GPa) = 83.54170 83.54170 47.39763
#
# Poissons Ratio (x) = 0.34578 0.10124
# Poissons Ratio (y) = 0.34578 0.10124
# Poissons Ratio (z) = 0.17844 0.17844
#
# Static dielectric constant tensor:
#      x y z
#    x 1.595920 0.000000 0.000000 
#    y 0.000000 1.595920 0.000000 
#    z 0.000000 0.000000 1.584120 
# 
# From -- ./inp_files/5817.got.cif
#   From: 2010.05.17/outbox.cif.g08.bks.cpg/sg127_3_cif.got.tgz:5817.got - 2010.05.20 12:03:00.
