data_PCOD9564975
_publ_section_title
;
Structure prediction by ZEFSAII (Michael W. Deem and Ramdas Pophale) SiO2 
 PCOD9564975
Probable space group: P 4/M N C
;
_chemical_formula_sum "Si O2"
_cell_formula_units_Z 58
_cell_length_a 16.090148
_cell_length_b 16.090148
_cell_length_c 9.222173
_cell_angle_alpha 90.000000
_cell_angle_beta 90.000000
_cell_angle_gamma 90.000000
_cell_volume 2387.554768
_symmetry_space_group_name_H-M "P 4/M N C"
_symmetry_group_IT_number 128
_symmetry_cell_setting 'tetragonal'
loop_
_space_group_symop_operation_xyz
x,y,z
-y,x,z
-x,-y,z
y,-x,z
1/2+x,1/2-y,1/2-z
1/2-x,1/2+y,1/2-z
1/2+y,1/2+x,1/2-z
1/2-y,1/2-x,1/2-z
-x,-y,-z
y,-x,-z
x,y,-z
-y,x,-z
1/2-x,1/2+y,1/2+z
1/2+x,1/2-y,1/2+z
1/2-y,1/2-x,1/2+z
1/2+y,1/2+x,1/2+z
loop_
_atom_site_type_symbol
_atom_site_label
_atom_site_fract_x
_atom_site_fract_y
_atom_site_fract_z
Si Si1 0.971725 0.824595 0.000000
Si Si2 0.575967 0.618461 0.000000
Si Si3 0.631339 0.131339 0.750000
Si Si4 0.810576 0.163057 0.247895
Si Si5 0.099376 0.501641 0.500000
Si Si6 0.000000 0.000000 0.000000
Si Si7 0.365858 0.218432 0.500000
O O1 0.915319 0.819376 0.140894
O O2 0.029696 0.905189 0.000000
O O3 0.040573 0.754014 0.000000
O O4 0.476748 0.610138 0.000000
O O5 0.613979 0.663147 0.139896
O O6 0.722822 0.140197 0.675454
O O7 0.554499 0.126256 0.639801
O O8 0.819267 0.242088 0.138424
O O9 0.124106 0.601046 0.500000
O O10 0.000000 0.500000 0.500000
#
# Coordination Sequence:
#
# PCOD9564975 Si02
#       7
#     8   8   8  16   8   2   8
#     4  11  20  35  67  99 137 189 238 282 346 441
#     4  11  25  36  59 108 156 181 223 285 366 428
#     4  12  25  50  76 104 151 194 242 306 392 428
#     4  11  23  42  68 102 139 197 232 295 365 446
#     4  12  27  51  81 109 142 199 260 319 370 436
#     4  12  20  28  72 102 128 172 236 270 328 424
#     4  11  22  46  72 100 140 190 261 295 358 453
#
# _framework density 24.292638
#
# number of rings (size 3 to 8) (size 9 to 14) (size 15 to 20)
#    0.000    0.690    5.517    3.724    0.000    0.000 
#    4.966    0.000    0.000    0.000    0.000    0.000 
#    0.000    0.000    0.000    0.000    0.000    0.000 
#
# Total GULP energy -323217.840118 kJ/mol
# GULP energy per Si atom -5572.721381 kJ/mol
# Density = 2.423735 g / cm^3
# Si number density = 24.292638 Si / 1000 Ang^3
#
#
#
# Elastic Constant Matrix: (Units=GPa)
#
#
# Indices 1 2 3 4 5 6 
#
# 1 96.6345 8.0630 25.9558 0.0000 0.0000 0.0000
# 2 8.0630 96.6345 25.9558 0.0000 0.0000 0.0000
# 3 25.9558 25.9558 132.5806 0.0000 0.0000 0.0000
# 4 0.0000 0.0000 0.0000 57.8565 0.0000 0.0000
# 5 0.0000 0.0000 0.0000 0.0000 57.8565 0.0000
# 6 0.0000 0.0000 0.0000 0.0000 0.0000 41.5491
#
#
#
# Elastic Compliance Matrix: (Units=1/GPa)
#
#
# Indices 1 2 3 4 5 6 
#
# 1 0.010934 -0.000356 -0.002071 0.000000 0.000000 0.000000
# 2 -0.000356 0.010934 -0.002071 0.000000 0.000000 0.000000
# 3 -0.002071 -0.002071 0.008353 0.000000 0.000000 0.000000
# 4 0.000000 0.000000 0.000000 0.017284 0.000000 0.000000
# 5 0.000000 0.000000 0.000000 0.000000 0.017284 0.000000
# 6 0.000000 0.000000 0.000000 0.000000 0.000000 0.024068
#
#
# Mechanical properties :
#
#
# Convention : Reuss Voigt Hill
#
# Bulk Modulus (GPa) = 47.11194 49.53320 48.32257
# Shear Modulus (GPa) = 47.65114 49.17744 48.41429
#
# Velocity S-wave (km/s) = 4.43374 4.50419 4.46910
# Velocity P-wave (km/s) = 6.75621 6.89092 6.82390
#
# Compressibility (1/GPa) = 0.02122604
#
# Stress axis : x y z
#
# Youngs Moduli (GPa) = 91.45590 91.45590 119.71110
#
# Poissons Ratio (x) = 0.03257 0.24791
# Poissons Ratio (y) = 0.03257 0.24791
# Poissons Ratio (z) = 0.18940 0.18940
#
# Static dielectric constant tensor:
#      x y z
#    x 2.150770 0.000000 0.000000 
#    y 0.000000 2.150770 0.000000 
#    z 0.000000 0.000000 1.911920 
# 
# From -- ./inp_files/874.got.cif
#   From: 2010.05.17/outbox.cif.g08.bks.cpg/sg128_1_cif.got.tgz:874.got - 2010.05.20 12:07:25.
