data_PCOD9564407
_publ_section_title
;
Structure prediction by ZEFSAII (Michael W. Deem and Ramdas Pophale) SiO2 
 PCOD9564407
Probable space group: P 4/M B M
;
_chemical_formula_sum "Si O2"
_cell_formula_units_Z 56
_cell_length_a 19.411231
_cell_length_b 19.411231
_cell_length_c 9.037919
_cell_angle_alpha 90.000000
_cell_angle_beta 90.000000
_cell_angle_gamma 90.000000
_cell_volume 3405.450724
_symmetry_space_group_name_H-M "P 4/M B M"
_symmetry_group_IT_number 127
_symmetry_cell_setting 'tetragonal'
loop_
_space_group_symop_operation_xyz
x,y,z
-y,x,z
-x,-y,z
y,-x,z
1/2+x,1/2-y,-z
1/2-x,1/2+y,-z
1/2+y,1/2+x,-z
1/2-y,1/2-x,-z
-x,-y,-z
y,-x,-z
x,y,-z
-y,x,-z
1/2-x,1/2+y,z
1/2+x,1/2-y,z
1/2-y,1/2-x,z
1/2+y,1/2+x,z
loop_
_atom_site_type_symbol
_atom_site_label
_atom_site_fract_x
_atom_site_fract_y
_atom_site_fract_z
Si Si1 0.264736 0.648452 0.825007
Si Si2 0.519355 0.796840 0.675762
Si Si3 0.441695 0.058306 0.824866
Si Si4 0.123063 0.261476 0.176217
O O1 0.200114 0.700114 0.802048
O O2 0.252663 0.580757 0.730214
O O3 0.332516 0.693159 0.790222
O O4 0.266085 0.631510 0.000000
O O5 0.520057 0.804067 0.500000
O O6 0.533681 0.870845 0.751149
O O7 0.446297 0.769349 0.732920
O O8 0.500000 0.000000 0.807110
O O9 0.430479 0.069521 0.000000
O O10 0.173861 0.326140 0.204351
O O11 0.108124 0.261492 0.000000
#
# Coordination Sequence:
#
# PCOD9564407 Si02
#       4
#    16  16   8  16
#     4   9  18  35  58  78 100 138 186 227 260 312
#     4  12  23  33  51  81 113 143 172 217 278 328
#     4  11  23  37  53  73 105 149 189 222 257 314
#     4   9  19  36  57  79 103 139 185 225 262 312
#
# _framework density 16.444224999999999
#
# number of rings (size 3 to 8) (size 9 to 14) (size 15 to 20)
#    0.000    1.857    1.429    5.571    0.000    6.286 
#    0.000    2.857    0.000    0.857    0.000    6.000 
#    0.000    0.000    0.000    0.000    0.000    0.000 
#
# Total GULP energy -312772.893784 kJ/mol
# GULP energy per Si atom -5585.230246 kJ/mol
# Density = 1.640680 g / cm^3
# Si number density = 16.444225 Si / 1000 Ang^3
#
#
#
# Elastic Constant Matrix: (Units=GPa)
#
#
# Indices 1 2 3 4 5 6 
#
# 1 99.0278 79.8206 86.7237 0.0000 0.0000 0.0000
# 2 79.8206 99.0276 86.7241 0.0000 0.0000 0.0000
# 3 86.7237 86.7241 119.3714 0.0000 0.0000 0.0000
# 4 0.0000 0.0000 0.0000 -11.8557 0.0000 0.0000
# 5 0.0000 0.0000 0.0000 0.0000 -11.8557 0.0000
# 6 0.0000 0.0000 0.0000 0.0000 0.0000 16.2849
#
#
#
# Elastic Compliance Matrix: (Units=1/GPa)
#
#
# Indices 1 2 3 4 5 6 
#
# 1 0.035495 -0.016569 -0.013749 0.000000 0.000000 0.000000
# 2 -0.016569 0.035495 -0.013750 0.000000 0.000000 0.000000
# 3 -0.013749 -0.013750 0.028356 0.000000 0.000000 0.000000
# 4 0.000000 0.000000 0.000000 -0.084347 0.000000 0.000000
# 5 0.000000 0.000000 0.000000 0.000000 -0.084348 0.000000
# 6 0.000000 0.000000 0.000000 0.000000 0.000000 0.061407
#
#
# Mechanical properties :
#
#
# Convention : Reuss Voigt Hill
#
# Bulk Modulus (GPa) = 89.21788 91.55152 90.38470
# Shear Modulus (GPa) = 59.57277 2.79191 31.18234
#
# Velocity S-wave (km/s) = 6.02543 1.30441 4.35932
# Velocity P-wave (km/s) = 10.13807 7.61994 8.96783
#
# Compressibility (1/GPa) = 0.01120852
#
# Stress axis : x y z
#
# Youngs Moduli (GPa) = 28.17326 28.17269 35.26617
#
# Poissons Ratio (x) = 0.46680 0.48489
# Poissons Ratio (y) = 0.46680 0.48491
# Poissons Ratio (z) = 0.38737 0.38738
#
# Static dielectric constant tensor:
#      x y z
#    x 1.539240 0.000000 0.000000 
#    y 0.000000 1.539240 0.000000 
#    z 0.000000 0.000000 1.539340 
# 
# From -- ./inp_files/1069.got.cif
#   From: 2010.05.17/outbox.cif.g08.bks.cpg/sg127_1_cif.got.tgz:1069.got - 2010.05.20 12:03:00.
