data_PCOD9564003
_publ_section_title
;
Structure prediction by ZEFSAII (Michael W. Deem and Ramdas Pophale) SiO2 
 PCOD9564003
Probable space group: P 4/M B M
;
_chemical_formula_sum "Si O2"
_cell_formula_units_Z 96
_cell_length_a 21.644246
_cell_length_b 21.644246
_cell_length_c 11.184545
_cell_angle_alpha 90.000000
_cell_angle_beta 90.000000
_cell_angle_gamma 90.000000
_cell_volume 5239.661655
_symmetry_space_group_name_H-M "P 4/M B M"
_symmetry_group_IT_number 127
_symmetry_cell_setting 'tetragonal'
loop_
_space_group_symop_operation_xyz
x,y,z
-y,x,z
-x,-y,z
y,-x,z
1/2+x,1/2-y,-z
1/2-x,1/2+y,-z
1/2+y,1/2+x,-z
1/2-y,1/2-x,-z
-x,-y,-z
y,-x,-z
x,y,-z
-y,x,-z
1/2-x,1/2+y,z
1/2+x,1/2-y,z
1/2-y,1/2-x,z
1/2+y,1/2+x,z
loop_
_atom_site_type_symbol
_atom_site_label
_atom_site_fract_x
_atom_site_fract_y
_atom_site_fract_z
Si Si1 0.913166 0.046234 0.356668
Si Si2 0.934104 0.783379 0.743459
Si Si3 0.129544 0.526864 0.865926
Si Si4 0.766316 0.931910 0.137838
Si Si5 0.845271 0.553995 0.367696
Si Si6 0.304443 0.703722 0.143381
O O1 0.914343 0.045907 0.500000
O O2 0.849977 0.074229 0.314119
O O3 0.975066 0.080574 0.315620
O O4 0.936088 0.727317 0.650468
O O5 0.873957 0.774721 0.826132
O O6 0.002017 0.783127 0.804250
O O7 0.069612 0.569612 0.860868
O O8 0.191522 0.568392 0.859460
O O9 0.132489 0.483539 0.749604
O O10 0.131271 0.496843 0.000000
O O11 0.791177 0.866654 0.187748
O O12 0.786615 0.935435 0.000000
O O13 0.856964 0.525437 0.500000
O O14 0.882030 0.617971 0.365684
O O15 0.253130 0.753130 0.187326
O O16 0.298406 0.701118 0.000000
#
# Coordination Sequence:
#
# PCOD9564003 Si02
#       6
#    16  16  16  16  16  16
#     4   9  18  32  50  73  99 127 163 207 252 300
#     4  11  19  32  52  75  99 134 177 217 254 305
#     4   9  18  34  57  81 103 132 174 222 268 319
#     4   9  18  32  50  74 106 139 171 213 267 320
#     4  10  22  37  51  72 105 141 174 214 268 323
#     4  10  20  33  51  76 105 137 174 217 265 317
#
# _framework density 18.321793
#
# number of rings (size 3 to 8) (size 9 to 14) (size 15 to 20)
#    0.000    2.333    0.000    3.500    0.000    3.667 
#    0.000    1.667    0.000    1.000    0.000    7.000 
#    0.000    0.000    0.000    0.000    0.000    0.000 
#
# Total GULP energy -534470.225170 kJ/mol
# GULP energy per Si atom -5567.398179 kJ/mol
# Density = 1.828009 g / cm^3
# Si number density = 18.321793 Si / 1000 Ang^3
#
#
#
# Elastic Constant Matrix: (Units=GPa)
#
#
# Indices 1 2 3 4 5 6 
#
# 1 75.2152 49.5331 34.9137 0.0000 0.0000 0.0000
# 2 49.5331 75.2152 34.9137 0.0000 0.0000 0.0000
# 3 34.9137 34.9137 81.5349 0.0000 0.0000 0.0000
# 4 0.0000 0.0000 0.0000 22.6791 0.0000 0.0000
# 5 0.0000 0.0000 0.0000 0.0000 22.6791 0.0000
# 6 0.0000 0.0000 0.0000 0.0000 0.0000 22.6390
#
#
#
# Elastic Compliance Matrix: (Units=1/GPa)
#
#
# Indices 1 2 3 4 5 6 
#
# 1 0.024740 -0.014197 -0.004515 0.000000 0.000000 0.000000
# 2 -0.014197 0.024740 -0.004515 0.000000 0.000000 0.000000
# 3 -0.004515 -0.004515 0.016131 0.000000 0.000000 0.000000
# 4 0.000000 0.000000 0.000000 0.044094 0.000000 0.000000
# 5 0.000000 0.000000 0.000000 0.000000 0.044094 0.000000
# 6 0.000000 0.000000 0.000000 0.000000 0.000000 0.044172
#
#
# Mechanical properties :
#
#
# Convention : Reuss Voigt Hill
#
# Bulk Modulus (GPa) = 52.19516 52.29848 52.24682
# Shear Modulus (GPa) = 19.93541 21.10641 20.52091
#
# Velocity S-wave (km/s) = 3.30217 3.39777 3.35031
# Velocity P-wave (km/s) = 6.56422 6.63321 6.59881
#
# Compressibility (1/GPa) = 0.01915886
#
# Stress axis : x y z
#
# Youngs Moduli (GPa) = 40.41967 40.41967 61.99207
#
# Poissons Ratio (x) = 0.57385 0.27987
# Poissons Ratio (y) = 0.57385 0.27987
# Poissons Ratio (z) = 0.18248 0.18248
#
# Static dielectric constant tensor:
#      x y z
#    x 1.637340 0.000000 0.000000 
#    y 0.000000 1.637340 0.000000 
#    z 0.000000 0.000000 1.637320 
# 
# From -- ./inp_files/3536.got.cif
#   From: 2010.05.17/outbox.cif.g08.bks.cpg/sg127_2_cif.got.tgz:3536.got - 2010.05.20 12:03:00.
