data_PCOD9564976
_publ_section_title
;
Structure prediction by ZEFSAII (Michael W. Deem and Ramdas Pophale) SiO2 
 PCOD9564976
Probable space group: P 4/M N C
;
_chemical_formula_sum "Si O2"
_cell_formula_units_Z 72
_cell_length_a 16.691359
_cell_length_b 16.691359
_cell_length_c 11.210499
_cell_angle_alpha 90.000000
_cell_angle_beta 90.000000
_cell_angle_gamma 90.000000
_cell_volume 3123.261448
_symmetry_space_group_name_H-M "P 4/M N C"
_symmetry_group_IT_number 128
_symmetry_cell_setting 'tetragonal'
loop_
_space_group_symop_operation_xyz
x,y,z
-y,x,z
-x,-y,z
y,-x,z
1/2+x,1/2-y,1/2-z
1/2-x,1/2+y,1/2-z
1/2+y,1/2+x,1/2-z
1/2-y,1/2-x,1/2-z
-x,-y,-z
y,-x,-z
x,y,-z
-y,x,-z
1/2-x,1/2+y,1/2+z
1/2+x,1/2-y,1/2+z
1/2-y,1/2-x,1/2+z
1/2+y,1/2+x,1/2+z
loop_
_atom_site_type_symbol
_atom_site_label
_atom_site_fract_x
_atom_site_fract_y
_atom_site_fract_z
Si Si1 0.372308 0.541484 0.000000
Si Si2 0.111072 0.415912 0.127155
Si Si3 0.126849 0.699131 0.864142
Si Si4 0.004436 0.230398 0.710355
Si Si5 0.276351 0.359471 0.630534
O O1 0.402619 0.449341 0.000000
O O2 0.320764 0.548539 0.879936
O O3 0.066083 0.433918 0.250000
O O4 0.192955 0.465138 0.136750
O O5 0.132379 0.320482 0.132557
O O6 0.071022 0.430306 0.000000
O O7 0.142710 0.642710 0.750000
O O8 0.194456 0.768429 0.860712
O O9 0.044386 0.741934 0.826951
O O10 0.124767 0.666511 0.000000
O O11 0.084469 0.190856 0.764499
O O12 0.303944 0.387749 0.500000
#
# Coordination Sequence:
#
# PCOD9564976 Si02
#       5
#     8  16  16  16  16
#     4  11  24  36  52  84 126 171 216 254 306 373
#     4   9  17  31  55  83 108 144 194 246 295 356
#     4  11  24  39  60  90 124 158 198 259 322 374
#     4  11  20  36  58  83 118 163 200 251 306 368
#     4   9  19  37  60  88 115 153 211 257 305 372
#
# _framework density 23.052827000000001
#
# number of rings (size 3 to 8) (size 9 to 14) (size 15 to 20)
#    0.000    1.889    1.111    4.000    1.556    0.889 
#    2.000    0.000    0.000    6.000    0.000   31.111 
#    0.000    0.000    0.000    0.000    0.000    0.000 
#
# Total GULP energy -401850.437014 kJ/mol
# GULP energy per Si atom -5581.256070 kJ/mol
# Density = 2.300036 g / cm^3
# Si number density = 23.052827 Si / 1000 Ang^3
#
#
#
# Elastic Constant Matrix: (Units=GPa)
#
#
# Indices 1 2 3 4 5 6 
#
# 1 32.5088 23.8233 16.3304 0.0000 0.0000 0.0000
# 2 23.8233 32.5081 16.3304 0.0000 0.0000 0.0000
# 3 16.3304 16.3304 223.5120 0.0000 0.0000 0.0000
# 4 0.0000 0.0000 0.0000 22.1795 0.0000 0.0000
# 5 0.0000 0.0000 0.0000 0.0000 22.1795 0.0000
# 6 0.0000 0.0000 0.0000 0.0000 0.0000 20.2938
#
#
#
# Elastic Compliance Matrix: (Units=1/GPa)
#
#
# Indices 1 2 3 4 5 6 
#
# 1 0.066837 -0.048301 -0.001354 0.000000 0.000000 0.000000
# 2 -0.048301 0.066839 -0.001354 0.000000 0.000000 0.000000
# 3 -0.001354 -0.001354 0.004672 0.000000 0.000000 0.000000
# 4 0.000000 0.000000 0.000000 0.045087 0.000000 0.000000
# 5 0.000000 0.000000 0.000000 0.000000 0.045087 0.000000
# 6 0.000000 0.000000 0.000000 0.000000 0.000000 0.049276
#
#
# Mechanical properties :
#
#
# Convention : Reuss Voigt Hill
#
# Bulk Modulus (GPa) = 27.52628 44.61079 36.06854
# Shear Modulus (GPa) = 12.75749 28.40021 20.57885
#
# Velocity S-wave (km/s) = 2.35500 3.51374 2.99102
# Velocity P-wave (km/s) = 4.40013 5.98794 5.25436
#
# Compressibility (1/GPa) = 0.03632892
#
# Stress axis : x y z
#
# Youngs Moduli (GPa) = 14.96167 14.96136 214.04376
#
# Poissons Ratio (x) = 0.72265 0.28989
# Poissons Ratio (y) = 0.72266 0.28990
# Poissons Ratio (z) = 0.02026 0.02026
#
# Static dielectric constant tensor:
#      x y z
#    x 1.884470 0.000000 0.000000 
#    y 0.000000 1.884460 0.000000 
#    z 0.000000 0.000000 1.904530 
# 
# From -- ./inp_files/2595.got.cif
#   From: 2010.05.17/outbox.cif.g08.bks.cpg/sg128_2_cif.got.tgz:2595.got - 2010.05.20 12:07:25.
