data_PCOD9564735
_publ_section_title
;
Structure prediction by ZEFSAII (Michael W. Deem and Ramdas Pophale) SiO2 
 PCOD9564735
Probable space group: P 4/M N C
;
_chemical_formula_sum "Si O2"
_cell_formula_units_Z 64
_cell_length_a 12.610325
_cell_length_b 12.610325
_cell_length_c 18.126951
_cell_angle_alpha 90.000000
_cell_angle_beta 90.000000
_cell_angle_gamma 90.000000
_cell_volume 2882.553125
_symmetry_space_group_name_H-M "P 4/M N C"
_symmetry_group_IT_number 128
_symmetry_cell_setting 'tetragonal'
loop_
_space_group_symop_operation_xyz
x,y,z
-y,x,z
-x,-y,z
y,-x,z
1/2+x,1/2-y,1/2-z
1/2-x,1/2+y,1/2-z
1/2+y,1/2+x,1/2-z
1/2-y,1/2-x,1/2-z
-x,-y,-z
y,-x,-z
x,y,-z
-y,x,-z
1/2-x,1/2+y,1/2+z
1/2+x,1/2-y,1/2+z
1/2-y,1/2-x,1/2+z
1/2+y,1/2+x,1/2+z
loop_
_atom_site_type_symbol
_atom_site_label
_atom_site_fract_x
_atom_site_fract_y
_atom_site_fract_z
Si Si1 0.737255 0.378208 0.802298
Si Si2 0.424481 0.102299 0.413668
Si Si3 0.982928 0.174027 0.157487
Si Si4 0.849435 0.096932 0.421979
O O1 0.797801 0.297801 0.750000
O O2 0.825689 0.418582 0.859758
O O3 0.691288 0.465602 0.745886
O O4 0.653477 0.309777 0.849674
O O5 0.393849 0.113905 0.500000
O O6 0.473092 0.213697 0.384195
O O7 0.500000 0.000000 0.408425
O O8 0.091903 0.112888 0.139539
O O9 0.798318 0.127079 0.500000
O O10 0.971561 0.137390 0.420560
#
# Coordination Sequence:
#
# PCOD9564735 Si02
#       4
#    16  16  16  16
#     4  10  20  35  57  88 122 166 208 261 326 392
#     4  10  23  45  65  91 132 180 229 279 341 408
#     4  10  22  42  69 100 134 177 229 285 340 401
#     4   9  17  31  54  83 114 148 187 240 306 374
#
# _framework density 22.202539000000002
#
# number of rings (size 3 to 8) (size 9 to 14) (size 15 to 20)
#    0.000    2.250    0.000    3.000    0.000    7.500 
#   22.500    1.250    0.000    0.000    0.000    0.000 
#    0.000    0.000    0.000    0.000    0.000    0.000 
#
# Total GULP energy -357015.344072 kJ/mol
# GULP energy per Si atom -5578.364751 kJ/mol
# Density = 2.215201 g / cm^3
# Si number density = 22.202539 Si / 1000 Ang^3
#
#
#
# Elastic Constant Matrix: (Units=GPa)
#
#
# Indices 1 2 3 4 5 6 
#
# 1 96.9433 39.0831 31.4695 0.0000 0.0000 0.0000
# 2 39.0831 96.9433 31.4695 0.0000 0.0000 0.0000
# 3 31.4695 31.4695 107.5859 0.0000 0.0000 0.0000
# 4 0.0000 0.0000 0.0000 18.6774 0.0000 0.0000
# 5 0.0000 0.0000 0.0000 0.0000 18.6774 0.0000
# 6 0.0000 0.0000 0.0000 0.0000 0.0000 7.1636
#
#
#
# Elastic Compliance Matrix: (Units=1/GPa)
#
#
# Indices 1 2 3 4 5 6 
#
# 1 0.012893 -0.004390 -0.002487 0.000000 0.000000 0.000000
# 2 -0.004390 0.012893 -0.002487 0.000000 0.000000 0.000000
# 3 -0.002487 -0.002487 0.010750 0.000000 0.000000 0.000000
# 4 0.000000 0.000000 0.000000 0.053541 0.000000 0.000000
# 5 0.000000 0.000000 0.000000 0.000000 0.053541 0.000000
# 6 0.000000 0.000000 0.000000 0.000000 0.000000 0.139595
#
#
# Mechanical properties :
#
#
# Convention : Reuss Voigt Hill
#
# Bulk Modulus (GPa) = 56.15947 56.16852 56.16399
# Shear Modulus (GPa) = 16.24034 22.20036 19.22035
#
# Velocity S-wave (km/s) = 2.70749 3.16555 2.94544
# Velocity P-wave (km/s) = 5.92647 6.22207 6.07607
#
# Compressibility (1/GPa) = 0.01780644
#
# Stress axis : x y z
#
# Youngs Moduli (GPa) = 77.56365 77.56365 93.02509
#
# Poissons Ratio (x) = 0.34054 0.23135
# Poissons Ratio (y) = 0.34054 0.23135
# Poissons Ratio (z) = 0.19290 0.19290
#
# Static dielectric constant tensor:
#      x y z
#    x 1.863930 0.000000 0.000000 
#    y 0.000000 1.863930 0.000000 
#    z 0.000000 0.000000 1.962470 
# 
# From -- ./inp_files/4462.got.cif
#   From: 2010.05.17/outbox.cif.g08.bks.cpg/sg128_3_cif.got.tgz:4462.got - 2010.05.20 12:07:25.
