data_PCOD9564927
_publ_section_title
;
Structure prediction by ZEFSAII (Michael W. Deem and Ramdas Pophale) SiO2 
 PCOD9564927
Probable space group: P 4/M N C
;
_chemical_formula_sum "Si O2"
_cell_formula_units_Z 88
_cell_length_a 10.686819
_cell_length_b 10.686819
_cell_length_c 32.440488
_cell_angle_alpha 90.000000
_cell_angle_beta 90.000000
_cell_angle_gamma 90.000000
_cell_volume 3704.966509
_symmetry_space_group_name_H-M "P 4/M N C"
_symmetry_group_IT_number 128
_symmetry_cell_setting 'tetragonal'
loop_
_space_group_symop_operation_xyz
x,y,z
-y,x,z
-x,-y,z
y,-x,z
1/2+x,1/2-y,1/2-z
1/2-x,1/2+y,1/2-z
1/2+y,1/2+x,1/2-z
1/2-y,1/2-x,1/2-z
-x,-y,-z
y,-x,-z
x,y,-z
-y,x,-z
1/2-x,1/2+y,1/2+z
1/2+x,1/2-y,1/2+z
1/2-y,1/2-x,1/2+z
1/2+y,1/2+x,1/2+z
loop_
_atom_site_type_symbol
_atom_site_label
_atom_site_fract_x
_atom_site_fract_y
_atom_site_fract_z
Si Si1 0.991237 0.788716 0.089743
Si Si2 0.295887 0.117118 0.317580
Si Si3 0.287339 0.498877 0.500000
Si Si4 0.413325 0.693069 0.954519
Si Si5 0.821568 0.632738 0.132470
Si Si6 0.452443 0.302741 0.270074
O O1 0.958124 0.693078 0.125462
O O2 0.113240 0.875191 0.092773
O O3 0.000268 0.724669 0.044646
O O4 0.217338 0.223606 0.341735
O O5 0.412651 0.180732 0.294584
O O6 0.218074 0.061570 0.278771
O O7 0.324852 0.002332 0.347130
O O8 0.381513 0.380606 0.500000
O O9 0.340985 0.560439 0.952913
O O10 0.378385 0.769616 0.914286
O O11 0.387361 0.749653 0.000000
O O12 0.588400 0.353562 0.280784
#
# Coordination Sequence:
#
# PCOD9564927 Si02
#       6
#    16  16   8  16  16  16
#     4   9  20  39  63  92 133 189 251 296 349 411
#     4  11  24  40  67 107 136 174 228 281 351 427
#     4   7  12  30  60  90 120 173 250 309 333 393
#     4   9  18  33  57  91 132 186 242 277 322 408
#     4  12  22  38  66  97 147 181 222 291 356 413
#     4  10  22  46  77  99 131 179 230 282 350 429
#
# _framework density 23.751902999999999
#
# number of rings (size 3 to 8) (size 9 to 14) (size 15 to 20)
#    0.000    2.091    3.636    1.636    1.273    1.818 
#    0.000    5.455    0.000    0.000    0.000    6.364 
#    0.000    0.000    0.000    0.000    0.000    0.000 
#
# Total GULP energy -492316.678919 kJ/mol
# GULP energy per Si atom -5594.507715 kJ/mol
# Density = 2.369784 g / cm^3
# Si number density = 23.751903 Si / 1000 Ang^3
#
#
#
# Elastic Constant Matrix: (Units=GPa)
#
#
# Indices 1 2 3 4 5 6 
#
# 1 12.6682 53.7234 39.5057 0.0000 0.0000 0.0000
# 2 53.7234 12.6682 39.5057 0.0000 0.0000 0.0000
# 3 39.5057 39.5057 151.7400 0.0000 0.0000 0.0000
# 4 0.0000 0.0000 0.0000 40.2612 0.0000 0.0000
# 5 0.0000 0.0000 0.0000 0.0000 40.2612 0.0000
# 6 0.0000 0.0000 0.0000 0.0000 0.0000 17.7290
#
#
#
# Elastic Compliance Matrix: (Units=1/GPa)
#
#
# Indices 1 2 3 4 5 6 
#
# 1 -0.001267 0.023091 -0.005682 0.000000 0.000000 0.000000
# 2 0.023091 -0.001267 -0.005682 0.000000 0.000000 0.000000
# 3 -0.005682 -0.005682 0.009549 0.000000 0.000000 0.000000
# 4 0.000000 0.000000 0.000000 0.024838 0.000000 0.000000
# 5 0.000000 0.000000 0.000000 0.000000 0.024838 0.000000
# 6 0.000000 0.000000 0.000000 0.000000 0.000000 0.056405
#
#
# Mechanical properties :
#
#
# Convention : Reuss Voigt Hill
#
# Bulk Modulus (GPa) = 32.81992 49.17178 40.99585
# Shear Modulus (GPa) = 50.10104 22.60640 36.35372
#
# Velocity S-wave (km/s) = 4.59775 3.08843 3.91648
# Velocity P-wave (km/s) = 6.48332 5.78490 6.14404
#
# Compressibility (1/GPa) = 0.03046930
#
# Stress axis : x y z
#
# Youngs Moduli (GPa) = -789.47395 -789.47395 104.72501
#
# Poissons Ratio (x) = 18.22957 0.59504
# Poissons Ratio (y) = 18.22957 0.59504
# Poissons Ratio (z) = -4.48574 -4.48574
#
# Static dielectric constant tensor:
#      x y z
#    x 1.892600 0.000000 0.000000 
#    y 0.000000 1.892600 0.000000 
#    z 0.000000 0.000000 1.911060 
# 
# From -- ./inp_files/7252.got.cif
#   From: 2010.05.17/outbox.cif.g08.bks.cpg/sg128_4_cif.got.tgz:7252.got - 2010.05.20 12:07:25.
