data_PCOD9564736
_publ_section_title
;
Structure prediction by ZEFSAII (Michael W. Deem and Ramdas Pophale) SiO2 
 PCOD9564736
Probable space group: P 4/M N C
;
_chemical_formula_sum "Si O2"
_cell_formula_units_Z 104
_cell_length_a 16.727090
_cell_length_b 16.727090
_cell_length_c 21.374641
_cell_angle_alpha 90.000000
_cell_angle_beta 90.000000
_cell_angle_gamma 90.000000
_cell_volume 5980.529218
_symmetry_space_group_name_H-M "P 4/M N C"
_symmetry_group_IT_number 128
_symmetry_cell_setting 'tetragonal'
loop_
_space_group_symop_operation_xyz
x,y,z
-y,x,z
-x,-y,z
y,-x,z
1/2+x,1/2-y,1/2-z
1/2-x,1/2+y,1/2-z
1/2+y,1/2+x,1/2-z
1/2-y,1/2-x,1/2-z
-x,-y,-z
y,-x,-z
x,y,-z
-y,x,-z
1/2-x,1/2+y,1/2+z
1/2+x,1/2-y,1/2+z
1/2-y,1/2-x,1/2+z
1/2+y,1/2+x,1/2+z
loop_
_atom_site_type_symbol
_atom_site_label
_atom_site_fract_x
_atom_site_fract_y
_atom_site_fract_z
Si Si1 0.978366 0.134424 0.244673
Si Si2 0.519376 0.631234 0.500000
Si Si3 0.796797 0.102417 0.427594
Si Si4 0.166226 0.271369 0.925904
Si Si5 0.006906 0.761018 0.120876
Si Si6 0.931518 0.209802 0.373580
Si Si7 0.844991 0.317352 0.075287
O O1 0.975540 0.188651 0.182854
O O2 0.963233 0.191767 0.304043
O O3 0.063800 0.088270 0.245520
O O4 0.434971 0.587103 0.500000
O O5 0.524571 0.682728 0.438339
O O6 0.810698 0.123463 0.500000
O O7 0.715464 0.148425 0.409763
O O8 0.870607 0.138405 0.389769
O O9 0.791529 0.008803 0.417498
O O10 0.231727 0.200914 0.917821
O O11 0.086287 0.261462 0.885869
O O12 0.144371 0.273417 0.000000
O O13 0.069244 0.689542 0.108561
O O14 0.881910 0.289430 0.389927
O O15 0.850491 0.332600 0.000000
#
# Coordination Sequence:
#
# PCOD9564736 Si02
#       7
#    16   8  16  16  16  16  16
#     4  11  23  38  55  84 124 158 192 241 295 362
#     4  11  20  30  52  84 109 142 196 240 289 348
#     4  10  20  36  61  88 113 149 197 256 308 354
#     4   9  18  34  55  84 118 149 193 249 297 344
#     4  12  21  35  57  81 119 161 192 236 297 347
#     4  11  21  38  57  83 118 153 193 249 306 354
#     4  10  20  35  58  87 114 148 202 257 291 350
#
# _framework density 17.389765000000001
#
# number of rings (size 3 to 8) (size 9 to 14) (size 15 to 20)
#    0.000    1.462    3.077    5.077    0.000    2.154 
#    0.000    2.308    0.000    2.769    0.000    2.154 
#    0.000    0.000    0.000    0.000    0.000    0.000 
#
# Total GULP energy -580379.586913 kJ/mol
# GULP energy per Si atom -5580.572951 kJ/mol
# Density = 1.735019 g / cm^3
# Si number density = 17.389765 Si / 1000 Ang^3
#
#
#
# Elastic Constant Matrix: (Units=GPa)
#
#
# Indices 1 2 3 4 5 6 
#
# 1 75.9779 34.5721 30.2786 0.0000 0.0000 0.0000
# 2 34.5721 75.9779 30.2786 0.0000 0.0000 0.0000
# 3 30.2786 30.2786 98.2767 0.0000 0.0000 0.0000
# 4 0.0000 0.0000 0.0000 25.4026 0.0000 0.0000
# 5 0.0000 0.0000 0.0000 0.0000 25.4026 0.0000
# 6 0.0000 0.0000 0.0000 0.0000 0.0000 20.0649
#
#
#
# Elastic Compliance Matrix: (Units=1/GPa)
#
#
# Indices 1 2 3 4 5 6 
#
# 1 0.017517 -0.006634 -0.003353 0.000000 0.000000 0.000000
# 2 -0.006634 0.017517 -0.003353 0.000000 0.000000 0.000000
# 3 -0.003353 -0.003353 0.012241 0.000000 0.000000 0.000000
# 4 0.000000 0.000000 0.000000 0.039366 0.000000 0.000000
# 5 0.000000 0.000000 0.000000 0.000000 0.039366 0.000000
# 6 0.000000 0.000000 0.000000 0.000000 0.000000 0.049838
#
#
# Mechanical properties :
#
#
# Convention : Reuss Voigt Hill
#
# Bulk Modulus (GPa) = 48.55609 48.94344 48.74977
# Shear Modulus (GPa) = 23.87886 24.51423 24.19654
#
# Velocity S-wave (km/s) = 3.70963 3.75866 3.73423
# Velocity P-wave (km/s) = 6.80671 6.85877 6.83279
#
# Compressibility (1/GPa) = 0.02059474
#
# Stress axis : x y z
#
# Youngs Moduli (GPa) = 57.08825 57.08825 81.69068
#
# Poissons Ratio (x) = 0.37875 0.27389
# Poissons Ratio (y) = 0.37875 0.27389
# Poissons Ratio (z) = 0.19140 0.19140
#
# Static dielectric constant tensor:
#      x y z
#    x 1.608670 0.000000 0.000000 
#    y 0.000000 1.608670 0.000000 
#    z 0.000000 0.000000 1.578610 
# 
# From -- ./inp_files/4888.got.cif
#   From: 2010.05.17/outbox.cif.g08.bks.cpg/sg128_3_cif.got.tgz:4888.got - 2010.05.20 12:07:25.
