data_PCOD9564511
_publ_section_title
;
Structure prediction by ZEFSAII (Michael W. Deem and Ramdas Pophale) SiO2 
 PCOD9564511
Probable space group: P 4/M B M
;
_chemical_formula_sum "Si O2"
_cell_formula_units_Z 96
_cell_length_a 24.000000
_cell_length_b 24.000000
_cell_length_c 9.000000
_cell_angle_alpha 90.000000
_cell_angle_beta 90.000000
_cell_angle_gamma 90.000000
_cell_volume 5184.000000
_symmetry_space_group_name_H-M "P 4/M B M"
_symmetry_group_IT_number 127
_symmetry_cell_setting 'tetragonal'
loop_
_space_group_symop_operation_xyz
x,y,z
-y,x,z
-x,-y,z
y,-x,z
1/2+x,1/2-y,-z
1/2-x,1/2+y,-z
1/2+y,1/2+x,-z
1/2-y,1/2-x,-z
-x,-y,-z
y,-x,-z
x,y,-z
-y,x,-z
1/2-x,1/2+y,z
1/2+x,1/2-y,z
1/2-y,1/2-x,z
1/2+y,1/2+x,z
loop_
_atom_site_type_symbol
_atom_site_label
_atom_site_fract_x
_atom_site_fract_y
_atom_site_fract_z
Si Si1 0.475889 0.786073 0.819047
Si Si2 0.418390 0.540376 0.321322
Si Si3 0.433509 0.302244 0.822863
Si Si4 0.409983 0.001002 0.181032
Si Si5 0.148674 0.257963 0.827374
Si Si6 0.231186 0.176475 0.674626
O O1 0.514496 0.735152 0.772042
O O2 0.496266 0.846660 0.766620
O O3 0.412563 0.774267 0.776833
O O4 0.477229 0.787863 0.000000
O O5 0.427768 0.475422 0.279972
O O6 0.413646 0.543002 0.500000
O O7 0.363329 0.564268 0.247654
O O8 0.378904 0.269880 0.770161
O O9 0.434464 0.307194 0.000000
O O10 0.444307 0.055694 0.228590
O O11 0.447350 0.947350 0.223089
O O12 0.409073 0.001640 0.000000
O O13 0.187765 0.312236 0.824701
O O14 0.177914 0.212319 0.725794
O O15 0.146759 0.238420 0.000000
O O16 0.228511 0.164117 0.500000
O O17 0.284632 0.215369 0.703422
#
# Coordination Sequence:
#
# PCOD9564511 Si02
#       6
#    16  16  16  16  16  16
#     4   9  18  30  45  74 111 141 171 213 264 318
#     4   9  20  40  62  82 107 143 186 229 277 333
#     4  11  23  35  53  83 116 147 181 224 276 334
#     4   8  13  23  42  68 100 140 179 211 250 305
#     4   9  17  32  56  82 108 139 176 222 274 322
#     4  10  22  40  58  76 103 142 188 231 273 327
#
# _framework density 18.518519000000001
#
# number of rings (size 3 to 8) (size 9 to 14) (size 15 to 20)
#    0.000    2.667    0.000    2.500    2.333    4.333 
#    0.000    3.333    0.000    0.000    0.000    0.000 
#    0.000    0.000    0.000   17.000    0.000   15.333 
#
# Total GULP energy -535404.467691 kJ/mol
# GULP energy per Si atom -5577.129872 kJ/mol
# Density = 1.847637 g / cm^3
# Si number density = 18.518519 Si / 1000 Ang^3
#
#
#
# Elastic Constant Matrix: (Units=GPa)
#
#
# Indices 1 2 3 4 5 6 
#
# 1 -38.0134 60.3765 9.1067 0.0000 0.0000 0.0000
# 2 60.3765 -38.0134 9.1067 0.0000 0.0000 0.0000
# 3 9.1067 9.1067 14.6883 0.0000 0.0000 0.0000
# 4 0.0000 0.0000 0.0000 13.4480 0.0000 0.0000
# 5 0.0000 0.0000 0.0000 0.0000 13.4480 0.0000
# 6 0.0000 0.0000 0.0000 0.0000 0.0000 0.1555
#
#
#
# Elastic Compliance Matrix: (Units=1/GPa)
#
#
# Indices 1 2 3 4 5 6 
#
# 1 0.040082 0.050245 -0.056002 0.000000 0.000000 0.000000
# 2 0.050245 0.040082 -0.056002 0.000000 0.000000 0.000000
# 3 -0.056002 -0.056002 0.137524 0.000000 0.000000 0.000000
# 4 0.000000 0.000000 0.000000 0.074360 0.000000 0.000000
# 5 0.000000 0.000000 0.000000 0.000000 0.074360 0.000000
# 6 0.000000 0.000000 0.000000 0.000000 0.000000 6.432334
#
#
# Mechanical properties :
#
#
# Convention : Reuss Voigt Hill
#
# Bulk Modulus (GPa) = 10.61928 10.64904 10.63416
# Shear Modulus (GPa) = 0.71905 -3.91825 -1.59960
#
# Velocity S-wave (km/s) = 0.62380 -1.45618 -0.93041
# Velocity P-wave (km/s) = 2.50314 1.71339 2.14492
#
# Compressibility (1/GPa) = 0.09416832
#
# Stress axis : x y z
#
# Youngs Moduli (GPa) = 24.94905 24.94905 7.27146
#
# Poissons Ratio (x) = -1.25357 0.40722
# Poissons Ratio (y) = -1.25357 0.40722
# Poissons Ratio (z) = 1.39721 1.39721
#
# Static dielectric constant tensor:
#      x y z
#    x 1.631320 0.000000 0.000000 
#    y 0.000000 1.631320 0.000000 
#    z 0.000000 0.000000 1.629810 
# 
# From -- ./inp_files/1955.got.cif
#   From: 2010.05.17/outbox.ucp.g08.bks.cvg/sg127_1_cif.got.tgz:1955.got - 2010.06.11 11:37:05.
