data_PCOD9564193
_publ_section_title
;
Structure prediction by ZEFSAII (Michael W. Deem and Ramdas Pophale) SiO2 
 PCOD9564193
Probable space group: P 4/M B M
;
_chemical_formula_sum "Si O2"
_cell_formula_units_Z 96
_cell_length_a 24.245803
_cell_length_b 24.245803
_cell_length_c 8.917013
_cell_angle_alpha 90.000000
_cell_angle_beta 90.000000
_cell_angle_gamma 90.000000
_cell_volume 5241.946016
_symmetry_space_group_name_H-M "P 4/M B M"
_symmetry_group_IT_number 127
_symmetry_cell_setting 'tetragonal'
loop_
_space_group_symop_operation_xyz
x,y,z
-y,x,z
-x,-y,z
y,-x,z
1/2+x,1/2-y,-z
1/2-x,1/2+y,-z
1/2+y,1/2+x,-z
1/2-y,1/2-x,-z
-x,-y,-z
y,-x,-z
x,y,-z
-y,x,-z
1/2-x,1/2+y,z
1/2+x,1/2-y,z
1/2-y,1/2-x,z
1/2+y,1/2+x,z
loop_
_atom_site_type_symbol
_atom_site_label
_atom_site_fract_x
_atom_site_fract_y
_atom_site_fract_z
Si Si1 0.577380 0.550098 0.335021
Si Si2 0.358136 0.366309 0.827080
Si Si3 0.055358 0.355188 0.179951
Si Si4 0.735942 0.569396 0.320907
Si Si5 0.557765 0.720456 0.320880
Si Si6 0.069694 0.660252 0.179892
O O1 0.515333 0.572963 0.331376
O O2 0.601433 0.565633 0.500000
O O3 0.609269 0.576524 0.199078
O O4 0.300954 0.381278 0.745493
O O5 0.398728 0.321598 0.752131
O O6 0.349471 0.353180 0.000000
O O7 0.095268 0.404733 0.227068
O O8 0.071353 0.297569 0.256111
O O9 0.990737 0.364962 0.212223
O O10 0.060298 0.348763 0.000000
O O11 0.737353 0.572448 0.500000
O O12 0.712823 0.507488 0.281089
O O13 0.561543 0.715813 0.500000
O O14 0.572681 0.781818 0.265280
O O15 0.118062 0.618062 0.220132
O O16 0.072437 0.670403 0.000000
#
# Coordination Sequence:
#
# PCOD9564193 Si02
#       6
#    16  16  16  16  16  16
#     4   9  18  32  48  67  95 131 170 215 267 320
#     4  12  23  33  50  75 102 135 178 226 272 320
#     4   9  18  34  57  85 116 146 175 211 258 313
#     4  10  21  37  56  77 105 143 184 225 269 317
#     4  10  21  37  56  77 105 143 184 225 269 317
#     4   9  18  34  57  85 116 146 175 211 258 313
#
# _framework density 18.31381
#
# number of rings (size 3 to 8) (size 9 to 14) (size 15 to 20)
#    0.000    2.167    0.000    4.000    0.000    7.667 
#    0.000    3.333    0.000    5.000    0.000    4.667 
#    0.000    0.000    0.000    0.000    0.000    0.000 
#
# Total GULP energy -535569.375442 kJ/mol
# GULP energy per Si atom -5578.847661 kJ/mol
# Density = 1.827213 g / cm^3
# Si number density = 18.313810 Si / 1000 Ang^3
#
#
#
# Elastic Constant Matrix: (Units=GPa)
#
#
# Indices 1 2 3 4 5 6 
#
# 1 80.9123 59.5297 39.8334 0.0000 0.0000 0.0000
# 2 59.5297 80.9123 39.8334 0.0000 0.0000 0.0000
# 3 39.8334 39.8334 58.2653 0.0000 0.0000 0.0000
# 4 0.0000 0.0000 0.0000 20.7651 0.0000 0.0000
# 5 0.0000 0.0000 0.0000 0.0000 20.7651 0.0000
# 6 0.0000 0.0000 0.0000 0.0000 0.0000 38.3298
#
#
#
# Elastic Compliance Matrix: (Units=1/GPa)
#
#
# Indices 1 2 3 4 5 6 
#
# 1 0.029199 -0.017568 -0.007952 0.000000 0.000000 0.000000
# 2 -0.017568 0.029199 -0.007952 0.000000 0.000000 0.000000
# 3 -0.007952 -0.007952 0.028035 0.000000 0.000000 0.000000
# 4 0.000000 0.000000 0.000000 0.048158 0.000000 0.000000
# 5 0.000000 0.000000 0.000000 0.000000 0.048158 0.000000
# 6 0.000000 0.000000 0.000000 0.000000 0.000000 0.026089
#
#
# Mechanical properties :
#
#
# Convention : Reuss Voigt Hill
#
# Bulk Modulus (GPa) = 51.30632 55.38700 53.34666
# Shear Modulus (GPa) = 17.71306 21.36488 19.53897
#
# Velocity S-wave (km/s) = 3.11335 3.41926 3.26988
# Velocity P-wave (km/s) = 6.40311 6.77476 6.59156
#
# Compressibility (1/GPa) = 0.01949078
#
# Stress axis : x y z
#
# Youngs Moduli (GPa) = 34.24770 34.24770 35.66946
#
# Poissons Ratio (x) = 0.60167 0.28363
# Poissons Ratio (y) = 0.60167 0.28363
# Poissons Ratio (z) = 0.27232 0.27232
#
# Static dielectric constant tensor:
#      x y z
#    x 1.633910 0.000000 0.000000 
#    y 0.000000 1.633910 0.000000 
#    z 0.000000 0.000000 1.629550 
# 
# From -- ./inp_files/1975.got.cif
#   From: 2010.05.17/outbox.cif.g08.bks.cpg/sg127_1_cif.got.tgz:1975.got - 2010.05.20 12:03:00.
