data_PCOD9564882
_publ_section_title
;
Structure prediction by ZEFSAII (Michael W. Deem and Ramdas Pophale) SiO2 
 PCOD9564882
Probable space group: P 4/M N C
;
_chemical_formula_sum "Si O2"
_cell_formula_units_Z 56
_cell_length_a 12.185408
_cell_length_b 12.185408
_cell_length_c 19.309048
_cell_angle_alpha 90.000000
_cell_angle_beta 90.000000
_cell_angle_gamma 90.000000
_cell_volume 2867.087930
_symmetry_space_group_name_H-M "P 4/M N C"
_symmetry_group_IT_number 128
_symmetry_cell_setting 'tetragonal'
loop_
_space_group_symop_operation_xyz
x,y,z
-y,x,z
-x,-y,z
y,-x,z
1/2+x,1/2-y,1/2-z
1/2-x,1/2+y,1/2-z
1/2+y,1/2+x,1/2-z
1/2-y,1/2-x,1/2-z
-x,-y,-z
y,-x,-z
x,y,-z
-y,x,-z
1/2-x,1/2+y,1/2+z
1/2+x,1/2-y,1/2+z
1/2-y,1/2-x,1/2+z
1/2+y,1/2+x,1/2+z
loop_
_atom_site_type_symbol
_atom_site_label
_atom_site_fract_x
_atom_site_fract_y
_atom_site_fract_z
Si Si1 0.000000 0.500000 0.881914
Si Si2 0.173168 0.448190 0.000000
Si Si3 0.345040 0.593894 0.776244
Si Si4 0.300568 0.139937 0.850434
Si Si5 0.277047 0.195565 0.500000
O O1 0.050935 0.602150 0.840950
O O2 0.094853 0.454059 0.932697
O O3 0.237895 0.563462 0.000000
O O4 0.244753 0.339417 0.000000
O O5 0.354611 0.464113 0.788017
O O6 0.255427 0.649681 0.825041
O O7 0.301564 0.612674 0.698193
O O8 0.275909 0.153775 0.931357
#
# Coordination Sequence:
#
# PCOD9564882 Si02
#       5
#     8   8  16  16   8
#     4   9  20  37  58  90 118 156 196 260 294 370
#     4   9  20  37  56  89 132 144 206 250 309 371
#     4  10  24  42  59  89 128 163 206 253 300 370
#     4  10  23  40  65  90 120 164 208 247 317 365
#     4  10  22  37  62  98 115 166 201 261 313 358
#
# _framework density 19.532015000000001
#
# number of rings (size 3 to 8) (size 9 to 14) (size 15 to 20)
#    0.000    2.286    0.000    0.857   12.000    4.857 
#    0.000    0.000    0.000    1.714    0.000    0.000 
#    0.000    0.000    0.000    0.000    0.000    0.000 
#
# Total GULP energy -312820.311124 kJ/mol
# GULP energy per Si atom -5586.076984 kJ/mol
# Density = 1.948756 g / cm^3
# Si number density = 19.532015 Si / 1000 Ang^3
#
#
#
# Elastic Constant Matrix: (Units=GPa)
#
#
# Indices 1 2 3 4 5 6 
#
# 1 59.3113 36.9861 -9.6217 0.0000 0.0000 0.0000
# 2 36.9861 59.3113 -9.6217 0.0000 0.0000 0.0000
# 3 -9.6217 -9.6217 73.6327 0.0000 0.0000 0.0000
# 4 0.0000 0.0000 0.0000 -0.8939 0.0000 0.0000
# 5 0.0000 0.0000 0.0000 0.0000 -0.8939 0.0000
# 6 0.0000 0.0000 0.0000 0.0000 0.0000 26.9035
#
#
#
# Elastic Compliance Matrix: (Units=1/GPa)
#
#
# Indices 1 2 3 4 5 6 
#
# 1 0.027728 -0.017065 0.001393 0.000000 0.000000 0.000000
# 2 -0.017065 0.027728 0.001393 0.000000 0.000000 0.000000
# 3 0.001393 0.001393 0.013945 0.000000 0.000000 0.000000
# 4 0.000000 0.000000 0.000000 -1.118699 0.000000 0.000000
# 5 0.000000 0.000000 0.000000 0.000000 -1.118699 0.000000
# 6 0.000000 0.000000 0.000000 0.000000 0.000000 0.037170
#
#
# Mechanical properties :
#
#
# Convention : Reuss Voigt Hill
#
# Bulk Modulus (GPa) = 24.48323 25.30452 24.89388
# Shear Modulus (GPa) = -2.39388 16.65732 7.13172
#
# Velocity S-wave (km/s) = -1.10828 2.92348 1.91291
# Velocity P-wave (km/s) = 3.30521 4.93753 4.20140
#
# Compressibility (1/GPa) = 0.04084429
#
# Stress axis : x y z
#
# Youngs Moduli (GPa) = 36.06498 36.06498 71.71001
#
# Poissons Ratio (x) = 0.61544 -0.09992
# Poissons Ratio (y) = 0.61544 -0.09992
# Poissons Ratio (z) = -0.05025 -0.05025
#
# Static dielectric constant tensor:
#      x y z
#    x 1.659000 0.000000 0.000000 
#    y 0.000000 1.659000 0.000000 
#    z 0.000000 0.000000 1.710970 
# 
# From -- ./inp_files/5353.got.cif
#   From: 2010.05.17/outbox.cif.g08.bks.cpg/sg128_3_cif.got.tgz:5353.got - 2010.05.20 12:07:25.
