data_PCOD9564739
_publ_section_title
;
Structure prediction by ZEFSAII (Michael W. Deem and Ramdas Pophale) SiO2 
 PCOD9564739
Probable space group: P 4/M N C
;
_chemical_formula_sum "Si O2"
_cell_formula_units_Z 104
_cell_length_a 19.504691
_cell_length_b 19.504691
_cell_length_c 16.138063
_cell_angle_alpha 90.000000
_cell_angle_beta 90.000000
_cell_angle_gamma 90.000000
_cell_volume 6139.451253
_symmetry_space_group_name_H-M "P 4/M N C"
_symmetry_group_IT_number 128
_symmetry_cell_setting 'tetragonal'
loop_
_space_group_symop_operation_xyz
x,y,z
-y,x,z
-x,-y,z
y,-x,z
1/2+x,1/2-y,1/2-z
1/2-x,1/2+y,1/2-z
1/2+y,1/2+x,1/2-z
1/2-y,1/2-x,1/2-z
-x,-y,-z
y,-x,-z
x,y,-z
-y,x,-z
1/2-x,1/2+y,1/2+z
1/2+x,1/2-y,1/2+z
1/2-y,1/2-x,1/2+z
1/2+y,1/2+x,1/2+z
loop_
_atom_site_type_symbol
_atom_site_label
_atom_site_fract_x
_atom_site_fract_y
_atom_site_fract_z
Si Si1 0.653777 0.735674 0.500000
Si Si2 0.496573 0.689061 0.500000
Si Si3 0.715854 0.807434 0.656763
Si Si4 0.556663 0.315780 0.164160
Si Si5 0.613080 0.520824 0.328435
Si Si6 0.696521 0.159886 0.660059
Si Si7 0.091151 0.823171 0.404040
Si Si8 0.628563 0.218109 0.500000
O O1 0.577489 0.705248 0.500000
O O2 0.666723 0.780377 0.583444
O O3 0.712553 0.676261 0.500000
O O4 0.477208 0.645831 0.418809
O O5 0.449315 0.756482 0.500000
O O6 0.687558 0.812443 0.750000
O O7 0.777257 0.751224 0.659507
O O8 0.753188 0.877514 0.631800
O O9 0.534483 0.330271 0.258627
O O10 0.592148 0.242540 0.151438
O O11 0.489619 0.325305 0.109093
O O12 0.613321 0.372494 0.141021
O O13 0.553026 0.576931 0.318585
O O14 0.661369 0.161369 0.750000
O O15 0.648160 0.175596 0.582191
O O16 0.110391 0.827029 0.500000
#
# Coordination Sequence:
#
# PCOD9564739 Si02
#       8
#     8   8  16  16  16  16  16   8
#     4  10  20  36  57  80 109 145 188 233 279 336
#     4  12  24  33  58  80 109 148 194 230 276 336
#     4   9  19  35  56  78 106 142 182 234 282 323
#     4  11  22  35  56  79 110 150 186 224 274 330
#     4  11  22  37  49  76 118 158 189 218 259 325
#     4   9  19  34  53  73 103 138 180 227 276 321
#     4  11  22  36  55  82 112 147 186 228 274 334
#     4  10  20  36  53  78 107 137 178 233 279 326
#
# _framework density 16.939624999999999
#
# number of rings (size 3 to 8) (size 9 to 14) (size 15 to 20)
#    0.000    1.692    2.308    2.769    6.462    3.385 
#    0.000    0.769    0.000    0.000    0.000    2.154 
#    0.000    0.000    0.000    0.000    0.000    0.000 
#
# Total GULP energy -580438.501133 kJ/mol
# GULP energy per Si atom -5581.139434 kJ/mol
# Density = 1.690107 g / cm^3
# Si number density = 16.939625 Si / 1000 Ang^3
#
#
#
# Elastic Constant Matrix: (Units=GPa)
#
#
# Indices 1 2 3 4 5 6 
#
# 1 36.4979 32.8955 27.6862 0.0000 0.0000 0.0000
# 2 32.8955 36.4984 27.6864 0.0000 0.0000 0.0000
# 3 27.6862 27.6864 128.3097 0.0000 0.0000 0.0000
# 4 0.0000 0.0000 0.0000 22.8949 0.0000 0.0000
# 5 0.0000 0.0000 0.0000 0.0000 22.8950 0.0000
# 6 0.0000 0.0000 0.0000 0.0000 0.0000 11.0171
#
#
#
# Elastic Compliance Matrix: (Units=1/GPa)
#
#
# Indices 1 2 3 4 5 6 
#
# 1 0.147493 -0.130085 -0.003756 0.000000 0.000000 0.000000
# 2 -0.130085 0.147492 -0.003756 0.000000 0.000000 0.000000
# 3 -0.003756 -0.003756 0.009415 0.000000 0.000000 0.000000
# 4 0.000000 0.000000 0.000000 0.043678 0.000000 0.000000
# 5 0.000000 0.000000 0.000000 0.000000 0.043678 0.000000
# 6 0.000000 0.000000 0.000000 0.000000 0.000000 0.090768
#
#
# Mechanical properties :
#
#
# Convention : Reuss Voigt Hill
#
# Bulk Modulus (GPa) = 34.24021 41.98247 38.11134
# Shear Modulus (GPa) = 6.51506 18.89727 12.70617
#
# Velocity S-wave (km/s) = 1.96326 3.34363 2.74174
# Velocity P-wave (km/s) = 5.03946 6.30428 5.70702
#
# Compressibility (1/GPa) = 0.02920543
#
# Stress axis : x y z
#
# Youngs Moduli (GPa) = 6.77996 6.78005 106.21748
#
# Poissons Ratio (x) = 0.88198 0.39897
# Poissons Ratio (y) = 0.88197 0.39898
# Poissons Ratio (z) = 0.02547 0.02547
#
# Static dielectric constant tensor:
#      x y z
#    x 1.559170 0.000000 0.000000 
#    y 0.000000 1.559170 0.000000 
#    z 0.000000 0.000000 1.618750 
# 
# From -- ./inp_files/4927.got.cif
#   From: 2010.05.17/outbox.cif.g08.bks.cpg/sg128_3_cif.got.tgz:4927.got - 2010.05.20 12:07:25.
