data_PCOD9564917
_publ_section_title
;
Structure prediction by ZEFSAII (Michael W. Deem and Ramdas Pophale) SiO2 
 PCOD9564917
Probable space group: P 4/M N C
;
_chemical_formula_sum "Si O2"
_cell_formula_units_Z 48
_cell_length_a 11.597550
_cell_length_b 11.597550
_cell_length_c 17.783886
_cell_angle_alpha 90.000000
_cell_angle_beta 90.000000
_cell_angle_gamma 90.000000
_cell_volume 2391.988971
_symmetry_space_group_name_H-M "P 4/M N C"
_symmetry_group_IT_number 128
_symmetry_cell_setting 'tetragonal'
loop_
_space_group_symop_operation_xyz
x,y,z
-y,x,z
-x,-y,z
y,-x,z
1/2+x,1/2-y,1/2-z
1/2-x,1/2+y,1/2-z
1/2+y,1/2+x,1/2-z
1/2-y,1/2-x,1/2-z
-x,-y,-z
y,-x,-z
x,y,-z
-y,x,-z
1/2-x,1/2+y,1/2+z
1/2+x,1/2-y,1/2+z
1/2-y,1/2-x,1/2+z
1/2+y,1/2+x,1/2+z
loop_
_atom_site_type_symbol
_atom_site_label
_atom_site_fract_x
_atom_site_fract_y
_atom_site_fract_z
Si Si1 0.201112 0.293769 0.500000
Si Si2 0.500000 0.000000 0.871424
Si Si3 0.639654 0.139654 0.250000
Si Si4 0.332416 0.404124 0.359022
Si Si5 0.929825 0.346481 0.500000
O O1 0.256540 0.354259 0.427064
O O2 0.245288 0.162202 0.500000
O O3 0.063067 0.305495 0.500000
O O4 0.561319 0.093687 0.818638
O O5 0.417279 0.071412 0.927166
O O6 0.623156 0.268267 0.280638
O O7 0.458786 0.348970 0.364086
#
# Coordination Sequence:
#
# PCOD9564917 Si02
#       5
#     8   8   8  16   8
#     4  12  24  44  68 100 130 179 220 289 318 399
#     4  10  22  42  66 100 128 176 222 266 320 412
#     4  11  22  42  68  93 134 178 210 271 326 402
#     4  11  25  44  67  99 133 171 221 276 336 391
#     4  11  24  43  70  98 134 173 238 268 335 382
#
# _framework density 20.066980999999998
#
# number of rings (size 3 to 8) (size 9 to 14) (size 15 to 20)
#    0.000    1.000    3.333    3.000    4.667    7.000 
#    0.000    0.000    0.000    0.000    0.000    0.000 
#    0.000    0.000    0.000    0.000    0.000    0.000 
#
# Total GULP energy -268271.246322 kJ/mol
# GULP energy per Si atom -5588.984298 kJ/mol
# Density = 2.002131 g / cm^3
# Si number density = 20.066981 Si / 1000 Ang^3
#
#
#
# Elastic Constant Matrix: (Units=GPa)
#
#
# Indices 1 2 3 4 5 6 
#
# 1 161.3464 75.9025 59.8472 0.0000 0.0000 0.0000
# 2 75.9025 161.3464 59.8472 0.0000 0.0000 0.0000
# 3 59.8472 59.8472 125.7708 0.0000 0.0000 0.0000
# 4 0.0000 0.0000 0.0000 22.6788 0.0000 0.0000
# 5 0.0000 0.0000 0.0000 0.0000 22.6788 0.0000
# 6 0.0000 0.0000 0.0000 0.0000 0.0000 32.5997
#
#
#
# Elastic Compliance Matrix: (Units=1/GPa)
#
#
# Indices 1 2 3 4 5 6 
#
# 1 0.008625 -0.003079 -0.002639 0.000000 0.000000 0.000000
# 2 -0.003079 0.008625 -0.002639 0.000000 0.000000 0.000000
# 3 -0.002639 -0.002639 0.010463 0.000000 0.000000 0.000000
# 4 0.000000 0.000000 0.000000 0.044094 0.000000 0.000000
# 5 0.000000 0.000000 0.000000 0.000000 0.044094 0.000000
# 6 0.000000 0.000000 0.000000 0.000000 0.000000 0.030675
#
#
# Mechanical properties :
#
#
# Convention : Reuss Voigt Hill
#
# Bulk Modulus (GPa) = 90.92004 93.29527 92.10765
# Shear Modulus (GPa) = 29.94794 32.44925 31.19860
#
# Velocity S-wave (km/s) = 3.86735 4.02561 3.94728
# Velocity P-wave (km/s) = 8.08384 8.25835 8.17156
#
# Compressibility (1/GPa) = 0.01099868
#
# Stress axis : x y z
#
# Youngs Moduli (GPa) = 115.94135 115.94135 95.57734
#
# Poissons Ratio (x) = 0.35693 0.25225
# Poissons Ratio (y) = 0.35693 0.25225
# Poissons Ratio (z) = 0.30600 0.30600
#
# Static dielectric constant tensor:
#      x y z
#    x 1.720180 0.000000 0.000000 
#    y 0.000000 1.720180 0.000000 
#    z 0.000000 0.000000 1.716970 
# 
# From -- ./inp_files/4382.got.cif
#   From: 2010.05.17/outbox.cif.g08.bks.cpg/sg128_3_cif.got.tgz:4382.got - 2010.05.20 12:07:25.
