data_PCOD9564763
_publ_section_title
;
Structure prediction by ZEFSAII (Michael W. Deem and Ramdas Pophale) SiO2 
 PCOD9564763
Probable space group: P 4/M N C
;
_chemical_formula_sum "Si O2"
_cell_formula_units_Z 76
_cell_length_a 13.833571
_cell_length_b 13.833571
_cell_length_c 19.032654
_cell_angle_alpha 90.000000
_cell_angle_beta 90.000000
_cell_angle_gamma 90.000000
_cell_volume 3642.234966
_symmetry_space_group_name_H-M "P 4/M N C"
_symmetry_group_IT_number 128
_symmetry_cell_setting 'tetragonal'
loop_
_space_group_symop_operation_xyz
x,y,z
-y,x,z
-x,-y,z
y,-x,z
1/2+x,1/2-y,1/2-z
1/2-x,1/2+y,1/2-z
1/2+y,1/2+x,1/2-z
1/2-y,1/2-x,1/2-z
-x,-y,-z
y,-x,-z
x,y,-z
-y,x,-z
1/2-x,1/2+y,1/2+z
1/2+x,1/2-y,1/2+z
1/2-y,1/2-x,1/2+z
1/2+y,1/2+x,1/2+z
loop_
_atom_site_type_symbol
_atom_site_label
_atom_site_fract_x
_atom_site_fract_y
_atom_site_fract_z
Si Si1 0.037686 0.339669 0.854281
Si Si2 0.025824 0.714174 0.000000
Si Si3 0.161026 0.999418 0.500000
Si Si4 0.238246 0.795914 0.000000
Si Si5 0.000000 0.500000 0.250000
Si Si6 0.561072 0.347989 0.735594
Si Si7 0.395017 0.754489 0.883180
O O1 0.974610 0.337246 0.924507
O O2 0.070128 0.234138 0.824751
O O3 0.133165 0.400735 0.869381
O O4 0.992431 0.401137 0.793161
O O5 0.913567 0.753240 0.000000
O O6 0.124518 0.775104 0.000000
O O7 0.222279 0.985073 0.569324
O O8 0.089886 0.907317 0.500000
O O9 0.297523 0.752165 0.067399
O O10 0.620738 0.448063 0.730596
O O11 0.595902 0.302203 0.809935
#
# Coordination Sequence:
#
# PCOD9564763 Si02
#       7
#    16   8   8   8   4  16  16
#     4  11  25  46  67  98 145 178 237 286 347 423
#     4  10  24  44  66 102 136 187 231 300 353 420
#     4  10  20  37  66  98 129 169 218 275 347 415
#     4   9  22  40  68  98 138 182 238 287 359 417
#     4  12  24  50  72 100 136 194 226 282 352 418
#     4  11  24  42  68 101 136 180 233 296 354 410
#     4  10  20  42  62  94 141 173 221 287 340 420
#
# _framework density 20.866311
#
# number of rings (size 3 to 8) (size 9 to 14) (size 15 to 20)
#    0.000    1.579    2.105    1.895    5.895    4.000 
#    7.579    0.000    0.000    0.000    0.000    0.000 
#    0.000    0.000    0.000    0.000    0.000    0.000 
#
# Total GULP energy -423295.719456 kJ/mol
# GULP energy per Si atom -5569.680519 kJ/mol
# Density = 2.081882 g / cm^3
# Si number density = 20.866311 Si / 1000 Ang^3
#
#
#
# Elastic Constant Matrix: (Units=GPa)
#
#
# Indices 1 2 3 4 5 6 
#
# 1 46.1821 26.1279 17.0864 0.0000 0.0000 0.0000
# 2 26.1279 46.1821 17.0864 0.0000 0.0000 0.0000
# 3 17.0864 17.0864 115.0649 0.0000 0.0000 0.0000
# 4 0.0000 0.0000 0.0000 190.1017 0.0000 0.0000
# 5 0.0000 0.0000 0.0000 0.0000 190.1017 0.0000
# 6 0.0000 0.0000 0.0000 0.0000 0.0000 20.7468
#
#
#
# Elastic Compliance Matrix: (Units=1/GPa)
#
#
# Indices 1 2 3 4 5 6 
#
# 1 0.032369 -0.017496 -0.002209 0.000000 0.000000 0.000000
# 2 -0.017496 0.032369 -0.002209 0.000000 0.000000 0.000000
# 3 -0.002209 -0.002209 0.009347 0.000000 0.000000 0.000000
# 4 0.000000 0.000000 0.000000 0.005260 0.000000 0.000000
# 5 0.000000 0.000000 0.000000 0.000000 0.005260 0.000000
# 6 0.000000 0.000000 0.000000 0.000000 0.000000 0.048200
#
#
# Mechanical properties :
#
#
# Convention : Reuss Voigt Hill
#
# Bulk Modulus (GPa) = 33.04848 36.44786 34.74817
# Shear Modulus (GPa) = 26.77844 89.99860 58.38852
#
# Velocity S-wave (km/s) = 3.58625 6.57455 5.29556
# Velocity P-wave (km/s) = 5.74638 8.66823 7.35388
#
# Compressibility (1/GPa) = 0.03025858
#
# Stress axis : x y z
#
# Youngs Moduli (GPa) = 30.89386 30.89386 106.99004
#
# Poissons Ratio (x) = 0.54051 0.23629
# Poissons Ratio (y) = 0.54051 0.23629
# Poissons Ratio (z) = 0.06823 0.06823
#
# Static dielectric constant tensor:
#      x y z
#    x 1.730810 0.000000 0.000000 
#    y 0.000000 1.730810 0.000000 
#    z 0.000000 0.000000 1.726170 
# 
# From -- ./inp_files/5601.got.cif
#   From: 2010.05.17/outbox.cif.g08.bks.cpg/sg128_3_cif.got.tgz:5601.got - 2010.05.20 12:07:25.
