data_PCOD9564923
_publ_section_title
;
Structure prediction by ZEFSAII (Michael W. Deem and Ramdas Pophale) SiO2 
 PCOD9564923
Probable space group: P 4/M N C
;
_chemical_formula_sum "Si O2"
_cell_formula_units_Z 72
_cell_length_a 15.282254
_cell_length_b 15.282254
_cell_length_c 14.553118
_cell_angle_alpha 90.000000
_cell_angle_beta 90.000000
_cell_angle_gamma 90.000000
_cell_volume 3398.841231
_symmetry_space_group_name_H-M "P 4/M N C"
_symmetry_group_IT_number 128
_symmetry_cell_setting 'tetragonal'
loop_
_space_group_symop_operation_xyz
x,y,z
-y,x,z
-x,-y,z
y,-x,z
1/2+x,1/2-y,1/2-z
1/2-x,1/2+y,1/2-z
1/2+y,1/2+x,1/2-z
1/2-y,1/2-x,1/2-z
-x,-y,-z
y,-x,-z
x,y,-z
-y,x,-z
1/2-x,1/2+y,1/2+z
1/2+x,1/2-y,1/2+z
1/2-y,1/2-x,1/2+z
1/2+y,1/2+x,1/2+z
loop_
_atom_site_type_symbol
_atom_site_label
_atom_site_fract_x
_atom_site_fract_y
_atom_site_fract_z
Si Si1 0.614587 0.590688 0.000000
Si Si2 0.076868 0.439600 0.361376
Si Si3 0.674523 0.683705 0.393833
Si Si4 0.234261 0.988074 0.166892
Si Si5 0.870871 0.746910 0.351874
O O1 0.514373 0.618167 0.000000
O O2 0.667117 0.624406 0.087644
O O3 0.067505 0.432496 0.250000
O O4 0.169078 0.485313 0.375654
O O5 0.084712 0.340258 0.394841
O O6 0.000000 0.500000 0.396087
O O7 0.668386 0.714395 0.500000
O O8 0.677504 0.578092 0.393701
O O9 0.589116 0.707997 0.334325
O O10 0.767202 0.719012 0.351135
O O11 0.236939 0.932982 0.262849
#
# Coordination Sequence:
#
# PCOD9564923 Si02
#       5
#     8  16  16  16  16
#     4  11  26  44  63  90 138 185 239 302 352 432
#     4   8  16  36  60  92 128 164 220 294 349 415
#     4  11  22  43  69  99 140 180 231 305 363 427
#     4  10  23  39  66 100 136 181 235 288 361 438
#     4  10  22  44  66  97 137 182 236 297 360 434
#
# _framework density 21.183691
#
# number of rings (size 3 to 8) (size 9 to 14) (size 15 to 20)
#    0.000    2.111    1.111    2.667    3.111    2.222 
#   12.000    1.667    0.000    0.000    0.000    0.000 
#    0.000    0.000    0.000    0.000    0.000    0.000 
#
# Total GULP energy -401000.624382 kJ/mol
# GULP energy per Si atom -5569.453116 kJ/mol
# Density = 2.113548 g / cm^3
# Si number density = 21.183691 Si / 1000 Ang^3
#
#
#
# Elastic Constant Matrix: (Units=GPa)
#
#
# Indices 1 2 3 4 5 6 
#
# 1 114.6294 66.8246 24.2396 0.0000 0.0000 0.0000
# 2 66.8246 114.6290 24.2396 0.0000 0.0000 0.0000
# 3 24.2396 24.2396 105.6349 0.0000 0.0000 0.0000
# 4 0.0000 0.0000 0.0000 -4.6372 0.0000 0.0000
# 5 0.0000 0.0000 0.0000 0.0000 -4.6374 0.0000
# 6 0.0000 0.0000 0.0000 0.0000 0.0000 34.3638
#
#
#
# Elastic Compliance Matrix: (Units=1/GPa)
#
#
# Indices 1 2 3 4 5 6 
#
# 1 0.013395 -0.007524 -0.001347 0.000000 0.000000 0.000000
# 2 -0.007524 0.013395 -0.001347 0.000000 0.000000 0.000000
# 3 -0.001347 -0.001347 0.010085 0.000000 0.000000 0.000000
# 4 0.000000 0.000000 0.000000 -0.215649 0.000000 0.000000
# 5 0.000000 0.000000 0.000000 0.000000 -0.215637 0.000000
# 6 0.000000 0.000000 0.000000 0.000000 0.000000 0.029100
#
#
# Mechanical properties :
#
#
# Convention : Reuss Voigt Hill
#
# Bulk Modulus (GPa) = 60.83455 62.83345 61.83400
# Shear Modulus (GPa) = -14.73206 19.65714 2.46254
#
# Velocity S-wave (km/s) = -2.63999 3.04951 1.07935
# Velocity P-wave (km/s) = 4.41444 6.49038 5.55033
#
# Compressibility (1/GPa) = 0.01643803
#
# Stress axis : x y z
#
# Youngs Moduli (GPa) = 74.65635 74.65611 99.15876
#
# Poissons Ratio (x) = 0.56169 0.13359
# Poissons Ratio (y) = 0.56170 0.13359
# Poissons Ratio (z) = 0.10058 0.10058
#
# Static dielectric constant tensor:
#      x y z
#    x 1.755020 0.000000 0.000000 
#    y 0.000000 1.755020 0.000000 
#    z 0.000000 0.000000 1.880350 
# 
# From -- ./inp_files/4595.got.cif
#   From: 2010.05.17/outbox.cif.g08.bks.cpg/sg128_3_cif.got.tgz:4595.got - 2010.05.20 12:07:25.
