data_PCOD9564898
_publ_section_title
;
Structure prediction by ZEFSAII (Michael W. Deem and Ramdas Pophale) SiO2 
 PCOD9564898
Probable space group: P 4/M N C
;
_chemical_formula_sum "Si O2"
_cell_formula_units_Z 48
_cell_length_a 8.121228
_cell_length_b 8.121228
_cell_length_c 34.748700
_cell_angle_alpha 90.000000
_cell_angle_beta 90.000000
_cell_angle_gamma 90.000000
_cell_volume 2291.827721
_symmetry_space_group_name_H-M "P 4/M N C"
_symmetry_group_IT_number 128
_symmetry_cell_setting 'tetragonal'
loop_
_space_group_symop_operation_xyz
x,y,z
-y,x,z
-x,-y,z
y,-x,z
1/2+x,1/2-y,1/2-z
1/2-x,1/2+y,1/2-z
1/2+y,1/2+x,1/2-z
1/2-y,1/2-x,1/2-z
-x,-y,-z
y,-x,-z
x,y,-z
-y,x,-z
1/2-x,1/2+y,1/2+z
1/2+x,1/2-y,1/2+z
1/2-y,1/2-x,1/2+z
1/2+y,1/2+x,1/2+z
loop_
_atom_site_type_symbol
_atom_site_label
_atom_site_fract_x
_atom_site_fract_y
_atom_site_fract_z
Si Si1 0.413985 0.763524 0.213332
Si Si2 0.500000 0.000000 0.065938
Si Si3 0.263274 0.908164 0.371902
Si Si4 0.581906 0.765080 0.000000
O O1 0.301110 0.600131 0.215051
O O2 0.371077 0.871077 0.250000
O O3 0.384141 0.836616 0.170846
O O4 0.614062 0.107669 0.094146
O O5 0.402357 0.122557 0.037681
O O6 0.098009 0.799803 0.375006
O O7 0.393769 0.697334 0.000000
#
# Coordination Sequence:
#
# PCOD9564898 Si02
#       4
#    16   8  16   8
#     4   9  19  34  52  77 110 147 187 229 272 318
#     4  11  20  32  61  88 102 134 185 224 266 321
#     4   9  19  36  56  80 111 146 186 228 269 323
#     4  10  22  40  60  82 110 142 178 222 272 336
#
# _framework density 20.943985000000001
#
# number of rings (size 3 to 8) (size 9 to 14) (size 15 to 20)
#    0.000    2.500    0.000    4.000    0.000    8.667 
#    0.000    0.000    0.000   41.000    0.000    0.000 
#    0.000    0.000    0.000    0.000    0.000    0.000 
#
# Total GULP energy -268136.517209 kJ/mol
# GULP energy per Si atom -5586.177442 kJ/mol
# Density = 2.089632 g / cm^3
# Si number density = 20.943985 Si / 1000 Ang^3
#
#
#
# Elastic Constant Matrix: (Units=GPa)
#
#
# Indices 1 2 3 4 5 6 
#
# 1 64.4219 14.6698 56.8671 0.0000 0.0000 0.0000
# 2 14.6698 64.4219 56.8671 0.0000 0.0000 0.0000
# 3 56.8671 56.8671 214.4268 0.0000 0.0000 0.0000
# 4 0.0000 0.0000 0.0000 36.0890 0.0000 0.0000
# 5 0.0000 0.0000 0.0000 0.0000 36.0890 0.0000
# 6 0.0000 0.0000 0.0000 0.0000 0.0000 17.3430
#
#
#
# Elastic Compliance Matrix: (Units=1/GPa)
#
#
# Indices 1 2 3 4 5 6 
#
# 1 0.020269 0.000169 -0.005420 0.000000 0.000000 0.000000
# 2 0.000169 0.020269 -0.005420 0.000000 0.000000 0.000000
# 3 -0.005420 -0.005420 0.007539 0.000000 0.000000 0.000000
# 4 0.000000 0.000000 0.000000 0.027709 0.000000 0.000000
# 5 0.000000 0.000000 0.000000 0.000000 0.027709 0.000000
# 6 0.000000 0.000000 0.000000 0.000000 0.000000 0.057660
#
#
# Mechanical properties :
#
#
# Convention : Reuss Voigt Hill
#
# Bulk Modulus (GPa) = 37.40644 66.67538 52.04091
# Shear Modulus (GPa) = 26.12214 32.22863 29.17539
#
# Velocity S-wave (km/s) = 3.53546 3.92701 3.73637
# Velocity P-wave (km/s) = 5.87920 7.24335 6.59663
#
# Compressibility (1/GPa) = 0.02673336
#
# Stress axis : x y z
#
# Youngs Moduli (GPa) = 49.33700 49.33700 132.65170
#
# Poissons Ratio (x) = -0.00834 0.71900
# Poissons Ratio (y) = -0.00834 0.71900
# Poissons Ratio (z) = 0.26742 0.26742
#
# Static dielectric constant tensor:
#      x y z
#    x 1.769560 0.000000 0.000000 
#    y 0.000000 1.769560 0.000000 
#    z 0.000000 0.000000 1.778780 
# 
# From -- ./inp_files/7035.got.cif
#   From: 2010.05.17/outbox.cif.g08.bks.cpg/sg128_4_cif.got.tgz:7035.got - 2010.05.20 12:07:25.
