data_PCOD9564205
_publ_section_title
;
Structure prediction by ZEFSAII (Michael W. Deem and Ramdas Pophale) SiO2 
 PCOD9564205
Probable space group: P 4/M B M
;
_chemical_formula_sum "Si O2"
_cell_formula_units_Z 72
_cell_length_a 12.114794
_cell_length_b 12.114794
_cell_length_c 22.670558
_cell_angle_alpha 90.000000
_cell_angle_beta 90.000000
_cell_angle_gamma 90.000000
_cell_volume 3327.317754
_symmetry_space_group_name_H-M "P 4/M B M"
_symmetry_group_IT_number 127
_symmetry_cell_setting 'tetragonal'
loop_
_space_group_symop_operation_xyz
x,y,z
-y,x,z
-x,-y,z
y,-x,z
1/2+x,1/2-y,-z
1/2-x,1/2+y,-z
1/2+y,1/2+x,-z
1/2-y,1/2-x,-z
-x,-y,-z
y,-x,-z
x,y,-z
-y,x,-z
1/2-x,1/2+y,z
1/2+x,1/2-y,z
1/2-y,1/2-x,z
1/2+y,1/2+x,z
loop_
_atom_site_type_symbol
_atom_site_label
_atom_site_fract_x
_atom_site_fract_y
_atom_site_fract_z
Si Si1 0.475537 0.314395 0.128804
Si Si2 0.181711 0.506630 0.246782
Si Si3 0.075758 0.762384 0.566925
Si Si4 0.475306 0.314319 0.000000
Si Si5 0.602143 0.280153 0.352206
O O1 0.591648 0.380907 0.132365
O O2 0.468840 0.232603 0.183291
O O3 0.467935 0.258572 0.063942
O O4 0.092529 0.407472 0.242699
O O5 0.276501 0.468326 0.292289
O O6 0.113191 0.613191 0.268605
O O7 0.053983 0.798362 0.500000
O O8 0.173371 0.673371 0.564922
O O9 0.113333 0.859477 0.611365
O O10 0.969210 0.714294 0.599049
O O11 0.590727 0.381466 0.000000
O O12 0.712217 0.212217 0.337935
#
# Coordination Sequence:
#
# PCOD9564205 Si02
#       5
#    16  16  16   8  16
#     4   9  18  33  57  86 114 145 187 232 278 330
#     4  10  22  38  55  78 110 151 193 228 272 331
#     4  10  21  37  59  85 109 140 184 228 275 330
#     4   7  12  28  52  79 112 148 182 225 274 325
#     4  10  22  39  57  79 113 149 182 224 277 333
#
# _framework density 21.639050999999998
#
# number of rings (size 3 to 8) (size 9 to 14) (size 15 to 20)
#    0.000    2.556    0.000    2.667    3.111    4.000 
#    0.000    3.333    0.000    5.333    0.000    0.000 
#    0.000    0.000    0.000    0.000    0.000    0.000 
#
# Total GULP energy -401337.584722 kJ/mol
# GULP energy per Si atom -5574.133121 kJ/mol
# Density = 2.158980 g / cm^3
# Si number density = 21.639051 Si / 1000 Ang^3
#
#
#
# Elastic Constant Matrix: (Units=GPa)
#
#
# Indices 1 2 3 4 5 6 
#
# 1 44.4926 -0.7132 24.9858 0.0000 0.0000 0.0000
# 2 -0.7132 44.4926 24.9858 0.0000 0.0000 0.0000
# 3 24.9858 24.9858 142.6389 0.0000 0.0000 0.0000
# 4 0.0000 0.0000 0.0000 25.1316 0.0000 0.0000
# 5 0.0000 0.0000 0.0000 0.0000 25.1316 0.0000
# 6 0.0000 0.0000 0.0000 0.0000 0.0000 3.2171
#
#
#
# Elastic Compliance Matrix: (Units=1/GPa)
#
#
# Indices 1 2 3 4 5 6 
#
# 1 0.025336 0.003215 -0.005001 0.000000 0.000000 0.000000
# 2 0.003215 0.025336 -0.005001 0.000000 0.000000 0.000000
# 3 -0.005001 -0.005001 0.008763 0.000000 0.000000 0.000000
# 4 0.000000 0.000000 0.000000 0.039791 0.000000 0.000000
# 5 0.000000 0.000000 0.000000 0.000000 0.039791 0.000000
# 6 0.000000 0.000000 0.000000 0.000000 0.000000 0.310840
#
#
# Mechanical properties :
#
#
# Convention : Reuss Voigt Hill
#
# Bulk Modulus (GPa) = 21.80598 36.68230 29.24414
# Shear Modulus (GPa) = 10.44458 22.85375 16.64917
#
# Velocity S-wave (km/s) = 2.19937 3.25335 2.77682
# Velocity P-wave (km/s) = 4.06800 5.57683 4.88107
#
# Compressibility (1/GPa) = 0.04585898
#
# Stress axis : x y z
#
# Youngs Moduli (GPa) = 39.47002 39.47002 114.11904
#
# Poissons Ratio (x) = -0.12688 0.57072
# Poissons Ratio (y) = -0.12688 0.57072
# Poissons Ratio (z) = 0.19739 0.19739
#
# Static dielectric constant tensor:
#      x y z
#    x 1.841020 0.000000 0.000000 
#    y 0.000000 1.841020 0.000000 
#    z 0.000000 0.000000 1.792440 
# 
# From -- ./inp_files/4971.got.cif
#   From: 2010.05.17/outbox.cif.g08.bks.cpg/sg127_3_cif.got.tgz:4971.got - 2010.05.20 12:03:00.
