data_PCOD9564333
_publ_section_title
;
Structure prediction by ZEFSAII (Michael W. Deem and Ramdas Pophale) SiO2 
 PCOD9564333
Probable space group: P 4/M B M
;
_chemical_formula_sum "Si O2"
_cell_formula_units_Z 96
_cell_length_a 14.740502
_cell_length_b 14.740502
_cell_length_c 24.226500
_cell_angle_alpha 90.000000
_cell_angle_beta 90.000000
_cell_angle_gamma 90.000000
_cell_volume 5263.992045
_symmetry_space_group_name_H-M "P 4/M B M"
_symmetry_group_IT_number 127
_symmetry_cell_setting 'tetragonal'
loop_
_space_group_symop_operation_xyz
x,y,z
-y,x,z
-x,-y,z
y,-x,z
1/2+x,1/2-y,-z
1/2-x,1/2+y,-z
1/2+y,1/2+x,-z
1/2-y,1/2-x,-z
-x,-y,-z
y,-x,-z
x,y,-z
-y,x,-z
1/2-x,1/2+y,z
1/2+x,1/2-y,z
1/2-y,1/2-x,z
1/2+y,1/2+x,z
loop_
_atom_site_type_symbol
_atom_site_label
_atom_site_fract_x
_atom_site_fract_y
_atom_site_fract_z
Si Si1 0.483378 0.166074 0.060672
Si Si2 0.649516 0.515200 0.248546
Si Si3 0.320874 0.667671 0.940084
Si Si4 0.006426 0.152089 0.620653
Si Si5 0.999357 0.350737 0.566578
Si Si6 0.902856 0.740605 0.843800
O O1 0.423420 0.076581 0.063392
O O2 0.414105 0.250451 0.062635
O O3 0.544803 0.177171 0.113286
O O4 0.527557 0.167990 0.000000
O O5 0.577940 0.596335 0.237947
O O6 0.670817 0.512747 0.313590
O O7 0.730929 0.535727 0.207355
O O8 0.258878 0.758878 0.940476
O O9 0.378844 0.675384 0.884703
O O10 0.368251 0.660973 0.000000
O O11 0.004659 0.249124 0.590561
O O12 0.091510 0.084118 0.608562
O O13 0.998502 0.344875 0.500000
O O14 0.909507 0.409507 0.582777
O O15 0.086238 0.413763 0.581954
O O16 0.811812 0.688189 0.174781
#
# Coordination Sequence:
#
# PCOD9564333 Si02
#       6
#    16  16  16  16  16  16
#     4   9  18  32  47  63  88 121 153 190 242 303
#     4   9  19  37  56  72  96 131 169 210 255 298
#     4   8  15  28  44  62  85 114 150 193 240 292
#     4   9  19  36  57  82 112 147 190 236 276 318
#     4   9  19  36  57  84 120 157 189 224 270 322
#     4  11  20  29  46  71  95 120 156 201 247 300
#
# _framework density 18.237109
#
# number of rings (size 3 to 8) (size 9 to 14) (size 15 to 20)
#    0.000    2.833    0.000    4.000    0.000    3.333 
#    0.000    6.667    0.000    0.000    0.000    7.000 
#    0.000    0.000    0.000    0.000    0.000    0.000 
#
# Total GULP energy -534688.039713 kJ/mol
# GULP energy per Si atom -5569.667080 kJ/mol
# Density = 1.819560 g / cm^3
# Si number density = 18.237109 Si / 1000 Ang^3
#
#
#
# Elastic Constant Matrix: (Units=GPa)
#
#
# Indices 1 2 3 4 5 6 
#
# 1 93.0934 59.0660 49.0677 0.0000 0.0000 0.0000
# 2 59.0660 93.0934 49.0677 0.0000 0.0000 0.0000
# 3 49.0677 49.0677 68.0133 0.0000 0.0000 0.0000
# 4 0.0000 0.0000 0.0000 10.2614 0.0000 0.0000
# 5 0.0000 0.0000 0.0000 0.0000 10.2614 0.0000
# 6 0.0000 0.0000 0.0000 0.0000 0.0000 22.9894
#
#
#
# Elastic Compliance Matrix: (Units=1/GPa)
#
#
# Indices 1 2 3 4 5 6 
#
# 1 0.020840 -0.008549 -0.008867 0.000000 0.000000 0.000000
# 2 -0.008549 0.020840 -0.008867 0.000000 0.000000 0.000000
# 3 -0.008867 -0.008867 0.027497 0.000000 0.000000 0.000000
# 4 0.000000 0.000000 0.000000 0.097452 0.000000 0.000000
# 5 0.000000 0.000000 0.000000 0.000000 0.097452 0.000000
# 6 0.000000 0.000000 0.000000 0.000000 0.000000 0.043498
#
#
# Mechanical properties :
#
#
# Convention : Reuss Voigt Hill
#
# Bulk Modulus (GPa) = 60.20313 63.17808 61.69061
# Shear Modulus (GPa) = 13.67307 15.16903 14.42105
#
# Velocity S-wave (km/s) = 2.74111 2.88717 2.81508
# Velocity P-wave (km/s) = 6.56515 6.76994 6.66833
#
# Compressibility (1/GPa) = 0.01661043
#
# Stress axis : x y z
#
# Youngs Moduli (GPa) = 47.98565 47.98565 36.36704
#
# Poissons Ratio (x) = 0.41021 0.32248
# Poissons Ratio (y) = 0.41021 0.32248
# Poissons Ratio (z) = 0.42550 0.42550
#
# Static dielectric constant tensor:
#      x y z
#    x 1.645960 0.000000 0.000000 
#    y 0.000000 1.645960 0.000000 
#    z 0.000000 0.000000 1.622920 
# 
# From -- ./inp_files/5802.got.cif
#   From: 2010.05.17/outbox.cif.g08.bks.cpg/sg127_3_cif.got.tgz:5802.got - 2010.05.20 12:03:00.
