data_PCOD9564957
_publ_section_title
;
Structure prediction by ZEFSAII (Michael W. Deem and Ramdas Pophale) SiO2 
 PCOD9564957
Probable space group: P 4/M N C
;
_chemical_formula_sum "Si O2"
_cell_formula_units_Z 72
_cell_length_a 11.116111
_cell_length_b 11.116111
_cell_length_c 27.058047
_cell_angle_alpha 90.000000
_cell_angle_beta 90.000000
_cell_angle_gamma 90.000000
_cell_volume 3343.506689
_symmetry_space_group_name_H-M "P 4/M N C"
_symmetry_group_IT_number 128
_symmetry_cell_setting 'tetragonal'
loop_
_space_group_symop_operation_xyz
x,y,z
-y,x,z
-x,-y,z
y,-x,z
1/2+x,1/2-y,1/2-z
1/2-x,1/2+y,1/2-z
1/2+y,1/2+x,1/2-z
1/2-y,1/2-x,1/2-z
-x,-y,-z
y,-x,-z
x,y,-z
-y,x,-z
1/2-x,1/2+y,1/2+z
1/2+x,1/2-y,1/2+z
1/2-y,1/2-x,1/2+z
1/2+y,1/2+x,1/2+z
loop_
_atom_site_type_symbol
_atom_site_label
_atom_site_fract_x
_atom_site_fract_y
_atom_site_fract_z
Si Si1 0.635982 0.649139 0.398783
Si Si2 0.852927 0.350035 0.332522
Si Si3 0.500000 0.000000 0.588253
Si Si4 0.964011 0.198215 0.750104
Si Si5 0.653664 0.054056 0.500000
Si Si6 0.726973 0.786528 0.000000
O O1 0.491435 0.662356 0.391956
O O2 0.702334 0.733894 0.359091
O O3 0.665650 0.701519 0.452488
O O4 0.924835 0.414472 0.376133
O O5 0.936664 0.258069 0.302839
O O6 0.799137 0.440840 0.291467
O O7 0.422337 0.920998 0.549714
O O8 0.092546 0.135364 0.755575
O O9 0.765177 0.142126 0.500000
O O10 0.677578 0.912060 0.500000
#
# Coordination Sequence:
#
# PCOD9564957 Si02
#       6
#    16  16   8  16   8   8
#     4  11  23  40  66 101 135 172 229 289 344 401
#     4  11  23  41  70  94 128 179 217 273 344 399
#     4  11  24  45  64 104 132 175 214 289 326 398
#     4  10  24  44  63  95 134 171 221 279 333 399
#     4  11  26  45  68  94 146 171 226 274 339 396
#     4  12  24  44  66  98 130 191 218 285 334 407
#
# _framework density 21.534276999999999
#
# number of rings (size 3 to 8) (size 9 to 14) (size 15 to 20)
#    0.000    1.111    2.222    3.333    3.111   11.778 
#    0.000    0.000    0.000    0.000    0.000    0.000 
#    0.000    0.000    0.000    0.000    0.000    0.000 
#
# Total GULP energy -402595.530823 kJ/mol
# GULP energy per Si atom -5591.604595 kJ/mol
# Density = 2.148526 g / cm^3
# Si number density = 21.534277 Si / 1000 Ang^3
#
#
#
# Elastic Constant Matrix: (Units=GPa)
#
#
# Indices 1 2 3 4 5 6 
#
# 1 56.5210 15.3949 19.5592 0.0000 0.0000 0.0000
# 2 15.3949 56.5210 19.5592 0.0000 0.0000 0.0000
# 3 19.5592 19.5592 136.3413 0.0000 0.0000 0.0000
# 4 0.0000 0.0000 0.0000 26.3915 0.0000 0.0000
# 5 0.0000 0.0000 0.0000 0.0000 26.3915 0.0000
# 6 0.0000 0.0000 0.0000 0.0000 0.0000 24.3934
#
#
#
# Elastic Compliance Matrix: (Units=1/GPa)
#
#
# Indices 1 2 3 4 5 6 
#
# 1 0.019699 -0.004617 -0.002164 0.000000 0.000000 0.000000
# 2 -0.004617 0.019699 -0.002164 0.000000 0.000000 0.000000
# 3 -0.002164 -0.002164 0.007955 0.000000 0.000000 0.000000
# 4 0.000000 0.000000 0.000000 0.037891 0.000000 0.000000
# 5 0.000000 0.000000 0.000000 0.000000 0.037891 0.000000
# 6 0.000000 0.000000 0.000000 0.000000 0.000000 0.040995
#
#
# Mechanical properties :
#
#
# Convention : Reuss Voigt Hill
#
# Bulk Modulus (GPa) = 33.93877 39.82332 36.88105
# Shear Modulus (GPa) = 26.06355 28.42665 27.24510
#
# Velocity S-wave (km/s) = 3.48275 3.63721 3.56082
# Velocity P-wave (km/s) = 5.65396 6.01433 5.83693
#
# Compressibility (1/GPa) = 0.02946483
#
# Stress axis : x y z
#
# Youngs Moduli (GPa) = 50.76469 50.76469 125.70224
#
# Poissons Ratio (x) = 0.23437 0.27197
# Poissons Ratio (y) = 0.23437 0.27197
# Poissons Ratio (z) = 0.10984 0.10984
#
# Static dielectric constant tensor:
#      x y z
#    x 1.784870 0.000000 0.000000 
#    y 0.000000 1.784870 0.000000 
#    z 0.000000 0.000000 1.784120 
# 
# From -- ./inp_files/6803.got.cif
#   From: 2010.05.17/outbox.cif.g08.bks.cpg/sg128_4_cif.got.tgz:6803.got - 2010.05.20 12:07:25.
