data_PCOD9564084
_publ_section_title
;
Structure prediction by ZEFSAII (Michael W. Deem and Ramdas Pophale) SiO2 
 PCOD9564084
Probable space group: P 4/M B M
;
_chemical_formula_sum "Si O2"
_cell_formula_units_Z 80
_cell_length_a 13.691840
_cell_length_b 13.691840
_cell_length_c 24.323539
_cell_angle_alpha 90.000000
_cell_angle_beta 90.000000
_cell_angle_gamma 90.000000
_cell_volume 4559.848300
_symmetry_space_group_name_H-M "P 4/M B M"
_symmetry_group_IT_number 127
_symmetry_cell_setting 'tetragonal'
loop_
_space_group_symop_operation_xyz
x,y,z
-y,x,z
-x,-y,z
y,-x,z
1/2+x,1/2-y,-z
1/2-x,1/2+y,-z
1/2+y,1/2+x,-z
1/2-y,1/2-x,-z
-x,-y,-z
y,-x,-z
x,y,-z
-y,x,-z
1/2-x,1/2+y,z
1/2+x,1/2-y,z
1/2-y,1/2-x,z
1/2+y,1/2+x,z
loop_
_atom_site_type_symbol
_atom_site_label
_atom_site_fract_x
_atom_site_fract_y
_atom_site_fract_z
Si Si1 0.836144 0.499306 0.150644
Si Si2 0.499954 0.664008 0.936673
Si Si3 0.162348 0.494843 0.275890
Si Si4 0.250663 0.083722 0.619369
Si Si5 0.776733 0.112604 0.437808
O O1 0.911327 0.588674 0.141751
O O2 0.750655 0.500005 0.106659
O O3 0.799417 0.509427 0.213618
O O4 0.901047 0.401047 0.146601
O O5 0.405968 0.593985 0.929675
O O6 0.499965 0.699362 0.000000
O O7 0.107341 0.392660 0.290005
O O8 0.237637 0.532480 0.321314
O O9 0.075830 0.575830 0.274938
O O10 0.340251 0.159750 0.613209
O O11 0.153575 0.144685 0.605673
O O12 0.255091 0.996173 0.576138
O O13 0.816202 0.119700 0.500000
O O14 0.683994 0.183994 0.434440
#
# Coordination Sequence:
#
# PCOD9564084 Si02
#       5
#    16  16  16  16  16
#     4   9  18  33  53  80 110 136 170 222 275 316
#     4   9  19  36  54  73 104 147 188 224 262 306
#     4   8  15  31  54  76 101 134 171 213 260 312
#     4  10  20  36  55  75 104 141 177 215 263 319
#     4  10  21  35  53  79 106 134 173 219 264 313
#
# _framework density 17.544445
#
# number of rings (size 3 to 8) (size 9 to 14) (size 15 to 20)
#    0.000    2.800    0.000    3.000    0.000    4.400 
#    3.600    5.000    0.000    0.000    0.000    0.000 
#    0.000    0.000    0.000    0.000    0.000    0.000 
#
# Total GULP energy -445804.612889 kJ/mol
# GULP energy per Si atom -5572.557661 kJ/mol
# Density = 1.750451 g / cm^3
# Si number density = 17.544445 Si / 1000 Ang^3
#
#
#
# Elastic Constant Matrix: (Units=GPa)
#
#
# Indices 1 2 3 4 5 6 
#
# 1 67.1303 10.7364 52.8088 0.0000 0.0000 0.0000
# 2 10.7364 67.1303 52.8088 0.0000 0.0000 0.0000
# 3 52.8088 52.8088 107.5214 0.0000 0.0000 0.0000
# 4 0.0000 0.0000 0.0000 22.8924 0.0000 0.0000
# 5 0.0000 0.0000 0.0000 0.0000 22.8924 0.0000
# 6 0.0000 0.0000 0.0000 0.0000 0.0000 4.3633
#
#
#
# Elastic Compliance Matrix: (Units=1/GPa)
#
#
# Indices 1 2 3 4 5 6 
#
# 1 0.028102 0.010370 -0.018895 0.000000 0.000000 0.000000
# 2 0.010370 0.028102 -0.018895 0.000000 0.000000 0.000000
# 3 -0.018895 -0.018895 0.027861 0.000000 0.000000 0.000000
# 4 0.000000 0.000000 0.000000 0.043683 0.000000 0.000000
# 5 0.000000 0.000000 0.000000 0.000000 0.043683 0.000000
# 6 0.000000 0.000000 0.000000 0.000000 0.000000 0.229186
#
#
# Mechanical properties :
#
#
# Convention : Reuss Voigt Hill
#
# Bulk Modulus (GPa) = 34.21879 52.72111 43.46995
# Shear Modulus (GPa) = 10.74807 18.39148 14.56977
#
# Velocity S-wave (km/s) = 2.47780 3.24123 2.88488
# Velocity P-wave (km/s) = 5.26616 6.64249 5.99396
#
# Compressibility (1/GPa) = 0.02922371
#
# Stress axis : x y z
#
# Youngs Moduli (GPa) = 35.58437 35.58437 35.89203
#
# Poissons Ratio (x) = -0.36900 0.67820
# Poissons Ratio (y) = -0.36900 0.67820
# Poissons Ratio (z) = 0.67238 0.67238
#
# Static dielectric constant tensor:
#      x y z
#    x 1.586170 0.000000 0.000000 
#    y 0.000000 1.586170 0.000000 
#    z 0.000000 0.000000 1.604470 
# 
# From -- ./inp_files/5618.got.cif
#   From: 2010.05.17/outbox.cif.g08.bks.cpg/sg127_3_cif.got.tgz:5618.got - 2010.05.20 12:03:00.
