data_PCOD9564846
_publ_section_title
;
Structure prediction by ZEFSAII (Michael W. Deem and Ramdas Pophale) SiO2 
 PCOD9564846
Probable space group: P 4/M N C
;
_chemical_formula_sum "Si O2"
_cell_formula_units_Z 72
_cell_length_a 21.132778
_cell_length_b 21.132778
_cell_length_c 7.826144
_cell_angle_alpha 90.000000
_cell_angle_beta 90.000000
_cell_angle_gamma 90.000000
_cell_volume 3495.111348
_symmetry_space_group_name_H-M "P 4/M N C"
_symmetry_group_IT_number 128
_symmetry_cell_setting 'tetragonal'
loop_
_space_group_symop_operation_xyz
x,y,z
-y,x,z
-x,-y,z
y,-x,z
1/2+x,1/2-y,1/2-z
1/2-x,1/2+y,1/2-z
1/2+y,1/2+x,1/2-z
1/2-y,1/2-x,1/2-z
-x,-y,-z
y,-x,-z
x,y,-z
-y,x,-z
1/2-x,1/2+y,1/2+z
1/2+x,1/2-y,1/2+z
1/2-y,1/2-x,1/2+z
1/2+y,1/2+x,1/2+z
loop_
_atom_site_type_symbol
_atom_site_label
_atom_site_fract_x
_atom_site_fract_y
_atom_site_fract_z
Si Si1 0.394237 0.331872 0.706310
Si Si2 0.153098 0.244803 0.796414
Si Si3 0.427597 0.423815 0.000000
Si Si4 0.245009 0.488983 0.301588
Si Si5 0.500968 0.102752 0.201654
O O1 0.398536 0.343244 0.500000
O O2 0.321620 0.312179 0.743423
O O3 0.402887 0.392854 0.825277
O O4 0.449939 0.283828 0.761967
O O5 0.194894 0.305107 0.750000
O O6 0.081206 0.244599 0.723967
O O7 0.146497 0.247392 0.000000
O O8 0.502587 0.413731 0.000000
O O9 0.263813 0.484536 0.500000
O O10 0.170468 0.502048 0.289173
O O11 0.564163 0.064163 0.250000
O O12 0.442807 0.057194 0.250000
O O13 0.500688 0.112774 0.000000
#
# Coordination Sequence:
#
# PCOD9564846 Si02
#       5
#    16  16   8  16  16
#     4  10  23  43  64  91 130 169 210 267 325 384
#     4  10  22  39  62  92 125 167 211 265 323 382
#     4  11  24  40  64  96 124 161 214 262 318 386
#     4  10  21  39  62  89 123 164 213 260 321 388
#     4  11  22  37  58  85 120 159 206 261 319 382
#
# _framework density 20.600201999999999
#
# number of rings (size 3 to 8) (size 9 to 14) (size 15 to 20)
#    0.000    1.667    0.000    4.667    3.111    6.222 
#    0.000    3.333    0.000    0.000    0.000    0.000 
#    0.000    0.000    0.000    0.000    0.000    0.000 
#
# Total GULP energy -401766.623966 kJ/mol
# GULP energy per Si atom -5580.092000 kJ/mol
# Density = 2.055332 g / cm^3
# Si number density = 20.600202 Si / 1000 Ang^3
#
#
#
# Elastic Constant Matrix: (Units=GPa)
#
#
# Indices 1 2 3 4 5 6 
#
# 1 69.0362 72.3048 1.2306 0.0000 0.0000 0.0000
# 2 72.3048 69.0187 1.2084 0.0000 0.0000 0.0000
# 3 1.2306 1.2084 34.7541 0.0000 0.0000 0.0000
# 4 0.0000 0.0000 0.0000 31.0022 0.0000 0.0000
# 5 0.0000 0.0000 0.0000 0.0000 31.0014 0.0000
# 6 0.0000 0.0000 0.0000 0.0000 0.0000 -0.9103
#
#
#
# Elastic Compliance Matrix: (Units=1/GPa)
#
#
# Indices 1 2 3 4 5 6 
#
# 1 -0.149002 0.156099 -0.000152 0.000000 0.000000 0.000000
# 2 0.156099 -0.149037 -0.000345 0.000000 0.000000 0.000000
# 3 -0.000152 -0.000345 0.028791 0.000000 0.000000 0.000000
# 4 0.000000 0.000000 0.000000 0.032256 0.000000 0.000000
# 5 0.000000 0.000000 0.000000 0.000000 0.032257 0.000000
# 6 0.000000 0.000000 0.000000 0.000000 0.000000 -1.098490
#
#
# Mechanical properties :
#
#
# Convention : Reuss Voigt Hill
#
# Bulk Modulus (GPa) = 23.83402 35.81074 29.82238
# Shear Modulus (GPa) = -3.12413 18.75634 7.81610
#
# Velocity S-wave (km/s) = -1.23282 3.02071 1.94998
# Velocity P-wave (km/s) = 3.09329 5.43946 4.42471
#
# Compressibility (1/GPa) = 0.04195683
#
# Stress axis : x y z
#
# Youngs Moduli (GPa) = -6.71130 -6.70975 34.73316
#
# Poissons Ratio (x) = 1.04739 0.00528
# Poissons Ratio (y) = 1.04763 0.01198
# Poissons Ratio (z) = -0.00102 -0.00231
#
# Static dielectric constant tensor:
#      x y z
#    x 1.716830 0.000000 0.000000 
#    y 0.000000 1.716830 0.000000 
#    z 0.000000 0.000000 1.806250 
# 
# From -- ./inp_files/1170.got.cif
#   From: 2010.05.17/outbox.cif.g08.bks.cpg/sg128_1_cif.got.tgz:1170.got - 2010.05.20 12:07:25.
