data_PCOD9564009
_publ_section_title
;
Structure prediction by ZEFSAII (Michael W. Deem and Ramdas Pophale) SiO2 
 PCOD9564009
Probable space group: P 4/M B M
;
_chemical_formula_sum "Si O2"
_cell_formula_units_Z 96
_cell_length_a 23.839594
_cell_length_b 23.839594
_cell_length_c 9.741796
_cell_angle_alpha 90.000000
_cell_angle_beta 90.000000
_cell_angle_gamma 90.000000
_cell_volume 5536.518312
_symmetry_space_group_name_H-M "P 4/M B M"
_symmetry_group_IT_number 127
_symmetry_cell_setting 'tetragonal'
loop_
_space_group_symop_operation_xyz
x,y,z
-y,x,z
-x,-y,z
y,-x,z
1/2+x,1/2-y,-z
1/2-x,1/2+y,-z
1/2+y,1/2+x,-z
1/2-y,1/2-x,-z
-x,-y,-z
y,-x,-z
x,y,-z
-y,x,-z
1/2-x,1/2+y,z
1/2+x,1/2-y,z
1/2-y,1/2-x,z
1/2+y,1/2+x,z
loop_
_atom_site_type_symbol
_atom_site_label
_atom_site_fract_x
_atom_site_fract_y
_atom_site_fract_z
Si Si1 0.305595 0.484324 0.660323
Si Si2 0.678803 0.821198 0.664516
Si Si3 0.240998 0.259003 0.836876
Si Si4 0.487513 0.406697 0.157488
Si Si5 0.312330 0.048587 0.659800
Si Si6 0.890702 0.752493 0.160694
Si Si7 0.865298 0.544566 0.161916
O O1 0.316759 0.474309 0.500000
O O2 0.356856 0.514751 0.734999
O O3 0.249357 0.521470 0.672095
O O4 0.292383 0.426952 0.741848
O O5 0.686364 0.813637 0.500000
O O6 0.719488 0.780513 0.747622
O O7 0.689855 0.886344 0.698107
O O8 0.252542 0.324735 0.809087
O O9 0.250027 0.249974 0.000000
O O10 0.546443 0.439585 0.174347
O O11 0.484733 0.385901 0.000000
O O12 0.329372 0.045032 0.500000
O O13 0.353289 0.011001 0.751827
O O14 0.915350 0.689507 0.177965
O O15 0.898801 0.767596 0.000000
O O16 0.919496 0.580505 0.204093
O O17 0.869805 0.531872 0.000000
#
# Coordination Sequence:
#
# PCOD9564009 Si02
#       7
#    16   8   8  16  16  16  16
#     4  10  20  33  52  80 108 135 173 219 264 313
#     4  10  22  40  55  69 104 151 185 217 260 308
#     4  10  20  34  54  79 105 135 177 223 265 312
#     4   9  19  36  55  74  99 134 175 216 261 315
#     4   9  20  37  53  72 101 140 179 212 253 311
#     4   9  17  32  52  77 108 137 168 211 262 317
#     4   9  16  30  55  82 105 130 161 209 268 310
#
# _framework density 17.339417999999998
#
# number of rings (size 3 to 8) (size 9 to 14) (size 15 to 20)
#    0.000    2.667    0.833    1.000    0.000    4.333 
#    0.000    4.583    0.000    2.500    0.000    0.000 
#    0.000    0.000    0.000    0.000    0.000    0.000 
#
# Total GULP energy -535446.393651 kJ/mol
# GULP energy per Si atom -5577.566601 kJ/mol
# Density = 1.729995 g / cm^3
# Si number density = 17.339418 Si / 1000 Ang^3
#
#
#
# Elastic Constant Matrix: (Units=GPa)
#
#
# Indices 1 2 3 4 5 6 
#
# 1 62.6358 24.0436 43.0755 0.0000 0.0000 0.0000
# 2 24.0436 62.6366 43.0754 0.0000 0.0000 0.0000
# 3 43.0755 43.0754 67.8294 0.0000 0.0000 0.0000
# 4 0.0000 0.0000 0.0000 24.7533 0.0000 0.0000
# 5 0.0000 0.0000 0.0000 0.0000 24.7531 0.0000
# 6 0.0000 0.0000 0.0000 0.0000 0.0000 16.5397
#
#
#
# Elastic Compliance Matrix: (Units=1/GPa)
#
#
# Indices 1 2 3 4 5 6 
#
# 1 0.028596 0.002684 -0.019865 0.000000 0.000000 0.000000
# 2 0.002684 0.028596 -0.019864 0.000000 0.000000 0.000000
# 3 -0.019865 -0.019864 0.039973 0.000000 0.000000 0.000000
# 4 0.000000 0.000000 0.000000 0.040399 0.000000 0.000000
# 5 0.000000 0.000000 0.000000 0.000000 0.040399 0.000000
# 6 0.000000 0.000000 0.000000 0.000000 0.000000 0.060460
#
#
# Mechanical properties :
#
#
# Convention : Reuss Voigt Hill
#
# Bulk Modulus (GPa) = 43.33710 45.94342 44.64026
# Shear Modulus (GPa) = 15.61501 18.73639 17.17570
#
# Velocity S-wave (km/s) = 3.00417 3.29076 3.15073
# Velocity P-wave (km/s) = 6.08942 6.40257 6.24796
#
# Compressibility (1/GPa) = 0.02307492
#
# Stress axis : x y z
#
# Youngs Moduli (GPa) = 34.96962 34.97043 25.01678
#
# Poissons Ratio (x) = -0.09387 0.49695
# Poissons Ratio (y) = -0.09387 0.49694
# Poissons Ratio (z) = 0.69467 0.69467
#
# Static dielectric constant tensor:
#      x y z
#    x 1.574760 0.000000 0.000000 
#    y 0.000000 1.574760 0.000000 
#    z 0.000000 0.000000 1.575960 
# 
# From -- ./inp_files/2085.got.cif
#   From: 2010.05.17/outbox.cif.g08.bks.cpg/sg127_2_cif.got.tgz:2085.got - 2010.05.20 12:03:00.
