data_PCOD9564985
_publ_section_title
;
Structure prediction by ZEFSAII (Michael W. Deem and Ramdas Pophale) SiO2 
 PCOD9564985
Probable space group: P 4/M N C
;
_chemical_formula_sum "Si O2"
_cell_formula_units_Z 96
_cell_length_a 14.836140
_cell_length_b 14.836140
_cell_length_c 24.221667
_cell_angle_alpha 90.000000
_cell_angle_beta 90.000000
_cell_angle_gamma 90.000000
_cell_volume 5331.456559
_symmetry_space_group_name_H-M "P 4/M N C"
_symmetry_group_IT_number 128
_symmetry_cell_setting 'tetragonal'
loop_
_space_group_symop_operation_xyz
x,y,z
-y,x,z
-x,-y,z
y,-x,z
1/2+x,1/2-y,1/2-z
1/2-x,1/2+y,1/2-z
1/2+y,1/2+x,1/2-z
1/2-y,1/2-x,1/2-z
-x,-y,-z
y,-x,-z
x,y,-z
-y,x,-z
1/2-x,1/2+y,1/2+z
1/2+x,1/2-y,1/2+z
1/2-y,1/2-x,1/2+z
1/2+y,1/2+x,1/2+z
loop_
_atom_site_type_symbol
_atom_site_label
_atom_site_fract_x
_atom_site_fract_y
_atom_site_fract_z
Si Si1 0.644291 0.018554 0.500000
Si Si2 0.878762 0.347176 0.689117
Si Si3 0.526675 0.845602 0.500000
Si Si4 0.358256 0.449997 0.695635
Si Si5 0.494980 0.797853 0.379713
Si Si6 0.339625 0.724152 0.790393
Si Si7 0.835151 0.562426 0.878588
O O1 0.558107 0.085701 0.500000
O O2 0.690380 0.040238 0.558273
O O3 0.610533 0.914994 0.500000
O O4 0.888957 0.388957 0.750000
O O5 0.813747 0.414331 0.655396
O O6 0.839272 0.246790 0.698509
O O7 0.970824 0.343296 0.655647
O O8 0.520790 0.788534 0.443937
O O9 0.447056 0.389621 0.690476
O O10 0.283395 0.439681 0.648210
O O11 0.319278 0.420661 0.755015
O O12 0.431080 0.885938 0.376792
O O13 0.302330 0.802330 0.750000
O O14 0.375535 0.763839 0.847190
#
# Coordination Sequence:
#
# PCOD9564985 Si02
#       7
#     8  16   8  16  16  16  16
#     4   9  18  36  55  83 117 161 195 231 302 365
#     4  11  23  34  57  88 121 150 197 248 310 362
#     4   9  18  36  57  82 119 154 193 247 301 359
#     4  11  23  40  61  83 119 166 201 240 308 377
#     4  11  21  37  60  87 117 158 202 254 308 357
#     4  11  21  38  56  85 121 154 198 254 302 363
#     4  11  21  36  59  84 120 159 198 249 306 364
#
# _framework density 18.006336999999998
#
# number of rings (size 3 to 8) (size 9 to 14) (size 15 to 20)
#    0.000    1.333    3.333    4.500    0.000    0.667 
#    0.000    2.500    0.000    1.000    0.000    0.000 
#    0.000    4.000    0.000    0.000    0.000    0.000 
#
# Total GULP energy -535602.146833 kJ/mol
# GULP energy per Si atom -5579.189030 kJ/mol
# Density = 1.796535 g / cm^3
# Si number density = 18.006337 Si / 1000 Ang^3
#
#
#
# Elastic Constant Matrix: (Units=GPa)
#
#
# Indices 1 2 3 4 5 6 
#
# 1 75.6431 22.5854 51.1297 0.0000 0.0000 0.0000
# 2 22.5854 75.6431 51.1297 0.0000 0.0000 0.0000
# 3 51.1297 51.1297 182.3578 0.0000 0.0000 0.0000
# 4 0.0000 0.0000 0.0000 12.4633 0.0000 0.0000
# 5 0.0000 0.0000 0.0000 0.0000 12.4633 0.0000
# 6 0.0000 0.0000 0.0000 0.0000 0.0000 18.6359
#
#
#
# Elastic Compliance Matrix: (Units=1/GPa)
#
#
# Indices 1 2 3 4 5 6 
#
# 1 0.016612 -0.002235 -0.004031 0.000000 0.000000 0.000000
# 2 -0.002235 0.016612 -0.004031 0.000000 0.000000 0.000000
# 3 -0.004031 -0.004031 0.007744 0.000000 0.000000 0.000000
# 4 0.000000 0.000000 0.000000 0.080235 0.000000 0.000000
# 5 0.000000 0.000000 0.000000 0.000000 0.080235 0.000000
# 6 0.000000 0.000000 0.000000 0.000000 0.000000 0.053660
#
#
# Mechanical properties :
#
#
# Convention : Reuss Voigt Hill
#
# Bulk Modulus (GPa) = 49.08283 64.81484 56.94884
# Shear Modulus (GPa) = 17.70006 22.63245 20.16625
#
# Velocity S-wave (km/s) = 3.13867 3.54915 3.35020
# Velocity P-wave (km/s) = 6.36025 7.27111 6.83088
#
# Compressibility (1/GPa) = 0.02037372
#
# Stress axis : x y z
#
# Youngs Moduli (GPa) = 60.19722 60.19722 129.12998
#
# Poissons Ratio (x) = 0.13456 0.52052
# Poissons Ratio (y) = 0.13456 0.52052
# Poissons Ratio (z) = 0.24265 0.24265
#
# Static dielectric constant tensor:
#      x y z
#    x 1.631870 0.000000 0.000000 
#    y 0.000000 1.631870 0.000000 
#    z 0.000000 0.000000 1.614290 
# 
# From -- ./inp_files/5822.got.cif
#   From: 2010.05.17/outbox.cif.g08.bks.cpg/sg128_3_cif.got.tgz:5822.got - 2010.05.20 12:07:25.
