data_PCOD9564447
_publ_section_title
;
Structure prediction by ZEFSAII (Michael W. Deem and Ramdas Pophale) SiO2 
 PCOD9564447
Probable space group: P 4/M B M
;
_chemical_formula_sum "Si O2"
_cell_formula_units_Z 64
_cell_length_a 11.897898
_cell_length_b 11.897898
_cell_length_c 24.211664
_cell_angle_alpha 90.000000
_cell_angle_beta 90.000000
_cell_angle_gamma 90.000000
_cell_volume 3427.402595
_symmetry_space_group_name_H-M "P 4/M B M"
_symmetry_group_IT_number 127
_symmetry_cell_setting 'tetragonal'
loop_
_space_group_symop_operation_xyz
x,y,z
-y,x,z
-x,-y,z
y,-x,z
1/2+x,1/2-y,-z
1/2-x,1/2+y,-z
1/2+y,1/2+x,-z
1/2-y,1/2-x,-z
-x,-y,-z
y,-x,-z
x,y,-z
-y,x,-z
1/2-x,1/2+y,z
1/2+x,1/2-y,z
1/2-y,1/2-x,z
1/2+y,1/2+x,z
loop_
_atom_site_type_symbol
_atom_site_label
_atom_site_fract_x
_atom_site_fract_y
_atom_site_fract_z
Si Si1 0.027366 0.817058 0.327146
Si Si2 0.995844 0.687977 0.437032
Si Si3 0.184594 0.033302 0.064934
Si Si4 0.595000 0.905001 0.867922
Si Si5 0.905402 0.405402 0.737949
O O1 0.051461 0.707105 0.291503
O O2 0.908657 0.876571 0.315817
O O3 0.022951 0.779251 0.391121
O O4 0.988855 0.730305 0.500000
O O5 0.880733 0.619268 0.424489
O O6 0.094436 0.594436 0.435337
O O7 0.291036 0.054746 0.102805
O O8 0.087382 0.126065 0.074460
O O9 0.215725 0.039131 0.000000
O O10 0.613304 0.886697 0.802859
O O11 0.500000 0.000000 0.874637
O O12 0.000000 0.500000 0.730843
#
# Coordination Sequence:
#
# PCOD9564447 Si02
#       5
#    16  16  16   8   8
#     4  11  25  42  63  92 122 158 208 263 312 370
#     4   9  18  34  60  92 123 158 196 243 310 377
#     4   9  20  40  65  94 130 168 202 246 308 369
#     4  11  25  40  61  96 126 161 212 263 301 356
#     4  11  26  45  65  86 122 167 212 259 312 363
#
# _framework density 18.673031999999999
#
# number of rings (size 3 to 8) (size 9 to 14) (size 15 to 20)
#    0.000    2.000    1.250    2.625    5.250    4.000 
#    0.000    6.250    0.000    0.000    0.000    0.000 
#    0.000    0.000    0.000    0.000    0.000    0.000 
#
# Total GULP energy -357555.014087 kJ/mol
# GULP energy per Si atom -5586.797095 kJ/mol
# Density = 1.863053 g / cm^3
# Si number density = 18.673032 Si / 1000 Ang^3
#
#
#
# Elastic Constant Matrix: (Units=GPa)
#
#
# Indices 1 2 3 4 5 6 
#
# 1 108.8488 57.3005 88.8164 0.0000 0.0000 0.0000
# 2 57.3005 108.8488 88.8164 0.0000 0.0000 0.0000
# 3 88.8164 88.8164 131.7458 0.0000 0.0000 0.0000
# 4 0.0000 0.0000 0.0000 -43.7211 0.0000 0.0000
# 5 0.0000 0.0000 0.0000 0.0000 -43.7211 0.0000
# 6 0.0000 0.0000 0.0000 0.0000 0.0000 9.5373
#
#
#
# Elastic Compliance Matrix: (Units=1/GPa)
#
#
# Indices 1 2 3 4 5 6 
#
# 1 0.020476 0.001077 -0.014530 0.000000 0.000000 0.000000
# 2 0.001077 0.020476 -0.014530 0.000000 0.000000 0.000000
# 3 -0.014530 -0.014530 0.027181 0.000000 0.000000 0.000000
# 4 0.000000 0.000000 0.000000 -0.022872 0.000000 0.000000
# 5 0.000000 0.000000 0.000000 0.000000 -0.022872 0.000000
# 6 0.000000 0.000000 0.000000 0.000000 0.000000 0.104852
#
#
# Mechanical properties :
#
#
# Convention : Reuss Voigt Hill
#
# Bulk Modulus (GPa) = 82.18810 91.03442 86.61126
# Shear Modulus (GPa) = 26.70072 -7.94699 9.37687
#
# Velocity S-wave (km/s) = 3.78552 -2.06521 2.24333
# Velocity P-wave (km/s) = 7.95089 6.57045 7.29341
#
# Compressibility (1/GPa) = 0.01216721
#
# Stress axis : x y z
#
# Youngs Moduli (GPa) = 48.83787 48.83787 36.79085
#
# Poissons Ratio (x) = -0.05258 0.53456
# Poissons Ratio (y) = -0.05258 0.53456
# Poissons Ratio (z) = 0.70960 0.70960
#
# Static dielectric constant tensor:
#      x y z
#    x 1.628020 0.000000 0.000000 
#    y 0.000000 1.628020 0.000000 
#    z 0.000000 0.000000 1.627060 
# 
# From -- ./inp_files/6038.got.cif
#   From: 2010.05.17/outbox.cif.g08.bks.cpg/sg127_4_cif.got.tgz:6038.got - 2010.05.20 12:03:00.
