data_PCOD9564311
_publ_section_title
;
Structure prediction by ZEFSAII (Michael W. Deem and Ramdas Pophale) SiO2 
 PCOD9564311
Probable space group: P 4/M B M
;
_chemical_formula_sum "Si O2"
_cell_formula_units_Z 88
_cell_length_a 17.966355
_cell_length_b 17.966355
_cell_length_c 17.072862
_cell_angle_alpha 90.000000
_cell_angle_beta 90.000000
_cell_angle_gamma 90.000000
_cell_volume 5510.947622
_symmetry_space_group_name_H-M "P 4/M B M"
_symmetry_group_IT_number 127
_symmetry_cell_setting 'tetragonal'
loop_
_space_group_symop_operation_xyz
x,y,z
-y,x,z
-x,-y,z
y,-x,z
1/2+x,1/2-y,-z
1/2-x,1/2+y,-z
1/2+y,1/2+x,-z
1/2-y,1/2-x,-z
-x,-y,-z
y,-x,-z
x,y,-z
-y,x,-z
1/2-x,1/2+y,z
1/2+x,1/2-y,z
1/2-y,1/2-x,z
1/2+y,1/2+x,z
loop_
_atom_site_type_symbol
_atom_site_label
_atom_site_fract_x
_atom_site_fract_y
_atom_site_fract_z
Si Si1 0.119110 0.045353 0.000000
Si Si2 0.383688 0.452326 0.411159
Si Si3 0.303670 0.803670 0.181134
Si Si4 0.585729 0.314356 0.251027
Si Si5 0.571214 0.688803 0.829700
Si Si6 0.412792 0.912792 0.905772
Si Si7 0.078081 0.578081 0.910850
Si Si8 0.309727 0.190274 0.853849
O O1 0.166720 0.063397 0.921666
O O2 0.041801 0.093196 0.000000
O O3 0.461031 0.406763 0.402968
O O4 0.356078 0.440950 0.500000
O O5 0.328912 0.429194 0.342129
O O6 0.354292 0.749215 0.232876
O O7 0.356262 0.856262 0.131780
O O8 0.251988 0.751988 0.124903
O O9 0.509196 0.297059 0.206510
O O10 0.618988 0.390001 0.213241
O O11 0.626368 0.758555 0.814645
O O12 0.497919 0.896962 0.878951
O O13 0.405988 0.905988 0.000000
O O14 0.140366 0.640366 0.910099
O O15 0.060317 0.560317 0.000000
#
# Coordination Sequence:
#
# PCOD9564311 Si02
#       8
#     8  16   8  16  16   8   8   8
#     4  11  22  35  50  74 100 132 189 220 260 307
#     4   9  17  30  55  86 108 128 163 210 256 310
#     4  10  23  36  47  70 107 142 167 203 262 323
#     4  11  20  36  54  77 103 138 171 211 266 306
#     4  11  22  35  53  71 104 142 172 223 256 306
#     4   9  18  37  55  68  90 125 180 231 267 289
#     4   9  18  33  55  71  82 119 177 236 266 295
#     4  10  23  36  44  71 101 134 176 205 263 312
#
# _framework density 15.968215000000001
#
# number of rings (size 3 to 8) (size 9 to 14) (size 15 to 20)
#    0.000    1.909    3.636    2.182    1.273    0.727 
#    6.545    0.455    0.000    0.000    0.000    0.636 
#    0.000    0.000    0.000    7.091    0.000    0.000 
#
# Total GULP energy -490025.671473 kJ/mol
# GULP energy per Si atom -5568.473539 kJ/mol
# Density = 1.593187 g / cm^3
# Si number density = 15.968215 Si / 1000 Ang^3
#
#
#
# Elastic Constant Matrix: (Units=GPa)
#
#
# Indices 1 2 3 4 5 6 
#
# 1 86.4735 56.1117 39.1118 0.0000 0.0000 0.0000
# 2 56.1117 86.4735 39.1118 0.0000 0.0000 0.0000
# 3 39.1118 39.1118 106.8250 0.0000 0.0000 0.0000
# 4 0.0000 0.0000 0.0000 10.0039 0.0000 0.0000
# 5 0.0000 0.0000 0.0000 0.0000 10.0039 0.0000
# 6 0.0000 0.0000 0.0000 0.0000 0.0000 29.9231
#
#
#
# Elastic Compliance Matrix: (Units=1/GPa)
#
#
# Indices 1 2 3 4 5 6 
#
# 1 0.020856 -0.012080 -0.003213 0.000000 0.000000 0.000000
# 2 -0.012080 0.020856 -0.003213 0.000000 0.000000 0.000000
# 3 -0.003213 -0.003213 0.011714 0.000000 0.000000 0.000000
# 4 0.000000 0.000000 0.000000 0.099961 0.000000 0.000000
# 5 0.000000 0.000000 0.000000 0.000000 0.099961 0.000000
# 6 0.000000 0.000000 0.000000 0.000000 0.000000 0.033419
#
#
# Mechanical properties :
#
#
# Convention : Reuss Voigt Hill
#
# Bulk Modulus (GPa) = 60.92557 60.93807 60.93182
# Shear Modulus (GPa) = 15.18595 19.68194 17.43395
#
# Velocity S-wave (km/s) = 3.08719 3.51461 3.30781
# Velocity P-wave (km/s) = 7.13756 7.39695 7.26841
#
# Compressibility (1/GPa) = 0.01641347
#
# Stress axis : x y z
#
# Youngs Moduli (GPa) = 47.94743 47.94743 85.36792
#
# Poissons Ratio (x) = 0.57921 0.27430
# Poissons Ratio (y) = 0.57921 0.27430
# Poissons Ratio (z) = 0.15406 0.15406
#
# Static dielectric constant tensor:
#      x y z
#    x 1.551890 0.000000 0.000000 
#    y 0.000000 1.551890 0.000000 
#    z 0.000000 0.000000 1.515320 
# 
# From -- ./inp_files/4471.got.cif
#   From: 2010.05.17/outbox.cif.g08.bks.cpg/sg127_3_cif.got.tgz:4471.got - 2010.05.20 12:03:00.
