data_PCOD9564696
_publ_section_title
;
Structure prediction by ZEFSAII (Michael W. Deem and Ramdas Pophale) SiO2 
 PCOD9564696
Probable space group: P 4/M N C
;
_chemical_formula_sum "Si O2"
_cell_formula_units_Z 96
_cell_length_a 24.673833
_cell_length_b 24.673833
_cell_length_c 7.802191
_cell_angle_alpha 90.000000
_cell_angle_beta 90.000000
_cell_angle_gamma 90.000000
_cell_volume 4749.958549
_symmetry_space_group_name_H-M "P 4/M N C"
_symmetry_group_IT_number 128
_symmetry_cell_setting 'tetragonal'
loop_
_space_group_symop_operation_xyz
x,y,z
-y,x,z
-x,-y,z
y,-x,z
1/2+x,1/2-y,1/2-z
1/2-x,1/2+y,1/2-z
1/2+y,1/2+x,1/2-z
1/2-y,1/2-x,1/2-z
-x,-y,-z
y,-x,-z
x,y,-z
-y,x,-z
1/2-x,1/2+y,1/2+z
1/2+x,1/2-y,1/2+z
1/2-y,1/2-x,1/2+z
1/2+y,1/2+x,1/2+z
loop_
_atom_site_type_symbol
_atom_site_label
_atom_site_fract_x
_atom_site_fract_y
_atom_site_fract_z
Si Si1 0.717051 0.868245 0.706628
Si Si2 0.289108 0.010882 0.702122
Si Si3 0.804446 0.780943 0.706123
Si Si4 0.800341 0.073353 0.710706
Si Si5 0.417737 0.469795 0.790989
Si Si6 0.911822 0.499219 0.298276
O O1 0.660520 0.839481 0.750000
O O2 0.720884 0.869973 0.500000
O O3 0.720098 0.928992 0.775047
O O4 0.764495 0.828496 0.770716
O O5 0.277166 0.014369 0.500000
O O6 0.352365 0.997049 0.719419
O O7 0.247592 0.966286 0.770522
O O8 0.775683 0.724318 0.750000
O O9 0.805527 0.784846 0.500000
O O10 0.865378 0.788954 0.768199
O O11 0.800495 0.074027 0.500000
O O12 0.859353 0.051662 0.764999
O O13 0.468680 0.432335 0.738359
O O14 0.417306 0.469658 0.000000
O O15 0.944877 0.444877 0.250000
O O16 0.904742 0.499074 0.500000
O O17 0.950881 0.549120 0.250000
#
# Coordination Sequence:
#
# PCOD9564696 Si02
#       6
#    16  16  16  16  16  16
#     4   9  18  31  50  72  97 130 169 212 258 303
#     4  10  20  33  49  76 108 139 174 215 261 312
#     4   9  18  33  50  70  96 132 172 211 256 305
#     4   9  18  29  46  70 102 140 176 214 261 315
#     4   8  14  24  41  69 103 137 173 216 266 317
#     4  11  22  38  59  81 106 138 173 214 260 313
#
# _framework density 20.210704
#
# number of rings (size 3 to 8) (size 9 to 14) (size 15 to 20)
#    0.000    2.667    0.000    3.000    2.333    2.667 
#    0.000    2.500    0.000    0.000    0.000    0.000 
#    0.000    0.000    0.000    7.333    0.000    6.667 
#
# Total GULP energy -535761.392278 kJ/mol
# GULP energy per Si atom -5580.847836 kJ/mol
# Density = 2.016470 g / cm^3
# Si number density = 20.210704 Si / 1000 Ang^3
#
#
#
# Elastic Constant Matrix: (Units=GPa)
#
#
# Indices 1 2 3 4 5 6 
#
# 1 150.8132 135.3516 -7.2181 0.0000 0.0000 0.0000
# 2 135.3516 150.8228 -7.2142 0.0000 0.0000 0.0000
# 3 -7.2181 -7.2142 23.1280 0.0000 0.0000 0.0000
# 4 0.0000 0.0000 0.0000 7.0575 0.0000 0.0000
# 5 0.0000 0.0000 0.0000 0.0000 7.0577 0.0000
# 6 0.0000 0.0000 0.0000 0.0000 0.0000 20.1692
#
#
#
# Elastic Compliance Matrix: (Units=1/GPa)
#
#
# Indices 1 2 3 4 5 6 
#
# 1 0.034105 -0.030553 0.001114 0.000000 0.000000 0.000000
# 2 -0.030553 0.034102 0.001102 0.000000 0.000000 0.000000
# 3 0.001114 0.001102 0.043929 0.000000 0.000000 0.000000
# 4 0.000000 0.000000 0.000000 0.141693 0.000000 0.000000
# 5 0.000000 0.000000 0.000000 0.000000 0.141688 0.000000
# 6 0.000000 0.000000 0.000000 0.000000 0.000000 0.049581
#
#
# Mechanical properties :
#
#
# Convention : Reuss Voigt Hill
#
# Bulk Modulus (GPa) = 18.03088 62.95584 40.49336
# Shear Modulus (GPa) = 9.61058 20.44654 15.02856
#
# Velocity S-wave (km/s) = 2.18301 3.18412 2.72985
# Velocity P-wave (km/s) = 3.91086 6.68847 5.47861
#
# Compressibility (1/GPa) = 0.05546041
#
# Stress axis : x y z
#
# Youngs Moduli (GPa) = 29.32139 29.32377 22.76406
#
# Poissons Ratio (x) = 0.89593 -0.02535
# Poissons Ratio (y) = 0.89586 -0.02508
# Poissons Ratio (z) = -0.03265 -0.03231
#
# Static dielectric constant tensor:
#      x y z
#    x 1.684550 0.000000 0.000000 
#    y 0.000000 1.684550 0.000000 
#    z 0.000000 0.000000 1.759060 
# 
# From -- ./inp_files/1420.got.cif
#   From: 2010.05.17/outbox.cif.g08.bks.cpg/sg128_1_cif.got.tgz:1420.got - 2010.05.20 12:07:25.
