data_PCOD9564242
_publ_section_title
;
Structure prediction by ZEFSAII (Michael W. Deem and Ramdas Pophale) SiO2 
 PCOD9564242
Probable space group: P 4/M B M
;
_chemical_formula_sum "Si O2"
_cell_formula_units_Z 56
_cell_length_a 19.416258
_cell_length_b 19.416258
_cell_length_c 7.261809
_cell_angle_alpha 90.000000
_cell_angle_beta 90.000000
_cell_angle_gamma 90.000000
_cell_volume 2737.637179
_symmetry_space_group_name_H-M "P 4/M B M"
_symmetry_group_IT_number 127
_symmetry_cell_setting 'tetragonal'
loop_
_space_group_symop_operation_xyz
x,y,z
-y,x,z
-x,-y,z
y,-x,z
1/2+x,1/2-y,-z
1/2-x,1/2+y,-z
1/2+y,1/2+x,-z
1/2-y,1/2-x,-z
-x,-y,-z
y,-x,-z
x,y,-z
-y,x,-z
1/2-x,1/2+y,z
1/2+x,1/2-y,z
1/2-y,1/2-x,z
1/2+y,1/2+x,z
loop_
_atom_site_type_symbol
_atom_site_label
_atom_site_fract_x
_atom_site_fract_y
_atom_site_fract_z
Si Si1 0.377905 0.877905 0.775234
Si Si2 0.395765 0.549439 0.500000
Si Si3 0.892106 0.211624 0.778401
Si Si4 0.854685 0.465640 0.776367
Si Si5 0.766043 0.733958 0.223300
O O1 0.455415 0.859691 0.716952
O O2 0.321877 0.821877 0.715137
O O3 0.377412 0.877412 0.000000
O O4 0.411540 0.468518 0.500000
O O5 0.350818 0.571406 0.324180
O O6 0.929113 0.283234 0.726231
O O7 0.811910 0.215853 0.723478
O O8 0.895855 0.204675 0.000000
O O9 0.918881 0.418881 0.715789
O O10 0.856589 0.466041 0.000000
O O11 0.766390 0.733611 0.000000
#
# Coordination Sequence:
#
# PCOD9564242 Si02
#       5
#     8   8  16  16   8
#     4   9  17  26  50  89 126 158 201 253 299 358
#     4  11  28  47  62  90 123 156 213 274 314 366
#     4  10  21  40  67  91 123 167 204 251 313 373
#     4   9  16  30  53  87 126 164 200 243 304 371
#     4   9  18  34  57  93 125 156 211 256 290 362
#
# _framework density 20.455594999999999
#
# number of rings (size 3 to 8) (size 9 to 14) (size 15 to 20)
#    0.000    2.429    1.429    0.429    4.000    3.429 
#    0.000    1.429    0.000    0.857    0.000    2.000 
#    0.000    0.000    0.000    0.000    0.000    0.000 
#
# Total GULP energy -313050.344187 kJ/mol
# GULP energy per Si atom -5590.184718 kJ/mol
# Density = 2.040904 g / cm^3
# Si number density = 20.455595 Si / 1000 Ang^3
#
#
#
# Elastic Constant Matrix: (Units=GPa)
#
#
# Indices 1 2 3 4 5 6 
#
# 1 185.0227 163.3295 32.0809 0.0000 0.0000 0.0000
# 2 163.3295 185.0236 32.0810 0.0000 0.0000 0.0000
# 3 32.0809 32.0810 96.4461 0.0000 0.0000 0.0000
# 4 0.0000 0.0000 0.0000 26.3354 0.0000 0.0000
# 5 0.0000 0.0000 0.0000 0.0000 26.3347 0.0000
# 6 0.0000 0.0000 0.0000 0.0000 0.0000 38.9630
#
#
#
# Elastic Compliance Matrix: (Units=1/GPa)
#
#
# Indices 1 2 3 4 5 6 
#
# 1 0.024577 -0.021519 -0.001017 0.000000 0.000000 0.000000
# 2 -0.021519 0.024577 -0.001017 0.000000 0.000000 0.000000
# 3 -0.001017 -0.001017 0.011045 0.000000 0.000000 0.000000
# 4 0.000000 0.000000 0.000000 0.037972 0.000000 0.000000
# 5 0.000000 0.000000 0.000000 0.000000 0.037973 0.000000
# 6 0.000000 0.000000 0.000000 0.000000 0.000000 0.025665
#
#
# Mechanical properties :
#
#
# Convention : Reuss Voigt Hill
#
# Bulk Modulus (GPa) = 76.37993 102.38613 89.38303
# Shear Modulus (GPa) = 23.44326 34.26001 28.85164
#
# Velocity S-wave (km/s) = 3.38902 4.09693 3.75967
# Velocity P-wave (km/s) = 7.26184 8.51712 7.91441
#
# Compressibility (1/GPa) = 0.01309244
#
# Stress axis : x y z
#
# Youngs Moduli (GPa) = 40.68794 40.68814 90.53727
#
# Poissons Ratio (x) = 0.87558 0.09209
# Poissons Ratio (y) = 0.87557 0.09209
# Poissons Ratio (z) = 0.04139 0.04139
#
# Static dielectric constant tensor:
#      x y z
#    x 1.676580 0.000000 0.000000 
#    y 0.000000 1.676580 0.000000 
#    z 0.000000 0.000000 1.765310 
# 
# From -- ./inp_files/1145.got.cif
#   From: 2010.05.17/outbox.cif.g08.bks.cpg/sg127_1_cif.got.tgz:1145.got - 2010.05.20 12:03:00.
