data_PCOD9564709
_publ_section_title
;
Structure prediction by ZEFSAII (Michael W. Deem and Ramdas Pophale) SiO2 
 PCOD9564709
Probable space group: P 4/M N C
;
_chemical_formula_sum "Si O2"
_cell_formula_units_Z 104
_cell_length_a 27.246939
_cell_length_b 27.246939
_cell_length_c 8.321102
_cell_angle_alpha 90.000000
_cell_angle_beta 90.000000
_cell_angle_gamma 90.000000
_cell_volume 6177.550218
_symmetry_space_group_name_H-M "P 4/M N C"
_symmetry_group_IT_number 128
_symmetry_cell_setting 'tetragonal'
loop_
_space_group_symop_operation_xyz
x,y,z
-y,x,z
-x,-y,z
y,-x,z
1/2+x,1/2-y,1/2-z
1/2-x,1/2+y,1/2-z
1/2+y,1/2+x,1/2-z
1/2-y,1/2-x,1/2-z
-x,-y,-z
y,-x,-z
x,y,-z
-y,x,-z
1/2-x,1/2+y,1/2+z
1/2+x,1/2-y,1/2+z
1/2-y,1/2-x,1/2+z
1/2+y,1/2+x,1/2+z
loop_
_atom_site_type_symbol
_atom_site_label
_atom_site_fract_x
_atom_site_fract_y
_atom_site_fract_z
Si Si1 0.870845 0.075639 0.685297
Si Si2 0.499806 0.922238 0.190611
Si Si3 0.956950 0.930523 0.000000
Si Si4 0.005329 0.789924 0.311773
Si Si5 0.365955 0.211187 0.693089
Si Si6 0.183869 0.525692 0.692480
Si Si7 0.320581 0.610092 0.308974
O O1 0.887878 0.066204 0.500000
O O2 0.904972 0.058914 0.833596
O O3 0.821255 0.044145 0.707536
O O4 0.867867 0.133979 0.711927
O O5 0.452690 0.952690 0.250000
O O6 0.502116 0.866605 0.250269
O O7 0.547302 0.952699 0.250000
O O8 0.500179 0.923002 0.000000
O O9 0.015380 0.934528 0.000000
O O10 0.018064 0.790012 0.500000
O O11 0.001014 0.733966 0.253756
O O12 0.051509 0.814842 0.221405
O O13 0.320169 0.179832 0.750000
O O14 0.366837 0.210747 0.500000
O O15 0.417393 0.187126 0.748864
O O16 0.367321 0.268201 0.741557
O O17 0.184940 0.525519 0.500000
O O18 0.327890 0.617804 0.500000
#
# Coordination Sequence:
#
# PCOD9564709 Si02
#       7
#    16  16   8  16  16  16  16
#     4  11  23  37  57  82 109 145 189 232 275 334
#     4  11  21  34  52  76 109 146 185 224 271 329
#     4  11  24  38  56  80 110 148 182 225 284 332
#     4  10  21  35  54  81 108 137 181 230 274 323
#     4   9  19  32  50  78 108 139 174 218 270 329
#     4  10  20  34  53  78 108 143 183 223 272 328
#     4  10  20  35  55  78 107 143 183 222 275 332
#
# _framework density 16.835152999999998
#
# number of rings (size 3 to 8) (size 9 to 14) (size 15 to 20)
#    0.000    1.769    0.769    5.538    2.154    6.769 
#    0.000    0.769    0.000    0.923    0.000    2.154 
#    0.000    0.000    0.000    0.000    0.000    0.000 
#
# Total GULP energy -580326.318513 kJ/mol
# GULP energy per Si atom -5580.060755 kJ/mol
# Density = 1.679684 g / cm^3
# Si number density = 16.835153 Si / 1000 Ang^3
#
#
#
# Elastic Constant Matrix: (Units=GPa)
#
#
# Indices 1 2 3 4 5 6 
#
# 1 130.1638 29.3113 31.0683 0.0000 0.0000 0.0000
# 2 29.3113 130.1341 31.0845 0.0000 0.0000 0.0000
# 3 31.0683 31.0845 82.4314 0.0000 0.0000 0.0000
# 4 0.0000 0.0000 0.0000 27.9839 0.0000 0.0000
# 5 0.0000 0.0000 0.0000 0.0000 27.9845 0.0000
# 6 0.0000 0.0000 0.0000 0.0000 0.0000 26.9299
#
#
#
# Elastic Compliance Matrix: (Units=1/GPa)
#
#
# Indices 1 2 3 4 5 6 
#
# 1 0.008633 -0.001283 -0.002770 0.000000 0.000000 0.000000
# 2 -0.001283 0.008636 -0.002773 0.000000 0.000000 0.000000
# 3 -0.002770 -0.002773 0.014221 0.000000 0.000000 0.000000
# 4 0.000000 0.000000 0.000000 0.035735 0.000000 0.000000
# 5 0.000000 0.000000 0.000000 0.000000 0.035734 0.000000
# 6 0.000000 0.000000 0.000000 0.000000 0.000000 0.037133
#
#
# Mechanical properties :
#
#
# Convention : Reuss Voigt Hill
#
# Bulk Modulus (GPa) = 56.06035 58.40640 57.23337
# Shear Modulus (GPa) = 31.31088 33.33068 32.32078
#
# Velocity S-wave (km/s) = 4.31728 4.45435 4.38635
# Velocity P-wave (km/s) = 7.63045 7.82454 7.72810
#
# Compressibility (1/GPa) = 0.01783792
#
# Stress axis : x y z
#
# Youngs Moduli (GPa) = 115.83960 115.79858 70.31871
#
# Poissons Ratio (x) = 0.14854 0.19478
# Poissons Ratio (y) = 0.14860 0.19499
# Poissons Ratio (z) = 0.32086 0.32111
#
# Static dielectric constant tensor:
#      x y z
#    x 1.534160 0.000000 0.000000 
#    y 0.000000 1.534150 0.000000 
#    z 0.000000 0.000000 1.607560 
# 
# From -- ./inp_files/1712.got.cif
#   From: 2010.05.17/outbox.cif.g08.bks.cpg/sg128_1_cif.got.tgz:1712.got - 2010.05.20 12:07:25.
