data_PCOD9564795
_publ_section_title
;
Structure prediction by ZEFSAII (Michael W. Deem and Ramdas Pophale) SiO2 
 PCOD9564795
Probable space group: P 4/M N C
;
_chemical_formula_sum "Si O2"
_cell_formula_units_Z 48
_cell_length_a 10.576088
_cell_length_b 10.576088
_cell_length_c 18.278311
_cell_angle_alpha 90.000000
_cell_angle_beta 90.000000
_cell_angle_gamma 90.000000
_cell_volume 2044.495571
_symmetry_space_group_name_H-M "P 4/M N C"
_symmetry_group_IT_number 128
_symmetry_cell_setting 'tetragonal'
loop_
_space_group_symop_operation_xyz
x,y,z
-y,x,z
-x,-y,z
y,-x,z
1/2+x,1/2-y,1/2-z
1/2-x,1/2+y,1/2-z
1/2+y,1/2+x,1/2-z
1/2-y,1/2-x,1/2-z
-x,-y,-z
y,-x,-z
x,y,-z
-y,x,-z
1/2-x,1/2+y,1/2+z
1/2+x,1/2-y,1/2+z
1/2-y,1/2-x,1/2+z
1/2+y,1/2+x,1/2+z
loop_
_atom_site_type_symbol
_atom_site_label
_atom_site_fract_x
_atom_site_fract_y
_atom_site_fract_z
Si Si1 0.321065 0.210182 0.081575
Si Si2 0.067132 0.299772 0.141821
Si Si3 0.971788 0.276924 0.287640
O O1 0.173091 0.238256 0.091702
O O2 0.397734 0.285674 0.144850
O O3 0.331835 0.060722 0.099159
O O4 0.364834 0.238551 0.000000
O O5 0.133708 0.424690 0.174169
O O6 0.036922 0.218217 0.215690
O O7 0.864421 0.364421 0.250000
#
# Coordination Sequence:
#
# PCOD9564795 Si02
#       3
#    16  16  16
#     4  11  22  36  59  89 122 154 193 249 305 350
#     4  10  21  36  60  87 119 156 199 240 293 362
#     4   9  20  38  61  83 111 155 206 240 283 355
#
# _framework density 23.477674
#
# number of rings (size 3 to 8) (size 9 to 14) (size 15 to 20)
#    0.000    2.000    0.000    8.000   14.000    4.667 
#    0.000    1.667    0.000    1.000    0.000    2.333 
#    0.000    0.000    0.000    0.000    0.000    0.000 
#
# Total GULP energy -267806.964987 kJ/mol
# GULP energy per Si atom -5579.311771 kJ/mol
# Density = 2.342424 g / cm^3
# Si number density = 23.477674 Si / 1000 Ang^3
#
#
#
# Elastic Constant Matrix: (Units=GPa)
#
#
# Indices 1 2 3 4 5 6 
#
# 1 22.3108 8.1110 9.1016 0.0000 0.0000 0.0000
# 2 8.1110 22.3108 9.1016 0.0000 0.0000 0.0000
# 3 9.1016 9.1016 171.5376 0.0000 0.0000 0.0000
# 4 0.0000 0.0000 0.0000 23.7033 0.0000 0.0000
# 5 0.0000 0.0000 0.0000 0.0000 23.7033 0.0000
# 6 0.0000 0.0000 0.0000 0.0000 0.0000 26.1284
#
#
#
# Elastic Compliance Matrix: (Units=1/GPa)
#
#
# Indices 1 2 3 4 5 6 
#
# 1 0.052186 -0.018237 -0.001801 0.000000 0.000000 0.000000
# 2 -0.018237 0.052186 -0.001801 0.000000 0.000000 0.000000
# 3 -0.001801 -0.001801 0.006021 0.000000 0.000000 0.000000
# 4 0.000000 0.000000 0.000000 0.042188 0.000000 0.000000
# 5 0.000000 0.000000 0.000000 0.000000 0.042188 0.000000
# 6 0.000000 0.000000 0.000000 0.000000 0.000000 0.038273
#
#
# Mechanical properties :
#
#
# Convention : Reuss Voigt Hill
#
# Bulk Modulus (GPa) = 14.98943 29.86530 22.42736
# Shear Modulus (GPa) = 16.72463 27.36333 22.04398
#
# Velocity S-wave (km/s) = 2.67191 3.41765 3.06753
# Velocity P-wave (km/s) = 3.98964 5.32185 4.70316
#
# Compressibility (1/GPa) = 0.06671367
#
# Stress axis : x y z
#
# Youngs Moduli (GPa) = 19.16209 19.16209 166.09151
#
# Poissons Ratio (x) = 0.34946 0.29918
# Poissons Ratio (y) = 0.34946 0.29918
# Poissons Ratio (z) = 0.03452 0.03452
#
# Static dielectric constant tensor:
#      x y z
#    x 1.946270 0.000000 0.000000 
#    y 0.000000 1.946270 0.000000 
#    z 0.000000 0.000000 1.943050 
# 
# From -- ./inp_files/4320.got.cif
#   From: 2010.05.17/outbox.cif.g08.bks.cpg/sg128_3_cif.got.tgz:4320.got - 2010.05.20 12:07:25.
