data_PCOD9564954
_publ_section_title
;
Structure prediction by ZEFSAII (Michael W. Deem and Ramdas Pophale) SiO2 
 PCOD9564954
Probable space group: P 4/M N C
;
_chemical_formula_sum "Si O2"
_cell_formula_units_Z 112
_cell_length_a 14.172940
_cell_length_b 14.172940
_cell_length_c 27.145706
_cell_angle_alpha 90.000000
_cell_angle_beta 90.000000
_cell_angle_gamma 90.000000
_cell_volume 5452.818451
_symmetry_space_group_name_H-M "P 4/M N C"
_symmetry_group_IT_number 128
_symmetry_cell_setting 'tetragonal'
loop_
_space_group_symop_operation_xyz
x,y,z
-y,x,z
-x,-y,z
y,-x,z
1/2+x,1/2-y,1/2-z
1/2-x,1/2+y,1/2-z
1/2+y,1/2+x,1/2-z
1/2-y,1/2-x,1/2-z
-x,-y,-z
y,-x,-z
x,y,-z
-y,x,-z
1/2-x,1/2+y,1/2+z
1/2+x,1/2-y,1/2+z
1/2-y,1/2-x,1/2+z
1/2+y,1/2+x,1/2+z
loop_
_atom_site_type_symbol
_atom_site_label
_atom_site_fract_x
_atom_site_fract_y
_atom_site_fract_z
Si Si1 0.888850 0.505934 0.056420
Si Si2 0.145687 0.056819 0.353506
Si Si3 0.241802 0.147884 0.442246
Si Si4 0.614276 0.241835 0.282617
Si Si5 0.096346 0.750613 0.744251
Si Si6 0.032295 0.149403 0.940778
Si Si7 0.303641 0.847519 0.104501
O O1 0.842577 0.403457 0.061977
O O2 0.849010 0.585425 0.092559
O O3 0.000000 0.500000 0.062715
O O4 0.867824 0.537001 0.000000
O O5 0.176630 0.080280 0.408948
O O6 0.223945 0.083633 0.313371
O O7 0.051457 0.118016 0.345170
O O8 0.216117 0.152153 0.500000
O O9 0.236663 0.250928 0.418490
O O10 0.659041 0.159041 0.250000
O O11 0.503714 0.248987 0.271471
O O12 0.667480 0.337540 0.266791
O O13 0.641396 0.218424 0.338401
O O14 0.153828 0.653828 0.750000
O O15 0.065407 0.249641 0.921274
O O16 0.930437 0.109005 0.925193
O O17 0.031741 0.151819 0.000000
#
# Coordination Sequence:
#
# PCOD9564954 Si02
#       7
#    16  16  16  16  16  16  16
#     4  10  24  43  66  98 138 182 229 278 340 415
#     4  11  23  42  72  96 128 179 223 285 359 416
#     4  11  24  41  66 100 137 180 230 285 344 424
#     4  11  27  46  67 106 133 179 232 290 345 421
#     4  11  24  46  73  97 137 180 232 291 352 408
#     4   9  20  38  62  94 132 174 221 271 330 400
#     4  12  25  42  69  97 138 181 230 281 351 409
#
# _framework density 20.539835
#
# number of rings (size 3 to 8) (size 9 to 14) (size 15 to 20)
#    0.000    1.286    1.429    4.286    6.000    3.429 
#    0.000    0.714    0.000    0.000    0.000    0.000 
#    0.000    0.000    0.000    0.000    0.000    0.000 
#
# Total GULP energy -626235.581563 kJ/mol
# GULP energy per Si atom -5591.389121 kJ/mol
# Density = 2.049309 g / cm^3
# Si number density = 20.539835 Si / 1000 Ang^3
#
#
#
# Elastic Constant Matrix: (Units=GPa)
#
#
# Indices 1 2 3 4 5 6 
#
# 1 85.7086 31.2783 40.4573 0.0000 0.0000 0.0000
# 2 31.2783 85.7086 40.4573 0.0000 0.0000 0.0000
# 3 40.4573 40.4573 130.6780 0.0000 0.0000 0.0000
# 4 0.0000 0.0000 0.0000 30.9328 0.0000 0.0000
# 5 0.0000 0.0000 0.0000 0.0000 30.9328 0.0000
# 6 0.0000 0.0000 0.0000 0.0000 0.0000 18.5789
#
#
#
# Elastic Compliance Matrix: (Units=1/GPa)
#
#
# Indices 1 2 3 4 5 6 
#
# 1 0.014625 -0.003747 -0.003368 0.000000 0.000000 0.000000
# 2 -0.003747 0.014625 -0.003368 0.000000 0.000000 0.000000
# 3 -0.003368 -0.003368 0.009738 0.000000 0.000000 0.000000
# 4 0.000000 0.000000 0.000000 0.032328 0.000000 0.000000
# 5 0.000000 0.000000 0.000000 0.000000 0.032328 0.000000
# 6 0.000000 0.000000 0.000000 0.000000 0.000000 0.053824
#
#
# Mechanical properties :
#
#
# Convention : Reuss Voigt Hill
#
# Bulk Modulus (GPa) = 55.48853 58.49788 56.99321
# Shear Modulus (GPa) = 27.10912 28.74906 27.92909
#
# Velocity S-wave (km/s) = 3.63689 3.74528 3.69148
# Velocity P-wave (km/s) = 6.68653 6.87349 6.78065
#
# Compressibility (1/GPa) = 0.01802174
#
# Stress axis : x y z
#
# Youngs Moduli (GPa) = 68.37787 68.37787 102.69553
#
# Poissons Ratio (x) = 0.25625 0.34583
# Poissons Ratio (y) = 0.25625 0.34583
# Poissons Ratio (z) = 0.23026 0.23026
#
# Static dielectric constant tensor:
#      x y z
#    x 1.663020 0.000000 0.000000 
#    y 0.000000 1.663020 0.000000 
#    z 0.000000 0.000000 1.702080 
# 
# From -- ./inp_files/6460.got.cif
#   From: 2010.05.17/outbox.cif.g08.bks.cpg/sg128_4_cif.got.tgz:6460.got - 2010.05.20 12:07:25.
