data_PCOD9564055
_publ_section_title
;
Structure prediction by ZEFSAII (Michael W. Deem and Ramdas Pophale) SiO2 
 PCOD9564055
Probable space group: P 4/M B M
;
_chemical_formula_sum "Si O2"
_cell_formula_units_Z 72
_cell_length_a 21.867451
_cell_length_b 21.867451
_cell_length_c 8.387203
_cell_angle_alpha 90.000000
_cell_angle_beta 90.000000
_cell_angle_gamma 90.000000
_cell_volume 4010.638132
_symmetry_space_group_name_H-M "P 4/M B M"
_symmetry_group_IT_number 127
_symmetry_cell_setting 'tetragonal'
loop_
_space_group_symop_operation_xyz
x,y,z
-y,x,z
-x,-y,z
y,-x,z
1/2+x,1/2-y,-z
1/2-x,1/2+y,-z
1/2+y,1/2+x,-z
1/2-y,1/2-x,-z
-x,-y,-z
y,-x,-z
x,y,-z
-y,x,-z
1/2-x,1/2+y,z
1/2+x,1/2-y,z
1/2-y,1/2-x,z
1/2+y,1/2+x,z
loop_
_atom_site_type_symbol
_atom_site_label
_atom_site_fract_x
_atom_site_fract_y
_atom_site_fract_z
Si Si1 0.550483 0.949518 0.190733
Si Si2 0.511665 0.815592 0.309066
Si Si3 0.683252 0.462812 0.806514
Si Si4 0.598386 0.352501 0.190820
Si Si5 0.875388 0.722863 0.692407
O O1 0.534374 0.880735 0.245731
O O2 0.500000 0.000000 0.248948
O O3 0.548936 0.951065 0.000000
O O4 0.514927 0.817099 0.500000
O O5 0.544436 0.753353 0.250039
O O6 0.440947 0.805086 0.260029
O O7 0.637559 0.409790 0.750057
O O8 0.657037 0.528675 0.750992
O O9 0.684256 0.463028 0.000000
O O10 0.631254 0.289623 0.235246
O O11 0.594667 0.358567 0.000000
O O12 0.875344 0.727362 0.500000
O O13 0.822107 0.677894 0.743269
#
# Coordination Sequence:
#
# PCOD9564055 Si02
#       5
#     8  16  16  16  16
#     4  11  23  37  55  81 109 139 175 215 263 316
#     4  10  20  35  55  77 104 138 174 215 263 311
#     4   9  18  34  53  76 106 138 175 218 266 313
#     4   9  18  32  52  76 103 136 172 214 262 313
#     4   9  18  33  52  74 100 132 171 215 257 303
#
# _framework density 17.952254
#
# number of rings (size 3 to 8) (size 9 to 14) (size 15 to 20)
#    0.000    2.556    0.000    1.667    0.000    4.444 
#    2.000    2.222    0.000    0.000    0.000    6.222 
#    0.000    0.000    0.000    0.000    0.000    0.000 
#
# Total GULP energy -401415.622885 kJ/mol
# GULP energy per Si atom -5575.216985 kJ/mol
# Density = 1.791139 g / cm^3
# Si number density = 17.952254 Si / 1000 Ang^3
#
#
#
# Elastic Constant Matrix: (Units=GPa)
#
#
# Indices 1 2 3 4 5 6 
#
# 1 129.5786 108.9101 19.5708 0.0000 0.0000 0.0000
# 2 108.9101 129.5782 19.5707 0.0000 0.0000 0.0000
# 3 19.5708 19.5707 16.0845 0.0000 0.0000 0.0000
# 4 0.0000 0.0000 0.0000 20.5420 0.0000 0.0000
# 5 0.0000 0.0000 0.0000 0.0000 20.5420 0.0000
# 6 0.0000 0.0000 0.0000 0.0000 0.0000 35.1255
#
#
#
# Elastic Compliance Matrix: (Units=1/GPa)
#
#
# Indices 1 2 3 4 5 6 
#
# 1 0.026811 -0.021572 -0.006375 0.000000 0.000000 0.000000
# 2 -0.021572 0.026811 -0.006375 0.000000 0.000000 0.000000
# 3 -0.006375 -0.006375 0.077685 0.000000 0.000000 0.000000
# 4 0.000000 0.000000 0.000000 0.048681 0.000000 0.000000
# 5 0.000000 0.000000 0.000000 0.000000 0.048681 0.000000
# 6 0.000000 0.000000 0.000000 0.000000 0.000000 0.028469
#
#
# Mechanical properties :
#
#
# Convention : Reuss Voigt Hill
#
# Bulk Modulus (GPa) = 15.95816 63.48273 39.72045
# Shear Modulus (GPa) = 14.42293 23.72121 19.07207
#
# Velocity S-wave (km/s) = 2.83751 3.63898 3.26295
# Velocity P-wave (km/s) = 4.43214 7.28663 6.03071
#
# Compressibility (1/GPa) = 0.06266385
#
# Stress axis : x y z
#
# Youngs Moduli (GPa) = 37.29765 37.29760 12.87251
#
# Poissons Ratio (x) = 0.80458 0.08206
# Poissons Ratio (y) = 0.80459 0.08206
# Poissons Ratio (z) = 0.23777 0.23777
#
# Static dielectric constant tensor:
#      x y z
#    x 1.604440 0.000000 0.000000 
#    y 0.000000 1.604440 0.000000 
#    z 0.000000 0.000000 1.622470 
# 
# From -- ./inp_files/1514.got.cif
#   From: 2010.05.17/outbox.cif.g08.bks.cpg/sg127_1_cif.got.tgz:1514.got - 2010.05.20 12:03:00.
