data_PCOD9564803
_publ_section_title
;
Structure prediction by ZEFSAII (Michael W. Deem and Ramdas Pophale) SiO2 
 PCOD9564803
Probable space group: P 4/M N C
;
_chemical_formula_sum "Si O2"
_cell_formula_units_Z 64
_cell_length_a 20.110174
_cell_length_b 20.110174
_cell_length_c 8.646880
_cell_angle_alpha 90.000000
_cell_angle_beta 90.000000
_cell_angle_gamma 90.000000
_cell_volume 3496.963413
_symmetry_space_group_name_H-M "P 4/M N C"
_symmetry_group_IT_number 128
_symmetry_cell_setting 'tetragonal'
loop_
_space_group_symop_operation_xyz
x,y,z
-y,x,z
-x,-y,z
y,-x,z
1/2+x,1/2-y,1/2-z
1/2-x,1/2+y,1/2-z
1/2+y,1/2+x,1/2-z
1/2-y,1/2-x,1/2-z
-x,-y,-z
y,-x,-z
x,y,-z
-y,x,-z
1/2-x,1/2+y,1/2+z
1/2+x,1/2-y,1/2+z
1/2-y,1/2-x,1/2+z
1/2+y,1/2+x,1/2+z
loop_
_atom_site_type_symbol
_atom_site_label
_atom_site_fract_x
_atom_site_fract_y
_atom_site_fract_z
Si Si1 0.256590 0.495250 0.177344
Si Si2 0.251059 0.645428 0.813433
Si Si3 0.610901 0.500354 0.328250
Si Si4 0.753430 0.148319 0.816099
O O1 0.237078 0.569120 0.234932
O O2 0.336165 0.498693 0.194125
O O3 0.239821 0.427626 0.267230
O O4 0.235259 0.488190 0.000000
O O5 0.193560 0.693560 0.750000
O O6 0.319855 0.678056 0.751278
O O7 0.253030 0.647296 0.000000
O O8 0.563145 0.563630 0.320862
O O9 0.643617 0.500837 0.500000
O O10 0.695419 0.195419 0.750000
O O11 0.756240 0.153951 0.000000
#
# Coordination Sequence:
#
# PCOD9564803 Si02
#       4
#    16  16  16  16
#     4  11  22  34  51  77 106 137 176 219 265 316
#     4  10  21  37  57  81 111 144 180 224 269 319
#     4   9  18  31  46  68 100 137 175 212 253 306
#     4  11  22  37  58  81 109 143 180 223 269 320
#
# _framework density 18.301593
#
# number of rings (size 3 to 8) (size 9 to 14) (size 15 to 20)
#    0.000    1.750    0.000    7.500    0.000    9.000 
#    0.000    1.250    0.000    0.750    0.000    5.250 
#    0.000    0.000    0.000    0.000    0.000    0.000 
#
# Total GULP energy -357045.628656 kJ/mol
# GULP energy per Si atom -5578.837948 kJ/mol
# Density = 1.825994 g / cm^3
# Si number density = 18.301593 Si / 1000 Ang^3
#
#
#
# Elastic Constant Matrix: (Units=GPa)
#
#
# Indices 1 2 3 4 5 6 
#
# 1 102.8971 36.5602 32.0802 0.0000 0.0000 0.0000
# 2 36.5602 102.8971 32.0802 0.0000 0.0000 0.0000
# 3 32.0802 32.0802 77.6457 0.0000 0.0000 0.0000
# 4 0.0000 0.0000 0.0000 41.9762 0.0000 0.0000
# 5 0.0000 0.0000 0.0000 0.0000 41.9762 0.0000
# 6 0.0000 0.0000 0.0000 0.0000 0.0000 21.4210
#
#
#
# Elastic Compliance Matrix: (Units=1/GPa)
#
#
# Indices 1 2 3 4 5 6 
#
# 1 0.011964 -0.003110 -0.003658 0.000000 0.000000 0.000000
# 2 -0.003110 0.011964 -0.003658 0.000000 0.000000 0.000000
# 3 -0.003658 -0.003658 0.015902 0.000000 0.000000 0.000000
# 4 0.000000 0.000000 0.000000 0.023823 0.000000 0.000000
# 5 0.000000 0.000000 0.000000 0.000000 0.023823 0.000000
# 6 0.000000 0.000000 0.000000 0.000000 0.000000 0.046683
#
#
# Mechanical properties :
#
#
# Convention : Reuss Voigt Hill
#
# Bulk Modulus (GPa) = 52.69538 53.87568 53.28553
# Shear Modulus (GPa) = 30.99093 33.25595 32.12344
#
# Velocity S-wave (km/s) = 4.11949 4.26738 4.19409
# Velocity P-wave (km/s) = 7.17511 7.33364 7.25481
#
# Compressibility (1/GPa) = 0.01897700
#
# Stress axis : x y z
#
# Youngs Moduli (GPa) = 83.58363 83.58363 62.88644
#
# Poissons Ratio (x) = 0.25999 0.23004
# Poissons Ratio (y) = 0.25999 0.23004
# Poissons Ratio (z) = 0.30575 0.30575
#
# Static dielectric constant tensor:
#      x y z
#    x 1.642740 0.000000 0.000000 
#    y 0.000000 1.642740 0.000000 
#    z 0.000000 0.000000 1.661230 
# 
# From -- ./inp_files/1020.got.cif
#   From: 2010.05.17/outbox.cif.g08.bks.cpg/sg128_1_cif.got.tgz:1020.got - 2010.05.20 12:07:25.
