data_PCOD9564899
_publ_section_title
;
Structure prediction by ZEFSAII (Michael W. Deem and Ramdas Pophale) SiO2 
 PCOD9564899
Probable space group: P 4/M N C
;
_chemical_formula_sum "Si O2"
_cell_formula_units_Z 32
_cell_length_a 7.966019
_cell_length_b 7.966019
_cell_length_c 23.650451
_cell_angle_alpha 90.000000
_cell_angle_beta 90.000000
_cell_angle_gamma 90.000000
_cell_volume 1500.797518
_symmetry_space_group_name_H-M "P 4/M N C"
_symmetry_group_IT_number 128
_symmetry_cell_setting 'tetragonal'
loop_
_space_group_symop_operation_xyz
x,y,z
-y,x,z
-x,-y,z
y,-x,z
1/2+x,1/2-y,1/2-z
1/2-x,1/2+y,1/2-z
1/2+y,1/2+x,1/2-z
1/2-y,1/2-x,1/2-z
-x,-y,-z
y,-x,-z
x,y,-z
-y,x,-z
1/2-x,1/2+y,1/2+z
1/2+x,1/2-y,1/2+z
1/2-y,1/2-x,1/2+z
1/2+y,1/2+x,1/2+z
loop_
_atom_site_type_symbol
_atom_site_label
_atom_site_fract_x
_atom_site_fract_y
_atom_site_fract_z
Si Si1 0.266409 0.094318 0.692339
Si Si2 0.000000 0.500000 0.097397
Si Si3 0.089075 0.268043 0.500000
O O1 0.361180 0.138821 0.750000
O O2 0.098818 0.205745 0.690407
O O3 0.387036 0.113492 0.638683
O O4 0.119459 0.394350 0.055751
O O5 0.203258 0.104111 0.500000
#
# Coordination Sequence:
#
# PCOD9564899 Si02
#       3
#    16   8   8
#     4  11  23  40  64  94 129 168 211 263 324 390
#     4  11  21  36  62  90 121 159 210 262 320 385
#     4  10  22  40  62  88 120 164 216 271 328 384
#
# _framework density 21.321997
#
# number of rings (size 3 to 8) (size 9 to 14) (size 15 to 20)
#    0.000    1.250    0.000    6.750    0.000    4.000 
#    0.000    0.000    0.000   51.000    0.000    0.000 
#    0.000    0.000    0.000    0.000    0.000    0.000 
#
# Total GULP energy -179053.524535 kJ/mol
# GULP energy per Si atom -5595.422642 kJ/mol
# Density = 2.127347 g / cm^3
# Si number density = 21.321997 Si / 1000 Ang^3
#
#
#
# Elastic Constant Matrix: (Units=GPa)
#
#
# Indices 1 2 3 4 5 6 
#
# 1 119.7467 44.5559 71.0933 0.0000 0.0000 0.0000
# 2 44.5559 119.7464 71.0934 0.0000 0.0000 0.0000
# 3 71.0933 71.0934 203.8181 0.0000 0.0000 0.0000
# 4 0.0000 0.0000 0.0000 26.4812 0.0000 0.0000
# 5 0.0000 0.0000 0.0000 0.0000 26.4814 0.0000
# 6 0.0000 0.0000 0.0000 0.0000 0.0000 23.5066
#
#
#
# Elastic Compliance Matrix: (Units=1/GPa)
#
#
# Indices 1 2 3 4 5 6 
#
# 1 0.011009 -0.002291 -0.003041 0.000000 0.000000 0.000000
# 2 -0.002291 0.011009 -0.003041 0.000000 0.000000 0.000000
# 3 -0.003041 -0.003041 0.007028 0.000000 0.000000 0.000000
# 4 0.000000 0.000000 0.000000 0.037763 0.000000 0.000000
# 5 0.000000 0.000000 0.000000 0.000000 0.037762 0.000000
# 6 0.000000 0.000000 0.000000 0.000000 0.000000 0.042541
#
#
# Mechanical properties :
#
#
# Convention : Reuss Voigt Hill
#
# Bulk Modulus (GPa) = 81.30079 90.75514 86.02796
# Shear Modulus (GPa) = 29.76964 32.39843 31.08404
#
# Velocity S-wave (km/s) = 3.74062 3.90228 3.82231
# Velocity P-wave (km/s) = 7.54116 7.93475 7.74046
#
# Compressibility (1/GPa) = 0.01230000
#
# Stress axis : x y z
#
# Youngs Moduli (GPa) = 90.83734 90.83699 142.29426
#
# Poissons Ratio (x) = 0.20809 0.43270
# Poissons Ratio (y) = 0.20809 0.43270
# Poissons Ratio (z) = 0.27622 0.27622
#
# Static dielectric constant tensor:
#      x y z
#    x 1.780780 0.000000 0.000000 
#    y 0.000000 1.780780 0.000000 
#    z 0.000000 0.000000 1.754820 
# 
# From -- ./inp_files/5142.got.cif
#   From: 2010.05.17/outbox.cif.g08.bks.cpg/sg128_3_cif.got.tgz:5142.got - 2010.05.20 12:07:25.
