data_PCOD9565487
_publ_section_title
;
Structure prediction by ZEFSAII (Michael W. Deem and Ramdas Pophale) SiO2 
 PCOD9565487
Probable space group: P 4/N M M
;
_chemical_formula_sum "Si O2"
_cell_formula_units_Z 112
_cell_length_a 29.475547
_cell_length_b 29.475547
_cell_length_c 6.835787
_cell_angle_alpha 90.000000
_cell_angle_beta 90.000000
_cell_angle_gamma 90.000000
_cell_volume 5938.985550
_symmetry_space_group_name_H-M "P 4/N M M"
_symmetry_group_IT_number 129
_symmetry_cell_setting 'tetragonal'
loop_
_space_group_symop_operation_xyz
x,y,z
1/2-y,x,z
1/2-x,1/2-y,z
y,1/2-x,z
1/2+x,-y,-z
-x,1/2+y,-z
1/2+y,1/2+x,-z
-y,-x,-z
-x,-y,-z
1/2+y,-x,-z
1/2+x,1/2+y,-z
-y,1/2+x,-z
1/2-x,y,z
x,1/2-y,z
1/2-y,1/2-x,z
y,x,z
loop_
_atom_site_type_symbol
_atom_site_label
_atom_site_fract_x
_atom_site_fract_y
_atom_site_fract_z
Si Si1 0.826337 0.460984 0.267568
Si Si2 0.086563 0.650667 0.879166
Si Si3 0.027852 0.594998 0.568510
Si Si4 0.299884 0.876114 0.470407
Si Si5 0.947119 0.699663 0.123260
Si Si6 0.635426 0.938491 0.762697
Si Si7 0.196044 0.379424 0.531549
O O1 0.873964 0.468184 0.376147
O O2 0.804441 0.418659 0.381907
O O3 0.801838 0.509259 0.266422
O O4 0.832174 0.447380 0.043244
O O5 0.063317 0.615192 0.728902
O O6 0.104196 0.691232 0.745135
O O7 0.126200 0.626200 0.000000
O O8 0.045458 0.545458 0.500000
O O9 0.979046 0.606913 0.660607
O O10 0.339751 0.839751 0.500000
O O11 0.250000 0.856025 0.490862
O O12 0.944350 0.750000 0.035830
O O13 0.902737 0.691591 0.254998
O O14 0.953033 0.662809 0.954508
O O15 0.599672 0.900329 0.821247
O O16 0.671164 0.914608 0.615602
O O17 0.250000 0.374323 0.490719
O O18 0.167212 0.332789 0.522495
#
# Coordination Sequence:
#
# PCOD9565487 Si02
#       7
#    16  16  16  16  16  16  16
#     4  11  20  38  60  87 116 149 188 249 305 355
#     4  11  19  38  62  83 111 150 190 243 305 354
#     4  11  21  35  61  87 118 158 204 245 293 355
#     4  11  24  39  58  85 115 151 198 248 303 367
#     4  11  22  37  62  92 120 154 198 249 306 364
#     4  11  23  39  58  85 126 166 203 245 293 353
#     4  10  22  41  64  91 125 162 202 252 307 365
#
# _framework density 18.858439000000001
#
# number of rings (size 3 to 8) (size 9 to 14) (size 15 to 20)
#    0.000    1.143    5.714    2.143    0.000    1.714 
#    0.000    0.000    0.000    1.286    0.000    2.000 
#    0.000    0.000    0.000    0.000    0.000    0.000 
#
# Total GULP energy -624671.991295 kJ/mol
# GULP energy per Si atom -5577.428494 kJ/mol
# Density = 1.881552 g / cm^3
# Si number density = 18.858439 Si / 1000 Ang^3
#
#
#
# Elastic Constant Matrix: (Units=GPa)
#
#
# Indices 1 2 3 4 5 6 
#
# 1 105.6406 61.1828 35.1800 0.0000 0.0000 0.0000
# 2 61.1828 105.6406 35.1800 0.0000 0.0000 0.0000
# 3 35.1800 35.1800 82.0413 0.0000 0.0000 0.0000
# 4 0.0000 0.0000 0.0000 18.5885 0.0000 0.0000
# 5 0.0000 0.0000 0.0000 0.0000 18.5885 0.0000
# 6 0.0000 0.0000 0.0000 0.0000 0.0000 9.5099
#
#
#
# Elastic Compliance Matrix: (Units=1/GPa)
#
#
# Indices 1 2 3 4 5 6 
#
# 1 0.014906 -0.007588 -0.003138 0.000000 0.000000 0.000000
# 2 -0.007588 0.014906 -0.003138 0.000000 0.000000 0.000000
# 3 -0.003138 -0.003138 0.014880 0.000000 0.000000 0.000000
# 4 0.000000 0.000000 0.000000 0.053797 0.000000 0.000000
# 5 0.000000 0.000000 0.000000 0.000000 0.053797 0.000000
# 6 0.000000 0.000000 0.000000 0.000000 0.000000 0.105154
#
#
# Mechanical properties :
#
#
# Convention : Reuss Voigt Hill
#
# Bulk Modulus (GPa) = 58.94835 61.82315 60.38575
# Shear Modulus (GPa) = 17.19273 20.12268 18.65771
#
# Velocity S-wave (km/s) = 3.02267 3.27010 3.14882
# Velocity P-wave (km/s) = 6.59608 6.86382 6.73128
#
# Compressibility (1/GPa) = 0.01696400
#
# Stress axis : x y z
#
# Youngs Moduli (GPa) = 67.08911 67.08911 67.20368
#
# Poissons Ratio (x) = 0.50905 0.21088
# Poissons Ratio (y) = 0.50905 0.21088
# Poissons Ratio (z) = 0.21052 0.21052
#
# Static dielectric constant tensor:
#      x y z
#    x 1.661520 0.000000 0.000000 
#    y 0.000000 1.661520 0.000000 
#    z 0.000000 0.000000 1.642520 
# 
# From -- ./inp_files/1181.got.cif
#   From: 2010.05.17/outbox.cif.g08.bks.cpg/sg129_1_cif.got.tgz:1181.got - 2010.05.20 12:12:06.
