data_PCOD9565378
_publ_section_title
;
Structure prediction by ZEFSAII (Michael W. Deem and Ramdas Pophale) SiO2 
 PCOD9565378
Probable space group: P 4/N M M
;
_chemical_formula_sum "Si O2"
_cell_formula_units_Z 80
_cell_length_a 13.717968
_cell_length_b 13.717968
_cell_length_c 26.122646
_cell_angle_alpha 90.000000
_cell_angle_beta 90.000000
_cell_angle_gamma 90.000000
_cell_volume 4915.828646
_symmetry_space_group_name_H-M "P 4/N M M"
_symmetry_group_IT_number 129
_symmetry_cell_setting 'tetragonal'
loop_
_space_group_symop_operation_xyz
x,y,z
1/2-y,x,z
1/2-x,1/2-y,z
y,1/2-x,z
1/2+x,-y,-z
-x,1/2+y,-z
1/2+y,1/2+x,-z
-y,-x,-z
-x,-y,-z
1/2+y,-x,-z
1/2+x,1/2+y,-z
-y,1/2+x,-z
1/2-x,y,z
x,1/2-y,z
1/2-y,1/2-x,z
y,x,z
loop_
_atom_site_type_symbol
_atom_site_label
_atom_site_fract_x
_atom_site_fract_y
_atom_site_fract_z
Si Si1 0.634526 0.026991 0.136741
Si Si2 0.635307 0.476096 0.254531
Si Si3 0.366073 0.975534 0.544388
Si Si4 0.859566 0.131779 0.646287
Si Si5 0.027894 0.865761 0.953230
O O1 0.750000 0.015218 0.126944
O O2 0.621834 0.058329 0.196017
O O3 0.585542 0.102945 0.098066
O O4 0.574162 0.925839 0.130254
O O5 0.750000 0.494711 0.261420
O O6 0.574335 0.574335 0.260560
O O7 0.602739 0.402039 0.298647
O O8 0.403395 0.903395 0.500000
O O9 0.250000 0.986715 0.542319
O O10 0.394353 0.928664 0.599075
O O11 0.423626 0.076375 0.537941
O O12 0.750000 0.095169 0.638514
O O13 0.855608 0.250000 0.646415
O O14 0.014785 0.750000 0.956879
O O15 0.092380 0.907621 0.000000
O O16 0.926631 0.926631 0.954104
#
# Coordination Sequence:
#
# PCOD9565378 Si02
#       5
#    16  16  16  16  16
#     4   9  18  31  47  70  99 130 165 203 242 287
#     4   9  17  29  45  67  96 127 159 196 238 285
#     4  10  20  33  50  72  97 126 161 200 242 289
#     4   9  17  29  45  65  90 121 157 196 237 282
#     4  10  21  36  53  74  99 126 159 198 239 286
#
# _framework density 16.273959000000001
#
# number of rings (size 3 to 8) (size 9 to 14) (size 15 to 20)
#    0.000    2.600    0.000    1.800    0.000    4.000 
#    0.000    4.000    0.000    7.200    0.000    0.000 
#    0.000    3.600    0.000    0.800    0.000    0.000 
#
# Total GULP energy -445755.161756 kJ/mol
# GULP energy per Si atom -5571.939522 kJ/mol
# Density = 1.623692 g / cm^3
# Si number density = 16.273959 Si / 1000 Ang^3
#
#
#
# Elastic Constant Matrix: (Units=GPa)
#
#
# Indices 1 2 3 4 5 6 
#
# 1 97.5717 54.1043 51.2860 0.0000 0.0000 0.0000
# 2 54.1043 97.5712 51.2865 0.0000 0.0000 0.0000
# 3 51.2860 51.2865 94.8812 0.0000 0.0000 0.0000
# 4 0.0000 0.0000 0.0000 24.2402 0.0000 0.0000
# 5 0.0000 0.0000 0.0000 0.0000 24.2404 0.0000
# 6 0.0000 0.0000 0.0000 0.0000 0.0000 7.9226
#
#
#
# Elastic Compliance Matrix: (Units=1/GPa)
#
#
# Indices 1 2 3 4 5 6 
#
# 1 0.016699 -0.006307 -0.005617 0.000000 0.000000 0.000000
# 2 -0.006307 0.016699 -0.005617 0.000000 0.000000 0.000000
# 3 -0.005617 -0.005617 0.016612 0.000000 0.000000 0.000000
# 4 0.000000 0.000000 0.000000 0.041254 0.000000 0.000000
# 5 0.000000 0.000000 0.000000 0.000000 0.041253 0.000000
# 6 0.000000 0.000000 0.000000 0.000000 0.000000 0.126222
#
#
# Mechanical properties :
#
#
# Convention : Reuss Voigt Hill
#
# Bulk Modulus (GPa) = 66.99249 67.04196 67.01722
# Shear Modulus (GPa) = 16.73382 20.17046 18.45214
#
# Velocity S-wave (km/s) = 3.21012 3.52438 3.37091
# Velocity P-wave (km/s) = 7.41584 7.60572 7.51138
#
# Compressibility (1/GPa) = 0.01492705
#
# Stress axis : x y z
#
# Youngs Moduli (GPa) = 59.88542 59.88446 60.19832
#
# Poissons Ratio (x) = 0.37770 0.33812
# Poissons Ratio (y) = 0.37771 0.33814
# Poissons Ratio (z) = 0.33636 0.33638
#
# Static dielectric constant tensor:
#      x y z
#    x 1.524480 0.000000 0.000000 
#    y 0.000000 1.524480 0.000000 
#    z 0.000000 0.000000 1.569110 
# 
# From -- ./inp_files/7694.got.cif
#   From: 2010.05.17/outbox.cif.g08.bks.cpg/sg129_4_cif.got.tgz:7694.got - 2010.05.20 12:12:06.
