data_PCOD9565385
_publ_section_title
;
Structure prediction by ZEFSAII (Michael W. Deem and Ramdas Pophale) SiO2 
 PCOD9565385
Probable space group: P 4/N M M
;
_chemical_formula_sum "Si O2"
_cell_formula_units_Z 80
_cell_length_a 13.639902
_cell_length_b 13.639902
_cell_length_c 26.351735
_cell_angle_alpha 90.000000
_cell_angle_beta 90.000000
_cell_angle_gamma 90.000000
_cell_volume 4902.659307
_symmetry_space_group_name_H-M "P 4/N M M"
_symmetry_group_IT_number 129
_symmetry_cell_setting 'tetragonal'
loop_
_space_group_symop_operation_xyz
x,y,z
1/2-y,x,z
1/2-x,1/2-y,z
y,1/2-x,z
1/2+x,-y,-z
-x,1/2+y,-z
1/2+y,1/2+x,-z
-y,-x,-z
-x,-y,-z
1/2+y,-x,-z
1/2+x,1/2+y,-z
-y,1/2+x,-z
1/2-x,y,z
x,1/2-y,z
1/2-y,1/2-x,z
y,x,z
loop_
_atom_site_type_symbol
_atom_site_label
_atom_site_fract_x
_atom_site_fract_y
_atom_site_fract_z
Si Si1 0.026370 0.867430 0.360311
Si Si2 0.527840 0.135624 0.956459
Si Si3 0.030052 0.866795 0.547449
Si Si4 0.473316 0.633945 0.157965
Si Si5 0.631249 0.360321 0.257966
O O1 0.018108 0.750000 0.364901
O O2 0.099954 0.910925 0.402368
O O3 0.069784 0.893008 0.304960
O O4 0.923493 0.923493 0.367366
O O5 0.504999 0.250000 0.960938
O O6 0.566714 0.118147 0.899076
O O7 0.431291 0.068710 0.962020
O O8 0.601949 0.101949 0.000000
O O9 0.093254 0.906747 0.500000
O O10 0.016932 0.750000 0.545193
O O11 0.928045 0.928045 0.546918
O O12 0.491009 0.750000 0.163678
O O13 0.573399 0.573399 0.161809
O O14 0.403159 0.601061 0.203555
O O15 0.750000 0.355854 0.257085
O O16 0.594362 0.250000 0.265882
#
# Coordination Sequence:
#
# PCOD9565385 Si02
#       5
#    16  16  16  16  16
#     4  10  20  33  50  73 100 130 165 204 246 293
#     4   9  18  31  46  66  92 121 155 195 237 283
#     4  10  21  36  54  77 103 132 168 207 247 293
#     4   9  17  29  45  66  92 120 150 186 230 282
#     4   9  17  29  45  65  90 121 156 192 230 274
#
# _framework density 16.317674
#
# number of rings (size 3 to 8) (size 9 to 14) (size 15 to 20)
#    0.000    2.600    0.000    1.800    0.000    4.000 
#    0.000    4.000    0.000    7.200    0.000    0.000 
#    0.000    3.600    0.000    0.800    0.000    0.200 
#
# Total GULP energy -445677.688854 kJ/mol
# GULP energy per Si atom -5570.971111 kJ/mol
# Density = 1.628053 g / cm^3
# Si number density = 16.317674 Si / 1000 Ang^3
#
#
#
# Elastic Constant Matrix: (Units=GPa)
#
#
# Indices 1 2 3 4 5 6 
#
# 1 89.1906 46.8671 45.9121 0.0000 0.0000 0.0000
# 2 46.8671 89.1899 45.9125 0.0000 0.0000 0.0000
# 3 45.9121 45.9125 115.4301 0.0000 0.0000 0.0000
# 4 0.0000 0.0000 0.0000 24.3789 0.0000 0.0000
# 5 0.0000 0.0000 0.0000 0.0000 24.3792 0.0000
# 6 0.0000 0.0000 0.0000 0.0000 0.0000 7.9429
#
#
#
# Elastic Compliance Matrix: (Units=1/GPa)
#
#
# Indices 1 2 3 4 5 6 
#
# 1 0.016837 -0.006790 -0.003996 0.000000 0.000000 0.000000
# 2 -0.006790 0.016837 -0.003996 0.000000 0.000000 0.000000
# 3 -0.003996 -0.003996 0.011842 0.000000 0.000000 0.000000
# 4 0.000000 0.000000 0.000000 0.041019 0.000000 0.000000
# 5 0.000000 0.000000 0.000000 0.000000 0.041019 0.000000
# 6 0.000000 0.000000 0.000000 0.000000 0.000000 0.125898
#
#
# Mechanical properties :
#
#
# Convention : Reuss Voigt Hill
#
# Bulk Modulus (GPa) = 62.69078 63.46600 63.07839
# Shear Modulus (GPa) = 17.34093 21.68146 19.51119
#
# Velocity S-wave (km/s) = 3.26346 3.64910 3.46165
# Velocity P-wave (km/s) = 7.25965 7.53213 7.39715
#
# Compressibility (1/GPa) = 0.01595131
#
# Stress axis : x y z
#
# Youngs Moduli (GPa) = 59.39242 59.39165 84.44406
#
# Poissons Ratio (x) = 0.40330 0.33744
# Poissons Ratio (y) = 0.40330 0.33745
# Poissons Ratio (z) = 0.23733 0.23734
#
# Static dielectric constant tensor:
#      x y z
#    x 1.526110 0.000000 0.000000 
#    y 0.000000 1.526110 0.000000 
#    z 0.000000 0.000000 1.573700 
# 
# From -- ./inp_files/7690.got.cif
#   From: 2010.05.17/outbox.cif.g08.bks.cpg/sg129_4_cif.got.tgz:7690.got - 2010.05.20 12:12:06.
