data_PCOD9565789
_publ_section_title
;
Structure prediction by ZEFSAII (Michael W. Deem and Ramdas Pophale) SiO2 
 PCOD9565789
Probable space group: P 4/N C C
;
_chemical_formula_sum "Si O2"
_cell_formula_units_Z 96
_cell_length_a 22.156380
_cell_length_b 22.156380
_cell_length_c 9.232274
_cell_angle_alpha 90.000000
_cell_angle_beta 90.000000
_cell_angle_gamma 90.000000
_cell_volume 4532.171081
_symmetry_space_group_name_H-M "P 4/N C C"
_symmetry_group_IT_number 130
_symmetry_cell_setting 'tetragonal'
loop_
_space_group_symop_operation_xyz
x,y,z
1/2-y,x,z
1/2-x,1/2-y,z
y,1/2-x,z
1/2+x,-y,1/2-z
-x,1/2+y,1/2-z
1/2+y,1/2+x,1/2-z
-y,-x,1/2-z
-x,-y,-z
1/2+y,-x,-z
1/2+x,1/2+y,-z
-y,1/2+x,-z
1/2-x,y,1/2+z
x,1/2-y,1/2+z
1/2-y,1/2-x,1/2+z
y,x,1/2+z
loop_
_atom_site_type_symbol
_atom_site_label
_atom_site_fract_x
_atom_site_fract_y
_atom_site_fract_z
Si Si1 0.889068 0.422969 0.411138
Si Si2 0.658417 0.898292 0.895350
Si Si3 0.176475 0.706121 0.917455
Si Si4 0.440155 0.507631 0.600895
Si Si5 0.040380 0.172902 0.594303
Si Si6 0.745016 0.568089 0.652872
O O1 0.910770 0.410770 0.250000
O O2 0.827308 0.387009 0.431863
O O3 0.938683 0.402982 0.525064
O O4 0.880621 0.494526 0.424153
O O5 0.611382 0.843008 0.895861
O O6 0.706770 0.899381 0.762520
O O7 0.609616 0.953763 0.884557
O O8 0.697431 0.898636 0.044611
O O9 0.198184 0.698184 0.750000
O O10 0.175301 0.774334 0.975655
O O11 0.468200 0.531801 0.750000
O O12 0.500000 0.500000 0.500000
O O13 0.026207 0.206190 0.742744
O O14 0.031272 0.215038 0.458210
#
# Coordination Sequence:
#
# PCOD9565789 Si02
#       6
#    16  16  16  16  16  16
#     4  11  24  40  64  98 131 176 228 287 346 417
#     4  11  23  42  69  92 137 171 223 283 334 421
#     4  10  22  40  63  89 130 184 238 298 353 413
#     4  12  25  40  66 103 135 181 223 279 349 418
#     4  11  22  41  65  91 134 168 219 284 343 417
#     4  10  24  39  64  99 123 182 218 265 352 408
#
# _framework density 21.181901
#
# number of rings (size 3 to 8) (size 9 to 14) (size 15 to 20)
#    0.000    1.167    1.667    4.500    2.333    6.667 
#    0.000    0.000    0.000   35.000    0.000    0.000 
#    0.000    0.000    0.000    0.000    0.000    0.000 
#
# Total GULP energy -535077.167265 kJ/mol
# GULP energy per Si atom -5573.720492 kJ/mol
# Density = 2.113369 g / cm^3
# Si number density = 21.181901 Si / 1000 Ang^3
#
#
#
# Elastic Constant Matrix: (Units=GPa)
#
#
# Indices 1 2 3 4 5 6 
#
# 1 82.5085 38.1639 34.7040 0.0000 0.0000 0.0000
# 2 38.1639 82.5083 34.7038 0.0000 0.0000 0.0000
# 3 34.7040 34.7038 148.8469 0.0000 0.0000 0.0000
# 4 0.0000 0.0000 0.0000 -7.9606 0.0000 0.0000
# 5 0.0000 0.0000 0.0000 0.0000 -7.9598 0.0000
# 6 0.0000 0.0000 0.0000 0.0000 0.0000 28.1200
#
#
#
# Elastic Compliance Matrix: (Units=1/GPa)
#
#
# Indices 1 2 3 4 5 6 
#
# 1 0.016061 -0.006490 -0.002231 0.000000 0.000000 0.000000
# 2 -0.006490 0.016061 -0.002231 0.000000 0.000000 0.000000
# 3 -0.002231 -0.002231 0.007759 0.000000 0.000000 0.000000
# 4 0.000000 0.000000 0.000000 -0.125619 0.000000 0.000000
# 5 0.000000 0.000000 0.000000 0.000000 -0.125631 0.000000
# 6 0.000000 0.000000 0.000000 0.000000 0.000000 0.035562
#
#
# Mechanical properties :
#
#
# Convention : Reuss Voigt Hill
#
# Bulk Modulus (GPa) = 55.63568 58.77858 57.20713
# Shear Modulus (GPa) = -33.80411 16.19271 -8.80570
#
# Velocity S-wave (km/s) = -3.99920 2.76789 -2.04113
# Velocity P-wave (km/s) = 2.23560 6.16641 4.63802
#
# Compressibility (1/GPa) = 0.01797408
#
# Stress axis : x y z
#
# Youngs Moduli (GPa) = 62.26456 62.26446 128.88604
#
# Poissons Ratio (x) = 0.40411 0.28759
# Poissons Ratio (y) = 0.40411 0.28759
# Poissons Ratio (z) = 0.13893 0.13893
#
# Static dielectric constant tensor:
#      x y z
#    x 1.746790 0.000000 0.000000 
#    y 0.000000 1.746790 0.000000 
#    z 0.000000 0.000000 1.767010 
# 
# From -- ./inp_files/896.got.cif
#   From: 2010.05.17/outbox.cif.g08.bks.cpg/sg130_1_cif.got.tgz:896.got - 2010.05.20 12:17:35.
