data_PCOD9565315
_publ_section_title
;
Structure prediction by ZEFSAII (Michael W. Deem and Ramdas Pophale) SiO2 
 PCOD9565315
Probable space group: P 4/N M M
;
_chemical_formula_sum "Si O2"
_cell_formula_units_Z 80
_cell_length_a 19.215917
_cell_length_b 19.215917
_cell_length_c 12.514635
_cell_angle_alpha 90.000000
_cell_angle_beta 90.000000
_cell_angle_gamma 90.000000
_cell_volume 4621.047322
_symmetry_space_group_name_H-M "P 4/N M M"
_symmetry_group_IT_number 129
_symmetry_cell_setting 'tetragonal'
loop_
_space_group_symop_operation_xyz
x,y,z
1/2-y,x,z
1/2-x,1/2-y,z
y,1/2-x,z
1/2+x,-y,-z
-x,1/2+y,-z
1/2+y,1/2+x,-z
-y,-x,-z
-x,-y,-z
1/2+y,-x,-z
1/2+x,1/2+y,-z
-y,1/2+x,-z
1/2-x,y,z
x,1/2-y,z
1/2-y,1/2-x,z
y,x,z
loop_
_atom_site_type_symbol
_atom_site_label
_atom_site_fract_x
_atom_site_fract_y
_atom_site_fract_z
Si Si1 0.555067 0.331389 0.170101
Si Si2 0.947687 0.668522 0.022505
Si Si3 0.055236 0.170501 0.356835
Si Si4 0.554172 0.331372 0.788246
Si Si5 0.007918 0.607752 0.436186
O O1 0.575660 0.250000 0.165123
O O2 0.508982 0.342051 0.276734
O O3 0.619874 0.382969 0.172957
O O4 0.503714 0.345503 0.071013
O O5 0.927589 0.750000 0.014228
O O6 0.882808 0.617193 0.013065
O O7 0.988403 0.657799 0.133665
O O8 0.077942 0.250000 0.342555
O O9 0.116034 0.116034 0.332531
O O10 0.029902 0.156741 0.477521
O O11 0.572765 0.250000 0.793311
O O12 0.533755 0.353241 0.668455
O O13 0.070358 0.570358 0.500000
O O14 0.953654 0.546347 0.406031
#
# Coordination Sequence:
#
# PCOD9565315 Si02
#       5
#    16  16  16  16  16
#     4  10  21  37  55  78 110 145 184 227 273 324
#     4  10  22  38  58  85 113 144 182 225 274 329
#     4  10  20  34  54  79 108 142 180 225 275 329
#     4  11  22  36  56  82 112 144 184 231 276 326
#     4  10  19  33  55  80 106 141 185 228 276 327
#
# _framework density 17.312093999999998
#
# number of rings (size 3 to 8) (size 9 to 14) (size 15 to 20)
#    0.000    1.800    2.000    2.400    0.000    4.000 
#    0.000    0.000    0.000    7.200    0.000    2.800 
#    0.000    0.000    0.000    0.000    0.000    0.000 
#
# Total GULP energy -446697.541473 kJ/mol
# GULP energy per Si atom -5583.719268 kJ/mol
# Density = 1.727269 g / cm^3
# Si number density = 17.312094 Si / 1000 Ang^3
#
#
#
# Elastic Constant Matrix: (Units=GPa)
#
#
# Indices 1 2 3 4 5 6 
#
# 1 105.1421 84.4694 43.6576 0.0000 0.0000 0.0000
# 2 84.4694 105.1421 43.6576 0.0000 0.0000 0.0000
# 3 43.6576 43.6576 89.3530 0.0000 0.0000 0.0000
# 4 0.0000 0.0000 0.0000 22.3841 0.0000 0.0000
# 5 0.0000 0.0000 0.0000 0.0000 22.3841 0.0000
# 6 0.0000 0.0000 0.0000 0.0000 0.0000 14.1232
#
#
#
# Elastic Compliance Matrix: (Units=1/GPa)
#
#
# Indices 1 2 3 4 5 6 
#
# 1 0.027589 -0.020784 -0.003325 0.000000 0.000000 0.000000
# 2 -0.020784 0.027589 -0.003325 0.000000 0.000000 0.000000
# 3 -0.003325 -0.003325 0.014441 0.000000 0.000000 0.000000
# 4 0.000000 0.000000 0.000000 0.044675 0.000000 0.000000
# 5 0.000000 0.000000 0.000000 0.000000 0.044675 0.000000
# 6 0.000000 0.000000 0.000000 0.000000 0.000000 0.070806
#
#
# Mechanical properties :
#
#
# Convention : Reuss Voigt Hill
#
# Bulk Modulus (GPa) = 67.79176 71.46740 69.62958
# Shear Modulus (GPa) = 17.26770 20.30177 18.78473
#
# Velocity S-wave (km/s) = 3.16165 3.42818 3.29760
# Velocity P-wave (km/s) = 7.25063 7.55257 7.40314
#
# Compressibility (1/GPa) = 0.01475106
#
# Stress axis : x y z
#
# Youngs Moduli (GPa) = 36.24641 36.24641 69.24889
#
# Poissons Ratio (x) = 0.75334 0.23025
# Poissons Ratio (y) = 0.75334 0.23025
# Poissons Ratio (z) = 0.12052 0.12052
#
# Static dielectric constant tensor:
#      x y z
#    x 1.565370 0.000000 0.000000 
#    y 0.000000 1.565370 0.000000 
#    z 0.000000 0.000000 1.590660 
# 
# From -- ./inp_files/4603.got.cif
#   From: 2010.05.17/outbox.cif.g08.bks.cpg/sg129_3_cif.got.tgz:4603.got - 2010.05.20 12:12:06.
