data_PCOD9565630
_publ_section_title
;
Structure prediction by ZEFSAII (Michael W. Deem and Ramdas Pophale) SiO2 
 PCOD9565630
Probable space group: P 4/N C C
;
_chemical_formula_sum "Si O2"
_cell_formula_units_Z 96
_cell_length_a 24.131352
_cell_length_b 24.131352
_cell_length_c 8.557176
_cell_angle_alpha 90.000000
_cell_angle_beta 90.000000
_cell_angle_gamma 90.000000
_cell_volume 4983.033121
_symmetry_space_group_name_H-M "P 4/N C C"
_symmetry_group_IT_number 130
_symmetry_cell_setting 'tetragonal'
loop_
_space_group_symop_operation_xyz
x,y,z
1/2-y,x,z
1/2-x,1/2-y,z
y,1/2-x,z
1/2+x,-y,1/2-z
-x,1/2+y,1/2-z
1/2+y,1/2+x,1/2-z
-y,-x,1/2-z
-x,-y,-z
1/2+y,-x,-z
1/2+x,1/2+y,-z
-y,1/2+x,-z
1/2-x,y,1/2+z
x,1/2-y,1/2+z
1/2-y,1/2-x,1/2+z
y,x,1/2+z
loop_
_atom_site_type_symbol
_atom_site_label
_atom_site_fract_x
_atom_site_fract_y
_atom_site_fract_z
Si Si1 0.109635 0.490950 0.998782
Si Si2 0.800166 0.180671 0.066939
Si Si3 0.602659 0.802581 0.514509
Si Si4 0.888476 0.817891 0.384533
Si Si5 0.610984 0.399119 0.936132
Si Si6 0.475516 0.088047 0.129660
O O1 0.125262 0.555128 0.013996
O O2 0.094080 0.483149 0.815708
O O3 0.161032 0.450639 0.035739
O O4 0.055957 0.469129 0.092143
O O5 0.808031 0.191970 0.250000
O O6 0.735153 0.177287 0.024472
O O7 0.835140 0.127205 0.014448
O O8 0.656043 0.830030 0.433491
O O9 0.598381 0.739122 0.468776
O O10 0.608919 0.809115 0.699641
O O11 0.933616 0.864407 0.427547
O O12 0.613374 0.386627 0.750000
O O13 0.599900 0.465049 0.946043
#
# Coordination Sequence:
#
# PCOD9565630 Si02
#       6
#    16  16  16  16  16  16
#     4   9  19  34  54  79 112 147 181 223 270 316
#     4  11  23  41  62  83 109 143 179 223 274 325
#     4  10  20  35  53  76 104 139 178 221 268 316
#     4  10  20  35  53  76 104 139 178 221 268 316
#     4  10  20  36  57  85 115 145 182 222 263 318
#     4   9  19  34  54  79 112 147 181 223 270 316
#
# _framework density 19.265374999999999
#
# number of rings (size 3 to 8) (size 9 to 14) (size 15 to 20)
#    0.000    2.167    0.000    3.500    0.000    4.333 
#    0.000    5.000    0.000    0.000    0.000    0.000 
#    0.000    0.000    0.000    0.000    0.000    0.000 
#
# Total GULP energy -535969.094176 kJ/mol
# GULP energy per Si atom -5583.011398 kJ/mol
# Density = 1.922153 g / cm^3
# Si number density = 19.265375 Si / 1000 Ang^3
#
#
#
# Elastic Constant Matrix: (Units=GPa)
#
#
# Indices 1 2 3 4 5 6 
#
# 1 40.8005 0.2844 -4.6688 0.0000 0.0000 0.0000
# 2 0.2844 40.7986 -4.6693 0.0000 0.0000 0.0000
# 3 -4.6688 -4.6693 29.9121 0.0000 0.0000 0.0000
# 4 0.0000 0.0000 0.0000 24.6977 0.0000 0.0000
# 5 0.0000 0.0000 0.0000 0.0000 24.6976 0.0000
# 6 0.0000 0.0000 0.0000 0.0000 0.0000 23.5398
#
#
#
# Elastic Compliance Matrix: (Units=1/GPa)
#
#
# Indices 1 2 3 4 5 6 
#
# 1 0.024958 0.000277 0.003939 0.000000 0.000000 0.000000
# 2 0.000277 0.024960 0.003939 0.000000 0.000000 0.000000
# 3 0.003939 0.003939 0.034661 0.000000 0.000000 0.000000
# 4 0.000000 0.000000 0.000000 0.040490 0.000000 0.000000
# 5 0.000000 0.000000 0.000000 0.000000 0.040490 0.000000
# 6 0.000000 0.000000 0.000000 0.000000 0.000000 0.042481
#
#
# Mechanical properties :
#
#
# Convention : Reuss Voigt Hill
#
# Bulk Modulus (GPa) = 9.91189 10.37820 10.14505
# Shear Modulus (GPa) = 22.18681 22.62468 22.40575
#
# Velocity S-wave (km/s) = 3.39727 3.43063 3.41399
# Velocity P-wave (km/s) = 4.53262 4.59249 4.56265
#
# Compressibility (1/GPa) = 0.10088891
#
# Stress axis : x y z
#
# Youngs Moduli (GPa) = 40.06686 40.06478 28.85084
#
# Poissons Ratio (x) = -0.01109 -0.11364
# Poissons Ratio (y) = -0.01109 -0.11366
# Poissons Ratio (z) = -0.15781 -0.15783
#
# Static dielectric constant tensor:
#      x y z
#    x 1.667670 0.000000 0.000000 
#    y 0.000000 1.667670 0.000000 
#    z 0.000000 0.000000 1.659120 
# 
# From -- ./inp_files/937.got.cif
#   From: 2010.05.17/outbox.cif.g08.bks.cpg/sg130_1_cif.got.tgz:937.got - 2010.05.20 12:17:35.
