data_PCOD9565870
_publ_section_title
;
Structure prediction by ZEFSAII (Michael W. Deem and Ramdas Pophale) SiO2 
 PCOD9565870
Probable space group: P 4/N C C
;
_chemical_formula_sum "Si O2"
_cell_formula_units_Z 80
_cell_length_a 13.484296
_cell_length_b 13.484296
_cell_length_c 23.012833
_cell_angle_alpha 90.000000
_cell_angle_beta 90.000000
_cell_angle_gamma 90.000000
_cell_volume 4184.336864
_symmetry_space_group_name_H-M "P 4/N C C"
_symmetry_group_IT_number 130
_symmetry_cell_setting 'tetragonal'
loop_
_space_group_symop_operation_xyz
x,y,z
1/2-y,x,z
1/2-x,1/2-y,z
y,1/2-x,z
1/2+x,-y,1/2-z
-x,1/2+y,1/2-z
1/2+y,1/2+x,1/2-z
-y,-x,1/2-z
-x,-y,-z
1/2+y,-x,-z
1/2+x,1/2+y,-z
-y,1/2+x,-z
1/2-x,y,1/2+z
x,1/2-y,1/2+z
1/2-y,1/2-x,1/2+z
y,x,1/2+z
loop_
_atom_site_type_symbol
_atom_site_label
_atom_site_fract_x
_atom_site_fract_y
_atom_site_fract_z
Si Si1 0.819152 0.389733 0.520943
Si Si2 0.099028 0.316576 0.174560
Si Si3 0.729239 0.065480 0.252260
Si Si4 0.656362 0.174128 0.848366
Si Si5 0.094018 0.312957 0.041882
O O1 0.868964 0.299771 0.484496
O O2 0.853833 0.375907 0.587248
O O3 0.839000 0.499855 0.497443
O O4 0.126382 0.201152 0.180259
O O5 0.061356 0.329975 0.108912
O O6 0.024146 0.337605 0.226272
O O7 0.662747 0.162747 0.250000
O O8 0.778140 0.066449 0.188988
O O9 0.804707 0.088335 0.305302
O O10 0.750000 0.250000 0.855743
O O11 0.125684 0.196769 0.033995
#
# Coordination Sequence:
#
# PCOD9565870 Si02
#       5
#    16  16  16  16  16
#     4  11  20  31  56  83 111 140 183 227 276 326
#     4   9  18  35  56  76 104 143 183 220 265 318
#     4   9  18  32  55  74 105 137 177 220 268 316
#     4   9  17  33  50  78 106 140 165 218 276 320
#     4   9  20  38  57  78 111 153 188 225 274 327
#
# _framework density 19.118919999999999
#
# number of rings (size 3 to 8) (size 9 to 14) (size 15 to 20)
#    0.000    2.600    2.000    3.600    2.800    0.800 
#    3.600    2.000    0.000    2.400    0.000    0.000 
#    0.000    0.000    0.000    0.000    0.000    0.000 
#
# Total GULP energy -445499.600633 kJ/mol
# GULP energy per Si atom -5568.745008 kJ/mol
# Density = 1.907540 g / cm^3
# Si number density = 19.118920 Si / 1000 Ang^3
#
#
#
# Elastic Constant Matrix: (Units=GPa)
#
#
# Indices 1 2 3 4 5 6 
#
# 1 49.0214 -19.6080 15.5292 0.0000 0.0000 0.0000
# 2 -19.6080 49.0214 15.5292 0.0000 0.0000 0.0000
# 3 15.5292 15.5292 90.0400 0.0000 0.0000 0.0000
# 4 0.0000 0.0000 0.0000 24.4653 0.0000 0.0000
# 5 0.0000 0.0000 0.0000 0.0000 24.4653 0.0000
# 6 0.0000 0.0000 0.0000 0.0000 0.0000 1.5963
#
#
#
# Elastic Compliance Matrix: (Units=1/GPa)
#
#
# Indices 1 2 3 4 5 6 
#
# 1 0.028070 0.013499 -0.007169 0.000000 0.000000 0.000000
# 2 0.013499 0.028070 -0.007169 0.000000 0.000000 0.000000
# 3 -0.007169 -0.007169 0.013579 0.000000 0.000000 0.000000
# 4 0.000000 0.000000 0.000000 0.040874 0.000000 0.000000
# 5 0.000000 0.000000 0.000000 0.000000 0.040874 0.000000
# 6 0.000000 0.000000 0.000000 0.000000 0.000000 0.626448
#
#
# Mechanical properties :
#
#
# Convention : Reuss Voigt Hill
#
# Bulk Modulus (GPa) = 14.69750 23.44264 19.07007
# Shear Modulus (GPa) = 6.23228 21.88087 14.05657
#
# Velocity S-wave (km/s) = 1.80743 3.38666 2.71443
# Velocity P-wave (km/s) = 3.47273 5.25174 4.45200
#
# Compressibility (1/GPa) = 0.06803877
#
# Stress axis : x y z
#
# Youngs Moduli (GPa) = 35.62556 35.62556 73.64219
#
# Poissons Ratio (x) = -0.48090 0.52797
# Poissons Ratio (y) = -0.48090 0.52797
# Poissons Ratio (z) = 0.25541 0.25541
#
# Static dielectric constant tensor:
#      x y z
#    x 1.703250 0.000000 0.000000 
#    y 0.000000 1.703250 0.000000 
#    z 0.000000 0.000000 1.678480 
# 
# From -- ./inp_files/3607.got.cif
#   From: 2010.05.17/outbox.cif.g08.bks.cpg/sg130_2_cif.got.tgz:3607.got - 2010.05.20 12:17:35.
