data_PCOD9565305
_publ_section_title
;
Structure prediction by ZEFSAII (Michael W. Deem and Ramdas Pophale) SiO2 
 PCOD9565305
Probable space group: P 4/N M M
;
_chemical_formula_sum "Si O2"
_cell_formula_units_Z 96
_cell_length_a 21.069314
_cell_length_b 21.069314
_cell_length_c 12.148075
_cell_angle_alpha 90.000000
_cell_angle_beta 90.000000
_cell_angle_gamma 90.000000
_cell_volume 5392.724770
_symmetry_space_group_name_H-M "P 4/N M M"
_symmetry_group_IT_number 129
_symmetry_cell_setting 'tetragonal'
loop_
_space_group_symop_operation_xyz
x,y,z
1/2-y,x,z
1/2-x,1/2-y,z
y,1/2-x,z
1/2+x,-y,-z
-x,1/2+y,-z
1/2+y,1/2+x,-z
-y,-x,-z
-x,-y,-z
1/2+y,-x,-z
1/2+x,1/2+y,-z
-y,1/2+x,-z
1/2-x,y,z
x,1/2-y,z
1/2-y,1/2-x,z
y,x,z
loop_
_atom_site_type_symbol
_atom_site_label
_atom_site_fract_x
_atom_site_fract_y
_atom_site_fract_z
Si Si1 0.354449 0.820641 0.622205
Si Si2 0.322501 0.492648 0.370172
Si Si3 0.820819 0.421785 0.998583
Si Si4 0.447798 0.648558 0.244906
Si Si5 0.911393 0.488899 0.825335
Si Si6 0.429965 0.175861 0.605949
O O1 0.326873 0.826873 0.500000
O O2 0.339543 0.750000 0.667019
O O3 0.431099 0.825166 0.611297
O O4 0.333960 0.881302 0.694504
O O5 0.250000 0.477375 0.339341
O O6 0.370002 0.479528 0.270970
O O7 0.337400 0.456470 0.482882
O O8 0.750000 0.421059 0.954741
O O9 0.822916 0.447387 0.122770
O O10 0.852356 0.352356 0.000000
O O11 0.865441 0.462819 0.919550
O O12 0.445254 0.572561 0.227517
O O13 0.509213 0.667249 0.314416
O O14 0.962685 0.537316 0.870155
O O15 0.410095 0.250000 0.610759
O O16 0.373404 0.126597 0.631148
#
# Coordination Sequence:
#
# PCOD9565305 Si02
#       6
#    16  16  16  16  16  16
#     4  10  19  33  52  79 114 148 182 221 262 312
#     4   9  18  33  54  79 112 144 175 215 266 324
#     4  10  22  38  56  76 106 144 184 225 270 322
#     4  10  21  36  55  80 109 144 181 223 271 324
#     4  10  20  34  56  83 109 138 179 227 273 321
#     4  11  22  36  56  79 106 141 179 225 280 334
#
# _framework density 17.801762
#
# number of rings (size 3 to 8) (size 9 to 14) (size 15 to 20)
#    0.000    2.000    1.667    2.000    0.000    8.833 
#    0.000    2.500    0.000    0.000    0.000    0.000 
#    0.000    3.000    0.000    0.333    0.000    0.000 
#
# Total GULP energy -535868.239143 kJ/mol
# GULP energy per Si atom -5581.960824 kJ/mol
# Density = 1.776124 g / cm^3
# Si number density = 17.801762 Si / 1000 Ang^3
#
#
#
# Elastic Constant Matrix: (Units=GPa)
#
#
# Indices 1 2 3 4 5 6 
#
# 1 86.0692 62.7822 29.1923 0.0000 0.0000 0.0000
# 2 62.7822 86.0692 29.1923 0.0000 0.0000 0.0000
# 3 29.1923 29.1923 70.1439 0.0000 0.0000 0.0000
# 4 0.0000 0.0000 0.0000 12.5973 0.0000 0.0000
# 5 0.0000 0.0000 0.0000 0.0000 12.5973 0.0000
# 6 0.0000 0.0000 0.0000 0.0000 0.0000 6.6863
#
#
#
# Elastic Compliance Matrix: (Units=1/GPa)
#
#
# Indices 1 2 3 4 5 6 
#
# 1 0.025486 -0.017457 -0.003341 0.000000 0.000000 0.000000
# 2 -0.017457 0.025486 -0.003341 0.000000 0.000000 0.000000
# 3 -0.003341 -0.003341 0.017038 0.000000 0.000000 0.000000
# 4 0.000000 0.000000 0.000000 0.079382 0.000000 0.000000
# 5 0.000000 0.000000 0.000000 0.000000 0.079382 0.000000
# 6 0.000000 0.000000 0.000000 0.000000 0.000000 0.149559
#
#
# Mechanical properties :
#
#
# Convention : Reuss Voigt Hill
#
# Bulk Modulus (GPa) = 50.68539 53.84623 52.26581
# Shear Modulus (GPa) = 11.59589 14.45056 13.02322
#
# Velocity S-wave (km/s) = 2.55500 2.85221 2.70769
# Velocity P-wave (km/s) = 6.10229 6.41562 6.26092
#
# Compressibility (1/GPa) = 0.01972955
#
# Stress axis : x y z
#
# Youngs Moduli (GPa) = 39.23784 39.23784 58.69365
#
# Poissons Ratio (x) = 0.68497 0.19612
# Poissons Ratio (y) = 0.68497 0.19612
# Poissons Ratio (z) = 0.13111 0.13111
#
# Static dielectric constant tensor:
#      x y z
#    x 1.620540 0.000000 0.000000 
#    y 0.000000 1.620540 0.000000 
#    z 0.000000 0.000000 1.604470 
# 
# From -- ./inp_files/3824.got.cif
#   From: 2010.05.17/outbox.cif.g08.bks.cpg/sg129_2_cif.got.tgz:3824.got - 2010.05.20 12:12:06.
