data_PCOD9565302
_publ_section_title
;
Structure prediction by ZEFSAII (Michael W. Deem and Ramdas Pophale) SiO2 
 PCOD9565302
Probable space group: P 4/N M M
;
_chemical_formula_sum "Si O2"
_cell_formula_units_Z 128
_cell_length_a 23.589464
_cell_length_b 23.589464
_cell_length_c 13.337258
_cell_angle_alpha 90.000000
_cell_angle_beta 90.000000
_cell_angle_gamma 90.000000
_cell_volume 7421.688088
_symmetry_space_group_name_H-M "P 4/N M M"
_symmetry_group_IT_number 129
_symmetry_cell_setting 'tetragonal'
loop_
_space_group_symop_operation_xyz
x,y,z
1/2-y,x,z
1/2-x,1/2-y,z
y,1/2-x,z
1/2+x,-y,-z
-x,1/2+y,-z
1/2+y,1/2+x,-z
-y,-x,-z
-x,-y,-z
1/2+y,-x,-z
1/2+x,1/2+y,-z
-y,1/2+x,-z
1/2-x,y,z
x,1/2-y,z
1/2-y,1/2-x,z
y,x,z
loop_
_atom_site_type_symbol
_atom_site_label
_atom_site_fract_x
_atom_site_fract_y
_atom_site_fract_z
Si Si1 0.610889 0.107765 0.744256
Si Si2 0.090583 0.184088 0.413892
Si Si3 0.185976 0.685185 0.380189
Si Si4 0.867799 0.187637 0.081499
Si Si5 0.994423 0.817379 0.769137
Si Si6 0.683945 0.003301 0.994355
Si Si7 0.089134 0.317095 0.640090
Si Si8 0.518774 0.614040 0.195854
O O1 0.635321 0.144467 0.653299
O O2 0.638599 0.139857 0.838608
O O3 0.642805 0.047667 0.746034
O O4 0.544175 0.102351 0.761333
O O5 0.106326 0.250000 0.411173
O O6 0.144661 0.144661 0.404386
O O7 0.065809 0.173851 0.526171
O O8 0.049892 0.173156 0.319860
O O9 0.186724 0.686724 0.500000
O O10 0.250000 0.666727 0.349190
O O11 0.177637 0.750000 0.343844
O O12 0.867717 0.250000 0.126383
O O13 0.929381 0.179277 0.029697
O O14 0.819765 0.180236 0.000000
O O15 0.009545 0.750000 0.767497
O O16 0.975841 0.828935 0.884674
O O17 0.750000 0.991590 0.019306
O O18 0.643879 0.986580 0.086651
O O19 0.096207 0.250000 0.655183
O O20 0.148299 0.351702 0.644355
O O21 0.049393 0.344100 0.724992
O O22 0.557806 0.557806 0.188979
#
# Coordination Sequence:
#
# PCOD9565302 Si02
#       8
#    16  16  16  16  16  16  16  16
#     4  11  21  35  53  73 104 141 180 216 265 313
#     4   9  18  34  56  82 109 134 167 211 264 325
#     4   9  19  35  54  79 108 137 177 225 265 313
#     4  10  19  33  51  74 104 135 171 217 264 311
#     4   9  19  34  54  77 103 140 180 220 259 304
#     4   9  18  35  55  73 101 139 179 219 264 315
#     4   9  19  36  57  81 108 135 166 212 265 322
#     4  11  23  36  52  77 107 139 181 227 268 313
#
# _framework density 17.246749999999999
#
# number of rings (size 3 to 8) (size 9 to 14) (size 15 to 20)
#    0.000    2.375    1.250    2.625    0.000    3.875 
#    0.000    8.125    0.000    2.625    0.000    0.000 
#    0.000    3.000    0.000    0.000    0.000    0.000 
#
# Total GULP energy -712805.399661 kJ/mol
# GULP energy per Si atom -5568.792185 kJ/mol
# Density = 1.720750 g / cm^3
# Si number density = 17.246750 Si / 1000 Ang^3
#
#
#
# Elastic Constant Matrix: (Units=GPa)
#
#
# Indices 1 2 3 4 5 6 
#
# 1 78.5478 45.1748 57.2231 0.0000 0.0000 0.0000
# 2 45.1748 78.5473 57.2231 0.0000 0.0000 0.0000
# 3 57.2231 57.2231 115.2444 0.0000 0.0000 0.0000
# 4 0.0000 0.0000 0.0000 20.9568 0.0000 0.0000
# 5 0.0000 0.0000 0.0000 0.0000 20.9582 0.0000
# 6 0.0000 0.0000 0.0000 0.0000 0.0000 17.7116
#
#
#
# Elastic Compliance Matrix: (Units=1/GPa)
#
#
# Indices 1 2 3 4 5 6 
#
# 1 0.022457 -0.007508 -0.007423 0.000000 0.000000 0.000000
# 2 -0.007508 0.022457 -0.007423 0.000000 0.000000 0.000000
# 3 -0.007423 -0.007423 0.016048 0.000000 0.000000 0.000000
# 4 0.000000 0.000000 0.000000 0.047717 0.000000 0.000000
# 5 0.000000 0.000000 0.000000 0.000000 0.047714 0.000000
# 6 0.000000 0.000000 0.000000 0.000000 0.000000 0.056460
#
#
# Mechanical properties :
#
#
# Convention : Reuss Voigt Hill
#
# Bulk Modulus (GPa) = 61.51785 65.73126 63.62455
# Shear Modulus (GPa) = 19.01303 19.43989 19.22646
#
# Velocity S-wave (km/s) = 3.32386 3.36097 3.34247
# Velocity P-wave (km/s) = 7.10475 7.29770 7.20187
#
# Compressibility (1/GPa) = 0.01625545
#
# Stress axis : x y z
#
# Youngs Moduli (GPa) = 44.53049 44.53009 62.31166
#
# Poissons Ratio (x) = 0.33433 0.46251
# Poissons Ratio (y) = 0.33433 0.46252
# Poissons Ratio (z) = 0.33053 0.33053
#
# Static dielectric constant tensor:
#      x y z
#    x 1.574020 0.000000 0.000000 
#    y 0.000000 1.574020 0.000000 
#    z 0.000000 0.000000 1.636400 
# 
# From -- ./inp_files/4225.got.cif
#   From: 2010.05.17/outbox.cif.g08.bks.cpg/sg129_3_cif.got.tgz:4225.got - 2010.05.20 12:12:06.
