data_PCOD9565448
_publ_section_title
;
Structure prediction by ZEFSAII (Michael W. Deem and Ramdas Pophale) SiO2 
 PCOD9565448
Probable space group: P 4/N M M
;
_chemical_formula_sum "Si O2"
_cell_formula_units_Z 96
_cell_length_a 22.751788
_cell_length_b 22.751788
_cell_length_c 9.438423
_cell_angle_alpha 90.000000
_cell_angle_beta 90.000000
_cell_angle_gamma 90.000000
_cell_volume 4885.741688
_symmetry_space_group_name_H-M "P 4/N M M"
_symmetry_group_IT_number 129
_symmetry_cell_setting 'tetragonal'
loop_
_space_group_symop_operation_xyz
x,y,z
1/2-y,x,z
1/2-x,1/2-y,z
y,1/2-x,z
1/2+x,-y,-z
-x,1/2+y,-z
1/2+y,1/2+x,-z
-y,-x,-z
-x,-y,-z
1/2+y,-x,-z
1/2+x,1/2+y,-z
-y,1/2+x,-z
1/2-x,y,z
x,1/2-y,z
1/2-y,1/2-x,z
y,x,z
loop_
_atom_site_type_symbol
_atom_site_label
_atom_site_fract_x
_atom_site_fract_y
_atom_site_fract_z
Si Si1 0.315173 0.025745 0.879644
Si Si2 0.316649 0.613402 0.576763
Si Si3 0.316146 0.885817 0.884157
Si Si4 0.682136 0.916845 0.427817
Si Si5 0.179492 0.518253 0.345267
Si Si6 0.909861 0.003228 0.913643
O O1 0.250000 0.049419 0.920279
O O2 0.325354 0.044340 0.716495
O O3 0.311826 0.955536 0.899240
O O4 0.370681 0.036682 0.979235
O O5 0.324721 0.675280 0.500000
O O6 0.250000 0.595412 0.603881
O O7 0.343917 0.620571 0.729749
O O8 0.338943 0.565988 0.464633
O O9 0.250000 0.861057 0.887973
O O10 0.353657 0.853657 0.000000
O O11 0.750000 0.896286 0.425459
O O12 0.635701 0.864300 0.425972
O O13 0.674973 0.957237 0.567300
O O14 0.250000 0.527382 0.309714
O O15 0.136142 0.520143 0.210757
O O16 0.962576 0.962576 0.855136
O O17 0.943982 0.056019 0.000000
#
# Coordination Sequence:
#
# PCOD9565448 Si02
#       6
#    16  16  16  16  16  16
#     4  10  20  37  58  82 114 156 198 237 285 347
#     4  10  22  38  57  83 114 150 195 245 295 348
#     4  10  21  37  57  83 113 149 198 249 295 346
#     4  10  20  37  63  91 120 153 189 235 292 357
#     4  10  21  40  63  87 114 155 202 239 288 353
#     4  11  24  38  56  87 121 151 192 246 298 345
#
# _framework density 19.649011000000002
#
# number of rings (size 3 to 8) (size 9 to 14) (size 15 to 20)
#    0.000    1.833    1.667    2.000    4.667    1.167 
#    0.000    1.667    0.000    4.000    0.000    0.000 
#    0.000   12.000    0.000    0.000    0.000    0.000 
#
# Total GULP energy -534676.791755 kJ/mol
# GULP energy per Si atom -5569.549914 kJ/mol
# Density = 1.960429 g / cm^3
# Si number density = 19.649011 Si / 1000 Ang^3
#
#
#
# Elastic Constant Matrix: (Units=GPa)
#
#
# Indices 1 2 3 4 5 6 
#
# 1 98.3851 58.6860 69.3864 0.0000 0.0000 0.0000
# 2 58.6860 98.3837 69.3863 0.0000 0.0000 0.0000
# 3 69.3864 69.3863 146.8952 0.0000 0.0000 0.0000
# 4 0.0000 0.0000 0.0000 20.3908 0.0000 0.0000
# 5 0.0000 0.0000 0.0000 0.0000 20.3922 0.0000
# 6 0.0000 0.0000 0.0000 0.0000 0.0000 26.2728
#
#
#
# Elastic Compliance Matrix: (Units=1/GPa)
#
#
# Indices 1 2 3 4 5 6 
#
# 1 0.018058 -0.007132 -0.005161 0.000000 0.000000 0.000000
# 2 -0.007132 0.018058 -0.005161 0.000000 0.000000 0.000000
# 3 -0.005161 -0.005161 0.011683 0.000000 0.000000 0.000000
# 4 0.000000 0.000000 0.000000 0.049042 0.000000 0.000000
# 5 0.000000 0.000000 0.000000 0.000000 0.049038 0.000000
# 6 0.000000 0.000000 0.000000 0.000000 0.000000 0.038062
#
#
# Mechanical properties :
#
#
# Convention : Reuss Voigt Hill
#
# Bulk Modulus (GPa) = 77.56931 82.06459 79.81695
# Shear Modulus (GPa) = 22.40672 23.15818 22.78245
#
# Velocity S-wave (km/s) = 3.38057 3.43679 3.40879
# Velocity P-wave (km/s) = 7.40276 7.58977 7.49685
#
# Compressibility (1/GPa) = 0.01289170
#
# Stress axis : x y z
#
# Youngs Moduli (GPa) = 55.37709 55.37591 85.59188
#
# Poissons Ratio (x) = 0.39493 0.44175
# Poissons Ratio (y) = 0.39493 0.44176
# Poissons Ratio (z) = 0.28581 0.28581
#
# Static dielectric constant tensor:
#      x y z
#    x 1.752880 0.000000 0.000000 
#    y 0.000000 1.752880 0.000000 
#    z 0.000000 0.000000 1.801260 
# 
# From -- ./inp_files/2675.got.cif
#   From: 2010.05.17/outbox.cif.g08.bks.cpg/sg129_2_cif.got.tgz:2675.got - 2010.05.20 12:12:06.
