data_PCOD9565991
_publ_section_title
;
Structure prediction by ZEFSAII (Michael W. Deem and Ramdas Pophale) SiO2 
 PCOD9565991
Probable space group: P 4/N C C
;
_chemical_formula_sum "Si O2"
_cell_formula_units_Z 52
_cell_length_a 8.570147
_cell_length_b 8.570147
_cell_length_c 30.544490
_cell_angle_alpha 90.000000
_cell_angle_beta 90.000000
_cell_angle_gamma 90.000000
_cell_volume 2243.413974
_symmetry_space_group_name_H-M "P 4/N C C"
_symmetry_group_IT_number 130
_symmetry_cell_setting 'tetragonal'
loop_
_space_group_symop_operation_xyz
x,y,z
1/2-y,x,z
1/2-x,1/2-y,z
y,1/2-x,z
1/2+x,-y,1/2-z
-x,1/2+y,1/2-z
1/2+y,1/2+x,1/2-z
-y,-x,1/2-z
-x,-y,-z
1/2+y,-x,-z
1/2+x,1/2+y,-z
-y,1/2+x,-z
1/2-x,y,1/2+z
x,1/2-y,1/2+z
1/2-y,1/2-x,1/2+z
y,x,1/2+z
loop_
_atom_site_type_symbol
_atom_site_label
_atom_site_fract_x
_atom_site_fract_y
_atom_site_fract_z
Si Si1 0.250000 0.250000 0.853864
Si Si2 0.051559 0.421595 0.545252
Si Si3 0.341473 0.590352 0.873642
Si Si4 0.995512 0.826694 0.784620
O O1 0.242406 0.444083 0.855439
O O2 0.040010 0.234247 0.547896
O O3 0.000000 0.500000 0.500000
O O4 0.940226 0.472634 0.584865
O O5 0.250000 0.750000 0.886665
O O6 0.449211 0.648418 0.833971
O O7 0.846843 0.936627 0.777232
O O8 0.124650 0.875351 0.750000
#
# Coordination Sequence:
#
# PCOD9565991 Si02
#       4
#     4  16  16  16
#     4  12  28  44  84 112 148 198 272 312 396 484
#     4  11  27  47  74 109 152 201 262 330 403 485
#     4  12  28  50  79 115 159 209 268 334 408 477
#     4  11  27  47  75 113 158 207 265 328 402 477
#
# _framework density 23.178961000000001
#
# number of rings (size 3 to 8) (size 9 to 14) (size 15 to 20)
#    0.000    0.615    0.000    5.538   17.231    2.462 
#    0.000    0.000    0.000    0.000    0.000    0.000 
#    0.000    0.000    0.000    0.000    0.000    0.000 
#
# Total GULP energy -290109.875380 kJ/mol
# GULP energy per Si atom -5579.036065 kJ/mol
# Density = 2.312620 g / cm^3
# Si number density = 23.178961 Si / 1000 Ang^3
#
#
#
# Elastic Constant Matrix: (Units=GPa)
#
#
# Indices 1 2 3 4 5 6 
#
# 1 -36.7521 174.3697 14.9964 0.0000 0.0000 0.0000
# 2 174.3697 -36.7428 14.9956 0.0000 0.0000 0.0000
# 3 14.9964 14.9956 98.8832 0.0000 0.0000 0.0000
# 4 0.0000 0.0000 0.0000 32.3663 0.0000 0.0000
# 5 0.0000 0.0000 0.0000 0.0000 32.3671 0.0000
# 6 0.0000 0.0000 0.0000 0.0000 0.0000 16.6088
#
#
#
# Elastic Compliance Matrix: (Units=1/GPa)
#
#
# Indices 1 2 3 4 5 6 
#
# 1 0.001389 0.006126 -0.001140 0.000000 0.000000 0.000000
# 2 0.006126 0.001389 -0.001140 0.000000 0.000000 0.000000
# 3 -0.001140 -0.001140 0.010459 0.000000 0.000000 0.000000
# 4 0.000000 0.000000 0.000000 0.030896 0.000000 0.000000
# 5 0.000000 0.000000 0.000000 0.000000 0.030896 0.000000
# 6 0.000000 0.000000 0.000000 0.000000 0.000000 0.060209
#
#
# Mechanical properties :
#
#
# Convention : Reuss Voigt Hill
#
# Bulk Modulus (GPa) = 47.77975 48.23462 48.00719
# Shear Modulus (GPa) = 37.16887 4.33688 20.75287
#
# Velocity S-wave (km/s) = 4.00879 1.36934 2.99546
# Velocity P-wave (km/s) = 6.48733 4.83270 5.72016
#
# Compressibility (1/GPa) = 0.02092937
#
# Stress axis : x y z
#
# Youngs Moduli (GPa) = 720.05184 719.87444 95.61514
#
# Poissons Ratio (x) = -4.40971 0.10896
# Poissons Ratio (y) = -4.41080 0.10897
# Poissons Ratio (z) = 0.82055 0.82042
#
# Static dielectric constant tensor:
#      x y z
#    x 1.959860 0.000000 0.000000 
#    y 0.000000 1.959850 0.000000 
#    z 0.000000 0.000000 1.857150 
# 
# From -- ./inp_files/4701.got.cif
#   From: 2010.05.17/outbox.cif.g08.bks.cpg/sg130_3_cif.got.tgz:4701.got - 2010.05.20 12:17:35.
