data_PCOD9565357
_publ_section_title
;
Structure prediction by ZEFSAII (Michael W. Deem and Ramdas Pophale) SiO2 
 PCOD9565357
Probable space group: P 4/N M M
;
_chemical_formula_sum "Si O2"
_cell_formula_units_Z 80
_cell_length_a 18.464278
_cell_length_b 18.464278
_cell_length_c 13.370887
_cell_angle_alpha 90.000000
_cell_angle_beta 90.000000
_cell_angle_gamma 90.000000
_cell_volume 4558.530649
_symmetry_space_group_name_H-M "P 4/N M M"
_symmetry_group_IT_number 129
_symmetry_cell_setting 'tetragonal'
loop_
_space_group_symop_operation_xyz
x,y,z
1/2-y,x,z
1/2-x,1/2-y,z
y,1/2-x,z
1/2+x,-y,-z
-x,1/2+y,-z
1/2+y,1/2+x,-z
-y,-x,-z
-x,-y,-z
1/2+y,-x,-z
1/2+x,1/2+y,-z
-y,1/2+x,-z
1/2-x,y,z
x,1/2-y,z
1/2-y,1/2-x,z
y,x,z
loop_
_atom_site_type_symbol
_atom_site_label
_atom_site_fract_x
_atom_site_fract_y
_atom_site_fract_z
Si Si1 0.831394 0.402714 0.690437
Si Si2 0.509647 0.107481 0.609802
Si Si3 0.331585 0.051155 0.401777
Si Si4 0.336029 0.887965 0.892440
Si Si5 0.665928 0.952072 0.182931
O O1 0.750000 0.379481 0.656117
O O2 0.831817 0.489462 0.682290
O O3 0.845556 0.374066 0.801633
O O4 0.904270 0.383471 0.627772
O O5 0.474410 0.025591 0.614521
O O6 0.486023 0.140155 0.504209
O O7 0.471883 0.149936 0.700989
O O8 0.250000 0.076124 0.418484
O O9 0.384175 0.115826 0.376370
O O10 0.250000 0.876635 0.883477
O O11 0.350040 0.973421 0.875643
O O12 0.362504 0.862504 0.000000
O O13 0.750000 0.933479 0.170318
O O14 0.612106 0.887895 0.153832
#
# Coordination Sequence:
#
# PCOD9565357 Si02
#       5
#    16  16  16  16  16
#     4  10  20  32  49  75 103 132 168 206 249 305
#     4   9  17  32  52  72 101 139 174 209 248 292
#     4  10  20  34  53  76 102 134 171 209 249 294
#     4  10  21  37  56  77 101 130 167 211 256 300
#     4   9  18  32  51  77 106 135 169 209 252 299
#
# _framework density 17.549513999999999
#
# number of rings (size 3 to 8) (size 9 to 14) (size 15 to 20)
#    0.000    2.400    0.000    2.400    0.000    5.400 
#    0.000    1.000    0.000    4.800    0.000    0.000 
#    0.000    6.400    0.000    0.000    0.000    0.200 
#
# Total GULP energy -445915.292186 kJ/mol
# GULP energy per Si atom -5573.941152 kJ/mol
# Density = 1.750957 g / cm^3
# Si number density = 17.549514 Si / 1000 Ang^3
#
#
#
# Elastic Constant Matrix: (Units=GPa)
#
#
# Indices 1 2 3 4 5 6 
#
# 1 112.6828 66.6206 38.4176 0.0000 0.0000 0.0000
# 2 66.6206 112.6828 38.4176 0.0000 0.0000 0.0000
# 3 38.4176 38.4176 72.2064 0.0000 0.0000 0.0000
# 4 0.0000 0.0000 0.0000 14.9971 0.0000 0.0000
# 5 0.0000 0.0000 0.0000 0.0000 14.9971 0.0000
# 6 0.0000 0.0000 0.0000 0.0000 0.0000 22.2633
#
#
#
# Elastic Compliance Matrix: (Units=1/GPa)
#
#
# Indices 1 2 3 4 5 6 
#
# 1 0.014467 -0.007243 -0.003844 0.000000 0.000000 0.000000
# 2 -0.007243 0.014467 -0.003844 0.000000 0.000000 0.000000
# 3 -0.003844 -0.003844 0.017939 0.000000 0.000000 0.000000
# 4 0.000000 0.000000 0.000000 0.066679 0.000000 0.000000
# 5 0.000000 0.000000 0.000000 0.000000 0.066679 0.000000
# 6 0.000000 0.000000 0.000000 0.000000 0.000000 0.044917
#
#
# Mechanical properties :
#
#
# Convention : Reuss Voigt Hill
#
# Bulk Modulus (GPa) = 58.77845 64.94262 61.86054
# Shear Modulus (GPa) = 19.18059 20.72592 19.95325
#
# Velocity S-wave (km/s) = 3.30955 3.44029 3.37556
# Velocity P-wave (km/s) = 6.94045 7.27094 7.10761
#
# Compressibility (1/GPa) = 0.01701304
#
# Stress axis : x y z
#
# Youngs Moduli (GPa) = 69.12286 69.12286 55.74361
#
# Poissons Ratio (x) = 0.50064 0.21426
# Poissons Ratio (y) = 0.50064 0.21426
# Poissons Ratio (z) = 0.26569 0.26569
#
# Static dielectric constant tensor:
#      x y z
#    x 1.614560 0.000000 0.000000 
#    y 0.000000 1.614560 0.000000 
#    z 0.000000 0.000000 1.570060 
# 
# From -- ./inp_files/4571.got.cif
#   From: 2010.05.17/outbox.cif.g08.bks.cpg/sg129_3_cif.got.tgz:4571.got - 2010.05.20 12:12:06.
