data_PCOD9565369
_publ_section_title
;
Structure prediction by ZEFSAII (Michael W. Deem and Ramdas Pophale) SiO2 
 PCOD9565369
Probable space group: P 4/N M M
;
_chemical_formula_sum "Si O2"
_cell_formula_units_Z 88
_cell_length_a 13.590333
_cell_length_b 13.590333
_cell_length_c 28.553002
_cell_angle_alpha 90.000000
_cell_angle_beta 90.000000
_cell_angle_gamma 90.000000
_cell_volume 5273.658123
_symmetry_space_group_name_H-M "P 4/N M M"
_symmetry_group_IT_number 129
_symmetry_cell_setting 'tetragonal'
loop_
_space_group_symop_operation_xyz
x,y,z
1/2-y,x,z
1/2-x,1/2-y,z
y,1/2-x,z
1/2+x,-y,-z
-x,1/2+y,-z
1/2+y,1/2+x,-z
-y,-x,-z
-x,-y,-z
1/2+y,-x,-z
1/2+x,1/2+y,-z
-y,1/2+x,-z
1/2-x,y,z
x,1/2-y,z
1/2-y,1/2-x,z
y,x,z
loop_
_atom_site_type_symbol
_atom_site_label
_atom_site_fract_x
_atom_site_fract_y
_atom_site_fract_z
Si Si1 0.473974 0.865588 0.403962
Si Si2 0.528481 0.134048 0.215259
Si Si3 0.470119 0.633554 0.131788
Si Si4 0.135679 0.527310 0.323878
Si Si5 0.633509 0.133509 0.500000
Si Si6 0.632588 0.030751 0.955800
O O1 0.491289 0.750000 0.404885
O O2 0.402933 0.894070 0.361099
O O3 0.423987 0.895133 0.453187
O O4 0.573037 0.926964 0.397785
O O5 0.516695 0.250000 0.205549
O O6 0.605464 0.084290 0.180140
O O7 0.558404 0.122663 0.269678
O O8 0.426593 0.073408 0.208993
O O9 0.483410 0.750000 0.126785
O O10 0.572265 0.572265 0.130139
O O11 0.402699 0.589204 0.090343
O O12 0.250000 0.506677 0.331267
O O13 0.069710 0.430291 0.330823
O O14 0.618336 0.250000 0.492179
O O15 0.750000 0.018376 0.956962
O O16 0.572379 0.927622 0.956464
O O17 0.593404 0.093404 0.000000
#
# Coordination Sequence:
#
# PCOD9565369 Si02
#       6
#    16  16  16  16   8  16
#     4  10  20  33  49  69  95 127 162 200 239 280
#     4   9  18  32  50  74 102 130 161 197 239 290
#     4  10  21  36  53  74 100 130 167 209 250 294
#     4   9  18  32  50  73 100 128 159 197 241 289
#     4   9  17  30  50  74  95 117 150 192 239 291
#     4  10  21  36  54  78 106 135 169 207 247 294
#
# _framework density 16.686707999999999
#
# number of rings (size 3 to 8) (size 9 to 14) (size 15 to 20)
#    0.000    2.455    0.000    1.909    0.000    5.091 
#    0.000    3.636    0.000    6.545    0.000    7.636 
#    0.000    0.000    0.000    0.000    0.000    0.000 
#
# Total GULP energy -490736.516521 kJ/mol
# GULP energy per Si atom -5576.551324 kJ/mol
# Density = 1.664873 g / cm^3
# Si number density = 16.686708 Si / 1000 Ang^3
#
#
#
# Elastic Constant Matrix: (Units=GPa)
#
#
# Indices 1 2 3 4 5 6 
#
# 1 110.8305 57.9359 53.9118 0.0000 0.0000 0.0000
# 2 57.9359 110.8305 53.9118 0.0000 0.0000 0.0000
# 3 53.9118 53.9118 89.8247 0.0000 0.0000 0.0000
# 4 0.0000 0.0000 0.0000 23.0356 0.0000 0.0000
# 5 0.0000 0.0000 0.0000 0.0000 23.0356 0.0000
# 6 0.0000 0.0000 0.0000 0.0000 0.0000 6.5553
#
#
#
# Elastic Compliance Matrix: (Units=1/GPa)
#
#
# Indices 1 2 3 4 5 6 
#
# 1 0.014258 -0.004647 -0.005768 0.000000 0.000000 0.000000
# 2 -0.004647 0.014258 -0.005768 0.000000 0.000000 0.000000
# 3 -0.005768 -0.005768 0.018057 0.000000 0.000000 0.000000
# 4 0.000000 0.000000 0.000000 0.043411 0.000000 0.000000
# 5 0.000000 0.000000 0.000000 0.000000 0.043411 0.000000
# 6 0.000000 0.000000 0.000000 0.000000 0.000000 0.152549
#
#
# Mechanical properties :
#
#
# Convention : Reuss Voigt Hill
#
# Bulk Modulus (GPa) = 70.39635 71.44495 70.92065
# Shear Modulus (GPa) = 15.47764 20.24037 17.85900
#
# Velocity S-wave (km/s) = 3.04886 3.48654 3.27502
# Velocity P-wave (km/s) = 7.39410 7.68872 7.54285
#
# Compressibility (1/GPa) = 0.01420528
#
# Stress axis : x y z
#
# Youngs Moduli (GPa) = 70.13582 70.13582 55.38086
#
# Poissons Ratio (x) = 0.32595 0.31945
# Poissons Ratio (y) = 0.32595 0.31945
# Poissons Ratio (z) = 0.40456 0.40456
#
# Static dielectric constant tensor:
#      x y z
#    x 1.534370 0.000000 0.000000 
#    y 0.000000 1.534370 0.000000 
#    z 0.000000 0.000000 1.576050 
# 
# From -- ./inp_files/7765.got.cif
#   From: 2010.05.17/outbox.cif.g08.bks.cpg/sg129_4_cif.got.tgz:7765.got - 2010.05.20 12:12:06.
