data_PCOD9565806
_publ_section_title
;
Structure prediction by ZEFSAII (Michael W. Deem and Ramdas Pophale) SiO2 
 PCOD9565806
Probable space group: P 4/N C C
;
_chemical_formula_sum "Si O2"
_cell_formula_units_Z 48
_cell_length_a 11.627792
_cell_length_b 11.627792
_cell_length_c 14.664720
_cell_angle_alpha 90.000000
_cell_angle_beta 90.000000
_cell_angle_gamma 90.000000
_cell_volume 1982.751486
_symmetry_space_group_name_H-M "P 4/N C C"
_symmetry_group_IT_number 130
_symmetry_cell_setting 'tetragonal'
loop_
_space_group_symop_operation_xyz
x,y,z
1/2-y,x,z
1/2-x,1/2-y,z
y,1/2-x,z
1/2+x,-y,1/2-z
-x,1/2+y,1/2-z
1/2+y,1/2+x,1/2-z
-y,-x,1/2-z
-x,-y,-z
1/2+y,-x,-z
1/2+x,1/2+y,-z
-y,1/2+x,-z
1/2-x,y,1/2+z
x,1/2-y,1/2+z
1/2-y,1/2-x,1/2+z
y,x,1/2+z
loop_
_atom_site_type_symbol
_atom_site_label
_atom_site_fract_x
_atom_site_fract_y
_atom_site_fract_z
Si Si1 0.384439 0.374428 0.313835
Si Si2 0.219549 0.914883 0.528437
Si Si3 0.072528 0.048518 0.115650
O O1 0.255616 0.406529 0.343151
O O2 0.391642 0.378411 0.203819
O O3 0.472277 0.466389 0.351073
O O4 0.302452 0.860326 0.449044
O O5 0.323585 0.963386 0.590549
O O6 0.131141 0.022564 0.535857
#
# Coordination Sequence:
#
# PCOD9565806 Si02
#       3
#    16  16  16
#     4  10  22  42  74 104 133 180 228 318 359 412
#     4  11  26  45  68 100 143 198 229 286 348 427
#     4  11  23  46  68 104 143 177 250 288 357 424
#
# _framework density 24.208783
#
# number of rings (size 3 to 8) (size 9 to 14) (size 15 to 20)
#    0.000    1.333    3.333    1.000    9.333    0.667 
#    0.000    0.000    0.000    0.000    0.000    0.000 
#    0.000    0.000    0.000    0.000    0.000    0.000 
#
# Total GULP energy -267406.115406 kJ/mol
# GULP energy per Si atom -5570.960738 kJ/mol
# Density = 2.415368 g / cm^3
# Si number density = 24.208783 Si / 1000 Ang^3
#
#
#
# Elastic Constant Matrix: (Units=GPa)
#
#
# Indices 1 2 3 4 5 6 
#
# 1 146.9775 66.6944 30.0315 0.0000 0.0000 0.0000
# 2 66.6944 146.9775 30.0315 0.0000 0.0000 0.0000
# 3 30.0315 30.0315 68.7734 0.0000 0.0000 0.0000
# 4 0.0000 0.0000 0.0000 34.7296 0.0000 0.0000
# 5 0.0000 0.0000 0.0000 0.0000 34.7296 0.0000
# 6 0.0000 0.0000 0.0000 0.0000 0.0000 62.7216
#
#
#
# Elastic Compliance Matrix: (Units=1/GPa)
#
#
# Indices 1 2 3 4 5 6 
#
# 1 0.008895 -0.003560 -0.002330 0.000000 0.000000 0.000000
# 2 -0.003560 0.008895 -0.002330 0.000000 0.000000 0.000000
# 3 -0.002330 -0.002330 0.016575 0.000000 0.000000 0.000000
# 4 0.000000 0.000000 0.000000 0.028794 0.000000 0.000000
# 5 0.000000 0.000000 0.000000 0.000000 0.028794 0.000000
# 6 0.000000 0.000000 0.000000 0.000000 0.000000 0.015943
#
#
# Mechanical properties :
#
#
# Convention : Reuss Voigt Hill
#
# Bulk Modulus (GPa) = 55.78355 68.47150 62.12753
# Shear Modulus (GPa) = 38.36939 42.16753 40.26846
#
# Velocity S-wave (km/s) = 3.98545 4.17805 4.08288
# Velocity P-wave (km/s) = 6.65365 7.18470 6.92427
#
# Compressibility (1/GPa) = 0.01792643
#
# Stress axis : x y z
#
# Youngs Moduli (GPa) = 112.41731 112.41731 60.33158
#
# Poissons Ratio (x) = 0.40026 0.14055
# Poissons Ratio (y) = 0.40026 0.14055
# Poissons Ratio (z) = 0.26189 0.26189
#
# Static dielectric constant tensor:
#      x y z
#    x 1.951640 0.000000 0.000000 
#    y 0.000000 1.951640 0.000000 
#    z 0.000000 0.000000 1.984790 
# 
# From -- ./inp_files/2721.got.cif
#   From: 2010.05.17/outbox.cif.g08.bks.cpg/sg130_2_cif.got.tgz:2721.got - 2010.05.20 12:17:35.
