data_PCOD9565938
_publ_section_title
;
Structure prediction by ZEFSAII (Michael W. Deem and Ramdas Pophale) SiO2 
 PCOD9565938
Probable space group: P 4/N C C
;
_chemical_formula_sum "Si O2"
_cell_formula_units_Z 80
_cell_length_a 13.904434
_cell_length_b 13.904434
_cell_length_c 18.201962
_cell_angle_alpha 90.000000
_cell_angle_beta 90.000000
_cell_angle_gamma 90.000000
_cell_volume 3519.045104
_symmetry_space_group_name_H-M "P 4/N C C"
_symmetry_group_IT_number 130
_symmetry_cell_setting 'tetragonal'
loop_
_space_group_symop_operation_xyz
x,y,z
1/2-y,x,z
1/2-x,1/2-y,z
y,1/2-x,z
1/2+x,-y,1/2-z
-x,1/2+y,1/2-z
1/2+y,1/2+x,1/2-z
-y,-x,1/2-z
-x,-y,-z
1/2+y,-x,-z
1/2+x,1/2+y,-z
-y,1/2+x,-z
1/2-x,y,1/2+z
x,1/2-y,1/2+z
1/2-y,1/2-x,1/2+z
y,x,1/2+z
loop_
_atom_site_type_symbol
_atom_site_label
_atom_site_fract_x
_atom_site_fract_y
_atom_site_fract_z
Si Si1 0.439200 0.859453 0.075728
Si Si2 0.023975 0.216077 0.043555
Si Si3 0.257077 0.605249 0.782328
Si Si4 0.092966 0.237474 0.704948
Si Si5 0.138793 0.358008 0.408680
O O1 0.362112 0.941268 0.060181
O O2 0.397855 0.778466 0.131224
O O3 0.538354 0.906904 0.108049
O O4 0.474942 0.800681 0.004491
O O5 0.064925 0.256764 0.119148
O O6 0.106735 0.164965 0.993751
O O7 0.178806 0.678806 0.750000
O O8 0.358722 0.641279 0.750000
O O9 0.230045 0.502612 0.751558
O O10 0.164452 0.150230 0.720210
O O11 0.122405 0.248872 0.383555
#
# Coordination Sequence:
#
# PCOD9565938 Si02
#       5
#    16  16  16  16  16
#     4  11  24  40  70 102 135 186 239 289 357 432
#     4  11  23  41  69 107 141 179 233 299 358 432
#     4  11  26  49  71 100 146 195 241 301 364 432
#     4  11  25  47  74 105 141 188 239 296 364 435
#     4   9  19  38  62  94 137 176 218 282 349 412
#
# _framework density 22.733442
#
# number of rings (size 3 to 8) (size 9 to 14) (size 15 to 20)
#    0.000    1.400    2.000    3.000    2.800    7.600 
#    3.600    4.000    0.000    0.000    0.000    0.000 
#    0.000    0.000    0.000    0.000    0.000    0.000 
#
# Total GULP energy -446425.703101 kJ/mol
# GULP energy per Si atom -5580.321289 kJ/mol
# Density = 2.268170 g / cm^3
# Si number density = 22.733442 Si / 1000 Ang^3
#
#
#
# Elastic Constant Matrix: (Units=GPa)
#
#
# Indices 1 2 3 4 5 6 
#
# 1 114.8847 16.3536 29.3205 0.0000 0.0000 0.0000
# 2 16.3536 114.8736 29.3176 0.0000 0.0000 0.0000
# 3 29.3205 29.3176 86.3949 0.0000 0.0000 0.0000
# 4 0.0000 0.0000 0.0000 27.0352 0.0000 0.0000
# 5 0.0000 0.0000 0.0000 0.0000 27.0340 0.0000
# 6 0.0000 0.0000 0.0000 0.0000 0.0000 20.5495
#
#
#
# Elastic Compliance Matrix: (Units=1/GPa)
#
#
# Indices 1 2 3 4 5 6 
#
# 1 0.009565 -0.000584 -0.003048 0.000000 0.000000 0.000000
# 2 -0.000584 0.009566 -0.003048 0.000000 0.000000 0.000000
# 3 -0.003048 -0.003048 0.013644 0.000000 0.000000 0.000000
# 4 0.000000 0.000000 0.000000 0.036989 0.000000 0.000000
# 5 0.000000 0.000000 0.000000 0.000000 0.036990 0.000000
# 6 0.000000 0.000000 0.000000 0.000000 0.000000 0.048663
#
#
# Mechanical properties :
#
#
# Convention : Reuss Voigt Hill
#
# Bulk Modulus (GPa) = 51.50637 51.79295 51.64966
# Shear Modulus (GPa) = 28.53078 31.00119 29.76598
#
# Velocity S-wave (km/s) = 3.54646 3.69681 3.62242
# Velocity P-wave (km/s) = 6.28297 6.40735 6.34546
#
# Compressibility (1/GPa) = 0.01941508
#
# Stress axis : x y z
#
# Youngs Moduli (GPa) = 104.54316 104.53404 73.29441
#
# Poissons Ratio (x) = 0.06103 0.22341
# Poissons Ratio (y) = 0.06103 0.22341
# Poissons Ratio (z) = 0.31867 0.31863
#
# Static dielectric constant tensor:
#      x y z
#    x 1.841530 0.000000 0.000000 
#    y 0.000000 1.841530 0.000000 
#    z 0.000000 0.000000 1.979530 
# 
# From -- ./inp_files/3615.got.cif
#   From: 2010.05.17/outbox.cif.g08.bks.cpg/sg130_2_cif.got.tgz:3615.got - 2010.05.20 12:17:35.
