data_PCOD9565948
_publ_section_title
;
Structure prediction by ZEFSAII (Michael W. Deem and Ramdas Pophale) SiO2 
 PCOD9565948
Probable space group: P 4/N C C
;
_chemical_formula_sum "Si O2"
_cell_formula_units_Z 96
_cell_length_a 28.123137
_cell_length_b 28.123137
_cell_length_c 7.200685
_cell_angle_alpha 90.000000
_cell_angle_beta 90.000000
_cell_angle_gamma 90.000000
_cell_volume 5695.099784
_symmetry_space_group_name_H-M "P 4/N C C"
_symmetry_group_IT_number 130
_symmetry_cell_setting 'tetragonal'
loop_
_space_group_symop_operation_xyz
x,y,z
1/2-y,x,z
1/2-x,1/2-y,z
y,1/2-x,z
1/2+x,-y,1/2-z
-x,1/2+y,1/2-z
1/2+y,1/2+x,1/2-z
-y,-x,1/2-z
-x,-y,-z
1/2+y,-x,-z
1/2+x,1/2+y,-z
-y,1/2+x,-z
1/2-x,y,1/2+z
x,1/2-y,1/2+z
1/2-y,1/2-x,1/2+z
y,x,1/2+z
loop_
_atom_site_type_symbol
_atom_site_label
_atom_site_fract_x
_atom_site_fract_y
_atom_site_fract_z
Si Si1 0.956439 0.462923 0.528828
Si Si2 0.214035 0.177065 0.166031
Si Si3 0.023199 0.112870 0.953348
Si Si4 0.460615 0.392469 0.391087
Si Si5 0.697089 0.903002 0.625013
Si Si6 0.800487 0.586673 0.063608
O O1 0.953725 0.453725 0.750000
O O2 0.909164 0.493789 0.490661
O O3 0.000000 0.500000 0.500000
O O4 0.973003 0.414915 0.425437
O O5 0.270401 0.190727 0.167331
O O6 0.146648 0.203456 0.481255
O O7 0.199810 0.134972 0.312473
O O8 0.025145 0.116755 0.178182
O O9 0.044757 0.162862 0.884492
O O10 0.063560 0.075682 0.890390
O O11 0.431234 0.347312 0.457146
O O12 0.689900 0.900248 0.847414
O O13 0.746247 0.930099 0.585348
#
# Coordination Sequence:
#
# PCOD9565948 Si02
#       6
#    16  16  16  16  16  16
#     4   8  14  30  46  70  92 108 134 171 222 281
#     4  11  28  46  56  65  86 120 166 217 254 285
#     4   9  19  30  50  69  89 113 140 180 230 281
#     4   9  19  30  50  69  89 113 140 180 230 281
#     4  11  24  39  55  72  91 119 158 197 247 290
#     4  11  24  39  55  72  91 119 158 197 247 290
#
# _framework density 16.856596
#
# number of rings (size 3 to 8) (size 9 to 14) (size 15 to 20)
#    0.000    2.167    1.667    0.000    7.000    1.333 
#    0.000    3.333    0.000    0.000    0.000    0.000 
#    0.000    0.000    0.000    0.000    0.000    0.833 
#
# Total GULP energy -534804.942426 kJ/mol
# GULP energy per Si atom -5570.884817 kJ/mol
# Density = 1.681823 g / cm^3
# Si number density = 16.856596 Si / 1000 Ang^3
#
#
#
# Elastic Constant Matrix: (Units=GPa)
#
#
# Indices 1 2 3 4 5 6 
#
# 1 79.1035 56.6320 0.2800 0.0000 0.0000 0.0000
# 2 56.6320 79.1035 0.2800 0.0000 0.0000 0.0000
# 3 0.2800 0.2800 74.3462 0.0000 0.0000 0.0000
# 4 0.0000 0.0000 0.0000 12.4502 0.0000 0.0000
# 5 0.0000 0.0000 0.0000 0.0000 12.4502 0.0000
# 6 0.0000 0.0000 0.0000 0.0000 0.0000 45.4295
#
#
#
# Elastic Compliance Matrix: (Units=1/GPa)
#
#
# Indices 1 2 3 4 5 6 
#
# 1 0.025934 -0.018567 -0.000028 0.000000 0.000000 0.000000
# 2 -0.018567 0.025934 -0.000028 0.000000 0.000000 0.000000
# 3 -0.000028 -0.000028 0.013451 0.000000 0.000000 0.000000
# 4 0.000000 0.000000 0.000000 0.080320 0.000000 0.000000
# 5 0.000000 0.000000 0.000000 0.000000 0.080320 0.000000
# 6 0.000000 0.000000 0.000000 0.000000 0.000000 0.022012
#
#
# Mechanical properties :
#
#
# Convention : Reuss Voigt Hill
#
# Bulk Modulus (GPa) = 35.61944 38.54860 37.08402
# Shear Modulus (GPa) = 16.97364 25.75671 21.36517
#
# Velocity S-wave (km/s) = 3.17668 3.91319 3.56401
# Velocity P-wave (km/s) = 5.88488 6.58298 6.24369
#
# Compressibility (1/GPa) = 0.02807456
#
# Stress axis : x y z
#
# Youngs Moduli (GPa) = 38.55920 38.55920 74.34506
#
# Poissons Ratio (x) = 0.71592 0.00206
# Poissons Ratio (y) = 0.71592 0.00206
# Poissons Ratio (z) = 0.00107 0.00107
#
# Static dielectric constant tensor:
#      x y z
#    x 1.632860 0.000000 0.000000 
#    y 0.000000 1.632860 0.000000 
#    z 0.000000 0.000000 1.724530 
# 
# From -- ./inp_files/1003.got.cif
#   From: 2010.05.17/outbox.cif.g08.bks.cpg/sg130_1_cif.got.tgz:1003.got - 2010.05.20 12:17:35.
