data_PCOD9565788
_publ_section_title
;
Structure prediction by ZEFSAII (Michael W. Deem and Ramdas Pophale) SiO2 
 PCOD9565788
Probable space group: P 4/N C C
;
_chemical_formula_sum "Si O2"
_cell_formula_units_Z 80
_cell_length_a 11.432498
_cell_length_b 11.432498
_cell_length_c 26.075922
_cell_angle_alpha 90.000000
_cell_angle_beta 90.000000
_cell_angle_gamma 90.000000
_cell_volume 3408.175432
_symmetry_space_group_name_H-M "P 4/N C C"
_symmetry_group_IT_number 130
_symmetry_cell_setting 'tetragonal'
loop_
_space_group_symop_operation_xyz
x,y,z
1/2-y,x,z
1/2-x,1/2-y,z
y,1/2-x,z
1/2+x,-y,1/2-z
-x,1/2+y,1/2-z
1/2+y,1/2+x,1/2-z
-y,-x,1/2-z
-x,-y,-z
1/2+y,-x,-z
1/2+x,1/2+y,-z
-y,1/2+x,-z
1/2-x,y,1/2+z
x,1/2-y,1/2+z
1/2-y,1/2-x,1/2+z
y,x,1/2+z
loop_
_atom_site_type_symbol
_atom_site_label
_atom_site_fract_x
_atom_site_fract_y
_atom_site_fract_z
Si Si1 0.448575 0.458449 0.829062
Si Si2 0.907148 0.154465 0.601460
Si Si3 0.656456 0.080252 0.578106
Si Si4 0.903759 0.853805 0.778464
Si Si5 0.151605 0.079499 0.015667
O O1 0.572017 0.402033 0.847848
O O2 0.369248 0.484577 0.877975
O O3 0.490556 0.579596 0.804007
O O4 0.377851 0.401099 0.782661
O O5 0.793144 0.108927 0.571419
O O6 0.895138 0.295473 0.598254
O O7 0.026847 0.126727 0.571857
O O8 0.615968 0.018823 0.525791
O O9 0.779576 0.905643 0.795062
O O10 0.292140 0.097484 0.009681
#
# Coordination Sequence:
#
# PCOD9565788 Si02
#       5
#    16  16  16  16  16
#     4  11  22  39  62  88 120 155 198 249 300 364
#     4  11  23  39  61  89 122 161 203 250 305 362
#     4  11  23  39  61  89 122 161 203 250 305 362
#     4  10  22  40  62  88 118 154 196 246 304 362
#     4  11  24  41  62  89 122 162 208 255 304 361
#
# _framework density 23.472971000000001
#
# number of rings (size 3 to 8) (size 9 to 14) (size 15 to 20)
#    0.000    1.200    0.000    6.000    0.000    4.000 
#    0.000    4.000    0.000    9.600    0.000    0.000 
#    0.000    0.000    0.000    0.000    0.000    0.000 
#
# Total GULP energy -446771.711714 kJ/mol
# GULP energy per Si atom -5584.646396 kJ/mol
# Density = 2.341955 g / cm^3
# Si number density = 23.472971 Si / 1000 Ang^3
#
#
#
# Elastic Constant Matrix: (Units=GPa)
#
#
# Indices 1 2 3 4 5 6 
#
# 1 72.9721 11.2959 -5.1854 0.0000 0.0000 0.0000
# 2 11.2959 72.9721 -5.1854 0.0000 0.0000 0.0000
# 3 -5.1854 -5.1854 47.2087 0.0000 0.0000 0.0000
# 4 0.0000 0.0000 0.0000 34.6637 0.0000 0.0000
# 5 0.0000 0.0000 0.0000 0.0000 34.6637 0.0000
# 6 0.0000 0.0000 0.0000 0.0000 0.0000 32.8621
#
#
#
# Elastic Compliance Matrix: (Units=1/GPa)
#
#
# Indices 1 2 3 4 5 6 
#
# 1 0.014122 -0.002092 0.001321 0.000000 0.000000 0.000000
# 2 -0.002092 0.014122 0.001321 0.000000 0.000000 0.000000
# 3 0.001321 0.001321 0.021473 0.000000 0.000000 0.000000
# 4 0.000000 0.000000 0.000000 0.028849 0.000000 0.000000
# 5 0.000000 0.000000 0.000000 0.000000 0.028849 0.000000
# 6 0.000000 0.000000 0.000000 0.000000 0.000000 0.030430
#
#
# Mechanical properties :
#
#
# Convention : Reuss Voigt Hill
#
# Bulk Modulus (GPa) = 19.67843 21.66702 20.67273
# Shear Modulus (GPa) = 32.53484 33.25309 32.89397
#
# Velocity S-wave (km/s) = 3.72702 3.76793 3.74753
# Velocity P-wave (km/s) = 5.18869 5.30852 5.24895
#
# Compressibility (1/GPa) = 0.05081706
#
# Stress axis : x y z
#
# Youngs Moduli (GPa) = 70.81347 70.81347 46.57057
#
# Poissons Ratio (x) = 0.14815 -0.06153
# Poissons Ratio (y) = 0.14815 -0.06153
# Poissons Ratio (z) = -0.09357 -0.09357
#
# Static dielectric constant tensor:
#      x y z
#    x 1.891610 0.000000 0.000000 
#    y 0.000000 1.891610 0.000000 
#    z 0.000000 0.000000 1.885120 
# 
# From -- ./inp_files/4773.got.cif
#   From: 2010.05.17/outbox.cif.g08.bks.cpg/sg130_3_cif.got.tgz:4773.got - 2010.05.20 12:17:35.
