data_PCOD9565787
_publ_section_title
;
Structure prediction by ZEFSAII (Michael W. Deem and Ramdas Pophale) SiO2 
 PCOD9565787
Probable space group: P 4/N C C
;
_chemical_formula_sum "Si O2"
_cell_formula_units_Z 52
_cell_length_a 14.179448
_cell_length_b 14.179448
_cell_length_c 10.251296
_cell_angle_alpha 90.000000
_cell_angle_beta 90.000000
_cell_angle_gamma 90.000000
_cell_volume 2061.092212
_symmetry_space_group_name_H-M "P 4/N C C"
_symmetry_group_IT_number 130
_symmetry_cell_setting 'tetragonal'
loop_
_space_group_symop_operation_xyz
x,y,z
1/2-y,x,z
1/2-x,1/2-y,z
y,1/2-x,z
1/2+x,-y,1/2-z
-x,1/2+y,1/2-z
1/2+y,1/2+x,1/2-z
-y,-x,1/2-z
-x,-y,-z
1/2+y,-x,-z
1/2+x,1/2+y,-z
-y,1/2+x,-z
1/2-x,y,1/2+z
x,1/2-y,1/2+z
1/2-y,1/2-x,1/2+z
y,x,1/2+z
loop_
_atom_site_type_symbol
_atom_site_label
_atom_site_fract_x
_atom_site_fract_y
_atom_site_fract_z
Si Si1 0.750000 0.250000 0.750000
Si Si2 0.576054 0.921927 0.752033
Si Si3 0.923050 0.328206 0.583287
Si Si4 0.975194 0.834626 0.508731
O O1 0.838578 0.267519 0.650591
O O2 0.567156 0.844824 0.864304
O O3 0.474493 0.974493 0.750000
O O4 0.645959 0.003624 0.804279
O O5 0.623094 0.902791 0.612940
O O6 0.896436 0.429424 0.525067
O O7 0.978130 0.267396 0.476557
#
# Coordination Sequence:
#
# PCOD9565787 Si02
#       4
#     4  16  16  16
#     4  12  20  38  60 108 150 174 212 284 378 426
#     4  10  22  40  59  92 131 185 228 271 344 420
#     4  11  22  37  62  98 139 176 221 282 352 422
#     4  11  23  41  65  96 139 182 234 282 350 422
#
# _framework density 25.229341999999999
#
# number of rings (size 3 to 8) (size 9 to 14) (size 15 to 20)
#    0.000    1.231    4.615    5.538    2.154    2.462 
#    0.000    0.000    0.000    0.923    0.000   12.923 
#    0.000    0.000    0.000    0.000    0.000    0.000 
#
# Total GULP energy -290344.504057 kJ/mol
# GULP energy per Si atom -5583.548155 kJ/mol
# Density = 2.517192 g / cm^3
# Si number density = 25.229342 Si / 1000 Ang^3
#
#
#
# Elastic Constant Matrix: (Units=GPa)
#
#
# Indices 1 2 3 4 5 6 
#
# 1 49.2610 37.5573 22.2069 0.0000 0.0000 0.0000
# 2 37.5573 49.2610 22.2069 0.0000 0.0000 0.0000
# 3 22.2069 22.2069 105.8933 0.0000 0.0000 0.0000
# 4 0.0000 0.0000 0.0000 35.0630 0.0000 0.0000
# 5 0.0000 0.0000 0.0000 0.0000 35.0630 0.0000
# 6 0.0000 0.0000 0.0000 0.0000 0.0000 49.2244
#
#
#
# Elastic Compliance Matrix: (Units=1/GPa)
#
#
# Indices 1 2 3 4 5 6 
#
# 1 0.049173 -0.036270 -0.002706 0.000000 0.000000 0.000000
# 2 -0.036270 0.049173 -0.002706 0.000000 0.000000 0.000000
# 3 -0.002706 -0.002706 0.010578 0.000000 0.000000 0.000000
# 4 0.000000 0.000000 0.000000 0.028520 0.000000 0.000000
# 5 0.000000 0.000000 0.000000 0.000000 0.028520 0.000000
# 6 0.000000 0.000000 0.000000 0.000000 0.000000 0.020315
#
#
# Mechanical properties :
#
#
# Convention : Reuss Voigt Hill
#
# Bulk Modulus (GPa) = 39.12333 40.92862 40.02597
# Shear Modulus (GPa) = 17.97508 32.03302 25.00405
#
# Velocity S-wave (km/s) = 2.67210 3.56711 3.15154
# Velocity P-wave (km/s) = 5.00609 5.76399 5.39836
#
# Compressibility (1/GPa) = 0.02556020
#
# Stress axis : x y z
#
# Youngs Moduli (GPa) = 20.33647 20.33647 94.53288
#
# Poissons Ratio (x) = 0.73761 0.25579
# Poissons Ratio (y) = 0.73761 0.25579
# Poissons Ratio (z) = 0.05503 0.05503
#
# Static dielectric constant tensor:
#      x y z
#    x 2.010380 0.000000 0.000000 
#    y 0.000000 2.010380 0.000000 
#    z 0.000000 0.000000 2.125320 
# 
# From -- ./inp_files/535.got.cif
#   From: 2010.05.17/outbox.cif.g08.bks.cpg/sg130_1_cif.got.tgz:535.got - 2010.05.20 12:17:35.
