data_PCOD9565614
_publ_section_title
;
Structure prediction by ZEFSAII (Michael W. Deem and Ramdas Pophale) SiO2 
 PCOD9565614
Probable space group: P 4/N C C
;
_chemical_formula_sum "Si O2"
_cell_formula_units_Z 88
_cell_length_a 14.280383
_cell_length_b 14.280383
_cell_length_c 20.678522
_cell_angle_alpha 90.000000
_cell_angle_beta 90.000000
_cell_angle_gamma 90.000000
_cell_volume 4216.957315
_symmetry_space_group_name_H-M "P 4/N C C"
_symmetry_group_IT_number 130
_symmetry_cell_setting 'tetragonal'
loop_
_space_group_symop_operation_xyz
x,y,z
1/2-y,x,z
1/2-x,1/2-y,z
y,1/2-x,z
1/2+x,-y,1/2-z
-x,1/2+y,1/2-z
1/2+y,1/2+x,1/2-z
-y,-x,1/2-z
-x,-y,-z
1/2+y,-x,-z
1/2+x,1/2+y,-z
-y,1/2+x,-z
1/2-x,y,1/2+z
x,1/2-y,1/2+z
1/2-y,1/2-x,1/2+z
y,x,1/2+z
loop_
_atom_site_type_symbol
_atom_site_label
_atom_site_fract_x
_atom_site_fract_y
_atom_site_fract_z
Si Si1 0.363873 0.157133 0.927202
Si Si2 0.673011 0.618013 0.286434
Si Si3 0.197027 0.604790 0.992148
Si Si4 0.495973 0.504028 0.250000
Si Si5 0.137298 0.418683 0.065249
Si Si6 0.935399 0.028762 0.610874
O O1 0.376554 0.261776 0.904300
O O2 0.436797 0.082205 0.903031
O O3 0.358222 0.152110 0.005102
O O4 0.782344 0.625223 0.267046
O O5 0.605174 0.534606 0.260777
O O6 0.676323 0.609566 0.364981
O O7 0.154104 0.571822 0.924035
O O8 0.137262 0.695911 0.012735
O O9 0.181168 0.516636 0.039803
O O10 0.444382 0.541772 0.313432
O O11 0.027048 0.431513 0.076903
#
# Coordination Sequence:
#
# PCOD9565614 Si02
#       6
#    16  16  16   8  16  16
#     4  10  20  32  55  90 118 147 189 251 317 372
#     4  10  22  42  69  95 126 173 226 274 326 394
#     4  10  22  37  60  91 123 162 209 265 331 398
#     4  10  24  44  60  92 128 172 222 264 322 390
#     4  10  21  34  61  89 125 159 206 262 332 378
#     4  10  23  37  59  81 121 162 199 254 314 380
#
# _framework density 20.868127999999999
#
# number of rings (size 3 to 8) (size 9 to 14) (size 15 to 20)
#    0.000    2.000    0.000    3.273   15.273    2.909 
#    3.273    1.818    0.000    2.727    0.000    0.000 
#    0.000    0.000    0.000    0.000    0.000    0.000 
#
# Total GULP energy -491349.686615 kJ/mol
# GULP energy per Si atom -5583.519166 kJ/mol
# Density = 2.082063 g / cm^3
# Si number density = 20.868128 Si / 1000 Ang^3
#
#
#
# Elastic Constant Matrix: (Units=GPa)
#
#
# Indices 1 2 3 4 5 6 
#
# 1 84.1657 26.7493 22.5593 0.0000 0.0000 0.0000
# 2 26.7493 84.1649 22.5591 0.0000 0.0000 0.0000
# 3 22.5593 22.5591 75.1125 0.0000 0.0000 0.0000
# 4 0.0000 0.0000 0.0000 3.3644 0.0000 0.0000
# 5 0.0000 0.0000 0.0000 0.0000 3.3646 0.0000
# 6 0.0000 0.0000 0.0000 0.0000 0.0000 35.1303
#
#
#
# Elastic Compliance Matrix: (Units=1/GPa)
#
#
# Indices 1 2 3 4 5 6 
#
# 1 0.013844 -0.003573 -0.003085 0.000000 0.000000 0.000000
# 2 -0.003573 0.013844 -0.003085 0.000000 0.000000 0.000000
# 3 -0.003085 -0.003085 0.015166 0.000000 0.000000 0.000000
# 4 0.000000 0.000000 0.000000 0.297227 0.000000 0.000000
# 5 0.000000 0.000000 0.000000 0.000000 0.297211 0.000000
# 6 0.000000 0.000000 0.000000 0.000000 0.000000 0.028465
#
#
# Mechanical properties :
#
#
# Convention : Reuss Voigt Hill
#
# Bulk Modulus (GPa) = 42.79180 43.01983 42.90581
# Shear Modulus (GPa) = 7.21468 19.81024 13.51246
#
# Velocity S-wave (km/s) = 1.86139 3.08442 2.54740
# Velocity P-wave (km/s) = 5.01697 5.77449 5.40901
#
# Compressibility (1/GPa) = 0.02336896
#
# Stress axis : x y z
#
# Youngs Moduli (GPa) = 72.23503 72.23445 65.93579
#
# Poissons Ratio (x) = 0.25809 0.20339
# Poissons Ratio (y) = 0.25810 0.20339
# Poissons Ratio (z) = 0.22282 0.22282
#
# Static dielectric constant tensor:
#      x y z
#    x 1.758120 0.000000 0.000000 
#    y 0.000000 1.758120 0.000000 
#    z 0.000000 0.000000 1.760890 
# 
# From -- ./inp_files/3694.got.cif
#   From: 2010.05.17/outbox.cif.g08.bks.cpg/sg130_2_cif.got.tgz:3694.got - 2010.05.20 12:17:35.
