data_PCOD9565524
_publ_section_title
;
Structure prediction by ZEFSAII (Michael W. Deem and Ramdas Pophale) SiO2 
 PCOD9565524
Probable space group: P 4/N M M
;
_chemical_formula_sum "Si O2"
_cell_formula_units_Z 96
_cell_length_a 24.000000
_cell_length_b 24.000000
_cell_length_c 9.000000
_cell_angle_alpha 90.000000
_cell_angle_beta 90.000000
_cell_angle_gamma 90.000000
_cell_volume 5184.000000
_symmetry_space_group_name_H-M "P 4/N M M"
_symmetry_group_IT_number 129
_symmetry_cell_setting 'tetragonal'
loop_
_space_group_symop_operation_xyz
x,y,z
1/2-y,x,z
1/2-x,1/2-y,z
y,1/2-x,z
1/2+x,-y,-z
-x,1/2+y,-z
1/2+y,1/2+x,-z
-y,-x,-z
-x,-y,-z
1/2+y,-x,-z
1/2+x,1/2+y,-z
-y,1/2+x,-z
1/2-x,y,z
x,1/2-y,z
1/2-y,1/2-x,z
y,x,z
loop_
_atom_site_type_symbol
_atom_site_label
_atom_site_fract_x
_atom_site_fract_y
_atom_site_fract_z
Si Si1 0.126649 0.810717 0.391827
Si Si2 0.880384 0.089811 0.835331
Si Si3 0.596093 0.503303 0.206064
Si Si4 0.094784 0.187276 0.301424
Si Si5 0.992499 0.814159 0.943610
Si Si6 0.312656 0.500934 0.546399
O O1 0.177522 0.822479 0.500000
O O2 0.128191 0.750000 0.322829
O O3 0.128178 0.858960 0.272464
O O4 0.067592 0.815486 0.479472
O O5 0.942383 0.067399 0.796427
O O6 0.833786 0.042653 0.836179
O O7 0.885449 0.114552 0.000000
O O8 0.550677 0.550677 0.191698
O O9 0.634942 0.510579 0.348979
O O10 0.640974 0.505025 0.073774
O O11 0.117972 0.250000 0.315594
O O12 0.140633 0.140633 0.328680
O O13 0.066085 0.181519 0.140752
O O14 0.042370 0.183421 0.412778
O O15 0.000925 0.750000 0.989311
O O16 0.250000 0.492213 0.612734
#
# Coordination Sequence:
#
# PCOD9565524 Si02
#       6
#    16  16  16  16  16  16
#     4  10  20  35  53  74 101 132 169 210 249 290
#     4   9  20  34  51  76 102 131 164 199 246 294
#     4  10  19  32  52  78 105 129 157 201 252 296
#     4  10  20  33  50  72  97 128 165 204 246 291
#     4  10  20  34  52  72  97 132 169 201 238 291
#     4   9  18  33  52  73  99 132 167 201 242 298
#
# _framework density 18.518519000000001
#
# number of rings (size 3 to 8) (size 9 to 14) (size 15 to 20)
#    0.000    2.333    0.000    2.500    0.000   10.000 
#    0.000    0.000    0.000    5.500    0.000    3.500 
#    0.000   12.000    0.000    0.000    0.000    0.000 
#
# Total GULP energy -534692.240251 kJ/mol
# GULP energy per Si atom -5569.710836 kJ/mol
# Density = 1.847637 g / cm^3
# Si number density = 18.518519 Si / 1000 Ang^3
#
#
#
# Elastic Constant Matrix: (Units=GPa)
#
#
# Indices 1 2 3 4 5 6 
#
# 1 47.3446 49.6280 15.5666 0.0000 0.0000 0.0000
# 2 49.6280 47.3475 15.5694 0.0000 0.0000 0.0000
# 3 15.5666 15.5694 25.2309 0.0000 0.0000 0.0000
# 4 0.0000 0.0000 0.0000 9.3901 0.0000 0.0000
# 5 0.0000 0.0000 0.0000 0.0000 9.3891 0.0000
# 6 0.0000 0.0000 0.0000 0.0000 0.0000 26.4567
#
#
#
# Elastic Compliance Matrix: (Units=1/GPa)
#
#
# Indices 1 2 3 4 5 6 
#
# 1 -0.212678 0.225540 -0.007960 0.000000 0.000000 0.000000
# 2 0.225540 -0.212682 -0.007909 0.000000 0.000000 0.000000
# 3 -0.007960 -0.007909 0.049426 0.000000 0.000000 0.000000
# 4 0.000000 0.000000 0.000000 0.106495 0.000000 0.000000
# 5 0.000000 0.000000 0.000000 0.000000 0.106507 0.000000
# 6 0.000000 0.000000 0.000000 0.000000 0.000000 0.037798
#
#
# Mechanical properties :
#
#
# Convention : Reuss Voigt Hill
#
# Bulk Modulus (GPa) = 23.03813 31.27232 27.15522
# Shear Modulus (GPa) = -9.43385 11.65776 1.11195
#
# Velocity S-wave (km/s) = -2.25950 2.51174 0.77573
# Velocity P-wave (km/s) = 2.37918 5.03344 3.93675
#
# Compressibility (1/GPa) = 0.04340631
#
# Stress axis : x y z
#
# Youngs Moduli (GPa) = -4.70194 -4.70186 20.23236
#
# Poissons Ratio (x) = 1.06046 0.16106
# Poissons Ratio (y) = 1.06047 0.16002
# Poissons Ratio (z) = -0.03743 -0.03719
#
# Static dielectric constant tensor:
#      x y z
#    x 1.621260 0.000000 0.000000 
#    y 0.000000 1.621260 0.000000 
#    z 0.000000 0.000000 1.696940 
# 
# From -- ./inp_files/2624.got.cif
#   From: 2010.05.17/outbox.ucp.g08.bks.cvg/sg129_2_cif.got.tgz:2624.got - 2010.06.11 11:38:03.
