data_PCOD9565862
_publ_section_title
;
Structure prediction by ZEFSAII (Michael W. Deem and Ramdas Pophale) SiO2 
 PCOD9565862
Probable space group: P 4/N C C
;
_chemical_formula_sum "Si O2"
_cell_formula_units_Z 60
_cell_length_a 12.018195
_cell_length_b 12.018195
_cell_length_c 19.832231
_cell_angle_alpha 90.000000
_cell_angle_beta 90.000000
_cell_angle_gamma 90.000000
_cell_volume 2864.508168
_symmetry_space_group_name_H-M "P 4/N C C"
_symmetry_group_IT_number 130
_symmetry_cell_setting 'tetragonal'
loop_
_space_group_symop_operation_xyz
x,y,z
1/2-y,x,z
1/2-x,1/2-y,z
y,1/2-x,z
1/2+x,-y,1/2-z
-x,1/2+y,1/2-z
1/2+y,1/2+x,1/2-z
-y,-x,1/2-z
-x,-y,-z
1/2+y,-x,-z
1/2+x,1/2+y,-z
-y,1/2+x,-z
1/2-x,y,1/2+z
x,1/2-y,1/2+z
1/2-y,1/2-x,1/2+z
y,x,1/2+z
loop_
_atom_site_type_symbol
_atom_site_label
_atom_site_fract_x
_atom_site_fract_y
_atom_site_fract_z
Si Si1 0.072412 0.761725 0.385497
Si Si2 0.346581 0.091548 0.830488
Si Si3 0.117102 0.882899 0.250000
Si Si4 0.250000 0.750000 0.000000
Si Si5 0.522604 0.522132 0.421554
O O1 0.130080 0.802416 0.315304
O O2 0.152585 0.782364 0.449184
O O3 0.037680 0.632494 0.391363
O O4 0.972614 0.848137 0.400687
O O5 0.396336 0.214449 0.833224
O O6 0.409981 0.024945 0.888248
O O7 0.369041 0.012878 0.767257
O O8 0.500000 0.500000 0.500000
#
# Coordination Sequence:
#
# PCOD9565862 Si02
#       5
#    16  16   8   4  16
#     4  11  26  46  72 107 151 186 249 298 370 438
#     4  10  25  47  69  99 144 187 238 296 358 431
#     4  10  26  45  74 107 136 200 236 302 356 447
#     4  12  24  46  68 108 148 190 236 316 352 442
#     4  11  25  44  73 107 142 194 243 300 364 436
#
# _framework density 20.946005
#
# number of rings (size 3 to 8) (size 9 to 14) (size 15 to 20)
#    0.000    1.333    2.667    0.000   18.667    1.067 
#    0.000    0.000    0.000    0.000    0.000    0.000 
#    0.000    0.000    0.000    0.000    0.000    0.000 
#
# Total GULP energy -334474.320914 kJ/mol
# GULP energy per Si atom -5574.572015 kJ/mol
# Density = 2.089833 g / cm^3
# Si number density = 20.946005 Si / 1000 Ang^3
#
#
#
# Elastic Constant Matrix: (Units=GPa)
#
#
# Indices 1 2 3 4 5 6 
#
# 1 69.9464 60.4285 39.4347 0.0000 0.0000 0.0000
# 2 60.4285 69.9467 39.4350 0.0000 0.0000 0.0000
# 3 39.4347 39.4350 144.3914 0.0000 0.0000 0.0000
# 4 0.0000 0.0000 0.0000 23.7792 0.0000 0.0000
# 5 0.0000 0.0000 0.0000 0.0000 23.7818 0.0000
# 6 0.0000 0.0000 0.0000 0.0000 0.0000 30.7640
#
#
#
# Elastic Compliance Matrix: (Units=1/GPa)
#
#
# Indices 1 2 3 4 5 6 
#
# 1 0.057126 -0.047938 -0.002509 0.000000 0.000000 0.000000
# 2 -0.047938 0.057126 -0.002510 0.000000 0.000000 0.000000
# 3 -0.002509 -0.002510 0.008296 0.000000 0.000000 0.000000
# 4 0.000000 0.000000 0.000000 0.042054 0.000000 0.000000
# 5 0.000000 0.000000 0.000000 0.000000 0.042049 0.000000
# 6 0.000000 0.000000 0.000000 0.000000 0.000000 0.032506
#
#
# Mechanical properties :
#
#
# Convention : Reuss Voigt Hill
#
# Bulk Modulus (GPa) = 60.11366 62.54233 61.32799
# Shear Modulus (GPa) = 14.26069 25.33074 19.79572
#
# Velocity S-wave (km/s) = 2.61210 3.48132 3.07756
# Velocity P-wave (km/s) = 6.15297 6.78846 6.47851
#
# Compressibility (1/GPa) = 0.01663515
#
# Stress axis : x y z
#
# Youngs Moduli (GPa) = 17.50518 17.50521 120.53549
#
# Poissons Ratio (x) = 0.83916 0.30246
# Poissons Ratio (y) = 0.83916 0.30249
# Poissons Ratio (z) = 0.04393 0.04393
#
# Static dielectric constant tensor:
#      x y z
#    x 1.674770 0.000000 0.000000 
#    y 0.000000 1.674760 0.000000 
#    z 0.000000 0.000000 1.784130 
# 
# From -- ./inp_files/3544.got.cif
#   From: 2010.05.17/outbox.cif.g08.bks.cpg/sg130_2_cif.got.tgz:3544.got - 2010.05.20 12:17:35.
