data_PCOD9565075
_publ_section_title
;
Structure prediction by ZEFSAII (Michael W. Deem and Ramdas Pophale) SiO2 
 PCOD9565075
Probable space group: P 4/M N C
;
_chemical_formula_sum "Si O2"
_cell_formula_units_Z 48
_cell_length_a 12.888707
_cell_length_b 12.888707
_cell_length_c 13.802846
_cell_angle_alpha 90.000000
_cell_angle_beta 90.000000
_cell_angle_gamma 90.000000
_cell_volume 2292.911774
_symmetry_space_group_name_H-M "P 4/M N C"
_symmetry_group_IT_number 128
_symmetry_cell_setting 'tetragonal'
loop_
_space_group_symop_operation_xyz
x,y,z
-y,x,z
-x,-y,z
y,-x,z
1/2+x,1/2-y,1/2-z
1/2-x,1/2+y,1/2-z
1/2+y,1/2+x,1/2-z
1/2-y,1/2-x,1/2-z
-x,-y,-z
y,-x,-z
x,y,-z
-y,x,-z
1/2-x,1/2+y,1/2+z
1/2+x,1/2-y,1/2+z
1/2-y,1/2-x,1/2+z
1/2+y,1/2+x,1/2+z
loop_
_atom_site_type_symbol
_atom_site_label
_atom_site_fract_x
_atom_site_fract_y
_atom_site_fract_z
Si Si1 0.555736 0.134619 0.890572
Si Si2 0.327337 0.714029 0.613543
Si Si3 0.526359 0.796710 0.691028
O O1 0.663634 0.201318 0.879291
O O2 0.484334 0.169985 0.802456
O O3 0.606705 0.020573 0.871239
O O4 0.517554 0.145026 0.000000
O O5 0.340753 0.690995 0.500000
O O6 0.438641 0.710212 0.666756
O O7 0.246351 0.635448 0.658450
#
# Coordination Sequence:
#
# PCOD9565075 Si02
#       3
#    16  16  16
#     4   8  16  29  43  63  94 124 157 195 235 279
#     4   9  15  26  44  68  93 123 155 197 238 281
#     4   9  16  27  44  66  96 124 156 190 240 286
#
# _framework density 20.934082
#
# number of rings (size 3 to 8) (size 9 to 14) (size 15 to 20)
#    2.000    1.333    0.000    2.000    0.000    0.667 
#    0.000    3.333    0.000    0.000    0.000   21.000 
#    0.000   64.000    0.000    0.000    0.000    0.000 
#
# Total GULP energy -267578.544304 kJ/mol
# GULP energy per Si atom -5574.553006 kJ/mol
# Density = 2.088643 g / cm^3
# Si number density = 20.934082 Si / 1000 Ang^3
#
#
#
# Elastic Constant Matrix: (Units=GPa)
#
#
# Indices 1 2 3 4 5 6 
#
# 1 71.0064 52.6144 47.7328 0.0000 0.0000 0.0000
# 2 52.6144 71.0064 47.7328 0.0000 0.0000 0.0000
# 3 47.7328 47.7328 181.4789 0.0000 0.0000 0.0000
# 4 0.0000 0.0000 0.0000 29.1367 0.0000 0.0000
# 5 0.0000 0.0000 0.0000 0.0000 29.1367 0.0000
# 6 0.0000 0.0000 0.0000 0.0000 0.0000 36.4862
#
#
#
# Elastic Compliance Matrix: (Units=1/GPa)
#
#
# Indices 1 2 3 4 5 6 
#
# 1 0.032261 -0.022110 -0.002670 0.000000 0.000000 0.000000
# 2 -0.022110 0.032261 -0.002670 0.000000 0.000000 0.000000
# 3 -0.002670 -0.002670 0.006915 0.000000 0.000000 0.000000
# 4 0.000000 0.000000 0.000000 0.034321 0.000000 0.000000
# 5 0.000000 0.000000 0.000000 0.000000 0.034321 0.000000
# 6 0.000000 0.000000 0.000000 0.000000 0.000000 0.027408
#
#
# Mechanical properties :
#
#
# Convention : Reuss Voigt Hill
#
# Bulk Modulus (GPa) = 60.46977 68.85020 64.65998
# Shear Modulus (GPa) = 21.93944 30.64602 26.29273
#
# Velocity S-wave (km/s) = 3.24083 3.83028 3.54782
# Velocity P-wave (km/s) = 6.55382 7.24720 6.90921
#
# Compressibility (1/GPa) = 0.01653719
#
# Stress axis : x y z
#
# Youngs Moduli (GPa) = 30.99679 30.99679 144.61745
#
# Poissons Ratio (x) = 0.68535 0.38612
# Poissons Ratio (y) = 0.68535 0.38612
# Poissons Ratio (z) = 0.08276 0.08276
#
# Static dielectric constant tensor:
#      x y z
#    x 1.817390 0.000000 0.000000 
#    y 0.000000 1.817390 0.000000 
#    z 0.000000 0.000000 1.739990 
# 
# From -- ./inp_files/2219.got.cif
#   From: 2010.05.17/outbox.cif.g08.bks.cpg/sg128_2_cif.got.tgz:2219.got - 2010.05.20 12:07:25.
