data_PCOD9565588
_publ_section_title
;
Structure prediction by ZEFSAII (Michael W. Deem and Ramdas Pophale) SiO2 
 PCOD9565588
Probable space group: P 4/N C C
;
_chemical_formula_sum "Si O2"
_cell_formula_units_Z 96
_cell_length_a 17.310723
_cell_length_b 17.310723
_cell_length_c 15.952754
_cell_angle_alpha 90.000000
_cell_angle_beta 90.000000
_cell_angle_gamma 90.000000
_cell_volume 4780.420303
_symmetry_space_group_name_H-M "P 4/N C C"
_symmetry_group_IT_number 130
_symmetry_cell_setting 'tetragonal'
loop_
_space_group_symop_operation_xyz
x,y,z
1/2-y,x,z
1/2-x,1/2-y,z
y,1/2-x,z
1/2+x,-y,1/2-z
-x,1/2+y,1/2-z
1/2+y,1/2+x,1/2-z
-y,-x,1/2-z
-x,-y,-z
1/2+y,-x,-z
1/2+x,1/2+y,-z
-y,1/2+x,-z
1/2-x,y,1/2+z
x,1/2-y,1/2+z
1/2-y,1/2-x,1/2+z
y,x,1/2+z
loop_
_atom_site_type_symbol
_atom_site_label
_atom_site_fract_x
_atom_site_fract_y
_atom_site_fract_z
Si Si1 0.113716 0.479983 0.918410
Si Si2 0.376923 0.498368 0.230296
Si Si3 0.602606 0.390163 0.155053
Si Si4 0.590679 0.248235 0.932441
Si Si5 0.370564 0.788275 0.876075
Si Si6 0.055505 0.054426 0.078071
O O1 0.135900 0.462185 0.822142
O O2 0.187909 0.526711 0.947998
O O3 0.037849 0.536596 0.924650
O O4 0.088470 0.418683 0.988993
O O5 0.456606 0.543394 0.250000
O O6 0.323594 0.565316 0.187745
O O7 0.387630 0.437235 0.156196
O O8 0.588025 0.411976 0.250000
O O9 0.674982 0.437334 0.119801
O O10 0.630881 0.301499 0.148690
O O11 0.525332 0.406033 0.103628
O O12 0.657375 0.294343 0.879282
O O13 0.613626 0.215532 0.023506
#
# Coordination Sequence:
#
# PCOD9565588 Si02
#       6
#    16  16  16  16  16  16
#     4  10  19  36  57  70 100 145 184 224 285 327
#     4  10  20  36  59  70 102 150 194 217 288 337
#     4  12  25  33  52  80 110 139 195 236 265 318
#     4  12  22  37  50  75 113 155 184 223 273 327
#     4  12  22  36  48  77 110 154 186 222 269 335
#     4  10  20  38  55  77  99 140 192 243 270 319
#
# _framework density 20.081914999999999
#
# number of rings (size 3 to 8) (size 9 to 14) (size 15 to 20)
#    0.000    1.000    6.667    3.000    2.333    0.667 
#    0.000    0.000    0.000    0.000    0.000    0.000 
#    0.000    1.333    1.333   10.333    4.000    0.167 
#
# Total GULP energy -534477.642892 kJ/mol
# GULP energy per Si atom -5567.475447 kJ/mol
# Density = 2.003621 g / cm^3
# Si number density = 20.081915 Si / 1000 Ang^3
#
#
#
# Elastic Constant Matrix: (Units=GPa)
#
#
# Indices 1 2 3 4 5 6 
#
# 1 36.0667 25.3017 37.2086 0.0000 0.0000 0.0000
# 2 25.3017 36.0667 37.2085 0.0000 0.0000 0.0000
# 3 37.2086 37.2085 156.0430 0.0000 0.0000 0.0000
# 4 0.0000 0.0000 0.0000 24.6023 0.0000 0.0000
# 5 0.0000 0.0000 0.0000 0.0000 24.6010 0.0000
# 6 0.0000 0.0000 0.0000 0.0000 0.0000 19.8149
#
#
#
# Elastic Compliance Matrix: (Units=1/GPa)
#
#
# Indices 1 2 3 4 5 6 
#
# 1 0.057908 -0.034985 -0.005466 0.000000 0.000000 0.000000
# 2 -0.034985 0.057908 -0.005466 0.000000 0.000000 0.000000
# 3 -0.005466 -0.005466 0.009015 0.000000 0.000000 0.000000
# 4 0.000000 0.000000 0.000000 0.040647 0.000000 0.000000
# 5 0.000000 0.000000 0.000000 0.000000 0.040649 0.000000
# 6 0.000000 0.000000 0.000000 0.000000 0.000000 0.050467
#
#
# Mechanical properties :
#
#
# Convention : Reuss Voigt Hill
#
# Bulk Modulus (GPa) = 30.30521 47.51268 38.90894
# Shear Modulus (GPa) = 13.91098 22.36749 18.13924
#
# Velocity S-wave (km/s) = 2.63480 3.34100 3.00869
# Velocity P-wave (km/s) = 4.93759 6.21240 5.61131
#
# Compressibility (1/GPa) = 0.03299763
#
# Stress axis : x y z
#
# Youngs Moduli (GPa) = 17.26864 17.26865 110.92289
#
# Poissons Ratio (x) = 0.60415 0.60632
# Poissons Ratio (y) = 0.60414 0.60631
# Poissons Ratio (z) = 0.09439 0.09439
#
# Static dielectric constant tensor:
#      x y z
#    x 1.747200 0.000000 0.000000 
#    y 0.000000 1.747210 0.000000 
#    z 0.000000 0.000000 1.864560 
# 
# From -- ./inp_files/3056.got.cif
#   From: 2010.05.17/outbox.cif.g08.bks.cpg/sg130_2_cif.got.tgz:3056.got - 2010.05.20 12:17:35.
