data_PCOD9565970
_publ_section_title
;
Structure prediction by ZEFSAII (Michael W. Deem and Ramdas Pophale) SiO2 
 PCOD9565970
Probable space group: P 4/N C C
;
_chemical_formula_sum "Si O2"
_cell_formula_units_Z 56
_cell_length_a 12.641978
_cell_length_b 12.641978
_cell_length_c 13.246439
_cell_angle_alpha 90.000000
_cell_angle_beta 90.000000
_cell_angle_gamma 90.000000
_cell_volume 2117.040685
_symmetry_space_group_name_H-M "P 4/N C C"
_symmetry_group_IT_number 130
_symmetry_cell_setting 'tetragonal'
loop_
_space_group_symop_operation_xyz
x,y,z
1/2-y,x,z
1/2-x,1/2-y,z
y,1/2-x,z
1/2+x,-y,1/2-z
-x,1/2+y,1/2-z
1/2+y,1/2+x,1/2-z
-y,-x,1/2-z
-x,-y,-z
1/2+y,-x,-z
1/2+x,1/2+y,-z
-y,1/2+x,-z
1/2-x,y,1/2+z
x,1/2-y,1/2+z
1/2-y,1/2-x,1/2+z
y,x,1/2+z
loop_
_atom_site_type_symbol
_atom_site_label
_atom_site_fract_x
_atom_site_fract_y
_atom_site_fract_z
Si Si1 0.685338 0.907238 0.172944
Si Si2 0.901249 0.825406 0.930765
Si Si3 0.361203 0.861203 0.750000
Si Si4 0.195582 0.874438 0.568378
O O1 0.615085 0.806565 0.206619
O O2 0.679168 0.898246 0.051979
O O3 0.648192 0.022596 0.202867
O O4 0.797763 0.889087 0.897954
O O5 0.018218 0.866012 0.909074
O O6 0.268340 0.855542 0.666188
O O7 0.379404 0.717743 0.524195
#
# Coordination Sequence:
#
# PCOD9565970 Si02
#       4
#    16  16   8  16
#     4   9  20  44  71 101 141 180 234 291 338 406
#     4   9  19  42  72  99 133 180 228 280 339 409
#     4  12  24  45  70 105 132 186 236 278 360 409
#     4  11  25  44  63  97 138 177 221 285 342 412
#
# _framework density 26.452020000000001
#
# number of rings (size 3 to 8) (size 9 to 14) (size 15 to 20)
#    0.000    2.000    2.857    1.714    0.000    5.714 
#   10.286    2.857    0.000    0.000    0.000    0.000 
#    0.000    0.000    0.000    0.000    0.000    0.000 
#
# Total GULP energy -313501.944557 kJ/mol
# GULP energy per Si atom -5598.249010 kJ/mol
# Density = 2.639181 g / cm^3
# Si number density = 26.452020 Si / 1000 Ang^3
#
#
#
# Elastic Constant Matrix: (Units=GPa)
#
#
# Indices 1 2 3 4 5 6 
#
# 1 84.0048 11.6656 16.8226 0.0000 0.0000 0.0000
# 2 11.6656 84.0048 16.8226 0.0000 0.0000 0.0000
# 3 16.8226 16.8226 117.1153 0.0000 0.0000 0.0000
# 4 0.0000 0.0000 0.0000 40.2718 0.0000 0.0000
# 5 0.0000 0.0000 0.0000 0.0000 40.2718 0.0000
# 6 0.0000 0.0000 0.0000 0.0000 0.0000 16.8968
#
#
#
# Elastic Compliance Matrix: (Units=1/GPa)
#
#
# Indices 1 2 3 4 5 6 
#
# 1 0.012416 -0.001408 -0.001581 0.000000 0.000000 0.000000
# 2 -0.001408 0.012416 -0.001581 0.000000 0.000000 0.000000
# 3 -0.001581 -0.001581 0.008993 0.000000 0.000000 0.000000
# 4 0.000000 0.000000 0.000000 0.024831 0.000000 0.000000
# 5 0.000000 0.000000 0.000000 0.000000 0.024831 0.000000
# 6 0.000000 0.000000 0.000000 0.000000 0.000000 0.059183
#
#
# Mechanical properties :
#
#
# Convention : Reuss Voigt Hill
#
# Bulk Modulus (GPa) = 40.51043 41.74961 41.13002
# Shear Modulus (GPa) = 31.24229 35.47567 33.35898
#
# Velocity S-wave (km/s) = 3.44043 3.66612 3.55507
# Velocity P-wave (km/s) = 5.57943 5.80844 5.69509
#
# Compressibility (1/GPa) = 0.02468500
#
# Stress axis : x y z
#
# Youngs Moduli (GPa) = 80.53989 80.53989 111.19915
#
# Poissons Ratio (x) = 0.11336 0.17584
# Poissons Ratio (y) = 0.11336 0.17584
# Poissons Ratio (z) = 0.12736 0.12736
#
# Static dielectric constant tensor:
#      x y z
#    x 2.022660 0.000000 0.000000 
#    y 0.000000 2.022660 0.000000 
#    z 0.000000 0.000000 2.163620 
# 
# From -- ./inp_files/2790.got.cif
#   From: 2010.05.17/outbox.cif.g08.bks.cpg/sg130_2_cif.got.tgz:2790.got - 2010.05.20 12:17:35.
