data_PCOD9565210
_publ_section_title
;
Structure prediction by ZEFSAII (Michael W. Deem and Ramdas Pophale) SiO2 
 PCOD9565210
Probable space group: P 4/N M M
;
_chemical_formula_sum "Si O2"
_cell_formula_units_Z 88
_cell_length_a 13.547766
_cell_length_b 13.547766
_cell_length_c 28.910125
_cell_angle_alpha 90.000000
_cell_angle_beta 90.000000
_cell_angle_gamma 90.000000
_cell_volume 5306.221110
_symmetry_space_group_name_H-M "P 4/N M M"
_symmetry_group_IT_number 129
_symmetry_cell_setting 'tetragonal'
loop_
_space_group_symop_operation_xyz
x,y,z
1/2-y,x,z
1/2-x,1/2-y,z
y,1/2-x,z
1/2+x,-y,-z
-x,1/2+y,-z
1/2+y,1/2+x,-z
-y,-x,-z
-x,-y,-z
1/2+y,-x,-z
1/2+x,1/2+y,-z
-y,1/2+x,-z
1/2-x,y,z
x,1/2-y,z
1/2-y,1/2-x,z
y,x,z
loop_
_atom_site_type_symbol
_atom_site_label
_atom_site_fract_x
_atom_site_fract_y
_atom_site_fract_z
Si Si1 0.632084 0.022886 0.906700
Si Si2 0.867734 0.028166 0.283180
Si Si3 0.367232 0.632769 0.000000
Si Si4 0.531733 0.132226 0.544050
Si Si5 0.632579 0.365224 0.186902
Si Si6 0.968769 0.132771 0.368300
O O1 0.750000 0.020226 0.907052
O O2 0.599841 0.079326 0.953197
O O3 0.601819 0.078690 0.859769
O O4 0.583862 0.916139 0.906671
O O5 0.750000 0.019486 0.288637
O O6 0.889466 0.071356 0.232267
O O7 0.912601 0.101940 0.321346
O O8 0.925053 0.925053 0.289190
O O9 0.250000 0.617095 0.994508
O O10 0.593771 0.093771 0.500000
O O11 0.518958 0.250000 0.543206
O O12 0.590935 0.096737 0.589443
O O13 0.428371 0.071630 0.543639
O O14 0.750000 0.369525 0.178915
O O15 0.607182 0.250000 0.195645
O O16 0.982099 0.250000 0.371604
O O17 0.071496 0.071496 0.369556
#
# Coordination Sequence:
#
# PCOD9565210 Si02
#       6
#    16  16   8  16  16  16
#     4  10  19  30  45  65  91 121 150 183 224 272
#     4  10  20  33  50  73 100 130 164 201 241 287
#     4   9  17  30  48  68  87 109 144 190 234 271
#     4  10  21  36  54  78 106 136 172 211 251 297
#     4   9  17  30  49  71  92 117 153 196 239 279
#     4  10  21  36  54  77 103 131 166 206 248 296
#
# _framework density 16.584308
#
# number of rings (size 3 to 8) (size 9 to 14) (size 15 to 20)
#    0.000    2.273    0.000    3.000    0.000    6.000 
#    0.000    0.000    0.000    6.545    0.000    2.545 
#    0.000   13.091    0.000    0.000    0.000    0.000 
#
# Total GULP energy -490765.856441 kJ/mol
# GULP energy per Si atom -5576.884732 kJ/mol
# Density = 1.654656 g / cm^3
# Si number density = 16.584308 Si / 1000 Ang^3
#
#
#
# Elastic Constant Matrix: (Units=GPa)
#
#
# Indices 1 2 3 4 5 6 
#
# 1 103.0741 61.2835 53.2209 0.0000 0.0000 0.0000
# 2 61.2835 103.0747 53.2209 0.0000 0.0000 0.0000
# 3 53.2209 53.2209 130.4600 0.0000 0.0000 0.0000
# 4 0.0000 0.0000 0.0000 20.5226 0.0000 0.0000
# 5 0.0000 0.0000 0.0000 0.0000 20.5226 0.0000
# 6 0.0000 0.0000 0.0000 0.0000 0.0000 17.7673
#
#
#
# Elastic Compliance Matrix: (Units=1/GPa)
#
#
# Indices 1 2 3 4 5 6 
#
# 1 0.016099 -0.007830 -0.003373 0.000000 0.000000 0.000000
# 2 -0.007830 0.016099 -0.003373 0.000000 0.000000 0.000000
# 3 -0.003373 -0.003373 0.010417 0.000000 0.000000 0.000000
# 4 0.000000 0.000000 0.000000 0.048727 0.000000 0.000000
# 5 0.000000 0.000000 0.000000 0.000000 0.048727 0.000000
# 6 0.000000 0.000000 0.000000 0.000000 0.000000 0.056283
#
#
# Mechanical properties :
#
#
# Convention : Reuss Voigt Hill
#
# Bulk Modulus (GPa) = 74.28261 74.67326 74.47793
# Shear Modulus (GPa) = 21.73989 23.02139 22.38064
#
# Velocity S-wave (km/s) = 3.62452 3.72982 3.67755
# Velocity P-wave (km/s) = 7.89964 7.97953 7.93969
#
# Compressibility (1/GPa) = 0.01346210
#
# Stress axis : x y z
#
# Youngs Moduli (GPa) = 62.11631 62.11676 95.99295
#
# Poissons Ratio (x) = 0.48637 0.32381
# Poissons Ratio (y) = 0.48636 0.32381
# Poissons Ratio (z) = 0.20954 0.20954
#
# Static dielectric constant tensor:
#      x y z
#    x 1.532510 0.000000 0.000000 
#    y 0.000000 1.532510 0.000000 
#    z 0.000000 0.000000 1.563750 
# 
# From -- ./inp_files/7766.got.cif
#   From: 2010.05.17/outbox.cif.g08.bks.cpg/sg129_4_cif.got.tgz:7766.got - 2010.05.20 12:12:06.
