data_PCOD9565808
_publ_section_title
;
Structure prediction by ZEFSAII (Michael W. Deem and Ramdas Pophale) SiO2 
 PCOD9565808
Probable space group: P 4/N C C
;
_chemical_formula_sum "Si O2"
_cell_formula_units_Z 48
_cell_length_a 14.496419
_cell_length_b 14.496419
_cell_length_c 9.147137
_cell_angle_alpha 90.000000
_cell_angle_beta 90.000000
_cell_angle_gamma 90.000000
_cell_volume 1922.235751
_symmetry_space_group_name_H-M "P 4/N C C"
_symmetry_group_IT_number 130
_symmetry_cell_setting 'tetragonal'
loop_
_space_group_symop_operation_xyz
x,y,z
1/2-y,x,z
1/2-x,1/2-y,z
y,1/2-x,z
1/2+x,-y,1/2-z
-x,1/2+y,1/2-z
1/2+y,1/2+x,1/2-z
-y,-x,1/2-z
-x,-y,-z
1/2+y,-x,-z
1/2+x,1/2+y,-z
-y,1/2+x,-z
1/2-x,y,1/2+z
x,1/2-y,1/2+z
1/2-y,1/2-x,1/2+z
y,x,1/2+z
loop_
_atom_site_type_symbol
_atom_site_label
_atom_site_fract_x
_atom_site_fract_y
_atom_site_fract_z
Si Si1 0.140840 0.668067 0.076535
Si Si2 0.888047 0.680936 0.425660
Si Si3 0.456456 0.424258 0.343877
O O1 0.165810 0.665810 0.250000
O O2 0.045571 0.610889 0.066087
O O3 0.129328 0.771330 0.013009
O O4 0.868834 0.788336 0.433185
O O5 0.935035 0.654793 0.274431
O O6 0.939213 0.633336 0.559820
O O7 0.488410 0.511591 0.250000
#
# Coordination Sequence:
#
# PCOD9565808 Si02
#       3
#    16  16  16
#     4  10  22  43  70 107 147 192 238 293 376 450
#     4  11  25  49  75 105 147 198 252 310 374 434
#     4  11  25  44  73 111 143 188 247 309 372 438
#
# _framework density 24.970922999999999
#
# number of rings (size 3 to 8) (size 9 to 14) (size 15 to 20)
#    0.000    1.333    0.000    5.000    9.333    2.667 
#    6.000    0.000    0.000    0.000    0.000    0.000 
#    0.000    0.000    0.000    0.000    0.000    0.000 
#
# Total GULP energy -269083.648870 kJ/mol
# GULP energy per Si atom -5605.909351 kJ/mol
# Density = 2.491409 g / cm^3
# Si number density = 24.970923 Si / 1000 Ang^3
#
#
#
# Elastic Constant Matrix: (Units=GPa)
#
#
# Indices 1 2 3 4 5 6 
#
# 1 90.2681 17.3063 27.1861 0.0000 0.0000 0.0000
# 2 17.3063 90.2637 27.1860 0.0000 0.0000 0.0000
# 3 27.1861 27.1860 99.3469 0.0000 0.0000 0.0000
# 4 0.0000 0.0000 0.0000 39.9831 0.0000 0.0000
# 5 0.0000 0.0000 0.0000 0.0000 39.9825 0.0000
# 6 0.0000 0.0000 0.0000 0.0000 0.0000 15.1329
#
#
#
# Elastic Compliance Matrix: (Units=1/GPa)
#
#
# Indices 1 2 3 4 5 6 
#
# 1 0.012247 -0.001459 -0.002952 0.000000 0.000000 0.000000
# 2 -0.001459 0.012248 -0.002952 0.000000 0.000000 0.000000
# 3 -0.002952 -0.002952 0.011681 0.000000 0.000000 0.000000
# 4 0.000000 0.000000 0.000000 0.025011 0.000000 0.000000
# 5 0.000000 0.000000 0.000000 0.000000 0.025011 0.000000
# 6 0.000000 0.000000 0.000000 0.000000 0.000000 0.066081
#
#
# Mechanical properties :
#
#
# Convention : Reuss Voigt Hill
#
# Bulk Modulus (GPa) = 46.62170 47.02617 46.82393
# Shear Modulus (GPa) = 28.71002 32.89972 30.80487
#
# Velocity S-wave (km/s) = 3.39446 3.63371 3.51612
# Velocity P-wave (km/s) = 5.83730 6.03973 5.93938
#
# Compressibility (1/GPa) = 0.02144924
#
# Stress axis : x y z
#
# Youngs Moduli (GPa) = 81.65329 81.64890 85.60580
#
# Poissons Ratio (x) = 0.11912 0.25272
# Poissons Ratio (y) = 0.11913 0.25273
# Poissons Ratio (z) = 0.24105 0.24105
#
# Static dielectric constant tensor:
#      x y z
#    x 1.970520 0.000000 0.000000 
#    y 0.000000 1.970520 0.000000 
#    z 0.000000 0.000000 1.949560 
# 
# From -- ./inp_files/1326.got.cif
#   From: 2010.05.17/outbox.cif.g08.bks.cpg/sg130_1_cif.got.tgz:1326.got - 2010.05.20 12:17:35.
