data_PCOD9565441
_publ_section_title
;
Structure prediction by ZEFSAII (Michael W. Deem and Ramdas Pophale) SiO2 
 PCOD9565441
Probable space group: P 4/N M M
;
_chemical_formula_sum "Si O2"
_cell_formula_units_Z 120
_cell_length_a 26.862649
_cell_length_b 26.862649
_cell_length_c 8.165311
_cell_angle_alpha 90.000000
_cell_angle_beta 90.000000
_cell_angle_gamma 90.000000
_cell_volume 5892.104024
_symmetry_space_group_name_H-M "P 4/N M M"
_symmetry_group_IT_number 129
_symmetry_cell_setting 'tetragonal'
loop_
_space_group_symop_operation_xyz
x,y,z
1/2-y,x,z
1/2-x,1/2-y,z
y,1/2-x,z
1/2+x,-y,-z
-x,1/2+y,-z
1/2+y,1/2+x,-z
-y,-x,-z
-x,-y,-z
1/2+y,-x,-z
1/2+x,1/2+y,-z
-y,1/2+x,-z
1/2-x,y,z
x,1/2-y,z
1/2-y,1/2-x,z
y,x,z
loop_
_atom_site_type_symbol
_atom_site_label
_atom_site_fract_x
_atom_site_fract_y
_atom_site_fract_z
Si Si1 0.493849 0.195562 0.491192
Si Si2 0.533405 0.047468 0.305113
Si Si3 0.158567 0.539229 0.176504
Si Si4 0.308689 0.646203 0.153378
Si Si5 0.944356 0.807588 0.023709
Si Si6 0.887149 0.805905 0.688800
Si Si7 0.610605 0.968296 0.274942
Si Si8 0.690571 0.309429 0.500000
O O1 0.499718 0.250000 0.568275
O O2 0.532540 0.189385 0.344546
O O3 0.438408 0.192085 0.413354
O O4 0.496485 0.148746 0.607709
O O5 0.547841 0.047841 0.500000
O O6 0.529726 0.101526 0.226607
O O7 0.480806 0.019195 0.296183
O O8 0.573546 0.011792 0.213886
O O9 0.165402 0.594271 0.112407
O O10 0.181222 0.498272 0.055686
O O11 0.250000 0.638025 0.169785
O O12 0.327236 0.666088 0.330008
O O13 0.317969 0.682032 0.000000
O O14 0.941993 0.750000 0.083044
O O15 0.904756 0.812211 0.876799
O O16 0.939833 0.852016 0.153160
O O17 0.866544 0.750000 0.669103
O O18 0.848103 0.848103 0.642507
O O19 0.572804 0.927197 0.349843
O O20 0.750000 0.317361 0.486453
#
# Coordination Sequence:
#
# PCOD9565441 Si02
#       8
#    16  16  16  16  16  16  16   8
#     4  10  20  36  58  81 113 155 197 243 295 354
#     4  10  22  39  59  88 118 152 194 241 301 372
#     4  11  23  40  60  83 119 155 200 252 304 364
#     4  11  24  41  65  93 125 163 208 260 323 380
#     4  10  22  39  57  81 116 153 195 242 291 352
#     4   9  18  33  54  80 110 146 188 234 287 345
#     4  11  22  36  59  88 117 152 197 243 299 365
#     4   9  20  40  64  90 117 152 202 252 305 378
#
# _framework density 20.366240999999999
#
# number of rings (size 3 to 8) (size 9 to 14) (size 15 to 20)
#    0.000    1.800    1.333    3.600    2.800    3.467 
#    0.000    1.333    0.000    0.000    0.000    0.000 
#    0.000    9.600    0.000    0.000    0.000    0.000 
#
# Total GULP energy -669706.466655 kJ/mol
# GULP energy per Si atom -5580.887222 kJ/mol
# Density = 2.031989 g / cm^3
# Si number density = 20.366241 Si / 1000 Ang^3
#
#
#
# Elastic Constant Matrix: (Units=GPa)
#
#
# Indices 1 2 3 4 5 6 
#
# 1 80.2269 18.5631 -1.7745 0.0000 0.0000 0.0000
# 2 18.5631 80.2239 -1.7765 0.0000 0.0000 0.0000
# 3 -1.7745 -1.7765 26.6814 0.0000 0.0000 0.0000
# 4 0.0000 0.0000 0.0000 15.8325 0.0000 0.0000
# 5 0.0000 0.0000 0.0000 0.0000 15.8318 0.0000
# 6 0.0000 0.0000 0.0000 0.0000 0.0000 21.3731
#
#
#
# Elastic Compliance Matrix: (Units=1/GPa)
#
#
# Indices 1 2 3 4 5 6 
#
# 1 0.013182 -0.003035 0.000675 0.000000 0.000000 0.000000
# 2 -0.003035 0.013182 0.000676 0.000000 0.000000 0.000000
# 3 0.000675 0.000676 0.037569 0.000000 0.000000 0.000000
# 4 0.000000 0.000000 0.000000 0.063161 0.000000 0.000000
# 5 0.000000 0.000000 0.000000 0.000000 0.063164 0.000000
# 6 0.000000 0.000000 0.000000 0.000000 0.000000 0.046788
#
#
# Mechanical properties :
#
#
# Convention : Reuss Voigt Hill
#
# Bulk Modulus (GPa) = 16.51148 24.12847 20.31998
# Shear Modulus (GPa) = 19.18618 22.08213 20.63416
#
# Velocity S-wave (km/s) = 3.07263 3.29637 3.18646
# Velocity P-wave (km/s) = 4.55114 5.13430 4.85149
#
# Compressibility (1/GPa) = 0.06056392
#
# Stress axis : x y z
#
# Youngs Moduli (GPa) = 75.86175 75.85868 26.61754
#
# Poissons Ratio (x) = 0.23025 -0.01796
# Poissons Ratio (y) = 0.23026 -0.01799
# Poissons Ratio (z) = -0.05118 -0.05127
#
# Static dielectric constant tensor:
#      x y z
#    x 1.709300 0.000000 0.000000 
#    y 0.000000 1.709280 0.000000 
#    z 0.000000 0.000000 1.797810 
# 
# From -- ./inp_files/2937.got.cif
#   From: 2010.05.17/outbox.cif.g08.bks.cpg/sg129_2_cif.got.tgz:2937.got - 2010.05.20 12:12:06.
