data_PCOD9565253
_publ_section_title
;
Structure prediction by ZEFSAII (Michael W. Deem and Ramdas Pophale) SiO2 
 PCOD9565253
Probable space group: P 4/N M M
;
_chemical_formula_sum "Si O2"
_cell_formula_units_Z 96
_cell_length_a 21.610101
_cell_length_b 21.610101
_cell_length_c 12.419446
_cell_angle_alpha 90.000000
_cell_angle_beta 90.000000
_cell_angle_gamma 90.000000
_cell_volume 5799.837382
_symmetry_space_group_name_H-M "P 4/N M M"
_symmetry_group_IT_number 129
_symmetry_cell_setting 'tetragonal'
loop_
_space_group_symop_operation_xyz
x,y,z
1/2-y,x,z
1/2-x,1/2-y,z
y,1/2-x,z
1/2+x,-y,-z
-x,1/2+y,-z
1/2+y,1/2+x,-z
-y,-x,-z
-x,-y,-z
1/2+y,-x,-z
1/2+x,1/2+y,-z
-y,1/2+x,-z
1/2-x,y,z
x,1/2-y,z
1/2-y,1/2-x,z
y,x,z
loop_
_atom_site_type_symbol
_atom_site_label
_atom_site_fract_x
_atom_site_fract_y
_atom_site_fract_z
Si Si1 0.522609 0.323332 0.052589
Si Si2 0.321815 0.548812 0.812290
Si Si3 0.824387 0.924540 0.775506
Si Si4 0.494168 0.904526 0.376038
Si Si5 0.528317 0.134113 0.389672
Si Si6 0.128073 0.820040 0.766721
O O1 0.513155 0.250000 0.039639
O O2 0.462729 0.345820 0.117972
O O3 0.580018 0.328857 0.134336
O O4 0.537796 0.346746 0.933597
O O5 0.250000 0.531372 0.806943
O O6 0.362327 0.510223 0.728617
O O7 0.327537 0.621277 0.779126
O O8 0.750000 0.918762 0.776392
O O9 0.860279 0.860279 0.769649
O O10 0.844281 0.968427 0.675950
O O11 0.481565 0.863894 0.482763
O O12 0.437429 0.953486 0.367637
O O13 0.556856 0.943145 0.387540
O O14 0.586368 0.171793 0.340712
O O15 0.153388 0.750000 0.771676
#
# Coordination Sequence:
#
# PCOD9565253 Si02
#       6
#    16  16  16  16  16  16
#     4   8  16  31  46  63  89 121 158 194 228 269
#     4  10  20  31  45  69  99 127 157 195 236 280
#     4  10  19  31  50  72  95 125 158 199 251 302
#     4  10  19  31  49  70  93 121 155 197 237 278
#     4   9  17  32  50  69  92 118 155 195 234 279
#     4   9  17  30  49  69  93 128 161 191 230 278
#
# _framework density 16.552188000000001
#
# number of rings (size 3 to 8) (size 9 to 14) (size 15 to 20)
#    0.000    2.667    0.000    4.000    0.000    2.500 
#    0.000    0.000    0.000    9.000    0.000    4.667 
#    0.000    0.333    0.000    0.333    0.000    0.000 
#
# Total GULP energy -534571.382079 kJ/mol
# GULP energy per Si atom -5568.451897 kJ/mol
# Density = 1.651451 g / cm^3
# Si number density = 16.552188 Si / 1000 Ang^3
#
#
#
# Elastic Constant Matrix: (Units=GPa)
#
#
# Indices 1 2 3 4 5 6 
#
# 1 44.3424 13.6998 24.3270 0.0000 0.0000 0.0000
# 2 13.6998 44.3424 24.3270 0.0000 0.0000 0.0000
# 3 24.3270 24.3270 99.3870 0.0000 0.0000 0.0000
# 4 0.0000 0.0000 0.0000 13.4481 0.0000 0.0000
# 5 0.0000 0.0000 0.0000 0.0000 13.4481 0.0000
# 6 0.0000 0.0000 0.0000 0.0000 0.0000 9.7877
#
#
#
# Elastic Compliance Matrix: (Units=1/GPa)
#
#
# Indices 1 2 3 4 5 6 
#
# 1 0.027155 -0.005479 -0.005306 0.000000 0.000000 0.000000
# 2 -0.005479 0.027155 -0.005306 0.000000 0.000000 0.000000
# 3 -0.005306 -0.005306 0.012659 0.000000 0.000000 0.000000
# 4 0.000000 0.000000 0.000000 0.074360 0.000000 0.000000
# 5 0.000000 0.000000 0.000000 0.000000 0.074360 0.000000
# 6 0.000000 0.000000 0.000000 0.000000 0.000000 0.102169
#
#
# Mechanical properties :
#
#
# Convention : Reuss Voigt Hill
#
# Bulk Modulus (GPa) = 28.74481 34.75326 31.74903
# Shear Modulus (GPa) = 13.82603 15.71795 14.77199
#
# Velocity S-wave (km/s) = 2.89329 3.08490 2.99063
# Velocity P-wave (km/s) = 5.34466 5.80780 5.58104
#
# Compressibility (1/GPa) = 0.03478889
#
# Stress axis : x y z
#
# Youngs Moduli (GPa) = 36.82511 36.82511 78.99477
#
# Poissons Ratio (x) = 0.20176 0.41913
# Poissons Ratio (y) = 0.20176 0.41913
# Poissons Ratio (z) = 0.19538 0.19538
#
# Static dielectric constant tensor:
#      x y z
#    x 1.553090 0.000000 0.000000 
#    y 0.000000 1.553090 0.000000 
#    z 0.000000 0.000000 1.581970 
# 
# From -- ./inp_files/3816.got.cif
#   From: 2010.05.17/outbox.cif.g08.bks.cpg/sg129_2_cif.got.tgz:3816.got - 2010.05.20 12:12:06.
