data_PCOD9565785
_publ_section_title
;
Structure prediction by ZEFSAII (Michael W. Deem and Ramdas Pophale) SiO2 
 PCOD9565785
Probable space group: P 4/N C C
;
_chemical_formula_sum "Si O2"
_cell_formula_units_Z 88
_cell_length_a 13.877378
_cell_length_b 13.877378
_cell_length_c 20.593198
_cell_angle_alpha 90.000000
_cell_angle_beta 90.000000
_cell_angle_gamma 90.000000
_cell_volume 3965.871435
_symmetry_space_group_name_H-M "P 4/N C C"
_symmetry_group_IT_number 130
_symmetry_cell_setting 'tetragonal'
loop_
_space_group_symop_operation_xyz
x,y,z
1/2-y,x,z
1/2-x,1/2-y,z
y,1/2-x,z
1/2+x,-y,1/2-z
-x,1/2+y,1/2-z
1/2+y,1/2+x,1/2-z
-y,-x,1/2-z
-x,-y,-z
1/2+y,-x,-z
1/2+x,1/2+y,-z
-y,1/2+x,-z
1/2-x,y,1/2+z
x,1/2-y,1/2+z
1/2-y,1/2-x,1/2+z
y,x,1/2+z
loop_
_atom_site_type_symbol
_atom_site_label
_atom_site_fract_x
_atom_site_fract_y
_atom_site_fract_z
Si Si1 0.915490 0.076050 0.139657
Si Si2 0.250000 0.250000 0.650843
Si Si3 0.686149 0.393826 0.483321
Si Si4 0.369694 0.426591 0.429106
Si Si5 0.248642 0.022427 0.299879
Si Si6 0.600178 0.615455 0.290784
Si Si7 0.750000 0.750000 0.532620
O O1 0.912500 0.166501 0.092240
O O2 0.818613 0.064682 0.181683
O O3 0.011327 0.077456 0.182169
O O4 0.920040 0.979217 0.095879
O O5 0.348990 0.316252 0.656576
O O6 0.797207 0.372245 0.498142
O O7 0.647345 0.482950 0.524619
O O8 0.302709 0.441782 0.365244
O O9 0.338749 0.328406 0.463995
O O10 0.319908 0.101731 0.266862
O O11 0.168670 0.011704 0.244172
#
# Coordination Sequence:
#
# PCOD9565785 Si02
#       7
#    16   4  16  16  16  16   4
#     4  12  24  42  71 105 143 192 243 310 381 447
#     4   8  20  41  65  96 138 192 225 289 364 426
#     4  11  25  47  67  94 141 196 250 302 378 457
#     4  12  23  40  71 104 131 181 246 311 359 446
#     4  11  20  38  65 101 137 180 238 290 372 439
#     4  10  22  39  67 103 146 180 235 304 373 456
#     4  12  20  41  69 104 126 164 245 313 364 430
#
# _framework density 22.189321
#
# number of rings (size 3 to 8) (size 9 to 14) (size 15 to 20)
#    0.000    0.909    5.455    1.091    0.000    3.636 
#    0.000    0.909    0.000    0.000    0.000    0.000 
#    0.000    0.000    0.000    0.000    0.000    0.000 
#
# Total GULP energy -489891.827520 kJ/mol
# GULP energy per Si atom -5566.952585 kJ/mol
# Density = 2.213882 g / cm^3
# Si number density = 22.189321 Si / 1000 Ang^3
#
#
#
# Elastic Constant Matrix: (Units=GPa)
#
#
# Indices 1 2 3 4 5 6 
#
# 1 90.3112 -19.1266 34.1405 0.0000 0.0000 0.0000
# 2 -19.1266 90.3112 34.1405 0.0000 0.0000 0.0000
# 3 34.1405 34.1405 59.8404 0.0000 0.0000 0.0000
# 4 0.0000 0.0000 0.0000 22.9663 0.0000 0.0000
# 5 0.0000 0.0000 0.0000 0.0000 22.9663 0.0000
# 6 0.0000 0.0000 0.0000 0.0000 0.0000 23.5571
#
#
#
# Elastic Compliance Matrix: (Units=1/GPa)
#
#
# Indices 1 2 3 4 5 6 
#
# 1 0.020083 0.010945 -0.017702 0.000000 0.000000 0.000000
# 2 0.010945 0.020083 -0.017702 0.000000 0.000000 0.000000
# 3 -0.017702 -0.017702 0.036911 0.000000 0.000000 0.000000
# 4 0.000000 0.000000 0.000000 0.043542 0.000000 0.000000
# 5 0.000000 0.000000 0.000000 0.000000 0.043542 0.000000
# 6 0.000000 0.000000 0.000000 0.000000 0.000000 0.042450
#
#
# Mechanical properties :
#
#
# Convention : Reuss Voigt Hill
#
# Bulk Modulus (GPa) = 35.51468 37.64128 36.57798
# Shear Modulus (GPa) = 18.87392 26.65182 22.76287
#
# Velocity S-wave (km/s) = 2.91964 3.46946 3.20636
# Velocity P-wave (km/s) = 5.23506 5.74892 5.49800
#
# Compressibility (1/GPa) = 0.02815737
#
# Stress axis : x y z
#
# Youngs Moduli (GPa) = 49.79338 49.79338 27.09250
#
# Poissons Ratio (x) = -0.54501 0.47960
# Poissons Ratio (y) = -0.54501 0.47960
# Poissons Ratio (z) = 0.88147 0.88147
#
# Static dielectric constant tensor:
#      x y z
#    x 1.817830 0.000000 0.000000 
#    y 0.000000 1.817830 0.000000 
#    z 0.000000 0.000000 1.880980 
# 
# From -- ./inp_files/3728.got.cif
#   From: 2010.05.17/outbox.cif.g08.bks.cpg/sg130_2_cif.got.tgz:3728.got - 2010.05.20 12:17:35.
