data_PCOD9565102
_publ_section_title
;
Structure prediction by ZEFSAII (Michael W. Deem and Ramdas Pophale) SiO2 
 PCOD9565102
Probable space group: P 4/N M M
;
_chemical_formula_sum "Si O2"
_cell_formula_units_Z 112
_cell_length_a 22.564017
_cell_length_b 22.564017
_cell_length_c 16.754966
_cell_angle_alpha 90.000000
_cell_angle_beta 90.000000
_cell_angle_gamma 90.000000
_cell_volume 8530.537322
_symmetry_space_group_name_H-M "P 4/N M M"
_symmetry_group_IT_number 129
_symmetry_cell_setting 'tetragonal'
loop_
_space_group_symop_operation_xyz
x,y,z
1/2-y,x,z
1/2-x,1/2-y,z
y,1/2-x,z
1/2+x,-y,-z
-x,1/2+y,-z
1/2+y,1/2+x,-z
-y,-x,-z
-x,-y,-z
1/2+y,-x,-z
1/2+x,1/2+y,-z
-y,1/2+x,-z
1/2-x,y,z
x,1/2-y,z
1/2-y,1/2-x,z
y,x,z
loop_
_atom_site_type_symbol
_atom_site_label
_atom_site_fract_x
_atom_site_fract_y
_atom_site_fract_z
Si Si1 0.682688 0.913382 0.034350
Si Si2 0.250000 0.820210 0.142619
Si Si3 0.448101 0.820982 0.272312
Si Si4 0.321468 0.632214 0.580001
Si Si5 0.180649 0.957048 0.030569
Si Si6 0.636940 0.120388 0.117215
Si Si7 0.917690 0.680662 0.225944
Si Si8 0.321226 0.750000 0.678962
O O1 0.750000 0.893861 0.019760
O O2 0.636244 0.863757 0.011558
O O3 0.677479 0.924487 0.129698
O O4 0.672111 0.974386 0.988681
O O5 0.250000 0.750000 0.146322
O O6 0.186539 0.836787 0.107031
O O7 0.250000 0.846462 0.232300
O O8 0.440889 0.750000 0.259250
O O9 0.422282 0.833585 0.360333
O O10 0.408442 0.851476 0.203293
O O11 0.517740 0.834496 0.262093
O O12 0.359597 0.640404 0.500000
O O13 0.250000 0.632988 0.561834
O O14 0.335449 0.690918 0.631344
O O15 0.250000 0.948258 0.052784
O O16 0.134149 0.931031 0.094208
O O17 0.166974 0.921528 0.948719
O O18 0.903982 0.750000 0.245231
O O19 0.865425 0.634576 0.248233
O O20 0.250000 0.750000 0.686641
#
# Coordination Sequence:
#
# PCOD9565102 Si02
#       8
#    16   8  16  16  16  16  16   8
#     4   9  17  30  48  64  82 103 128 166 213 260
#     4  11  18  26  36  52  75 105 152 190 218 233
#     4  10  18  29  43  58  83 114 141 173 215 253
#     4  10  17  24  37  57  82 110 141 176 209 239
#     4  10  19  30  38  53  80 109 139 175 210 239
#     4  11  19  27  38  53  75 112 149 176 205 238
#     4   9  17  30  48  66  83 104 130 163 208 259
#     4   9  16  22  34  52  75 105 135 180 218 233
#
# _framework density 13.129301999999999
#
# number of rings (size 3 to 8) (size 9 to 14) (size 15 to 20)
#    0.000    2.143    4.286    1.286    0.000    0.286 
#    0.000    3.571    0.000    0.429    0.000    0.000 
#    0.000    0.000    0.000    0.000    0.000    0.286 
#
# Total GULP energy -623480.407242 kJ/mol
# GULP energy per Si atom -5566.789350 kJ/mol
# Density = 1.309942 g / cm^3
# Si number density = 13.129302 Si / 1000 Ang^3
#
#
#
# Elastic Constant Matrix: (Units=GPa)
#
#
# Indices 1 2 3 4 5 6 
#
# 1 73.9596 57.1137 28.1751 0.0000 0.0000 0.0000
# 2 57.1137 73.9597 28.1751 0.0000 0.0000 0.0000
# 3 28.1751 28.1751 51.7605 0.0000 0.0000 0.0000
# 4 0.0000 0.0000 0.0000 12.3905 0.0000 0.0000
# 5 0.0000 0.0000 0.0000 0.0000 12.3899 0.0000
# 6 0.0000 0.0000 0.0000 0.0000 0.0000 18.6412
#
#
#
# Elastic Compliance Matrix: (Units=1/GPa)
#
#
# Indices 1 2 3 4 5 6 
#
# 1 0.034661 -0.024701 -0.005422 0.000000 0.000000 0.000000
# 2 -0.024701 0.034661 -0.005422 0.000000 0.000000 0.000000
# 3 -0.005422 -0.005422 0.025222 0.000000 0.000000 0.000000
# 4 0.000000 0.000000 0.000000 0.080707 0.000000 0.000000
# 5 0.000000 0.000000 0.000000 0.000000 0.080711 0.000000
# 6 0.000000 0.000000 0.000000 0.000000 0.000000 0.053644
#
#
# Mechanical properties :
#
#
# Convention : Reuss Voigt Hill
#
# Bulk Modulus (GPa) = 42.63339 47.40087 45.01713
# Shear Modulus (GPa) = 12.86959 14.43206 13.65083
#
# Velocity S-wave (km/s) = 3.13424 3.31905 3.22797
# Velocity P-wave (km/s) = 6.75577 7.13230 6.94658
#
# Compressibility (1/GPa) = 0.02345579
#
# Stress axis : x y z
#
# Youngs Moduli (GPa) = 28.85097 28.85103 39.64765
#
# Poissons Ratio (x) = 0.71264 0.21496
# Poissons Ratio (y) = 0.71264 0.21496
# Poissons Ratio (z) = 0.15642 0.15642
#
# Static dielectric constant tensor:
#      x y z
#    x 1.435120 0.000000 0.000000 
#    y 0.000000 1.435120 0.000000 
#    z 0.000000 0.000000 1.443760 
# 
# From -- ./inp_files/6053.got.cif
#   From: 2010.05.17/outbox.cif.g08.bks.cpg/sg129_4_cif.got.tgz:6053.got - 2010.05.20 12:12:06.
