data_PCOD9565566
_publ_section_title
;
Structure prediction by ZEFSAII (Michael W. Deem and Ramdas Pophale) SiO2 
 PCOD9565566
Probable space group: P 4/N C C
;
_chemical_formula_sum "Si O2"
_cell_formula_units_Z 96
_cell_length_a 15.038367
_cell_length_b 15.038367
_cell_length_c 24.093024
_cell_angle_alpha 90.000000
_cell_angle_beta 90.000000
_cell_angle_gamma 90.000000
_cell_volume 5448.697177
_symmetry_space_group_name_H-M "P 4/N C C"
_symmetry_group_IT_number 130
_symmetry_cell_setting 'tetragonal'
loop_
_space_group_symop_operation_xyz
x,y,z
1/2-y,x,z
1/2-x,1/2-y,z
y,1/2-x,z
1/2+x,-y,1/2-z
-x,1/2+y,1/2-z
1/2+y,1/2+x,1/2-z
-y,-x,1/2-z
-x,-y,-z
1/2+y,-x,-z
1/2+x,1/2+y,-z
-y,1/2+x,-z
1/2-x,y,1/2+z
x,1/2-y,1/2+z
1/2-y,1/2-x,1/2+z
y,x,1/2+z
loop_
_atom_site_type_symbol
_atom_site_label
_atom_site_fract_x
_atom_site_fract_y
_atom_site_fract_z
Si Si1 0.576465 0.276318 0.740161
Si Si2 0.254152 0.100715 0.925270
Si Si3 0.164358 0.987267 0.838846
Si Si4 0.771018 0.601893 0.946378
Si Si5 0.656389 0.477741 0.353242
Si Si6 0.419774 0.071206 0.745531
O O1 0.654417 0.345584 0.750000
O O2 0.572789 0.208093 0.790921
O O3 0.580368 0.226108 0.681956
O O4 0.482767 0.329406 0.741047
O O5 0.337464 0.166532 0.917387
O O6 0.236736 0.021017 0.882779
O O7 0.264897 0.072220 0.989363
O O8 0.083691 0.930008 0.865082
O O9 0.126967 0.069629 0.801990
O O10 0.846829 0.677571 0.937629
O O11 0.796301 0.522726 0.905339
O O12 0.626633 0.554637 0.309227
O O13 0.498137 0.998137 0.750000
#
# Coordination Sequence:
#
# PCOD9565566 Si02
#       6
#    16  16  16  16  16  16
#     4  10  19  32  50  70  97 133 165 194 238 292
#     4   9  18  34  54  73  95 125 162 203 244 283
#     4  10  19  31  48  72 101 127 158 200 241 287
#     4   9  18  34  54  73  95 125 162 203 244 283
#     4  10  19  31  48  72 101 127 158 200 241 287
#     4   8  16  29  46  70  96 123 156 195 236 281
#
# _framework density 17.618891000000001
#
# number of rings (size 3 to 8) (size 9 to 14) (size 15 to 20)
#    0.000    2.667    0.000    4.500    0.000    1.333 
#    0.000    5.000    0.000    8.000    0.000    0.000 
#    0.000    0.000    0.000    0.000    0.000    0.000 
#
# Total GULP energy -534737.711231 kJ/mol
# GULP energy per Si atom -5570.184492 kJ/mol
# Density = 1.757879 g / cm^3
# Si number density = 17.618891 Si / 1000 Ang^3
#
#
#
# Elastic Constant Matrix: (Units=GPa)
#
#
# Indices 1 2 3 4 5 6 
#
# 1 30.2798 -6.9278 13.5215 0.0000 0.0000 0.0000
# 2 -6.9278 30.2812 13.5215 0.0000 0.0000 0.0000
# 3 13.5215 13.5215 88.9165 0.0000 0.0000 0.0000
# 4 0.0000 0.0000 0.0000 20.0012 0.0000 0.0000
# 5 0.0000 0.0000 0.0000 0.0000 20.0017 0.0000
# 6 0.0000 0.0000 0.0000 0.0000 0.0000 27.7840
#
#
#
# Elastic Compliance Matrix: (Units=1/GPa)
#
#
# Indices 1 2 3 4 5 6 
#
# 1 0.039426 0.012549 -0.007904 0.000000 0.000000 0.000000
# 2 0.012549 0.039424 -0.007904 0.000000 0.000000 0.000000
# 3 -0.007904 -0.007904 0.013650 0.000000 0.000000 0.000000
# 4 0.000000 0.000000 0.000000 0.049997 0.000000 0.000000
# 5 0.000000 0.000000 0.000000 0.000000 0.049996 0.000000
# 6 0.000000 0.000000 0.000000 0.000000 0.000000 0.035992
#
#
# Mechanical properties :
#
#
# Convention : Reuss Voigt Hill
#
# Bulk Modulus (GPa) = 11.63007 21.07865 16.35436
# Shear Modulus (GPa) = 18.96361 22.18151 20.57256
#
# Velocity S-wave (km/s) = 3.28429 3.55203 3.42078
# Velocity P-wave (km/s) = 4.58229 5.36770 4.99047
#
# Compressibility (1/GPa) = 0.08598403
#
# Stress axis : x y z
#
# Youngs Moduli (GPa) = 25.36396 25.36525 73.25827
#
# Poissons Ratio (x) = -0.31831 0.57902
# Poissons Ratio (y) = -0.31830 0.57900
# Poissons Ratio (z) = 0.20047 0.20048
#
# Static dielectric constant tensor:
#      x y z
#    x 1.616080 0.000000 0.000000 
#    y 0.000000 1.616080 0.000000 
#    z 0.000000 0.000000 1.595690 
# 
# From -- ./inp_files/3794.got.cif
#   From: 2010.05.17/outbox.cif.g08.bks.cpg/sg130_2_cif.got.tgz:3794.got - 2010.05.20 12:17:35.
