data_PCOD9565418
_publ_section_title
;
Structure prediction by ZEFSAII (Michael W. Deem and Ramdas Pophale) SiO2 
 PCOD9565418
Probable space group: P 4/N M M
;
_chemical_formula_sum "Si O2"
_cell_formula_units_Z 72
_cell_length_a 17.727018
_cell_length_b 17.727018
_cell_length_c 10.017833
_cell_angle_alpha 90.000000
_cell_angle_beta 90.000000
_cell_angle_gamma 90.000000
_cell_volume 3148.075641
_symmetry_space_group_name_H-M "P 4/N M M"
_symmetry_group_IT_number 129
_symmetry_cell_setting 'tetragonal'
loop_
_space_group_symop_operation_xyz
x,y,z
1/2-y,x,z
1/2-x,1/2-y,z
y,1/2-x,z
1/2+x,-y,-z
-x,1/2+y,-z
1/2+y,1/2+x,-z
-y,-x,-z
-x,-y,-z
1/2+y,-x,-z
1/2+x,1/2+y,-z
-y,1/2+x,-z
1/2-x,y,z
x,1/2-y,z
1/2-y,1/2-x,z
y,x,z
loop_
_atom_site_type_symbol
_atom_site_label
_atom_site_fract_x
_atom_site_fract_y
_atom_site_fract_z
Si Si1 0.496850 0.123057 0.865623
Si Si2 0.042985 0.335101 0.568969
Si Si3 0.874956 0.332301 0.209889
Si Si4 0.831643 0.549016 0.840130
Si Si5 0.372386 0.627615 0.500000
O O1 0.465126 0.158957 0.730249
O O2 0.587064 0.138152 0.861592
O O3 0.464132 0.035869 0.863245
O O4 0.464847 0.157668 0.001007
O O5 0.060314 0.250000 0.529815
O O6 0.106210 0.393790 0.526852
O O7 0.961277 0.358049 0.515079
O O8 0.853117 0.250000 0.151498
O O9 0.844482 0.337836 0.360896
O O10 0.965801 0.332788 0.220213
O O11 0.750000 0.583776 0.815780
O O12 0.898807 0.601194 0.792604
#
# Coordination Sequence:
#
# PCOD9565418 Si02
#       5
#    16  16  16  16   8
#     4   9  18  34  56  81 111 148 189 230 274 333
#     4  10  20  34  55  81 109 144 185 233 287 340
#     4  10  20  34  56  82 106 137 181 237 290 329
#     4  10  20  34  55  84 116 149 184 223 272 330
#     4  10  21  38  56  77 108 149 196 236 275 338
#
# _framework density 22.871113000000001
#
# number of rings (size 3 to 8) (size 9 to 14) (size 15 to 20)
#    0.000    2.222    0.000    3.000    0.000    4.889 
#    0.000    0.000    0.000   40.000    0.000   21.778 
#    0.000    0.000    0.000    0.000    0.000    0.000 
#
# Total GULP energy -402164.022355 kJ/mol
# GULP energy per Si atom -5585.611422 kJ/mol
# Density = 2.281906 g / cm^3
# Si number density = 22.871113 Si / 1000 Ang^3
#
#
#
# Elastic Constant Matrix: (Units=GPa)
#
#
# Indices 1 2 3 4 5 6 
#
# 1 285.1993 -160.4873 -9.2800 0.0000 0.0000 0.0000
# 2 -160.4873 285.1937 -9.2824 0.0000 0.0000 0.0000
# 3 -9.2800 -9.2824 96.5962 0.0000 0.0000 0.0000
# 4 0.0000 0.0000 0.0000 112.8990 0.0000 0.0000
# 5 0.0000 0.0000 0.0000 0.0000 112.8900 0.0000
# 6 0.0000 0.0000 0.0000 0.0000 0.0000 -17.6246
#
#
#
# Elastic Compliance Matrix: (Units=1/GPa)
#
#
# Indices 1 2 3 4 5 6 
#
# 1 0.005189 0.002946 0.000782 0.000000 0.000000 0.000000
# 2 0.002946 0.005189 0.000782 0.000000 0.000000 0.000000
# 3 0.000782 0.000782 0.010503 0.000000 0.000000 0.000000
# 4 0.000000 0.000000 0.000000 0.008857 0.000000 0.000000
# 5 0.000000 0.000000 0.000000 0.000000 0.008858 0.000000
# 6 0.000000 0.000000 0.000000 0.000000 0.000000 -0.056739
#
#
# Mechanical properties :
#
#
# Convention : Reuss Voigt Hill
#
# Bulk Modulus (GPa) = 33.44584 34.32109 33.88347
# Shear Modulus (GPa) = -290.81312 98.03546 -96.38883
#
# Velocity S-wave (km/s) = -11.28845 6.55419 -6.49891
# Velocity P-wave (km/s) = 12.45994 8.50384 6.43951
#
# Compressibility (1/GPa) = 0.02989909
#
# Stress axis : x y z
#
# Youngs Moduli (GPa) = 192.70368 192.69960 95.21476
#
# Poissons Ratio (x) = -0.56762 -0.07442
# Poissons Ratio (y) = -0.56763 -0.07443
# Poissons Ratio (z) = -0.15062 -0.15063
#
# Static dielectric constant tensor:
#      x y z
#    x 1.846860 0.000000 0.000000 
#    y 0.000000 1.846860 0.000000 
#    z 0.000000 0.000000 1.616570 
# 
# From -- ./inp_files/3547.got.cif
#   From: 2010.05.17/outbox.cif.g08.bks.cpg/sg129_2_cif.got.tgz:3547.got - 2010.05.20 12:12:06.
