data_PCOD9565220
_publ_section_title
;
Structure prediction by ZEFSAII (Michael W. Deem and Ramdas Pophale) SiO2 
 PCOD9565220
Probable space group: P 4/N M M
;
_chemical_formula_sum "Si O2"
_cell_formula_units_Z 96
_cell_length_a 18.004819
_cell_length_b 18.004819
_cell_length_c 18.319587
_cell_angle_alpha 90.000000
_cell_angle_beta 90.000000
_cell_angle_gamma 90.000000
_cell_volume 5938.724769
_symmetry_space_group_name_H-M "P 4/N M M"
_symmetry_group_IT_number 129
_symmetry_cell_setting 'tetragonal'
loop_
_space_group_symop_operation_xyz
x,y,z
1/2-y,x,z
1/2-x,1/2-y,z
y,1/2-x,z
1/2+x,-y,-z
-x,1/2+y,-z
1/2+y,1/2+x,-z
-y,-x,-z
-x,-y,-z
1/2+y,-x,-z
1/2+x,1/2+y,-z
-y,1/2+x,-z
1/2-x,y,z
x,1/2-y,z
1/2-y,1/2-x,z
y,x,z
loop_
_atom_site_type_symbol
_atom_site_label
_atom_site_fract_x
_atom_site_fract_y
_atom_site_fract_z
Si Si1 0.025432 0.904037 0.403860
Si Si2 0.444730 0.933656 0.815546
Si Si3 0.543792 0.336082 0.325721
Si Si4 0.834201 0.548135 0.535182
Si Si5 0.164178 0.047425 0.732293
Si Si6 0.664225 0.163067 0.087789
O O1 0.107886 0.902627 0.370776
O O2 0.012165 0.876769 0.485686
O O3 0.977053 0.851170 0.351109
O O4 0.985623 0.985623 0.395832
O O5 0.468097 0.875904 0.751635
O O6 0.398446 0.887867 0.875536
O O7 0.515405 0.984596 0.838305
O O8 0.385783 0.990371 0.778979
O O9 0.567917 0.250000 0.318459
O O10 0.473278 0.336755 0.379728
O O11 0.750000 0.549306 0.511826
O O12 0.875599 0.624402 0.522035
O O13 0.250000 0.043315 0.750565
O O14 0.128105 0.128105 0.742991
O O15 0.750000 0.142625 0.108019
O O16 0.654076 0.250000 0.108445
O O17 0.658983 0.158983 0.000000
#
# Coordination Sequence:
#
# PCOD9565220 Si02
#       6
#    16  16  16  16  16  16
#     4   9  17  30  46  63  85 115 153 195 238 282
#     4  10  19  31  48  70  98 128 158 193 230 278
#     4  10  19  30  46  67  89 117 156 197 237 280
#     4  10  19  30  46  66  89 120 156 196 241 285
#     4   9  17  28  43  64  89 119 153 189 231 276
#     4   9  18  33  53  76 101 128 157 192 237 286
#
# _framework density 16.165088000000001
#
# number of rings (size 3 to 8) (size 9 to 14) (size 15 to 20)
#    0.000    2.500    0.000    5.000    0.000    2.000 
#    0.000    0.000    0.000   14.000    0.000   14.000 
#    0.000    4.333    0.000   12.333    0.000    0.333 
#
# Total GULP energy -534476.230098 kJ/mol
# GULP energy per Si atom -5567.460730 kJ/mol
# Density = 1.612830 g / cm^3
# Si number density = 16.165088 Si / 1000 Ang^3
#
#
#
# Elastic Constant Matrix: (Units=GPa)
#
#
# Indices 1 2 3 4 5 6 
#
# 1 143.1699 19.9527 29.7587 0.0000 0.0000 0.0000
# 2 19.9527 143.1699 29.7587 0.0000 0.0000 0.0000
# 3 29.7587 29.7587 55.8754 0.0000 0.0000 0.0000
# 4 0.0000 0.0000 0.0000 20.0805 0.0000 0.0000
# 5 0.0000 0.0000 0.0000 0.0000 20.0805 0.0000
# 6 0.0000 0.0000 0.0000 0.0000 0.0000 21.0698
#
#
#
# Elastic Compliance Matrix: (Units=1/GPa)
#
#
# Indices 1 2 3 4 5 6 
#
# 1 0.007862 -0.000253 -0.004052 0.000000 0.000000 0.000000
# 2 -0.000253 0.007862 -0.004052 0.000000 0.000000 0.000000
# 3 -0.004052 -0.004052 0.022214 0.000000 0.000000 0.000000
# 4 0.000000 0.000000 0.000000 0.049800 0.000000 0.000000
# 5 0.000000 0.000000 0.000000 0.000000 0.049800 0.000000
# 6 0.000000 0.000000 0.000000 0.000000 0.000000 0.047461
#
#
# Mechanical properties :
#
#
# Convention : Reuss Voigt Hill
#
# Bulk Modulus (GPa) = 47.12167 55.68391 51.40279
# Shear Modulus (GPa) = 23.94763 29.76252 26.85507
#
# Velocity S-wave (km/s) = 3.85313 4.29553 4.08033
# Velocity P-wave (km/s) = 7.00064 7.68921 7.35299
#
# Compressibility (1/GPa) = 0.02122166
#
# Stress axis : x y z
#
# Youngs Moduli (GPa) = 127.18849 127.18849 45.01755
#
# Poissons Ratio (x) = 0.03223 0.18243
# Poissons Ratio (y) = 0.03223 0.18243
# Poissons Ratio (z) = 0.51542 0.51542
#
# Static dielectric constant tensor:
#      x y z
#    x 1.550010 0.000000 0.000000 
#    y 0.000000 1.550010 0.000000 
#    z 0.000000 0.000000 1.557380 
# 
# From -- ./inp_files/5652.got.cif
#   From: 2010.05.17/outbox.cif.g08.bks.cpg/sg129_3_cif.got.tgz:5652.got - 2010.05.20 12:12:06.
