data_PCOD9565532
_publ_section_title
;
Structure prediction by ZEFSAII (Michael W. Deem and Ramdas Pophale) SiO2 
 PCOD9565532
Probable space group: P 4/N C C
;
_chemical_formula_sum "Si O2"
_cell_formula_units_Z 64
_cell_length_a 13.125454
_cell_length_b 13.125454
_cell_length_c 15.686465
_cell_angle_alpha 90.000000
_cell_angle_beta 90.000000
_cell_angle_gamma 90.000000
_cell_volume 2702.425644
_symmetry_space_group_name_H-M "P 4/N C C"
_symmetry_group_IT_number 130
_symmetry_cell_setting 'tetragonal'
loop_
_space_group_symop_operation_xyz
x,y,z
1/2-y,x,z
1/2-x,1/2-y,z
y,1/2-x,z
1/2+x,-y,1/2-z
-x,1/2+y,1/2-z
1/2+y,1/2+x,1/2-z
-y,-x,1/2-z
-x,-y,-z
1/2+y,-x,-z
1/2+x,1/2+y,-z
-y,1/2+x,-z
1/2-x,y,1/2+z
x,1/2-y,1/2+z
1/2-y,1/2-x,1/2+z
y,x,1/2+z
loop_
_atom_site_type_symbol
_atom_site_label
_atom_site_fract_x
_atom_site_fract_y
_atom_site_fract_z
Si Si1 0.112501 0.343288 0.549539
Si Si2 0.972739 0.224288 0.922886
Si Si3 0.438155 0.576017 0.840880
Si Si4 0.368669 0.778979 0.893720
O O1 0.116115 0.223456 0.573785
O O2 0.078473 0.328187 0.450631
O O3 0.029448 0.416410 0.591891
O O4 0.971173 0.332597 0.875627
O O5 0.899134 0.140874 0.879758
O O6 0.919354 0.251180 0.015050
O O7 0.467544 0.532457 0.750000
O O8 0.415884 0.698683 0.828131
O O9 0.250000 0.750000 0.896803
#
# Coordination Sequence:
#
# PCOD9565532 Si02
#       4
#    16  16  16  16
#     4  10  22  40  62  86 122 168 209 257 317 364
#     4  10  15  31  56  85 114 149 202 251 297 364
#     4  10  20  34  58  89 123 157 205 253 312 373
#     4   9  12  26  51  80 113 146 182 246 306 347
#
# _framework density 23.682428000000002
#
# number of rings (size 3 to 8) (size 9 to 14) (size 15 to 20)
#    0.000    2.250    7.500    0.000    0.000    5.500 
#    0.000    2.500   16.500    3.000    0.000    0.000 
#    0.000    0.000    0.000    0.000    0.000    0.000 
#
# Total GULP energy -356371.771738 kJ/mol
# GULP energy per Si atom -5568.308933 kJ/mol
# Density = 2.362853 g / cm^3
# Si number density = 23.682428 Si / 1000 Ang^3
#
#
#
# Elastic Constant Matrix: (Units=GPa)
#
#
# Indices 1 2 3 4 5 6 
#
# 1 88.5049 25.8117 16.5519 0.0000 0.0000 0.0000
# 2 25.8117 88.5054 16.5521 0.0000 0.0000 0.0000
# 3 16.5519 16.5521 52.5654 0.0000 0.0000 0.0000
# 4 0.0000 0.0000 0.0000 11.0630 0.0000 0.0000
# 5 0.0000 0.0000 0.0000 0.0000 11.0628 0.0000
# 6 0.0000 0.0000 0.0000 0.0000 0.0000 19.8348
#
#
#
# Elastic Compliance Matrix: (Units=1/GPa)
#
#
# Indices 1 2 3 4 5 6 
#
# 1 0.012788 -0.003163 -0.003031 0.000000 0.000000 0.000000
# 2 -0.003163 0.012788 -0.003031 0.000000 0.000000 0.000000
# 3 -0.003031 -0.003031 0.020933 0.000000 0.000000 0.000000
# 4 0.000000 0.000000 0.000000 0.090392 0.000000 0.000000
# 5 0.000000 0.000000 0.000000 0.000000 0.090393 0.000000
# 6 0.000000 0.000000 0.000000 0.000000 0.000000 0.050416
#
#
# Mechanical properties :
#
#
# Convention : Reuss Voigt Hill
#
# Bulk Modulus (GPa) = 35.63811 38.60078 37.11944
# Shear Modulus (GPa) = 16.36598 19.76945 18.06772
#
# Velocity S-wave (km/s) = 2.63165 2.89238 2.76509
# Velocity P-wave (km/s) = 4.93104 5.24301 5.08942
#
# Compressibility (1/GPa) = 0.02805985
#
# Stress axis : x y z
#
# Youngs Moduli (GPa) = 78.19837 78.19874 47.77225
#
# Poissons Ratio (x) = 0.24732 0.14479
# Poissons Ratio (y) = 0.24732 0.14479
# Poissons Ratio (z) = 0.23701 0.23701
#
# Static dielectric constant tensor:
#      x y z
#    x 2.044650 0.000000 0.000000 
#    y 0.000000 2.044650 0.000000 
#    z 0.000000 0.000000 1.885380 
# 
# From -- ./inp_files/2826.got.cif
#   From: 2010.05.17/outbox.cif.g08.bks.cpg/sg130_2_cif.got.tgz:2826.got - 2010.05.20 12:17:35.
