data_PCOD9565750
_publ_section_title
;
Structure prediction by ZEFSAII (Michael W. Deem and Ramdas Pophale) SiO2 
 PCOD9565750
Probable space group: P 4/N C C
;
_chemical_formula_sum "Si O2"
_cell_formula_units_Z 60
_cell_length_a 13.342716
_cell_length_b 13.342716
_cell_length_c 12.271426
_cell_angle_alpha 90.000000
_cell_angle_beta 90.000000
_cell_angle_gamma 90.000000
_cell_volume 2184.658290
_symmetry_space_group_name_H-M "P 4/N C C"
_symmetry_group_IT_number 130
_symmetry_cell_setting 'tetragonal'
loop_
_space_group_symop_operation_xyz
x,y,z
1/2-y,x,z
1/2-x,1/2-y,z
y,1/2-x,z
1/2+x,-y,1/2-z
-x,1/2+y,1/2-z
1/2+y,1/2+x,1/2-z
-y,-x,1/2-z
-x,-y,-z
1/2+y,-x,-z
1/2+x,1/2+y,-z
-y,1/2+x,-z
1/2-x,y,1/2+z
x,1/2-y,1/2+z
1/2-y,1/2-x,1/2+z
y,x,1/2+z
loop_
_atom_site_type_symbol
_atom_site_label
_atom_site_fract_x
_atom_site_fract_y
_atom_site_fract_z
Si Si1 0.574847 0.404978 0.508035
Si Si2 0.963511 0.659173 0.333535
Si Si3 0.419937 0.225493 0.892716
Si Si4 0.250000 0.250000 0.603444
Si Si5 0.933819 0.066182 0.750000
O O1 0.500000 0.500000 0.500000
O O2 0.646948 0.438298 0.408419
O O3 0.812598 0.495435 0.524788
O O4 0.614571 0.403324 0.632540
O O5 0.975274 0.721325 0.223361
O O6 0.865740 0.707319 0.388589
O O7 0.930967 0.550489 0.287302
O O8 0.357081 0.329088 0.896600
#
# Coordination Sequence:
#
# PCOD9565750 Si02
#       5
#    16  16  16   4   8
#     4  10  21  41  62  83 132 202 230 277 353 440
#     4  11  19  38  65  90 146 183 219 274 370 429
#     4  11  20  38  67 104 145 178 229 304 363 414
#     4  12  24  40  66 124 150 164 212 322 372 410
#     4  10  22  44  56  76 130 200 244 264 336 442
#
# _framework density 27.46425
#
# number of rings (size 3 to 8) (size 9 to 14) (size 15 to 20)
#    0.000    1.333    8.000    0.000    0.000    0.000 
#   19.200    4.000    0.000    0.000    0.000    1.867 
#   16.000    0.000    0.000    0.000    0.000    0.000 
#
# Total GULP energy -334250.093437 kJ/mol
# GULP energy per Si atom -5570.834891 kJ/mol
# Density = 2.740174 g / cm^3
# Si number density = 27.464250 Si / 1000 Ang^3
#
#
#
# Elastic Constant Matrix: (Units=GPa)
#
#
# Indices 1 2 3 4 5 6 
#
# 1 120.0668 72.4317 72.0512 0.0000 0.0000 0.0000
# 2 72.4317 120.0648 72.0510 0.0000 0.0000 0.0000
# 3 72.0512 72.0510 268.0625 0.0000 0.0000 0.0000
# 4 0.0000 0.0000 0.0000 20.4066 0.0000 0.0000
# 5 0.0000 0.0000 0.0000 0.0000 20.4066 0.0000
# 6 0.0000 0.0000 0.0000 0.0000 0.0000 85.6736
#
#
#
# Elastic Compliance Matrix: (Units=1/GPa)
#
#
# Indices 1 2 3 4 5 6 
#
# 1 0.013748 -0.007245 -0.001748 0.000000 0.000000 0.000000
# 2 -0.007245 0.013749 -0.001748 0.000000 0.000000 0.000000
# 3 -0.001748 -0.001748 0.004670 0.000000 0.000000 0.000000
# 4 0.000000 0.000000 0.000000 0.049004 0.000000 0.000000
# 5 0.000000 0.000000 0.000000 0.000000 0.049004 0.000000
# 6 0.000000 0.000000 0.000000 0.000000 0.000000 0.011672
#
#
# Mechanical properties :
#
#
# Convention : Reuss Voigt Hill
#
# Bulk Modulus (GPa) = 93.58982 104.58468 99.08725
# Shear Modulus (GPa) = 29.95980 44.74138 37.35059
#
# Velocity S-wave (km/s) = 3.30641 4.04056 3.69178
# Velocity P-wave (km/s) = 6.98050 7.74152 7.37084
#
# Compressibility (1/GPa) = 0.01068492
#
# Stress axis : x y z
#
# Youngs Moduli (GPa) = 72.73643 72.73503 214.12549
#
# Poissons Ratio (x) = 0.52696 0.37429
# Poissons Ratio (y) = 0.52697 0.37430
# Poissons Ratio (z) = 0.12714 0.12714
#
# Static dielectric constant tensor:
#      x y z
#    x 2.550040 0.000000 0.000000 
#    y 0.000000 2.550040 0.000000 
#    z 0.000000 0.000000 2.534730 
# 
# From -- ./inp_files/2207.got.cif
#   From: 2010.05.17/outbox.cif.g08.bks.cpg/sg130_2_cif.got.tgz:2207.got - 2010.05.20 12:17:35.
