data_PCOD9565565
_publ_section_title
;
Structure prediction by ZEFSAII (Michael W. Deem and Ramdas Pophale) SiO2 
 PCOD9565565
Probable space group: P 4/N C C
;
_chemical_formula_sum "Si O2"
_cell_formula_units_Z 80
_cell_length_a 26.299705
_cell_length_b 26.299705
_cell_length_c 5.498870
_cell_angle_alpha 90.000000
_cell_angle_beta 90.000000
_cell_angle_gamma 90.000000
_cell_volume 3803.428065
_symmetry_space_group_name_H-M "P 4/N C C"
_symmetry_group_IT_number 130
_symmetry_cell_setting 'tetragonal'
loop_
_space_group_symop_operation_xyz
x,y,z
1/2-y,x,z
1/2-x,1/2-y,z
y,1/2-x,z
1/2+x,-y,1/2-z
-x,1/2+y,1/2-z
1/2+y,1/2+x,1/2-z
-y,-x,1/2-z
-x,-y,-z
1/2+y,-x,-z
1/2+x,1/2+y,-z
-y,1/2+x,-z
1/2-x,y,1/2+z
x,1/2-y,1/2+z
1/2-y,1/2-x,1/2+z
y,x,1/2+z
loop_
_atom_site_type_symbol
_atom_site_label
_atom_site_fract_x
_atom_site_fract_y
_atom_site_fract_z
Si Si1 0.739668 0.029509 0.268759
Si Si2 0.901890 0.880581 0.315062
Si Si3 0.423535 0.502313 0.682076
Si Si4 0.140823 0.721539 0.265505
Si Si5 0.483146 0.630136 0.316204
O O1 0.751500 0.001022 0.517579
O O2 0.775415 0.079395 0.266710
O O3 0.681514 0.047774 0.278931
O O4 0.873390 0.871748 0.566745
O O5 0.956861 0.854403 0.308634
O O6 0.915577 0.941732 0.321461
O O7 0.480404 0.519597 0.750000
O O8 0.405008 0.523040 0.421664
O O9 0.392533 0.523591 0.914923
O O10 0.166510 0.666510 0.250000
O O11 0.156611 0.748002 0.520458
#
# Coordination Sequence:
#
# PCOD9565565 Si02
#       5
#    16  16  16  16  16
#     4  10  21  38  54  68  89 115 148 195 247 288
#     4   8  16  27  44  66  92 122 149 173 208 262
#     4  10  19  31  48  71 100 127 146 173 223 285
#     4  10  21  37  55  69  80 100 135 183 243 307
#     4  10  19  32  47  67  91 120 154 183 220 277
#
# _framework density 21.033655
#
# number of rings (size 3 to 8) (size 9 to 14) (size 15 to 20)
#    0.000    2.400    0.000    2.400    0.000    8.400 
#    0.000   24.000    0.000    0.000    0.000    0.000 
#    0.000    0.000    0.000    0.000    0.000    0.000 
#
# Total GULP energy -446009.462309 kJ/mol
# GULP energy per Si atom -5575.118279 kJ/mol
# Density = 2.098578 g / cm^3
# Si number density = 21.033655 Si / 1000 Ang^3
#
#
#
# Elastic Constant Matrix: (Units=GPa)
#
#
# Indices 1 2 3 4 5 6 
#
# 1 26.2083 16.7115 16.5267 0.0000 0.0000 0.0000
# 2 16.7115 26.2097 16.5267 0.0000 0.0000 0.0000
# 3 16.5267 16.5267 230.4839 0.0000 0.0000 0.0000
# 4 0.0000 0.0000 0.0000 19.0025 0.0000 0.0000
# 5 0.0000 0.0000 0.0000 0.0000 19.0016 0.0000
# 6 0.0000 0.0000 0.0000 0.0000 0.0000 16.0370
#
#
#
# Elastic Compliance Matrix: (Units=1/GPa)
#
#
# Indices 1 2 3 4 5 6 
#
# 1 0.064978 -0.040315 -0.001768 0.000000 0.000000 0.000000
# 2 -0.040315 0.064974 -0.001768 0.000000 0.000000 0.000000
# 3 -0.001768 -0.001768 0.004592 0.000000 0.000000 0.000000
# 4 0.000000 0.000000 0.000000 0.052625 0.000000 0.000000
# 5 0.000000 0.000000 0.000000 0.000000 0.052627 0.000000
# 6 0.000000 0.000000 0.000000 0.000000 0.000000 0.062356
#
#
# Mechanical properties :
#
#
# Convention : Reuss Voigt Hill
#
# Bulk Modulus (GPa) = 21.34907 42.49241 31.92074
# Shear Modulus (GPa) = 12.33138 26.35068 19.34103
#
# Velocity S-wave (km/s) = 2.42393 3.54331 3.03566
# Velocity P-wave (km/s) = 4.24333 6.08162 5.24366
#
# Compressibility (1/GPa) = 0.04684045
#
# Stress axis : x y z
#
# Youngs Moduli (GPa) = 15.38985 15.39071 217.75660
#
# Poissons Ratio (x) = 0.62048 0.38508
# Poissons Ratio (y) = 0.62045 0.38502
# Poissons Ratio (z) = 0.02722 0.02721
#
# Static dielectric constant tensor:
#      x y z
#    x 1.791760 0.000000 0.000000 
#    y 0.000000 1.791760 0.000000 
#    z 0.000000 0.000000 1.904010 
# 
# From -- ./inp_files/211.got.cif
#   From: 2010.05.17/outbox.cif.g08.bks.cpg/sg130_1_cif.got.tgz:211.got - 2010.05.20 12:17:35.
