data_PCOD9565982
_publ_section_title
;
Structure prediction by ZEFSAII (Michael W. Deem and Ramdas Pophale) SiO2 
 PCOD9565982
Probable space group: P 4/N C C
;
_chemical_formula_sum "Si O2"
_cell_formula_units_Z 52
_cell_length_a 8.900086
_cell_length_b 8.900086
_cell_length_c 31.608804
_cell_angle_alpha 90.000000
_cell_angle_beta 90.000000
_cell_angle_gamma 90.000000
_cell_volume 2503.781752
_symmetry_space_group_name_H-M "P 4/N C C"
_symmetry_group_IT_number 130
_symmetry_cell_setting 'tetragonal'
loop_
_space_group_symop_operation_xyz
x,y,z
1/2-y,x,z
1/2-x,1/2-y,z
y,1/2-x,z
1/2+x,-y,1/2-z
-x,1/2+y,1/2-z
1/2+y,1/2+x,1/2-z
-y,-x,1/2-z
-x,-y,-z
1/2+y,-x,-z
1/2+x,1/2+y,-z
-y,1/2+x,-z
1/2-x,y,1/2+z
x,1/2-y,1/2+z
1/2-y,1/2-x,1/2+z
y,x,1/2+z
loop_
_atom_site_type_symbol
_atom_site_label
_atom_site_fract_x
_atom_site_fract_y
_atom_site_fract_z
Si Si1 0.750000 0.750000 0.201037
Si Si2 0.045083 0.395558 0.622965
Si Si3 0.561177 0.583203 0.541366
Si Si4 0.834934 0.087811 0.202877
O O1 0.563534 0.735866 0.201035
O O2 0.049029 0.215769 0.620626
O O3 0.967331 0.474502 0.583285
O O4 0.959485 0.426555 0.666415
O O5 0.737523 0.546619 0.541159
O O6 0.500000 0.500000 0.500000
O O7 0.750000 0.250000 0.196219
O O8 0.901839 0.098162 0.250000
#
# Coordination Sequence:
#
# PCOD9565982 Si02
#       4
#     4  16  16  16
#     4  12  28  44  80 100 148 194 260 300 384 456
#     4  11  26  45  72 106 147 193 247 311 383 455
#     4  11  26  46  72 104 143 189 247 310 380 463
#     4  11  28  48  74 113 152 200 259 319 387 460
#
# _framework density 20.768583
#
# number of rings (size 3 to 8) (size 9 to 14) (size 15 to 20)
#    0.000    0.923    0.000    3.692   17.231    5.538 
#    0.000    0.000    0.000    0.000    0.000    0.000 
#    0.000    0.000    0.000    0.000    0.000    0.000 
#
# Total GULP energy -289661.767925 kJ/mol
# GULP energy per Si atom -5570.418614 kJ/mol
# Density = 2.072131 g / cm^3
# Si number density = 20.768583 Si / 1000 Ang^3
#
#
#
# Elastic Constant Matrix: (Units=GPa)
#
#
# Indices 1 2 3 4 5 6 
#
# 1 138.9391 117.0812 117.3734 0.0000 0.0000 0.0000
# 2 117.0812 138.9397 117.3731 0.0000 0.0000 0.0000
# 3 117.3734 117.3731 206.6304 0.0000 0.0000 0.0000
# 4 0.0000 0.0000 0.0000 31.3851 0.0000 0.0000
# 5 0.0000 0.0000 0.0000 0.0000 31.3850 0.0000
# 6 0.0000 0.0000 0.0000 0.0000 0.0000 21.6733
#
#
#
# Elastic Compliance Matrix: (Units=1/GPa)
#
#
# Indices 1 2 3 4 5 6 
#
# 1 0.026951 -0.018799 -0.004630 0.000000 0.000000 0.000000
# 2 -0.018799 0.026950 -0.004630 0.000000 0.000000 0.000000
# 3 -0.004630 -0.004630 0.010100 0.000000 0.000000 0.000000
# 4 0.000000 0.000000 0.000000 0.031862 0.000000 0.000000
# 5 0.000000 0.000000 0.000000 0.000000 0.031862 0.000000
# 6 0.000000 0.000000 0.000000 0.000000 0.000000 0.046140
#
#
# Mechanical properties :
#
#
# Convention : Reuss Voigt Hill
#
# Bulk Modulus (GPa) = 126.87762 132.01827 129.44795
# Shear Modulus (GPa) = 21.49505 25.73413 23.61459
#
# Velocity S-wave (km/s) = 3.22060 3.52389 3.37565
# Velocity P-wave (km/s) = 8.66334 8.95887 8.81234
#
# Compressibility (1/GPa) = 0.00788161
#
# Stress axis : x y z
#
# Youngs Moduli (GPa) = 37.10482 37.10532 99.01032
#
# Poissons Ratio (x) = 0.69754 0.45847
# Poissons Ratio (y) = 0.69753 0.45844
# Poissons Ratio (z) = 0.17181 0.17181
#
# Static dielectric constant tensor:
#      x y z
#    x 1.703320 0.000000 0.000000 
#    y 0.000000 1.703320 0.000000 
#    z 0.000000 0.000000 1.702600 
# 
# From -- ./inp_files/4702.got.cif
#   From: 2010.05.17/outbox.cif.g08.bks.cpg/sg130_3_cif.got.tgz:4702.got - 2010.05.20 12:17:35.
