data_PCOD9565917
_publ_section_title
;
Structure prediction by ZEFSAII (Michael W. Deem and Ramdas Pophale) SiO2 
 PCOD9565917
Probable space group: P 4/N C C
;
_chemical_formula_sum "Si O2"
_cell_formula_units_Z 64
_cell_length_a 12.784687
_cell_length_b 12.784687
_cell_length_c 19.673558
_cell_angle_alpha 90.000000
_cell_angle_beta 90.000000
_cell_angle_gamma 90.000000
_cell_volume 3215.608069
_symmetry_space_group_name_H-M "P 4/N C C"
_symmetry_group_IT_number 130
_symmetry_cell_setting 'tetragonal'
loop_
_space_group_symop_operation_xyz
x,y,z
1/2-y,x,z
1/2-x,1/2-y,z
y,1/2-x,z
1/2+x,-y,1/2-z
-x,1/2+y,1/2-z
1/2+y,1/2+x,1/2-z
-y,-x,1/2-z
-x,-y,-z
1/2+y,-x,-z
1/2+x,1/2+y,-z
-y,1/2+x,-z
1/2-x,y,1/2+z
x,1/2-y,1/2+z
1/2-y,1/2-x,1/2+z
y,x,1/2+z
loop_
_atom_site_type_symbol
_atom_site_label
_atom_site_fract_x
_atom_site_fract_y
_atom_site_fract_z
Si Si1 0.250659 0.623307 0.107609
Si Si2 0.752578 0.424619 0.250484
Si Si3 0.553712 0.388699 0.488006
Si Si4 0.272361 0.075768 0.378930
O O1 0.250000 0.750000 0.124363
O O2 0.250072 0.543218 0.170737
O O3 0.149057 0.601424 0.063737
O O4 0.347472 0.599220 0.058998
O O5 0.862848 0.362848 0.250000
O O6 0.660270 0.339731 0.250000
O O7 0.732284 0.500187 0.187240
O O8 0.500000 0.500000 0.500000
O O9 0.482642 0.301509 0.449313
O O10 0.363205 0.162970 0.375741
#
# Coordination Sequence:
#
# PCOD9565917 Si02
#       4
#    16  16  16  16
#     4  12  22  41  65  98 132 165 223 292 334 392
#     4  11  22  39  68  98 127 168 224 281 328 409
#     4  12  24  38  68  97 131 176 227 278 349 411
#     4  11  26  46  64  93 141 184 219 276 354 416
#
# _framework density 19.902922
#
# number of rings (size 3 to 8) (size 9 to 14) (size 15 to 20)
#    0.000    0.500    7.500    1.500    3.500    3.000 
#    0.000    0.000    0.000    3.000    0.000    0.000 
#    0.000    0.000    0.000    0.000    0.000    0.000 
#
# Total GULP energy -356826.747536 kJ/mol
# GULP energy per Si atom -5575.417930 kJ/mol
# Density = 1.985762 g / cm^3
# Si number density = 19.902922 Si / 1000 Ang^3
#
#
#
# Elastic Constant Matrix: (Units=GPa)
#
#
# Indices 1 2 3 4 5 6 
#
# 1 77.8558 31.3520 23.7549 0.0000 0.0000 0.0000
# 2 31.3520 77.8546 23.7539 0.0000 0.0000 0.0000
# 3 23.7549 23.7539 115.2396 0.0000 0.0000 0.0000
# 4 0.0000 0.0000 0.0000 29.8858 0.0000 0.0000
# 5 0.0000 0.0000 0.0000 0.0000 29.8858 0.0000
# 6 0.0000 0.0000 0.0000 0.0000 0.0000 27.0826
#
#
#
# Elastic Compliance Matrix: (Units=1/GPa)
#
#
# Indices 1 2 3 4 5 6 
#
# 1 0.015781 -0.005722 -0.002074 0.000000 0.000000 0.000000
# 2 -0.005722 0.015781 -0.002073 0.000000 0.000000 0.000000
# 3 -0.002074 -0.002073 0.009532 0.000000 0.000000 0.000000
# 4 0.000000 0.000000 0.000000 0.033461 0.000000 0.000000
# 5 0.000000 0.000000 0.000000 0.000000 0.033461 0.000000
# 6 0.000000 0.000000 0.000000 0.000000 0.000000 0.036924
#
#
# Mechanical properties :
#
#
# Convention : Reuss Voigt Hill
#
# Bulk Modulus (GPa) = 46.82432 47.63018 47.22725
# Shear Modulus (GPa) = 29.10391 30.17679 29.64035
#
# Velocity S-wave (km/s) = 3.82814 3.89806 3.86326
# Velocity P-wave (km/s) = 6.56635 6.65155 6.60909
#
# Compressibility (1/GPa) = 0.02135642
#
# Stress axis : x y z
#
# Youngs Moduli (GPa) = 63.36607 63.36541 104.90563
#
# Poissons Ratio (x) = 0.36261 0.21752
# Poissons Ratio (y) = 0.36261 0.21751
# Poissons Ratio (z) = 0.13139 0.13138
#
# Static dielectric constant tensor:
#      x y z
#    x 1.724500 0.000000 0.000000 
#    y 0.000000 1.724500 0.000000 
#    z 0.000000 0.000000 1.817970 
# 
# From -- ./inp_files/3503.got.cif
#   From: 2010.05.17/outbox.cif.g08.bks.cpg/sg130_2_cif.got.tgz:3503.got - 2010.05.20 12:17:35.
