data_PCOD9565930
_publ_section_title
;
Structure prediction by ZEFSAII (Michael W. Deem and Ramdas Pophale) SiO2 
 PCOD9565930
Probable space group: P 4/N C C
;
_chemical_formula_sum "Si O2"
_cell_formula_units_Z 112
_cell_length_a 13.857221
_cell_length_b 13.857221
_cell_length_c 27.109896
_cell_angle_alpha 90.000000
_cell_angle_beta 90.000000
_cell_angle_gamma 90.000000
_cell_volume 5205.712007
_symmetry_space_group_name_H-M "P 4/N C C"
_symmetry_group_IT_number 130
_symmetry_cell_setting 'tetragonal'
loop_
_space_group_symop_operation_xyz
x,y,z
1/2-y,x,z
1/2-x,1/2-y,z
y,1/2-x,z
1/2+x,-y,1/2-z
-x,1/2+y,1/2-z
1/2+y,1/2+x,1/2-z
-y,-x,1/2-z
-x,-y,-z
1/2+y,-x,-z
1/2+x,1/2+y,-z
-y,1/2+x,-z
1/2-x,y,1/2+z
x,1/2-y,1/2+z
1/2-y,1/2-x,1/2+z
y,x,1/2+z
loop_
_atom_site_type_symbol
_atom_site_label
_atom_site_fract_x
_atom_site_fract_y
_atom_site_fract_z
Si Si1 0.391420 0.846811 0.624084
Si Si2 0.775164 0.590075 0.287288
Si Si3 0.423722 0.022584 0.956753
Si Si4 0.956156 0.290062 0.627239
Si Si5 0.477728 0.410572 0.789316
Si Si6 0.594612 0.793214 0.463764
Si Si7 0.512374 0.137086 0.866435
O O1 0.428587 0.901230 0.575336
O O2 0.276917 0.861520 0.624092
O O3 0.437256 0.900700 0.671050
O O4 0.442230 0.742492 0.626334
O O5 0.855872 0.673261 0.286063
O O6 0.766522 0.528390 0.336721
O O7 0.810113 0.528449 0.240621
O O8 0.464806 0.099684 0.917425
O O9 0.324767 0.056797 0.982668
O O10 0.500000 0.000000 0.000000
O O11 0.929977 0.395691 0.646390
O O12 0.010019 0.306034 0.575570
O O13 0.507749 0.492252 0.750000
O O14 0.384079 0.437035 0.822251
O O15 0.635708 0.685890 0.456858
#
# Coordination Sequence:
#
# PCOD9565930 Si02
#       7
#    16  16  16  16  16  16  16
#     4  11  25  41  66  98 138 180 233 285 342 424
#     4  11  23  39  66  98 130 172 229 293 347 404
#     4  11  22  44  68  95 136 186 230 287 350 416
#     4  12  23  41  65  97 141 177 232 280 346 422
#     4  11  22  44  67  95 133 184 229 288 353 415
#     4  11  23  39  66  99 132 176 232 288 344 403
#     4  11  25  43  69 101 137 189 232 283 356 429
#
# _framework density 21.514828000000001
#
# number of rings (size 3 to 8) (size 9 to 14) (size 15 to 20)
#    0.000    0.857    2.857    4.714    4.000    1.143 
#    0.000    0.000    3.143    6.857    0.000    0.000 
#    0.000    0.000    0.000    0.000    0.000    0.000 
#
# Total GULP energy -625539.723353 kJ/mol
# GULP energy per Si atom -5585.176101 kJ/mol
# Density = 2.146586 g / cm^3
# Si number density = 21.514828 Si / 1000 Ang^3
#
#
#
# Elastic Constant Matrix: (Units=GPa)
#
#
# Indices 1 2 3 4 5 6 
#
# 1 70.2837 1.0118 36.6294 0.0000 0.0000 0.0000
# 2 1.0118 70.2829 36.6294 0.0000 0.0000 0.0000
# 3 36.6294 36.6294 131.4724 0.0000 0.0000 0.0000
# 4 0.0000 0.0000 0.0000 28.4909 0.0000 0.0000
# 5 0.0000 0.0000 0.0000 0.0000 28.4913 0.0000
# 6 0.0000 0.0000 0.0000 0.0000 0.0000 21.6410
#
#
#
# Elastic Compliance Matrix: (Units=1/GPa)
#
#
# Indices 1 2 3 4 5 6 
#
# 1 0.017044 0.002608 -0.005475 0.000000 0.000000 0.000000
# 2 0.002608 0.017044 -0.005475 0.000000 0.000000 0.000000
# 3 -0.005475 -0.005475 0.010657 0.000000 0.000000 0.000000
# 4 0.000000 0.000000 0.000000 0.035099 0.000000 0.000000
# 5 0.000000 0.000000 0.000000 0.000000 0.035098 0.000000
# 6 0.000000 0.000000 0.000000 0.000000 0.000000 0.046209
#
#
# Mechanical properties :
#
#
# Convention : Reuss Voigt Hill
#
# Bulk Modulus (GPa) = 35.63725 46.73113 41.18419
# Shear Modulus (GPa) = 26.71086 28.90919 27.81003
#
# Velocity S-wave (km/s) = 3.52733 3.66961 3.59917
# Velocity P-wave (km/s) = 5.76102 6.30256 6.03787
#
# Compressibility (1/GPa) = 0.02806052
#
# Stress axis : x y z
#
# Youngs Moduli (GPa) = 58.67153 58.67078 93.83408
#
# Poissons Ratio (x) = -0.15303 0.51377
# Poissons Ratio (y) = -0.15303 0.51377
# Poissons Ratio (z) = 0.32124 0.32124
#
# Static dielectric constant tensor:
#      x y z
#    x 1.806730 0.000000 0.000000 
#    y 0.000000 1.806730 0.000000 
#    z 0.000000 0.000000 1.764740 
# 
# From -- ./inp_files/4312.got.cif
#   From: 2010.05.17/outbox.cif.g08.bks.cpg/sg130_3_cif.got.tgz:4312.got - 2010.05.20 12:17:35.
