data_PCOD9565484
_publ_section_title
;
Structure prediction by ZEFSAII (Michael W. Deem and Ramdas Pophale) SiO2 
 PCOD9565484
Probable space group: P 4/N M M
;
_chemical_formula_sum "Si O2"
_cell_formula_units_Z 80
_cell_length_a 27.051386
_cell_length_b 27.051386
_cell_length_c 5.235312
_cell_angle_alpha 90.000000
_cell_angle_beta 90.000000
_cell_angle_gamma 90.000000
_cell_volume 3831.083446
_symmetry_space_group_name_H-M "P 4/N M M"
_symmetry_group_IT_number 129
_symmetry_cell_setting 'tetragonal'
loop_
_space_group_symop_operation_xyz
x,y,z
1/2-y,x,z
1/2-x,1/2-y,z
y,1/2-x,z
1/2+x,-y,-z
-x,1/2+y,-z
1/2+y,1/2+x,-z
-y,-x,-z
-x,-y,-z
1/2+y,-x,-z
1/2+x,1/2+y,-z
-y,1/2+x,-z
1/2-x,y,z
x,1/2-y,z
1/2-y,1/2-x,z
y,x,z
loop_
_atom_site_type_symbol
_atom_site_label
_atom_site_fract_x
_atom_site_fract_y
_atom_site_fract_z
Si Si1 0.002413 0.426120 0.626159
Si Si2 0.750000 0.453203 0.176850
Si Si3 0.645046 0.063949 0.043395
Si Si4 0.750000 0.981568 0.668422
Si Si5 0.962633 0.851336 0.763657
Si Si6 0.310403 0.310403 0.479585
Si Si7 0.638702 0.861299 0.022221
O O1 0.963803 0.463803 0.500000
O O2 0.969441 0.386239 0.763923
O O3 0.039102 0.460899 0.791100
O O4 0.035400 0.396623 0.426046
O O5 0.800325 0.423698 0.135666
O O6 0.750000 0.475829 0.457887
O O7 0.750000 0.497189 0.960826
O O8 0.611719 0.111719 0.000000
O O9 0.651836 0.021695 0.828037
O O10 0.700461 0.950961 0.629383
O O11 0.921088 0.854941 0.983317
O O12 0.250000 0.317984 0.486950
O O13 0.334240 0.334240 0.220604
O O14 0.337688 0.337688 0.721365
#
# Coordination Sequence:
#
# PCOD9565484 Si02
#       7
#    16   8  16   8  16   8   8
#     4  11  22  36  58  89 128 174 221 259 313 390
#     4  10  22  40  62  93 122 166 225 268 314 391
#     4  11  23  40  63  90 130 178 218 270 333 400
#     4  10  22  38  60  86 127 165 208 260 322 379
#     4  11  24  38  59  95 128 170 212 267 327 398
#     4  11  28  54  76  95 124 175 238 289 342 399
#     4  12  28  43  70 103 134 167 222 283 346 395
#
# _framework density 20.881822
#
# number of rings (size 3 to 8) (size 9 to 14) (size 15 to 20)
#    0.000    1.100    5.000    0.600    7.000    1.200 
#    0.000    0.000    0.000    0.300    0.000    0.000 
#    0.000    2.000    0.000    0.000    0.000    0.500 
#
# Total GULP energy -445794.292367 kJ/mol
# GULP energy per Si atom -5572.428655 kJ/mol
# Density = 2.083429 g / cm^3
# Si number density = 20.881822 Si / 1000 Ang^3
#
#
#
# Elastic Constant Matrix: (Units=GPa)
#
#
# Indices 1 2 3 4 5 6 
#
# 1 242.2151 -69.8014 14.2284 0.0000 0.0000 0.0000
# 2 -69.8014 242.2151 14.2284 0.0000 0.0000 0.0000
# 3 14.2284 14.2284 63.8848 0.0000 0.0000 0.0000
# 4 0.0000 0.0000 0.0000 26.9875 0.0000 0.0000
# 5 0.0000 0.0000 0.0000 0.0000 26.9875 0.0000
# 6 0.0000 0.0000 0.0000 0.0000 0.0000 33.4669
#
#
#
# Elastic Compliance Matrix: (Units=1/GPa)
#
#
# Indices 1 2 3 4 5 6 
#
# 1 0.004613 0.001408 -0.001341 0.000000 0.000000 0.000000
# 2 0.001408 0.004613 -0.001341 0.000000 0.000000 0.000000
# 3 -0.001341 -0.001341 0.016251 0.000000 0.000000 0.000000
# 4 0.000000 0.000000 0.000000 0.037054 0.000000 0.000000
# 5 0.000000 0.000000 0.000000 0.000000 0.037054 0.000000
# 6 0.000000 0.000000 0.000000 0.000000 0.000000 0.029880
#
#
# Mechanical properties :
#
#
# Convention : Reuss Voigt Hill
#
# Bulk Modulus (GPa) = 43.61297 51.73618 47.67457
# Shear Modulus (GPa) = 35.80213 56.79901 46.30057
#
# Velocity S-wave (km/s) = 4.14516 5.22104 4.71389
# Velocity P-wave (km/s) = 6.62123 7.82146 7.24624
#
# Compressibility (1/GPa) = 0.02292896
#
# Stress axis : x y z
#
# Youngs Moduli (GPa) = 216.77156 216.77156 61.53640
#
# Poissons Ratio (x) = -0.30526 0.08252
# Poissons Ratio (y) = -0.30526 0.08252
# Poissons Ratio (z) = 0.29071 0.29071
#
# Static dielectric constant tensor:
#      x y z
#    x 1.801150 0.000000 0.000000 
#    y 0.000000 1.801150 0.000000 
#    z 0.000000 0.000000 1.853440 
# 
# From -- ./inp_files/1026.got.cif
#   From: 2010.05.17/outbox.cif.g08.bks.cpg/sg129_1_cif.got.tgz:1026.got - 2010.05.20 12:12:06.
