data_PCOD9565702
_publ_section_title
;
Structure prediction by ZEFSAII (Michael W. Deem and Ramdas Pophale) SiO2 
 PCOD9565702
Probable space group: P 4/N C C
;
_chemical_formula_sum "Si O2"
_cell_formula_units_Z 96
_cell_length_a 25.838240
_cell_length_b 25.838240
_cell_length_c 9.658241
_cell_angle_alpha 90.000000
_cell_angle_beta 90.000000
_cell_angle_gamma 90.000000
_cell_volume 6447.983149
_symmetry_space_group_name_H-M "P 4/N C C"
_symmetry_group_IT_number 130
_symmetry_cell_setting 'tetragonal'
loop_
_space_group_symop_operation_xyz
x,y,z
1/2-y,x,z
1/2-x,1/2-y,z
y,1/2-x,z
1/2+x,-y,1/2-z
-x,1/2+y,1/2-z
1/2+y,1/2+x,1/2-z
-y,-x,1/2-z
-x,-y,-z
1/2+y,-x,-z
1/2+x,1/2+y,-z
-y,1/2+x,-z
1/2-x,y,1/2+z
x,1/2-y,1/2+z
1/2-y,1/2-x,1/2+z
y,x,1/2+z
loop_
_atom_site_type_symbol
_atom_site_label
_atom_site_fract_x
_atom_site_fract_y
_atom_site_fract_z
Si Si1 0.272416 0.600548 0.760880
Si Si2 0.971465 0.945066 0.969991
Si Si3 0.767195 0.331083 0.494908
Si Si4 0.498092 0.087526 0.243854
Si Si5 0.657846 0.415372 0.667957
Si Si6 0.372900 0.559826 0.643681
O O1 0.294638 0.638295 0.880554
O O2 0.252330 0.633161 0.629062
O O3 0.219434 0.581443 0.831130
O O4 0.315287 0.559969 0.709738
O O5 0.921025 0.962252 0.887319
O O6 0.007956 0.906857 0.880023
O O7 0.964913 0.918197 0.117228
O O8 0.000000 0.000000 0.000000
O O9 0.803740 0.284551 0.445093
O O10 0.534021 0.137217 0.251607
O O11 0.540539 0.040539 0.250000
O O12 0.633364 0.366637 0.750000
O O13 0.634689 0.417745 0.512468
O O14 0.405338 0.594663 0.750000
#
# Coordination Sequence:
#
# PCOD9565702 Si02
#       6
#    16  16  16  16  16  16
#     4  12  23  34  45  65  85 111 154 191 242 283
#     4   9  16  30  48  70  88 105 136 181 231 286
#     4  11  22  36  49  58  77 112 157 204 238 274
#     4   8  15  28  45  66  84 106 135 171 225 275
#     4  10  21  34  48  62  86 116 146 189 233 280
#     4  11  22  33  49  67  88 113 146 191 238 284
#
# _framework density 14.888377
#
# number of rings (size 3 to 8) (size 9 to 14) (size 15 to 20)
#    0.000    1.833    1.667    5.500    2.333    1.333 
#    0.000    0.000    0.000    0.000    0.000    0.000 
#    0.000    0.000    0.000    0.000    0.000    0.833 
#
# Total GULP energy -534920.391111 kJ/mol
# GULP energy per Si atom -5572.087407 kJ/mol
# Density = 1.485449 g / cm^3
# Si number density = 14.888377 Si / 1000 Ang^3
#
#
#
# Elastic Constant Matrix: (Units=GPa)
#
#
# Indices 1 2 3 4 5 6 
#
# 1 34.2435 23.6755 11.7180 0.0000 0.0000 0.0000
# 2 23.6755 34.2437 11.7184 0.0000 0.0000 0.0000
# 3 11.7180 11.7184 41.7523 0.0000 0.0000 0.0000
# 4 0.0000 0.0000 0.0000 22.1339 0.0000 0.0000
# 5 0.0000 0.0000 0.0000 0.0000 22.1337 0.0000
# 6 0.0000 0.0000 0.0000 0.0000 0.0000 23.8560
#
#
#
# Elastic Compliance Matrix: (Units=1/GPa)
#
#
# Indices 1 2 3 4 5 6 
#
# 1 0.057051 -0.037573 -0.005466 0.000000 0.000000 0.000000
# 2 -0.037573 0.057051 -0.005467 0.000000 0.000000 0.000000
# 3 -0.005466 -0.005467 0.027019 0.000000 0.000000 0.000000
# 4 0.000000 0.000000 0.000000 0.045179 0.000000 0.000000
# 5 0.000000 0.000000 0.000000 0.000000 0.045180 0.000000
# 6 0.000000 0.000000 0.000000 0.000000 0.000000 0.041918
#
#
# Mechanical properties :
#
#
# Convention : Reuss Voigt Hill
#
# Bulk Modulus (GPa) = 22.67164 22.71815 22.69489
# Shear Modulus (GPa) = 12.98316 17.83324 15.40820
#
# Velocity S-wave (km/s) = 2.95622 3.46467 3.22050
# Velocity P-wave (km/s) = 5.18779 5.59441 5.39493
#
# Compressibility (1/GPa) = 0.04410798
#
# Stress axis : x y z
#
# Youngs Moduli (GPa) = 17.52825 17.52820 37.01060
#
# Poissons Ratio (x) = 0.65859 0.20230
# Poissons Ratio (y) = 0.65860 0.20234
# Poissons Ratio (z) = 0.09581 0.09583
#
# Static dielectric constant tensor:
#      x y z
#    x 1.520330 0.000000 0.000000 
#    y 0.000000 1.520330 0.000000 
#    z 0.000000 0.000000 1.551460 
# 
# From -- ./inp_files/1017.got.cif
#   From: 2010.05.17/outbox.cif.g08.bks.cpg/sg130_1_cif.got.tgz:1017.got - 2010.05.20 12:17:35.
