data_PCOD9565346
_publ_section_title
;
Structure prediction by ZEFSAII (Michael W. Deem and Ramdas Pophale) SiO2 
 PCOD9565346
Probable space group: P 4/N M M
;
_chemical_formula_sum "Si O2"
_cell_formula_units_Z 80
_cell_length_a 13.709090
_cell_length_b 13.709090
_cell_length_c 26.096146
_cell_angle_alpha 90.000000
_cell_angle_beta 90.000000
_cell_angle_gamma 90.000000
_cell_volume 4904.487462
_symmetry_space_group_name_H-M "P 4/N M M"
_symmetry_group_IT_number 129
_symmetry_cell_setting 'tetragonal'
loop_
_space_group_symop_operation_xyz
x,y,z
1/2-y,x,z
1/2-x,1/2-y,z
y,1/2-x,z
1/2+x,-y,-z
-x,1/2+y,-z
1/2+y,1/2+x,-z
-y,-x,-z
-x,-y,-z
1/2+y,-x,-z
1/2+x,1/2+y,-z
-y,1/2+x,-z
1/2-x,y,z
x,1/2-y,z
1/2-y,1/2-x,z
y,x,z
loop_
_atom_site_type_symbol
_atom_site_label
_atom_site_fract_x
_atom_site_fract_y
_atom_site_fract_z
Si Si1 0.024451 0.862528 0.958784
Si Si2 0.135110 0.973809 0.159761
Si Si3 0.638020 0.131621 0.443672
Si Si4 0.972337 0.365213 0.750906
Si Si5 0.866648 0.024942 0.659522
O O1 0.999665 0.750000 0.965506
O O2 0.056605 0.876321 0.899705
O O3 0.103548 0.896453 0.000000
O O4 0.930508 0.930508 0.966628
O O5 0.250000 0.985974 0.170350
O O6 0.086268 0.897308 0.198196
O O7 0.074591 0.074591 0.166364
O O8 0.601173 0.101173 0.500000
O O9 0.750000 0.097936 0.435962
O O10 0.641529 0.250000 0.445924
O O11 0.571221 0.106738 0.395614
O O12 0.987559 0.250000 0.748697
O O13 0.907855 0.403416 0.703225
O O14 0.072342 0.427659 0.750080
O O15 0.750000 0.015955 0.663193
O O16 0.922875 0.922875 0.665845
#
# Coordination Sequence:
#
# PCOD9565346 Si02
#       5
#    16  16  16  16  16
#     4   9  18  32  49  70  97 127 160 199 239 280
#     4   9  18  32  50  73  99 127 159 194 234 279
#     4   8  14  26  45  68  92 118 152 196 241 281
#     4  10  21  36  53  73  96 122 154 192 234 281
#     4  10  20  32  47  69  96 127 162 197 235 279
#
# _framework density 16.311592999999998
#
# number of rings (size 3 to 8) (size 9 to 14) (size 15 to 20)
#    0.000    2.800    0.000    1.800    0.000    4.600 
#    0.000    4.000    0.000    3.600    0.000    5.600 
#    0.000    4.800    0.000    0.000    0.000    0.000 
#
# Total GULP energy -445739.677056 kJ/mol
# GULP energy per Si atom -5571.745963 kJ/mol
# Density = 1.627447 g / cm^3
# Si number density = 16.311593 Si / 1000 Ang^3
#
#
#
# Elastic Constant Matrix: (Units=GPa)
#
#
# Indices 1 2 3 4 5 6 
#
# 1 102.3257 50.2238 59.1327 0.0000 0.0000 0.0000
# 2 50.2238 102.3285 59.1335 0.0000 0.0000 0.0000
# 3 59.1327 59.1335 101.5832 0.0000 0.0000 0.0000
# 4 0.0000 0.0000 0.0000 23.7435 0.0000 0.0000
# 5 0.0000 0.0000 0.0000 0.0000 23.7434 0.0000
# 6 0.0000 0.0000 0.0000 0.0000 0.0000 6.0302
#
#
#
# Elastic Compliance Matrix: (Units=1/GPa)
#
#
# Indices 1 2 3 4 5 6 
#
# 1 0.015570 -0.003623 -0.006954 0.000000 0.000000 0.000000
# 2 -0.003623 0.015569 -0.006954 0.000000 0.000000 0.000000
# 3 -0.006954 -0.006954 0.017940 0.000000 0.000000 0.000000
# 4 0.000000 0.000000 0.000000 0.042117 0.000000 0.000000
# 5 0.000000 0.000000 0.000000 0.000000 0.042117 0.000000
# 6 0.000000 0.000000 0.000000 0.000000 0.000000 0.165832
#
#
# Mechanical properties :
#
#
# Convention : Reuss Voigt Hill
#
# Bulk Modulus (GPa) = 71.34428 71.46859 71.40643
# Shear Modulus (GPa) = 14.75445 19.88659 17.32052
#
# Velocity S-wave (km/s) = 3.01082 3.49545 3.26214
# Velocity P-wave (km/s) = 7.47797 7.75890 7.61973
#
# Compressibility (1/GPa) = 0.01401654
#
# Stress axis : x y z
#
# Youngs Moduli (GPa) = 64.22690 64.22871 55.73982
#
# Poissons Ratio (x) = 0.23270 0.38763
# Poissons Ratio (y) = 0.23270 0.38763
# Poissons Ratio (z) = 0.44665 0.44666
#
# Static dielectric constant tensor:
#      x y z
#    x 1.523360 0.000000 0.000000 
#    y 0.000000 1.523360 0.000000 
#    z 0.000000 0.000000 1.573140 
# 
# From -- ./inp_files/7684.got.cif
#   From: 2010.05.17/outbox.cif.g08.bks.cpg/sg129_4_cif.got.tgz:7684.got - 2010.05.20 12:12:06.
