data_PCOD9565974
_publ_section_title
;
Structure prediction by ZEFSAII (Michael W. Deem and Ramdas Pophale) SiO2 
 PCOD9565974
Probable space group: P 4/N C C
;
_chemical_formula_sum "Si O2"
_cell_formula_units_Z 64
_cell_length_a 10.807844
_cell_length_b 10.807844
_cell_length_c 25.157995
_cell_angle_alpha 90.000000
_cell_angle_beta 90.000000
_cell_angle_gamma 90.000000
_cell_volume 2938.692614
_symmetry_space_group_name_H-M "P 4/N C C"
_symmetry_group_IT_number 130
_symmetry_cell_setting 'tetragonal'
loop_
_space_group_symop_operation_xyz
x,y,z
1/2-y,x,z
1/2-x,1/2-y,z
y,1/2-x,z
1/2+x,-y,1/2-z
-x,1/2+y,1/2-z
1/2+y,1/2+x,1/2-z
-y,-x,1/2-z
-x,-y,-z
1/2+y,-x,-z
1/2+x,1/2+y,-z
-y,1/2+x,-z
1/2-x,y,1/2+z
x,1/2-y,1/2+z
1/2-y,1/2-x,1/2+z
y,x,1/2+z
loop_
_atom_site_type_symbol
_atom_site_label
_atom_site_fract_x
_atom_site_fract_y
_atom_site_fract_z
Si Si1 0.409679 0.909679 0.250000
Si Si2 0.909671 0.130391 0.915096
Si Si3 0.750000 0.250000 0.825739
Si Si4 0.763185 0.959221 0.991627
Si Si5 0.888956 0.903879 0.156968
O O1 0.305109 0.866699 0.207212
O O2 0.532616 0.914464 0.213848
O O3 0.850464 0.192455 0.863975
O O4 0.022988 0.047889 0.890710
O O5 0.804260 0.051341 0.944915
O O6 0.959908 0.233155 0.956220
O O7 0.639343 0.875513 0.990526
O O8 0.742294 0.912727 0.152222
#
# Coordination Sequence:
#
# PCOD9565974 Si02
#       5
#     8  16   8  16  16
#     4  11  26  46  68 105 146 184 256 309 362 450
#     4  12  24  45  75 104 152 195 249 310 397 454
#     4  11  26  45  72 106 142 195 242 311 372 458
#     4  11  26  45  71 110 148 193 253 315 378 477
#     4  11  25  45  73 104 142 199 250 308 377 450
#
# _framework density 21.778392
#
# number of rings (size 3 to 8) (size 9 to 14) (size 15 to 20)
#    0.000    0.750    2.500    3.750    7.000    2.000 
#    0.000    0.000    0.000    0.000    0.000    0.000 
#    0.000    0.000    0.000    0.000    0.000    0.000 
#
# Total GULP energy -356441.485181 kJ/mol
# GULP energy per Si atom -5569.398206 kJ/mol
# Density = 2.172882 g / cm^3
# Si number density = 21.778392 Si / 1000 Ang^3
#
#
#
# Elastic Constant Matrix: (Units=GPa)
#
#
# Indices 1 2 3 4 5 6 
#
# 1 81.0530 29.2266 43.8213 0.0000 0.0000 0.0000
# 2 29.2266 81.0530 43.8213 0.0000 0.0000 0.0000
# 3 43.8213 43.8213 109.7853 0.0000 0.0000 0.0000
# 4 0.0000 0.0000 0.0000 61.5357 0.0000 0.0000
# 5 0.0000 0.0000 0.0000 0.0000 61.5357 0.0000
# 6 0.0000 0.0000 0.0000 0.0000 0.0000 13.5201
#
#
#
# Elastic Compliance Matrix: (Units=1/GPa)
#
#
# Indices 1 2 3 4 5 6 
#
# 1 0.016288 -0.003007 -0.005301 0.000000 0.000000 0.000000
# 2 -0.003007 0.016288 -0.005301 0.000000 0.000000 0.000000
# 3 -0.005301 -0.005301 0.013341 0.000000 0.000000 0.000000
# 4 0.000000 0.000000 0.000000 0.016251 0.000000 0.000000
# 5 0.000000 0.000000 0.000000 0.000000 0.016251 0.000000
# 6 0.000000 0.000000 0.000000 0.000000 0.000000 0.073964
#
#
# Mechanical properties :
#
#
# Convention : Reuss Voigt Hill
#
# Bulk Modulus (GPa) = 53.48215 56.18108 54.83162
# Shear Modulus (GPa) = 26.90583 37.65311 32.27947
#
# Velocity S-wave (km/s) = 3.51869 4.16254 3.85408
# Velocity P-wave (km/s) = 6.41241 6.99679 6.71096
#
# Compressibility (1/GPa) = 0.01869783
#
# Stress axis : x y z
#
# Youngs Moduli (GPa) = 61.39497 61.39497 74.95920
#
# Poissons Ratio (x) = 0.18463 0.39736
# Poissons Ratio (y) = 0.18463 0.39736
# Poissons Ratio (z) = 0.32546 0.32546
#
# Static dielectric constant tensor:
#      x y z
#    x 1.946070 0.000000 0.000000 
#    y 0.000000 1.946070 0.000000 
#    z 0.000000 0.000000 1.835900 
# 
# From -- ./inp_files/4115.got.cif
#   From: 2010.05.17/outbox.cif.g08.bks.cpg/sg130_3_cif.got.tgz:4115.got - 2010.05.20 12:17:35.
