data_PCOD9565060
_publ_section_title
;
Structure prediction by ZEFSAII (Michael W. Deem and Ramdas Pophale) SiO2 
 PCOD9565060
Probable space group: P 4/M N C
;
_chemical_formula_sum "Si O2"
_cell_formula_units_Z 56
_cell_length_a 11.230459
_cell_length_b 11.230459
_cell_length_c 19.479527
_cell_angle_alpha 90.000000
_cell_angle_beta 90.000000
_cell_angle_gamma 90.000000
_cell_volume 2456.820462
_symmetry_space_group_name_H-M "P 4/M N C"
_symmetry_group_IT_number 128
_symmetry_cell_setting 'tetragonal'
loop_
_space_group_symop_operation_xyz
x,y,z
-y,x,z
-x,-y,z
y,-x,z
1/2+x,1/2-y,1/2-z
1/2-x,1/2+y,1/2-z
1/2+y,1/2+x,1/2-z
1/2-y,1/2-x,1/2-z
-x,-y,-z
y,-x,-z
x,y,-z
-y,x,-z
1/2-x,1/2+y,1/2+z
1/2+x,1/2-y,1/2+z
1/2-y,1/2-x,1/2+z
1/2+y,1/2+x,1/2+z
loop_
_atom_site_type_symbol
_atom_site_label
_atom_site_fract_x
_atom_site_fract_y
_atom_site_fract_z
Si Si1 0.299803 0.518768 0.000000
Si Si2 0.184223 0.940662 0.104479
Si Si3 0.440824 0.872156 0.885648
Si Si4 0.547568 0.311936 0.770040
O O1 0.376176 0.396128 0.000000
O O2 0.214088 0.517041 0.065729
O O3 0.311378 0.894619 0.081135
O O4 0.195789 0.946402 0.187778
O O5 0.074360 0.855265 0.084946
O O6 0.428109 0.804496 0.813525
O O7 0.500000 0.000000 0.876627
O O8 0.639879 0.416311 0.788846
#
# Coordination Sequence:
#
# PCOD9565060 Si02
#       4
#     8  16  16  16
#     4  11  27  50  72  89 116 162 216 273 331 378
#     4   9  21  40  61  92 133 174 206 244 311 386
#     4  12  25  39  64  98 126 160 212 270 319 368
#     4   9  19  38  63  92 130 173 213 253 306 368
#
# _framework density 22.793688
#
# number of rings (size 3 to 8) (size 9 to 14) (size 15 to 20)
#    0.000    1.857    0.000    4.714    8.000    4.571 
#    0.000    0.000    0.000    1.714    0.000    0.000 
#    0.000    0.000    0.000    0.000    0.000    0.000 
#
# Total GULP energy -313381.758475 kJ/mol
# GULP energy per Si atom -5596.102830 kJ/mol
# Density = 2.274181 g / cm^3
# Si number density = 22.793688 Si / 1000 Ang^3
#
#
#
# Elastic Constant Matrix: (Units=GPa)
#
#
# Indices 1 2 3 4 5 6 
#
# 1 88.5661 52.5209 19.0313 0.0000 0.0000 0.0000
# 2 52.5209 88.5661 19.0313 0.0000 0.0000 0.0000
# 3 19.0313 19.0313 94.8080 0.0000 0.0000 0.0000
# 4 0.0000 0.0000 0.0000 -4.4447 0.0000 0.0000
# 5 0.0000 0.0000 0.0000 0.0000 -4.4447 0.0000
# 6 0.0000 0.0000 0.0000 0.0000 0.0000 1.8027
#
#
#
# Elastic Compliance Matrix: (Units=1/GPa)
#
#
# Indices 1 2 3 4 5 6 
#
# 1 0.017618 -0.010125 -0.001504 0.000000 0.000000 0.000000
# 2 -0.010125 0.017618 -0.001504 0.000000 0.000000 0.000000
# 3 -0.001504 -0.001504 0.011152 0.000000 0.000000 0.000000
# 4 0.000000 0.000000 0.000000 -0.224989 0.000000 0.000000
# 5 0.000000 0.000000 0.000000 0.000000 -0.224989 0.000000
# 6 0.000000 0.000000 0.000000 0.000000 0.000000 0.554718
#
#
# Mechanical properties :
#
#
# Convention : Reuss Voigt Hill
#
# Bulk Modulus (GPa) = 49.69720 50.34528 50.02124
# Shear Modulus (GPa) = 27.15890 10.67313 18.91601
#
# Velocity S-wave (km/s) = 3.45557 2.16625 2.88389
# Velocity P-wave (km/s) = 6.14587 5.32843 5.75169
#
# Compressibility (1/GPa) = 0.02012186
#
# Stress axis : x y z
#
# Youngs Moduli (GPa) = 56.75919 56.75919 89.67373
#
# Poissons Ratio (x) = 0.57467 0.13489
# Poissons Ratio (y) = 0.57467 0.13489
# Poissons Ratio (z) = 0.08538 0.08538
#
# Static dielectric constant tensor:
#      x y z
#    x 1.821500 0.000000 0.000000 
#    y 0.000000 1.821500 0.000000 
#    z 0.000000 0.000000 1.814620 
# 
# From -- ./inp_files/5310.got.cif
#   From: 2010.05.17/outbox.cif.g08.bks.cpg/sg128_3_cif.got.tgz:5310.got - 2010.05.20 12:07:25.
