data_PCOD9565768
_publ_section_title
;
Structure prediction by ZEFSAII (Michael W. Deem and Ramdas Pophale) SiO2 
 PCOD9565768
Probable space group: P 4/N C C
;
_chemical_formula_sum "Si O2"
_cell_formula_units_Z 96
_cell_length_a 15.001711
_cell_length_b 15.001711
_cell_length_c 23.223780
_cell_angle_alpha 90.000000
_cell_angle_beta 90.000000
_cell_angle_gamma 90.000000
_cell_volume 5226.542645
_symmetry_space_group_name_H-M "P 4/N C C"
_symmetry_group_IT_number 130
_symmetry_cell_setting 'tetragonal'
loop_
_space_group_symop_operation_xyz
x,y,z
1/2-y,x,z
1/2-x,1/2-y,z
y,1/2-x,z
1/2+x,-y,1/2-z
-x,1/2+y,1/2-z
1/2+y,1/2+x,1/2-z
-y,-x,1/2-z
-x,-y,-z
1/2+y,-x,-z
1/2+x,1/2+y,-z
-y,1/2+x,-z
1/2-x,y,1/2+z
x,1/2-y,1/2+z
1/2-y,1/2-x,1/2+z
y,x,1/2+z
loop_
_atom_site_type_symbol
_atom_site_label
_atom_site_fract_x
_atom_site_fract_y
_atom_site_fract_z
Si Si1 0.004219 0.223158 0.660000
Si Si2 0.176798 0.962220 0.775367
Si Si3 0.098838 0.061970 0.603670
Si Si4 0.069435 0.059992 0.869451
Si Si5 0.850885 0.860566 0.014586
Si Si6 0.353261 0.601025 0.314287
O O1 0.070293 0.140620 0.648069
O O2 0.028471 0.302127 0.616859
O O3 0.006381 0.268362 0.722976
O O4 0.905305 0.180400 0.653576
O O5 0.095207 0.904794 0.750000
O O6 0.139193 0.033435 0.820088
O O7 0.247380 0.895694 0.806065
O O8 0.093342 0.102185 0.539868
O O9 0.030424 0.981791 0.612858
O O10 0.114474 0.102057 0.925111
O O11 0.992308 0.123005 0.843802
O O12 0.744674 0.871079 0.010903
O O13 0.395353 0.604647 0.250000
#
# Coordination Sequence:
#
# PCOD9565768 Si02
#       6
#    16  16  16  16  16  16
#     4  10  22  36  62  89 118 156 202 246 296 353
#     4  11  21  37  61  90 125 161 198 240 304 373
#     4  11  21  41  62  87 117 158 206 250 294 358
#     4  11  22  38  61  90 121 162 195 246 309 363
#     4  11  23  40  62  85 118 156 204 255 300 352
#     4   9  21  37  57  88 124 155 194 248 292 361
#
# _framework density 18.367781999999998
#
# number of rings (size 3 to 8) (size 9 to 14) (size 15 to 20)
#    0.000    1.500    3.333    2.000    4.667    3.333 
#    0.000    0.000    0.000    0.000    0.000    0.000 
#    0.000    0.000    0.000    0.000    0.000    0.000 
#
# Total GULP energy -535855.174021 kJ/mol
# GULP energy per Si atom -5581.824729 kJ/mol
# Density = 1.832598 g / cm^3
# Si number density = 18.367782 Si / 1000 Ang^3
#
#
#
# Elastic Constant Matrix: (Units=GPa)
#
#
# Indices 1 2 3 4 5 6 
#
# 1 8.9395 24.5378 27.1680 0.0000 0.0000 0.0000
# 2 24.5378 8.9490 27.1704 0.0000 0.0000 0.0000
# 3 27.1680 27.1704 96.0712 0.0000 0.0000 0.0000
# 4 0.0000 0.0000 0.0000 31.2229 0.0000 0.0000
# 5 0.0000 0.0000 0.0000 0.0000 31.2232 0.0000
# 6 0.0000 0.0000 0.0000 0.0000 0.0000 10.8429
#
#
#
# Elastic Compliance Matrix: (Units=1/GPa)
#
#
# Indices 1 2 3 4 5 6 
#
# 1 -0.004477 0.059666 -0.015608 0.000000 0.000000 0.000000
# 2 0.059666 -0.004449 -0.015615 0.000000 0.000000 0.000000
# 3 -0.015608 -0.015615 0.019239 0.000000 0.000000 0.000000
# 4 0.000000 0.000000 0.000000 0.032028 0.000000 0.000000
# 5 0.000000 0.000000 0.000000 0.000000 0.032027 0.000000
# 6 0.000000 0.000000 0.000000 0.000000 0.000000 0.092227
#
#
# Mechanical properties :
#
#
# Convention : Reuss Voigt Hill
#
# Bulk Modulus (GPa) = 14.88126 30.19022 22.53574
# Shear Modulus (GPa) = 37.84773 16.99668 27.42220
#
# Velocity S-wave (km/s) = 4.54425 3.04526 3.86806
# Velocity P-wave (km/s) = 5.97102 5.37001 5.67847
#
# Compressibility (1/GPa) = 0.06719862
#
# Stress axis : x y z
#
# Youngs Moduli (GPa) = -223.34064 -224.78484 51.97794
#
# Poissons Ratio (x) = 13.41202 0.81129
# Poissons Ratio (y) = 13.32585 0.81162
# Poissons Ratio (z) = -3.48597 -3.50997
#
# Static dielectric constant tensor:
#      x y z
#    x 1.628660 0.000000 0.000000 
#    y 0.000000 1.628660 0.000000 
#    z 0.000000 0.000000 1.626260 
# 
# From -- ./inp_files/3781.got.cif
#   From: 2010.05.17/outbox.cif.g08.bks.cpg/sg130_2_cif.got.tgz:3781.got - 2010.05.20 12:17:35.
