data_PCOD9565456
_publ_section_title
;
Structure prediction by ZEFSAII (Michael W. Deem and Ramdas Pophale) SiO2 
 PCOD9565456
Probable space group: P 4/N M M
;
_chemical_formula_sum "Si O2"
_cell_formula_units_Z 72
_cell_length_a 13.788902
_cell_length_b 13.788902
_cell_length_c 24.009513
_cell_angle_alpha 90.000000
_cell_angle_beta 90.000000
_cell_angle_gamma 90.000000
_cell_volume 4565.020384
_symmetry_space_group_name_H-M "P 4/N M M"
_symmetry_group_IT_number 129
_symmetry_cell_setting 'tetragonal'
loop_
_space_group_symop_operation_xyz
x,y,z
1/2-y,x,z
1/2-x,1/2-y,z
y,1/2-x,z
1/2+x,-y,-z
-x,1/2+y,-z
1/2+y,1/2+x,-z
-y,-x,-z
-x,-y,-z
1/2+y,-x,-z
1/2+x,1/2+y,-z
-y,1/2+x,-z
1/2-x,y,z
x,1/2-y,z
1/2-y,1/2-x,z
y,x,z
loop_
_atom_site_type_symbol
_atom_site_label
_atom_site_fract_x
_atom_site_fract_y
_atom_site_fract_z
Si Si1 0.635561 0.136472 0.784722
Si Si2 0.135983 0.364018 0.934314
Si Si3 0.636926 0.024249 0.546020
Si Si4 0.863956 0.636045 0.933405
Si Si5 0.862466 0.475597 0.672950
Si Si6 0.499689 0.499689 0.859845
O O1 0.750000 0.121891 0.798018
O O2 0.613367 0.250000 0.792130
O O3 0.622101 0.104149 0.720487
O O4 0.567855 0.068595 0.822065
O O5 0.117523 0.250000 0.922878
O O6 0.067665 0.432336 0.898378
O O7 0.120758 0.379243 0.000468
O O8 0.598359 0.098359 0.500000
O O9 0.750000 0.004593 0.538354
O O10 0.622288 0.060262 0.609635
O O11 0.572676 0.927325 0.540527
O O12 0.882394 0.750000 0.921852
O O13 0.932237 0.567764 0.897510
O O14 0.750000 0.507649 0.676803
O O15 0.935252 0.564749 0.682600
#
# Coordination Sequence:
#
# PCOD9565456 Si02
#       6
#    16   8  16   8  16   8
#     4  10  21  34  48  71 102 133 164 201 245 291
#     4   9  19  35  53  75 101 128 164 206 245 286
#     4   9  18  31  49  73  99 126 165 208 248 293
#     4   9  19  35  53  75 103 130 158 200 251 296
#     4   9  17  32  50  71  98 129 161 200 250 301
#     4  12  19  32  54  76  97 132 170 202 236 290
#
# _framework density 15.772109
#
# number of rings (size 3 to 8) (size 9 to 14) (size 15 to 20)
#    0.000    2.444    1.111    2.333    0.000    1.556 
#    0.000    4.444    0.000    0.000    0.000    9.333 
#    0.000    0.000    0.000    0.000    0.000    0.000 
#
# Total GULP energy -401301.149049 kJ/mol
# GULP energy per Si atom -5573.627070 kJ/mol
# Density = 1.573621 g / cm^3
# Si number density = 15.772109 Si / 1000 Ang^3
#
#
#
# Elastic Constant Matrix: (Units=GPa)
#
#
# Indices 1 2 3 4 5 6 
#
# 1 102.1581 72.9604 79.0602 0.0000 0.0000 0.0000
# 2 72.9604 102.1581 79.0602 0.0000 0.0000 0.0000
# 3 79.0602 79.0602 106.3680 0.0000 0.0000 0.0000
# 4 0.0000 0.0000 0.0000 28.4828 0.0000 0.0000
# 5 0.0000 0.0000 0.0000 0.0000 28.4828 0.0000
# 6 0.0000 0.0000 0.0000 0.0000 0.0000 25.0403
#
#
#
# Elastic Compliance Matrix: (Units=1/GPa)
#
#
# Indices 1 2 3 4 5 6 
#
# 1 0.025806 -0.008443 -0.012906 0.000000 0.000000 0.000000
# 2 -0.008443 0.025806 -0.012906 0.000000 0.000000 0.000000
# 3 -0.012906 -0.012906 0.028586 0.000000 0.000000 0.000000
# 4 0.000000 0.000000 0.000000 0.035109 0.000000 0.000000
# 5 0.000000 0.000000 0.000000 0.000000 0.035109 0.000000
# 6 0.000000 0.000000 0.000000 0.000000 0.000000 0.039936
#
#
# Mechanical properties :
#
#
# Convention : Reuss Voigt Hill
#
# Bulk Modulus (GPa) = 85.54192 85.87174 85.70683
# Shear Modulus (GPa) = 19.02893 21.70809 20.36851
#
# Velocity S-wave (km/s) = 3.47723 3.71396 3.59754
# Velocity P-wave (km/s) = 8.39496 8.54136 8.46848
#
# Compressibility (1/GPa) = 0.01169017
#
# Stress axis : x y z
#
# Youngs Moduli (GPa) = 38.75012 38.75012 34.98193
#
# Poissons Ratio (x) = 0.32717 0.45147
# Poissons Ratio (y) = 0.32717 0.45147
# Poissons Ratio (z) = 0.50010 0.50010
#
# Static dielectric constant tensor:
#      x y z
#    x 1.501260 0.000000 0.000000 
#    y 0.000000 1.501260 0.000000 
#    z 0.000000 0.000000 1.526580 
# 
# From -- ./inp_files/5541.got.cif
#   From: 2010.05.17/outbox.cif.g08.bks.cpg/sg129_3_cif.got.tgz:5541.got - 2010.05.20 12:12:06.
