data_PCOD9565068
_publ_section_title
;
Structure prediction by ZEFSAII (Michael W. Deem and Ramdas Pophale) SiO2 
 PCOD9565068
Probable space group: P 4/M N C
;
_chemical_formula_sum "Si O2"
_cell_formula_units_Z 64
_cell_length_a 11.458785
_cell_length_b 11.458785
_cell_length_c 24.270448
_cell_angle_alpha 90.000000
_cell_angle_beta 90.000000
_cell_angle_gamma 90.000000
_cell_volume 3186.800926
_symmetry_space_group_name_H-M "P 4/M N C"
_symmetry_group_IT_number 128
_symmetry_cell_setting 'tetragonal'
loop_
_space_group_symop_operation_xyz
x,y,z
-y,x,z
-x,-y,z
y,-x,z
1/2+x,1/2-y,1/2-z
1/2-x,1/2+y,1/2-z
1/2+y,1/2+x,1/2-z
1/2-y,1/2-x,1/2-z
-x,-y,-z
y,-x,-z
x,y,-z
-y,x,-z
1/2-x,1/2+y,1/2+z
1/2+x,1/2-y,1/2+z
1/2-y,1/2-x,1/2+z
1/2+y,1/2+x,1/2+z
loop_
_atom_site_type_symbol
_atom_site_label
_atom_site_fract_x
_atom_site_fract_y
_atom_site_fract_z
Si Si1 0.183332 0.052518 0.862640
Si Si2 0.948651 0.183427 0.729811
Si Si3 0.307804 0.482068 0.065370
Si Si4 0.881326 0.436304 0.856707
O O1 0.194126 0.053470 0.795815
O O2 0.310226 0.089623 0.882860
O O3 0.077678 0.139892 0.877720
O O4 0.920710 0.297953 0.695912
O O5 0.078562 0.139087 0.715034
O O6 0.398013 0.378094 0.078147
O O7 0.191456 0.485022 0.100637
O O8 0.286060 0.479085 0.000000
O O9 0.000000 0.500000 0.840738
#
# Coordination Sequence:
#
# PCOD9565068 Si02
#       4
#    16  16  16  16
#     4   9  21  39  54  73 113 161 194 223 268 329
#     4   9  19  37  57  77 108 152 196 239 279 315
#     4   9  20  41  66  87 109 140 180 233 294 343
#     4  12  24  32  55  90 115 142 185 235 282 337
#
# _framework density 20.082834999999999
#
# number of rings (size 3 to 8) (size 9 to 14) (size 15 to 20)
#    0.000    2.250    0.000    4.500    7.000    4.500 
#    0.000    0.000    0.000    0.000    0.000    1.750 
#    0.000    0.000    0.000    0.000    0.000    0.000 
#
# Total GULP energy -357562.522118 kJ/mol
# GULP energy per Si atom -5586.914408 kJ/mol
# Density = 2.003713 g / cm^3
# Si number density = 20.082835 Si / 1000 Ang^3
#
#
#
# Elastic Constant Matrix: (Units=GPa)
#
#
# Indices 1 2 3 4 5 6 
#
# 1 73.9522 19.4249 -10.1311 0.0000 0.0000 0.0000
# 2 19.4249 73.9522 -10.1311 0.0000 0.0000 0.0000
# 3 -10.1311 -10.1311 19.7749 0.0000 0.0000 0.0000
# 4 0.0000 0.0000 0.0000 14.2977 0.0000 0.0000
# 5 0.0000 0.0000 0.0000 0.0000 14.2977 0.0000
# 6 0.0000 0.0000 0.0000 0.0000 0.0000 7.5240
#
#
#
# Elastic Compliance Matrix: (Units=1/GPa)
#
#
# Indices 1 2 3 4 5 6 
#
# 1 0.015194 -0.003145 0.006173 0.000000 0.000000 0.000000
# 2 -0.003145 0.015194 0.006173 0.000000 0.000000 0.000000
# 3 0.006173 0.006173 0.056894 0.000000 0.000000 0.000000
# 4 0.000000 0.000000 0.000000 0.069941 0.000000 0.000000
# 5 0.000000 0.000000 0.000000 0.000000 0.069941 0.000000
# 6 0.000000 0.000000 0.000000 0.000000 0.000000 0.132908
#
#
# Mechanical properties :
#
#
# Convention : Reuss Voigt Hill
#
# Bulk Modulus (GPa) = 9.46228 18.44497 13.95363
# Shear Modulus (GPa) = 13.26613 18.45832 15.86223
#
# Velocity S-wave (km/s) = 2.57295 3.03497 2.81346
# Velocity P-wave (km/s) = 3.68084 4.63528 4.18535
#
# Compressibility (1/GPa) = 0.10568278
#
# Stress axis : x y z
#
# Youngs Moduli (GPa) = 65.81511 65.81511 17.57652
#
# Poissons Ratio (x) = 0.20701 -0.10850
# Poissons Ratio (y) = 0.20701 -0.10850
# Poissons Ratio (z) = -0.40626 -0.40626
#
# Static dielectric constant tensor:
#      x y z
#    x 1.710170 0.000000 0.000000 
#    y 0.000000 1.710170 0.000000 
#    z 0.000000 0.000000 1.710230 
# 
# From -- ./inp_files/6213.got.cif
#   From: 2010.05.17/outbox.cif.g08.bks.cpg/sg128_4_cif.got.tgz:6213.got - 2010.05.20 12:07:25.
