data_PCOD9565540
_publ_section_title
;
Structure prediction by ZEFSAII (Michael W. Deem and Ramdas Pophale) SiO2 
 PCOD9565540
Probable space group: P 4/N C C
;
_chemical_formula_sum "Si O2"
_cell_formula_units_Z 128
_cell_length_a 24.793849
_cell_length_b 24.793849
_cell_length_c 11.640748
_cell_angle_alpha 90.000000
_cell_angle_beta 90.000000
_cell_angle_gamma 90.000000
_cell_volume 7155.974619
_symmetry_space_group_name_H-M "P 4/N C C"
_symmetry_group_IT_number 130
_symmetry_cell_setting 'tetragonal'
loop_
_space_group_symop_operation_xyz
x,y,z
1/2-y,x,z
1/2-x,1/2-y,z
y,1/2-x,z
1/2+x,-y,1/2-z
-x,1/2+y,1/2-z
1/2+y,1/2+x,1/2-z
-y,-x,1/2-z
-x,-y,-z
1/2+y,-x,-z
1/2+x,1/2+y,-z
-y,1/2+x,-z
1/2-x,y,1/2+z
x,1/2-y,1/2+z
1/2-y,1/2-x,1/2+z
y,x,1/2+z
loop_
_atom_site_type_symbol
_atom_site_label
_atom_site_fract_x
_atom_site_fract_y
_atom_site_fract_z
Si Si1 0.829867 0.793377 0.195688
Si Si2 0.443967 0.968689 0.377509
Si Si3 0.664383 0.498025 0.004371
Si Si4 0.493705 0.080144 0.425442
Si Si5 0.493798 0.763449 0.656063
Si Si6 0.418771 0.268557 0.638913
Si Si7 0.558870 0.145501 0.237145
Si Si8 0.328787 0.080618 0.983482
O O1 0.771265 0.820207 0.184780
O O2 0.864761 0.796425 0.312721
O O3 0.869613 0.818663 0.101497
O O4 0.444741 0.944741 0.250000
O O5 0.388947 0.996257 0.419433
O O6 0.463498 0.924808 0.470913
O O7 0.484603 0.019205 0.383867
O O8 0.710046 0.477237 0.090939
O O9 0.690883 0.553188 0.952784
O O10 0.651257 0.462190 0.892363
O O11 0.516009 0.111555 0.314295
O O12 0.440652 0.109857 0.478564
O O13 0.537449 0.759216 0.759493
O O14 0.443720 0.795830 0.706509
O O15 0.526942 0.798661 0.563905
O O16 0.406315 0.208496 0.592694
O O17 0.614397 0.114397 0.250000
#
# Coordination Sequence:
#
# PCOD9565540 Si02
#       8
#    16  16  16  16  16  16  16  16
#     4  10  22  38  54  78 108 139 197 267 312 346
#     4  11  24  36  53  84 121 151 191 240 297 341
#     4  10  20  36  56  83 115 154 191 234 285 353
#     4  10  22  37  53  82 115 157 200 236 283 364
#     4   8  18  33  53  83 111 141 188 234 272 344
#     4   9  19  36  58  79 106 149 197 241 297 351
#     4  10  17  35  60  78 114 155 190 232 285 341
#     4   9  19  36  54  75 104 150 190 234 297 346
#
# _framework density 17.887150999999999
#
# number of rings (size 3 to 8) (size 9 to 14) (size 15 to 20)
#    0.000    2.375    1.250    1.125    3.500    5.000 
#    0.000    1.250    0.000    0.000    0.000    0.000 
#    0.000    4.000    0.000    0.000    0.000    0.000 
#
# Total GULP energy -712554.308127 kJ/mol
# GULP energy per Si atom -5566.830532 kJ/mol
# Density = 1.784644 g / cm^3
# Si number density = 17.887151 Si / 1000 Ang^3
#
#
#
# Elastic Constant Matrix: (Units=GPa)
#
#
# Indices 1 2 3 4 5 6 
#
# 1 58.1313 19.8067 12.9204 0.0000 0.0000 0.0000
# 2 19.8067 58.1313 12.9204 0.0000 0.0000 0.0000
# 3 12.9204 12.9204 53.7569 0.0000 0.0000 0.0000
# 4 0.0000 0.0000 0.0000 22.8419 0.0000 0.0000
# 5 0.0000 0.0000 0.0000 0.0000 22.8419 0.0000
# 6 0.0000 0.0000 0.0000 0.0000 0.0000 24.3987
#
#
#
# Elastic Compliance Matrix: (Units=1/GPa)
#
#
# Indices 1 2 3 4 5 6 
#
# 1 0.020017 -0.006076 -0.003351 0.000000 0.000000 0.000000
# 2 -0.006076 0.020017 -0.003351 0.000000 0.000000 0.000000
# 3 -0.003351 -0.003351 0.020213 0.000000 0.000000 0.000000
# 4 0.000000 0.000000 0.000000 0.043779 0.000000 0.000000
# 5 0.000000 0.000000 0.000000 0.000000 0.043779 0.000000
# 6 0.000000 0.000000 0.000000 0.000000 0.000000 0.040986
#
#
# Mechanical properties :
#
#
# Convention : Reuss Voigt Hill
#
# Bulk Modulus (GPa) = 28.82430 29.03495 28.92962
# Shear Modulus (GPa) = 22.13263 22.30797 22.22030
#
# Velocity S-wave (km/s) = 3.52141 3.53533 3.52838
# Velocity P-wave (km/s) = 5.71693 5.73867 5.72781
#
# Compressibility (1/GPa) = 0.03469295
#
# Stress axis : x y z
#
# Youngs Moduli (GPa) = 49.95678 49.95678 49.47302
#
# Poissons Ratio (x) = 0.30352 0.16578
# Poissons Ratio (y) = 0.30352 0.16578
# Poissons Ratio (z) = 0.16740 0.16740
#
# Static dielectric constant tensor:
#      x y z
#    x 1.642070 0.000000 0.000000 
#    y 0.000000 1.642070 0.000000 
#    z 0.000000 0.000000 1.653580 
# 
# From -- ./inp_files/1895.got.cif
#   From: 2010.05.17/outbox.cif.g08.bks.cpg/sg130_1_cif.got.tgz:1895.got - 2010.05.20 12:17:35.
