data_PCOD9565105
_publ_section_title
;
Structure prediction by ZEFSAII (Michael W. Deem and Ramdas Pophale) SiO2 
 PCOD9565105
Probable space group: P 4/N M M
;
_chemical_formula_sum "Si O2"
_cell_formula_units_Z 96
_cell_length_a 24.307246
_cell_length_b 24.307246
_cell_length_c 6.923759
_cell_angle_alpha 90.000000
_cell_angle_beta 90.000000
_cell_angle_gamma 90.000000
_cell_volume 4090.849056
_symmetry_space_group_name_H-M "P 4/N M M"
_symmetry_group_IT_number 129
_symmetry_cell_setting 'tetragonal'
loop_
_space_group_symop_operation_xyz
x,y,z
1/2-y,x,z
1/2-x,1/2-y,z
y,1/2-x,z
1/2+x,-y,-z
-x,1/2+y,-z
1/2+y,1/2+x,-z
-y,-x,-z
-x,-y,-z
1/2+y,-x,-z
1/2+x,1/2+y,-z
-y,1/2+x,-z
1/2-x,y,z
x,1/2-y,z
1/2-y,1/2-x,z
y,x,z
loop_
_atom_site_type_symbol
_atom_site_label
_atom_site_fract_x
_atom_site_fract_y
_atom_site_fract_z
Si Si1 0.396635 0.309421 0.759568
Si Si2 0.489523 0.573973 0.215807
Si Si3 0.185496 0.402635 0.224481
Si Si4 0.191642 0.980682 0.808085
Si Si5 0.310692 0.601625 0.454143
Si Si6 0.991189 0.387755 0.332165
O O1 0.371499 0.250000 0.711639
O O2 0.360053 0.360053 0.693404
O O3 0.460202 0.309132 0.698732
O O4 0.401402 0.312578 0.991547
O O5 0.546522 0.546522 0.156384
O O6 0.477718 0.630914 0.105113
O O7 0.441672 0.528441 0.214980
O O8 0.494429 0.590852 0.444045
O O9 0.250000 0.407154 0.287836
O O10 0.153625 0.346376 0.281349
O O11 0.146082 0.453913 0.280853
O O12 0.250000 0.980335 0.920597
O O13 0.193619 0.931886 0.654774
O O14 0.343302 0.656699 0.500000
O O15 0.250000 0.610759 0.375578
O O16 0.346890 0.561063 0.324590
#
# Coordination Sequence:
#
# PCOD9565105 Si02
#       6
#    16  16  16  16  16  16
#     4   9  18  32  49  70  96 129 168 208 249 291
#     4  10  17  27  47  69  95 127 157 197 243 290
#     4  10  20  33  50  71  98 131 166 205 247 294
#     4   9  17  30  47  67  95 127 162 201 240 289
#     4  10  18  31  50  73  98 125 158 195 240 293
#     4  10  17  31  45  72  97 123 158 197 239 290
#
# _framework density 23.467012
#
# number of rings (size 3 to 8) (size 9 to 14) (size 15 to 20)
#    0.000    2.333    3.333    3.000    0.000    1.167 
#    0.000    2.500    0.000    3.000    0.000    0.000 
#    0.000   13.333    0.000    8.500    0.000    0.000 
#
# Total GULP energy -536169.230833 kJ/mol
# GULP energy per Si atom -5585.096155 kJ/mol
# Density = 2.341360 g / cm^3
# Si number density = 23.467012 Si / 1000 Ang^3
#
#
#
# Elastic Constant Matrix: (Units=GPa)
#
#
# Indices 1 2 3 4 5 6 
#
# 1 159.2677 81.5240 14.5198 0.0000 0.0000 0.0000
# 2 81.5240 159.2616 14.5195 0.0000 0.0000 0.0000
# 3 14.5198 14.5195 72.4640 0.0000 0.0000 0.0000
# 4 0.0000 0.0000 0.0000 12.5544 0.0000 0.0000
# 5 0.0000 0.0000 0.0000 0.0000 12.5555 0.0000
# 6 0.0000 0.0000 0.0000 0.0000 0.0000 20.4113
#
#
#
# Elastic Compliance Matrix: (Units=1/GPa)
#
#
# Indices 1 2 3 4 5 6 
#
# 1 0.008559 -0.004304 -0.000853 0.000000 0.000000 0.000000
# 2 -0.004304 0.008560 -0.000853 0.000000 0.000000 0.000000
# 3 -0.000853 -0.000853 0.014142 0.000000 0.000000 0.000000
# 4 0.000000 0.000000 0.000000 0.079654 0.000000 0.000000
# 5 0.000000 0.000000 0.000000 0.000000 0.079647 0.000000
# 6 0.000000 0.000000 0.000000 0.000000 0.000000 0.048992
#
#
# Mechanical properties :
#
#
# Convention : Reuss Voigt Hill
#
# Bulk Modulus (GPa) = 51.96853 68.01331 59.99092
# Shear Modulus (GPa) = 19.38089 27.79956 23.59023
#
# Velocity S-wave (km/s) = 2.87693 3.44557 3.17401
# Velocity P-wave (km/s) = 5.76446 6.69886 6.24915
#
# Compressibility (1/GPa) = 0.01924242
#
# Stress axis : x y z
#
# Youngs Moduli (GPa) = 116.83052 116.82601 70.71293
#
# Poissons Ratio (x) = 0.50279 0.06030
# Poissons Ratio (y) = 0.50280 0.06030
# Poissons Ratio (z) = 0.09963 0.09962
#
# Static dielectric constant tensor:
#      x y z
#    x 1.891760 0.000000 0.000000 
#    y 0.000000 1.891760 0.000000 
#    z 0.000000 0.000000 1.982170 
# 
# From -- ./inp_files/2674.got.cif
#   From: 2010.05.17/outbox.cif.g08.bks.cpg/sg129_2_cif.got.tgz:2674.got - 2010.05.20 12:12:06.
