data_PCOD9565595
_publ_section_title
;
Structure prediction by ZEFSAII (Michael W. Deem and Ramdas Pophale) SiO2 
 PCOD9565595
Probable space group: P 4/N C C
;
_chemical_formula_sum "Si O2"
_cell_formula_units_Z 88
_cell_length_a 16.968567
_cell_length_b 16.968567
_cell_length_c 14.383629
_cell_angle_alpha 90.000000
_cell_angle_beta 90.000000
_cell_angle_gamma 90.000000
_cell_volume 4141.510892
_symmetry_space_group_name_H-M "P 4/N C C"
_symmetry_group_IT_number 130
_symmetry_cell_setting 'tetragonal'
loop_
_space_group_symop_operation_xyz
x,y,z
1/2-y,x,z
1/2-x,1/2-y,z
y,1/2-x,z
1/2+x,-y,1/2-z
-x,1/2+y,1/2-z
1/2+y,1/2+x,1/2-z
-y,-x,1/2-z
-x,-y,-z
1/2+y,-x,-z
1/2+x,1/2+y,-z
-y,1/2+x,-z
1/2-x,y,1/2+z
x,1/2-y,1/2+z
1/2-y,1/2-x,1/2+z
y,x,1/2+z
loop_
_atom_site_type_symbol
_atom_site_label
_atom_site_fract_x
_atom_site_fract_y
_atom_site_fract_z
Si Si1 0.071914 0.055160 0.575667
Si Si2 0.052937 0.806636 0.404747
Si Si3 0.560916 0.060916 0.750000
Si Si4 0.336589 0.944959 0.952870
Si Si5 0.196875 0.131664 0.685205
Si Si6 0.273572 0.508115 0.791012
O O1 0.160827 0.084693 0.599530
O O2 0.017706 0.132634 0.565275
O O3 0.050535 0.004533 0.668797
O O4 0.089106 0.996300 0.490541
O O5 0.066571 0.729459 0.467755
O O6 0.128747 0.863363 0.413345
O O7 0.033081 0.773338 0.302428
O O8 0.558461 0.146758 0.798868
O O9 0.288238 0.988280 0.872661
O O10 0.287796 0.150837 0.683597
O O11 0.188994 0.078265 0.775769
#
# Coordination Sequence:
#
# PCOD9565595 Si02
#       6
#    16  16   8  16  16  16
#     4  11  22  44  71  99 137 180 237 292 352 418
#     4  12  26  47  65 103 139 185 231 296 356 416
#     4  10  22  44  73  96 132 187 230 292 346 416
#     4  12  26  43  69 101 136 182 239 286 353 431
#     4  10  19  37  66  96 133 174 216 282 352 408
#     4  11  24  43  67  98 137 180 233 281 352 417
#
# _framework density 21.248284000000002
#
# number of rings (size 3 to 8) (size 9 to 14) (size 15 to 20)
#    0.000    0.909    5.455    2.182    2.545    1.818 
#    0.000    0.909    0.000    2.182    0.000    0.000 
#    0.000    0.000    0.000    0.000    0.000    0.000 
#
# Total GULP energy -490875.437802 kJ/mol
# GULP energy per Si atom -5578.129975 kJ/mol
# Density = 2.119992 g / cm^3
# Si number density = 21.248284 Si / 1000 Ang^3
#
#
#
# Elastic Constant Matrix: (Units=GPa)
#
#
# Indices 1 2 3 4 5 6 
#
# 1 81.0009 15.4239 -6.2535 0.0000 0.0000 0.0000
# 2 15.4239 81.0009 -6.2535 0.0000 0.0000 0.0000
# 3 -6.2535 -6.2535 49.1923 0.0000 0.0000 0.0000
# 4 0.0000 0.0000 0.0000 17.1841 0.0000 0.0000
# 5 0.0000 0.0000 0.0000 0.0000 17.1841 0.0000
# 6 0.0000 0.0000 0.0000 0.0000 0.0000 11.0183
#
#
#
# Elastic Compliance Matrix: (Units=1/GPa)
#
#
# Indices 1 2 3 4 5 6 
#
# 1 0.012897 -0.002352 0.001340 0.000000 0.000000 0.000000
# 2 -0.002352 0.012897 0.001340 0.000000 0.000000 0.000000
# 3 0.001340 0.001340 0.020669 0.000000 0.000000 0.000000
# 4 0.000000 0.000000 0.000000 0.058193 0.000000 0.000000
# 5 0.000000 0.000000 0.000000 0.000000 0.058193 0.000000
# 6 0.000000 0.000000 0.000000 0.000000 0.000000 0.090758
#
#
# Mechanical properties :
#
#
# Convention : Reuss Voigt Hill
#
# Bulk Modulus (GPa) = 21.22225 24.11421 22.66823
# Shear Modulus (GPa) = 18.61102 22.96242 20.78672
#
# Velocity S-wave (km/s) = 2.96274 3.29092 3.13114
# Velocity P-wave (km/s) = 4.65975 5.08071 4.87478
#
# Compressibility (1/GPa) = 0.04712036
#
# Stress axis : x y z
#
# Youngs Moduli (GPa) = 77.53772 77.53772 48.38122
#
# Poissons Ratio (x) = 0.18239 -0.06485
# Poissons Ratio (y) = 0.18239 -0.06485
# Poissons Ratio (z) = -0.10394 -0.10394
#
# Static dielectric constant tensor:
#      x y z
#    x 1.821310 0.000000 0.000000 
#    y 0.000000 1.821310 0.000000 
#    z 0.000000 0.000000 1.853210 
# 
# From -- ./inp_files/2395.got.cif
#   From: 2010.05.17/outbox.cif.g08.bks.cpg/sg130_2_cif.got.tgz:2395.got - 2010.05.20 12:17:35.
