data_PCOD9565203
_publ_section_title
;
Structure prediction by ZEFSAII (Michael W. Deem and Ramdas Pophale) SiO2 
 PCOD9565203
Probable space group: P 4/N M M
;
_chemical_formula_sum "Si O2"
_cell_formula_units_Z 104
_cell_length_a 14.136116
_cell_length_b 14.136116
_cell_length_c 34.071885
_cell_angle_alpha 90.000000
_cell_angle_beta 90.000000
_cell_angle_gamma 90.000000
_cell_volume 6808.577133
_symmetry_space_group_name_H-M "P 4/N M M"
_symmetry_group_IT_number 129
_symmetry_cell_setting 'tetragonal'
loop_
_space_group_symop_operation_xyz
x,y,z
1/2-y,x,z
1/2-x,1/2-y,z
y,1/2-x,z
1/2+x,-y,-z
-x,1/2+y,-z
1/2+y,1/2+x,-z
-y,-x,-z
-x,-y,-z
1/2+y,-x,-z
1/2+x,1/2+y,-z
-y,1/2+x,-z
1/2-x,y,z
x,1/2-y,z
1/2-y,1/2-x,z
y,x,z
loop_
_atom_site_type_symbol
_atom_site_label
_atom_site_fract_x
_atom_site_fract_y
_atom_site_fract_z
Si Si1 0.360689 0.515752 0.227527
Si Si2 0.016574 0.863031 0.076956
Si Si3 0.519737 0.363666 0.619826
Si Si4 0.364631 0.641497 0.543510
Si Si5 0.361438 0.638563 0.000000
Si Si6 0.019967 0.637511 0.682130
Si Si7 0.862935 0.140022 0.152263
O O1 0.250000 0.494025 0.223648
O O2 0.423164 0.423164 0.222374
O O3 0.374808 0.549953 0.272284
O O4 0.386368 0.588885 0.193339
O O5 0.003370 0.750000 0.078064
O O6 0.077319 0.885436 0.038098
O O7 0.075165 0.891396 0.115763
O O8 0.919416 0.919416 0.075857
O O9 0.508641 0.250000 0.622183
O O10 0.421752 0.421752 0.622483
O O11 0.571970 0.388899 0.578839
O O12 0.588731 0.403848 0.653730
O O13 0.392747 0.607254 0.500000
O O14 0.250000 0.645931 0.542270
O O15 0.397976 0.750000 0.550155
O O16 0.250000 0.625232 0.008803
O O17 0.009249 0.750000 0.674611
O O18 0.922143 0.577858 0.677164
O O19 0.750000 0.133573 0.156336
O O20 0.885842 0.250000 0.143723
#
# Coordination Sequence:
#
# PCOD9565203 Si02
#       7
#    16  16  16  16   8  16  16
#     4   9  17  29  45  66  92 118 143 173 210 257
#     4  10  19  30  45  64  87 115 144 175 212 254
#     4  10  20  32  46  65  89 119 155 192 228 265
#     4   8  14  26  45  68  91 113 140 178 223 268
#     4   9  17  30  48  68  87 107 136 176 218 257
#     4   9  18  31  47  69  94 119 148 181 221 270
#     4   9  17  29  45  65  87 112 145 183 219 250
#
# _framework density 15.274850000000001
#
# number of rings (size 3 to 8) (size 9 to 14) (size 15 to 20)
#    0.000    2.846    0.000    2.077    0.000    4.308 
#    0.000    3.077    0.000    0.000    0.000    0.000 
#    0.000   18.462    0.000    0.000    0.000    0.000 
#
# Total GULP energy -579066.475747 kJ/mol
# GULP energy per Si atom -5567.946882 kJ/mol
# Density = 1.524008 g / cm^3
# Si number density = 15.274850 Si / 1000 Ang^3
#
#
#
# Elastic Constant Matrix: (Units=GPa)
#
#
# Indices 1 2 3 4 5 6 
#
# 1 65.9248 43.0282 58.0662 0.0000 0.0000 0.0000
# 2 43.0282 65.9251 58.0661 0.0000 0.0000 0.0000
# 3 58.0662 58.0661 120.6020 0.0000 0.0000 0.0000
# 4 0.0000 0.0000 0.0000 20.7484 0.0000 0.0000
# 5 0.0000 0.0000 0.0000 0.0000 20.7482 0.0000
# 6 0.0000 0.0000 0.0000 0.0000 0.0000 19.9185
#
#
#
# Elastic Compliance Matrix: (Units=1/GPa)
#
#
# Indices 1 2 3 4 5 6 
#
# 1 0.031264 -0.012410 -0.009078 0.000000 0.000000 0.000000
# 2 -0.012410 0.031264 -0.009078 0.000000 0.000000 0.000000
# 3 -0.009078 -0.009078 0.017033 0.000000 0.000000 0.000000
# 4 0.000000 0.000000 0.000000 0.048197 0.000000 0.000000
# 5 0.000000 0.000000 0.000000 0.000000 0.048197 0.000000
# 6 0.000000 0.000000 0.000000 0.000000 0.000000 0.050205
#
#
# Mechanical properties :
#
#
# Convention : Reuss Voigt Hill
#
# Bulk Modulus (GPa) = 54.25800 63.41923 58.83861
# Shear Modulus (GPa) = 17.03963 18.50244 17.77103
#
# Velocity S-wave (km/s) = 3.34359 3.48415 3.41459
# Velocity P-wave (km/s) = 7.10664 7.60228 7.35863
#
# Compressibility (1/GPa) = 0.01843046
#
# Stress axis : x y z
#
# Youngs Moduli (GPa) = 31.98535 31.98566 58.70974
#
# Poissons Ratio (x) = 0.39695 0.53295
# Poissons Ratio (y) = 0.39694 0.53294
# Poissons Ratio (z) = 0.29035 0.29035
#
# Static dielectric constant tensor:
#      x y z
#    x 1.488140 0.000000 0.000000 
#    y 0.000000 1.488140 0.000000 
#    z 0.000000 0.000000 1.521790 
# 
# From -- ./inp_files/7895.got.cif
#   From: 2010.05.17/outbox.cif.g08.bks.cpg/sg129_4_cif.got.tgz:7895.got - 2010.05.20 12:12:06.
