data_PCOD9565793
_publ_section_title
;
Structure prediction by ZEFSAII (Michael W. Deem and Ramdas Pophale) SiO2 
 PCOD9565793
Probable space group: P 4/N C C
;
_chemical_formula_sum "Si O2"
_cell_formula_units_Z 56
_cell_length_a 10.666165
_cell_length_b 10.666165
_cell_length_c 17.925621
_cell_angle_alpha 90.000000
_cell_angle_beta 90.000000
_cell_angle_gamma 90.000000
_cell_volume 2039.345483
_symmetry_space_group_name_H-M "P 4/N C C"
_symmetry_group_IT_number 130
_symmetry_cell_setting 'tetragonal'
loop_
_space_group_symop_operation_xyz
x,y,z
1/2-y,x,z
1/2-x,1/2-y,z
y,1/2-x,z
1/2+x,-y,1/2-z
-x,1/2+y,1/2-z
1/2+y,1/2+x,1/2-z
-y,-x,1/2-z
-x,-y,-z
1/2+y,-x,-z
1/2+x,1/2+y,-z
-y,1/2+x,-z
1/2-x,y,1/2+z
x,1/2-y,1/2+z
1/2-y,1/2-x,1/2+z
y,x,1/2+z
loop_
_atom_site_type_symbol
_atom_site_label
_atom_site_fract_x
_atom_site_fract_y
_atom_site_fract_z
Si Si1 0.891708 0.402772 0.095365
Si Si2 0.750000 0.750000 0.757434
Si Si3 0.750000 0.750000 0.960458
Si Si4 0.546353 0.248675 0.771839
Si Si5 0.474431 0.860269 0.428571
O O1 0.771676 0.457408 0.137872
O O2 0.912892 0.256619 0.113907
O O3 0.011074 0.490655 0.112843
O O4 0.884906 0.403317 0.005778
O O5 0.594987 0.743868 0.756737
O O6 0.609448 0.690679 0.954692
O O7 0.629662 0.129662 0.750000
O O8 0.626013 0.373988 0.750000
#
# Coordination Sequence:
#
# PCOD9565793 Si02
#       5
#    16   4   4  16  16
#     4  10  22  40  66 103 145 194 255 318 401 475
#     4  12  28  53  77 104 142 196 257 321 388 466
#     4   8  16  37  61  96 138 184 245 301 392 474
#     4  11  28  51  77 109 150 199 258 323 390 476
#     4   9  20  38  66 101 142 192 247 323 393 479
#
# _framework density 27.459793000000001
#
# number of rings (size 3 to 8) (size 9 to 14) (size 15 to 20)
#    0.000    2.000    0.000    0.857    0.000   20.000 
#    0.000    5.714    0.000    0.000    0.000    2.000 
#    0.000    0.000    0.000    0.000    0.000    0.000 
#
# Total GULP energy -312017.517116 kJ/mol
# GULP energy per Si atom -5571.741377 kJ/mol
# Density = 2.739729 g / cm^3
# Si number density = 27.459793 Si / 1000 Ang^3
#
#
#
# Elastic Constant Matrix: (Units=GPa)
#
#
# Indices 1 2 3 4 5 6 
#
# 1 244.2816 66.5398 34.4030 0.0000 0.0000 0.0000
# 2 66.5398 244.2814 34.4031 0.0000 0.0000 0.0000
# 3 34.4030 34.4031 95.5399 0.0000 0.0000 0.0000
# 4 0.0000 0.0000 0.0000 2.4848 0.0000 0.0000
# 5 0.0000 0.0000 0.0000 0.0000 2.4848 0.0000
# 6 0.0000 0.0000 0.0000 0.0000 0.0000 71.0990
#
#
#
# Elastic Compliance Matrix: (Units=1/GPa)
#
#
# Indices 1 2 3 4 5 6 
#
# 1 0.004561 -0.001065 -0.001259 0.000000 0.000000 0.000000
# 2 -0.001065 0.004561 -0.001259 0.000000 0.000000 0.000000
# 3 -0.001259 -0.001259 0.011373 0.000000 0.000000 0.000000
# 4 0.000000 0.000000 0.000000 0.402439 0.000000 0.000000
# 5 0.000000 0.000000 0.000000 0.000000 0.402454 0.000000
# 6 0.000000 0.000000 0.000000 0.000000 0.000000 0.014065
#
#
# Mechanical properties :
#
#
# Convention : Reuss Voigt Hill
#
# Bulk Modulus (GPa) = 75.01927 94.97719 84.99823
# Shear Modulus (GPa) = 5.87501 45.13085 25.50293
#
# Velocity S-wave (km/s) = 1.46429 4.05844 3.05083
# Velocity P-wave (km/s) = 5.49889 7.52490 6.59022
#
# Compressibility (1/GPa) = 0.01332991
#
# Stress axis : x y z
#
# Youngs Moduli (GPa) = 219.24792 219.24765 87.92410
#
# Poissons Ratio (x) = 0.23352 0.11068
# Poissons Ratio (y) = 0.23352 0.11068
# Poissons Ratio (z) = 0.27600 0.27600
#
# Static dielectric constant tensor:
#      x y z
#    x 2.171630 0.000000 0.000000 
#    y 0.000000 2.171640 0.000000 
#    z 0.000000 0.000000 2.438180 
# 
# From -- ./inp_files/3476.got.cif
#   From: 2010.05.17/outbox.cif.g08.bks.cpg/sg130_2_cif.got.tgz:3476.got - 2010.05.20 12:17:35.
