data_PCOD9565252
_publ_section_title
;
Structure prediction by ZEFSAII (Michael W. Deem and Ramdas Pophale) SiO2 
 PCOD9565252
Probable space group: P 4/N M M
;
_chemical_formula_sum "Si O2"
_cell_formula_units_Z 128
_cell_length_a 18.180493
_cell_length_b 18.180493
_cell_length_c 23.026895
_cell_angle_alpha 90.000000
_cell_angle_beta 90.000000
_cell_angle_gamma 90.000000
_cell_volume 7611.087105
_symmetry_space_group_name_H-M "P 4/N M M"
_symmetry_group_IT_number 129
_symmetry_cell_setting 'tetragonal'
loop_
_space_group_symop_operation_xyz
x,y,z
1/2-y,x,z
1/2-x,1/2-y,z
y,1/2-x,z
1/2+x,-y,-z
-x,1/2+y,-z
1/2+y,1/2+x,-z
-y,-x,-z
-x,-y,-z
1/2+y,-x,-z
1/2+x,1/2+y,-z
-y,1/2+x,-z
1/2-x,y,z
x,1/2-y,z
1/2-y,1/2-x,z
y,x,z
loop_
_atom_site_type_symbol
_atom_site_label
_atom_site_fract_x
_atom_site_fract_y
_atom_site_fract_z
Si Si1 0.834257 0.548197 0.794037
Si Si2 0.830625 0.550198 0.571019
Si Si3 0.555107 0.164208 0.533809
Si Si4 0.335238 0.045952 0.775148
Si Si5 0.954896 0.170129 0.317062
Si Si6 0.481840 0.895332 0.338314
Si Si7 0.064066 0.944655 0.857605
Si Si8 0.335967 0.834846 0.930105
O O1 0.750000 0.547231 0.814364
O O2 0.873880 0.626121 0.801076
O O3 0.834351 0.523399 0.726727
O O4 0.885389 0.487922 0.825335
O O5 0.750000 0.584904 0.574720
O O6 0.893716 0.606285 0.585399
O O7 0.840822 0.515919 0.507702
O O8 0.832190 0.484612 0.617490
O O9 0.616613 0.116613 0.500000
O O10 0.576949 0.250000 0.537459
O O11 0.533205 0.134976 0.597350
O O12 0.250000 0.046195 0.791227
O O13 0.376503 0.123498 0.784459
O O14 0.344786 0.025722 0.706973
O O15 0.382152 0.986982 0.812698
O O16 0.918948 0.250000 0.306711
O O17 0.907085 0.098081 0.309836
O O18 0.528154 0.971847 0.341511
O O19 0.112943 0.896973 0.901827
O O20 0.007899 0.007899 0.881262
O O21 0.250000 0.845191 0.913533
O O22 0.356387 0.750000 0.913905
O O23 0.339676 0.839676 0.000000
#
# Coordination Sequence:
#
# PCOD9565252 Si02
#       8
#    16  16  16  16  16  16  16  16
#     4  10  19  31  48  71 101 136 172 211 254 300
#     4  10  20  33  49  70  93 118 153 194 240 295
#     4  11  23  35  50  71  91 120 158 197 247 302
#     4  10  21  36  55  79 105 134 168 210 258 306
#     4  10  19  31  49  72  99 125 156 200 247 295
#     4  11  20  34  56  74  96 126 164 209 248 294
#     4  10  19  32  52  78 106 138 175 215 255 296
#     4   9  18  33  53  77 107 143 178 213 256 302
#
# _framework density 16.817571999999998
#
# number of rings (size 3 to 8) (size 9 to 14) (size 15 to 20)
#    0.000    1.875    2.500    3.000    0.000    1.250 
#    0.000    0.000    0.000    4.125    0.000    1.750 
#    0.000    0.000    0.000   23.250    0.000    0.000 
#
# Total GULP energy -713233.474288 kJ/mol
# GULP energy per Si atom -5572.136518 kJ/mol
# Density = 1.677929 g / cm^3
# Si number density = 16.817572 Si / 1000 Ang^3
#
#
#
# Elastic Constant Matrix: (Units=GPa)
#
#
# Indices 1 2 3 4 5 6 
#
# 1 88.1412 41.0933 24.6560 0.0000 0.0000 0.0000
# 2 41.0933 88.1412 24.6560 0.0000 0.0000 0.0000
# 3 24.6560 24.6560 48.2293 0.0000 0.0000 0.0000
# 4 0.0000 0.0000 0.0000 21.3508 0.0000 0.0000
# 5 0.0000 0.0000 0.0000 0.0000 21.3508 0.0000
# 6 0.0000 0.0000 0.0000 0.0000 0.0000 14.6467
#
#
#
# Elastic Compliance Matrix: (Units=1/GPa)
#
#
# Indices 1 2 3 4 5 6 
#
# 1 0.015434 -0.005821 -0.004914 0.000000 0.000000 0.000000
# 2 -0.005821 0.015434 -0.004914 0.000000 0.000000 0.000000
# 3 -0.004914 -0.004914 0.025759 0.000000 0.000000 0.000000
# 4 0.000000 0.000000 0.000000 0.046837 0.000000 0.000000
# 5 0.000000 0.000000 0.000000 0.000000 0.046837 0.000000
# 6 0.000000 0.000000 0.000000 0.000000 0.000000 0.068275
#
#
# Mechanical properties :
#
#
# Convention : Reuss Voigt Hill
#
# Bulk Modulus (GPa) = 39.48288 45.03582 42.25935
# Shear Modulus (GPa) = 19.35605 20.41009 19.88307
#
# Velocity S-wave (km/s) = 3.39623 3.48748 3.44216
# Velocity P-wave (km/s) = 6.23757 6.56154 6.40161
#
# Compressibility (1/GPa) = 0.02532743
#
# Stress axis : x y z
#
# Youngs Moduli (GPa) = 64.79193 64.79193 38.82128
#
# Poissons Ratio (x) = 0.37715 0.19079
# Poissons Ratio (y) = 0.37715 0.19079
# Poissons Ratio (z) = 0.31842 0.31842
#
# Static dielectric constant tensor:
#      x y z
#    x 1.577020 0.000000 0.000000 
#    y 0.000000 1.577020 0.000000 
#    z 0.000000 0.000000 1.560680 
# 
# From -- ./inp_files/7308.got.cif
#   From: 2010.05.17/outbox.cif.g08.bks.cpg/sg129_4_cif.got.tgz:7308.got - 2010.05.20 12:12:06.
