data_PCOD9565584
_publ_section_title
;
Structure prediction by ZEFSAII (Michael W. Deem and Ramdas Pophale) SiO2 
 PCOD9565584
Probable space group: P 4/N C C
;
_chemical_formula_sum "Si O2"
_cell_formula_units_Z 80
_cell_length_a 12.782931
_cell_length_b 12.782931
_cell_length_c 21.467568
_cell_angle_alpha 90.000000
_cell_angle_beta 90.000000
_cell_angle_gamma 90.000000
_cell_volume 3507.871990
_symmetry_space_group_name_H-M "P 4/N C C"
_symmetry_group_IT_number 130
_symmetry_cell_setting 'tetragonal'
loop_
_space_group_symop_operation_xyz
x,y,z
1/2-y,x,z
1/2-x,1/2-y,z
y,1/2-x,z
1/2+x,-y,1/2-z
-x,1/2+y,1/2-z
1/2+y,1/2+x,1/2-z
-y,-x,1/2-z
-x,-y,-z
1/2+y,-x,-z
1/2+x,1/2+y,-z
-y,1/2+x,-z
1/2-x,y,1/2+z
x,1/2-y,1/2+z
1/2-y,1/2-x,1/2+z
y,x,1/2+z
loop_
_atom_site_type_symbol
_atom_site_label
_atom_site_fract_x
_atom_site_fract_y
_atom_site_fract_z
Si Si1 0.409546 0.056556 0.038404
Si Si2 0.262188 0.516948 0.121245
Si Si3 0.922762 0.730355 0.245762
Si Si4 0.662746 0.605347 0.593549
Si Si5 0.855839 0.074412 0.684079
O O1 0.340000 0.976498 0.078617
O O2 0.454065 0.149888 0.081335
O O3 0.339975 0.096204 0.980797
O O4 0.500000 0.000000 0.000000
O O5 0.229455 0.450232 0.181488
O O6 0.316555 0.621214 0.149202
O O7 0.860825 0.839724 0.233675
O O8 0.032307 0.743625 0.208636
O O9 0.784667 0.611644 0.610507
O O10 0.612175 0.509989 0.631350
O O11 0.919093 0.080908 0.750000
#
# Coordination Sequence:
#
# PCOD9565584 Si02
#       5
#    16  16  16  16  16
#     4  12  23  39  65 100 134 177 229 292 362 430
#     4  11  22  38  63  94 139 180 229 290 361 428
#     4  10  19  34  63 102 141 176 232 299 354 418
#     4  11  22  37  64 101 135 167 221 296 357 414
#     4  10  22  38  57  92 137 185 219 268 349 434
#
# _framework density 22.80585
#
# number of rings (size 3 to 8) (size 9 to 14) (size 15 to 20)
#    0.000    1.200    6.000    1.200    0.000    2.000 
#    0.000    0.000    0.000    4.200    0.000    1.400 
#    0.000    0.000    0.000    0.000    0.000    0.000 
#
# Total GULP energy -446104.594009 kJ/mol
# GULP energy per Si atom -5576.307425 kJ/mol
# Density = 2.275394 g / cm^3
# Si number density = 22.805850 Si / 1000 Ang^3
#
#
#
# Elastic Constant Matrix: (Units=GPa)
#
#
# Indices 1 2 3 4 5 6 
#
# 1 51.0358 30.2620 23.3156 0.0000 0.0000 0.0000
# 2 30.2620 51.0361 23.3157 0.0000 0.0000 0.0000
# 3 23.3156 23.3157 136.0626 0.0000 0.0000 0.0000
# 4 0.0000 0.0000 0.0000 41.3619 0.0000 0.0000
# 5 0.0000 0.0000 0.0000 0.0000 41.3619 0.0000
# 6 0.0000 0.0000 0.0000 0.0000 0.0000 30.4671
#
#
#
# Elastic Compliance Matrix: (Units=1/GPa)
#
#
# Indices 1 2 3 4 5 6 
#
# 1 0.030889 -0.017248 -0.002338 0.000000 0.000000 0.000000
# 2 -0.017248 0.030889 -0.002338 0.000000 0.000000 0.000000
# 3 -0.002338 -0.002338 0.008151 0.000000 0.000000 0.000000
# 4 0.000000 0.000000 0.000000 0.024177 0.000000 0.000000
# 5 0.000000 0.000000 0.000000 0.000000 0.024177 0.000000
# 6 0.000000 0.000000 0.000000 0.000000 0.000000 0.032822
#
#
# Mechanical properties :
#
#
# Convention : Reuss Voigt Hill
#
# Bulk Modulus (GPa) = 38.33930 43.54680 40.94305
# Shear Modulus (GPa) = 24.55247 33.38760 28.97003
#
# Velocity S-wave (km/s) = 3.28470 3.83037 3.56798
# Velocity P-wave (km/s) = 5.58868 6.22080 5.91319
#
# Compressibility (1/GPa) = 0.02608289
#
# Stress axis : x y z
#
# Youngs Moduli (GPa) = 32.37370 32.37386 122.68903
#
# Poissons Ratio (x) = 0.55838 0.28679
# Poissons Ratio (y) = 0.55838 0.28679
# Poissons Ratio (z) = 0.07568 0.07568
#
# Static dielectric constant tensor:
#      x y z
#    x 1.887380 0.000000 0.000000 
#    y 0.000000 1.887380 0.000000 
#    z 0.000000 0.000000 1.932110 
# 
# From -- ./inp_files/3613.got.cif
#   From: 2010.05.17/outbox.cif.g08.bks.cpg/sg130_2_cif.got.tgz:3613.got - 2010.05.20 12:17:35.
