data_PCOD9565551
_publ_section_title
;
Structure prediction by ZEFSAII (Michael W. Deem and Ramdas Pophale) SiO2 
 PCOD9565551
Probable space group: P 4/N C C
;
_chemical_formula_sum "Si O2"
_cell_formula_units_Z 120
_cell_length_a 25.365622
_cell_length_b 25.365622
_cell_length_c 9.342557
_cell_angle_alpha 90.000000
_cell_angle_beta 90.000000
_cell_angle_gamma 90.000000
_cell_volume 6011.139252
_symmetry_space_group_name_H-M "P 4/N C C"
_symmetry_group_IT_number 130
_symmetry_cell_setting 'tetragonal'
loop_
_space_group_symop_operation_xyz
x,y,z
1/2-y,x,z
1/2-x,1/2-y,z
y,1/2-x,z
1/2+x,-y,1/2-z
-x,1/2+y,1/2-z
1/2+y,1/2+x,1/2-z
-y,-x,1/2-z
-x,-y,-z
1/2+y,-x,-z
1/2+x,1/2+y,-z
-y,1/2+x,-z
1/2-x,y,1/2+z
x,1/2-y,1/2+z
1/2-y,1/2-x,1/2+z
y,x,1/2+z
loop_
_atom_site_type_symbol
_atom_site_label
_atom_site_fract_x
_atom_site_fract_y
_atom_site_fract_z
Si Si1 0.105449 0.083808 0.873648
Si Si2 0.548498 0.793711 0.292765
Si Si3 0.939412 0.427435 0.493850
Si Si4 0.043208 0.051569 0.628104
Si Si5 0.878557 0.378557 0.750000
Si Si6 0.771212 0.073359 0.353712
Si Si7 0.694482 0.567518 0.626751
Si Si8 0.182133 0.556001 0.840383
O O1 0.154707 0.057249 0.800803
O O2 0.054790 0.057495 0.795121
O O3 0.104292 0.145352 0.842372
O O4 0.096746 0.074056 0.040434
O O5 0.485895 0.783857 0.299965
O O6 0.566370 0.797819 0.456349
O O7 0.578760 0.746971 0.213128
O O8 0.938199 0.482839 0.412016
O O9 0.896634 0.416007 0.617884
O O10 0.932248 0.377441 0.389182
O O11 0.996164 0.431802 0.575423
O O12 0.889932 0.317839 0.708489
O O13 0.780305 0.071118 0.524266
O O14 0.711642 0.081844 0.295793
O O15 0.680697 0.507433 0.672072
#
# Coordination Sequence:
#
# PCOD9565551 Si02
#       8
#    16  16  16  16   8  16  16  16
#     4  12  21  38  54  82 117 150 198 231 294 355
#     4  10  21  36  56  79 109 150 194 246 289 342
#     4  10  19  34  51  79 121 153 199 226 289 353
#     4  11  22  33  54  79 116 164 185 235 281 366
#     4  10  18  34  54  78 110 165 190 238 288 351
#     4   9  18  33  57  74 111 147 199 240 289 341
#     4  10  21  36  55  79 105 149 197 240 287 346
#     4   9  17  36  51  76 108 151 191 247 281 344
#
# _framework density 19.962937
#
# number of rings (size 3 to 8) (size 9 to 14) (size 15 to 20)
#    0.000    1.867    2.667    3.200    1.867    1.600 
#    4.800    0.000    0.000    0.400    0.000    1.867 
#    0.000   25.600    0.533    0.000    0.000    0.000 
#
# Total GULP energy -669974.007106 kJ/mol
# GULP energy per Si atom -5583.116726 kJ/mol
# Density = 1.991750 g / cm^3
# Si number density = 19.962937 Si / 1000 Ang^3
#
#
#
# Elastic Constant Matrix: (Units=GPa)
#
#
# Indices 1 2 3 4 5 6 
#
# 1 53.1486 -2.2856 6.0377 0.0000 0.0000 0.0000
# 2 -2.2856 53.1486 6.0377 0.0000 0.0000 0.0000
# 3 6.0377 6.0377 35.3947 0.0000 0.0000 0.0000
# 4 0.0000 0.0000 0.0000 24.2815 0.0000 0.0000
# 5 0.0000 0.0000 0.0000 0.0000 24.2815 0.0000
# 6 0.0000 0.0000 0.0000 0.0000 0.0000 15.1996
#
#
#
# Elastic Compliance Matrix: (Units=1/GPa)
#
#
# Indices 1 2 3 4 5 6 
#
# 1 0.019265 0.001226 -0.003495 0.000000 0.000000 0.000000
# 2 0.001226 0.019265 -0.003495 0.000000 0.000000 0.000000
# 3 -0.003495 -0.003495 0.029445 0.000000 0.000000 0.000000
# 4 0.000000 0.000000 0.000000 0.041184 0.000000 0.000000
# 5 0.000000 0.000000 0.000000 0.000000 0.041184 0.000000
# 6 0.000000 0.000000 0.000000 0.000000 0.000000 0.065791
#
#
# Mechanical properties :
#
#
# Convention : Reuss Voigt Hill
#
# Bulk Modulus (GPa) = 17.71634 17.91905 17.81769
# Shear Modulus (GPa) = 20.28571 21.54598 20.91585
#
# Velocity S-wave (km/s) = 3.19120 3.28883 3.24038
# Velocity P-wave (km/s) = 4.74049 4.83917 4.79008
#
# Compressibility (1/GPa) = 0.05644505
#
# Stress axis : x y z
#
# Youngs Moduli (GPa) = 51.90777 51.90777 33.96133
#
# Poissons Ratio (x) = -0.06361 0.11870
# Poissons Ratio (y) = -0.06361 0.11870
# Poissons Ratio (z) = 0.18143 0.18143
#
# Static dielectric constant tensor:
#      x y z
#    x 1.715950 0.000000 0.000000 
#    y 0.000000 1.715950 0.000000 
#    z 0.000000 0.000000 1.724930 
# 
# From -- ./inp_files/1091.got.cif
#   From: 2010.05.17/outbox.cif.g08.bks.cpg/sg130_1_cif.got.tgz:1091.got - 2010.05.20 12:17:35.
