data_PCOD9565996
_publ_section_title
;
Structure prediction by ZEFSAII (Michael W. Deem and Ramdas Pophale) SiO2 
 PCOD9565996
Probable space group: P 4/N C C
;
_chemical_formula_sum "Si O2"
_cell_formula_units_Z 40
_cell_length_a 7.904743
_cell_length_b 7.904743
_cell_length_c 23.959103
_cell_angle_alpha 90.000000
_cell_angle_beta 90.000000
_cell_angle_gamma 90.000000
_cell_volume 1497.083638
_symmetry_space_group_name_H-M "P 4/N C C"
_symmetry_group_IT_number 130
_symmetry_cell_setting 'tetragonal'
loop_
_space_group_symop_operation_xyz
x,y,z
1/2-y,x,z
1/2-x,1/2-y,z
y,1/2-x,z
1/2+x,-y,1/2-z
-x,1/2+y,1/2-z
1/2+y,1/2+x,1/2-z
-y,-x,1/2-z
-x,-y,-z
1/2+y,-x,-z
1/2+x,1/2+y,-z
-y,1/2+x,-z
1/2-x,y,1/2+z
x,1/2-y,1/2+z
1/2-y,1/2-x,1/2+z
y,x,1/2+z
loop_
_atom_site_type_symbol
_atom_site_label
_atom_site_fract_x
_atom_site_fract_y
_atom_site_fract_z
Si Si1 0.575392 0.333192 0.662254
Si Si2 0.040994 0.440522 0.437835
Si Si3 0.967608 0.467608 0.750000
O O1 0.750000 0.250000 0.644275
O O2 0.606471 0.496399 0.701646
O O3 0.411529 0.016524 0.608150
O O4 0.513003 0.194320 0.708367
O O5 0.022033 0.238813 0.430752
O O6 0.000000 0.500000 0.500000
#
# Coordination Sequence:
#
# PCOD9565996 Si02
#       3
#    16  16   8
#     4  12  26  50  78 124 174 222 286 371 428 531
#     4  11  29  53  84 119 166 225 291 357 445 529
#     4  12  24  48  78 118 168 222 276 350 452 500
#
# _framework density 26.718612
#
# number of rings (size 3 to 8) (size 9 to 14) (size 15 to 20)
#    0.000    0.400    4.000    2.400   11.200    0.800 
#    0.000    0.000    0.000    0.000    0.000    0.000 
#    0.000    0.000    0.000    0.000    0.000    0.000 
#
# Total GULP energy -222844.629646 kJ/mol
# GULP energy per Si atom -5571.115741 kJ/mol
# Density = 2.665780 g / cm^3
# Si number density = 26.718612 Si / 1000 Ang^3
#
#
#
# Elastic Constant Matrix: (Units=GPa)
#
#
# Indices 1 2 3 4 5 6 
#
# 1 129.6219 43.9946 83.1150 0.0000 0.0000 0.0000
# 2 43.9946 129.6219 83.1150 0.0000 0.0000 0.0000
# 3 83.1150 83.1150 279.6768 0.0000 0.0000 0.0000
# 4 0.0000 0.0000 0.0000 57.6546 0.0000 0.0000
# 5 0.0000 0.0000 0.0000 0.0000 57.6546 0.0000
# 6 0.0000 0.0000 0.0000 0.0000 0.0000 40.8274
#
#
#
# Elastic Compliance Matrix: (Units=1/GPa)
#
#
# Indices 1 2 3 4 5 6 
#
# 1 0.009865 -0.001814 -0.002392 0.000000 0.000000 0.000000
# 2 -0.001814 0.009865 -0.002392 0.000000 0.000000 0.000000
# 3 -0.002392 -0.002392 0.004998 0.000000 0.000000 0.000000
# 4 0.000000 0.000000 0.000000 0.017345 0.000000 0.000000
# 5 0.000000 0.000000 0.000000 0.000000 0.017345 0.000000
# 6 0.000000 0.000000 0.000000 0.000000 0.000000 0.024493
#
#
# Mechanical properties :
#
#
# Convention : Reuss Voigt Hill
#
# Bulk Modulus (GPa) = 86.74014 106.59665 96.66839
# Shear Modulus (GPa) = 49.52945 53.14039 51.33492
#
# Velocity S-wave (km/s) = 4.31018 4.46454 4.38804
# Velocity P-wave (km/s) = 7.57001 8.15835 7.86968
#
# Compressibility (1/GPa) = 0.01152869
#
# Stress axis : x y z
#
# Youngs Moduli (GPa) = 101.37344 101.37344 200.09786
#
# Poissons Ratio (x) = 0.18389 0.47873
# Poissons Ratio (y) = 0.18389 0.47873
# Poissons Ratio (z) = 0.24253 0.24253
#
# Static dielectric constant tensor:
#      x y z
#    x 2.697930 0.000000 0.000000 
#    y 0.000000 2.697930 0.000000 
#    z 0.000000 0.000000 2.067720 
# 
# From -- ./inp_files/4032.got.cif
#   From: 2010.05.17/outbox.cif.g08.bks.cpg/sg130_3_cif.got.tgz:4032.got - 2010.05.20 12:17:35.
