data_PCOD9565760
_publ_section_title
;
Structure prediction by ZEFSAII (Michael W. Deem and Ramdas Pophale) SiO2 
 PCOD9565760
Probable space group: P 4/N C C
;
_chemical_formula_sum "Si O2"
_cell_formula_units_Z 40
_cell_length_a 12.902979
_cell_length_b 12.902979
_cell_length_c 8.534652
_cell_angle_alpha 90.000000
_cell_angle_beta 90.000000
_cell_angle_gamma 90.000000
_cell_volume 1420.907473
_symmetry_space_group_name_H-M "P 4/N C C"
_symmetry_group_IT_number 130
_symmetry_cell_setting 'tetragonal'
loop_
_space_group_symop_operation_xyz
x,y,z
1/2-y,x,z
1/2-x,1/2-y,z
y,1/2-x,z
1/2+x,-y,1/2-z
-x,1/2+y,1/2-z
1/2+y,1/2+x,1/2-z
-y,-x,1/2-z
-x,-y,-z
1/2+y,-x,-z
1/2+x,1/2+y,-z
-y,1/2+x,-z
1/2-x,y,1/2+z
x,1/2-y,1/2+z
1/2-y,1/2-x,1/2+z
y,x,1/2+z
loop_
_atom_site_type_symbol
_atom_site_label
_atom_site_fract_x
_atom_site_fract_y
_atom_site_fract_z
Si Si1 0.250000 0.750000 0.500000
Si Si2 0.366377 0.046824 0.219828
Si Si3 0.250000 0.250000 0.317775
Si Si4 0.829645 0.461596 0.452837
O O1 0.158920 0.813632 0.414684
O O2 0.328899 0.151765 0.305564
O O3 0.359236 0.966736 0.363682
O O4 0.471948 0.083220 0.136285
O O5 0.279272 0.016865 0.091634
#
# Coordination Sequence:
#
# PCOD9565760 Si02
#       4
#     4  16   4  16
#     4  12  32  54  76 118 172 222 264 334 412 494
#     4  10  21  43  77 116 152 206 267 336 404 487
#     4   8  16  34  68 106 140 178 252 326 380 438
#     4  11  25  47  79 114 160 207 270 335 412 490
#
# _framework density 28.151021
#
# number of rings (size 3 to 8) (size 9 to 14) (size 15 to 20)
#    0.000    1.600    0.000    4.800    0.000   12.800 
#    0.000   12.000    0.000    2.400    0.000    0.000 
#    0.000    0.000    0.000    0.000    0.000    0.000 
#
# Total GULP energy -223085.207373 kJ/mol
# GULP energy per Si atom -5577.130184 kJ/mol
# Density = 2.808695 g / cm^3
# Si number density = 28.151021 Si / 1000 Ang^3
#
#
#
# Elastic Constant Matrix: (Units=GPa)
#
#
# Indices 1 2 3 4 5 6 
#
# 1 195.7959 36.1825 91.1957 0.0000 0.0000 0.0000
# 2 36.1825 195.7959 91.1957 0.0000 0.0000 0.0000
# 3 91.1957 91.1957 214.0173 0.0000 0.0000 0.0000
# 4 0.0000 0.0000 0.0000 19.6662 0.0000 0.0000
# 5 0.0000 0.0000 0.0000 0.0000 19.6662 0.0000
# 6 0.0000 0.0000 0.0000 0.0000 0.0000 63.1691
#
#
#
# Elastic Compliance Matrix: (Units=1/GPa)
#
#
# Indices 1 2 3 4 5 6 
#
# 1 0.006374 0.000109 -0.002762 0.000000 0.000000 0.000000
# 2 0.000109 0.006374 -0.002762 0.000000 0.000000 0.000000
# 3 -0.002762 -0.002762 0.007027 0.000000 0.000000 0.000000
# 4 0.000000 0.000000 0.000000 0.050849 0.000000 0.000000
# 5 0.000000 0.000000 0.000000 0.000000 0.050849 0.000000
# 6 0.000000 0.000000 0.000000 0.000000 0.000000 0.015831
#
#
# Mechanical properties :
#
#
# Convention : Reuss Voigt Hill
#
# Bulk Modulus (GPa) = 111.82487 115.86189 113.84338
# Shear Modulus (GPa) = 33.08734 46.30262 39.69498
#
# Velocity S-wave (km/s) = 3.43206 4.06001 3.75917
# Velocity P-wave (km/s) = 7.45083 7.95140 7.70518
#
# Compressibility (1/GPa) = 0.00894255
#
# Stress axis : x y z
#
# Youngs Moduli (GPa) = 156.89048 156.89048 142.31527
#
# Poissons Ratio (x) = -0.01706 0.39312
# Poissons Ratio (y) = -0.01706 0.39312
# Poissons Ratio (z) = 0.43338 0.43338
#
# Static dielectric constant tensor:
#      x y z
#    x 2.278910 0.000000 0.000000 
#    y 0.000000 2.278910 0.000000 
#    z 0.000000 0.000000 2.164370 
# 
# From -- ./inp_files/376.got.cif
#   From: 2010.05.17/outbox.cif.g08.bks.cpg/sg130_1_cif.got.tgz:376.got - 2010.05.20 12:17:35.
