data_PCOD9565292
_publ_section_title
;
Structure prediction by ZEFSAII (Michael W. Deem and Ramdas Pophale) SiO2 
 PCOD9565292
Probable space group: P 4/N M M
;
_chemical_formula_sum "Si O2"
_cell_formula_units_Z 80
_cell_length_a 12.769438
_cell_length_b 12.769438
_cell_length_c 30.065301
_cell_angle_alpha 90.000000
_cell_angle_beta 90.000000
_cell_angle_gamma 90.000000
_cell_volume 4902.404291
_symmetry_space_group_name_H-M "P 4/N M M"
_symmetry_group_IT_number 129
_symmetry_cell_setting 'tetragonal'
loop_
_space_group_symop_operation_xyz
x,y,z
1/2-y,x,z
1/2-x,1/2-y,z
y,1/2-x,z
1/2+x,-y,-z
-x,1/2+y,-z
1/2+y,1/2+x,-z
-y,-x,-z
-x,-y,-z
1/2+y,-x,-z
1/2+x,1/2+y,-z
-y,1/2+x,-z
1/2-x,y,z
x,1/2-y,z
1/2-y,1/2-x,z
y,x,z
loop_
_atom_site_type_symbol
_atom_site_label
_atom_site_fract_x
_atom_site_fract_y
_atom_site_fract_z
Si Si1 0.544391 0.130232 0.370845
Si Si2 0.450463 0.625865 0.730927
Si Si3 0.124095 0.550578 0.048805
Si Si4 0.541210 0.135064 0.542726
Si Si5 0.250000 0.877174 0.789103
Si Si6 0.123283 0.750000 0.109189
O O1 0.511830 0.250000 0.375061
O O2 0.585621 0.115277 0.320626
O O3 0.621338 0.102173 0.410925
O O4 0.445131 0.054870 0.375531
O O5 0.474012 0.750000 0.738065
O O6 0.551705 0.551705 0.737013
O O7 0.355498 0.593090 0.762932
O O8 0.250000 0.531457 0.051548
O O9 0.094546 0.643745 0.083080
O O10 0.052875 0.447126 0.056190
O O11 0.095366 0.595366 0.000000
O O12 0.613143 0.113143 0.500000
O O13 0.495825 0.250000 0.539465
O O14 0.450515 0.049486 0.542147
O O15 0.250000 0.750000 0.789475
O O16 0.250000 0.914243 0.839991
O O17 0.250000 0.750000 0.109906
#
# Coordination Sequence:
#
# PCOD9565292 Si02
#       6
#    16  16  16  16   8   8
#     4   9  18  31  48  72  99 129 164 202 247 298
#     4   9  18  32  51  75 103 134 171 215 262 311
#     4  10  19  32  52  77 106 139 176 216 257 304
#     4  10  21  35  50  71  98 126 161 202 245 297
#     4   9  18  32  50  75 101 133 173 212 255 305
#     4   9  18  32  52  73 101 137 175 214 251 305
#
# _framework density 16.318525000000001
#
# number of rings (size 3 to 8) (size 9 to 14) (size 15 to 20)
#    0.000    2.600    1.000    0.600    1.400    3.000 
#    0.000    2.000    0.000    4.200    0.000    7.000 
#    0.000    0.000    0.000    0.000    0.000    0.000 
#
# Total GULP energy -445507.986144 kJ/mol
# GULP energy per Si atom -5568.849827 kJ/mol
# Density = 1.628138 g / cm^3
# Si number density = 16.318525 Si / 1000 Ang^3
#
#
#
# Elastic Constant Matrix: (Units=GPa)
#
#
# Indices 1 2 3 4 5 6 
#
# 1 88.8594 31.4851 54.3559 0.0000 0.0000 0.0000
# 2 31.4851 88.8594 54.3559 0.0000 0.0000 0.0000
# 3 54.3559 54.3559 125.1958 0.0000 0.0000 0.0000
# 4 0.0000 0.0000 0.0000 17.9496 0.0000 0.0000
# 5 0.0000 0.0000 0.0000 0.0000 17.9496 0.0000
# 6 0.0000 0.0000 0.0000 0.0000 0.0000 9.6144
#
#
#
# Elastic Compliance Matrix: (Units=1/GPa)
#
#
# Indices 1 2 3 4 5 6 
#
# 1 0.015550 -0.001879 -0.005936 0.000000 0.000000 0.000000
# 2 -0.001879 0.015550 -0.005936 0.000000 0.000000 0.000000
# 3 -0.005936 -0.005936 0.013142 0.000000 0.000000 0.000000
# 4 0.000000 0.000000 0.000000 0.055712 0.000000 0.000000
# 5 0.000000 0.000000 0.000000 0.000000 0.055712 0.000000
# 6 0.000000 0.000000 0.000000 0.000000 0.000000 0.104011
#
#
# Mechanical properties :
#
#
# Convention : Reuss Voigt Hill
#
# Bulk Modulus (GPa) = 59.73093 64.81205 62.27149
# Shear Modulus (GPa) = 17.07895 19.95053 18.51474
#
# Velocity S-wave (km/s) = 3.23863 3.50032 3.37201
# Velocity P-wave (km/s) = 7.11811 7.49262 7.30777
#
# Compressibility (1/GPa) = 0.01674174
#
# Stress axis : x y z
#
# Youngs Moduli (GPa) = 64.30696 64.30696 76.09400
#
# Poissons Ratio (x) = 0.12083 0.45167
# Poissons Ratio (y) = 0.12083 0.45167
# Poissons Ratio (z) = 0.38171 0.38171
#
# Static dielectric constant tensor:
#      x y z
#    x 1.523440 0.000000 0.000000 
#    y 0.000000 1.523440 0.000000 
#    z 0.000000 0.000000 1.577060 
# 
# From -- ./inp_files/7722.got.cif
#   From: 2010.05.17/outbox.cif.g08.bks.cpg/sg129_4_cif.got.tgz:7722.got - 2010.05.20 12:12:06.
