data_PCOD9565633
_publ_section_title
;
Structure prediction by ZEFSAII (Michael W. Deem and Ramdas Pophale) SiO2 
 PCOD9565633
Probable space group: P 4/N C C
;
_chemical_formula_sum "Si O2"
_cell_formula_units_Z 96
_cell_length_a 24.015040
_cell_length_b 24.015040
_cell_length_c 8.506773
_cell_angle_alpha 90.000000
_cell_angle_beta 90.000000
_cell_angle_gamma 90.000000
_cell_volume 4906.044382
_symmetry_space_group_name_H-M "P 4/N C C"
_symmetry_group_IT_number 130
_symmetry_cell_setting 'tetragonal'
loop_
_space_group_symop_operation_xyz
x,y,z
1/2-y,x,z
1/2-x,1/2-y,z
y,1/2-x,z
1/2+x,-y,1/2-z
-x,1/2+y,1/2-z
1/2+y,1/2+x,1/2-z
-y,-x,1/2-z
-x,-y,-z
1/2+y,-x,-z
1/2+x,1/2+y,-z
-y,1/2+x,-z
1/2-x,y,1/2+z
x,1/2-y,1/2+z
1/2-y,1/2-x,1/2+z
y,x,1/2+z
loop_
_atom_site_type_symbol
_atom_site_label
_atom_site_fract_x
_atom_site_fract_y
_atom_site_fract_z
Si Si1 0.896166 0.173936 0.538881
Si Si2 0.128373 0.290066 0.429964
Si Si3 0.250000 0.750000 0.000000
Si Si4 0.250000 0.250000 0.838844
Si Si5 0.602208 0.676162 0.404384
Si Si6 0.132418 0.784167 0.113106
Si Si7 0.002340 0.096506 0.502674
Si Si8 0.995970 0.004031 0.250000
O O1 0.902172 0.230937 0.441820
O O2 0.886887 0.195554 0.717130
O O3 0.839682 0.138082 0.505651
O O4 0.948568 0.134951 0.521072
O O5 0.183491 0.264271 0.349111
O O6 0.095671 0.316932 0.283690
O O7 0.149391 0.337597 0.550604
O O8 0.100277 0.238014 0.518694
O O9 0.195237 0.760536 0.102339
O O10 0.555870 0.635562 0.474843
O O11 0.000648 0.062354 0.341033
O O12 0.001172 0.048159 0.633260
#
# Coordination Sequence:
#
# PCOD9565633 Si02
#       8
#    16  16   4   4  16  16  16   8
#     4  10  21  36  57  86 121 157 195 239 292 348
#     4  10  20  35  57  89 125 158 196 242 294 356
#     4   8  16  30  56  86 120 166 196 222 292 374
#     4   8  16  30  52  78 116 162 184 206 276 362
#     4  11  22  37  60  90 124 160 200 245 299 355
#     4   9  19  34  55  85 121 155 192 238 289 350
#     4  11  24  44  66  87 113 154 204 252 298 354
#     4  10  24  46  68  82 110 160 204 240 296 368
#
# _framework density 19.567699000000001
#
# number of rings (size 3 to 8) (size 9 to 14) (size 15 to 20)
#    0.000    2.000    0.000    4.000    0.000   15.333 
#    0.000    3.333    0.000    0.000    0.000    0.000 
#    0.000    0.000    0.000    0.000    0.000    0.000 
#
# Total GULP energy -534549.352328 kJ/mol
# GULP energy per Si atom -5568.222420 kJ/mol
# Density = 1.952316 g / cm^3
# Si number density = 19.567699 Si / 1000 Ang^3
#
#
#
# Elastic Constant Matrix: (Units=GPa)
#
#
# Indices 1 2 3 4 5 6 
#
# 1 112.1845 37.2278 16.2478 0.0000 0.0000 0.0000
# 2 37.2278 112.1885 16.2567 0.0000 0.0000 0.0000
# 3 16.2478 16.2567 39.9545 0.0000 0.0000 0.0000
# 4 0.0000 0.0000 0.0000 -53.7001 0.0000 0.0000
# 5 0.0000 0.0000 0.0000 0.0000 -53.7196 0.0000
# 6 0.0000 0.0000 0.0000 0.0000 0.0000 46.1685
#
#
#
# Elastic Compliance Matrix: (Units=1/GPa)
#
#
# Indices 1 2 3 4 5 6 
#
# 1 0.010341 -0.002999 -0.002985 0.000000 0.000000 0.000000
# 2 -0.002999 0.010342 -0.002988 0.000000 0.000000 0.000000
# 3 -0.002985 -0.002988 0.027458 0.000000 0.000000 0.000000
# 4 0.000000 0.000000 0.000000 -0.018622 0.000000 0.000000
# 5 0.000000 0.000000 0.000000 0.000000 -0.018615 0.000000
# 6 0.000000 0.000000 0.000000 0.000000 0.000000 0.021660
#
#
# Mechanical properties :
#
#
# Convention : Reuss Voigt Hill
#
# Bulk Modulus (GPa) = 33.11641 44.86578 38.99109
# Shear Modulus (GPa) = 82.54270 0.72278 41.63274
#
# Velocity S-wave (km/s) = 6.50190 0.60842 4.61762
# Velocity P-wave (km/s) = 8.56312 4.84477 6.95697
#
# Compressibility (1/GPa) = 0.03019651
#
# Stress axis : x y z
#
# Youngs Moduli (GPa) = 96.69816 96.69514 36.41887
#
# Poissons Ratio (x) = 0.29000 0.10872
# Poissons Ratio (y) = 0.29000 0.10883
# Poissons Ratio (z) = 0.28866 0.28895
#
# Static dielectric constant tensor:
#      x y z
#    x 1.677090 0.000000 0.000000 
#    y 0.000000 1.677090 0.000000 
#    z 0.000000 0.000000 1.738580 
# 
# From -- ./inp_files/978.got.cif
#   From: 2010.05.17/outbox.cif.g08.bks.cpg/sg130_1_cif.got.tgz:978.got - 2010.05.20 12:17:35.
