data_PCOD9565640
_publ_section_title
;
Structure prediction by ZEFSAII (Michael W. Deem and Ramdas Pophale) SiO2 
 PCOD9565640
Probable space group: P 4/N C C
;
_chemical_formula_sum "Si O2"
_cell_formula_units_Z 72
_cell_length_a 14.943738
_cell_length_b 14.943738
_cell_length_c 18.245712
_cell_angle_alpha 90.000000
_cell_angle_beta 90.000000
_cell_angle_gamma 90.000000
_cell_volume 4074.546748
_symmetry_space_group_name_H-M "P 4/N C C"
_symmetry_group_IT_number 130
_symmetry_cell_setting 'tetragonal'
loop_
_space_group_symop_operation_xyz
x,y,z
1/2-y,x,z
1/2-x,1/2-y,z
y,1/2-x,z
1/2+x,-y,1/2-z
-x,1/2+y,1/2-z
1/2+y,1/2+x,1/2-z
-y,-x,1/2-z
-x,-y,-z
1/2+y,-x,-z
1/2+x,1/2+y,-z
-y,1/2+x,-z
1/2-x,y,1/2+z
x,1/2-y,1/2+z
1/2-y,1/2-x,1/2+z
y,x,1/2+z
loop_
_atom_site_type_symbol
_atom_site_label
_atom_site_fract_x
_atom_site_fract_y
_atom_site_fract_z
Si Si1 0.701731 0.107009 0.493599
Si Si2 0.478504 0.350526 0.811270
Si Si3 0.002457 0.339009 0.863764
Si Si4 0.839767 0.160234 0.250000
Si Si5 0.675709 0.074866 0.331285
O O1 0.641928 0.197747 0.488866
O O2 0.702247 0.058985 0.414841
O O3 0.663532 0.041340 0.555815
O O4 0.453437 0.257256 0.848188
O O5 0.415469 0.428384 0.840830
O O6 0.489904 0.335803 0.723220
O O7 0.580179 0.376296 0.832044
O O8 0.919682 0.345438 0.807881
O O9 0.750151 0.140931 0.296383
#
# Coordination Sequence:
#
# PCOD9565640 Si02
#       5
#    16  16  16   8  16
#     4  11  21  35  61  96 127 154 188 252 331 376
#     4  10  23  37  58  81 120 164 212 240 291 358
#     4  11  22  40  57  87 118 166 201 252 298 360
#     4  10  20  35  64  84 126 157 192 248 318 363
#     4  10  20  37  57  95 120 157 195 256 303 379
#
# _framework density 17.670677999999999
#
# number of rings (size 3 to 8) (size 9 to 14) (size 15 to 20)
#    0.000    1.556    4.444    1.333    0.000    8.444 
#    0.000    0.000    0.000    0.000    0.000    6.222 
#    0.000    0.000    0.000    0.000    0.000    0.000 
#
# Total GULP energy -401492.020816 kJ/mol
# GULP energy per Si atom -5576.278067 kJ/mol
# Density = 1.763046 g / cm^3
# Si number density = 17.670678 Si / 1000 Ang^3
#
#
#
# Elastic Constant Matrix: (Units=GPa)
#
#
# Indices 1 2 3 4 5 6 
#
# 1 92.8270 73.0938 45.1391 0.0000 0.0000 0.0000
# 2 73.0938 92.8271 45.1388 0.0000 0.0000 0.0000
# 3 45.1391 45.1388 159.8968 0.0000 0.0000 0.0000
# 4 0.0000 0.0000 0.0000 13.4924 0.0000 0.0000
# 5 0.0000 0.0000 0.0000 0.0000 13.4923 0.0000
# 6 0.0000 0.0000 0.0000 0.0000 0.0000 27.6071
#
#
#
# Elastic Compliance Matrix: (Units=1/GPa)
#
#
# Indices 1 2 3 4 5 6 
#
# 1 0.028898 -0.021778 -0.002010 0.000000 0.000000 0.000000
# 2 -0.021778 0.028898 -0.002010 0.000000 0.000000 0.000000
# 3 -0.002010 -0.002010 0.007389 0.000000 0.000000 0.000000
# 4 0.000000 0.000000 0.000000 0.074116 0.000000 0.000000
# 5 0.000000 0.000000 0.000000 0.000000 0.074116 0.000000
# 6 0.000000 0.000000 0.000000 0.000000 0.000000 0.036223
#
#
# Mechanical properties :
#
#
# Convention : Reuss Voigt Hill
#
# Bulk Modulus (GPa) = 73.58522 74.69938 74.14230
# Shear Modulus (GPa) = 16.35237 23.06364 19.70801
#
# Velocity S-wave (km/s) = 3.04533 3.61666 3.34323
# Velocity P-wave (km/s) = 7.35516 7.73338 7.54664
#
# Compressibility (1/GPa) = 0.01358969
#
# Stress axis : x y z
#
# Youngs Moduli (GPa) = 34.60405 34.60414 135.33663
#
# Poissons Ratio (x) = 0.75360 0.27206
# Poissons Ratio (y) = 0.75359 0.27204
# Poissons Ratio (z) = 0.06956 0.06956
#
# Static dielectric constant tensor:
#      x y z
#    x 1.604030 0.000000 0.000000 
#    y 0.000000 1.604030 0.000000 
#    z 0.000000 0.000000 1.658770 
# 
# From -- ./inp_files/2911.got.cif
#   From: 2010.05.17/outbox.cif.g08.bks.cpg/sg130_2_cif.got.tgz:2911.got - 2010.05.20 12:17:35.
