data_PCOD9565570
_publ_section_title
;
Structure prediction by ZEFSAII (Michael W. Deem and Ramdas Pophale) SiO2 
 PCOD9565570
Probable space group: P 4/N C C
;
_chemical_formula_sum "Si O2"
_cell_formula_units_Z 96
_cell_length_a 16.219055
_cell_length_b 16.219055
_cell_length_c 13.244379
_cell_angle_alpha 90.000000
_cell_angle_beta 90.000000
_cell_angle_gamma 90.000000
_cell_volume 3484.036475
_symmetry_space_group_name_H-M "P 4/N C C"
_symmetry_group_IT_number 130
_symmetry_cell_setting 'tetragonal'
loop_
_space_group_symop_operation_xyz
x,y,z
1/2-y,x,z
1/2-x,1/2-y,z
y,1/2-x,z
1/2+x,-y,1/2-z
-x,1/2+y,1/2-z
1/2+y,1/2+x,1/2-z
-y,-x,1/2-z
-x,-y,-z
1/2+y,-x,-z
1/2+x,1/2+y,-z
-y,1/2+x,-z
1/2-x,y,1/2+z
x,1/2-y,1/2+z
1/2-y,1/2-x,1/2+z
y,x,1/2+z
loop_
_atom_site_type_symbol
_atom_site_label
_atom_site_fract_x
_atom_site_fract_y
_atom_site_fract_z
Si Si1 0.463310 0.761819 0.831101
Si Si2 0.023719 0.941280 0.368065
Si Si3 0.289083 0.561451 0.384943
Si Si4 0.714466 0.623289 0.555743
Si Si5 0.098961 0.598138 0.125627
Si Si6 0.711649 0.873991 0.812512
O O1 0.507627 0.845261 0.872683
O O2 0.412597 0.787297 0.733487
O O3 0.419118 0.696431 0.903456
O O4 0.533403 0.701090 0.783535
O O5 0.037342 0.962659 0.250000
O O6 0.114675 0.919586 0.414676
O O7 0.964633 0.020082 0.401411
O O8 0.300010 0.464164 0.399457
O O9 0.192152 0.579562 0.412439
O O10 0.805674 0.651432 0.584225
O O11 0.709208 0.622378 0.434228
O O12 0.100750 0.600750 0.250000
O O13 0.653533 0.801867 0.779522
#
# Coordination Sequence:
#
# PCOD9565570 Si02
#       6
#    16  16  16  16  16  16
#     4  10  19  32  51  72  99 134 168 205 248 293
#     4   9  18  31  48  74 103 129 166 213 250 288
#     4  10  19  32  51  72  99 134 168 205 248 293
#     4   9  18  32  49  71 100 130 162 207 259 305
#     4   9  18  31  48  74 103 129 166 213 250 288
#     4   9  18  32  49  71 100 130 162 207 259 305
#
# _framework density 27.554247
#
# number of rings (size 3 to 8) (size 9 to 14) (size 15 to 20)
#    0.000    2.667    0.000    3.000    0.000    4.667 
#    0.000    6.667    0.000    6.000    0.000    2.333 
#    0.000    0.000    0.000    0.000    0.000    0.000 
#
# Total GULP energy -534615.480409 kJ/mol
# GULP energy per Si atom -5568.911254 kJ/mol
# Density = 2.749153 g / cm^3
# Si number density = 27.554247 Si / 1000 Ang^3
#
#
#
# Elastic Constant Matrix: (Units=GPa)
#
#
# Indices 1 2 3 4 5 6 
#
# 1 175.5894 85.0539 2.2721 0.0000 0.0000 0.0000
# 2 85.0539 175.5893 2.2720 0.0000 0.0000 0.0000
# 3 2.2721 2.2720 69.3214 0.0000 0.0000 0.0000
# 4 0.0000 0.0000 0.0000 23.4462 0.0000 0.0000
# 5 0.0000 0.0000 0.0000 0.0000 23.4462 0.0000
# 6 0.0000 0.0000 0.0000 0.0000 0.0000 172.8276
#
#
#
# Elastic Compliance Matrix: (Units=1/GPa)
#
#
# Indices 1 2 3 4 5 6 
#
# 1 0.007442 -0.003603 -0.000126 0.000000 0.000000 0.000000
# 2 -0.003603 0.007442 -0.000126 0.000000 0.000000 0.000000
# 3 -0.000126 -0.000126 0.014434 0.000000 0.000000 0.000000
# 4 0.000000 0.000000 0.000000 0.042651 0.000000 0.000000
# 5 0.000000 0.000000 0.000000 0.000000 0.042651 0.000000
# 6 0.000000 0.000000 0.000000 0.000000 0.000000 0.005786
#
#
# Mechanical properties :
#
#
# Convention : Reuss Voigt Hill
#
# Bulk Modulus (GPa) = 46.27868 66.63290 56.45579
# Shear Modulus (GPa) = 36.94989 66.00415 51.47702
#
# Velocity S-wave (km/s) = 3.66592 4.89962 4.32696
# Velocity P-wave (km/s) = 5.89496 7.49955 6.74514
#
# Compressibility (1/GPa) = 0.02160822
#
# Stress axis : x y z
#
# Youngs Moduli (GPa) = 134.37020 134.37015 69.28182
#
# Poissons Ratio (x) = 0.48417 0.00872
# Poissons Ratio (y) = 0.48417 0.00872
# Poissons Ratio (z) = 0.01691 0.01691
#
# Static dielectric constant tensor:
#      x y z
#    x 2.191750 0.000000 0.000000 
#    y 0.000000 2.191750 0.000000 
#    z 0.000000 0.000000 2.333190 
# 
# From -- ./inp_files/3760.got.cif
#   From: 2010.05.17/outbox.cif.g08.bks.cpg/sg130_2_cif.got.tgz:3760.got - 2010.05.20 12:17:35.
