data_PCOD9565874
_publ_section_title
;
Structure prediction by ZEFSAII (Michael W. Deem and Ramdas Pophale) SiO2 
 PCOD9565874
Probable space group: P 4/N C C
;
_chemical_formula_sum "Si O2"
_cell_formula_units_Z 96
_cell_length_a 15.056441
_cell_length_b 15.056441
_cell_length_c 20.669305
_cell_angle_alpha 90.000000
_cell_angle_beta 90.000000
_cell_angle_gamma 90.000000
_cell_volume 4685.657356
_symmetry_space_group_name_H-M "P 4/N C C"
_symmetry_group_IT_number 130
_symmetry_cell_setting 'tetragonal'
loop_
_space_group_symop_operation_xyz
x,y,z
1/2-y,x,z
1/2-x,1/2-y,z
y,1/2-x,z
1/2+x,-y,1/2-z
-x,1/2+y,1/2-z
1/2+y,1/2+x,1/2-z
-y,-x,1/2-z
-x,-y,-z
1/2+y,-x,-z
1/2+x,1/2+y,-z
-y,1/2+x,-z
1/2-x,y,1/2+z
x,1/2-y,1/2+z
1/2-y,1/2-x,1/2+z
y,x,1/2+z
loop_
_atom_site_type_symbol
_atom_site_label
_atom_site_fract_x
_atom_site_fract_y
_atom_site_fract_z
Si Si1 0.348603 0.848603 0.750000
Si Si2 0.829187 0.622791 0.210981
Si Si3 0.609757 0.469435 0.627220
Si Si4 0.862404 0.362404 0.750000
Si Si5 0.872770 0.952838 0.848040
Si Si6 0.315618 0.615797 0.500121
Si Si7 0.008888 0.673050 0.370865
O O1 0.398059 0.882517 0.686162
O O2 0.244077 0.868090 0.759937
O O3 0.868309 0.722250 0.213232
O O4 0.859615 0.565736 0.149656
O O5 0.864342 0.565281 0.271297
O O6 0.505258 0.456036 0.619887
O O7 0.661204 0.437166 0.564685
O O8 0.933277 0.369135 0.690156
O O9 0.905640 0.856403 0.871257
O O10 0.780041 0.997104 0.866738
O O11 0.210847 0.636059 0.502693
O O12 0.343619 0.563373 0.564054
#
# Coordination Sequence:
#
# PCOD9565874 Si02
#       7
#     8  16  16   8  16  16  16
#     4  11  20  35  65 103 133 166 221 284 352 397
#     4  11  24  43  69 101 140 184 229 283 347 411
#     4  12  23  42  68 100 139 172 230 291 339 418
#     4  11  22  39  65  97 135 169 218 292 342 409
#     4  12  24  43  70 100 136 177 228 287 339 422
#     4  11  24  46  71  98 138 180 222 284 358 419
#     4  12  26  44  67 103 133 183 233 277 355 416
#
# _framework density 20.488053000000001
#
# number of rings (size 3 to 8) (size 9 to 14) (size 15 to 20)
#    0.000    0.500    6.667    1.000    2.333    5.000 
#    3.000    0.000    0.000    0.000    0.000    0.000 
#    0.000    0.000    0.000    0.000    0.000    0.000 
#
# Total GULP energy -534561.113715 kJ/mol
# GULP energy per Si atom -5568.344935 kJ/mol
# Density = 2.044142 g / cm^3
# Si number density = 20.488053 Si / 1000 Ang^3
#
#
#
# Elastic Constant Matrix: (Units=GPa)
#
#
# Indices 1 2 3 4 5 6 
#
# 1 68.3061 11.5480 27.7140 0.0000 0.0000 0.0000
# 2 11.5480 68.3061 27.7140 0.0000 0.0000 0.0000
# 3 27.7140 27.7140 108.9933 0.0000 0.0000 0.0000
# 4 0.0000 0.0000 0.0000 28.4864 0.0000 0.0000
# 5 0.0000 0.0000 0.0000 0.0000 28.4864 0.0000
# 6 0.0000 0.0000 0.0000 0.0000 0.0000 35.4584
#
#
#
# Elastic Compliance Matrix: (Units=1/GPa)
#
#
# Indices 1 2 3 4 5 6 
#
# 1 0.016413 -0.001206 -0.003867 0.000000 0.000000 0.000000
# 2 -0.001206 0.016413 -0.003867 0.000000 0.000000 0.000000
# 3 -0.003867 -0.003867 0.011141 0.000000 0.000000 0.000000
# 4 0.000000 0.000000 0.000000 0.035104 0.000000 0.000000
# 5 0.000000 0.000000 0.000000 0.000000 0.035104 0.000000
# 6 0.000000 0.000000 0.000000 0.000000 0.000000 0.028202
#
#
# Mechanical properties :
#
#
# Convention : Reuss Voigt Hill
#
# Bulk Modulus (GPa) = 38.33163 42.17306 40.25235
# Shear Modulus (GPa) = 29.59416 30.39486 29.99451
#
# Velocity S-wave (km/s) = 3.80473 3.85585 3.83038
# Velocity P-wave (km/s) = 6.16856 6.36022 6.26512
#
# Compressibility (1/GPa) = 0.02608811
#
# Stress axis : x y z
#
# Youngs Moduli (GPa) = 60.92843 60.92843 89.75651
#
# Poissons Ratio (x) = 0.07348 0.34706
# Poissons Ratio (y) = 0.07348 0.34706
# Poissons Ratio (z) = 0.23559 0.23559
#
# Static dielectric constant tensor:
#      x y z
#    x 1.861600 0.000000 0.000000 
#    y 0.000000 1.861600 0.000000 
#    z 0.000000 0.000000 1.755020 
# 
# From -- ./inp_files/3829.got.cif
#   From: 2010.05.17/outbox.cif.g08.bks.cpg/sg130_2_cif.got.tgz:3829.got - 2010.05.20 12:17:35.
