data_PCOD9565749
_publ_section_title
;
Structure prediction by ZEFSAII (Michael W. Deem and Ramdas Pophale) SiO2 
 PCOD9565749
Probable space group: P 4/N C C
;
_chemical_formula_sum "Si O2"
_cell_formula_units_Z 112
_cell_length_a 14.897212
_cell_length_b 14.897212
_cell_length_c 23.259036
_cell_angle_alpha 90.000000
_cell_angle_beta 90.000000
_cell_angle_gamma 90.000000
_cell_volume 5161.806347
_symmetry_space_group_name_H-M "P 4/N C C"
_symmetry_group_IT_number 130
_symmetry_cell_setting 'tetragonal'
loop_
_space_group_symop_operation_xyz
x,y,z
1/2-y,x,z
1/2-x,1/2-y,z
y,1/2-x,z
1/2+x,-y,1/2-z
-x,1/2+y,1/2-z
1/2+y,1/2+x,1/2-z
-y,-x,1/2-z
-x,-y,-z
1/2+y,-x,-z
1/2+x,1/2+y,-z
-y,1/2+x,-z
1/2-x,y,1/2+z
x,1/2-y,1/2+z
1/2-y,1/2-x,1/2+z
y,x,1/2+z
loop_
_atom_site_type_symbol
_atom_site_label
_atom_site_fract_x
_atom_site_fract_y
_atom_site_fract_z
Si Si1 0.550134 0.992583 0.666002
Si Si2 0.884435 0.806134 0.478691
Si Si3 0.032635 0.933473 0.448201
Si Si4 0.695427 0.613294 0.115915
Si Si5 0.448076 0.673765 0.212609
Si Si6 0.808458 0.084512 0.295301
Si Si7 0.826898 0.319128 0.108656
O O1 0.491640 0.980065 0.608616
O O2 0.651208 0.968549 0.647951
O O3 0.514487 0.910320 0.704554
O O4 0.545878 0.094351 0.687221
O O5 0.796036 0.863318 0.465174
O O6 0.899369 0.810409 0.547365
O O7 0.965743 0.850172 0.447300
O O8 0.127174 0.879770 0.441719
O O9 0.000000 0.000000 0.500000
O O10 0.797709 0.636935 0.129369
O O11 0.367069 0.632932 0.250000
O O12 0.482356 0.751551 0.254758
O O13 0.397781 0.701680 0.153730
O O14 0.835022 0.164978 0.250000
O O15 0.748568 0.111974 0.350975
O O16 0.750000 0.250000 0.088710
#
# Coordination Sequence:
#
# PCOD9565749 Si02
#       7
#    16  16  16  16  16  16  16
#     4  11  23  36  63 102 131 184 236 284 382 442
#     4   9  19  39  66  85 120 183 231 274 341 419
#     4  11  23  41  65 101 149 184 234 305 359 449
#     4   9  19  36  58  87 123 171 229 282 336 421
#     4   9  20  39  59  90 136 171 229 298 352 437
#     4  11  22  38  69  97 133 181 235 304 375 439
#     4  10  21  40  67 100 132 190 241 288 375 450
#
# _framework density 21.69783
#
# number of rings (size 3 to 8) (size 9 to 14) (size 15 to 20)
#    0.000    2.000    2.857    1.286    4.000    0.000 
#    0.000    0.000    0.000    0.000    0.000    2.000 
#    0.000    0.000    0.000    0.000    0.000    0.000 
#
# Total GULP energy -624204.829157 kJ/mol
# GULP energy per Si atom -5573.257403 kJ/mol
# Density = 2.164844 g / cm^3
# Si number density = 21.697830 Si / 1000 Ang^3
#
#
#
# Elastic Constant Matrix: (Units=GPa)
#
#
# Indices 1 2 3 4 5 6 
#
# 1 108.4311 20.2575 28.3113 0.0000 0.0000 0.0000
# 2 20.2575 108.4305 28.3112 0.0000 0.0000 0.0000
# 3 28.3113 28.3112 37.7777 0.0000 0.0000 0.0000
# 4 0.0000 0.0000 0.0000 32.0982 0.0000 0.0000
# 5 0.0000 0.0000 0.0000 0.0000 32.0981 0.0000
# 6 0.0000 0.0000 0.0000 0.0000 0.0000 75.8358
#
#
#
# Elastic Compliance Matrix: (Units=1/GPa)
#
#
# Indices 1 2 3 4 5 6 
#
# 1 0.011467 0.000126 -0.008688 0.000000 0.000000 0.000000
# 2 0.000126 0.011467 -0.008688 0.000000 0.000000 0.000000
# 3 -0.008688 -0.008688 0.039493 0.000000 0.000000 0.000000
# 4 0.000000 0.000000 0.000000 0.031154 0.000000 0.000000
# 5 0.000000 0.000000 0.000000 0.000000 0.031155 0.000000
# 6 0.000000 0.000000 0.000000 0.000000 0.000000 0.013186
#
#
# Mechanical properties :
#
#
# Convention : Reuss Voigt Hill
#
# Bulk Modulus (GPa) = 35.80812 45.37769 40.59291
# Shear Modulus (GPa) = 27.51276 39.85703 33.68490
#
# Velocity S-wave (km/s) = 3.56476 4.29057 3.94439
# Velocity P-wave (km/s) = 5.78638 6.74568 6.28436
#
# Compressibility (1/GPa) = 0.02792662
#
# Stress axis : x y z
#
# Youngs Moduli (GPa) = 87.20349 87.20308 25.32080
#
# Poissons Ratio (x) = -0.01100 0.22000
# Poissons Ratio (y) = -0.01100 0.22000
# Poissons Ratio (z) = 0.75766 0.75766
#
# Static dielectric constant tensor:
#      x y z
#    x 1.909180 0.000000 0.000000 
#    y 0.000000 1.909180 0.000000 
#    z 0.000000 0.000000 1.772790 
# 
# From -- ./inp_files/4286.got.cif
#   From: 2010.05.17/outbox.cif.g08.bks.cpg/sg130_3_cif.got.tgz:4286.got - 2010.05.20 12:17:35.
