data_PCOD9565011
_publ_section_title
;
Structure prediction by ZEFSAII (Michael W. Deem and Ramdas Pophale) SiO2 
 PCOD9565011
Probable space group: P 4/M N C
;
_chemical_formula_sum "Si O2"
_cell_formula_units_Z 96
_cell_length_a 15.263375
_cell_length_b 15.263375
_cell_length_c 20.999510
_cell_angle_alpha 90.000000
_cell_angle_beta 90.000000
_cell_angle_gamma 90.000000
_cell_volume 4892.268789
_symmetry_space_group_name_H-M "P 4/M N C"
_symmetry_group_IT_number 128
_symmetry_cell_setting 'tetragonal'
loop_
_space_group_symop_operation_xyz
x,y,z
-y,x,z
-x,-y,z
y,-x,z
1/2+x,1/2-y,1/2-z
1/2-x,1/2+y,1/2-z
1/2+y,1/2+x,1/2-z
1/2-y,1/2-x,1/2-z
-x,-y,-z
y,-x,-z
x,y,-z
-y,x,-z
1/2-x,1/2+y,1/2+z
1/2+x,1/2-y,1/2+z
1/2-y,1/2-x,1/2+z
1/2+y,1/2+x,1/2+z
loop_
_atom_site_type_symbol
_atom_site_label
_atom_site_fract_x
_atom_site_fract_y
_atom_site_fract_z
Si Si1 0.560337 0.917819 0.120956
Si Si2 0.002257 0.258570 0.925210
Si Si3 0.828646 0.276247 0.319661
Si Si4 0.599676 0.403918 0.855905
Si Si5 0.798570 0.488700 0.000000
Si Si6 0.867686 0.858314 0.500000
Si Si7 0.177948 0.814954 0.075504
O O1 0.588141 0.840493 0.169241
O O2 0.519633 0.863369 0.060997
O O3 0.500000 0.000000 0.140567
O O4 0.652416 0.964927 0.103840
O O5 0.095945 0.224226 0.903346
O O6 0.927256 0.184801 0.918494
O O7 0.011434 0.276620 0.000000
O O8 0.793520 0.293520 0.250000
O O9 0.847582 0.174647 0.326127
O O10 0.762876 0.293237 0.378481
O O11 0.619389 0.502751 0.836342
O O12 0.601408 0.395741 0.932531
O O13 0.732976 0.402230 0.000000
O O14 0.738212 0.578960 0.000000
O O15 0.197589 0.798436 0.000000
#
# Coordination Sequence:
#
# PCOD9565011 Si02
#       7
#    16  16  16  16   8   8  16
#     4  11  23  42  61  91 133 173 216 269 327 396
#     4   9  18  35  59  92 125 157 208 267 323 381
#     4  11  25  45  64  91 133 168 224 272 328 403
#     4  11  22  40  66  97 133 169 211 269 331 401
#     4  12  23  37  64 104 140 171 212 270 339 397
#     4  12  20  35  66 102 140 164 208 260 334 395
#     4   9  20  38  65  91 120 165 211 272 326 385
#
# _framework density 19.622799000000001
#
# number of rings (size 3 to 8) (size 9 to 14) (size 15 to 20)
#    0.000    1.500    4.167    0.250    2.333    4.167 
#    6.000    1.667    0.000    0.000    0.000    0.000 
#    0.000    0.000    0.000    0.000    0.000    0.000 
#
# Total GULP energy -534628.694349 kJ/mol
# GULP energy per Si atom -5569.048899 kJ/mol
# Density = 1.957814 g / cm^3
# Si number density = 19.622799 Si / 1000 Ang^3
#
#
#
# Elastic Constant Matrix: (Units=GPa)
#
#
# Indices 1 2 3 4 5 6 
#
# 1 83.7080 7.1589 22.3714 0.0000 0.0000 0.0000
# 2 7.1589 83.7080 22.3714 0.0000 0.0000 0.0000
# 3 22.3714 22.3714 64.5234 0.0000 0.0000 0.0000
# 4 0.0000 0.0000 0.0000 -11.4538 0.0000 0.0000
# 5 0.0000 0.0000 0.0000 0.0000 -11.4538 0.0000
# 6 0.0000 0.0000 0.0000 0.0000 0.0000 41.6833
#
#
#
# Elastic Compliance Matrix: (Units=1/GPa)
#
#
# Indices 1 2 3 4 5 6 
#
# 1 0.013167 0.000104 -0.004601 0.000000 0.000000 0.000000
# 2 0.000104 0.013167 -0.004601 0.000000 0.000000 0.000000
# 3 -0.004601 -0.004601 0.018689 0.000000 0.000000 0.000000
# 4 0.000000 0.000000 0.000000 -0.087307 0.000000 0.000000
# 5 0.000000 0.000000 0.000000 0.000000 -0.087307 0.000000
# 6 0.000000 0.000000 0.000000 0.000000 0.000000 0.023990
#
#
# Mechanical properties :
#
#
# Convention : Reuss Voigt Hill
#
# Bulk Modulus (GPa) = 37.27787 37.30475 37.29131
# Shear Modulus (GPa) = -63.72536 15.75764 -23.98386
#
# Velocity S-wave (km/s) = -5.70488 2.83685 -3.49985
# Velocity P-wave (km/s) = 4.93515 5.45733 1.64723
#
# Compressibility (1/GPa) = 0.02682556
#
# Stress axis : x y z
#
# Youngs Moduli (GPa) = 75.94668 75.94668 53.50769
#
# Poissons Ratio (x) = -0.00787 0.24620
# Poissons Ratio (y) = -0.00787 0.24620
# Poissons Ratio (z) = 0.34945 0.34945
#
# Static dielectric constant tensor:
#      x y z
#    x 1.731950 0.000000 0.000000 
#    y 0.000000 1.731950 0.000000 
#    z 0.000000 0.000000 1.618080 
# 
# From -- ./inp_files/5786.got.cif
#   From: 2010.05.17/outbox.cif.g08.bks.cpg/sg128_3_cif.got.tgz:5786.got - 2010.05.20 12:07:25.
