data_PCOD9565658
_publ_section_title
;
Structure prediction by ZEFSAII (Michael W. Deem and Ramdas Pophale) SiO2 
 PCOD9565658
Probable space group: P 4/N C C
;
_chemical_formula_sum "Si O2"
_cell_formula_units_Z 112
_cell_length_a 16.040397
_cell_length_b 16.040397
_cell_length_c 25.322327
_cell_angle_alpha 90.000000
_cell_angle_beta 90.000000
_cell_angle_gamma 90.000000
_cell_volume 6515.291309
_symmetry_space_group_name_H-M "P 4/N C C"
_symmetry_group_IT_number 130
_symmetry_cell_setting 'tetragonal'
loop_
_space_group_symop_operation_xyz
x,y,z
1/2-y,x,z
1/2-x,1/2-y,z
y,1/2-x,z
1/2+x,-y,1/2-z
-x,1/2+y,1/2-z
1/2+y,1/2+x,1/2-z
-y,-x,1/2-z
-x,-y,-z
1/2+y,-x,-z
1/2+x,1/2+y,-z
-y,1/2+x,-z
1/2-x,y,1/2+z
x,1/2-y,1/2+z
1/2-y,1/2-x,1/2+z
y,x,1/2+z
loop_
_atom_site_type_symbol
_atom_site_label
_atom_site_fract_x
_atom_site_fract_y
_atom_site_fract_z
Si Si1 0.110137 0.624490 0.564970
Si Si2 0.815617 0.407935 0.548441
Si Si3 0.461714 0.610227 0.804960
Si Si4 0.843784 0.235823 0.135708
Si Si5 0.045024 0.479337 0.400747
Si Si6 0.847424 0.659298 0.649537
Si Si7 0.172076 0.358605 0.223928
O O1 0.071663 0.718193 0.559188
O O2 0.165104 0.612749 0.512202
O O3 0.175417 0.624479 0.613706
O O4 0.039995 0.552863 0.571866
O O5 0.832989 0.327626 0.585926
O O6 0.883466 0.478371 0.563371
O O7 0.424420 0.575581 0.750000
O O8 0.406045 0.688714 0.824560
O O9 0.463601 0.543664 0.852332
O O10 0.557476 0.631812 0.795296
O O11 0.750000 0.250000 0.157526
O O12 0.083723 0.397643 0.374913
O O13 0.863429 0.753930 0.633002
O O14 0.840990 0.647915 0.712752
O O15 0.138316 0.268800 0.206796
#
# Coordination Sequence:
#
# PCOD9565658 Si02
#       7
#    16  16  16  16  16  16  16
#     4  11  20  37  62  82 111 150 195 236 289 363
#     4  10  20  37  59  80 112 147 184 240 293 348
#     4  11  22  38  56  82 126 153 186 244 291 338
#     4   9  21  37  58  84 110 155 195 228 292 352
#     4  11  22  33  53  90 114 142 189 239 291 341
#     4   9  17  33  54  76 106 146 187 230 275 338
#     4   9  19  36  58  75 101 151 198 227 278 341
#
# _framework density 17.190329999999999
#
# number of rings (size 3 to 8) (size 9 to 14) (size 15 to 20)
#    0.000    2.000    2.857    2.143    2.000    0.286 
#    0.000    0.000    0.000    0.000    0.000    0.000 
#    0.000    0.000    0.000    0.000    0.000    0.000 
#
# Total GULP energy -623803.950915 kJ/mol
# GULP energy per Si atom -5569.678133 kJ/mol
# Density = 1.715120 g / cm^3
# Si number density = 17.190330 Si / 1000 Ang^3
#
#
#
# Elastic Constant Matrix: (Units=GPa)
#
#
# Indices 1 2 3 4 5 6 
#
# 1 92.7443 -26.3175 20.0382 0.0000 0.0000 0.0000
# 2 -26.3175 92.7498 20.0376 0.0000 0.0000 0.0000
# 3 20.0382 20.0376 50.0278 0.0000 0.0000 0.0000
# 4 0.0000 0.0000 0.0000 24.1874 0.0000 0.0000
# 5 0.0000 0.0000 0.0000 0.0000 24.1870 0.0000
# 6 0.0000 0.0000 0.0000 0.0000 0.0000 27.6705
#
#
#
# Elastic Compliance Matrix: (Units=1/GPa)
#
#
# Indices 1 2 3 4 5 6 
#
# 1 0.014125 0.005726 -0.007951 0.000000 0.000000 0.000000
# 2 0.005726 0.014124 -0.007950 0.000000 0.000000 0.000000
# 3 -0.007951 -0.007950 0.026358 0.000000 0.000000 0.000000
# 4 0.000000 0.000000 0.000000 0.041344 0.000000 0.000000
# 5 0.000000 0.000000 0.000000 0.000000 0.041345 0.000000
# 6 0.000000 0.000000 0.000000 0.000000 0.000000 0.036140
#
#
# Mechanical properties :
#
#
# Convention : Reuss Voigt Hill
#
# Bulk Modulus (GPa) = 29.19249 29.22652 29.20950
# Shear Modulus (GPa) = 24.36595 29.99323 27.17959
#
# Velocity S-wave (km/s) = 3.76895 4.18158 3.98062
# Velocity P-wave (km/s) = 5.99656 6.35238 6.17704
#
# Compressibility (1/GPa) = 0.03425539
#
# Stress axis : x y z
#
# Youngs Moduli (GPa) = 70.79683 70.80183 37.93927
#
# Poissons Ratio (x) = -0.40538 0.30165
# Poissons Ratio (y) = -0.40536 0.30163
# Poissons Ratio (z) = 0.56290 0.56290
#
# Static dielectric constant tensor:
#      x y z
#    x 1.566670 0.000000 0.000000 
#    y 0.000000 1.566670 0.000000 
#    z 0.000000 0.000000 1.594060 
# 
# From -- ./inp_files/4595.got.cif
#   From: 2010.05.17/outbox.cif.g08.bks.cpg/sg130_3_cif.got.tgz:4595.got - 2010.05.20 12:17:35.
