data_PCOD9565187
_publ_section_title
;
Structure prediction by ZEFSAII (Michael W. Deem and Ramdas Pophale) SiO2 
 PCOD9565187
Probable space group: P 4/N M M
;
_chemical_formula_sum "Si O2"
_cell_formula_units_Z 96
_cell_length_a 13.955193
_cell_length_b 13.955193
_cell_length_c 31.702379
_cell_angle_alpha 90.000000
_cell_angle_beta 90.000000
_cell_angle_gamma 90.000000
_cell_volume 6173.956254
_symmetry_space_group_name_H-M "P 4/N M M"
_symmetry_group_IT_number 129
_symmetry_cell_setting 'tetragonal'
loop_
_space_group_symop_operation_xyz
x,y,z
1/2-y,x,z
1/2-x,1/2-y,z
y,1/2-x,z
1/2+x,-y,-z
-x,1/2+y,-z
1/2+y,1/2+x,-z
-y,-x,-z
-x,-y,-z
1/2+y,-x,-z
1/2+x,1/2+y,-z
-y,1/2+x,-z
1/2-x,y,z
x,1/2-y,z
1/2-y,1/2-x,z
y,x,z
loop_
_atom_site_type_symbol
_atom_site_label
_atom_site_fract_x
_atom_site_fract_y
_atom_site_fract_z
Si Si1 0.366711 0.639751 0.953495
Si Si2 0.021251 0.635298 0.703544
Si Si3 0.865886 0.359267 0.621182
Si Si4 0.635494 0.018194 0.127853
Si Si5 0.023813 0.865414 0.536484
Si Si6 0.363240 0.637456 0.211540
O O1 0.250000 0.641188 0.954428
O O2 0.397932 0.750000 0.947867
O O3 0.395539 0.576222 0.913876
O O4 0.396033 0.603968 0.000000
O O5 0.006333 0.750000 0.700989
O O6 0.089104 0.605603 0.664520
O O7 0.074581 0.614240 0.747564
O O8 0.923366 0.576635 0.701122
O O9 0.750000 0.353719 0.622137
O O10 0.902050 0.250000 0.617769
O O11 0.889207 0.424106 0.580795
O O12 0.750000 0.008271 0.126416
O O13 0.582109 0.917892 0.128920
O O14 0.611342 0.077441 0.170050
O O15 0.092768 0.907233 0.500000
O O16 0.012781 0.750000 0.533186
O O17 0.924065 0.924065 0.534055
O O18 0.250000 0.627429 0.202449
O O19 0.380345 0.750000 0.221015
#
# Coordination Sequence:
#
# PCOD9565187 Si02
#       6
#    16  16  16  16  16  16
#     4   8  14  26  44  64  84 105 133 174 220 258
#     4  10  19  30  45  66  93 122 150 181 220 269
#     4   9  17  30  48  68  90 118 153 192 231 268
#     4  10  19  29  42  61  86 115 144 173 208 254
#     4  10  20  33  50  73 100 130 164 201 243 291
#     4   9  17  30  48  67  85 107 140 185 231 264
#
# _framework density 15.549186000000001
#
# number of rings (size 3 to 8) (size 9 to 14) (size 15 to 20)
#    0.000    2.667    0.000    3.000    0.000    5.667 
#    0.000    0.000    0.000    3.000    0.000    0.000 
#    0.000   16.667    0.000    0.667    0.000    0.000 
#
# Total GULP energy -534793.117374 kJ/mol
# GULP energy per Si atom -5570.761639 kJ/mol
# Density = 1.551380 g / cm^3
# Si number density = 15.549186 Si / 1000 Ang^3
#
#
#
# Elastic Constant Matrix: (Units=GPa)
#
#
# Indices 1 2 3 4 5 6 
#
# 1 61.2033 43.6577 50.5060 0.0000 0.0000 0.0000
# 2 43.6577 61.2035 50.5064 0.0000 0.0000 0.0000
# 3 50.5060 50.5064 134.6288 0.0000 0.0000 0.0000
# 4 0.0000 0.0000 0.0000 9.3337 0.0000 0.0000
# 5 0.0000 0.0000 0.0000 0.0000 9.3337 0.0000
# 6 0.0000 0.0000 0.0000 0.0000 0.0000 21.1409
#
#
#
# Elastic Compliance Matrix: (Units=1/GPa)
#
#
# Indices 1 2 3 4 5 6 
#
# 1 0.035963 -0.021030 -0.005602 0.000000 0.000000 0.000000
# 2 -0.021030 0.035963 -0.005602 0.000000 0.000000 0.000000
# 3 -0.005602 -0.005602 0.011631 0.000000 0.000000 0.000000
# 4 0.000000 0.000000 0.000000 0.107139 0.000000 0.000000
# 5 0.000000 0.000000 0.000000 0.000000 0.107139 0.000000
# 6 0.000000 0.000000 0.000000 0.000000 0.000000 0.047302
#
#
# Mechanical properties :
#
#
# Convention : Reuss Voigt Hill
#
# Bulk Modulus (GPa) = 52.38750 60.70840 56.54795
# Shear Modulus (GPa) = 12.02011 15.45269 13.73640
#
# Velocity S-wave (km/s) = 2.78337 3.15587 2.97546
# Velocity P-wave (km/s) = 6.64034 7.23926 6.94626
#
# Compressibility (1/GPa) = 0.01908852
#
# Stress axis : x y z
#
# Youngs Moduli (GPa) = 27.80609 27.80601 85.97637
#
# Poissons Ratio (x) = 0.58477 0.48164
# Poissons Ratio (y) = 0.58478 0.48166
# Poissons Ratio (z) = 0.15577 0.15578
#
# Static dielectric constant tensor:
#      x y z
#    x 1.498930 0.000000 0.000000 
#    y 0.000000 1.498930 0.000000 
#    z 0.000000 0.000000 1.526850 
# 
# From -- ./inp_files/7851.got.cif
#   From: 2010.05.17/outbox.cif.g08.bks.cpg/sg129_4_cif.got.tgz:7851.got - 2010.05.20 12:12:06.
