data_PCOD9565112
_publ_section_title
;
Structure prediction by ZEFSAII (Michael W. Deem and Ramdas Pophale) SiO2 
 PCOD9565112
Probable space group: P 4/N M M
;
_chemical_formula_sum "Si O2"
_cell_formula_units_Z 104
_cell_length_a 27.721569
_cell_length_b 27.721569
_cell_length_c 9.015022
_cell_angle_alpha 90.000000
_cell_angle_beta 90.000000
_cell_angle_gamma 90.000000
_cell_volume 6927.912678
_symmetry_space_group_name_H-M "P 4/N M M"
_symmetry_group_IT_number 129
_symmetry_cell_setting 'tetragonal'
loop_
_space_group_symop_operation_xyz
x,y,z
1/2-y,x,z
1/2-x,1/2-y,z
y,1/2-x,z
1/2+x,-y,-z
-x,1/2+y,-z
1/2+y,1/2+x,-z
-y,-x,-z
-x,-y,-z
1/2+y,-x,-z
1/2+x,1/2+y,-z
-y,1/2+x,-z
1/2-x,y,z
x,1/2-y,z
1/2-y,1/2-x,z
y,x,z
loop_
_atom_site_type_symbol
_atom_site_label
_atom_site_fract_x
_atom_site_fract_y
_atom_site_fract_z
Si Si1 0.022188 0.399224 0.201633
Si Si2 0.841265 0.442996 0.203544
Si Si3 0.196967 0.989339 0.068756
Si Si4 0.165091 0.806304 0.168757
Si Si5 0.096905 0.803019 0.701136
Si Si6 0.881932 0.041112 0.519317
Si Si7 0.935821 0.435821 0.000000
O O1 0.071412 0.428589 0.199795
O O2 0.021679 0.346523 0.127303
O O3 0.002769 0.390204 0.368322
O O4 0.982691 0.429453 0.104237
O O5 0.814727 0.391336 0.207553
O O6 0.857145 0.465194 0.360043
O O7 0.890211 0.434115 0.109662
O O8 0.809917 0.478802 0.103922
O O9 0.250000 0.008132 0.103426
O O10 0.192875 0.936808 0.151361
O O11 0.177368 0.750000 0.189566
O O12 0.192224 0.846815 0.264573
O O13 0.178173 0.821828 0.000000
O O14 0.086801 0.750000 0.636595
O O15 0.078873 0.846694 0.601872
O O16 0.932934 0.067067 0.500000
#
# Coordination Sequence:
#
# PCOD9565112 Si02
#       7
#    16  16  16  16  16  16   8
#     4  10  20  33  51  76 101 126 156 194 243 296
#     4  11  18  32  49  67  86 120 162 200 238 292
#     4   9  18  34  55  72  91 121 160 198 233 280
#     4  12  21  30  45  63  83 109 155 215 270 306
#     4  10  20  34  47  60  82 115 156 204 255 301
#     4  11  20  34  47  64  93 125 154 196 246 305
#     4  10  17  32  52  68  93 120 154 200 240 287
#
# _framework density 15.011736000000001
#
# number of rings (size 3 to 8) (size 9 to 14) (size 15 to 20)
#    0.000    1.538    5.385    2.077    0.000    2.615 
#    0.000    0.769    0.000    0.000    0.000    0.000 
#    0.000    0.308    0.000    0.000    0.000    0.923 
#
# Total GULP energy -579867.840691 kJ/mol
# GULP energy per Si atom -5575.652314 kJ/mol
# Density = 1.497757 g / cm^3
# Si number density = 15.011736 Si / 1000 Ang^3
#
#
#
# Elastic Constant Matrix: (Units=GPa)
#
#
# Indices 1 2 3 4 5 6 
#
# 1 67.5549 48.2093 19.4807 0.0000 0.0000 0.0000
# 2 48.2093 67.5568 19.4811 0.0000 0.0000 0.0000
# 3 19.4807 19.4811 74.3998 0.0000 0.0000 0.0000
# 4 0.0000 0.0000 0.0000 7.7574 0.0000 0.0000
# 5 0.0000 0.0000 0.0000 0.0000 7.7571 0.0000
# 6 0.0000 0.0000 0.0000 0.0000 0.0000 15.0991
#
#
#
# Elastic Compliance Matrix: (Units=1/GPa)
#
#
# Indices 1 2 3 4 5 6 
#
# 1 0.030581 -0.021108 -0.002480 0.000000 0.000000 0.000000
# 2 -0.021108 0.030580 -0.002480 0.000000 0.000000 0.000000
# 3 -0.002480 -0.002480 0.014740 0.000000 0.000000 0.000000
# 4 0.000000 0.000000 0.000000 0.128909 0.000000 0.000000
# 5 0.000000 0.000000 0.000000 0.000000 0.128913 0.000000
# 6 0.000000 0.000000 0.000000 0.000000 0.000000 0.066229
#
#
# Mechanical properties :
#
#
# Convention : Reuss Voigt Hill
#
# Bulk Modulus (GPa) = 42.08019 42.65042 42.36530
# Shear Modulus (GPa) = 10.86929 14.27876 12.57402
#
# Velocity S-wave (km/s) = 2.69374 3.08745 2.89729
# Velocity P-wave (km/s) = 6.14552 6.41739 6.28292
#
# Compressibility (1/GPa) = 0.02376415
#
# Stress axis : x y z
#
# Youngs Moduli (GPa) = 32.69967 32.70061 67.84336
#
# Poissons Ratio (x) = 0.69024 0.16828
# Poissons Ratio (y) = 0.69022 0.16828
# Poissons Ratio (z) = 0.08111 0.08111
#
# Static dielectric constant tensor:
#      x y z
#    x 1.492740 0.000000 0.000000 
#    y 0.000000 1.492740 0.000000 
#    z 0.000000 0.000000 1.552480 
# 
# From -- ./inp_files/2853.got.cif
#   From: 2010.05.17/outbox.cif.g08.bks.cpg/sg129_2_cif.got.tgz:2853.got - 2010.05.20 12:12:06.
