data_PCOD9565241
_publ_section_title
;
Structure prediction by ZEFSAII (Michael W. Deem and Ramdas Pophale) SiO2 
 PCOD9565241
Probable space group: P 4/N M M
;
_chemical_formula_sum "Si O2"
_cell_formula_units_Z 96
_cell_length_a 15.152854
_cell_length_b 15.152854
_cell_length_c 25.948124
_cell_angle_alpha 90.000000
_cell_angle_beta 90.000000
_cell_angle_gamma 90.000000
_cell_volume 5957.922397
_symmetry_space_group_name_H-M "P 4/N M M"
_symmetry_group_IT_number 129
_symmetry_cell_setting 'tetragonal'
loop_
_space_group_symop_operation_xyz
x,y,z
1/2-y,x,z
1/2-x,1/2-y,z
y,1/2-x,z
1/2+x,-y,-z
-x,1/2+y,-z
1/2+y,1/2+x,-z
-y,-x,-z
-x,-y,-z
1/2+y,-x,-z
1/2+x,1/2+y,-z
-y,1/2+x,-z
1/2-x,y,z
x,1/2-y,z
1/2-y,1/2-x,z
y,x,z
loop_
_atom_site_type_symbol
_atom_site_label
_atom_site_fract_x
_atom_site_fract_y
_atom_site_fract_z
Si Si1 0.352065 0.852763 0.773983
Si Si2 0.998443 0.646797 0.689726
Si Si3 0.144012 0.996258 0.978433
Si Si4 0.350817 0.495242 0.855041
Si Si5 0.578159 0.150779 0.422911
Si Si6 0.844517 0.514133 0.468293
O O1 0.250000 0.864792 0.757216
O O2 0.362233 0.750000 0.788766
O O3 0.420348 0.871343 0.728226
O O4 0.368134 0.917178 0.821935
O O5 0.974246 0.750000 0.695347
O O6 0.917737 0.582264 0.700837
O O7 0.030892 0.633929 0.631060
O O8 0.250000 0.999719 0.993022
O O9 0.084977 0.084977 0.991610
O O10 0.142119 0.988833 0.916264
O O11 0.087533 0.912468 0.000000
O O12 0.250000 0.467310 0.844588
O O13 0.419856 0.419856 0.840613
O O14 0.615318 0.250000 0.421700
O O15 0.510971 0.147283 0.471344
O O16 0.647921 0.076276 0.436813
O O17 0.750000 0.556930 0.460023
O O18 0.924128 0.575873 0.452943
#
# Coordination Sequence:
#
# PCOD9565241 Si02
#       6
#    16  16  16  16  16  16
#     4   9  18  31  46  66  91 119 152 188 225 265
#     4  10  19  31  48  68  91 118 147 181 221 266
#     4   9  18  31  47  70  98 127 161 199 238 281
#     4   9  17  30  48  69  94 122 152 189 231 274
#     4   9  18  32  49  67  87 113 146 185 226 262
#     4  10  19  31  47  66  91 119 145 177 216 262
#
# _framework density 16.113001000000001
#
# number of rings (size 3 to 8) (size 9 to 14) (size 15 to 20)
#    0.000    2.667    0.000    2.500    0.000    2.500 
#    0.000    6.667    0.000    3.000    0.000    0.000 
#    0.000    8.000    0.000    0.000    0.000    0.167 
#
# Total GULP energy -534444.200139 kJ/mol
# GULP energy per Si atom -5567.127085 kJ/mol
# Density = 1.607633 g / cm^3
# Si number density = 16.113001 Si / 1000 Ang^3
#
#
#
# Elastic Constant Matrix: (Units=GPa)
#
#
# Indices 1 2 3 4 5 6 
#
# 1 102.3105 76.4933 43.7180 0.0000 0.0000 0.0000
# 2 76.4933 102.3109 43.7178 0.0000 0.0000 0.0000
# 3 43.7180 43.7178 43.8795 0.0000 0.0000 0.0000
# 4 0.0000 0.0000 0.0000 17.8444 0.0000 0.0000
# 5 0.0000 0.0000 0.0000 0.0000 17.8444 0.0000
# 6 0.0000 0.0000 0.0000 0.0000 0.0000 16.2874
#
#
#
# Elastic Compliance Matrix: (Units=1/GPa)
#
#
# Indices 1 2 3 4 5 6 
#
# 1 0.024820 -0.013914 -0.010866 0.000000 0.000000 0.000000
# 2 -0.013914 0.024820 -0.010866 0.000000 0.000000 0.000000
# 3 -0.010866 -0.010866 0.044442 0.000000 0.000000 0.000000
# 4 0.000000 0.000000 0.000000 0.056040 0.000000 0.000000
# 5 0.000000 0.000000 0.000000 0.000000 0.056040 0.000000
# 6 0.000000 0.000000 0.000000 0.000000 0.000000 0.061397
#
#
# Mechanical properties :
#
#
# Convention : Reuss Voigt Hill
#
# Bulk Modulus (GPa) = 43.87893 64.03990 53.95942
# Shear Modulus (GPa) = 14.43221 16.03337 15.23279
#
# Velocity S-wave (km/s) = 2.99605 3.15788 3.07803
# Velocity P-wave (km/s) = 6.26574 7.28881 6.79655
#
# Compressibility (1/GPa) = 0.02278998
#
# Stress axis : x y z
#
# Youngs Moduli (GPa) = 40.28985 40.29034 22.50129
#
# Poissons Ratio (x) = 0.56059 0.24451
# Poissons Ratio (y) = 0.56058 0.24450
# Poissons Ratio (z) = 0.43780 0.43779
#
# Static dielectric constant tensor:
#      x y z
#    x 1.544500 0.000000 0.000000 
#    y 0.000000 1.544500 0.000000 
#    z 0.000000 0.000000 1.515850 
# 
# From -- ./inp_files/6508.got.cif
#   From: 2010.05.17/outbox.cif.g08.bks.cpg/sg129_4_cif.got.tgz:6508.got - 2010.05.20 12:12:06.
