data_PCOD9565998
_publ_section_title
;
Structure prediction by ZEFSAII (Michael W. Deem and Ramdas Pophale) SiO2 
 PCOD9565998
Probable space group: P 4/N C C
;
_chemical_formula_sum "Si O2"
_cell_formula_units_Z 64
_cell_length_a 12.382121
_cell_length_b 12.382121
_cell_length_c 18.575734
_cell_angle_alpha 90.000000
_cell_angle_beta 90.000000
_cell_angle_gamma 90.000000
_cell_volume 2847.974332
_symmetry_space_group_name_H-M "P 4/N C C"
_symmetry_group_IT_number 130
_symmetry_cell_setting 'tetragonal'
loop_
_space_group_symop_operation_xyz
x,y,z
1/2-y,x,z
1/2-x,1/2-y,z
y,1/2-x,z
1/2+x,-y,1/2-z
-x,1/2+y,1/2-z
1/2+y,1/2+x,1/2-z
-y,-x,1/2-z
-x,-y,-z
1/2+y,-x,-z
1/2+x,1/2+y,-z
-y,1/2+x,-z
1/2-x,y,1/2+z
x,1/2-y,1/2+z
1/2-y,1/2-x,1/2+z
y,x,1/2+z
loop_
_atom_site_type_symbol
_atom_site_label
_atom_site_fract_x
_atom_site_fract_y
_atom_site_fract_z
Si Si1 0.568861 0.109092 0.502113
Si Si2 0.737839 0.566269 0.237423
Si Si3 0.373328 0.748075 0.124326
Si Si4 0.269477 0.429206 0.602340
O O1 0.611198 0.139525 0.423291
O O2 0.657864 0.111352 0.564890
O O3 0.493567 0.206952 0.530441
O O4 0.500000 0.000000 0.500000
O O5 0.847060 0.639335 0.229130
O O6 0.740077 0.467550 0.182396
O O7 0.727166 0.519003 0.318412
O O8 0.250000 0.750000 0.151316
O O9 0.159098 0.364456 0.601673
#
# Coordination Sequence:
#
# PCOD9565998 Si02
#       4
#    16  16  16  16
#     4  12  23  40  67  91 131 180 227 274 344 408
#     4   9  20  43  72 100 129 175 238 293 334 400
#     4  12  24  43  60  96 142 176 219 279 351 419
#     4   9  20  40  68  99 131 167 228 291 337 391
#
# _framework density 22.472111999999999
#
# number of rings (size 3 to 8) (size 9 to 14) (size 15 to 20)
#    0.000    1.500    2.500    4.500    0.000    1.000 
#    0.000    6.250    0.000    0.000    0.000    0.000 
#    0.000    0.000    0.000    0.000    0.000    0.000 
#
# Total GULP energy -357661.361567 kJ/mol
# GULP energy per Si atom -5588.458774 kJ/mol
# Density = 2.242096 g / cm^3
# Si number density = 22.472112 Si / 1000 Ang^3
#
#
#
# Elastic Constant Matrix: (Units=GPa)
#
#
# Indices 1 2 3 4 5 6 
#
# 1 100.8225 22.2848 43.4913 0.0000 0.0000 0.0000
# 2 22.2848 100.8225 43.4913 0.0000 0.0000 0.0000
# 3 43.4913 43.4913 104.5150 0.0000 0.0000 0.0000
# 4 0.0000 0.0000 0.0000 42.1699 0.0000 0.0000
# 5 0.0000 0.0000 0.0000 0.0000 42.1699 0.0000
# 6 0.0000 0.0000 0.0000 0.0000 0.0000 29.8749
#
#
#
# Elastic Compliance Matrix: (Units=1/GPa)
#
#
# Indices 1 2 3 4 5 6 
#
# 1 0.012119 -0.000613 -0.004788 0.000000 0.000000 0.000000
# 2 -0.000613 0.012119 -0.004788 0.000000 0.000000 0.000000
# 3 -0.004788 -0.004788 0.013553 0.000000 0.000000 0.000000
# 4 0.000000 0.000000 0.000000 0.023714 0.000000 0.000000
# 5 0.000000 0.000000 0.000000 0.000000 0.023714 0.000000
# 6 0.000000 0.000000 0.000000 0.000000 0.000000 0.033473
#
#
# Mechanical properties :
#
#
# Convention : Reuss Voigt Hill
#
# Bulk Modulus (GPa) = 57.42842 58.29942 57.86392
# Shear Modulus (GPa) = 34.51270 35.96913 35.24091
#
# Velocity S-wave (km/s) = 3.92318 4.00511 3.96435
# Velocity P-wave (km/s) = 6.79211 6.88383 6.83812
#
# Compressibility (1/GPa) = 0.01741298
#
# Stress axis : x y z
#
# Youngs Moduli (GPa) = 82.51277 82.51277 73.78577
#
# Poissons Ratio (x) = 0.05061 0.35328
# Poissons Ratio (y) = 0.05061 0.35328
# Poissons Ratio (z) = 0.39506 0.39506
#
# Static dielectric constant tensor:
#      x y z
#    x 1.882520 0.000000 0.000000 
#    y 0.000000 1.882520 0.000000 
#    z 0.000000 0.000000 1.800060 
# 
# From -- ./inp_files/3490.got.cif
#   From: 2010.05.17/outbox.cif.g08.bks.cpg/sg130_2_cif.got.tgz:3490.got - 2010.05.20 12:17:35.
