data_PCOD9565231
_publ_section_title
;
Structure prediction by ZEFSAII (Michael W. Deem and Ramdas Pophale) SiO2 
 PCOD9565231
Probable space group: P 4/N M M
;
_chemical_formula_sum "Si O2"
_cell_formula_units_Z 112
_cell_length_a 24.223063
_cell_length_b 24.223063
_cell_length_c 12.169181
_cell_angle_alpha 90.000000
_cell_angle_beta 90.000000
_cell_angle_gamma 90.000000
_cell_volume 7140.349472
_symmetry_space_group_name_H-M "P 4/N M M"
_symmetry_group_IT_number 129
_symmetry_cell_setting 'tetragonal'
loop_
_space_group_symop_operation_xyz
x,y,z
1/2-y,x,z
1/2-x,1/2-y,z
y,1/2-x,z
1/2+x,-y,-z
-x,1/2+y,-z
1/2+y,1/2+x,-z
-y,-x,-z
-x,-y,-z
1/2+y,-x,-z
1/2+x,1/2+y,-z
-y,1/2+x,-z
1/2-x,y,z
x,1/2-y,z
1/2-y,1/2-x,z
y,x,z
loop_
_atom_site_type_symbol
_atom_site_label
_atom_site_fract_x
_atom_site_fract_y
_atom_site_fract_z
Si Si1 0.991196 0.686463 0.328532
Si Si2 0.609270 0.980995 0.996990
Si Si3 0.407399 0.499843 0.490262
Si Si4 0.917106 0.492043 0.753099
Si Si5 0.870137 0.073592 0.173007
Si Si6 0.688416 0.186691 0.867811
Si Si7 0.403861 0.185031 0.859294
O O1 0.991085 0.750000 0.364526
O O2 0.936628 0.675618 0.255102
O O3 0.997555 0.643266 0.426631
O O4 0.040592 0.675385 0.242272
O O5 0.550483 0.949517 0.019688
O O6 0.655233 0.940286 0.046668
O O7 0.617779 0.038404 0.062023
O O8 0.612332 0.990119 0.866374
O O9 0.444751 0.555250 0.500000
O O10 0.449471 0.449471 0.514018
O O11 0.388727 0.495469 0.362985
O O12 0.928352 0.427498 0.762467
O O13 0.974503 0.525498 0.749623
O O14 0.851039 0.136427 0.160307
O O15 0.750000 0.168005 0.832201
O O16 0.680476 0.250000 0.828606
O O17 0.689209 0.189209 0.000000
O O18 0.400157 0.250000 0.877977
O O19 0.345701 0.154300 0.855571
#
# Coordination Sequence:
#
# PCOD9565231 Si02
#       7
#    16  16  16  16  16  16  16
#     4  10  20  33  50  72  99 129 162 204 253 298
#     4   9  18  30  45  72 106 131 154 193 246 300
#     4  10  19  33  52  72  96 127 166 208 246 295
#     4  10  19  30  48  73  99 125 158 200 244 292
#     4  11  18  29  49  71  94 124 159 194 243 302
#     4   9  18  31  44  60  86 120 158 199 237 276
#     4   9  18  32  51  75 104 136 167 201 243 294
#
# _framework density 15.685506999999999
#
# number of rings (size 3 to 8) (size 9 to 14) (size 15 to 20)
#    0.000    2.286    1.429    3.000    0.000    3.000 
#    0.000    2.143    0.000    0.000    0.000    0.000 
#    0.000    0.000    0.000    9.000    0.000    0.000 
#
# Total GULP energy -624025.292230 kJ/mol
# GULP energy per Si atom -5571.654395 kJ/mol
# Density = 1.564981 g / cm^3
# Si number density = 15.685507 Si / 1000 Ang^3
#
#
#
# Elastic Constant Matrix: (Units=GPa)
#
#
# Indices 1 2 3 4 5 6 
#
# 1 75.3369 52.6866 42.9731 0.0000 0.0000 0.0000
# 2 52.6866 75.3371 42.9741 0.0000 0.0000 0.0000
# 3 42.9731 42.9741 93.1111 0.0000 0.0000 0.0000
# 4 0.0000 0.0000 0.0000 15.1797 0.0000 0.0000
# 5 0.0000 0.0000 0.0000 0.0000 15.1797 0.0000
# 6 0.0000 0.0000 0.0000 0.0000 0.0000 17.1809
#
#
#
# Elastic Compliance Matrix: (Units=1/GPa)
#
#
# Indices 1 2 3 4 5 6 
#
# 1 0.027733 -0.016416 -0.005223 0.000000 0.000000 0.000000
# 2 -0.016416 0.027734 -0.005224 0.000000 0.000000 0.000000
# 3 -0.005223 -0.005224 0.015561 0.000000 0.000000 0.000000
# 4 0.000000 0.000000 0.000000 0.065877 0.000000 0.000000
# 5 0.000000 0.000000 0.000000 0.000000 0.065878 0.000000
# 6 0.000000 0.000000 0.000000 0.000000 0.000000 0.058204
#
#
# Mechanical properties :
#
#
# Convention : Reuss Voigt Hill
#
# Bulk Modulus (GPa) = 57.79331 57.89475 57.84403
# Shear Modulus (GPa) = 15.60155 16.51815 16.05985
#
# Velocity S-wave (km/s) = 3.15722 3.24865 3.20326
# Velocity P-wave (km/s) = 7.08631 7.14573 7.11608
#
# Compressibility (1/GPa) = 0.01730304
#
# Stress axis : x y z
#
# Youngs Moduli (GPa) = 36.05757 36.05711 64.26133
#
# Poissons Ratio (x) = 0.59191 0.33565
# Poissons Ratio (y) = 0.59191 0.33569
# Poissons Ratio (z) = 0.18834 0.18836
#
# Static dielectric constant tensor:
#      x y z
#    x 1.521440 0.000000 0.000000 
#    y 0.000000 1.521440 0.000000 
#    z 0.000000 0.000000 1.533830 
# 
# From -- ./inp_files/4059.got.cif
#   From: 2010.05.17/outbox.cif.g08.bks.cpg/sg129_3_cif.got.tgz:4059.got - 2010.05.20 12:12:06.
