data_PCOD9565283
_publ_section_title
;
Structure prediction by ZEFSAII (Michael W. Deem and Ramdas Pophale) SiO2 
 PCOD9565283
Probable space group: P 4/N M M
;
_chemical_formula_sum "Si O2"
_cell_formula_units_Z 64
_cell_length_a 20.109025
_cell_length_b 20.109025
_cell_length_c 10.057884
_cell_angle_alpha 90.000000
_cell_angle_beta 90.000000
_cell_angle_gamma 90.000000
_cell_volume 4067.135585
_symmetry_space_group_name_H-M "P 4/N M M"
_symmetry_group_IT_number 129
_symmetry_cell_setting 'tetragonal'
loop_
_space_group_symop_operation_xyz
x,y,z
1/2-y,x,z
1/2-x,1/2-y,z
y,1/2-x,z
1/2+x,-y,-z
-x,1/2+y,-z
1/2+y,1/2+x,-z
-y,-x,-z
-x,-y,-z
1/2+y,-x,-z
1/2+x,1/2+y,-z
-y,1/2+x,-z
1/2-x,y,z
x,1/2-y,z
1/2-y,1/2-x,z
y,x,z
loop_
_atom_site_type_symbol
_atom_site_label
_atom_site_fract_x
_atom_site_fract_y
_atom_site_fract_z
Si Si1 0.937794 0.671122 0.327139
Si Si2 0.395934 0.993568 0.425320
Si Si3 0.053579 0.672021 0.128094
Si Si4 0.572890 0.171638 0.175483
O O1 0.927586 0.750000 0.317433
O O2 0.870774 0.629227 0.310658
O O3 0.969992 0.651037 0.468166
O O4 0.991735 0.648912 0.216635
O O5 0.431548 0.931548 0.500000
O O6 0.355105 0.970973 0.296895
O O7 0.455319 0.044682 0.389246
O O8 0.062178 0.750000 0.153866
O O9 0.121529 0.635227 0.167239
O O10 0.040400 0.663726 0.970851
O O11 0.589069 0.250000 0.191855
#
# Coordination Sequence:
#
# PCOD9565283 Si02
#       4
#    16  16  16  16
#     4  10  20  35  54  75 102 133 167 210 253 297
#     4  10  19  32  50  74 100 129 165 205 252 300
#     4   9  19  33  49  72 101 133 168 206 249 297
#     4  10  19  32  51  73  99 133 170 207 248 297
#
# _framework density 15.735891000000001
#
# number of rings (size 3 to 8) (size 9 to 14) (size 15 to 20)
#    0.000    2.250    2.500    0.750    0.000    1.750 
#    0.000    5.000    0.000    0.000    0.000    0.000 
#    0.000    6.000    0.000    0.000    0.000    0.000 
#
# Total GULP energy -356604.747033 kJ/mol
# GULP energy per Si atom -5571.949172 kJ/mol
# Density = 1.570008 g / cm^3
# Si number density = 15.735891 Si / 1000 Ang^3
#
#
#
# Elastic Constant Matrix: (Units=GPa)
#
#
# Indices 1 2 3 4 5 6 
#
# 1 86.0222 52.8860 55.7645 0.0000 0.0000 0.0000
# 2 52.8860 86.0222 55.7645 0.0000 0.0000 0.0000
# 3 55.7645 55.7645 101.3283 0.0000 0.0000 0.0000
# 4 0.0000 0.0000 0.0000 23.2198 0.0000 0.0000
# 5 0.0000 0.0000 0.0000 0.0000 23.2198 0.0000
# 6 0.0000 0.0000 0.0000 0.0000 0.0000 18.4326
#
#
#
# Elastic Compliance Matrix: (Units=1/GPa)
#
#
# Indices 1 2 3 4 5 6 
#
# 1 0.021538 -0.008640 -0.007098 0.000000 0.000000 0.000000
# 2 -0.008640 0.021538 -0.007098 0.000000 0.000000 0.000000
# 3 -0.007098 -0.007098 0.017682 0.000000 0.000000 0.000000
# 4 0.000000 0.000000 0.000000 0.043067 0.000000 0.000000
# 5 0.000000 0.000000 0.000000 0.000000 0.043067 0.000000
# 6 0.000000 0.000000 0.000000 0.000000 0.000000 0.054252
#
#
# Mechanical properties :
#
#
# Convention : Reuss Voigt Hill
#
# Bulk Modulus (GPa) = 66.29132 66.91141 66.60137
# Shear Modulus (GPa) = 19.85343 20.23828 20.04586
#
# Velocity S-wave (km/s) = 3.55585 3.59015 3.57304
# Velocity P-wave (km/s) = 7.68620 7.73300 7.70964
#
# Compressibility (1/GPa) = 0.01508493
#
# Stress axis : x y z
#
# Youngs Moduli (GPa) = 46.42883 46.42883 56.55514
#
# Poissons Ratio (x) = 0.40115 0.40145
# Poissons Ratio (y) = 0.40115 0.40145
# Poissons Ratio (z) = 0.32957 0.32957
#
# Static dielectric constant tensor:
#      x y z
#    x 1.511590 0.000000 0.000000 
#    y 0.000000 1.511590 0.000000 
#    z 0.000000 0.000000 1.530870 
# 
# From -- ./inp_files/2047.got.cif
#   From: 2010.05.17/outbox.cif.g08.bks.cpg/sg129_2_cif.got.tgz:2047.got - 2010.05.20 12:12:06.
