data_PCOD9565412
_publ_section_title
;
Structure prediction by ZEFSAII (Michael W. Deem and Ramdas Pophale) SiO2 
 PCOD9565412
Probable space group: P 4/N M M
;
_chemical_formula_sum "Si O2"
_cell_formula_units_Z 128
_cell_length_a 17.960346
_cell_length_b 17.960346
_cell_length_c 21.244131
_cell_angle_alpha 90.000000
_cell_angle_beta 90.000000
_cell_angle_gamma 90.000000
_cell_volume 6852.804917
_symmetry_space_group_name_H-M "P 4/N M M"
_symmetry_group_IT_number 129
_symmetry_cell_setting 'tetragonal'
loop_
_space_group_symop_operation_xyz
x,y,z
1/2-y,x,z
1/2-x,1/2-y,z
y,1/2-x,z
1/2+x,-y,-z
-x,1/2+y,-z
1/2+y,1/2+x,-z
-y,-x,-z
-x,-y,-z
1/2+y,-x,-z
1/2+x,1/2+y,-z
-y,1/2+x,-z
1/2-x,y,z
x,1/2-y,z
1/2-y,1/2-x,z
y,x,z
loop_
_atom_site_type_symbol
_atom_site_label
_atom_site_fract_x
_atom_site_fract_y
_atom_site_fract_z
Si Si1 0.462794 0.161600 0.261079
Si Si2 0.169014 0.050315 0.966911
Si Si3 0.580164 0.046550 0.629731
Si Si4 0.552642 0.068987 0.162176
Si Si5 0.336621 0.040081 0.618626
Si Si6 0.903224 0.169799 0.051437
Si Si7 0.663781 0.957700 0.533344
Si Si8 0.455172 0.335283 0.814568
O O1 0.451015 0.250000 0.259411
O O2 0.386853 0.113147 0.268497
O O3 0.518653 0.136862 0.316921
O O4 0.504241 0.129438 0.199355
O O5 0.250000 0.084469 0.979508
O O6 0.103759 0.103759 0.986811
O O7 0.165118 0.040321 0.891351
O O8 0.163899 0.976142 0.007601
O O9 0.538537 0.125115 0.637373
O O10 0.511451 0.988550 0.631852
O O11 0.623214 0.028615 0.564768
O O12 0.592781 0.107999 0.104357
O O13 0.495454 0.004547 0.140453
O O14 0.613269 0.025122 0.204478
O O15 0.250000 0.047924 0.637936
O O16 0.390502 0.109499 0.638329
O O17 0.338202 0.039091 0.542204
O O18 0.900734 0.250000 0.082486
O O19 0.839343 0.160658 0.000000
O O20 0.750000 0.951952 0.553303
O O21 0.614461 0.885540 0.552682
O O22 0.456857 0.250000 0.793451
O O23 0.380151 0.380151 0.797704
#
# Coordination Sequence:
#
# PCOD9565412 Si02
#       8
#    16  16  16  16  16  16  16  16
#     4  10  21  37  57  81 106 135 171 210 253 296
#     4   9  17  28  44  67  92 118 147 181 226 280
#     4   9  17  31  50  71 100 138 179 218 254 302
#     4  10  20  34  54  75  99 132 169 205 243 297
#     4   9  17  29  48  75 105 137 174 216 264 314
#     4  11  21  32  48  69  94 124 159 201 246 293
#     4   9  16  26  44  72 104 139 176 216 263 311
#     4   9  17  30  49  73  99 126 157 195 241 292
#
# _framework density 18.678483
#
# number of rings (size 3 to 8) (size 9 to 14) (size 15 to 20)
#    0.000    2.500    1.250    1.500    0.000    2.750 
#    0.000    3.125    0.000    5.625    0.000    5.250 
#    0.000    5.000    0.000    0.000    0.000    0.000 
#
# Total GULP energy -713206.877976 kJ/mol
# GULP energy per Si atom -5571.928734 kJ/mol
# Density = 1.863597 g / cm^3
# Si number density = 18.678483 Si / 1000 Ang^3
#
#
#
# Elastic Constant Matrix: (Units=GPa)
#
#
# Indices 1 2 3 4 5 6 
#
# 1 120.0793 69.4378 15.7247 0.0000 0.0000 0.0000
# 2 69.4378 120.0786 15.7249 0.0000 0.0000 0.0000
# 3 15.7247 15.7249 38.2595 0.0000 0.0000 0.0000
# 4 0.0000 0.0000 0.0000 10.2545 0.0000 0.0000
# 5 0.0000 0.0000 0.0000 0.0000 10.2548 0.0000
# 6 0.0000 0.0000 0.0000 0.0000 0.0000 12.7702
#
#
#
# Elastic Compliance Matrix: (Units=1/GPa)
#
#
# Indices 1 2 3 4 5 6 
#
# 1 0.012705 -0.007042 -0.002327 0.000000 0.000000 0.000000
# 2 -0.007042 0.012705 -0.002328 0.000000 0.000000 0.000000
# 3 -0.002327 -0.002328 0.028050 0.000000 0.000000 0.000000
# 4 0.000000 0.000000 0.000000 0.097518 0.000000 0.000000
# 5 0.000000 0.000000 0.000000 0.000000 0.097516 0.000000
# 6 0.000000 0.000000 0.000000 0.000000 0.000000 0.078307
#
#
# Mechanical properties :
#
#
# Convention : Reuss Voigt Hill
#
# Bulk Modulus (GPa) = 33.25982 53.35471 43.30727
# Shear Modulus (GPa) = 13.88051 18.49122 16.18587
#
# Velocity S-wave (km/s) = 2.72900 3.14980 2.94692
# Velocity P-wave (km/s) = 5.27020 6.46955 5.90043
#
# Compressibility (1/GPa) = 0.03006631
#
# Stress axis : x y z
#
# Youngs Moduli (GPa) = 78.71075 78.71018 35.65005
#
# Poissons Ratio (x) = 0.55428 0.08297
# Poissons Ratio (y) = 0.55428 0.08298
# Poissons Ratio (z) = 0.18319 0.18320
#
# Static dielectric constant tensor:
#      x y z
#    x 1.649470 0.000000 0.000000 
#    y 0.000000 1.649470 0.000000 
#    z 0.000000 0.000000 1.685570 
# 
# From -- ./inp_files/7292.got.cif
#   From: 2010.05.17/outbox.cif.g08.bks.cpg/sg129_4_cif.got.tgz:7292.got - 2010.05.20 12:12:06.
