data_PCOD9565416
_publ_section_title
;
Structure prediction by ZEFSAII (Michael W. Deem and Ramdas Pophale) SiO2 
 PCOD9565416
Probable space group: P 4/N M M
;
_chemical_formula_sum "Si O2"
_cell_formula_units_Z 88
_cell_length_a 19.068409
_cell_length_b 19.068409
_cell_length_c 14.261045
_cell_angle_alpha 90.000000
_cell_angle_beta 90.000000
_cell_angle_gamma 90.000000
_cell_volume 5185.376169
_symmetry_space_group_name_H-M "P 4/N M M"
_symmetry_group_IT_number 129
_symmetry_cell_setting 'tetragonal'
loop_
_space_group_symop_operation_xyz
x,y,z
1/2-y,x,z
1/2-x,1/2-y,z
y,1/2-x,z
1/2+x,-y,-z
-x,1/2+y,-z
1/2+y,1/2+x,-z
-y,-x,-z
-x,-y,-z
1/2+y,-x,-z
1/2+x,1/2+y,-z
-y,1/2+x,-z
1/2-x,y,z
x,1/2-y,z
1/2-y,1/2-x,z
y,x,z
loop_
_atom_site_type_symbol
_atom_site_label
_atom_site_fract_x
_atom_site_fract_y
_atom_site_fract_z
Si Si1 0.552484 0.829253 0.899182
Si Si2 0.750000 0.365205 0.486916
Si Si3 0.750000 0.507816 0.571674
Si Si4 0.065960 0.832476 0.055556
Si Si5 0.878317 0.503747 0.703020
Si Si6 0.893209 0.486320 0.252816
Si Si7 0.750000 0.006416 0.360917
O O1 0.580269 0.750000 0.895605
O O2 0.614086 0.885914 0.903234
O O3 0.507205 0.843133 0.805454
O O4 0.501357 0.836238 0.987429
O O5 0.817122 0.317122 0.500000
O O6 0.750000 0.423481 0.566711
O O7 0.750000 0.411056 0.391819
O O8 0.820306 0.524137 0.627222
O O9 0.750000 0.530913 0.463112
O O10 0.081377 0.750000 0.073275
O O11 0.044375 0.871688 0.151299
O O12 0.128325 0.871676 0.000000
O O13 0.936560 0.563440 0.702197
O O14 0.922397 0.432029 0.692403
O O15 0.949425 0.550576 0.245373
O O16 0.821270 0.508029 0.304513
#
# Coordination Sequence:
#
# PCOD9565416 Si02
#       7
#    16   8   8  16  16  16   8
#     4  10  20  34  54  83 112 144 184 229 286 344
#     4   9  18  34  54  76 107 151 191 227 286 349
#     4  10  21  36  55  76 119 149 185 248 298 334
#     4  11  22  38  60  86 121 156 189 234 286 354
#     4  10  20  34  57  86 112 147 192 238 290 347
#     4  11  22  38  62  88 116 153 200 246 295 347
#     4  10  23  38  55  86 114 151 196 245 294 344
#
# _framework density 16.970804000000001
#
# number of rings (size 3 to 8) (size 9 to 14) (size 15 to 20)
#    0.545    1.182    3.636    1.636    0.000    1.818 
#    0.000    1.818    0.000    0.545    0.000    1.273 
#    0.000    0.000    0.000    0.000    0.000    0.000 
#
# Total GULP energy -490129.894233 kJ/mol
# GULP energy per Si atom -5569.657889 kJ/mol
# Density = 1.693218 g / cm^3
# Si number density = 16.970804 Si / 1000 Ang^3
#
#
#
# Elastic Constant Matrix: (Units=GPa)
#
#
# Indices 1 2 3 4 5 6 
#
# 1 82.0151 25.5473 20.9171 0.0000 0.0000 0.0000
# 2 25.5473 82.0171 20.9181 0.0000 0.0000 0.0000
# 3 20.9171 20.9181 85.3354 0.0000 0.0000 0.0000
# 4 0.0000 0.0000 0.0000 13.3933 0.0000 0.0000
# 5 0.0000 0.0000 0.0000 0.0000 13.3891 0.0000
# 6 0.0000 0.0000 0.0000 0.0000 0.0000 11.1920
#
#
#
# Elastic Compliance Matrix: (Units=1/GPa)
#
#
# Indices 1 2 3 4 5 6 
#
# 1 0.013993 -0.003716 -0.002519 0.000000 0.000000 0.000000
# 2 -0.003716 0.013993 -0.002519 0.000000 0.000000 0.000000
# 3 -0.002519 -0.002519 0.012953 0.000000 0.000000 0.000000
# 4 0.000000 0.000000 0.000000 0.074664 0.000000 0.000000
# 5 0.000000 0.000000 0.000000 0.000000 0.074688 0.000000
# 6 0.000000 0.000000 0.000000 0.000000 0.000000 0.089349
#
#
# Mechanical properties :
#
#
# Convention : Reuss Voigt Hill
#
# Bulk Modulus (GPa) = 42.67944 42.68140 42.68042
# Shear Modulus (GPa) = 16.39566 19.72722 18.06144
#
# Velocity S-wave (km/s) = 3.11160 3.41313 3.26585
# Velocity P-wave (km/s) = 6.17355 6.38256 6.27893
#
# Compressibility (1/GPa) = 0.02343049
#
# Stress axis : x y z
#
# Youngs Moduli (GPa) = 71.46494 71.46641 77.19981
#
# Poissons Ratio (x) = 0.26558 0.19446
# Poissons Ratio (y) = 0.26557 0.19447
# Poissons Ratio (z) = 0.18002 0.18003
#
# Static dielectric constant tensor:
#      x y z
#    x 1.614700 0.000000 0.000000 
#    y 0.000000 1.614700 0.000000 
#    z 0.000000 0.000000 1.593290 
# 
# From -- ./inp_files/4832.got.cif
#   From: 2010.05.17/outbox.cif.g08.bks.cpg/sg129_3_cif.got.tgz:4832.got - 2010.05.20 12:12:06.
