data_PCOD9565844
_publ_section_title
;
Structure prediction by ZEFSAII (Michael W. Deem and Ramdas Pophale) SiO2 
 PCOD9565844
Probable space group: P 4/N C C
;
_chemical_formula_sum "Si O2"
_cell_formula_units_Z 84
_cell_length_a 11.033845
_cell_length_b 11.033845
_cell_length_c 28.823225
_cell_angle_alpha 90.000000
_cell_angle_beta 90.000000
_cell_angle_gamma 90.000000
_cell_volume 3509.104727
_symmetry_space_group_name_H-M "P 4/N C C"
_symmetry_group_IT_number 130
_symmetry_cell_setting 'tetragonal'
loop_
_space_group_symop_operation_xyz
x,y,z
1/2-y,x,z
1/2-x,1/2-y,z
y,1/2-x,z
1/2+x,-y,1/2-z
-x,1/2+y,1/2-z
1/2+y,1/2+x,1/2-z
-y,-x,1/2-z
-x,-y,-z
1/2+y,-x,-z
1/2+x,1/2+y,-z
-y,1/2+x,-z
1/2-x,y,1/2+z
x,1/2-y,1/2+z
1/2-y,1/2-x,1/2+z
y,x,1/2+z
loop_
_atom_site_type_symbol
_atom_site_label
_atom_site_fract_x
_atom_site_fract_y
_atom_site_fract_z
Si Si1 0.250000 0.250000 0.256440
Si Si2 0.338219 0.518145 0.285418
Si Si3 0.687117 0.556896 0.068412
Si Si4 0.707254 0.554728 0.958377
Si Si5 0.618699 0.200693 0.611769
Si Si6 0.423080 0.916748 0.194100
O O1 0.306734 0.390075 0.260288
O O2 0.375787 0.624214 0.250000
O O3 0.458377 0.494963 0.314957
O O4 0.223343 0.548692 0.315878
O O5 0.824867 0.603012 0.079054
O O6 0.635873 0.434763 0.090850
O O7 0.691412 0.531183 0.012908
O O8 0.839602 0.612017 0.948564
O O9 0.707692 0.441210 0.924819
O O10 0.750000 0.250000 0.622075
O O11 0.546591 0.184751 0.660359
O O12 0.412306 0.912306 0.250000
#
# Coordination Sequence:
#
# PCOD9565844 Si02
#       6
#     4  16  16  16  16  16
#     4   8  16  36  56 100 108 140 220 262 328 388
#     4   9  19  38  68  81 120 167 208 269 330 376
#     4   9  22  44  69  98 132 175 217 277 342 393
#     4   9  22  46  70  93 136 179 215 270 337 402
#     4  12  28  37  67 102 132 176 224 271 331 401
#     4  10  24  43  60  93 126 172 216 277 321 388
#
# _framework density 23.937729999999998
#
# number of rings (size 3 to 8) (size 9 to 14) (size 15 to 20)
#    0.000    2.286    0.000    1.143   10.667    1.524 
#    3.429    0.000    0.000    0.000    0.000    0.000 
#    0.000    0.000    0.000    0.000    0.000    0.000 
#
# Total GULP energy -468202.371893 kJ/mol
# GULP energy per Si atom -5573.837761 kJ/mol
# Density = 2.388325 g / cm^3
# Si number density = 23.937730 Si / 1000 Ang^3
#
#
#
# Elastic Constant Matrix: (Units=GPa)
#
#
# Indices 1 2 3 4 5 6 
#
# 1 41.4773 6.6735 16.6165 0.0000 0.0000 0.0000
# 2 6.6735 41.4760 16.6157 0.0000 0.0000 0.0000
# 3 16.6165 16.6157 61.0926 0.0000 0.0000 0.0000
# 4 0.0000 0.0000 0.0000 13.6967 0.0000 0.0000
# 5 0.0000 0.0000 0.0000 0.0000 13.6968 0.0000
# 6 0.0000 0.0000 0.0000 0.0000 0.0000 44.0465
#
#
#
# Elastic Compliance Matrix: (Units=1/GPa)
#
#
# Indices 1 2 3 4 5 6 
#
# 1 0.027150 -0.001583 -0.006954 0.000000 0.000000 0.000000
# 2 -0.001583 0.027151 -0.006954 0.000000 0.000000 0.000000
# 3 -0.006954 -0.006954 0.020151 0.000000 0.000000 0.000000
# 4 0.000000 0.000000 0.000000 0.073010 0.000000 0.000000
# 5 0.000000 0.000000 0.000000 0.000000 0.073010 0.000000
# 6 0.000000 0.000000 0.000000 0.000000 0.000000 0.022703
#
#
# Mechanical properties :
#
#
# Convention : Reuss Voigt Hill
#
# Bulk Modulus (GPa) = 23.00382 24.87304 23.93843
# Shear Modulus (GPa) = 17.32219 21.23069 19.27644
#
# Velocity S-wave (km/s) = 2.69297 2.98134 2.84081
# Velocity P-wave (km/s) = 4.39319 4.71852 4.55876
#
# Compressibility (1/GPa) = 0.04347104
#
# Stress axis : x y z
#
# Youngs Moduli (GPa) = 36.83229 36.83137 49.62458
#
# Poissons Ratio (x) = 0.05829 0.34509
# Poissons Ratio (y) = 0.05829 0.34508
# Poissons Ratio (z) = 0.25613 0.25612
#
# Static dielectric constant tensor:
#      x y z
#    x 1.921320 0.000000 0.000000 
#    y 0.000000 1.921320 0.000000 
#    z 0.000000 0.000000 1.994340 
# 
# From -- ./inp_files/4879.got.cif
#   From: 2010.05.17/outbox.cif.g08.bks.cpg/sg130_3_cif.got.tgz:4879.got - 2010.05.20 12:17:35.
