data_PCOD9565858
_publ_section_title
;
Structure prediction by ZEFSAII (Michael W. Deem and Ramdas Pophale) SiO2 
 PCOD9565858
Probable space group: P 4/N C C
;
_chemical_formula_sum "Si O2"
_cell_formula_units_Z 52
_cell_length_a 16.119822
_cell_length_b 16.119822
_cell_length_c 7.914838
_cell_angle_alpha 90.000000
_cell_angle_beta 90.000000
_cell_angle_gamma 90.000000
_cell_volume 2056.660059
_symmetry_space_group_name_H-M "P 4/N C C"
_symmetry_group_IT_number 130
_symmetry_cell_setting 'tetragonal'
loop_
_space_group_symop_operation_xyz
x,y,z
1/2-y,x,z
1/2-x,1/2-y,z
y,1/2-x,z
1/2+x,-y,1/2-z
-x,1/2+y,1/2-z
1/2+y,1/2+x,1/2-z
-y,-x,1/2-z
-x,-y,-z
1/2+y,-x,-z
1/2+x,1/2+y,-z
-y,1/2+x,-z
1/2-x,y,1/2+z
x,1/2-y,1/2+z
1/2-y,1/2-x,1/2+z
y,x,1/2+z
loop_
_atom_site_type_symbol
_atom_site_label
_atom_site_fract_x
_atom_site_fract_y
_atom_site_fract_z
Si Si1 0.124332 0.399196 0.224432
Si Si2 0.855442 0.433584 0.592205
Si Si3 0.250000 0.250000 0.788178
Si Si4 0.832906 0.013602 0.592484
O O1 0.110440 0.477858 0.345646
O O2 0.197110 0.337385 0.280990
O O3 0.038454 0.348202 0.236056
O O4 0.152816 0.442836 0.051350
O O5 0.871646 0.371646 0.750000
O O6 0.758133 0.448426 0.572995
O O7 0.912040 0.395816 0.445838
#
# Coordination Sequence:
#
# PCOD9565858 Si02
#       4
#    16  16   4  16
#     4  11  25  44  73 110 153 194 248 311 393 445
#     4  10  24  48  74 108 153 205 255 313 385 464
#     4  12  24  42  76 110 156 194 244 318 376 458
#     4  11  25  48  74 109 149 201 252 316 377 462
#
# _framework density 25.283712999999999
#
# number of rings (size 3 to 8) (size 9 to 14) (size 15 to 20)
#    0.000    1.231    3.077    0.923    4.308    1.846 
#    0.000   13.846    0.000    0.000    0.000    0.000 
#    0.000    0.000    0.000    0.000    0.000    0.000 
#
# Total GULP energy -290186.681667 kJ/mol
# GULP energy per Si atom -5580.513109 kJ/mol
# Density = 2.522617 g / cm^3
# Si number density = 25.283713 Si / 1000 Ang^3
#
#
#
# Elastic Constant Matrix: (Units=GPa)
#
#
# Indices 1 2 3 4 5 6 
#
# 1 185.3840 90.5617 42.3683 0.0000 0.0000 0.0000
# 2 90.5617 185.3840 42.3683 0.0000 0.0000 0.0000
# 3 42.3683 42.3683 79.1320 0.0000 0.0000 0.0000
# 4 0.0000 0.0000 0.0000 13.3358 0.0000 0.0000
# 5 0.0000 0.0000 0.0000 0.0000 13.3358 0.0000
# 6 0.0000 0.0000 0.0000 0.0000 0.0000 75.9906
#
#
#
# Elastic Compliance Matrix: (Units=1/GPa)
#
#
# Indices 1 2 3 4 5 6 
#
# 1 0.007441 -0.003105 -0.002322 0.000000 0.000000 0.000000
# 2 -0.003105 0.007441 -0.002322 0.000000 0.000000 0.000000
# 3 -0.002322 -0.002322 0.015124 0.000000 0.000000 0.000000
# 4 0.000000 0.000000 0.000000 0.074986 0.000000 0.000000
# 5 0.000000 0.000000 0.000000 0.000000 0.074986 0.000000
# 6 0.000000 0.000000 0.000000 0.000000 0.000000 0.013160
#
#
# Mechanical properties :
#
#
# Convention : Reuss Voigt Hill
#
# Bulk Modulus (GPa) = 68.92136 88.94409 78.93273
# Shear Modulus (GPa) = 23.42223 38.83920 31.13071
#
# Velocity S-wave (km/s) = 3.04694 3.92361 3.51273
# Velocity P-wave (km/s) = 6.30055 7.46867 6.90934
#
# Compressibility (1/GPa) = 0.01450929
#
# Stress axis : x y z
#
# Youngs Moduli (GPa) = 134.38152 134.38152 66.12168
#
# Poissons Ratio (x) = 0.41719 0.15354
# Poissons Ratio (y) = 0.41719 0.15354
# Poissons Ratio (z) = 0.31204 0.31204
#
# Static dielectric constant tensor:
#      x y z
#    x 1.976180 0.000000 0.000000 
#    y 0.000000 1.976180 0.000000 
#    z 0.000000 0.000000 2.238880 
# 
# From -- ./inp_files/1407.got.cif
#   From: 2010.05.17/outbox.cif.g08.bks.cpg/sg130_1_cif.got.tgz:1407.got - 2010.05.20 12:17:35.
