data_PCOD9565433
_publ_section_title
;
Structure prediction by ZEFSAII (Michael W. Deem and Ramdas Pophale) SiO2 
 PCOD9565433
Probable space group: P 4/N M M
;
_chemical_formula_sum "Si O2"
_cell_formula_units_Z 128
_cell_length_a 24.273640
_cell_length_b 24.273640
_cell_length_c 11.638887
_cell_angle_alpha 90.000000
_cell_angle_beta 90.000000
_cell_angle_gamma 90.000000
_cell_volume 6857.743940
_symmetry_space_group_name_H-M "P 4/N M M"
_symmetry_group_IT_number 129
_symmetry_cell_setting 'tetragonal'
loop_
_space_group_symop_operation_xyz
x,y,z
1/2-y,x,z
1/2-x,1/2-y,z
y,1/2-x,z
1/2+x,-y,-z
-x,1/2+y,-z
1/2+y,1/2+x,-z
-y,-x,-z
-x,-y,-z
1/2+y,-x,-z
1/2+x,1/2+y,-z
-y,1/2+x,-z
1/2-x,y,z
x,1/2-y,z
1/2-y,1/2-x,z
y,x,z
loop_
_atom_site_type_symbol
_atom_site_label
_atom_site_fract_x
_atom_site_fract_y
_atom_site_fract_z
Si Si1 0.689828 0.008206 0.581902
Si Si2 0.687206 0.098050 0.034332
Si Si3 0.514280 0.154973 0.157979
Si Si4 0.110322 0.479247 0.610580
Si Si5 0.864421 0.188868 0.394106
Si Si6 0.098562 0.186524 0.763946
Si Si7 0.314829 0.095833 0.038331
Si Si8 0.585930 0.389990 0.760540
O O1 0.750000 0.986468 0.547779
O O2 0.682975 0.005105 0.718644
O O3 0.688452 0.073478 0.555908
O O4 0.640508 0.981538 0.511847
O O5 0.750000 0.109694 0.067082
O O6 0.652211 0.071051 0.137983
O O7 0.652397 0.152397 0.000000
O O8 0.686441 0.055963 0.927381
O O9 0.455425 0.154091 0.097004
O O10 0.550001 0.100320 0.186716
O O11 0.053264 0.446737 0.604162
O O12 0.150652 0.445596 0.695307
O O13 0.104318 0.539507 0.664751
O O14 0.824961 0.175040 0.500000
O O15 0.853807 0.250000 0.346751
O O16 0.865884 0.141466 0.298271
O O17 0.097574 0.250000 0.729138
O O18 0.157407 0.157407 0.743768
O O19 0.087828 0.183530 0.900585
O O20 0.250000 0.096886 0.072000
O O21 0.347984 0.152017 0.064448
#
# Coordination Sequence:
#
# PCOD9565433 Si02
#       8
#    16  16  16  16  16  16  16  16
#     4  10  20  35  58  79 107 148 185 227 277 336
#     4  10  21  37  58  82 111 150 192 237 286 335
#     4  10  21  37  57  80 109 147 193 228 271 334
#     4  11  22  36  56  85 116 144 183 235 287 340
#     4  10  20  37  56  77 109 145 186 231 278 334
#     4   9  19  35  56  84 116 149 187 233 282 338
#     4  10  20  35  57  83 111 143 181 227 278 335
#     4  10  22  38  57  82 113 149 188 232 286 341
#
# _framework density 18.665029000000001
#
# number of rings (size 3 to 8) (size 9 to 14) (size 15 to 20)
#    0.000    2.000    1.250    2.250    0.000    7.500 
#    0.000    5.625    0.000    4.500    0.000    0.000 
#    0.000    3.000    0.000    0.000    0.000    0.000 
#
# Total GULP energy -713967.008570 kJ/mol
# GULP energy per Si atom -5577.867254 kJ/mol
# Density = 1.862255 g / cm^3
# Si number density = 18.665029 Si / 1000 Ang^3
#
#
#
# Elastic Constant Matrix: (Units=GPa)
#
#
# Indices 1 2 3 4 5 6 
#
# 1 77.9891 31.7325 38.3303 0.0000 0.0000 0.0000
# 2 31.7325 77.9893 38.3301 0.0000 0.0000 0.0000
# 3 38.3303 38.3301 73.1313 0.0000 0.0000 0.0000
# 4 0.0000 0.0000 0.0000 17.4166 0.0000 0.0000
# 5 0.0000 0.0000 0.0000 0.0000 17.4167 0.0000
# 6 0.0000 0.0000 0.0000 0.0000 0.0000 6.4848
#
#
#
# Elastic Compliance Matrix: (Units=1/GPa)
#
#
# Indices 1 2 3 4 5 6 
#
# 1 0.017999 -0.003619 -0.007537 0.000000 0.000000 0.000000
# 2 -0.003619 0.017999 -0.007537 0.000000 0.000000 0.000000
# 3 -0.007537 -0.007537 0.021575 0.000000 0.000000 0.000000
# 4 0.000000 0.000000 0.000000 0.057416 0.000000 0.000000
# 5 0.000000 0.000000 0.000000 0.000000 0.057416 0.000000
# 6 0.000000 0.000000 0.000000 0.000000 0.000000 0.154206
#
#
# Mechanical properties :
#
#
# Convention : Reuss Voigt Hill
#
# Bulk Modulus (GPa) = 49.53738 49.54393 49.54065
# Shear Modulus (GPa) = 13.48704 16.31142 14.89923
#
# Velocity S-wave (km/s) = 2.69101 2.95939 2.82838
# Velocity P-wave (km/s) = 6.02106 6.18698 6.10458
#
# Compressibility (1/GPa) = 0.02018678
#
# Stress axis : x y z
#
# Youngs Moduli (GPa) = 55.55797 55.55839 46.35081
#
# Poissons Ratio (x) = 0.20108 0.34934
# Poissons Ratio (y) = 0.20108 0.34934
# Poissons Ratio (z) = 0.41874 0.41873
#
# Static dielectric constant tensor:
#      x y z
#    x 1.644110 0.000000 0.000000 
#    y 0.000000 1.644110 0.000000 
#    z 0.000000 0.000000 1.650670 
# 
# From -- ./inp_files/4238.got.cif
#   From: 2010.05.17/outbox.cif.g08.bks.cpg/sg129_3_cif.got.tgz:4238.got - 2010.05.20 12:12:06.
