data_PCOD9565514
_publ_section_title
;
Structure prediction by ZEFSAII (Michael W. Deem and Ramdas Pophale) SiO2 
 PCOD9565514
Probable space group: P 4/N M M
;
_chemical_formula_sum "Si O2"
_cell_formula_units_Z 52
_cell_length_a 14.926010
_cell_length_b 14.926010
_cell_length_c 14.333764
_cell_angle_alpha 90.000000
_cell_angle_beta 90.000000
_cell_angle_gamma 90.000000
_cell_volume 3193.358715
_symmetry_space_group_name_H-M "P 4/N M M"
_symmetry_group_IT_number 129
_symmetry_cell_setting 'tetragonal'
loop_
_space_group_symop_operation_xyz
x,y,z
1/2-y,x,z
1/2-x,1/2-y,z
y,1/2-x,z
1/2+x,-y,-z
-x,1/2+y,-z
1/2+y,1/2+x,-z
-y,-x,-z
-x,-y,-z
1/2+y,-x,-z
1/2+x,1/2+y,-z
-y,1/2+x,-z
1/2-x,y,z
x,1/2-y,z
1/2-y,1/2-x,z
y,x,z
loop_
_atom_site_type_symbol
_atom_site_label
_atom_site_fract_x
_atom_site_fract_y
_atom_site_fract_z
Si Si1 0.250000 0.750000 0.500000
Si Si2 0.250000 0.940967 0.596653
Si Si3 0.250000 0.250000 0.380955
Si Si4 0.858196 0.146171 0.896834
Si Si5 0.582189 0.433104 0.703736
Si Si6 0.750000 0.970165 0.602781
O O1 0.250000 0.838879 0.560595
O O2 0.340508 0.947689 0.655680
O O3 0.250000 0.006041 0.507345
O O4 0.250000 0.137042 0.381721
O O5 0.750000 0.146540 0.897768
O O6 0.886795 0.250000 0.884601
O O7 0.889649 0.089104 0.809466
O O8 0.886200 0.113801 0.000000
O O9 0.500895 0.500895 0.702312
O O10 0.664199 0.480185 0.648788
#
# Coordination Sequence:
#
# PCOD9565514 Si02
#       6
#     2   8   2  16  16   8
#     4  12  20  36  64  84 114 148 176 260 312 316
#     4  12  24  38  57  89 120 149 198 248 291 343
#     4  12  28  44  56  80 128 158 200 236 276 340
#     4   9  18  34  59  88 117 146 185 249 311 347
#     4  12  23  37  60  87 116 156 198 240 293 356
#     4  12  24  40  59  82 119 163 194 235 284 345
#
# _framework density 16.283795999999999
#
# number of rings (size 3 to 8) (size 9 to 14) (size 15 to 20)
#    0.000    0.923    7.692    0.923    2.154    1.846 
#    0.000    0.000    0.000    0.000    0.000    0.000 
#    0.000    0.000    0.000    0.000    0.000    0.000 
#
# Total GULP energy -289656.655047 kJ/mol
# GULP energy per Si atom -5570.320289 kJ/mol
# Density = 1.624673 g / cm^3
# Si number density = 16.283796 Si / 1000 Ang^3
#
#
#
# Elastic Constant Matrix: (Units=GPa)
#
#
# Indices 1 2 3 4 5 6 
#
# 1 110.8008 45.1956 60.5569 0.0000 0.0000 0.0000
# 2 45.1956 110.8012 60.5570 0.0000 0.0000 0.0000
# 3 60.5569 60.5570 139.5294 0.0000 0.0000 0.0000
# 4 0.0000 0.0000 0.0000 7.1708 0.0000 0.0000
# 5 0.0000 0.0000 0.0000 0.0000 7.1705 0.0000
# 6 0.0000 0.0000 0.0000 0.0000 0.0000 18.1975
#
#
#
# Elastic Compliance Matrix: (Units=1/GPa)
#
#
# Indices 1 2 3 4 5 6 
#
# 1 0.012455 -0.002787 -0.004196 0.000000 0.000000 0.000000
# 2 -0.002787 0.012455 -0.004196 0.000000 0.000000 0.000000
# 3 -0.004196 -0.004196 0.010809 0.000000 0.000000 0.000000
# 4 0.000000 0.000000 0.000000 0.139454 0.000000 0.000000
# 5 0.000000 0.000000 0.000000 0.000000 0.139460 0.000000
# 6 0.000000 0.000000 0.000000 0.000000 0.000000 0.054953
#
#
# Mechanical properties :
#
#
# Convention : Reuss Voigt Hill
#
# Bulk Modulus (GPa) = 74.84317 77.08340 75.96329
# Shear Modulus (GPa) = 12.61355 19.49590 16.05472
#
# Velocity S-wave (km/s) = 2.78620 3.46389 3.14336
# Velocity P-wave (km/s) = 7.51080 7.96482 7.74114
#
# Compressibility (1/GPa) = 0.01336127
#
# Stress axis : x y z
#
# Youngs Moduli (GPa) = 80.28626 80.28654 92.51375
#
# Poissons Ratio (x) = 0.22378 0.38819
# Poissons Ratio (y) = 0.22378 0.38819
# Poissons Ratio (z) = 0.33689 0.33689
#
# Static dielectric constant tensor:
#      x y z
#    x 1.512550 0.000000 0.000000 
#    y 0.000000 1.512550 0.000000 
#    z 0.000000 0.000000 1.563830 
# 
# From -- ./inp_files/3294.got.cif
#   From: 2010.05.17/outbox.cif.g08.bks.cpg/sg129_2_cif.got.tgz:3294.got - 2010.05.20 12:12:06.
