data_PCOD9565048
_publ_section_title
;
Structure prediction by ZEFSAII (Michael W. Deem and Ramdas Pophale) SiO2 
 PCOD9565048
Probable space group: P 4/M N C
;
_chemical_formula_sum "Si O2"
_cell_formula_units_Z 56
_cell_length_a 10.527163
_cell_length_b 10.527163
_cell_length_c 23.284874
_cell_angle_alpha 90.000000
_cell_angle_beta 90.000000
_cell_angle_gamma 90.000000
_cell_volume 2580.456766
_symmetry_space_group_name_H-M "P 4/M N C"
_symmetry_group_IT_number 128
_symmetry_cell_setting 'tetragonal'
loop_
_space_group_symop_operation_xyz
x,y,z
-y,x,z
-x,-y,z
y,-x,z
1/2+x,1/2-y,1/2-z
1/2-x,1/2+y,1/2-z
1/2+y,1/2+x,1/2-z
1/2-y,1/2-x,1/2-z
-x,-y,-z
y,-x,-z
x,y,-z
-y,x,-z
1/2-x,1/2+y,1/2+z
1/2+x,1/2-y,1/2+z
1/2-y,1/2-x,1/2+z
1/2+y,1/2+x,1/2+z
loop_
_atom_site_type_symbol
_atom_site_label
_atom_site_fract_x
_atom_site_fract_y
_atom_site_fract_z
Si Si1 0.219871 0.719871 0.750000
Si Si2 0.565700 0.137692 0.065945
Si Si3 0.547966 0.704760 0.842164
Si Si4 0.601972 0.312128 0.645104
O O1 0.206602 0.599787 0.792545
O O2 0.344707 0.719441 0.709019
O O3 0.463392 0.229198 0.096588
O O4 0.696961 0.137970 0.102409
O O5 0.500000 0.000000 0.067933
O O6 0.589964 0.172368 0.000000
O O7 0.410873 0.644406 0.835227
O O8 0.665649 0.451256 0.636810
#
# Coordination Sequence:
#
# PCOD9565048 Si02
#       4
#     8  16  16  16
#     4  12  22  44  74 102 148 190 240 306 363 453
#     4  11  26  48  73 105 146 192 251 311 372 446
#     4  11  24  45  71 104 145 193 242 298 372 446
#     4  11  25  46  72 107 144 192 249 306 380 450
#
# _framework density 21.701584
#
# number of rings (size 3 to 8) (size 9 to 14) (size 15 to 20)
#    0.000    0.857    2.857    3.429    0.000    4.571 
#    0.000    2.857    0.000    0.000    0.000    0.000 
#    0.000    0.000    0.000    0.000    0.000    0.000 
#
# Total GULP energy -312452.015131 kJ/mol
# GULP energy per Si atom -5579.500270 kJ/mol
# Density = 2.165219 g / cm^3
# Si number density = 21.701584 Si / 1000 Ang^3
#
#
#
# Elastic Constant Matrix: (Units=GPa)
#
#
# Indices 1 2 3 4 5 6 
#
# 1 90.7107 46.2775 66.1767 0.0000 0.0000 0.0000
# 2 46.2775 90.7107 66.1767 0.0000 0.0000 0.0000
# 3 66.1767 66.1767 192.0733 0.0000 0.0000 0.0000
# 4 0.0000 0.0000 0.0000 36.4422 0.0000 0.0000
# 5 0.0000 0.0000 0.0000 0.0000 36.4422 0.0000
# 6 0.0000 0.0000 0.0000 0.0000 0.0000 38.4307
#
#
#
# Elastic Compliance Matrix: (Units=1/GPa)
#
#
# Indices 1 2 3 4 5 6 
#
# 1 0.016724 -0.005782 -0.003770 0.000000 0.000000 0.000000
# 2 -0.005782 0.016724 -0.003770 0.000000 0.000000 0.000000
# 3 -0.003770 -0.003770 0.007804 0.000000 0.000000 0.000000
# 4 0.000000 0.000000 0.000000 0.027441 0.000000 0.000000
# 5 0.000000 0.000000 0.000000 0.000000 0.027441 0.000000
# 6 0.000000 0.000000 0.000000 0.000000 0.000000 0.026021
#
#
# Mechanical properties :
#
#
# Convention : Reuss Voigt Hill
#
# Bulk Modulus (GPa) = 68.45217 81.19513 74.82365
# Shear Modulus (GPa) = 32.53769 35.25392 33.89581
#
# Velocity S-wave (km/s) = 3.87631 4.03486 3.95638
# Velocity P-wave (km/s) = 7.18647 7.69431 7.44472
#
# Compressibility (1/GPa) = 0.01460874
#
# Stress axis : x y z
#
# Youngs Moduli (GPa) = 59.79405 59.79405 128.13560
#
# Poissons Ratio (x) = 0.34571 0.48308
# Poissons Ratio (y) = 0.34571 0.48308
# Poissons Ratio (z) = 0.22543 0.22543
#
# Static dielectric constant tensor:
#      x y z
#    x 1.838590 0.000000 0.000000 
#    y 0.000000 1.838590 0.000000 
#    z 0.000000 0.000000 1.793920 
# 
# From -- ./inp_files/5309.got.cif
#   From: 2010.05.17/outbox.cif.g08.bks.cpg/sg128_3_cif.got.tgz:5309.got - 2010.05.20 12:07:25.
