data_PCOD9565512
_publ_section_title
;
Structure prediction by ZEFSAII (Michael W. Deem and Ramdas Pophale) SiO2 
 PCOD9565512
Probable space group: P 4/N M M
;
_chemical_formula_sum "Si O2"
_cell_formula_units_Z 40
_cell_length_a 18.988155
_cell_length_b 18.988155
_cell_length_c 4.865581
_cell_angle_alpha 90.000000
_cell_angle_beta 90.000000
_cell_angle_gamma 90.000000
_cell_volume 1754.285377
_symmetry_space_group_name_H-M "P 4/N M M"
_symmetry_group_IT_number 129
_symmetry_cell_setting 'tetragonal'
loop_
_space_group_symop_operation_xyz
x,y,z
1/2-y,x,z
1/2-x,1/2-y,z
y,1/2-x,z
1/2+x,-y,-z
-x,1/2+y,-z
1/2+y,1/2+x,-z
-y,-x,-z
-x,-y,-z
1/2+y,-x,-z
1/2+x,1/2+y,-z
-y,1/2+x,-z
1/2-x,y,z
x,1/2-y,z
1/2-y,1/2-x,z
y,x,z
loop_
_atom_site_type_symbol
_atom_site_label
_atom_site_fract_x
_atom_site_fract_y
_atom_site_fract_z
Si Si1 0.630602 0.463491 0.147589
Si Si2 0.329502 0.829502 0.500000
Si Si3 0.943944 0.670003 0.651923
O O1 0.660174 0.390596 0.274633
O O2 0.631197 0.515549 0.404607
O O3 0.558091 0.441910 0.000000
O O4 0.672157 0.502538 0.907207
O O5 0.336455 0.750000 0.612994
O O6 0.927106 0.750000 0.568775
O O7 0.875525 0.624476 0.726066
#
# Coordination Sequence:
#
# PCOD9565512 Si02
#       3
#    16   8  16
#     4  12  25  46  72 100 145 183 233 284 353 421
#     4  11  24  42  67 100 140 188 239 288 341 414
#     4  12  27  48  75 105 141 187 238 298 360 420
#
# _framework density 22.801309
#
# number of rings (size 3 to 8) (size 9 to 14) (size 15 to 20)
#    0.000    0.200    4.000    4.800    0.000    8.400 
#    0.000    2.000    0.000    4.800    0.000    0.000 
#    0.000    0.000    0.000    0.000    0.000    0.000 
#
# Total GULP energy -223723.250071 kJ/mol
# GULP energy per Si atom -5593.081252 kJ/mol
# Density = 2.274941 g / cm^3
# Si number density = 22.801309 Si / 1000 Ang^3
#
#
#
# Elastic Constant Matrix: (Units=GPa)
#
#
# Indices 1 2 3 4 5 6 
#
# 1 91.6085 143.2162 42.8521 0.0000 0.0000 0.0000
# 2 143.2162 91.6047 42.8504 0.0000 0.0000 0.0000
# 3 42.8521 42.8504 132.1793 0.0000 0.0000 0.0000
# 4 0.0000 0.0000 0.0000 11.9212 0.0000 0.0000
# 5 0.0000 0.0000 0.0000 0.0000 11.9217 0.0000
# 6 0.0000 0.0000 0.0000 0.0000 0.0000 0.9839
#
#
#
# Elastic Compliance Matrix: (Units=1/GPa)
#
#
# Indices 1 2 3 4 5 6 
#
# 1 -0.007273 0.012103 -0.001566 0.000000 0.000000 0.000000
# 2 0.012103 -0.007273 -0.001566 0.000000 0.000000 0.000000
# 3 -0.001566 -0.001566 0.008581 0.000000 0.000000 0.000000
# 4 0.000000 0.000000 0.000000 0.083884 0.000000 0.000000
# 5 0.000000 0.000000 0.000000 0.000000 0.083881 0.000000
# 6 0.000000 0.000000 0.000000 0.000000 0.000000 1.016319
#
#
# Mechanical properties :
#
#
# Convention : Reuss Voigt Hill
#
# Bulk Modulus (GPa) = 83.49063 85.91445 84.70254
# Shear Modulus (GPa) = 4.29491 10.73029 7.51260
#
# Velocity S-wave (km/s) = 1.37394 2.17168 1.81713
# Velocity P-wave (km/s) = 6.26203 6.63699 6.45224
#
# Compressibility (1/GPa) = 0.01197739
#
# Stress axis : x y z
#
# Youngs Moduli (GPa) = -137.49512 -137.49048 116.54002
#
# Poissons Ratio (x) = 1.66406 0.18247
# Poissons Ratio (y) = 1.66412 0.18249
# Poissons Ratio (z) = -0.21528 -0.21530
#
# Static dielectric constant tensor:
#      x y z
#    x 2.036590 0.000000 0.000000 
#    y 0.000000 2.036320 0.000000 
#    z 0.000000 0.000000 1.846320 
# 
# From -- ./inp_files/268.got.cif
#   From: 2010.05.17/outbox.cif.g08.bks.cpg/sg129_1_cif.got.tgz:268.got - 2010.05.20 12:12:06.
