data_PCOD9565935
_publ_section_title
;
Structure prediction by ZEFSAII (Michael W. Deem and Ramdas Pophale) SiO2 
 PCOD9565935
Probable space group: P 4/N C C
;
_chemical_formula_sum "Si O2"
_cell_formula_units_Z 96
_cell_length_a 23.517786
_cell_length_b 23.517786
_cell_length_c 9.838352
_cell_angle_alpha 90.000000
_cell_angle_beta 90.000000
_cell_angle_gamma 90.000000
_cell_volume 5441.457296
_symmetry_space_group_name_H-M "P 4/N C C"
_symmetry_group_IT_number 130
_symmetry_cell_setting 'tetragonal'
loop_
_space_group_symop_operation_xyz
x,y,z
1/2-y,x,z
1/2-x,1/2-y,z
y,1/2-x,z
1/2+x,-y,1/2-z
-x,1/2+y,1/2-z
1/2+y,1/2+x,1/2-z
-y,-x,1/2-z
-x,-y,-z
1/2+y,-x,-z
1/2+x,1/2+y,-z
-y,1/2+x,-z
1/2-x,y,1/2+z
x,1/2-y,1/2+z
1/2-y,1/2-x,1/2+z
y,x,1/2+z
loop_
_atom_site_type_symbol
_atom_site_label
_atom_site_fract_x
_atom_site_fract_y
_atom_site_fract_z
Si Si1 0.460711 0.867586 0.411526
Si Si2 0.628340 0.039470 0.584221
Si Si3 0.633577 0.871007 0.282092
Si Si4 0.248948 0.419257 0.783727
Si Si5 0.254816 0.498547 0.034582
Si Si6 0.925807 0.579260 0.532086
O O1 0.403429 0.901601 0.445062
O O2 0.466402 0.865933 0.247592
O O3 0.466040 0.803485 0.465508
O O4 0.513579 0.903102 0.472324
O O5 0.689751 0.031635 0.516410
O O6 0.588938 0.987167 0.534612
O O7 0.699664 0.874194 0.245968
O O8 0.605660 0.810500 0.250616
O O9 0.620231 0.889534 0.435357
O O10 0.603150 0.916646 0.183216
O O11 0.237244 0.472447 0.683938
O O12 0.247295 0.444384 0.934753
#
# Coordination Sequence:
#
# PCOD9565935 Si02
#       6
#    16  16  16  16  16  16
#     4  11  23  38  61  91 120 153 193 244 304 358
#     4  11  23  38  61  91 120 153 193 244 304 358
#     4  12  22  35  59  82 114 166 206 246 281 343
#     4  12  22  37  58  80 120 161 214 236 290 340
#     4  12  20  40  60  84 116 160 190 246 292 360
#     4  12  19  38  56  87 116 150 198 249 302 344
#
# _framework density 17.642333000000001
#
# number of rings (size 3 to 8) (size 9 to 14) (size 15 to 20)
#    0.000    0.333   10.000    0.500    0.000    0.333 
#    0.000    2.500    0.000    4.500    0.000    2.333 
#    0.000    0.000    0.000    0.000    0.000    0.000 
#
# Total GULP energy -536504.137453 kJ/mol
# GULP energy per Si atom -5588.584765 kJ/mol
# Density = 1.760218 g / cm^3
# Si number density = 17.642333 Si / 1000 Ang^3
#
#
#
# Elastic Constant Matrix: (Units=GPa)
#
#
# Indices 1 2 3 4 5 6 
#
# 1 88.3157 63.5204 10.1804 0.0000 0.0000 0.0000
# 2 63.5204 88.3157 10.1804 0.0000 0.0000 0.0000
# 3 10.1804 10.1804 41.1353 0.0000 0.0000 0.0000
# 4 0.0000 0.0000 0.0000 23.1869 0.0000 0.0000
# 5 0.0000 0.0000 0.0000 0.0000 23.1869 0.0000
# 6 0.0000 0.0000 0.0000 0.0000 0.0000 32.5496
#
#
#
# Elastic Compliance Matrix: (Units=1/GPa)
#
#
# Indices 1 2 3 4 5 6 
#
# 1 0.023571 -0.016759 -0.001686 0.000000 0.000000 0.000000
# 2 -0.016759 0.023571 -0.001686 0.000000 0.000000 0.000000
# 3 -0.001686 -0.001686 0.025144 0.000000 0.000000 0.000000
# 4 0.000000 0.000000 0.000000 0.043128 0.000000 0.000000
# 5 0.000000 0.000000 0.000000 0.000000 0.043128 0.000000
# 6 0.000000 0.000000 0.000000 0.000000 0.000000 0.030722
#
#
# Mechanical properties :
#
#
# Convention : Reuss Voigt Hill
#
# Bulk Modulus (GPa) = 31.22548 42.83656 37.03102
# Shear Modulus (GPa) = 20.81583 24.71037 22.76310
#
# Velocity S-wave (km/s) = 3.43866 3.74656 3.59591
# Velocity P-wave (km/s) = 5.78822 6.56116 6.18677
#
# Compressibility (1/GPa) = 0.03202512
#
# Stress axis : x y z
#
# Youngs Moduli (GPa) = 42.42463 42.42463 39.77017
#
# Poissons Ratio (x) = 0.71100 0.06705
# Poissons Ratio (y) = 0.71100 0.06705
# Poissons Ratio (z) = 0.07152 0.07152
#
# Static dielectric constant tensor:
#      x y z
#    x 1.596050 0.000000 0.000000 
#    y 0.000000 1.596050 0.000000 
#    z 0.000000 0.000000 1.597140 
# 
# From -- ./inp_files/909.got.cif
#   From: 2010.05.17/outbox.cif.g08.bks.cpg/sg130_1_cif.got.tgz:909.got - 2010.05.20 12:17:35.
