data_PCOD9565720
_publ_section_title
;
Structure prediction by ZEFSAII (Michael W. Deem and Ramdas Pophale) SiO2 
 PCOD9565720
Probable space group: P 4/N C C
;
_chemical_formula_sum "Si O2"
_cell_formula_units_Z 112
_cell_length_a 14.979847
_cell_length_b 14.979847
_cell_length_c 23.037296
_cell_angle_alpha 90.000000
_cell_angle_beta 90.000000
_cell_angle_gamma 90.000000
_cell_volume 5169.472838
_symmetry_space_group_name_H-M "P 4/N C C"
_symmetry_group_IT_number 130
_symmetry_cell_setting 'tetragonal'
loop_
_space_group_symop_operation_xyz
x,y,z
1/2-y,x,z
1/2-x,1/2-y,z
y,1/2-x,z
1/2+x,-y,1/2-z
-x,1/2+y,1/2-z
1/2+y,1/2+x,1/2-z
-y,-x,1/2-z
-x,-y,-z
1/2+y,-x,-z
1/2+x,1/2+y,-z
-y,1/2+x,-z
1/2-x,y,1/2+z
x,1/2-y,1/2+z
1/2-y,1/2-x,1/2+z
y,x,1/2+z
loop_
_atom_site_type_symbol
_atom_site_label
_atom_site_fract_x
_atom_site_fract_y
_atom_site_fract_z
Si Si1 0.332349 0.132853 0.609923
Si Si2 0.455020 0.979953 0.181963
Si Si3 0.392908 0.287173 0.436449
Si Si4 0.249686 0.488510 0.694167
Si Si5 0.492608 0.601969 0.479974
Si Si6 0.722998 0.488015 0.169484
Si Si7 0.891189 0.395899 0.372204
O O1 0.366649 0.228600 0.592395
O O2 0.310402 0.096712 0.675088
O O3 0.383278 0.064023 0.570988
O O4 0.480610 0.980610 0.250000
O O5 0.449860 0.876450 0.165462
O O6 0.353332 0.015540 0.173442
O O7 0.536084 0.029921 0.149690
O O8 0.311690 0.355460 0.449464
O O9 0.477673 0.327028 0.471339
O O10 0.422772 0.280714 0.369369
O O11 0.253550 0.496695 0.763078
O O12 0.196835 0.568915 0.661925
O O13 0.500000 0.500000 0.500000
O O14 0.403977 0.618203 0.441918
O O15 0.797982 0.422276 0.144982
#
# Coordination Sequence:
#
# PCOD9565720 Si02
#       7
#    16  16  16  16  16  16  16
#     4  10  21  36  58  90 124 159 207 270 331 390
#     4  10  21  37  60  92 129 169 215 269 335 406
#     4  11  24  40  61  92 126 163 210 266 332 400
#     4  10  21  37  62  93 128 171 215 266 329 399
#     4  11  22  38  59  82 116 164 213 262 321 389
#     4  11  22  39  63  92 130 171 213 266 331 404
#     4  11  23  40  64  93 126 172 226 276 331 400
#
# _framework density 21.665651
#
# number of rings (size 3 to 8) (size 9 to 14) (size 15 to 20)
#    0.000    1.429    0.000    6.429    0.000    6.286 
#    0.000    5.000    0.000    0.000    0.000    0.000 
#    0.000    0.000    0.000    0.000    0.000    0.000 
#
# Total GULP energy -624596.801452 kJ/mol
# GULP energy per Si atom -5576.757156 kJ/mol
# Density = 2.161634 g / cm^3
# Si number density = 21.665651 Si / 1000 Ang^3
#
#
#
# Elastic Constant Matrix: (Units=GPa)
#
#
# Indices 1 2 3 4 5 6 
#
# 1 81.4570 24.1780 6.6144 0.0000 0.0000 0.0000
# 2 24.1780 81.4570 6.6144 0.0000 0.0000 0.0000
# 3 6.6144 6.6144 74.8531 0.0000 0.0000 0.0000
# 4 0.0000 0.0000 0.0000 31.8648 0.0000 0.0000
# 5 0.0000 0.0000 0.0000 0.0000 31.8648 0.0000
# 6 0.0000 0.0000 0.0000 0.0000 0.0000 36.7717
#
#
#
# Elastic Compliance Matrix: (Units=1/GPa)
#
#
# Indices 1 2 3 4 5 6 
#
# 1 0.013515 -0.003943 -0.000846 0.000000 0.000000 0.000000
# 2 -0.003943 0.013515 -0.000846 0.000000 0.000000 0.000000
# 3 -0.000846 -0.000846 0.013509 0.000000 0.000000 0.000000
# 4 0.000000 0.000000 0.000000 0.031383 0.000000 0.000000
# 5 0.000000 0.000000 0.000000 0.000000 0.031383 0.000000
# 6 0.000000 0.000000 0.000000 0.000000 0.000000 0.027195
#
#
# Mechanical properties :
#
#
# Convention : Reuss Voigt Hill
#
# Bulk Modulus (GPa) = 34.16412 34.73119 34.44765
# Shear Modulus (GPa) = 32.99761 33.45762 33.22761
#
# Velocity S-wave (km/s) = 3.90685 3.93398 3.92044
# Velocity P-wave (km/s) = 6.01284 6.05808 6.03550
#
# Compressibility (1/GPa) = 0.02927048
#
# Stress axis : x y z
#
# Youngs Moduli (GPa) = 73.98942 73.98942 74.02480
#
# Poissons Ratio (x) = 0.29174 0.06262
# Poissons Ratio (y) = 0.29174 0.06262
# Poissons Ratio (z) = 0.06259 0.06259
#
# Static dielectric constant tensor:
#      x y z
#    x 1.861370 0.000000 0.000000 
#    y 0.000000 1.861370 0.000000 
#    z 0.000000 0.000000 1.885240 
# 
# From -- ./inp_files/4271.got.cif
#   From: 2010.05.17/outbox.cif.g08.bks.cpg/sg130_3_cif.got.tgz:4271.got - 2010.05.20 12:17:35.
