data_PCOD9565005
_publ_section_title
;
Structure prediction by ZEFSAII (Michael W. Deem and Ramdas Pophale) SiO2 
 PCOD9565005
Probable space group: P 4/M N C
;
_chemical_formula_sum "Si O2"
_cell_formula_units_Z 96
_cell_length_a 24.124526
_cell_length_b 24.124526
_cell_length_c 8.505819
_cell_angle_alpha 90.000000
_cell_angle_beta 90.000000
_cell_angle_gamma 90.000000
_cell_volume 4950.325031
_symmetry_space_group_name_H-M "P 4/M N C"
_symmetry_group_IT_number 128
_symmetry_cell_setting 'tetragonal'
loop_
_space_group_symop_operation_xyz
x,y,z
-y,x,z
-x,-y,z
y,-x,z
1/2+x,1/2-y,1/2-z
1/2-x,1/2+y,1/2-z
1/2+y,1/2+x,1/2-z
1/2-y,1/2-x,1/2-z
-x,-y,-z
y,-x,-z
x,y,-z
-y,x,-z
1/2-x,1/2+y,1/2+z
1/2+x,1/2-y,1/2+z
1/2-y,1/2-x,1/2+z
1/2+y,1/2+x,1/2+z
loop_
_atom_site_type_symbol
_atom_site_label
_atom_site_fract_x
_atom_site_fract_y
_atom_site_fract_z
Si Si1 0.775710 0.362139 0.811540
Si Si2 0.395313 0.813133 0.688093
Si Si3 0.987672 0.262796 0.188133
Si Si4 0.161366 0.203050 0.688210
Si Si5 0.900844 0.896792 0.824050
Si Si6 0.142927 0.000525 0.323348
O O1 0.828750 0.328750 0.750000
O O2 0.774829 0.424403 0.741059
O O3 0.721822 0.323407 0.771712
O O4 0.776535 0.367048 0.000000
O O5 0.370716 0.870716 0.750000
O O6 0.389414 0.809483 0.500000
O O7 0.460641 0.803580 0.724971
O O8 0.356404 0.764916 0.763400
O O9 0.004120 0.206211 0.274564
O O10 0.987184 0.254480 0.000000
O O11 0.154648 0.197791 0.500000
O O12 0.119635 0.164460 0.785288
O O13 0.872261 0.935856 0.698056
O O14 0.966058 0.895515 0.794180
O O15 0.885470 0.912835 0.000000
O O16 0.133879 0.980965 0.500000
#
# Coordination Sequence:
#
# PCOD9565005 Si02
#       6
#    16  16  16  16  16  16
#     4  11  24  40  62  92 126 163 205 251 306 363
#     4  11  24  40  62  92 126 163 205 251 306 363
#     4  11  23  40  63  90 122 161 203 247 302 366
#     4  11  22  37  60  91 126 162 203 250 304 361
#     4  12  24  39  60  86 119 160 208 258 307 357
#     4  12  24  40  61  86 118 160 210 256 304 360
#
# _framework density 19.392665999999998
#
# number of rings (size 3 to 8) (size 9 to 14) (size 15 to 20)
#    0.000    0.667    3.333    5.500    0.000    5.667 
#    0.000    1.667    0.000    0.500    0.000    3.500 
#    0.000    0.000    0.000    0.000    0.000    0.000 
#
# Total GULP energy -536091.843120 kJ/mol
# GULP energy per Si atom -5584.290032 kJ/mol
# Density = 1.934853 g / cm^3
# Si number density = 19.392666 Si / 1000 Ang^3
#
#
#
# Elastic Constant Matrix: (Units=GPa)
#
#
# Indices 1 2 3 4 5 6 
#
# 1 124.1581 -21.4072 23.6436 0.0000 0.0000 0.0000
# 2 -21.4072 124.1581 23.6436 0.0000 0.0000 0.0000
# 3 23.6436 23.6436 80.9878 0.0000 0.0000 0.0000
# 4 0.0000 0.0000 0.0000 44.5395 0.0000 0.0000
# 5 0.0000 0.0000 0.0000 0.0000 44.5395 0.0000
# 6 0.0000 0.0000 0.0000 0.0000 0.0000 29.2872
#
#
#
# Elastic Compliance Matrix: (Units=1/GPa)
#
#
# Indices 1 2 3 4 5 6 
#
# 1 0.009056 0.002187 -0.003282 0.000000 0.000000 0.000000
# 2 0.002187 0.009056 -0.003282 0.000000 0.000000 0.000000
# 3 -0.003282 -0.003282 0.014264 0.000000 0.000000 0.000000
# 4 0.000000 0.000000 0.000000 0.022452 0.000000 0.000000
# 5 0.000000 0.000000 0.000000 0.000000 0.022452 0.000000
# 6 0.000000 0.000000 0.000000 0.000000 0.000000 0.034145
#
#
# Mechanical properties :
#
#
# Convention : Reuss Voigt Hill
#
# Bulk Modulus (GPa) = 42.33584 42.34046 42.33815
# Shear Modulus (GPa) = 39.04587 43.90150 41.47368
#
# Velocity S-wave (km/s) = 4.49200 4.76312 4.62955
# Velocity P-wave (km/s) = 6.98443 7.22014 7.10326
#
# Compressibility (1/GPa) = 0.02362065
#
# Stress axis : x y z
#
# Youngs Moduli (GPa) = 110.42063 110.42063 70.10675
#
# Poissons Ratio (x) = -0.24144 0.23011
# Poissons Ratio (y) = -0.24144 0.23011
# Poissons Ratio (z) = 0.36243 0.36243
#
# Static dielectric constant tensor:
#      x y z
#    x 1.703110 0.000000 0.000000 
#    y 0.000000 1.703110 0.000000 
#    z 0.000000 0.000000 1.647800 
# 
# From -- ./inp_files/1451.got.cif
#   From: 2010.05.17/outbox.cif.g08.bks.cpg/sg128_1_cif.got.tgz:1451.got - 2010.05.20 12:07:25.
