data_PCOD9565347
_publ_section_title
;
Structure prediction by ZEFSAII (Michael W. Deem and Ramdas Pophale) SiO2 
 PCOD9565347
Probable space group: P 4/N M M
;
_chemical_formula_sum "Si O2"
_cell_formula_units_Z 96
_cell_length_a 13.569121
_cell_length_b 13.569121
_cell_length_c 31.453689
_cell_angle_alpha 90.000000
_cell_angle_beta 90.000000
_cell_angle_gamma 90.000000
_cell_volume 5791.286079
_symmetry_space_group_name_H-M "P 4/N M M"
_symmetry_group_IT_number 129
_symmetry_cell_setting 'tetragonal'
loop_
_space_group_symop_operation_xyz
x,y,z
1/2-y,x,z
1/2-x,1/2-y,z
y,1/2-x,z
1/2+x,-y,-z
-x,1/2+y,-z
1/2+y,1/2+x,-z
-y,-x,-z
-x,-y,-z
1/2+y,-x,-z
1/2+x,1/2+y,-z
-y,1/2+x,-z
1/2-x,y,z
x,1/2-y,z
1/2-y,1/2-x,z
y,x,z
loop_
_atom_site_type_symbol
_atom_site_label
_atom_site_fract_x
_atom_site_fract_y
_atom_site_fract_z
Si Si1 0.527164 0.367784 0.633226
Si Si2 0.529496 0.133777 0.133203
Si Si3 0.027483 0.863582 0.964354
Si Si4 0.470190 0.866238 0.209767
Si Si5 0.633368 0.469672 0.710961
Si Si6 0.363145 0.869643 0.453392
O O1 0.518607 0.250000 0.636344
O O2 0.423982 0.423982 0.639332
O O3 0.600338 0.409370 0.669173
O O4 0.571115 0.394695 0.587015
O O5 0.516119 0.250000 0.141201
O O6 0.427633 0.072368 0.137965
O O7 0.562826 0.121017 0.084215
O O8 0.604769 0.086220 0.166446
O O9 0.000600 0.750000 0.968678
O O10 0.933000 0.933000 0.970375
O O11 0.105243 0.894758 0.000000
O O12 0.484937 0.750000 0.213430
O O13 0.571841 0.928160 0.210685
O O14 0.404503 0.907769 0.248505
O O15 0.750000 0.484377 0.712330
O O16 0.571471 0.571471 0.710947
O O17 0.400849 0.900849 0.500000
O O18 0.250000 0.903523 0.447283
O O19 0.359924 0.750000 0.455411
#
# Coordination Sequence:
#
# PCOD9565347 Si02
#       6
#    16  16  16  16  16  16
#     4  10  20  32  47  69  96 128 166 204 242 284
#     4   9  18  32  50  73  99 127 160 198 242 291
#     4   9  18  32  49  70  97 127 160 200 243 288
#     4  10  21  36  53  74 100 130 165 202 238 278
#     4  10  21  36  54  77 102 127 157 193 236 287
#     4   8  14  26  45  68  92 118 152 197 246 292
#
# _framework density 16.576627999999999
#
# number of rings (size 3 to 8) (size 9 to 14) (size 15 to 20)
#    0.000    2.667    0.000    2.000    0.000    5.000 
#    0.000    3.333    0.000    6.000    0.000    4.667 
#    0.000    4.000    0.000    0.000    0.000    0.000 
#
# Total GULP energy -535070.277802 kJ/mol
# GULP energy per Si atom -5573.648727 kJ/mol
# Density = 1.653890 g / cm^3
# Si number density = 16.576628 Si / 1000 Ang^3
#
#
#
# Elastic Constant Matrix: (Units=GPa)
#
#
# Indices 1 2 3 4 5 6 
#
# 1 106.9859 59.4887 58.3406 0.0000 0.0000 0.0000
# 2 59.4887 106.9878 58.3407 0.0000 0.0000 0.0000
# 3 58.3406 58.3407 113.6871 0.0000 0.0000 0.0000
# 4 0.0000 0.0000 0.0000 23.1301 0.0000 0.0000
# 5 0.0000 0.0000 0.0000 0.0000 23.1301 0.0000
# 6 0.0000 0.0000 0.0000 0.0000 0.0000 5.5686
#
#
#
# Elastic Compliance Matrix: (Units=1/GPa)
#
#
# Indices 1 2 3 4 5 6 
#
# 1 0.015217 -0.005836 -0.004814 0.000000 0.000000 0.000000
# 2 -0.005836 0.015217 -0.004814 0.000000 0.000000 0.000000
# 3 -0.004814 -0.004814 0.013737 0.000000 0.000000 0.000000
# 4 0.000000 0.000000 0.000000 0.043234 0.000000 0.000000
# 5 0.000000 0.000000 0.000000 0.000000 0.043234 0.000000
# 6 0.000000 0.000000 0.000000 0.000000 0.000000 0.179580
#
#
# Mechanical properties :
#
#
# Convention : Reuss Voigt Hill
#
# Bulk Modulus (GPa) = 75.51295 75.55564 75.53430
# Shear Modulus (GPa) = 14.46921 20.46514 17.46717
#
# Velocity S-wave (km/s) = 2.95764 3.51747 3.24963
# Velocity P-wave (km/s) = 7.57075 7.88513 7.72954
#
# Compressibility (1/GPa) = 0.01324276
#
# Stress axis : x y z
#
# Youngs Moduli (GPa) = 65.71424 65.71579 72.79664
#
# Poissons Ratio (x) = 0.38353 0.35045
# Poissons Ratio (y) = 0.38352 0.35044
# Poissons Ratio (z) = 0.31636 0.31635
#
# Static dielectric constant tensor:
#      x y z
#    x 1.531830 0.000000 0.000000 
#    y 0.000000 1.531830 0.000000 
#    z 0.000000 0.000000 1.582390 
# 
# From -- ./inp_files/7865.got.cif
#   From: 2010.05.17/outbox.cif.g08.bks.cpg/sg129_4_cif.got.tgz:7865.got - 2010.05.20 12:12:06.
