data_PCOD9565389
_publ_section_title
;
Structure prediction by ZEFSAII (Michael W. Deem and Ramdas Pophale) SiO2 
 PCOD9565389
Probable space group: P 4/N M M
;
_chemical_formula_sum "Si O2"
_cell_formula_units_Z 112
_cell_length_a 18.407704
_cell_length_b 18.407704
_cell_length_c 19.294564
_cell_angle_alpha 90.000000
_cell_angle_beta 90.000000
_cell_angle_gamma 90.000000
_cell_volume 6537.838881
_symmetry_space_group_name_H-M "P 4/N M M"
_symmetry_group_IT_number 129
_symmetry_cell_setting 'tetragonal'
loop_
_space_group_symop_operation_xyz
x,y,z
1/2-y,x,z
1/2-x,1/2-y,z
y,1/2-x,z
1/2+x,-y,-z
-x,1/2+y,-z
1/2+y,1/2+x,-z
-y,-x,-z
-x,-y,-z
1/2+y,-x,-z
1/2+x,1/2+y,-z
-y,1/2+x,-z
1/2-x,y,z
x,1/2-y,z
1/2-y,1/2-x,z
y,x,z
loop_
_atom_site_type_symbol
_atom_site_label
_atom_site_fract_x
_atom_site_fract_y
_atom_site_fract_z
Si Si1 0.333135 0.451559 0.344102
Si Si2 0.665543 0.447680 0.032772
Si Si3 0.545731 0.834718 0.903595
Si Si4 0.440923 0.666824 0.784523
Si Si5 0.335663 0.557619 0.708874
Si Si6 0.939924 0.439126 0.421216
Si Si7 0.043784 0.164601 0.835949
O O1 0.250000 0.441947 0.364997
O O2 0.376980 0.376980 0.339809
O O3 0.335108 0.493152 0.270716
O O4 0.377062 0.505212 0.394472
O O5 0.750000 0.422924 0.032049
O O6 0.648688 0.478991 0.109028
O O7 0.613094 0.386907 0.000000
O O8 0.660390 0.517106 0.981802
O O9 0.560844 0.750000 0.887375
O O10 0.613955 0.886046 0.891705
O O11 0.478099 0.858387 0.855405
O O12 0.417024 0.750000 0.793623
O O13 0.376575 0.620221 0.752321
O O14 0.250000 0.571321 0.701509
O O15 0.375614 0.553532 0.634723
O O16 0.345061 0.487196 0.758058
O O17 0.920082 0.420082 0.500000
O O18 0.986103 0.513898 0.421537
O O19 0.062434 0.250000 0.845367
O O20 0.110573 0.110573 0.847850
#
# Coordination Sequence:
#
# PCOD9565389 Si02
#       7
#    16  16  16  16  16  16  16
#     4   9  17  29  46  69  96 126 159 194 234 284
#     4  10  21  35  51  74 102 133 173 218 264 314
#     4  10  20  33  50  73 100 132 171 214 261 312
#     4   9  18  32  48  68  97 131 165 199 239 292
#     4  10  20  33  52  77 101 128 165 208 251 295
#     4   9  18  33  52  73  98 129 163 199 244 297
#     4  10  21  36  53  75 102 132 170 214 259 309
#
# _framework density 17.131042999999998
#
# number of rings (size 3 to 8) (size 9 to 14) (size 15 to 20)
#    0.000    2.429    0.000    2.143    0.000    5.429 
#    0.000    0.000    0.000   10.286    0.000    2.000 
#    0.000    3.429    0.000    0.000    0.000    0.143 
#
# Total GULP energy -624319.378966 kJ/mol
# GULP energy per Si atom -5574.280169 kJ/mol
# Density = 1.709205 g / cm^3
# Si number density = 17.131043 Si / 1000 Ang^3
#
#
#
# Elastic Constant Matrix: (Units=GPa)
#
#
# Indices 1 2 3 4 5 6 
#
# 1 101.7333 68.5508 35.5851 0.0000 0.0000 0.0000
# 2 68.5508 101.7334 35.5847 0.0000 0.0000 0.0000
# 3 35.5851 35.5847 110.1584 0.0000 0.0000 0.0000
# 4 0.0000 0.0000 0.0000 16.4442 0.0000 0.0000
# 5 0.0000 0.0000 0.0000 0.0000 16.4442 0.0000
# 6 0.0000 0.0000 0.0000 0.0000 0.0000 13.1983
#
#
#
# Elastic Compliance Matrix: (Units=1/GPa)
#
#
# Indices 1 2 3 4 5 6 
#
# 1 0.018463 -0.011674 -0.002193 0.000000 0.000000 0.000000
# 2 -0.011674 0.018463 -0.002193 0.000000 0.000000 0.000000
# 3 -0.002193 -0.002193 0.010495 0.000000 0.000000 0.000000
# 4 0.000000 0.000000 0.000000 0.060812 0.000000 0.000000
# 5 0.000000 0.000000 0.000000 0.000000 0.060812 0.000000
# 6 0.000000 0.000000 0.000000 0.000000 0.000000 0.075767
#
#
# Mechanical properties :
#
#
# Convention : Reuss Voigt Hill
#
# Bulk Modulus (GPa) = 65.35717 65.89625 65.62671
# Shear Modulus (GPa) = 17.72856 20.81097 19.26977
#
# Velocity S-wave (km/s) = 3.22044 3.48919 3.35751
# Velocity P-wave (km/s) = 7.21543 7.40150 7.30906
#
# Compressibility (1/GPa) = 0.01530054
#
# Stress axis : x y z
#
# Youngs Moduli (GPa) = 54.16300 54.16323 95.28574
#
# Poissons Ratio (x) = 0.63228 0.20898
# Poissons Ratio (y) = 0.63228 0.20897
# Poissons Ratio (z) = 0.11879 0.11878
#
# Static dielectric constant tensor:
#      x y z
#    x 1.567810 0.000000 0.000000 
#    y 0.000000 1.567800 0.000000 
#    z 0.000000 0.000000 1.609300 
# 
# From -- ./inp_files/6666.got.cif
#   From: 2010.05.17/outbox.cif.g08.bks.cpg/sg129_4_cif.got.tgz:6666.got - 2010.05.20 12:12:06.
