data_PCOD9565488
_publ_section_title
;
Structure prediction by ZEFSAII (Michael W. Deem and Ramdas Pophale) SiO2 
 PCOD9565488
Probable space group: P 4/N M M
;
_chemical_formula_sum "Si O2"
_cell_formula_units_Z 52
_cell_length_a 14.674828
_cell_length_b 14.674828
_cell_length_c 12.194235
_cell_angle_alpha 90.000000
_cell_angle_beta 90.000000
_cell_angle_gamma 90.000000
_cell_volume 2626.035541
_symmetry_space_group_name_H-M "P 4/N M M"
_symmetry_group_IT_number 129
_symmetry_cell_setting 'tetragonal'
loop_
_space_group_symop_operation_xyz
x,y,z
1/2-y,x,z
1/2-x,1/2-y,z
y,1/2-x,z
1/2+x,-y,-z
-x,1/2+y,-z
1/2+y,1/2+x,-z
-y,-x,-z
-x,-y,-z
1/2+y,-x,-z
1/2+x,1/2+y,-z
-y,1/2+x,-z
1/2-x,y,z
x,1/2-y,z
1/2-y,1/2-x,z
y,x,z
loop_
_atom_site_type_symbol
_atom_site_label
_atom_site_fract_x
_atom_site_fract_y
_atom_site_fract_z
Si Si1 0.750000 0.750000 0.587228
Si Si2 0.250000 0.470134 0.441283
Si Si3 0.573942 0.250000 0.654237
Si Si4 0.250000 0.750000 0.500000
Si Si5 0.097588 0.951007 0.286822
Si Si6 0.145767 0.997166 0.043162
O O1 0.750000 0.636512 0.585876
O O2 0.250000 0.488649 0.571209
O O3 0.337044 0.519970 0.386492
O O4 0.661823 0.250000 0.575544
O O5 0.581087 0.156485 0.720218
O O6 0.142317 0.987890 0.175072
O O7 0.002382 0.002382 0.300601
O O8 0.250000 0.001270 0.006230
O O9 0.089964 0.910037 0.000000
O O10 0.085826 0.085826 0.011899
#
# Coordination Sequence:
#
# PCOD9565488 Si02
#       6
#     2   8   8   2  16  16
#     4  12  28  36  64  96 128 158 224 268 292 376
#     4  12  22  40  61  90 125 165 208 257 311 362
#     4  12  24  38  59  87 128 167 210 252 304 375
#     4  12  20  36  56  84 122 164 200 252 288 364
#     4  11  23  41  62  89 123 165 206 256 317 370
#     4  10  23  43  66  95 127 160 208 262 321 383
#
# _framework density 19.801711000000001
#
# number of rings (size 3 to 8) (size 9 to 14) (size 15 to 20)
#    0.000    0.923    6.154    0.000    4.308    1.846 
#    0.000    0.000    0.000    0.000    0.000    0.000 
#    0.000    0.000    0.000    0.000    0.000    0.000 
#
# Total GULP energy -290055.904836 kJ/mol
# GULP energy per Si atom -5577.998170 kJ/mol
# Density = 1.975664 g / cm^3
# Si number density = 19.801711 Si / 1000 Ang^3
#
#
#
# Elastic Constant Matrix: (Units=GPa)
#
#
# Indices 1 2 3 4 5 6 
#
# 1 177.6625 55.5112 -1.0945 0.0000 0.0000 0.0000
# 2 55.5112 177.6636 -1.0962 0.0000 0.0000 0.0000
# 3 -1.0945 -1.0962 15.1688 0.0000 0.0000 0.0000
# 4 0.0000 0.0000 0.0000 11.6795 0.0000 0.0000
# 5 0.0000 0.0000 0.0000 0.0000 11.6767 0.0000
# 6 0.0000 0.0000 0.0000 0.0000 0.0000 13.2098
#
#
#
# Elastic Compliance Matrix: (Units=1/GPa)
#
#
# Indices 1 2 3 4 5 6 
#
# 1 0.006239 -0.001947 0.000309 0.000000 0.000000 0.000000
# 2 -0.001947 0.006239 0.000310 0.000000 0.000000 0.000000
# 3 0.000309 0.000310 0.065970 0.000000 0.000000 0.000000
# 4 0.000000 0.000000 0.000000 0.085620 0.000000 0.000000
# 5 0.000000 0.000000 0.000000 0.000000 0.085640 0.000000
# 6 0.000000 0.000000 0.000000 0.000000 0.000000 0.075702
#
#
# Mechanical properties :
#
#
# Convention : Reuss Voigt Hill
#
# Bulk Modulus (GPa) = 13.19394 53.01509 33.10452
# Shear Modulus (GPa) = 14.15109 28.45816 21.30463
#
# Velocity S-wave (km/s) = 2.67618 3.79510 3.28365
# Velocity P-wave (km/s) = 4.02824 6.78489 5.57949
#
# Compressibility (1/GPa) = 0.07579236
#
# Stress axis : x y z
#
# Youngs Moduli (GPa) = 160.28073 160.28150 15.15849
#
# Poissons Ratio (x) = 0.31215 -0.00469
# Poissons Ratio (y) = 0.31214 -0.00470
# Poissons Ratio (z) = -0.04960 -0.04974
#
# Static dielectric constant tensor:
#      x y z
#    x 1.690530 0.000000 0.000000 
#    y 0.000000 1.690530 0.000000 
#    z 0.000000 0.000000 1.724900 
# 
# From -- ./inp_files/3285.got.cif
#   From: 2010.05.17/outbox.cif.g08.bks.cpg/sg129_2_cif.got.tgz:3285.got - 2010.05.20 12:12:06.
