data_PCOD9565908
_publ_section_title
;
Structure prediction by ZEFSAII (Michael W. Deem and Ramdas Pophale) SiO2 
 PCOD9565908
Probable space group: P 4/N C C
;
_chemical_formula_sum "Si O2"
_cell_formula_units_Z 96
_cell_length_a 23.891840
_cell_length_b 23.891840
_cell_length_c 8.724611
_cell_angle_alpha 90.000000
_cell_angle_beta 90.000000
_cell_angle_gamma 90.000000
_cell_volume 4980.182613
_symmetry_space_group_name_H-M "P 4/N C C"
_symmetry_group_IT_number 130
_symmetry_cell_setting 'tetragonal'
loop_
_space_group_symop_operation_xyz
x,y,z
1/2-y,x,z
1/2-x,1/2-y,z
y,1/2-x,z
1/2+x,-y,1/2-z
-x,1/2+y,1/2-z
1/2+y,1/2+x,1/2-z
-y,-x,1/2-z
-x,-y,-z
1/2+y,-x,-z
1/2+x,1/2+y,-z
-y,1/2+x,-z
1/2-x,y,1/2+z
x,1/2-y,1/2+z
1/2-y,1/2-x,1/2+z
y,x,1/2+z
loop_
_atom_site_type_symbol
_atom_site_label
_atom_site_fract_x
_atom_site_fract_y
_atom_site_fract_z
Si Si1 0.100762 0.310447 0.891230
Si Si2 0.100365 0.312300 0.259484
Si Si3 0.478059 0.690418 0.743444
Si Si4 0.371244 0.628757 0.750000
Si Si5 0.128133 0.871868 0.250000
Si Si6 0.185437 0.689767 0.996535
Si Si7 0.187193 0.976359 0.387272
O O1 0.115046 0.248740 0.827496
O O2 0.142839 0.356209 0.824371
O O3 0.038276 0.321808 0.829311
O O4 0.101466 0.310401 0.075352
O O5 0.037339 0.325319 0.316552
O O6 0.433028 0.643373 0.696525
O O7 0.460355 0.751264 0.678154
O O8 0.481814 0.690882 0.928545
O O9 0.325803 0.643046 0.621520
O O10 0.177853 0.861119 0.128678
O O11 0.141677 0.930331 0.332751
O O12 0.182530 0.751771 0.064969
#
# Coordination Sequence:
#
# PCOD9565908 Si02
#       7
#    16  16  16   8   8  16  16
#     4  11  23  42  69  99 132 163 201 246 303 366
#     4  11  23  42  69  99 132 163 201 246 303 366
#     4  11  23  39  61  87 121 164 213 260 312 369
#     4  12  24  35  57  82 118 162 214 260 314 373
#     4  12  24  35  57  82 118 162 214 260 314 373
#     4  11  22  36  52  78 113 154 204 268 327 374
#     4  11  23  39  61  87 121 164 213 260 312 369
#
# _framework density 19.276402999999998
#
# number of rings (size 3 to 8) (size 9 to 14) (size 15 to 20)
#    0.000    0.833    1.667    9.000    4.667    1.667 
#    0.000    2.500    0.000    4.000    0.000    0.000 
#    0.000    0.000    0.000    0.000    0.000    0.000 
#
# Total GULP energy -536312.918183 kJ/mol
# GULP energy per Si atom -5586.592898 kJ/mol
# Density = 1.923253 g / cm^3
# Si number density = 19.276403 Si / 1000 Ang^3
#
#
#
# Elastic Constant Matrix: (Units=GPa)
#
#
# Indices 1 2 3 4 5 6 
#
# 1 109.2256 85.6205 38.9351 0.0000 0.0000 0.0000
# 2 85.6205 109.2246 38.9357 0.0000 0.0000 0.0000
# 3 38.9351 38.9357 140.7998 0.0000 0.0000 0.0000
# 4 0.0000 0.0000 0.0000 31.5636 0.0000 0.0000
# 5 0.0000 0.0000 0.0000 0.0000 31.5636 0.0000
# 6 0.0000 0.0000 0.0000 0.0000 0.0000 38.3627
#
#
#
# Elastic Compliance Matrix: (Units=1/GPa)
#
#
# Indices 1 2 3 4 5 6 
#
# 1 0.024067 -0.018297 -0.001595 0.000000 0.000000 0.000000
# 2 -0.018297 0.024067 -0.001596 0.000000 0.000000 0.000000
# 3 -0.001595 -0.001596 0.007985 0.000000 0.000000 0.000000
# 4 0.000000 0.000000 0.000000 0.031682 0.000000 0.000000
# 5 0.000000 0.000000 0.000000 0.000000 0.031682 0.000000
# 6 0.000000 0.000000 0.000000 0.000000 0.000000 0.026067
#
#
# Mechanical properties :
#
#
# Convention : Reuss Voigt Hill
#
# Bulk Modulus (GPa) = 76.08986 76.24807 76.16896
# Shear Modulus (GPa) = 25.91908 33.34855 29.63382
#
# Velocity S-wave (km/s) = 3.67086 4.16386 3.92511
# Velocity P-wave (km/s) = 7.58457 7.92200 7.75512
#
# Compressibility (1/GPa) = 0.01314236
#
# Stress axis : x y z
#
# Youngs Moduli (GPa) = 41.55051 41.54991 125.23913
#
# Poissons Ratio (x) = 0.76025 0.19981
# Poissons Ratio (y) = 0.76026 0.19985
# Poissons Ratio (z) = 0.06629 0.06630
#
# Static dielectric constant tensor:
#      x y z
#    x 1.660360 0.000000 0.000000 
#    y 0.000000 1.660360 0.000000 
#    z 0.000000 0.000000 1.726390 
# 
# From -- ./inp_files/965.got.cif
#   From: 2010.05.17/outbox.cif.g08.bks.cpg/sg130_1_cif.got.tgz:965.got - 2010.05.20 12:17:35.
