data_PCOD9565145
_publ_section_title
;
Structure prediction by ZEFSAII (Michael W. Deem and Ramdas Pophale) SiO2 
 PCOD9565145
Probable space group: P 4/N M M
;
_chemical_formula_sum "Si O2"
_cell_formula_units_Z 128
_cell_length_a 25.733823
_cell_length_b 25.733823
_cell_length_c 11.666518
_cell_angle_alpha 90.000000
_cell_angle_beta 90.000000
_cell_angle_gamma 90.000000
_cell_volume 7725.914087
_symmetry_space_group_name_H-M "P 4/N M M"
_symmetry_group_IT_number 129
_symmetry_cell_setting 'tetragonal'
loop_
_space_group_symop_operation_xyz
x,y,z
1/2-y,x,z
1/2-x,1/2-y,z
y,1/2-x,z
1/2+x,-y,-z
-x,1/2+y,-z
1/2+y,1/2+x,-z
-y,-x,-z
-x,-y,-z
1/2+y,-x,-z
1/2+x,1/2+y,-z
-y,1/2+x,-z
1/2-x,y,z
x,1/2-y,z
1/2-y,1/2-x,z
y,x,z
loop_
_atom_site_type_symbol
_atom_site_label
_atom_site_fract_x
_atom_site_fract_y
_atom_site_fract_z
Si Si1 0.689044 0.023575 0.592216
Si Si2 0.095418 0.621837 0.212207
Si Si3 0.689234 0.600607 0.211781
Si Si4 0.440147 0.690170 0.851587
Si Si5 0.444239 0.972263 0.629265
Si Si6 0.360006 0.443310 0.565722
Si Si7 0.120440 0.688827 0.431968
Si Si8 0.810648 0.493106 0.088310
O O1 0.750000 0.017823 0.570737
O O2 0.682742 0.035544 0.725557
O O3 0.672133 0.072467 0.513978
O O4 0.662300 0.972719 0.543203
O O5 0.144494 0.602386 0.138619
O O6 0.069852 0.572769 0.278349
O O7 0.115780 0.659376 0.312591
O O8 0.049687 0.652326 0.146867
O O9 0.750000 0.615480 0.197541
O O10 0.648126 0.648126 0.198295
O O11 0.680355 0.576343 0.338951
O O12 0.677279 0.551955 0.127177
O O13 0.419636 0.750000 0.856312
O O14 0.482023 0.685507 0.952876
O O15 0.450699 0.950699 0.500000
O O16 0.497425 0.002576 0.656807
O O17 0.398465 0.015076 0.625787
O O18 0.394898 0.394898 0.530537
O O19 0.171363 0.671363 0.500000
O O20 0.118049 0.750000 0.415140
O O21 0.750000 0.483938 0.122512
#
# Coordination Sequence:
#
# PCOD9565145 Si02
#       8
#    16  16  16  16  16  16  16  16
#     4  10  18  32  51  72 101 138 175 211 256 324
#     4  12  19  33  56  75 101 134 180 223 268 327
#     4  10  20  36  59  85 114 144 177 222 270 323
#     4  10  22  36  52  72 101 139 180 227 272 314
#     4  10  19  29  45  74 109 138 162 201 257 315
#     4  10  18  30  50  78 110 137 167 210 259 314
#     4  11  21  32  49  72  98 129 167 218 275 325
#     4  10  21  37  54  76 102 138 184 224 269 320
#
# _framework density 16.567619000000001
#
# number of rings (size 3 to 8) (size 9 to 14) (size 15 to 20)
#    0.000    1.625    3.750    2.250    0.000    2.250 
#    0.000    1.250    0.000    2.625    0.000    3.500 
#    0.000    0.000    0.000    7.875    0.000    0.000 
#
# Total GULP energy -713764.426847 kJ/mol
# GULP energy per Si atom -5576.284585 kJ/mol
# Density = 1.652991 g / cm^3
# Si number density = 16.567619 Si / 1000 Ang^3
#
#
#
# Elastic Constant Matrix: (Units=GPa)
#
#
# Indices 1 2 3 4 5 6 
#
# 1 87.7953 52.9974 27.1516 0.0000 0.0000 0.0000
# 2 52.9974 87.7953 27.1516 0.0000 0.0000 0.0000
# 3 27.1516 27.1516 40.8987 0.0000 0.0000 0.0000
# 4 0.0000 0.0000 0.0000 22.7119 0.0000 0.0000
# 5 0.0000 0.0000 0.0000 0.0000 22.7119 0.0000
# 6 0.0000 0.0000 0.0000 0.0000 0.0000 24.1162
#
#
#
# Elastic Compliance Matrix: (Units=1/GPa)
#
#
# Indices 1 2 3 4 5 6 
#
# 1 0.019142 -0.009595 -0.006338 0.000000 0.000000 0.000000
# 2 -0.009595 0.019142 -0.006338 0.000000 0.000000 0.000000
# 3 -0.006338 -0.006338 0.032866 0.000000 0.000000 0.000000
# 4 0.000000 0.000000 0.000000 0.044030 0.000000 0.000000
# 5 0.000000 0.000000 0.000000 0.000000 0.044030 0.000000
# 6 0.000000 0.000000 0.000000 0.000000 0.000000 0.041466
#
#
# Mechanical properties :
#
#
# Convention : Reuss Voigt Hill
#
# Bulk Modulus (GPa) = 37.58275 47.89896 42.74086
# Shear Modulus (GPa) = 19.67820 21.18725 20.43272
#
# Velocity S-wave (km/s) = 3.45011 3.57996 3.51564
# Velocity P-wave (km/s) = 6.21327 6.78691 6.50641
#
# Compressibility (1/GPa) = 0.02660795
#
# Stress axis : x y z
#
# Youngs Moduli (GPa) = 52.24028 52.24028 30.42644
#
# Poissons Ratio (x) = 0.50125 0.19285
# Poissons Ratio (y) = 0.50125 0.19285
# Poissons Ratio (z) = 0.33111 0.33111
#
# Static dielectric constant tensor:
#      x y z
#    x 1.577520 0.000000 0.000000 
#    y 0.000000 1.577520 0.000000 
#    z 0.000000 0.000000 1.549450 
# 
# From -- ./inp_files/4208.got.cif
#   From: 2010.05.17/outbox.cif.g08.bks.cpg/sg129_3_cif.got.tgz:4208.got - 2010.05.20 12:12:06.
