data_PCOD9565303
_publ_section_title
;
Structure prediction by ZEFSAII (Michael W. Deem and Ramdas Pophale) SiO2 
 PCOD9565303
Probable space group: P 4/N M M
;
_chemical_formula_sum "Si O2"
_cell_formula_units_Z 72
_cell_length_a 28.517922
_cell_length_b 28.517922
_cell_length_c 5.094299
_cell_angle_alpha 90.000000
_cell_angle_beta 90.000000
_cell_angle_gamma 90.000000
_cell_volume 4143.050101
_symmetry_space_group_name_H-M "P 4/N M M"
_symmetry_group_IT_number 129
_symmetry_cell_setting 'tetragonal'
loop_
_space_group_symop_operation_xyz
x,y,z
1/2-y,x,z
1/2-x,1/2-y,z
y,1/2-x,z
1/2+x,-y,-z
-x,1/2+y,-z
1/2+y,1/2+x,-z
-y,-x,-z
-x,-y,-z
1/2+y,-x,-z
1/2+x,1/2+y,-z
-y,1/2+x,-z
1/2-x,y,z
x,1/2-y,z
1/2-y,1/2-x,z
y,x,z
loop_
_atom_site_type_symbol
_atom_site_label
_atom_site_fract_x
_atom_site_fract_y
_atom_site_fract_z
Si Si1 0.442928 0.193657 0.760248
Si Si2 0.306093 0.117455 0.250651
Si Si3 0.197958 0.697958 0.000000
Si Si4 0.333881 0.602565 0.141317
Si Si5 0.804672 0.047343 0.363550
O O1 0.448166 0.250000 0.780584
O O2 0.405881 0.184387 0.531245
O O3 0.494816 0.176867 0.687664
O O4 0.420390 0.178271 0.033054
O O5 0.250000 0.125045 0.224749
O O6 0.335135 0.164866 0.218184
O O7 0.190661 0.653257 0.188791
O O8 0.194322 0.750000 0.118999
O O9 0.333067 0.573761 0.408186
O O10 0.382659 0.617342 0.000000
O O11 0.307182 0.574845 0.911393
O O12 0.750000 0.045408 0.450248
#
# Coordination Sequence:
#
# PCOD9565303 Si02
#       5
#    16  16   8  16  16
#     4   9  19  32  51  75  99 135 175 217 255 282
#     4  10  19  33  51  78 114 145 173 200 232 283
#     4   9  18  32  46  64  96 136 169 198 238 300
#     4  10  22  33  46  72  96 127 171 204 259 302
#     4  11  19  34  53  69  95 129 171 217 263 304
#
# _framework density 17.378501
#
# number of rings (size 3 to 8) (size 9 to 14) (size 15 to 20)
#    0.667    1.444    0.000    4.667    0.000    3.778 
#    0.000    1.111    0.000    8.000    0.000    0.000 
#    0.000   62.222    0.000    0.000    0.000    0.000 
#
# Total GULP energy -401012.930295 kJ/mol
# GULP energy per Si atom -5569.624032 kJ/mol
# Density = 1.733895 g / cm^3
# Si number density = 17.378501 Si / 1000 Ang^3
#
#
#
# Elastic Constant Matrix: (Units=GPa)
#
#
# Indices 1 2 3 4 5 6 
#
# 1 51.3304 24.2990 -1.2323 0.0000 0.0000 0.0000
# 2 24.2990 51.3326 -1.2319 0.0000 0.0000 0.0000
# 3 -1.2323 -1.2319 46.6753 0.0000 0.0000 0.0000
# 4 0.0000 0.0000 0.0000 4.4332 0.0000 0.0000
# 5 0.0000 0.0000 0.0000 0.0000 4.4328 0.0000
# 6 0.0000 0.0000 0.0000 0.0000 0.0000 9.4748
#
#
#
# Elastic Compliance Matrix: (Units=1/GPa)
#
#
# Indices 1 2 3 4 5 6 
#
# 1 0.025114 -0.011879 0.000349 0.000000 0.000000 0.000000
# 2 -0.011879 0.025113 0.000349 0.000000 0.000000 0.000000
# 3 0.000349 0.000349 0.021443 0.000000 0.000000 0.000000
# 4 0.000000 0.000000 0.000000 0.225571 0.000000 0.000000
# 5 0.000000 0.000000 0.000000 0.000000 0.225592 0.000000
# 6 0.000000 0.000000 0.000000 0.000000 0.000000 0.105543
#
#
# Mechanical properties :
#
#
# Convention : Reuss Voigt Hill
#
# Bulk Modulus (GPa) = 20.28091 21.44534 20.86312
# Shear Modulus (GPa) = 7.49432 12.16839 9.83136
#
# Velocity S-wave (km/s) = 2.07889 2.64900 2.38107
# Velocity P-wave (km/s) = 4.17825 4.66081 4.42612
#
# Compressibility (1/GPa) = 0.04930746
#
# Stress axis : x y z
#
# Youngs Moduli (GPa) = 39.81905 39.82081 46.63515
#
# Poissons Ratio (x) = 0.47305 -0.01630
# Poissons Ratio (y) = 0.47303 -0.01628
# Poissons Ratio (z) = -0.01392 -0.01390
#
# Static dielectric constant tensor:
#      x y z
#    x 1.608770 0.000000 0.000000 
#    y 0.000000 1.608770 0.000000 
#    z 0.000000 0.000000 1.596130 
# 
# From -- ./inp_files/904.got.cif
#   From: 2010.05.17/outbox.cif.g08.bks.cpg/sg129_1_cif.got.tgz:904.got - 2010.05.20 12:12:06.
