data_PCOD9565612
_publ_section_title
;
Structure prediction by ZEFSAII (Michael W. Deem and Ramdas Pophale) SiO2 
 PCOD9565612
Probable space group: P 4/N C C
;
_chemical_formula_sum "Si O2"
_cell_formula_units_Z 88
_cell_length_a 35.378677
_cell_length_b 35.378677
_cell_length_c 5.127188
_cell_angle_alpha 90.000000
_cell_angle_beta 90.000000
_cell_angle_gamma 90.000000
_cell_volume 6417.448892
_symmetry_space_group_name_H-M "P 4/N C C"
_symmetry_group_IT_number 130
_symmetry_cell_setting 'tetragonal'
loop_
_space_group_symop_operation_xyz
x,y,z
1/2-y,x,z
1/2-x,1/2-y,z
y,1/2-x,z
1/2+x,-y,1/2-z
-x,1/2+y,1/2-z
1/2+y,1/2+x,1/2-z
-y,-x,1/2-z
-x,-y,-z
1/2+y,-x,-z
1/2+x,1/2+y,-z
-y,1/2+x,-z
1/2-x,y,1/2+z
x,1/2-y,1/2+z
1/2-y,1/2-x,1/2+z
y,x,1/2+z
loop_
_atom_site_type_symbol
_atom_site_label
_atom_site_fract_x
_atom_site_fract_y
_atom_site_fract_z
Si Si1 0.153556 0.935522 0.664446
Si Si2 0.351272 0.728008 0.467922
Si Si3 0.652435 0.347566 0.250000
Si Si4 0.048625 0.016376 0.250941
Si Si5 0.108362 0.545923 0.670735
Si Si6 0.230165 0.942562 0.963215
O O1 0.156586 0.889951 0.639756
O O2 0.142039 0.951048 0.382110
O O3 0.191517 0.949659 0.806784
O O4 0.121521 0.945552 0.877481
O O5 0.337588 0.744046 0.195437
O O6 0.342341 0.685008 0.537267
O O7 0.397088 0.730916 0.490088
O O8 0.045481 0.036876 0.526640
O O9 0.087014 0.993929 0.195649
O O10 0.016331 0.983670 0.250000
O O11 0.078572 0.578572 0.750000
O O12 0.262051 0.956202 0.756892
#
# Coordination Sequence:
#
# PCOD9565612 Si02
#       6
#    16  16   8  16  16  16
#     4  11  20  29  43  63  78  93 112 147 180 204
#     4   9  19  31  44  59  71  86 107 128 151 200
#     4  10  20  32  48  59  74  90 106 130 176 204
#     4   9  17  28  41  53  73 104 126 139 160 197
#     4  11  19  29  40  61  81  94 118 148 175 200
#     4   9  17  30  42  55  74  95 115 133 165 215
#
# _framework density 13.712615
#
# number of rings (size 3 to 8) (size 9 to 14) (size 15 to 20)
#    0.000    2.182    1.818    2.182    0.000    9.455 
#    0.000    0.000    0.000    1.636    0.000    0.000 
#    0.000    0.000    0.000    0.000    0.000    0.000 
#
# Total GULP energy -490717.969756 kJ/mol
# GULP energy per Si atom -5576.340565 kJ/mol
# Density = 1.368140 g / cm^3
# Si number density = 13.712615 Si / 1000 Ang^3
#
#
#
# Elastic Constant Matrix: (Units=GPa)
#
#
# Indices 1 2 3 4 5 6 
#
# 1 24.5018 18.5449 1.3127 0.0000 0.0000 0.0000
# 2 18.5449 24.5036 1.3123 0.0000 0.0000 0.0000
# 3 1.3127 1.3123 51.0171 0.0000 0.0000 0.0000
# 4 0.0000 0.0000 0.0000 8.6512 0.0000 0.0000
# 5 0.0000 0.0000 0.0000 0.0000 8.6510 0.0000
# 6 0.0000 0.0000 0.0000 0.0000 0.0000 5.9002
#
#
#
# Elastic Compliance Matrix: (Units=1/GPa)
#
#
# Indices 1 2 3 4 5 6 
#
# 1 0.095560 -0.072290 -0.000599 0.000000 0.000000 0.000000
# 2 -0.072290 0.095553 -0.000598 0.000000 0.000000 0.000000
# 3 -0.000599 -0.000598 0.019632 0.000000 0.000000 0.000000
# 4 0.000000 0.000000 0.000000 0.115590 0.000000 0.000000
# 5 0.000000 0.000000 0.000000 0.000000 0.115594 0.000000
# 6 0.000000 0.000000 0.000000 0.000000 0.000000 0.169485
#
#
# Mechanical properties :
#
#
# Convention : Reuss Voigt Hill
#
# Bulk Modulus (GPa) = 15.68112 15.81803 15.74958
# Shear Modulus (GPa) = 6.41316 9.89733 8.15524
#
# Velocity S-wave (km/s) = 2.16495 2.68949 2.44135
# Velocity P-wave (km/s) = 4.20829 4.60488 4.41104
#
# Compressibility (1/GPa) = 0.06377097
#
# Stress axis : x y z
#
# Youngs Moduli (GPa) = 10.46461 10.46538 50.93704
#
# Poissons Ratio (x) = 0.75654 0.03053
# Poissons Ratio (y) = 0.75649 0.03045
# Poissons Ratio (z) = 0.00627 0.00626
#
# Static dielectric constant tensor:
#      x y z
#    x 1.460060 0.000000 0.000000 
#    y 0.000000 1.460050 0.000000 
#    z 0.000000 0.000000 1.491110 
# 
# From -- ./inp_files/239.got.cif
#   From: 2010.05.17/outbox.cif.g08.bks.cpg/sg130_1_cif.got.tgz:239.got - 2010.05.20 12:17:35.
