data_PCOD9565744
_publ_section_title
;
Structure prediction by ZEFSAII (Michael W. Deem and Ramdas Pophale) SiO2 
 PCOD9565744
Probable space group: P 4/N C C
;
_chemical_formula_sum "Si O2"
_cell_formula_units_Z 32
_cell_length_a 11.809345
_cell_length_b 11.809345
_cell_length_c 9.380928
_cell_angle_alpha 90.000000
_cell_angle_beta 90.000000
_cell_angle_gamma 90.000000
_cell_volume 1308.270123
_symmetry_space_group_name_H-M "P 4/N C C"
_symmetry_group_IT_number 130
_symmetry_cell_setting 'tetragonal'
loop_
_space_group_symop_operation_xyz
x,y,z
1/2-y,x,z
1/2-x,1/2-y,z
y,1/2-x,z
1/2+x,-y,1/2-z
-x,1/2+y,1/2-z
1/2+y,1/2+x,1/2-z
-y,-x,1/2-z
-x,-y,-z
1/2+y,-x,-z
1/2+x,1/2+y,-z
-y,1/2+x,-z
1/2-x,y,1/2+z
x,1/2-y,1/2+z
1/2-y,1/2-x,1/2+z
y,x,1/2+z
loop_
_atom_site_type_symbol
_atom_site_label
_atom_site_fract_x
_atom_site_fract_y
_atom_site_fract_z
Si Si1 0.198614 0.506804 0.752858
Si Si2 0.041014 0.376067 0.949443
O O1 0.149441 0.407513 0.854380
O O2 0.312927 0.537987 0.834676
O O3 0.199257 0.459187 0.592604
O O4 0.112275 0.612275 0.750000
O O5 0.000000 0.500000 0.000000
#
# Coordination Sequence:
#
# PCOD9565744 Si02
#       2
#    16  16
#     4  10  21  39  67 100 142 187 240 311 379 452
#     4  10  21  39  67 104 142 189 249 308 380 468
#
# _framework density 24.459782000000001
#
# number of rings (size 3 to 8) (size 9 to 14) (size 15 to 20)
#    0.000    2.000    0.000    3.000    0.000    5.000 
#    0.000    5.000    0.000  145.500    0.000    0.000 
#    0.000    0.000    0.000    0.000    0.000    0.000 
#
# Total GULP energy -178526.191049 kJ/mol
# GULP energy per Si atom -5578.943470 kJ/mol
# Density = 2.440411 g / cm^3
# Si number density = 24.459782 Si / 1000 Ang^3
#
#
#
# Elastic Constant Matrix: (Units=GPa)
#
#
# Indices 1 2 3 4 5 6 
#
# 1 88.3454 30.4691 78.7566 0.0000 0.0000 0.0000
# 2 30.4691 88.3454 78.7566 0.0000 0.0000 0.0000
# 3 78.7566 78.7566 280.9720 0.0000 0.0000 0.0000
# 4 0.0000 0.0000 0.0000 58.4102 0.0000 0.0000
# 5 0.0000 0.0000 0.0000 0.0000 58.4102 0.0000
# 6 0.0000 0.0000 0.0000 0.0000 0.0000 17.8456
#
#
#
# Elastic Compliance Matrix: (Units=1/GPa)
#
#
# Indices 1 2 3 4 5 6 
#
# 1 0.015336 -0.001942 -0.003754 0.000000 0.000000 0.000000
# 2 -0.001942 0.015336 -0.003754 0.000000 0.000000 0.000000
# 3 -0.003754 -0.003754 0.005664 0.000000 0.000000 0.000000
# 4 0.000000 0.000000 0.000000 0.017120 0.000000 0.000000
# 5 0.000000 0.000000 0.000000 0.000000 0.017120 0.000000
# 6 0.000000 0.000000 0.000000 0.000000 0.000000 0.056036
#
#
# Mechanical properties :
#
#
# Convention : Reuss Voigt Hill
#
# Bulk Modulus (GPa) = 57.35988 92.62527 74.99258
# Shear Modulus (GPa) = 33.04146 44.91189 38.97667
#
# Velocity S-wave (km/s) = 3.67938 4.28968 3.99620
# Velocity P-wave (km/s) = 6.44609 7.90480 7.21241
#
# Compressibility (1/GPa) = 0.01743379
#
# Stress axis : x y z
#
# Youngs Moduli (GPa) = 65.20674 65.20674 176.56387
#
# Poissons Ratio (x) = 0.12666 0.66285
# Poissons Ratio (y) = 0.12666 0.66285
# Poissons Ratio (z) = 0.24480 0.24480
#
# Static dielectric constant tensor:
#      x y z
#    x 2.126330 0.000000 0.000000 
#    y 0.000000 2.126330 0.000000 
#    z 0.000000 0.000000 1.949970 
# 
# From -- ./inp_files/327.got.cif
#   From: 2010.05.17/outbox.cif.g08.bks.cpg/sg130_1_cif.got.tgz:327.got - 2010.05.20 12:17:35.
