data_PCOD9565193
_publ_section_title
;
Structure prediction by ZEFSAII (Michael W. Deem and Ramdas Pophale) SiO2 
 PCOD9565193
Probable space group: P 4/N M M
;
_chemical_formula_sum "Si O2"
_cell_formula_units_Z 88
_cell_length_a 13.828814
_cell_length_b 13.828814
_cell_length_c 28.960260
_cell_angle_alpha 90.000000
_cell_angle_beta 90.000000
_cell_angle_gamma 90.000000
_cell_volume 5538.247080
_symmetry_space_group_name_H-M "P 4/N M M"
_symmetry_group_IT_number 129
_symmetry_cell_setting 'tetragonal'
loop_
_space_group_symop_operation_xyz
x,y,z
1/2-y,x,z
1/2-x,1/2-y,z
y,1/2-x,z
1/2+x,-y,-z
-x,1/2+y,-z
1/2+y,1/2+x,-z
-y,-x,-z
-x,-y,-z
1/2+y,-x,-z
1/2+x,1/2+y,-z
-y,1/2+x,-z
1/2-x,y,z
x,1/2-y,z
1/2-y,1/2-x,z
y,x,z
loop_
_atom_site_type_symbol
_atom_site_label
_atom_site_fract_x
_atom_site_fract_y
_atom_site_fract_z
Si Si1 0.367636 0.638749 0.550826
Si Si2 0.137049 0.637049 0.000000
Si Si3 0.024101 0.865643 0.174103
Si Si4 0.521617 0.366138 0.642030
Si Si5 0.139801 0.867179 0.266883
Si Si6 0.476328 0.635130 0.905649
O O1 0.397539 0.602462 0.500000
O O2 0.250000 0.640897 0.549412
O O3 0.399584 0.750000 0.557292
O O4 0.394661 0.574095 0.594328
O O5 0.070388 0.617402 0.955990
O O6 0.124522 0.750000 0.013136
O O7 0.012527 0.750000 0.172066
O O8 0.077142 0.892613 0.222085
O O9 0.091156 0.904212 0.132614
O O10 0.923302 0.923302 0.171403
O O11 0.511147 0.250000 0.642704
O O12 0.420309 0.420309 0.645619
O O13 0.587754 0.395334 0.685616
O O14 0.250000 0.903080 0.264006
O O15 0.144252 0.750000 0.267408
O O16 0.487541 0.750000 0.899483
O O17 0.575955 0.575955 0.901793
#
# Coordination Sequence:
#
# PCOD9565193 Si02
#       6
#    16   8  16  16  16  16
#     4   8  14  26  44  64  85 109 140 183 232 272
#     4   9  17  30  50  74  97 123 158 200 245 293
#     4  10  20  33  50  73 100 129 160 193 232 281
#     4  10  19  29  42  62  89 120 151 182 220 269
#     4   9  17  30  48  67  87 113 147 188 229 266
#     4  10  20  33  50  72  98 129 165 204 245 288
#
# _framework density 15.889505
#
# number of rings (size 3 to 8) (size 9 to 14) (size 15 to 20)
#    0.000    2.636    0.000    3.000    0.000    4.909 
#    0.000    0.000    0.000    3.273    0.000    2.545 
#    0.000   16.000    0.000    0.000    0.000    0.182 
#
# Total GULP energy -490338.336563 kJ/mol
# GULP energy per Si atom -5572.026552 kJ/mol
# Density = 1.585334 g / cm^3
# Si number density = 15.889505 Si / 1000 Ang^3
#
#
#
# Elastic Constant Matrix: (Units=GPa)
#
#
# Indices 1 2 3 4 5 6 
#
# 1 79.7082 53.1040 53.0366 0.0000 0.0000 0.0000
# 2 53.1040 79.7083 53.0366 0.0000 0.0000 0.0000
# 3 53.0366 53.0366 123.0359 0.0000 0.0000 0.0000
# 4 0.0000 0.0000 0.0000 14.7485 0.0000 0.0000
# 5 0.0000 0.0000 0.0000 0.0000 14.7484 0.0000
# 6 0.0000 0.0000 0.0000 0.0000 0.0000 12.7507
#
#
#
# Elastic Compliance Matrix: (Units=1/GPa)
#
#
# Indices 1 2 3 4 5 6 
#
# 1 0.024535 -0.013053 -0.004950 0.000000 0.000000 0.000000
# 2 -0.013053 0.024535 -0.004950 0.000000 0.000000 0.000000
# 3 -0.004950 -0.004950 0.012395 0.000000 0.000000 0.000000
# 4 0.000000 0.000000 0.000000 0.067804 0.000000 0.000000
# 5 0.000000 0.000000 0.000000 0.000000 0.067804 0.000000
# 6 0.000000 0.000000 0.000000 0.000000 0.000000 0.078427
#
#
# Mechanical properties :
#
#
# Convention : Reuss Voigt Hill
#
# Bulk Modulus (GPa) = 64.26209 66.75631 65.50920
# Shear Modulus (GPa) = 15.30963 16.66787 15.98875
#
# Velocity S-wave (km/s) = 3.10741 3.24232 3.17558
# Velocity P-wave (km/s) = 7.30791 7.49139 7.40022
#
# Compressibility (1/GPa) = 0.01556127
#
# Stress axis : x y z
#
# Youngs Moduli (GPa) = 40.75753 40.75765 80.67714
#
# Poissons Ratio (x) = 0.53199 0.39934
# Poissons Ratio (y) = 0.53199 0.39933
# Poissons Ratio (z) = 0.20174 0.20174
#
# Static dielectric constant tensor:
#      x y z
#    x 1.513180 0.000000 0.000000 
#    y 0.000000 1.513180 0.000000 
#    z 0.000000 0.000000 1.539970 
# 
# From -- ./inp_files/7750.got.cif
#   From: 2010.05.17/outbox.cif.g08.bks.cpg/sg129_4_cif.got.tgz:7750.got - 2010.05.20 12:12:06.
