data_PCOD9565093
_publ_section_title
;
Structure prediction by ZEFSAII (Michael W. Deem and Ramdas Pophale) SiO2 
 PCOD9565093
Probable space group: P 4/M N C
;
_chemical_formula_sum "Si O2"
_cell_formula_units_Z 88
_cell_length_a 15.000000
_cell_length_b 15.000000
_cell_length_c 21.000000
_cell_angle_alpha 90.000000
_cell_angle_beta 90.000000
_cell_angle_gamma 90.000000
_cell_volume 4725.000000
_symmetry_space_group_name_H-M "P 4/M N C"
_symmetry_group_IT_number 128
_symmetry_cell_setting 'tetragonal'
loop_
_space_group_symop_operation_xyz
x,y,z
-y,x,z
-x,-y,z
y,-x,z
1/2+x,1/2-y,1/2-z
1/2-x,1/2+y,1/2-z
1/2+y,1/2+x,1/2-z
1/2-y,1/2-x,1/2-z
-x,-y,-z
y,-x,-z
x,y,-z
-y,x,-z
1/2-x,1/2+y,1/2+z
1/2+x,1/2-y,1/2+z
1/2-y,1/2-x,1/2+z
1/2+y,1/2+x,1/2+z
loop_
_atom_site_type_symbol
_atom_site_label
_atom_site_fract_x
_atom_site_fract_y
_atom_site_fract_z
Si Si1 0.874077 0.751390 0.115657
Si Si2 0.817737 0.186632 0.574499
Si Si3 0.584559 0.377842 0.500000
Si Si4 0.455764 0.644586 0.733320
Si Si5 0.731317 0.509833 0.870714
Si Si6 0.059386 0.412626 0.425695
O O1 0.769090 0.724420 0.112184
O O2 0.884709 0.827290 0.062855
O O3 0.917405 0.786873 0.180877
O O4 0.925195 0.662873 0.091576
O O5 0.815388 0.214571 0.500000
O O6 0.809954 0.079772 0.579183
O O7 0.908939 0.212014 0.609335
O O8 0.619232 0.477949 0.500000
O O9 0.392959 0.556891 0.726202
O O10 0.460146 0.691045 0.802792
O O11 0.836805 0.523868 0.878448
O O12 0.054846 0.382630 0.500000
O O13 0.000000 0.500000 0.420064
#
# Coordination Sequence:
#
# PCOD9565093 Si02
#       6
#    16  16   8  16  16  16
#     4  11  22  42  64  94 133 174 220 279 335 406
#     4  11  22  40  66 100 132 172 224 284 339 397
#     4  11  22  38  63  96 126 163 221 284 346 400
#     4  11  24  44  64  91 131 176 222 275 341 399
#     4  11  22  41  64  94 134 175 224 275 335 408
#     4  10  22  42  65  95 133 173 215 275 338 397
#
# _framework density 18.624338999999999
#
# number of rings (size 3 to 8) (size 9 to 14) (size 15 to 20)
#    0.000    1.182    3.636    3.818    0.000    7.636 
#    0.000    4.545    0.000    0.000    0.000    0.000 
#    0.000    0.000    0.000    0.000    0.000    0.000 
#
# Total GULP energy -490996.050515 kJ/mol
# GULP energy per Si atom -5579.500574 kJ/mol
# Density = 1.858195 g / cm^3
# Si number density = 18.624339 Si / 1000 Ang^3
#
#
#
# Elastic Constant Matrix: (Units=GPa)
#
#
# Indices 1 2 3 4 5 6 
#
# 1 115.5291 36.8464 47.7013 0.0000 0.0000 0.0000
# 2 36.8464 115.5291 47.7013 0.0000 0.0000 0.0000
# 3 47.7013 47.7013 119.6690 0.0000 0.0000 0.0000
# 4 0.0000 0.0000 0.0000 30.8188 0.0000 0.0000
# 5 0.0000 0.0000 0.0000 0.0000 30.8188 0.0000
# 6 0.0000 0.0000 0.0000 0.0000 0.0000 28.4767
#
#
#
# Elastic Compliance Matrix: (Units=1/GPa)
#
#
# Indices 1 2 3 4 5 6 
#
# 1 0.010727 -0.001982 -0.003486 0.000000 0.000000 0.000000
# 2 -0.001982 0.010727 -0.003486 0.000000 0.000000 0.000000
# 3 -0.003486 -0.003486 0.011135 0.000000 0.000000 0.000000
# 4 0.000000 0.000000 0.000000 0.032448 0.000000 0.000000
# 5 0.000000 0.000000 0.000000 0.000000 0.032448 0.000000
# 6 0.000000 0.000000 0.000000 0.000000 0.000000 0.035116
#
#
# Mechanical properties :
#
#
# Convention : Reuss Voigt Hill
#
# Bulk Modulus (GPa) = 68.10964 68.35833 68.23399
# Shear Modulus (GPa) = 32.17423 32.58807 32.38115
#
# Velocity S-wave (km/s) = 4.16087 4.18755 4.17423
# Velocity P-wave (km/s) = 7.72874 7.75656 7.74266
#
# Compressibility (1/GPa) = 0.01468221
#
# Stress axis : x y z
#
# Youngs Moduli (GPa) = 93.22018 93.22018 89.80320
#
# Poissons Ratio (x) = 0.18476 0.31305
# Poissons Ratio (y) = 0.18476 0.31305
# Poissons Ratio (z) = 0.32496 0.32496
#
# Static dielectric constant tensor:
#      x y z
#    x 1.654780 0.000000 0.000000 
#    y 0.000000 1.654780 0.000000 
#    z 0.000000 0.000000 1.642640 
# 
# From -- ./inp_files/5647.got.cif
#   From: 2010.05.17/outbox.ucp.g08.bks.cvg/sg128_3_cif.got.tgz:5647.got - 2010.06.11 11:37:33.
