data_PCOD9565227
_publ_section_title
;
Structure prediction by ZEFSAII (Michael W. Deem and Ramdas Pophale) SiO2 
 PCOD9565227
Probable space group: P 4/N M M
;
_chemical_formula_sum "Si O2"
_cell_formula_units_Z 128
_cell_length_a 17.723164
_cell_length_b 17.723164
_cell_length_c 24.195549
_cell_angle_alpha 90.000000
_cell_angle_beta 90.000000
_cell_angle_gamma 90.000000
_cell_volume 7600.077015
_symmetry_space_group_name_H-M "P 4/N M M"
_symmetry_group_IT_number 129
_symmetry_cell_setting 'tetragonal'
loop_
_space_group_symop_operation_xyz
x,y,z
1/2-y,x,z
1/2-x,1/2-y,z
y,1/2-x,z
1/2+x,-y,-z
-x,1/2+y,-z
1/2+y,1/2+x,-z
-y,-x,-z
-x,-y,-z
1/2+y,-x,-z
1/2+x,1/2+y,-z
-y,1/2+x,-z
1/2-x,y,z
x,1/2-y,z
1/2-y,1/2-x,z
y,x,z
loop_
_atom_site_type_symbol
_atom_site_label
_atom_site_fract_x
_atom_site_fract_y
_atom_site_fract_z
Si Si1 0.331455 0.049426 0.513535
Si Si2 0.075916 0.552636 0.185453
Si Si3 0.462332 0.337554 0.272185
Si Si4 0.163022 0.039951 0.099576
Si Si5 0.961159 0.337212 0.984806
Si Si6 0.667494 0.117955 0.439955
Si Si7 0.003942 0.882784 0.605630
Si Si8 0.034000 0.160632 0.864668
O O1 0.250000 0.085561 0.520696
O O2 0.397785 0.102216 0.533221
O O3 0.332998 0.970389 0.544763
O O4 0.344573 0.031382 0.448849
O O5 0.124881 0.532512 0.239294
O O6 0.128887 0.529997 0.133951
O O7 0.008114 0.491887 0.185032
O O8 0.032730 0.631011 0.175993
O O9 0.452944 0.250000 0.257645
O O10 0.388853 0.388853 0.258707
O O11 0.477471 0.346274 0.337408
O O12 0.250000 0.051290 0.113943
O O13 0.112085 0.112085 0.112796
O O14 0.157105 0.020514 0.034939
O O15 0.934616 0.250000 0.982966
O O16 0.001137 0.353803 0.926452
O O17 0.894476 0.394476 0.000000
O O18 0.657008 0.157008 0.500000
O O19 0.750000 0.138768 0.417172
O O20 0.593530 0.127920 0.402669
O O21 0.968094 0.968094 0.605427
O O22 0.048517 0.250000 0.858724
O O23 0.108217 0.108217 0.857179
#
# Coordination Sequence:
#
# PCOD9565227 Si02
#       8
#    16  16  16  16  16  16  16  16
#     4   9  16  26  42  65  93 124 156 190 231 279
#     4   9  18  33  52  70  93 127 165 198 232 282
#     4  10  20  34  53  75  99 128 162 200 240 282
#     4  10  19  30  47  70  96 127 161 198 239 283
#     4  10  19  31  49  73 101 132 166 202 241 289
#     4   9  17  29  45  65  89 118 155 198 240 283
#     4   9  17  30  47  66  91 125 161 195 234 283
#     4  10  20  34  54  78 102 129 161 200 246 294
#
# _framework density 16.841933999999998
#
# number of rings (size 3 to 8) (size 9 to 14) (size 15 to 20)
#    0.000    2.500    1.250    1.500    0.000    3.250 
#    0.000    0.625    0.000    9.000    0.000    0.000 
#    0.000    0.000    0.000    7.875    0.000    0.000 
#
# Total GULP energy -712848.368317 kJ/mol
# GULP energy per Si atom -5569.127877 kJ/mol
# Density = 1.680360 g / cm^3
# Si number density = 16.841934 Si / 1000 Ang^3
#
#
#
# Elastic Constant Matrix: (Units=GPa)
#
#
# Indices 1 2 3 4 5 6 
#
# 1 93.2287 48.6888 3.4769 0.0000 0.0000 0.0000
# 2 48.6888 93.2287 3.4769 0.0000 0.0000 0.0000
# 3 3.4769 3.4769 29.6783 0.0000 0.0000 0.0000
# 4 0.0000 0.0000 0.0000 12.9203 0.0000 0.0000
# 5 0.0000 0.0000 0.0000 0.0000 12.9203 0.0000
# 6 0.0000 0.0000 0.0000 0.0000 0.0000 13.5093
#
#
#
# Elastic Compliance Matrix: (Units=1/GPa)
#
#
# Indices 1 2 3 4 5 6 
#
# 1 0.014769 -0.007682 -0.000830 0.000000 0.000000 0.000000
# 2 -0.007682 0.014769 -0.000830 0.000000 0.000000 0.000000
# 3 -0.000830 -0.000830 0.033889 0.000000 0.000000 0.000000
# 4 0.000000 0.000000 0.000000 0.077397 0.000000 0.000000
# 5 0.000000 0.000000 0.000000 0.000000 0.077397 0.000000
# 6 0.000000 0.000000 0.000000 0.000000 0.000000 0.074023
#
#
# Mechanical properties :
#
#
# Convention : Reuss Voigt Hill
#
# Bulk Modulus (GPa) = 22.35026 36.38009 29.36518
# Shear Modulus (GPa) = 15.34468 18.56954 16.95711
#
# Velocity S-wave (km/s) = 3.02172 3.32411 3.17651
# Velocity P-wave (km/s) = 5.04716 6.03164 5.56123
#
# Compressibility (1/GPa) = 0.04474220
#
# Stress axis : x y z
#
# Youngs Moduli (GPa) = 67.70759 67.70759 29.50795
#
# Poissons Ratio (x) = 0.52015 0.02450
# Poissons Ratio (y) = 0.52015 0.02450
# Poissons Ratio (z) = 0.05621 0.05621
#
# Static dielectric constant tensor:
#      x y z
#    x 1.580280 0.000000 0.000000 
#    y 0.000000 1.580280 0.000000 
#    z 0.000000 0.000000 1.569010 
# 
# From -- ./inp_files/7332.got.cif
#   From: 2010.05.17/outbox.cif.g08.bks.cpg/sg129_4_cif.got.tgz:7332.got - 2010.05.20 12:12:06.
