data_PCOD9565972
_publ_section_title
;
Structure prediction by ZEFSAII (Michael W. Deem and Ramdas Pophale) SiO2 
 PCOD9565972
Probable space group: P 4/N C C
;
_chemical_formula_sum "Si O2"
_cell_formula_units_Z 72
_cell_length_a 10.313461
_cell_length_b 10.313461
_cell_length_c 31.572874
_cell_angle_alpha 90.000000
_cell_angle_beta 90.000000
_cell_angle_gamma 90.000000
_cell_volume 3358.326974
_symmetry_space_group_name_H-M "P 4/N C C"
_symmetry_group_IT_number 130
_symmetry_cell_setting 'tetragonal'
loop_
_space_group_symop_operation_xyz
x,y,z
1/2-y,x,z
1/2-x,1/2-y,z
y,1/2-x,z
1/2+x,-y,1/2-z
-x,1/2+y,1/2-z
1/2+y,1/2+x,1/2-z
-y,-x,1/2-z
-x,-y,-z
1/2+y,-x,-z
1/2+x,1/2+y,-z
-y,1/2+x,-z
1/2-x,y,1/2+z
x,1/2-y,1/2+z
1/2-y,1/2-x,1/2+z
y,x,1/2+z
loop_
_atom_site_type_symbol
_atom_site_label
_atom_site_fract_x
_atom_site_fract_y
_atom_site_fract_z
Si Si1 0.390172 0.814903 0.389087
Si Si2 0.557222 0.651740 0.672972
Si Si3 0.027763 0.527763 0.750000
Si Si4 0.197671 0.457806 0.679878
Si Si5 0.906055 0.384761 0.515232
O O1 0.250000 0.750000 0.392748
O O2 0.478385 0.706848 0.365979
O O3 0.433564 0.855678 0.435571
O O4 0.384711 0.940631 0.358470
O O5 0.696026 0.582608 0.666057
O O6 0.528614 0.602031 0.720875
O O7 0.145076 0.547045 0.716785
O O8 0.101557 0.338242 0.685360
O O9 0.922157 0.246391 0.491014
O O10 0.000000 0.500000 0.500000
#
# Coordination Sequence:
#
# PCOD9565972 Si02
#       5
#    16  16   8  16  16
#     4  12  26  47  77 107 149 189 253 307 388 449
#     4  11  26  45  70 101 142 193 248 310 365 445
#     4  12  22  46  70  98 144 200 256 300 367 431
#     4  11  25  44  69 103 147 199 251 315 367 445
#     4  11  27  51  81 117 154 200 253 329 396 486
#
# _framework density 21.439247000000002
#
# number of rings (size 3 to 8) (size 9 to 14) (size 15 to 20)
#    0.000    0.667    4.444    2.667    6.222    2.222 
#    0.000    0.000    0.000    0.000    0.000    0.000 
#    0.000    0.000    0.000    0.000    0.000    0.000 
#
# Total GULP energy -401968.045859 kJ/mol
# GULP energy per Si atom -5582.889526 kJ/mol
# Density = 2.139045 g / cm^3
# Si number density = 21.439247 Si / 1000 Ang^3
#
#
#
# Elastic Constant Matrix: (Units=GPa)
#
#
# Indices 1 2 3 4 5 6 
#
# 1 110.7073 46.9249 51.9108 0.0000 0.0000 0.0000
# 2 46.9249 110.7073 51.9108 0.0000 0.0000 0.0000
# 3 51.9108 51.9108 177.4099 0.0000 0.0000 0.0000
# 4 0.0000 0.0000 0.0000 40.1144 0.0000 0.0000
# 5 0.0000 0.0000 0.0000 0.0000 40.1144 0.0000
# 6 0.0000 0.0000 0.0000 0.0000 0.0000 45.6070
#
#
#
# Elastic Compliance Matrix: (Units=1/GPa)
#
#
# Indices 1 2 3 4 5 6 
#
# 1 0.011768 -0.003910 -0.002299 0.000000 0.000000 0.000000
# 2 -0.003910 0.011768 -0.002299 0.000000 0.000000 0.000000
# 3 -0.002299 -0.002299 0.006982 0.000000 0.000000 0.000000
# 4 0.000000 0.000000 0.000000 0.024929 0.000000 0.000000
# 5 0.000000 0.000000 0.000000 0.000000 0.024929 0.000000
# 6 0.000000 0.000000 0.000000 0.000000 0.000000 0.021926
#
#
# Mechanical properties :
#
#
# Convention : Reuss Voigt Hill
#
# Bulk Modulus (GPa) = 74.06625 77.81303 75.93964
# Shear Modulus (GPa) = 40.38099 41.70572 41.04335
#
# Velocity S-wave (km/s) = 4.34465 4.41534 4.38014
# Velocity P-wave (km/s) = 7.73240 7.89728 7.81528
#
# Compressibility (1/GPa) = 0.01350143
#
# Stress axis : x y z
#
# Youngs Moduli (GPa) = 84.97398 84.97398 143.21989
#
# Poissons Ratio (x) = 0.33225 0.32932
# Poissons Ratio (y) = 0.33225 0.32932
# Poissons Ratio (z) = 0.19539 0.19539
#
# Static dielectric constant tensor:
#      x y z
#    x 1.819910 0.000000 0.000000 
#    y 0.000000 1.819910 0.000000 
#    z 0.000000 0.000000 1.810440 
# 
# From -- ./inp_files/4489.got.cif
#   From: 2010.05.17/outbox.cif.g08.bks.cpg/sg130_3_cif.got.tgz:4489.got - 2010.05.20 12:17:35.
