data_PCOD9565637
_publ_section_title
;
Structure prediction by ZEFSAII (Michael W. Deem and Ramdas Pophale) SiO2 
 PCOD9565637
Probable space group: P 4/N C C
;
_chemical_formula_sum "Si O2"
_cell_formula_units_Z 96
_cell_length_a 14.850841
_cell_length_b 14.850841
_cell_length_c 22.439082
_cell_angle_alpha 90.000000
_cell_angle_beta 90.000000
_cell_angle_gamma 90.000000
_cell_volume 4948.882953
_symmetry_space_group_name_H-M "P 4/N C C"
_symmetry_group_IT_number 130
_symmetry_cell_setting 'tetragonal'
loop_
_space_group_symop_operation_xyz
x,y,z
1/2-y,x,z
1/2-x,1/2-y,z
y,1/2-x,z
1/2+x,-y,1/2-z
-x,1/2+y,1/2-z
1/2+y,1/2+x,1/2-z
-y,-x,1/2-z
-x,-y,-z
1/2+y,-x,-z
1/2+x,1/2+y,-z
-y,1/2+x,-z
1/2-x,y,1/2+z
x,1/2-y,1/2+z
1/2-y,1/2-x,1/2+z
y,x,1/2+z
loop_
_atom_site_type_symbol
_atom_site_label
_atom_site_fract_x
_atom_site_fract_y
_atom_site_fract_z
Si Si1 0.689684 0.383390 0.511169
Si Si2 0.965440 0.649614 0.854852
Si Si3 0.344651 0.362104 0.445395
Si Si4 0.289589 0.103510 0.773381
Si Si5 0.633703 0.023813 0.127705
Si Si6 0.670609 0.954362 0.930953
O O1 0.790652 0.363617 0.490510
O O2 0.690541 0.423766 0.577423
O O3 0.646861 0.454127 0.465458
O O4 0.933417 0.692716 0.792975
O O5 0.893336 0.577193 0.878274
O O6 0.966380 0.730316 0.903165
O O7 0.058115 0.593843 0.851070
O O8 0.238715 0.372225 0.429155
O O9 0.401172 0.437318 0.410754
O O10 0.341270 0.380952 0.516050
O O11 0.356652 0.189230 0.781653
O O12 0.313494 0.023202 0.818604
#
# Coordination Sequence:
#
# PCOD9565637 Si02
#       6
#    16  16  16  16  16  16
#     4  10  22  42  65  93 131 172 206 254 315 382
#     4  12  23  41  62  92 127 169 217 267 310 381
#     4  10  20  35  59  92 130 162 201 265 331 383
#     4  11  24  43  68  94 127 169 209 267 331 382
#     4  11  24  39  63  95 129 165 214 260 317 383
#     4  11  22  36  63  93 122 162 218 260 318 371
#
# _framework density 19.398318
#
# number of rings (size 3 to 8) (size 9 to 14) (size 15 to 20)
#    0.000    1.167    5.000    1.500    0.000    8.333 
#    0.000    0.000    0.000    0.000    0.000    0.000 
#    0.000    0.000    0.000    0.000    0.000    0.000 
#
# Total GULP energy -535695.035681 kJ/mol
# GULP energy per Si atom -5580.156622 kJ/mol
# Density = 1.935417 g / cm^3
# Si number density = 19.398318 Si / 1000 Ang^3
#
#
#
# Elastic Constant Matrix: (Units=GPa)
#
#
# Indices 1 2 3 4 5 6 
#
# 1 47.9835 5.3815 14.1700 0.0000 0.0000 0.0000
# 2 5.3815 47.9835 14.1700 0.0000 0.0000 0.0000
# 3 14.1700 14.1700 95.6476 0.0000 0.0000 0.0000
# 4 0.0000 0.0000 0.0000 31.3540 0.0000 0.0000
# 5 0.0000 0.0000 0.0000 0.0000 31.3540 0.0000
# 6 0.0000 0.0000 0.0000 0.0000 0.0000 17.2097
#
#
#
# Elastic Compliance Matrix: (Units=1/GPa)
#
#
# Indices 1 2 3 4 5 6 
#
# 1 0.021906 -0.001567 -0.003013 0.000000 0.000000 0.000000
# 2 -0.001567 0.021906 -0.003013 0.000000 0.000000 0.000000
# 3 -0.003013 -0.003013 0.011348 0.000000 0.000000 0.000000
# 4 0.000000 0.000000 0.000000 0.031894 0.000000 0.000000
# 5 0.000000 0.000000 0.000000 0.000000 0.031894 0.000000
# 6 0.000000 0.000000 0.000000 0.000000 0.000000 0.058107
#
#
# Mechanical properties :
#
#
# Convention : Reuss Voigt Hill
#
# Bulk Modulus (GPa) = 25.01678 28.78420 26.90049
# Shear Modulus (GPa) = 24.32311 26.50972 25.41642
#
# Velocity S-wave (km/s) = 3.54485 3.70076 3.62365
# Velocity P-wave (km/s) = 5.44785 5.75600 5.60404
#
# Compressibility (1/GPa) = 0.03997316
#
# Stress axis : x y z
#
# Youngs Moduli (GPa) = 45.64944 45.64944 88.12246
#
# Poissons Ratio (x) = 0.07153 0.26553
# Poissons Ratio (y) = 0.07153 0.26553
# Poissons Ratio (z) = 0.13755 0.13755
#
# Static dielectric constant tensor:
#      x y z
#    x 1.674360 0.000000 0.000000 
#    y 0.000000 1.674360 0.000000 
#    z 0.000000 0.000000 1.698140 
# 
# From -- ./inp_files/3759.got.cif
#   From: 2010.05.17/outbox.cif.g08.bks.cpg/sg130_2_cif.got.tgz:3759.got - 2010.05.20 12:17:35.
