data_PCOD9565616
_publ_section_title
;
Structure prediction by ZEFSAII (Michael W. Deem and Ramdas Pophale) SiO2 
 PCOD9565616
Probable space group: P 4/N C C
;
_chemical_formula_sum "Si O2"
_cell_formula_units_Z 112
_cell_length_a 14.195236
_cell_length_b 14.195236
_cell_length_c 29.159762
_cell_angle_alpha 90.000000
_cell_angle_beta 90.000000
_cell_angle_gamma 90.000000
_cell_volume 5875.829826
_symmetry_space_group_name_H-M "P 4/N C C"
_symmetry_group_IT_number 130
_symmetry_cell_setting 'tetragonal'
loop_
_space_group_symop_operation_xyz
x,y,z
1/2-y,x,z
1/2-x,1/2-y,z
y,1/2-x,z
1/2+x,-y,1/2-z
-x,1/2+y,1/2-z
1/2+y,1/2+x,1/2-z
-y,-x,1/2-z
-x,-y,-z
1/2+y,-x,-z
1/2+x,1/2+y,-z
-y,1/2+x,-z
1/2-x,y,1/2+z
x,1/2-y,1/2+z
1/2-y,1/2-x,1/2+z
y,x,1/2+z
loop_
_atom_site_type_symbol
_atom_site_label
_atom_site_fract_x
_atom_site_fract_y
_atom_site_fract_z
Si Si1 0.092933 0.283571 0.858320
Si Si2 0.519353 0.623645 0.418721
Si Si3 0.918383 0.498410 0.575166
Si Si4 0.644771 0.635679 0.502457
Si Si5 0.909204 0.739101 0.242556
Si Si6 0.260073 0.409981 0.158235
Si Si7 0.346523 0.870202 0.500715
O O1 0.142972 0.181535 0.863770
O O2 0.019011 0.327789 0.893459
O O3 0.047097 0.275501 0.807481
O O4 0.507160 0.518053 0.398861
O O5 0.614000 0.621202 0.450002
O O6 0.522013 0.708129 0.382409
O O7 0.438118 0.638813 0.456181
O O8 0.923286 0.583015 0.537775
O O9 0.902952 0.408356 0.543025
O O10 0.754377 0.621934 0.510984
O O11 0.845589 0.833307 0.242853
O O12 0.958657 0.747658 0.291837
O O13 0.166616 0.345835 0.155024
O O14 0.373394 0.763789 0.511371
#
# Coordination Sequence:
#
# PCOD9565616 Si02
#       7
#    16  16  16  16  16  16  16
#     4   9  17  31  54  82 108 138 169 218 282 340
#     4  11  23  31  52  78 108 138 183 230 271 317
#     4  11  23  31  52  78 108 138 183 230 271 317
#     4  10  20  33  51  73 104 142 179 232 288 331
#     4   7  12  26  50  78 104 133 158 194 265 340
#     4   9  17  31  54  82 108 138 169 218 282 340
#     4  10  24  41  53  65  96 152 197 226 256 309
#
# _framework density 19.061136999999999
#
# number of rings (size 3 to 8) (size 9 to 14) (size 15 to 20)
#    0.000    2.429    0.000    5.143   12.000    2.286 
#    0.000    0.000    0.000    7.714    0.000    0.000 
#    0.000    2.286    0.000    0.000    0.000    0.000 
#
# Total GULP energy -623793.439799 kJ/mol
# GULP energy per Si atom -5569.584284 kJ/mol
# Density = 1.901775 g / cm^3
# Si number density = 19.061137 Si / 1000 Ang^3
#
#
#
# Elastic Constant Matrix: (Units=GPa)
#
#
# Indices 1 2 3 4 5 6 
#
# 1 40.9452 4.6548 5.2885 0.0000 0.0000 0.0000
# 2 4.6548 40.9452 5.2885 0.0000 0.0000 0.0000
# 3 5.2885 5.2885 97.2029 0.0000 0.0000 0.0000
# 4 0.0000 0.0000 0.0000 9.7363 0.0000 0.0000
# 5 0.0000 0.0000 0.0000 0.0000 9.7363 0.0000
# 6 0.0000 0.0000 0.0000 0.0000 0.0000 15.7748
#
#
#
# Elastic Compliance Matrix: (Units=1/GPa)
#
#
# Indices 1 2 3 4 5 6 
#
# 1 0.024883 -0.002673 -0.001208 0.000000 0.000000 0.000000
# 2 -0.002673 0.024883 -0.001208 0.000000 0.000000 0.000000
# 3 -0.001208 -0.001208 0.010419 0.000000 0.000000 0.000000
# 4 0.000000 0.000000 0.000000 0.102708 0.000000 0.000000
# 5 0.000000 0.000000 0.000000 0.000000 0.102708 0.000000
# 6 0.000000 0.000000 0.000000 0.000000 0.000000 0.063392
#
#
# Mechanical properties :
#
#
# Convention : Reuss Voigt Hill
#
# Bulk Modulus (GPa) = 19.99760 23.28410 21.64085
# Shear Modulus (GPa) = 14.05119 17.97356 16.01238
#
# Velocity S-wave (km/s) = 2.71802 3.07407 2.90151
# Velocity P-wave (km/s) = 4.51268 4.98416 4.75427
#
# Compressibility (1/GPa) = 0.05000600
#
# Stress axis : x y z
#
# Youngs Moduli (GPa) = 40.18836 40.18836 95.97624
#
# Poissons Ratio (x) = 0.10741 0.11598
# Poissons Ratio (y) = 0.10741 0.11598
# Poissons Ratio (z) = 0.04856 0.04856
#
# Static dielectric constant tensor:
#      x y z
#    x 1.674620 0.000000 0.000000 
#    y 0.000000 1.674620 0.000000 
#    z 0.000000 0.000000 1.741990 
# 
# From -- ./inp_files/4982.got.cif
#   From: 2010.05.17/outbox.cif.g08.bks.cpg/sg130_3_cif.got.tgz:4982.got - 2010.05.20 12:17:35.
