data_PCOD9565966
_publ_section_title
;
Structure prediction by ZEFSAII (Michael W. Deem and Ramdas Pophale) SiO2 
 PCOD9565966
Probable space group: P 4/N C C
;
_chemical_formula_sum "Si O2"
_cell_formula_units_Z 112
_cell_length_a 14.864370
_cell_length_b 14.864370
_cell_length_c 28.081964
_cell_angle_alpha 90.000000
_cell_angle_beta 90.000000
_cell_angle_gamma 90.000000
_cell_volume 6204.695778
_symmetry_space_group_name_H-M "P 4/N C C"
_symmetry_group_IT_number 130
_symmetry_cell_setting 'tetragonal'
loop_
_space_group_symop_operation_xyz
x,y,z
1/2-y,x,z
1/2-x,1/2-y,z
y,1/2-x,z
1/2+x,-y,1/2-z
-x,1/2+y,1/2-z
1/2+y,1/2+x,1/2-z
-y,-x,1/2-z
-x,-y,-z
1/2+y,-x,-z
1/2+x,1/2+y,-z
-y,1/2+x,-z
1/2-x,y,1/2+z
x,1/2-y,1/2+z
1/2-y,1/2-x,1/2+z
y,x,1/2+z
loop_
_atom_site_type_symbol
_atom_site_label
_atom_site_fract_x
_atom_site_fract_y
_atom_site_fract_z
Si Si1 0.319479 0.817545 0.149277
Si Si2 0.139822 0.643932 0.804620
Si Si3 0.610136 0.798944 0.458469
Si Si4 0.839458 0.132237 0.988480
Si Si5 0.108446 0.293410 0.427323
Si Si6 0.051354 0.591468 0.603052
Si Si7 0.946330 0.086830 0.075190
O O1 0.250000 0.750000 0.120819
O O2 0.250045 0.871656 0.182778
O O3 0.371051 0.745623 0.182092
O O4 0.377467 0.876635 0.114429
O O5 0.123070 0.623070 0.750000
O O6 0.086005 0.589147 0.843935
O O7 0.638748 0.696788 0.446966
O O8 0.596333 0.800889 0.515580
O O9 0.522558 0.837783 0.433523
O O10 0.892494 0.070847 0.026119
O O11 0.733813 0.129729 0.998799
O O12 0.869664 0.106424 0.935591
O O13 0.141079 0.192683 0.415704
O O14 0.017676 0.325476 0.402690
O O15 0.996023 0.503420 0.589824
#
# Coordination Sequence:
#
# PCOD9565966 Si02
#       7
#    16  16  16  16  16  16  16
#     4   8  20  38  65  85 108 153 192 234 296 358
#     4   9  20  42  65  83 111 146 192 245 305 351
#     4   9  20  35  52  76 120 174 202 223 271 344
#     4  11  25  38  55  82 127 169 194 236 291 350
#     4   9  20  36  52  75 114 165 202 229 276 346
#     4  12  24  33  59  88 119 151 192 251 289 348
#     4  12  23  33  57  92 123 149 196 240 290 355
#
# _framework density 18.050846
#
# number of rings (size 3 to 8) (size 9 to 14) (size 15 to 20)
#    0.857    1.000    1.429    3.857   10.000    0.000 
#    0.000    1.429    0.000    0.000    0.000    0.000 
#    0.000    0.000    0.000    0.000    0.000    0.000 
#
# Total GULP energy -625247.862058 kJ/mol
# GULP energy per Si atom -5582.570197 kJ/mol
# Density = 1.800976 g / cm^3
# Si number density = 18.050846 Si / 1000 Ang^3
#
#
#
# Elastic Constant Matrix: (Units=GPa)
#
#
# Indices 1 2 3 4 5 6 
#
# 1 57.8386 19.4684 33.9401 0.0000 0.0000 0.0000
# 2 19.4684 57.8386 33.9401 0.0000 0.0000 0.0000
# 3 33.9401 33.9401 115.7097 0.0000 0.0000 0.0000
# 4 0.0000 0.0000 0.0000 10.6241 0.0000 0.0000
# 5 0.0000 0.0000 0.0000 0.0000 10.6241 0.0000
# 6 0.0000 0.0000 0.0000 0.0000 0.0000 29.8110
#
#
#
# Elastic Compliance Matrix: (Units=1/GPa)
#
#
# Indices 1 2 3 4 5 6 
#
# 1 0.021742 -0.004320 -0.005110 0.000000 0.000000 0.000000
# 2 -0.004320 0.021742 -0.005110 0.000000 0.000000 0.000000
# 3 -0.005110 -0.005110 0.011640 0.000000 0.000000 0.000000
# 4 0.000000 0.000000 0.000000 0.094125 0.000000 0.000000
# 5 0.000000 0.000000 0.000000 0.000000 0.094125 0.000000
# 6 0.000000 0.000000 0.000000 0.000000 0.000000 0.033545
#
#
# Mechanical properties :
#
#
# Convention : Reuss Voigt Hill
#
# Bulk Modulus (GPa) = 38.39661 45.12045 41.75853
# Shear Modulus (GPa) = 15.88902 19.81441 17.85172
#
# Velocity S-wave (km/s) = 2.97010 3.31675 3.14820
# Velocity P-wave (km/s) = 5.75148 6.30225 6.03315
#
# Compressibility (1/GPa) = 0.02604397
#
# Stress axis : x y z
#
# Youngs Moduli (GPa) = 45.99332 45.99332 85.90822
#
# Poissons Ratio (x) = 0.19867 0.43903
# Poissons Ratio (y) = 0.19867 0.43903
# Poissons Ratio (z) = 0.23505 0.23505
#
# Static dielectric constant tensor:
#      x y z
#    x 1.660420 0.000000 0.000000 
#    y 0.000000 1.660420 0.000000 
#    z 0.000000 0.000000 1.591650 
# 
# From -- ./inp_files/4615.got.cif
#   From: 2010.05.17/outbox.cif.g08.bks.cpg/sg130_3_cif.got.tgz:4615.got - 2010.05.20 12:17:35.
