data_PCOD9565607
_publ_section_title
;
Structure prediction by ZEFSAII (Michael W. Deem and Ramdas Pophale) SiO2 
 PCOD9565607
Probable space group: P 4/N C C
;
_chemical_formula_sum "Si O2"
_cell_formula_units_Z 60
_cell_length_a 14.223980
_cell_length_b 14.223980
_cell_length_c 15.478294
_cell_angle_alpha 90.000000
_cell_angle_beta 90.000000
_cell_angle_gamma 90.000000
_cell_volume 3131.593316
_symmetry_space_group_name_H-M "P 4/N C C"
_symmetry_group_IT_number 130
_symmetry_cell_setting 'tetragonal'
loop_
_space_group_symop_operation_xyz
x,y,z
1/2-y,x,z
1/2-x,1/2-y,z
y,1/2-x,z
1/2+x,-y,1/2-z
-x,1/2+y,1/2-z
1/2+y,1/2+x,1/2-z
-y,-x,1/2-z
-x,-y,-z
1/2+y,-x,-z
1/2+x,1/2+y,-z
-y,1/2+x,-z
1/2-x,y,1/2+z
x,1/2-y,1/2+z
1/2-y,1/2-x,1/2+z
y,x,1/2+z
loop_
_atom_site_type_symbol
_atom_site_label
_atom_site_fract_x
_atom_site_fract_y
_atom_site_fract_z
Si Si1 0.427191 0.039601 0.074283
Si Si2 0.905165 0.309213 0.369981
Si Si3 0.967709 0.032292 0.750000
Si Si4 0.025231 0.719021 0.962474
Si Si5 0.750000 0.250000 0.250000
O O1 0.460392 0.023568 0.172060
O O2 0.437472 0.150876 0.055643
O O3 0.324400 0.995710 0.068425
O O4 0.500000 0.000000 0.000000
O O5 0.969013 0.369512 0.304095
O O6 0.953712 0.240392 0.437491
O O7 0.836430 0.385877 0.418949
O O8 0.839470 0.248836 0.309857
#
# Coordination Sequence:
#
# PCOD9565607 Si02
#       5
#    16  16   8  16   4
#     4  11  23  43  63  95 132 172 212 270 325 387
#     4  10  20  36  59  95 125 164 216 265 325 384
#     4   9  20  40  58  92 129 160 218 258 326 388
#     4  11  21  41  65  89 129 173 215 265 328 383
#     4  10  20  28  56 100 124 154 216 280 310 388
#
# _framework density 19.159576000000001
#
# number of rings (size 3 to 8) (size 9 to 14) (size 15 to 20)
#    0.000    1.600    5.333    1.600    0.000    1.600 
#    9.600    0.000    0.000    0.000   13.867    0.000 
#    0.000    0.000    0.000    0.000    0.000    0.000 
#
# Total GULP energy -334255.190454 kJ/mol
# GULP energy per Si atom -5570.919841 kJ/mol
# Density = 1.911597 g / cm^3
# Si number density = 19.159576 Si / 1000 Ang^3
#
#
#
# Elastic Constant Matrix: (Units=GPa)
#
#
# Indices 1 2 3 4 5 6 
#
# 1 76.7237 0.5445 35.0588 0.0000 0.0000 0.0000
# 2 0.5445 76.7238 35.0597 0.0000 0.0000 0.0000
# 3 35.0588 35.0597 158.9366 0.0000 0.0000 0.0000
# 4 0.0000 0.0000 0.0000 23.0752 0.0000 0.0000
# 5 0.0000 0.0000 0.0000 0.0000 23.0755 0.0000
# 6 0.0000 0.0000 0.0000 0.0000 0.0000 36.0745
#
#
#
# Elastic Compliance Matrix: (Units=1/GPa)
#
#
# Indices 1 2 3 4 5 6 
#
# 1 0.014654 0.001527 -0.003569 0.000000 0.000000 0.000000
# 2 0.001527 0.014654 -0.003569 0.000000 0.000000 0.000000
# 3 -0.003569 -0.003569 0.007866 0.000000 0.000000 0.000000
# 4 0.000000 0.000000 0.000000 0.043337 0.000000 0.000000
# 5 0.000000 0.000000 0.000000 0.000000 0.043336 0.000000
# 6 0.000000 0.000000 0.000000 0.000000 0.000000 0.027720
#
#
# Mechanical properties :
#
#
# Convention : Reuss Voigt Hill
#
# Bulk Modulus (GPa) = 38.53385 50.41224 44.47304
# Shear Modulus (GPa) = 29.16455 32.55978 30.86217
#
# Velocity S-wave (km/s) = 3.90576 4.12685 4.01783
# Velocity P-wave (km/s) = 6.36362 7.00548 6.69225
#
# Compressibility (1/GPa) = 0.02595121
#
# Stress axis : x y z
#
# Youngs Moduli (GPa) = 68.24119 68.24087 127.12147
#
# Poissons Ratio (x) = -0.10420 0.45373
# Poissons Ratio (y) = -0.10421 0.45374
# Poissons Ratio (z) = 0.24357 0.24357
#
# Static dielectric constant tensor:
#      x y z
#    x 1.737720 0.000000 0.000000 
#    y 0.000000 1.737720 0.000000 
#    z 0.000000 0.000000 1.700940 
# 
# From -- ./inp_files/2205.got.cif
#   From: 2010.05.17/outbox.cif.g08.bks.cpg/sg130_2_cif.got.tgz:2205.got - 2010.05.20 12:17:35.
