data_PCOD9565722
_publ_section_title
;
Structure prediction by ZEFSAII (Michael W. Deem and Ramdas Pophale) SiO2 
 PCOD9565722
Probable space group: P 4/N C C
;
_chemical_formula_sum "Si O2"
_cell_formula_units_Z 128
_cell_length_a 22.433544
_cell_length_b 22.433544
_cell_length_c 12.207170
_cell_angle_alpha 90.000000
_cell_angle_beta 90.000000
_cell_angle_gamma 90.000000
_cell_volume 6143.427938
_symmetry_space_group_name_H-M "P 4/N C C"
_symmetry_group_IT_number 130
_symmetry_cell_setting 'tetragonal'
loop_
_space_group_symop_operation_xyz
x,y,z
1/2-y,x,z
1/2-x,1/2-y,z
y,1/2-x,z
1/2+x,-y,1/2-z
-x,1/2+y,1/2-z
1/2+y,1/2+x,1/2-z
-y,-x,1/2-z
-x,-y,-z
1/2+y,-x,-z
1/2+x,1/2+y,-z
-y,1/2+x,-z
1/2-x,y,1/2+z
x,1/2-y,1/2+z
1/2-y,1/2-x,1/2+z
y,x,1/2+z
loop_
_atom_site_type_symbol
_atom_site_label
_atom_site_fract_x
_atom_site_fract_y
_atom_site_fract_z
Si Si1 0.491085 0.765762 0.946314
Si Si2 0.332173 0.305234 0.547719
Si Si3 0.444097 0.541598 0.094646
Si Si4 0.497356 0.167220 0.398698
Si Si5 0.409474 0.220049 0.239948
Si Si6 0.333727 0.432277 0.879588
Si Si7 0.915450 0.173541 0.712175
Si Si8 0.016004 0.562005 0.152330
O O1 0.540178 0.779042 0.854143
O O2 0.428429 0.782425 0.889025
O O3 0.497487 0.698111 0.984577
O O4 0.513053 0.801245 0.054399
O O5 0.266251 0.330146 0.524782
O O6 0.352302 0.304780 0.675486
O O7 0.380820 0.337902 0.472273
O O8 0.485876 0.599148 0.092645
O O9 0.386484 0.550858 0.168884
O O10 0.489906 0.492715 0.138472
O O11 0.422116 0.532974 0.971776
O O12 0.435645 0.179604 0.337132
O O13 0.549195 0.194348 0.319712
O O14 0.408055 0.286024 0.291451
O O15 0.393952 0.459772 0.828822
O O16 0.850899 0.149102 0.750000
O O17 0.064054 0.564054 0.250000
#
# Coordination Sequence:
#
# PCOD9565722 Si02
#       8
#    16  16  16  16  16  16  16  16
#     4   9  17  33  53  82 114 146 195 242 289 358
#     4  10  23  42  60  82 112 154 214 269 316 364
#     4  10  21  37  54  79 115 154 192 239 288 374
#     4   9  18  31  55  79 109 150 193 229 298 354
#     4   9  20  35  57  82 109 150 197 257 305 355
#     4  10  21  38  56  82 117 156 194 259 314 367
#     4   9  16  32  54  75 110 153 186 233 283 351
#     4  11  23  36  54  85 116 155 194 246 310 377
#
# _framework density 20.835272
#
# number of rings (size 3 to 8) (size 9 to 14) (size 15 to 20)
#    0.000    2.375    1.250    1.125    1.750    5.000 
#    2.250    1.250    0.000    0.000    0.000    0.000 
#    0.000   20.000    0.000    0.000    0.000    0.000 
#
# Total GULP energy -713136.374793 kJ/mol
# GULP energy per Si atom -5571.377928 kJ/mol
# Density = 2.078785 g / cm^3
# Si number density = 20.835272 Si / 1000 Ang^3
#
#
#
# Elastic Constant Matrix: (Units=GPa)
#
#
# Indices 1 2 3 4 5 6 
#
# 1 37.2222 23.0111 24.3577 0.0000 0.0000 0.0000
# 2 23.0111 37.2216 24.3572 0.0000 0.0000 0.0000
# 3 24.3577 24.3572 73.3051 0.0000 0.0000 0.0000
# 4 0.0000 0.0000 0.0000 19.1615 0.0000 0.0000
# 5 0.0000 0.0000 0.0000 0.0000 19.1620 0.0000
# 6 0.0000 0.0000 0.0000 0.0000 0.0000 25.2532
#
#
#
# Elastic Compliance Matrix: (Units=1/GPa)
#
#
# Indices 1 2 3 4 5 6 
#
# 1 0.046536 -0.023833 -0.007544 0.000000 0.000000 0.000000
# 2 -0.023833 0.046536 -0.007544 0.000000 0.000000 0.000000
# 3 -0.007544 -0.007544 0.018655 0.000000 0.000000 0.000000
# 4 0.000000 0.000000 0.000000 0.052188 0.000000 0.000000
# 5 0.000000 0.000000 0.000000 0.000000 0.052186 0.000000
# 6 0.000000 0.000000 0.000000 0.000000 0.000000 0.039599
#
#
# Mechanical properties :
#
#
# Convention : Reuss Voigt Hill
#
# Bulk Modulus (GPa) = 29.51022 32.35564 30.93293
# Shear Modulus (GPa) = 14.49963 17.78354 16.14159
#
# Velocity S-wave (km/s) = 2.64089 2.92469 2.78641
# Velocity P-wave (km/s) = 4.84700 5.19308 5.02302
#
# Compressibility (1/GPa) = 0.03388656
#
# Stress axis : x y z
#
# Youngs Moduli (GPa) = 21.48882 21.48861 53.60547
#
# Poissons Ratio (x) = 0.51213 0.40440
# Poissons Ratio (y) = 0.51214 0.40438
# Poissons Ratio (z) = 0.16211 0.16210
#
# Static dielectric constant tensor:
#      x y z
#    x 1.821420 0.000000 0.000000 
#    y 0.000000 1.821430 0.000000 
#    z 0.000000 0.000000 1.840450 
# 
# From -- ./inp_files/1900.got.cif
#   From: 2010.05.17/outbox.cif.g08.bks.cpg/sg130_1_cif.got.tgz:1900.got - 2010.05.20 12:17:35.
