data_PCOD9565486
_publ_section_title
;
Structure prediction by ZEFSAII (Michael W. Deem and Ramdas Pophale) SiO2 
 PCOD9565486
Probable space group: P 4/N M M
;
_chemical_formula_sum "Si O2"
_cell_formula_units_Z 48
_cell_length_a 19.861210
_cell_length_b 19.861210
_cell_length_c 5.056205
_cell_angle_alpha 90.000000
_cell_angle_beta 90.000000
_cell_angle_gamma 90.000000
_cell_volume 1994.509368
_symmetry_space_group_name_H-M "P 4/N M M"
_symmetry_group_IT_number 129
_symmetry_cell_setting 'tetragonal'
loop_
_space_group_symop_operation_xyz
x,y,z
1/2-y,x,z
1/2-x,1/2-y,z
y,1/2-x,z
1/2+x,-y,-z
-x,1/2+y,-z
1/2+y,1/2+x,-z
-y,-x,-z
-x,-y,-z
1/2+y,-x,-z
1/2+x,1/2+y,-z
-y,1/2+x,-z
1/2-x,y,z
x,1/2-y,z
1/2-y,1/2-x,z
y,x,z
loop_
_atom_site_type_symbol
_atom_site_label
_atom_site_fract_x
_atom_site_fract_y
_atom_site_fract_z
Si Si1 0.323967 0.676034 0.000000
Si Si2 0.048581 0.851701 0.362309
Si Si3 0.534344 0.534344 0.242763
Si Si4 0.864247 0.750000 0.159958
Si Si5 0.539223 0.750000 0.661979
O O1 0.392955 0.677079 0.171402
O O2 0.250000 0.675140 0.143678
O O3 0.091184 0.908817 0.500000
O O4 0.985655 0.887857 0.222339
O O5 0.012191 0.809847 0.590562
O O6 0.500000 0.500000 0.500000
O O7 0.500000 0.500000 0.000000
O O8 0.815032 0.815032 0.132062
O O9 0.923933 0.750000 0.941927
O O10 0.901049 0.750000 0.443952
#
# Coordination Sequence:
#
# PCOD9565486 Si02
#       5
#     8  16   8   8   8
#     4  11  24  43  68  98 142 201 256 309 372 440
#     4  11  26  43  68 105 148 193 250 314 371 453
#     4  10  22  40  64  96 137 184 227 302 374 422
#     4  11  28  54  82 116 155 196 252 318 381 460
#     4  12  28  47  81 114 150 204 256 304 390 460
#
# _framework density 24.06607
#
# number of rings (size 3 to 8) (size 9 to 14) (size 15 to 20)
#    0.000    1.000    3.333    1.000   11.667    1.333 
#    0.000    1.667    0.000    0.000    0.000    0.000 
#    0.000    0.000    0.000    0.000    0.000    0.000 
#
# Total GULP energy -267578.475097 kJ/mol
# GULP energy per Si atom -5574.551565 kJ/mol
# Density = 2.401129 g / cm^3
# Si number density = 24.066070 Si / 1000 Ang^3
#
#
#
# Elastic Constant Matrix: (Units=GPa)
#
#
# Indices 1 2 3 4 5 6 
#
# 1 109.0069 64.9524 8.3475 0.0000 0.0000 0.0000
# 2 64.9524 109.0037 8.3437 0.0000 0.0000 0.0000
# 3 8.3475 8.3437 82.0444 0.0000 0.0000 0.0000
# 4 0.0000 0.0000 0.0000 31.9467 0.0000 0.0000
# 5 0.0000 0.0000 0.0000 0.0000 31.9491 0.0000
# 6 0.0000 0.0000 0.0000 0.0000 0.0000 49.0975
#
#
#
# Elastic Compliance Matrix: (Units=1/GPa)
#
#
# Indices 1 2 3 4 5 6 
#
# 1 0.014252 -0.008447 -0.000591 0.000000 0.000000 0.000000
# 2 -0.008447 0.014253 -0.000590 0.000000 0.000000 0.000000
# 3 -0.000591 -0.000590 0.012309 0.000000 0.000000 0.000000
# 4 0.000000 0.000000 0.000000 0.031302 0.000000 0.000000
# 5 0.000000 0.000000 0.000000 0.000000 0.031300 0.000000
# 6 0.000000 0.000000 0.000000 0.000000 0.000000 0.020368
#
#
# Mechanical properties :
#
#
# Convention : Reuss Voigt Hill
#
# Bulk Modulus (GPa) = 46.38867 51.48249 48.93558
# Shear Modulus (GPa) = 33.28323 37.15943 35.22133
#
# Velocity S-wave (km/s) = 3.72290 3.93371 3.82976
# Velocity P-wave (km/s) = 6.14795 6.48620 6.31934
#
# Compressibility (1/GPa) = 0.02155699
#
# Stress axis : x y z
#
# Youngs Moduli (GPa) = 70.16356 70.16199 81.24361
#
# Poissons Ratio (x) = 0.59269 0.04802
# Poissons Ratio (y) = 0.59270 0.04793
# Poissons Ratio (z) = 0.04147 0.04140
#
# Static dielectric constant tensor:
#      x y z
#    x 2.273030 0.000000 0.000000 
#    y 0.000000 2.270680 0.000000 
#    z 0.000000 0.000000 1.901520 
# 
# From -- ./inp_files/522.got.cif
#   From: 2010.05.17/outbox.cif.g08.bks.cpg/sg129_1_cif.got.tgz:522.got - 2010.05.20 12:12:06.
