data_PCOD9565956
_publ_section_title
;
Structure prediction by ZEFSAII (Michael W. Deem and Ramdas Pophale) SiO2 
 PCOD9565956
Probable space group: P 4/N C C
;
_chemical_formula_sum "Si O2"
_cell_formula_units_Z 64
_cell_length_a 11.969688
_cell_length_b 11.969688
_cell_length_c 19.456590
_cell_angle_alpha 90.000000
_cell_angle_beta 90.000000
_cell_angle_gamma 90.000000
_cell_volume 2787.612401
_symmetry_space_group_name_H-M "P 4/N C C"
_symmetry_group_IT_number 130
_symmetry_cell_setting 'tetragonal'
loop_
_space_group_symop_operation_xyz
x,y,z
1/2-y,x,z
1/2-x,1/2-y,z
y,1/2-x,z
1/2+x,-y,1/2-z
-x,1/2+y,1/2-z
1/2+y,1/2+x,1/2-z
-y,-x,1/2-z
-x,-y,-z
1/2+y,-x,-z
1/2+x,1/2+y,-z
-y,1/2+x,-z
1/2-x,y,1/2+z
x,1/2-y,1/2+z
1/2-y,1/2-x,1/2+z
y,x,1/2+z
loop_
_atom_site_type_symbol
_atom_site_label
_atom_site_fract_x
_atom_site_fract_y
_atom_site_fract_z
Si Si1 0.660866 0.916736 0.433941
Si Si2 0.333542 0.893117 0.469115
Si Si3 0.423033 0.662193 0.677808
Si Si4 0.082761 0.959450 0.327262
O O1 0.605682 0.794128 0.429834
O O2 0.634196 0.983776 0.504691
O O3 0.613273 0.999144 0.374696
O O4 0.382947 0.799039 0.518959
O O5 0.368818 0.858764 0.392412
O O6 0.358524 0.641477 0.750000
O O7 0.459538 0.786560 0.658510
O O8 0.529549 0.581936 0.678058
O O9 0.084375 0.915626 0.250000
#
# Coordination Sequence:
#
# PCOD9565956 Si02
#       4
#    16  16  16  16
#     4  11  26  48  76 112 156 201 250 317 391 457
#     4  11  24  43  75 111 142 196 252 312 378 449
#     4  11  27  49  74 110 152 197 252 315 379 454
#     4  11  27  47  74 108 148 201 250 308 379 454
#
# _framework density 22.958715999999999
#
# number of rings (size 3 to 8) (size 9 to 14) (size 15 to 20)
#    0.000    1.000    2.500    1.500   14.000    3.000 
#    0.000    0.000    0.000    0.000    0.000    0.000 
#    0.000    0.000    0.000    0.000    0.000    0.000 
#
# Total GULP energy -357407.415907 kJ/mol
# GULP energy per Si atom -5584.490874 kJ/mol
# Density = 2.290646 g / cm^3
# Si number density = 22.958716 Si / 1000 Ang^3
#
#
#
# Elastic Constant Matrix: (Units=GPa)
#
#
# Indices 1 2 3 4 5 6 
#
# 1 155.7734 50.4447 31.3023 0.0000 0.0000 0.0000
# 2 50.4447 155.7748 31.3024 0.0000 0.0000 0.0000
# 3 31.3023 31.3024 154.3991 0.0000 0.0000 0.0000
# 4 0.0000 0.0000 0.0000 27.8535 0.0000 0.0000
# 5 0.0000 0.0000 0.0000 0.0000 27.8535 0.0000
# 6 0.0000 0.0000 0.0000 0.0000 0.0000 21.0647
#
#
#
# Elastic Compliance Matrix: (Units=1/GPa)
#
#
# Indices 1 2 3 4 5 6 
#
# 1 0.007331 -0.002163 -0.001048 0.000000 0.000000 0.000000
# 2 -0.002163 0.007331 -0.001048 0.000000 0.000000 0.000000
# 3 -0.001048 -0.001048 0.006901 0.000000 0.000000 0.000000
# 4 0.000000 0.000000 0.000000 0.035902 0.000000 0.000000
# 5 0.000000 0.000000 0.000000 0.000000 0.035902 0.000000
# 6 0.000000 0.000000 0.000000 0.000000 0.000000 0.047473
#
#
# Mechanical properties :
#
#
# Convention : Reuss Voigt Hill
#
# Bulk Modulus (GPa) = 76.65405 76.89403 76.77404
# Shear Modulus (GPa) = 32.52976 38.88087 35.70531
#
# Velocity S-wave (km/s) = 3.76823 4.11970 3.94788
# Velocity P-wave (km/s) = 7.23830 7.49628 7.36842
#
# Compressibility (1/GPa) = 0.01304563
#
# Stress axis : x y z
#
# Youngs Moduli (GPa) = 136.41314 136.41433 144.89623
#
# Poissons Ratio (x) = 0.29512 0.15179
# Poissons Ratio (y) = 0.29511 0.15179
# Poissons Ratio (z) = 0.14291 0.14291
#
# Static dielectric constant tensor:
#      x y z
#    x 1.914910 0.000000 0.000000 
#    y 0.000000 1.914910 0.000000 
#    z 0.000000 0.000000 1.970690 
# 
# From -- ./inp_files/3498.got.cif
#   From: 2010.05.17/outbox.cif.g08.bks.cpg/sg130_2_cif.got.tgz:3498.got - 2010.05.20 12:17:35.
