data_PCOD9565042
_publ_section_title
;
Structure prediction by ZEFSAII (Michael W. Deem and Ramdas Pophale) SiO2 
 PCOD9565042
Probable space group: P 4/M N C
;
_chemical_formula_sum "Si O2"
_cell_formula_units_Z 44
_cell_length_a 8.352188
_cell_length_b 8.352188
_cell_length_c 26.743654
_cell_angle_alpha 90.000000
_cell_angle_beta 90.000000
_cell_angle_gamma 90.000000
_cell_volume 1865.611746
_symmetry_space_group_name_H-M "P 4/M N C"
_symmetry_group_IT_number 128
_symmetry_cell_setting 'tetragonal'
loop_
_space_group_symop_operation_xyz
x,y,z
-y,x,z
-x,-y,z
y,-x,z
1/2+x,1/2-y,1/2-z
1/2-x,1/2+y,1/2-z
1/2+y,1/2+x,1/2-z
1/2-y,1/2-x,1/2-z
-x,-y,-z
y,-x,-z
x,y,-z
-y,x,-z
1/2-x,1/2+y,1/2+z
1/2+x,1/2-y,1/2+z
1/2-y,1/2-x,1/2+z
1/2+y,1/2+x,1/2+z
loop_
_atom_site_type_symbol
_atom_site_label
_atom_site_fract_x
_atom_site_fract_y
_atom_site_fract_z
Si Si1 0.068911 0.738091 0.145606
Si Si2 0.000000 0.000000 0.263754
Si Si3 0.757991 0.419336 0.056752
Si Si4 0.690595 0.809406 0.750000
O O1 0.117298 0.632544 0.098403
O O2 0.102595 0.653267 0.197972
O O3 0.892504 0.812343 0.144320
O O4 0.153305 0.877097 0.261299
O O5 0.692129 0.599667 0.062332
O O6 0.818478 0.399222 0.000000
#
# Coordination Sequence:
#
# PCOD9565042 Si02
#       4
#    16   4  16   8
#     4  11  24  43  63  93 135 175 225 284 353 426
#     4  12  28  48  76 100 158 184 260 280 384 418
#     4   9  21  41  64  91 125 168 223 283 349 426
#     4  12  24  50  68 106 140 198 228 310 340 454
#
# _framework density 23.584755999999999
#
# number of rings (size 3 to 8) (size 9 to 14) (size 15 to 20)
#    0.000    1.455    3.636    1.091    5.091    3.636 
#    0.000    5.455    0.000    0.000    0.000    0.000 
#    0.000    0.000    0.000    0.000    0.000    0.000 
#
# Total GULP energy -245283.847784 kJ/mol
# GULP energy per Si atom -5574.632904 kJ/mol
# Density = 2.353108 g / cm^3
# Si number density = 23.584756 Si / 1000 Ang^3
#
#
#
# Elastic Constant Matrix: (Units=GPa)
#
#
# Indices 1 2 3 4 5 6 
#
# 1 92.1634 83.5048 72.0989 0.0000 0.0000 0.0000
# 2 83.5048 92.1615 72.0994 0.0000 0.0000 0.0000
# 3 72.0989 72.0994 189.8835 0.0000 0.0000 0.0000
# 4 0.0000 0.0000 0.0000 -361.9569 0.0000 0.0000
# 5 0.0000 0.0000 0.0000 0.0000 -361.8991 0.0000
# 6 0.0000 0.0000 0.0000 0.0000 0.0000 67.3904
#
#
#
# Elastic Compliance Matrix: (Units=1/GPa)
#
#
# Indices 1 2 3 4 5 6 
#
# 1 0.061887 -0.053618 -0.003140 0.000000 0.000000 0.000000
# 2 -0.053618 0.061889 -0.003141 0.000000 0.000000 0.000000
# 3 -0.003140 -0.003141 0.007651 0.000000 0.000000 0.000000
# 4 0.000000 0.000000 0.000000 -0.002763 0.000000 0.000000
# 5 0.000000 0.000000 0.000000 0.000000 -0.002763 0.000000
# 6 0.000000 0.000000 0.000000 0.000000 0.000000 0.014839
#
#
# Mechanical properties :
#
#
# Convention : Reuss Voigt Hill
#
# Bulk Modulus (GPa) = 85.97940 92.17939 89.07940
# Shear Modulus (GPa) = 18.90985 -121.52610 -51.30813
#
# Velocity S-wave (km/s) = 2.83465 -7.18605 -4.66926
# Velocity P-wave (km/s) = 6.87374 5.44823 2.96354
#
# Compressibility (1/GPa) = 0.01163069
#
# Stress axis : x y z
#
# Youngs Moduli (GPa) = 16.15856 16.15800 130.70020
#
# Poissons Ratio (x) = 0.86635 0.41036
# Poissons Ratio (y) = 0.86638 0.41050
# Poissons Ratio (z) = 0.05073 0.05075
#
# Static dielectric constant tensor:
#      x y z
#    x 1.873290 0.000000 0.000000 
#    y 0.000000 1.873290 0.000000 
#    z 0.000000 0.000000 1.885880 
# 
# From -- ./inp_files/6996.got.cif
#   From: 2010.05.17/outbox.cif.g08.bks.cpg/sg128_4_cif.got.tgz:6996.got - 2010.05.20 12:07:25.
