data_PCOD9565601
_publ_section_title
;
Structure prediction by ZEFSAII (Michael W. Deem and Ramdas Pophale) SiO2 
 PCOD9565601
Probable space group: P 4/N C C
;
_chemical_formula_sum "Si O2"
_cell_formula_units_Z 120
_cell_length_a 19.704699
_cell_length_b 19.704699
_cell_length_c 15.194580
_cell_angle_alpha 90.000000
_cell_angle_beta 90.000000
_cell_angle_gamma 90.000000
_cell_volume 5899.678021
_symmetry_space_group_name_H-M "P 4/N C C"
_symmetry_group_IT_number 130
_symmetry_cell_setting 'tetragonal'
loop_
_space_group_symop_operation_xyz
x,y,z
1/2-y,x,z
1/2-x,1/2-y,z
y,1/2-x,z
1/2+x,-y,1/2-z
-x,1/2+y,1/2-z
1/2+y,1/2+x,1/2-z
-y,-x,1/2-z
-x,-y,-z
1/2+y,-x,-z
1/2+x,1/2+y,-z
-y,1/2+x,-z
1/2-x,y,1/2+z
x,1/2-y,1/2+z
1/2-y,1/2-x,1/2+z
y,x,1/2+z
loop_
_atom_site_type_symbol
_atom_site_label
_atom_site_fract_x
_atom_site_fract_y
_atom_site_fract_z
Si Si1 0.144615 0.290326 0.014126
Si Si2 0.673664 0.326337 0.250000
Si Si3 0.996202 0.171239 0.925854
Si Si4 0.675573 0.304245 0.444616
Si Si5 0.564400 0.885766 0.098802
Si Si6 0.481626 0.793464 0.215498
Si Si7 0.115623 0.561428 0.522131
Si Si8 0.017162 0.264732 0.100521
O O1 0.166552 0.212596 0.015640
O O2 0.090907 0.299496 0.091489
O O3 0.101067 0.316099 0.932012
O O4 0.701605 0.303312 0.345099
O O5 0.689531 0.405196 0.241588
O O6 0.981949 0.231159 0.855310
O O7 0.938518 0.112923 0.936630
O O8 0.060339 0.124935 0.896350
O O9 0.007636 0.210331 0.019967
O O10 0.730815 0.335996 0.511626
O O11 0.607288 0.347188 0.448636
O O12 0.520662 0.860227 0.180765
O O13 0.508101 0.908345 0.025482
O O14 0.514279 0.769290 0.305985
O O15 0.175828 0.538217 0.587554
#
# Coordination Sequence:
#
# PCOD9565601 Si02
#       8
#    16   8  16  16  16  16  16  16
#     4  10  19  39  69  94 128 177 228 280 340 405
#     4  12  22  43  66  94 140 180 224 287 358 396
#     4  12  24  45  69 100 140 180 232 291 344 420
#     4  11  23  39  66  99 131 181 236 279 335 413
#     4  11  22  43  67 103 131 182 229 284 351 413
#     4  12  25  43  70 100 138 180 233 288 346 422
#     4  11  21  42  67  94 137 180 225 273 353 408
#     4  11  24  40  67  98 136 181 223 285 348 410
#
# _framework density 20.340094000000001
#
# number of rings (size 3 to 8) (size 9 to 14) (size 15 to 20)
#    0.000    0.800    5.333    3.600    0.000    2.667 
#    0.000    4.000    0.000    1.600    0.000    0.000 
#    0.000    0.000    0.000    0.000    0.000    0.000 
#
# Total GULP energy -669157.037713 kJ/mol
# GULP energy per Si atom -5576.308648 kJ/mol
# Density = 2.029380 g / cm^3
# Si number density = 20.340094 Si / 1000 Ang^3
#
#
#
# Elastic Constant Matrix: (Units=GPa)
#
#
# Indices 1 2 3 4 5 6 
#
# 1 110.1157 38.1777 18.3046 0.0000 0.0000 0.0000
# 2 38.1777 110.1168 18.3047 0.0000 0.0000 0.0000
# 3 18.3046 18.3047 102.0978 0.0000 0.0000 0.0000
# 4 0.0000 0.0000 0.0000 13.5792 0.0000 0.0000
# 5 0.0000 0.0000 0.0000 0.0000 13.5789 0.0000
# 6 0.0000 0.0000 0.0000 0.0000 0.0000 51.4283
#
#
#
# Elastic Compliance Matrix: (Units=1/GPa)
#
#
# Indices 1 2 3 4 5 6 
#
# 1 0.010478 -0.003423 -0.001265 0.000000 0.000000 0.000000
# 2 -0.003423 0.010478 -0.001265 0.000000 0.000000 0.000000
# 3 -0.001265 -0.001265 0.010248 0.000000 0.000000 0.000000
# 4 0.000000 0.000000 0.000000 0.073642 0.000000 0.000000
# 5 0.000000 0.000000 0.000000 0.000000 0.073644 0.000000
# 6 0.000000 0.000000 0.000000 0.000000 0.000000 0.019445
#
#
# Mechanical properties :
#
#
# Convention : Reuss Voigt Hill
#
# Bulk Modulus (GPa) = 51.81480 52.43383 52.12432
# Shear Modulus (GPa) = 23.11891 32.22015 27.66953
#
# Velocity S-wave (km/s) = 3.37503 3.98436 3.69229
# Velocity P-wave (km/s) = 6.38101 6.85575 6.62264
#
# Compressibility (1/GPa) = 0.01929950
#
# Stress axis : x y z
#
# Youngs Moduli (GPa) = 95.43580 95.43676 97.57894
#
# Poissons Ratio (x) = 0.32664 0.12344
# Poissons Ratio (y) = 0.32663 0.12343
# Poissons Ratio (z) = 0.12072 0.12072
#
# Static dielectric constant tensor:
#      x y z
#    x 1.763190 0.000000 0.000000 
#    y 0.000000 1.763190 0.000000 
#    z 0.000000 0.000000 1.745790 
# 
# From -- ./inp_files/2572.got.cif
#   From: 2010.05.17/outbox.cif.g08.bks.cpg/sg130_2_cif.got.tgz:2572.got - 2010.05.20 12:17:35.
