data_PCOD9565481
_publ_section_title
;
Structure prediction by ZEFSAII (Michael W. Deem and Ramdas Pophale) SiO2 
 PCOD9565481
Probable space group: P 4/N M M
;
_chemical_formula_sum "Si O2"
_cell_formula_units_Z 80
_cell_length_a 28.417670
_cell_length_b 28.417670
_cell_length_c 5.058037
_cell_angle_alpha 90.000000
_cell_angle_beta 90.000000
_cell_angle_gamma 90.000000
_cell_volume 4084.688431
_symmetry_space_group_name_H-M "P 4/N M M"
_symmetry_group_IT_number 129
_symmetry_cell_setting 'tetragonal'
loop_
_space_group_symop_operation_xyz
x,y,z
1/2-y,x,z
1/2-x,1/2-y,z
y,1/2-x,z
1/2+x,-y,-z
-x,1/2+y,-z
1/2+y,1/2+x,-z
-y,-x,-z
-x,-y,-z
1/2+y,-x,-z
1/2+x,1/2+y,-z
-y,1/2+x,-z
1/2-x,y,z
x,1/2-y,z
1/2-y,1/2-x,z
y,x,z
loop_
_atom_site_type_symbol
_atom_site_label
_atom_site_fract_x
_atom_site_fract_y
_atom_site_fract_z
Si Si1 0.597343 0.451081 0.247275
Si Si2 0.060764 0.801631 0.433806
Si Si3 0.695508 0.957621 0.689973
Si Si4 0.555412 0.632655 0.205723
Si Si5 0.845593 0.302520 0.243442
O O1 0.571106 0.428895 0.500000
O O2 0.652306 0.435981 0.254045
O O3 0.601866 0.507816 0.250166
O O4 0.569497 0.430504 0.000000
O O5 0.064272 0.750000 0.299881
O O6 0.101922 0.804960 0.646660
O O7 0.011448 0.803730 0.586849
O O8 0.750000 0.941763 0.702643
O O9 0.663077 0.933387 0.467539
O O10 0.669403 0.954253 0.969508
O O11 0.597676 0.597676 0.140073
O O12 0.814754 0.314754 0.500000
O O13 0.835071 0.250000 0.149507
O O14 0.836009 0.336009 0.000000
#
# Coordination Sequence:
#
# PCOD9565481 Si02
#       5
#    16  16  16  16  16
#     4  11  23  39  59  83 115 157 200 242 291 356
#     4   9  21  39  59  82 105 137 186 245 301 346
#     4  10  21  39  63  90 121 154 193 242 294 341
#     4  11  23  39  60  90 127 163 199 241 287 342
#     4  11  24  39  55  73  96 128 170 225 288 356
#
# _framework density 19.585336000000002
#
# number of rings (size 3 to 8) (size 9 to 14) (size 15 to 20)
#    0.000    1.600    0.000    4.800    0.000   10.800 
#    0.000   13.000    0.000    1.200    0.000    0.000 
#    0.000   28.000    0.000    0.000    0.000    0.000 
#
# Total GULP energy -447337.251976 kJ/mol
# GULP energy per Si atom -5591.715650 kJ/mol
# Density = 1.954076 g / cm^3
# Si number density = 19.585336 Si / 1000 Ang^3
#
#
#
# Elastic Constant Matrix: (Units=GPa)
#
#
# Indices 1 2 3 4 5 6 
#
# 1 68.9125 46.6445 9.7659 0.0000 0.0000 0.0000
# 2 46.6445 68.9117 9.7672 0.0000 0.0000 0.0000
# 3 9.7659 9.7672 68.6277 0.0000 0.0000 0.0000
# 4 0.0000 0.0000 0.0000 4.9290 0.0000 0.0000
# 5 0.0000 0.0000 0.0000 0.0000 4.9306 0.0000
# 6 0.0000 0.0000 0.0000 0.0000 0.0000 20.3161
#
#
#
# Elastic Compliance Matrix: (Units=1/GPa)
#
#
# Indices 1 2 3 4 5 6 
#
# 1 0.026887 -0.018021 -0.001261 0.000000 0.000000 0.000000
# 2 -0.018021 0.026888 -0.001262 0.000000 0.000000 0.000000
# 3 -0.001261 -0.001262 0.014931 0.000000 0.000000 0.000000
# 4 0.000000 0.000000 0.000000 0.202879 0.000000 0.000000
# 5 0.000000 0.000000 0.000000 0.000000 0.202817 0.000000
# 6 0.000000 0.000000 0.000000 0.000000 0.000000 0.049222
#
#
# Mechanical properties :
#
#
# Convention : Reuss Voigt Hill
#
# Bulk Modulus (GPa) = 36.20943 37.64524 36.92733
# Shear Modulus (GPa) = 8.71203 15.38676 12.04940
#
# Velocity S-wave (km/s) = 2.11137 2.80594 2.48306
# Velocity P-wave (km/s) = 4.94692 5.45533 5.20733
#
# Compressibility (1/GPa) = 0.02761712
#
# Stress axis : x y z
#
# Youngs Moduli (GPa) = 37.19211 37.19144 66.97682
#
# Poissons Ratio (x) = 0.67021 0.08449
# Poissons Ratio (y) = 0.67022 0.08455
# Poissons Ratio (z) = 0.04692 0.04695
#
# Static dielectric constant tensor:
#      x y z
#    x 1.722530 0.000000 0.000000 
#    y 0.000000 1.722540 0.000000 
#    z 0.000000 0.000000 1.680990 
# 
# From -- ./inp_files/981.got.cif
#   From: 2010.05.17/outbox.cif.g08.bks.cpg/sg129_1_cif.got.tgz:981.got - 2010.05.20 12:12:06.
