data_PCOD9565461
_publ_section_title
;
Structure prediction by ZEFSAII (Michael W. Deem and Ramdas Pophale) SiO2 
 PCOD9565461
Probable space group: P 4/N M M
;
_chemical_formula_sum "Si O2"
_cell_formula_units_Z 80
_cell_length_a 13.842316
_cell_length_b 13.842316
_cell_length_c 25.624055
_cell_angle_alpha 90.000000
_cell_angle_beta 90.000000
_cell_angle_gamma 90.000000
_cell_volume 4909.817805
_symmetry_space_group_name_H-M "P 4/N M M"
_symmetry_group_IT_number 129
_symmetry_cell_setting 'tetragonal'
loop_
_space_group_symop_operation_xyz
x,y,z
1/2-y,x,z
1/2-x,1/2-y,z
y,1/2-x,z
1/2+x,-y,-z
-x,1/2+y,-z
1/2+y,1/2+x,-z
-y,-x,-z
-x,-y,-z
1/2+y,-x,-z
1/2+x,1/2+y,-z
-y,1/2+x,-z
1/2-x,y,z
x,1/2-y,z
1/2-y,1/2-x,z
y,x,z
loop_
_atom_site_type_symbol
_atom_site_label
_atom_site_fract_x
_atom_site_fract_y
_atom_site_fract_z
Si Si1 0.138436 0.978798 0.243137
Si Si2 0.022835 0.637782 0.161687
Si Si3 0.976680 0.136135 0.365605
Si Si4 0.526121 0.134745 0.546787
Si Si5 0.862736 0.476760 0.042229
O O1 0.250000 0.999242 0.233485
O O2 0.099237 0.897655 0.204244
O O3 0.127579 0.952398 0.304218
O O4 0.072806 0.072806 0.234022
O O5 0.000487 0.750000 0.167994
O O6 0.057699 0.622516 0.102022
O O7 0.928071 0.571930 0.168444
O O8 0.985704 0.250000 0.378285
O O9 0.897345 0.083013 0.400960
O O10 0.076647 0.076647 0.374347
O O11 0.591331 0.091331 0.500000
O O12 0.514432 0.250000 0.542910
O O13 0.425195 0.074806 0.545485
O O14 0.750000 0.496506 0.035153
O O15 0.927100 0.572901 0.035960
O O16 0.901133 0.401133 0.000000
#
# Coordination Sequence:
#
# PCOD9565461 Si02
#       5
#    16  16  16  16  16
#     4   9  18  32  49  70  97 127 159 196 236 279
#     4   9  18  32  49  69  93 121 154 193 235 278
#     4   9  18  32  50  73  99 127 160 197 237 281
#     4  10  21  36  53  74 100 129 162 199 238 282
#     4   9  18  32  49  69  93 121 153 190 232 277
#
# _framework density 16.293883999999998
#
# number of rings (size 3 to 8) (size 9 to 14) (size 15 to 20)
#    0.000    2.800    0.000    0.600    0.000    4.600 
#    0.000    8.000    0.000    3.600    0.000   11.200 
#    0.000    0.000    0.000    0.000    0.000    0.000 
#
# Total GULP energy -445717.310818 kJ/mol
# GULP energy per Si atom -5571.466385 kJ/mol
# Density = 1.625680 g / cm^3
# Si number density = 16.293884 Si / 1000 Ang^3
#
#
#
# Elastic Constant Matrix: (Units=GPa)
#
#
# Indices 1 2 3 4 5 6 
#
# 1 112.4541 43.4864 57.4168 0.0000 0.0000 0.0000
# 2 43.4864 112.4541 57.4168 0.0000 0.0000 0.0000
# 3 57.4168 57.4168 70.5666 0.0000 0.0000 0.0000
# 4 0.0000 0.0000 0.0000 25.3022 0.0000 0.0000
# 5 0.0000 0.0000 0.0000 0.0000 25.3022 0.0000
# 6 0.0000 0.0000 0.0000 0.0000 0.0000 4.4684
#
#
#
# Elastic Compliance Matrix: (Units=1/GPa)
#
#
# Indices 1 2 3 4 5 6 
#
# 1 0.015249 0.000750 -0.013017 0.000000 0.000000 0.000000
# 2 0.000750 0.015249 -0.013017 0.000000 0.000000 0.000000
# 3 -0.013017 -0.013017 0.035354 0.000000 0.000000 0.000000
# 4 0.000000 0.000000 0.000000 0.039522 0.000000 0.000000
# 5 0.000000 0.000000 0.000000 0.000000 0.039522 0.000000
# 6 0.000000 0.000000 0.000000 0.000000 0.000000 0.223792
#
#
# Mechanical properties :
#
#
# Convention : Reuss Voigt Hill
#
# Bulk Modulus (GPa) = 65.43605 68.01279 66.72442
# Shear Modulus (GPa) = 11.78265 20.15820 15.97042
#
# Velocity S-wave (km/s) = 2.69203 3.52115 3.13413
# Velocity P-wave (km/s) = 7.06469 7.63958 7.35775
#
# Compressibility (1/GPa) = 0.01528210
#
# Stress axis : x y z
#
# Youngs Moduli (GPa) = 65.57785 65.57785 28.28520
#
# Poissons Ratio (x) = -0.04915 0.36820
# Poissons Ratio (y) = -0.04915 0.36820
# Poissons Ratio (z) = 0.85365 0.85365
#
# Static dielectric constant tensor:
#      x y z
#    x 1.520290 0.000000 0.000000 
#    y 0.000000 1.520290 0.000000 
#    z 0.000000 0.000000 1.568400 
# 
# From -- ./inp_files/6321.got.cif
#   From: 2010.05.17/outbox.cif.g08.bks.cpg/sg129_4_cif.got.tgz:6321.got - 2010.05.20 12:12:06.
