data_PCOD9565217
_publ_section_title
;
Structure prediction by ZEFSAII (Michael W. Deem and Ramdas Pophale) SiO2 
 PCOD9565217
Probable space group: P 4/N M M
;
_chemical_formula_sum "Si O2"
_cell_formula_units_Z 112
_cell_length_a 13.940371
_cell_length_b 13.940371
_cell_length_c 36.272062
_cell_angle_alpha 90.000000
_cell_angle_beta 90.000000
_cell_angle_gamma 90.000000
_cell_volume 7048.892852
_symmetry_space_group_name_H-M "P 4/N M M"
_symmetry_group_IT_number 129
_symmetry_cell_setting 'tetragonal'
loop_
_space_group_symop_operation_xyz
x,y,z
1/2-y,x,z
1/2-x,1/2-y,z
y,1/2-x,z
1/2+x,-y,-z
-x,1/2+y,-z
1/2+y,1/2+x,-z
-y,-x,-z
-x,-y,-z
1/2+y,-x,-z
1/2+x,1/2+y,-z
-y,1/2+x,-z
1/2-x,y,z
x,1/2-y,z
1/2-y,1/2-x,z
y,x,z
loop_
_atom_site_type_symbol
_atom_site_label
_atom_site_fract_x
_atom_site_fract_y
_atom_site_fract_z
Si Si1 0.523887 0.134545 0.968082
Si Si2 0.137442 0.520966 0.613855
Si Si3 0.862204 0.137065 0.252364
Si Si4 0.366033 0.640676 0.894034
Si Si5 0.864634 0.021354 0.177909
Si Si6 0.520304 0.361417 0.528111
Si Si7 0.021269 0.636510 0.673335
O O1 0.512852 0.250000 0.970913
O O2 0.575785 0.110572 0.929325
O O3 0.424046 0.075955 0.970285
O O4 0.592915 0.092915 0.000000
O O5 0.250000 0.508201 0.621260
O O6 0.077224 0.422777 0.618897
O O7 0.126102 0.549750 0.570925
O O8 0.090508 0.597848 0.641098
O O9 0.750000 0.121591 0.261929
O O10 0.872811 0.250000 0.243247
O O11 0.884575 0.074420 0.216523
O O12 0.927409 0.115662 0.287581
O O13 0.250000 0.646116 0.893182
O O14 0.402200 0.750000 0.897104
O O15 0.394786 0.589329 0.856115
O O16 0.750000 0.006047 0.175359
O O17 0.923516 0.923516 0.175913
O O18 0.599164 0.400837 0.500000
O O19 0.500773 0.250000 0.522006
O O20 0.425809 0.425809 0.522417
O O21 0.006931 0.750000 0.670341
O O22 0.923550 0.576451 0.670997
#
# Coordination Sequence:
#
# PCOD9565217 Si02
#       7
#    16  16  16  16  16  16  16
#     4  10  20  33  50  73 100 130 164 201 243 291
#     4   9  18  32  50  72  96 122 153 190 233 280
#     4   9  17  30  49  71  92 116 150 193 239 282
#     4   9  17  30  48  68  90 118 154 196 238 277
#     4  10  19  30  45  66  94 126 157 190 230 278
#     4   9  18  32  49  70  96 124 155 192 232 275
#     4  10  20  33  49  69  94 124 158 196 236 279
#
# _framework density 15.88902
#
# number of rings (size 3 to 8) (size 9 to 14) (size 15 to 20)
#    0.000    2.571    0.000    2.143    0.000    4.714 
#    0.000    2.857    0.000    2.571    0.000    6.000 
#    0.000   11.714    0.000    0.000    0.000    0.000 
#
# Total GULP energy -624242.596154 kJ/mol
# GULP energy per Si atom -5573.594609 kJ/mol
# Density = 1.585286 g / cm^3
# Si number density = 15.889020 Si / 1000 Ang^3
#
#
#
# Elastic Constant Matrix: (Units=GPa)
#
#
# Indices 1 2 3 4 5 6 
#
# 1 93.7296 54.8375 63.1573 0.0000 0.0000 0.0000
# 2 54.8375 93.7287 63.1562 0.0000 0.0000 0.0000
# 3 63.1573 63.1562 102.7124 0.0000 0.0000 0.0000
# 4 0.0000 0.0000 0.0000 23.0755 0.0000 0.0000
# 5 0.0000 0.0000 0.0000 0.0000 23.0755 0.0000
# 6 0.0000 0.0000 0.0000 0.0000 0.0000 13.5280
#
#
#
# Elastic Compliance Matrix: (Units=1/GPa)
#
#
# Indices 1 2 3 4 5 6 
#
# 1 0.019909 -0.005804 -0.008673 0.000000 0.000000 0.000000
# 2 -0.005804 0.019909 -0.008673 0.000000 0.000000 0.000000
# 3 -0.008673 -0.008673 0.020402 0.000000 0.000000 0.000000
# 4 0.000000 0.000000 0.000000 0.043336 0.000000 0.000000
# 5 0.000000 0.000000 0.000000 0.000000 0.043336 0.000000
# 6 0.000000 0.000000 0.000000 0.000000 0.000000 0.073921
#
#
# Mechanical properties :
#
#
# Convention : Reuss Voigt Hill
#
# Bulk Modulus (GPa) = 71.84062 72.49695 72.16878
# Shear Modulus (GPa) = 18.39922 19.20379 18.80151
#
# Velocity S-wave (km/s) = 3.40661 3.48029 3.44365
# Velocity P-wave (km/s) = 7.79650 7.86613 7.83140
#
# Compressibility (1/GPa) = 0.01391970
#
# Stress axis : x y z
#
# Youngs Moduli (GPa) = 50.22927 50.22965 49.01560
#
# Poissons Ratio (x) = 0.29152 0.42512
# Poissons Ratio (y) = 0.29152 0.42510
# Poissons Ratio (z) = 0.43564 0.43563
#
# Static dielectric constant tensor:
#      x y z
#    x 1.511350 0.000000 0.000000 
#    y 0.000000 1.511350 0.000000 
#    z 0.000000 0.000000 1.530940 
# 
# From -- ./inp_files/7559.got.cif
#   From: 2010.05.17/outbox.cif.g08.bks.cpg/sg129_4_cif.got.tgz:7559.got - 2010.05.20 12:12:06.
