data_PCOD9565049
_publ_section_title
;
Structure prediction by ZEFSAII (Michael W. Deem and Ramdas Pophale) SiO2 
 PCOD9565049
Probable space group: P 4/M N C
;
_chemical_formula_sum "Si O2"
_cell_formula_units_Z 44
_cell_length_a 13.582375
_cell_length_b 13.582375
_cell_length_c 11.529985
_cell_angle_alpha 90.000000
_cell_angle_beta 90.000000
_cell_angle_gamma 90.000000
_cell_volume 2127.062132
_symmetry_space_group_name_H-M "P 4/M N C"
_symmetry_group_IT_number 128
_symmetry_cell_setting 'tetragonal'
loop_
_space_group_symop_operation_xyz
x,y,z
-y,x,z
-x,-y,z
y,-x,z
1/2+x,1/2-y,1/2-z
1/2-x,1/2+y,1/2-z
1/2+y,1/2+x,1/2-z
1/2-y,1/2-x,1/2-z
-x,-y,-z
y,-x,-z
x,y,-z
-y,x,-z
1/2-x,1/2+y,1/2+z
1/2+x,1/2-y,1/2+z
1/2-y,1/2-x,1/2+z
1/2+y,1/2+x,1/2+z
loop_
_atom_site_type_symbol
_atom_site_label
_atom_site_fract_x
_atom_site_fract_y
_atom_site_fract_z
Si Si1 0.500000 0.000000 0.750000
Si Si2 0.607165 0.624795 0.500000
Si Si3 0.282169 0.016957 0.362802
Si Si4 0.336394 0.686770 0.248796
O O1 0.395198 0.003255 0.680661
O O2 0.490156 0.634265 0.500000
O O3 0.646854 0.666040 0.379398
O O4 0.281022 0.001562 0.500000
O O5 0.201458 0.944405 0.303401
O O6 0.238168 0.123192 0.328705
O O7 0.296731 0.796731 0.250000
#
# Coordination Sequence:
#
# PCOD9565049 Si02
#       4
#     4   8  16  16
#     4  12  26  48  72 106 144 186 232 284 350 428
#     4  11  24  46  72  98 138 181 244 296 336 415
#     4  12  27  47  71 106 144 182 233 291 351 416
#     4  12  26  45  71 103 140 188 231 285 354 414
#
# _framework density 20.685808999999999
#
# number of rings (size 3 to 8) (size 9 to 14) (size 15 to 20)
#    0.000    0.182    7.273    1.636    5.091    0.727 
#    6.545    1.818    0.000    0.000    0.000    0.000 
#    0.000    0.000    0.000    0.000    0.000    0.000 
#
# Total GULP energy -245610.900162 kJ/mol
# GULP energy per Si atom -5582.065913 kJ/mol
# Density = 2.063873 g / cm^3
# Si number density = 20.685809 Si / 1000 Ang^3
#
#
#
# Elastic Constant Matrix: (Units=GPa)
#
#
# Indices 1 2 3 4 5 6 
#
# 1 85.1341 -0.0371 16.5303 0.0000 0.0000 0.0000
# 2 -0.0371 85.1341 16.5303 0.0000 0.0000 0.0000
# 3 16.5303 16.5303 118.8949 0.0000 0.0000 0.0000
# 4 0.0000 0.0000 0.0000 14.4224 0.0000 0.0000
# 5 0.0000 0.0000 0.0000 0.0000 14.4224 0.0000
# 6 0.0000 0.0000 0.0000 0.0000 0.0000 45.0293
#
#
#
# Elastic Compliance Matrix: (Units=1/GPa)
#
#
# Indices 1 2 3 4 5 6 
#
# 1 0.012082 0.000341 -0.001727 0.000000 0.000000 0.000000
# 2 0.000341 0.012082 -0.001727 0.000000 0.000000 0.000000
# 3 -0.001727 -0.001727 0.008891 0.000000 0.000000 0.000000
# 4 0.000000 0.000000 0.000000 0.069337 0.000000 0.000000
# 5 0.000000 0.000000 0.000000 0.000000 0.069337 0.000000
# 6 0.000000 0.000000 0.000000 0.000000 0.000000 0.022208
#
#
# Mechanical properties :
#
#
# Convention : Reuss Voigt Hill
#
# Bulk Modulus (GPa) = 37.27563 39.46780 38.37172
# Shear Modulus (GPa) = 23.91145 31.85078 27.88111
#
# Velocity S-wave (km/s) = 3.40359 3.92821 3.67527
# Velocity P-wave (km/s) = 5.78835 6.30044 6.04981
#
# Compressibility (1/GPa) = 0.02682718
#
# Stress axis : x y z
#
# Youngs Moduli (GPa) = 82.76997 82.76997 112.47276
#
# Poissons Ratio (x) = -0.02819 0.19425
# Poissons Ratio (y) = -0.02819 0.19425
# Poissons Ratio (z) = 0.14295 0.14295
#
# Static dielectric constant tensor:
#      x y z
#    x 1.713320 0.000000 0.000000 
#    y 0.000000 1.713320 0.000000 
#    z 0.000000 0.000000 1.917250 
# 
# From -- ./inp_files/2193.got.cif
#   From: 2010.05.17/outbox.cif.g08.bks.cpg/sg128_2_cif.got.tgz:2193.got - 2010.05.20 12:07:25.
