data_PCOD9565208
_publ_section_title
;
Structure prediction by ZEFSAII (Michael W. Deem and Ramdas Pophale) SiO2 
 PCOD9565208
Probable space group: P 4/N M M
;
_chemical_formula_sum "Si O2"
_cell_formula_units_Z 128
_cell_length_a 18.265010
_cell_length_b 18.265010
_cell_length_c 23.183941
_cell_angle_alpha 90.000000
_cell_angle_beta 90.000000
_cell_angle_gamma 90.000000
_cell_volume 7734.408242
_symmetry_space_group_name_H-M "P 4/N M M"
_symmetry_group_IT_number 129
_symmetry_cell_setting 'tetragonal'
loop_
_space_group_symop_operation_xyz
x,y,z
1/2-y,x,z
1/2-x,1/2-y,z
y,1/2-x,z
1/2+x,-y,-z
-x,1/2+y,-z
1/2+y,1/2+x,-z
-y,-x,-z
-x,-y,-z
1/2+y,-x,-z
1/2+x,1/2+y,-z
-y,1/2+x,-z
1/2-x,y,z
x,1/2-y,z
1/2-y,1/2-x,z
y,x,z
loop_
_atom_site_type_symbol
_atom_site_label
_atom_site_fract_x
_atom_site_fract_y
_atom_site_fract_z
Si Si1 0.047574 0.165672 0.791999
Si Si2 0.164355 0.946295 0.250715
Si Si3 0.834667 0.164630 0.069477
Si Si4 0.165449 0.454823 0.589224
Si Si5 0.453234 0.167973 0.359378
Si Si6 0.665817 0.437699 0.314480
Si Si7 0.489601 0.612257 0.528975
Si Si8 0.559408 0.439053 0.140901
O O1 0.054196 0.250000 0.809232
O O2 0.124399 0.124399 0.787026
O O3 0.004389 0.162475 0.731404
O O4 0.997158 0.118987 0.835344
O O5 0.250000 0.933359 0.237026
O O6 0.127360 0.879686 0.285974
O O7 0.114993 0.959722 0.194325
O O8 0.159574 0.012079 0.296408
O O9 0.750000 0.145358 0.086577
O O10 0.846317 0.250000 0.086734
O O11 0.896409 0.111524 0.095606
O O12 0.837837 0.162164 0.000000
O O13 0.250000 0.441410 0.604610
O O14 0.112614 0.387387 0.603130
O O15 0.139495 0.525731 0.625882
O O16 0.158247 0.470889 0.521261
O O17 0.426363 0.250000 0.366325
O O18 0.388371 0.111630 0.367087
O O19 0.511874 0.152516 0.410143
O O20 0.750000 0.415243 0.321553
O O21 0.414973 0.585028 0.500000
O O22 0.539913 0.539913 0.538823
O O23 0.488069 0.488069 0.123537
#
# Coordination Sequence:
#
# PCOD9565208 Si02
#       8
#    16  16  16  16  16  16  16  16
#     4   9  17  28  42  62  89 123 161 198 237 282
#     4  10  20  33  50  71  94 123 159 199 243 289
#     4   9  18  33  53  77 106 139 172 206 245 289
#     4  10  19  30  45  65  90 121 157 197 243 298
#     4  10  20  33  48  67  91 118 152 193 235 281
#     4   9  18  31  45  64  90 118 151 193 241 292
#     4   9  17  29  46  65  83 109 147 189 236 289
#     4  10  19  31  49  73 102 133 165 202 245 293
#
# _framework density 16.549423999999998
#
# number of rings (size 3 to 8) (size 9 to 14) (size 15 to 20)
#    0.000    2.500    0.000    3.000    0.000    3.875 
#    0.000    0.000    0.000    4.500    0.000    0.000 
#    0.000   11.250    0.000    9.250    0.000    0.250 
#
# Total GULP energy -712910.618830 kJ/mol
# GULP energy per Si atom -5569.614210 kJ/mol
# Density = 1.651176 g / cm^3
# Si number density = 16.549424 Si / 1000 Ang^3
#
#
#
# Elastic Constant Matrix: (Units=GPa)
#
#
# Indices 1 2 3 4 5 6 
#
# 1 89.1523 54.8383 25.6029 0.0000 0.0000 0.0000
# 2 54.8383 89.1519 25.6028 0.0000 0.0000 0.0000
# 3 25.6029 25.6028 54.2471 0.0000 0.0000 0.0000
# 4 0.0000 0.0000 0.0000 19.1539 0.0000 0.0000
# 5 0.0000 0.0000 0.0000 0.0000 19.1542 0.0000
# 6 0.0000 0.0000 0.0000 0.0000 0.0000 18.3853
#
#
#
# Elastic Compliance Matrix: (Units=1/GPa)
#
#
# Indices 1 2 3 4 5 6 
#
# 1 0.018744 -0.010399 -0.003939 0.000000 0.000000 0.000000
# 2 -0.010399 0.018744 -0.003939 0.000000 0.000000 0.000000
# 3 -0.003939 -0.003939 0.022152 0.000000 0.000000 0.000000
# 4 0.000000 0.000000 0.000000 0.052209 0.000000 0.000000
# 5 0.000000 0.000000 0.000000 0.000000 0.052208 0.000000
# 6 0.000000 0.000000 0.000000 0.000000 0.000000 0.054391
#
#
# Mechanical properties :
#
#
# Convention : Reuss Voigt Hill
#
# Bulk Modulus (GPa) = 43.31256 49.40439 46.35847
# Shear Modulus (GPa) = 19.03332 19.77249 19.40290
#
# Velocity S-wave (km/s) = 3.39498 3.46027 3.42778
# Velocity P-wave (km/s) = 6.44952 6.77363 6.61356
#
# Compressibility (1/GPa) = 0.02308799
#
# Stress axis : x y z
#
# Youngs Moduli (GPa) = 53.34991 53.34968 45.14227
#
# Poissons Ratio (x) = 0.55476 0.17781
# Poissons Ratio (y) = 0.55476 0.17781
# Poissons Ratio (z) = 0.21014 0.21014
#
# Static dielectric constant tensor:
#      x y z
#    x 1.558870 0.000000 0.000000 
#    y 0.000000 1.558870 0.000000 
#    z 0.000000 0.000000 1.566010 
# 
# From -- ./inp_files/7356.got.cif
#   From: 2010.05.17/outbox.cif.g08.bks.cpg/sg129_4_cif.got.tgz:7356.got - 2010.05.20 12:12:06.
