data_PCOD9565562
_publ_section_title
;
Structure prediction by ZEFSAII (Michael W. Deem and Ramdas Pophale) SiO2 
 PCOD9565562
Probable space group: P 4/N C C
;
_chemical_formula_sum "Si O2"
_cell_formula_units_Z 120
_cell_length_a 20.813287
_cell_length_b 20.813287
_cell_length_c 14.739409
_cell_angle_alpha 90.000000
_cell_angle_beta 90.000000
_cell_angle_gamma 90.000000
_cell_volume 6385.007561
_symmetry_space_group_name_H-M "P 4/N C C"
_symmetry_group_IT_number 130
_symmetry_cell_setting 'tetragonal'
loop_
_space_group_symop_operation_xyz
x,y,z
1/2-y,x,z
1/2-x,1/2-y,z
y,1/2-x,z
1/2+x,-y,1/2-z
-x,1/2+y,1/2-z
1/2+y,1/2+x,1/2-z
-y,-x,1/2-z
-x,-y,-z
1/2+y,-x,-z
1/2+x,1/2+y,-z
-y,1/2+x,-z
1/2-x,y,1/2+z
x,1/2-y,1/2+z
1/2-y,1/2-x,1/2+z
y,x,1/2+z
loop_
_atom_site_type_symbol
_atom_site_label
_atom_site_fract_x
_atom_site_fract_y
_atom_site_fract_z
Si Si1 0.427009 0.519300 0.978477
Si Si2 0.933899 0.173975 0.044418
Si Si3 0.779416 0.515128 0.792039
Si Si4 0.306388 0.800032 0.360615
Si Si5 0.261780 0.582503 0.364248
Si Si6 0.524157 0.917966 0.223226
Si Si7 0.630547 0.369454 0.750000
Si Si8 0.636432 0.989580 0.332498
O O1 0.424534 0.597007 0.965451
O O2 0.412813 0.483645 0.884469
O O3 0.500000 0.500000 0.000000
O O4 0.383864 0.493886 0.062133
O O5 0.873849 0.212432 0.090614
O O6 0.988955 0.192940 0.113713
O O7 0.950528 0.201899 0.945990
O O8 0.764467 0.461936 0.714592
O O9 0.845687 0.543600 0.753383
O O10 0.707110 0.540689 0.813215
O O11 0.250000 0.750000 0.382647
O O12 0.308673 0.808673 0.250000
O O13 0.292287 0.870711 0.399858
O O14 0.312424 0.632249 0.320685
O O15 0.580133 0.959833 0.270017
O O16 0.456141 0.956141 0.250000
O O17 0.563596 0.362084 0.699399
#
# Coordination Sequence:
#
# PCOD9565562 Si02
#       8
#    16  16  16  16  16  16   8  16
#     4  12  23  40  71  98 124 171 224 281 334 393
#     4  12  25  38  58  87 124 166 223 267 325 381
#     4  11  26  42  61  90 129 164 211 279 333 391
#     4  11  24  38  49  72 116 178 220 260 298 371
#     4  11  24  34  55  78 120 161 212 257 313 366
#     4  12  23  44  67  95 131 172 219 272 334 401
#     4  10  18  38  55  84 116 166 202 265 308 372
#     4  11  23  42  65  94 129 166 216 269 336 392
#
# _framework density 18.794025999999999
#
# number of rings (size 3 to 8) (size 9 to 14) (size 15 to 20)
#    0.000    0.667    6.000    1.600    9.333    0.000 
#    0.000    0.000    0.000    0.400    0.000    0.000 
#    0.000    2.133    0.000    0.000    0.000    0.000 
#
# Total GULP energy -668377.167551 kJ/mol
# GULP energy per Si atom -5569.809730 kJ/mol
# Density = 1.875125 g / cm^3
# Si number density = 18.794026 Si / 1000 Ang^3
#
#
#
# Elastic Constant Matrix: (Units=GPa)
#
#
# Indices 1 2 3 4 5 6 
#
# 1 57.9124 28.2391 19.6929 0.0000 0.0000 0.0000
# 2 28.2391 57.9114 19.6941 0.0000 0.0000 0.0000
# 3 19.6929 19.6941 101.2300 0.0000 0.0000 0.0000
# 4 0.0000 0.0000 0.0000 12.0367 0.0000 0.0000
# 5 0.0000 0.0000 0.0000 0.0000 12.0382 0.0000
# 6 0.0000 0.0000 0.0000 0.0000 0.0000 23.2166
#
#
#
# Elastic Compliance Matrix: (Units=1/GPa)
#
#
# Indices 1 2 3 4 5 6 
#
# 1 0.023220 -0.010480 -0.002478 0.000000 0.000000 0.000000
# 2 -0.010480 0.023221 -0.002479 0.000000 0.000000 0.000000
# 3 -0.002478 -0.002479 0.010843 0.000000 0.000000 0.000000
# 4 0.000000 0.000000 0.000000 0.083079 0.000000 0.000000
# 5 0.000000 0.000000 0.000000 0.000000 0.083069 0.000000
# 6 0.000000 0.000000 0.000000 0.000000 0.000000 0.043073
#
#
# Mechanical properties :
#
#
# Convention : Reuss Voigt Hill
#
# Bulk Modulus (GPa) = 37.86461 39.14511 38.50486
# Shear Modulus (GPa) = 16.33012 19.42016 17.87514
#
# Velocity S-wave (km/s) = 2.95091 3.21801 3.08735
# Velocity P-wave (km/s) = 5.63927 5.88907 5.76552
#
# Compressibility (1/GPa) = 0.02640988
#
# Stress axis : x y z
#
# Youngs Moduli (GPa) = 43.06547 43.06433 92.22636
#
# Poissons Ratio (x) = 0.45132 0.22857
# Poissons Ratio (y) = 0.45133 0.22862
# Poissons Ratio (z) = 0.10673 0.10675
#
# Static dielectric constant tensor:
#      x y z
#    x 1.731930 0.000000 0.000000 
#    y 0.000000 1.731930 0.000000 
#    z 0.000000 0.000000 1.695400 
# 
# From -- ./inp_files/2562.got.cif
#   From: 2010.05.17/outbox.cif.g08.bks.cpg/sg130_2_cif.got.tgz:2562.got - 2010.05.20 12:17:35.
