data_PCOD9565580
_publ_section_title
;
Structure prediction by ZEFSAII (Michael W. Deem and Ramdas Pophale) SiO2 
 PCOD9565580
Probable space group: P 4/N C C
;
_chemical_formula_sum "Si O2"
_cell_formula_units_Z 128
_cell_length_a 17.796554
_cell_length_b 17.796554
_cell_length_c 23.528260
_cell_angle_alpha 90.000000
_cell_angle_beta 90.000000
_cell_angle_gamma 90.000000
_cell_volume 7451.807787
_symmetry_space_group_name_H-M "P 4/N C C"
_symmetry_group_IT_number 130
_symmetry_cell_setting 'tetragonal'
loop_
_space_group_symop_operation_xyz
x,y,z
1/2-y,x,z
1/2-x,1/2-y,z
y,1/2-x,z
1/2+x,-y,1/2-z
-x,1/2+y,1/2-z
1/2+y,1/2+x,1/2-z
-y,-x,1/2-z
-x,-y,-z
1/2+y,-x,-z
1/2+x,1/2+y,-z
-y,1/2+x,-z
1/2-x,y,1/2+z
x,1/2-y,1/2+z
1/2-y,1/2-x,1/2+z
y,x,1/2+z
loop_
_atom_site_type_symbol
_atom_site_label
_atom_site_fract_x
_atom_site_fract_y
_atom_site_fract_z
Si Si1 0.555649 0.924334 0.657546
Si Si2 0.465078 0.562213 0.434971
Si Si3 0.967284 0.154901 0.260189
Si Si4 0.668390 0.535651 0.857662
Si Si5 0.683205 0.642260 0.571268
Si Si6 0.379054 0.024891 0.015087
Si Si7 0.448562 0.829002 0.739021
Si Si8 0.836494 0.955898 0.363335
O O1 0.505846 0.969840 0.611248
O O2 0.601192 0.860039 0.623329
O O3 0.494002 0.881861 0.695695
O O4 0.609329 0.977903 0.695976
O O5 0.472541 0.640034 0.401878
O O6 0.537750 0.558879 0.475042
O O7 0.391894 0.543869 0.471875
O O8 0.891714 0.108287 0.250000
O O9 0.950904 0.241085 0.278255
O O10 0.003626 0.156082 0.197141
O O11 0.666316 0.496401 0.796854
O O12 0.750368 0.567757 0.868113
O O13 0.610396 0.603493 0.862182
O O14 0.773155 0.650620 0.572818
O O15 0.665912 0.591181 0.515954
O O16 0.351309 0.001382 0.077248
O O17 0.367474 0.867474 0.750000
#
# Coordination Sequence:
#
# PCOD9565580 Si02
#       8
#    16  16  16  16  16  16  16  16
#     4  11  19  37  60  79 107 142 185 226 271 321
#     4   9  18  33  55  74 102 138 182 231 261 310
#     4  11  22  36  58  84 110 143 182 229 279 328
#     4  10  19  34  52  81 110 142 178 222 270 326
#     4  10  22  36  51  77 113 147 178 217 265 323
#     4   9  19  33  51  75 101 141 181 220 267 311
#     4  11  21  35  57  82 111 145 178 225 279 329
#     4  10  21  33  54  81 112 143 181 220 273 329
#
# _framework density 17.177040000000002
#
# number of rings (size 3 to 8) (size 9 to 14) (size 15 to 20)
#    0.000    1.875    2.500    2.625    3.500    0.500 
#    0.000    0.000    0.000    0.000    0.000    0.000 
#    0.000    0.000    0.000    0.000    0.000    0.000 
#
# Total GULP energy -712550.193728 kJ/mol
# GULP energy per Si atom -5566.798389 kJ/mol
# Density = 1.713794 g / cm^3
# Si number density = 17.177040 Si / 1000 Ang^3
#
#
#
# Elastic Constant Matrix: (Units=GPa)
#
#
# Indices 1 2 3 4 5 6 
#
# 1 49.8623 25.5868 4.1101 0.0000 0.0000 0.0000
# 2 25.5868 49.8639 4.1107 0.0000 0.0000 0.0000
# 3 4.1101 4.1107 60.1717 0.0000 0.0000 0.0000
# 4 0.0000 0.0000 0.0000 19.1921 0.0000 0.0000
# 5 0.0000 0.0000 0.0000 0.0000 19.1921 0.0000
# 6 0.0000 0.0000 0.0000 0.0000 0.0000 21.5399
#
#
#
# Elastic Compliance Matrix: (Units=1/GPa)
#
#
# Indices 1 2 3 4 5 6 
#
# 1 0.027273 -0.013920 -0.000912 0.000000 0.000000 0.000000
# 2 -0.013920 0.027272 -0.000912 0.000000 0.000000 0.000000
# 3 -0.000912 -0.000912 0.016744 0.000000 0.000000 0.000000
# 4 0.000000 0.000000 0.000000 0.052105 0.000000 0.000000
# 5 0.000000 0.000000 0.000000 0.000000 0.052105 0.000000
# 6 0.000000 0.000000 0.000000 0.000000 0.000000 0.046425
#
#
# Mechanical properties :
#
#
# Convention : Reuss Voigt Hill
#
# Bulk Modulus (GPa) = 25.12467 25.27921 25.20194
# Shear Modulus (GPa) = 18.74910 20.39085 19.56997
#
# Velocity S-wave (km/s) = 3.30740 3.44917 3.37903
# Velocity P-wave (km/s) = 5.40776 5.53273 5.47060
#
# Compressibility (1/GPa) = 0.03980151
#
# Stress axis : x y z
#
# Youngs Moduli (GPa) = 36.66592 36.66709 59.72381
#
# Poissons Ratio (x) = 0.51039 0.05447
# Poissons Ratio (y) = 0.51038 0.05449
# Poissons Ratio (z) = 0.03344 0.03345
#
# Static dielectric constant tensor:
#      x y z
#    x 1.586530 0.000000 0.000000 
#    y 0.000000 1.586530 0.000000 
#    z 0.000000 0.000000 1.639010 
# 
# From -- ./inp_files/4405.got.cif
#   From: 2010.05.17/outbox.cif.g08.bks.cpg/sg130_3_cif.got.tgz:4405.got - 2010.05.20 12:17:35.
