data_PCOD9565717
_publ_section_title
;
Structure prediction by ZEFSAII (Michael W. Deem and Ramdas Pophale) SiO2 
 PCOD9565717
Probable space group: P 4/N C C
;
_chemical_formula_sum "Si O2"
_cell_formula_units_Z 96
_cell_length_a 14.103906
_cell_length_b 14.103906
_cell_length_c 22.834732
_cell_angle_alpha 90.000000
_cell_angle_beta 90.000000
_cell_angle_gamma 90.000000
_cell_volume 4542.288645
_symmetry_space_group_name_H-M "P 4/N C C"
_symmetry_group_IT_number 130
_symmetry_cell_setting 'tetragonal'
loop_
_space_group_symop_operation_xyz
x,y,z
1/2-y,x,z
1/2-x,1/2-y,z
y,1/2-x,z
1/2+x,-y,1/2-z
-x,1/2+y,1/2-z
1/2+y,1/2+x,1/2-z
-y,-x,1/2-z
-x,-y,-z
1/2+y,-x,-z
1/2+x,1/2+y,-z
-y,1/2+x,-z
1/2-x,y,1/2+z
x,1/2-y,1/2+z
1/2-y,1/2-x,1/2+z
y,x,1/2+z
loop_
_atom_site_type_symbol
_atom_site_label
_atom_site_fract_x
_atom_site_fract_y
_atom_site_fract_z
Si Si1 0.290493 0.984476 0.629548
Si Si2 0.748290 0.088542 0.745667
Si Si3 0.383261 0.796955 0.973765
Si Si4 0.405676 0.273861 0.335269
Si Si5 0.877177 0.550046 0.545728
Si Si6 0.455976 0.096131 0.570964
O O1 0.370090 0.059116 0.611564
O O2 0.191645 0.007773 0.599092
O O3 0.268891 0.973236 0.696812
O O4 0.319047 0.886772 0.595171
O O5 0.654726 0.154726 0.750000
O O6 0.836730 0.163271 0.750000
O O7 0.731885 0.010316 0.694215
O O8 0.356830 0.691236 0.989588
O O9 0.481692 0.822709 0.001666
O O10 0.326568 0.354635 0.319820
O O11 0.418281 0.304641 0.403866
O O12 0.924527 0.617150 0.496455
O O13 0.964585 0.487364 0.571323
#
# Coordination Sequence:
#
# PCOD9565717 Si02
#       6
#    16  16  16  16  16  16
#     4  11  24  42  65  96 140 179 236 292 360 437
#     4  11  28  48  74 105 140 192 253 305 363 434
#     4  10  21  35  64  95 130 171 216 292 361 424
#     4  11  28  47  72 102 143 192 239 300 364 444
#     4  10  22  41  68  98 141 172 239 281 372 441
#     4  10  23  40  66 103 133 185 222 299 364 443
#
# _framework density 21.134720000000002
#
# number of rings (size 3 to 8) (size 9 to 14) (size 15 to 20)
#    0.000    1.500    1.667    1.000   11.667    2.333 
#    0.000    0.000    0.000    0.000    0.000    0.000 
#    0.000    0.000    0.000    0.000    0.000    0.000 
#
# Total GULP energy -534576.973332 kJ/mol
# GULP energy per Si atom -5568.510139 kJ/mol
# Density = 2.108662 g / cm^3
# Si number density = 21.134720 Si / 1000 Ang^3
#
#
#
# Elastic Constant Matrix: (Units=GPa)
#
#
# Indices 1 2 3 4 5 6 
#
# 1 25.0480 69.4245 23.4119 0.0000 0.0000 0.0000
# 2 69.4245 25.0518 23.4142 0.0000 0.0000 0.0000
# 3 23.4119 23.4142 85.5024 0.0000 0.0000 0.0000
# 4 0.0000 0.0000 0.0000 26.6502 0.0000 0.0000
# 5 0.0000 0.0000 0.0000 0.0000 26.6501 0.0000
# 6 0.0000 0.0000 0.0000 0.0000 0.0000 31.2126
#
#
#
# Elastic Compliance Matrix: (Units=1/GPa)
#
#
# Indices 1 2 3 4 5 6 
#
# 1 -0.005145 0.017391 -0.003354 0.000000 0.000000 0.000000
# 2 0.017391 -0.005144 -0.003353 0.000000 0.000000 0.000000
# 3 -0.003354 -0.003353 0.013532 0.000000 0.000000 0.000000
# 4 0.000000 0.000000 0.000000 0.037523 0.000000 0.000000
# 5 0.000000 0.000000 0.000000 0.000000 0.037523 0.000000
# 6 0.000000 0.000000 0.000000 0.000000 0.000000 0.032038
#
#
# Mechanical properties :
#
#
# Convention : Reuss Voigt Hill
#
# Bulk Modulus (GPa) = 40.63068 40.90039 40.76553
# Shear Modulus (GPa) = 51.45907 18.19269 34.82588
#
# Velocity S-wave (km/s) = 4.93973 2.93712 4.06372
# Velocity P-wave (km/s) = 7.19729 5.55846 6.43030
#
# Compressibility (1/GPa) = 0.02461195
#
# Stress axis : x y z
#
# Youngs Moduli (GPa) = -194.38232 -194.40798 73.89772
#
# Poissons Ratio (x) = 3.38100 0.24784
# Poissons Ratio (y) = 3.38055 0.24781
# Poissons Ratio (z) = -0.65193 -0.65193
#
# Static dielectric constant tensor:
#      x y z
#    x 1.844850 0.000000 0.000000 
#    y 0.000000 1.844850 0.000000 
#    z 0.000000 0.000000 1.805550 
# 
# From -- ./inp_files/3797.got.cif
#   From: 2010.05.17/outbox.cif.g08.bks.cpg/sg130_2_cif.got.tgz:3797.got - 2010.05.20 12:17:35.
