data_PCOD9565740
_publ_section_title
;
Structure prediction by ZEFSAII (Michael W. Deem and Ramdas Pophale) SiO2 
 PCOD9565740
Probable space group: P 4/N C C
;
_chemical_formula_sum "Si O2"
_cell_formula_units_Z 88
_cell_length_a 14.189557
_cell_length_b 14.189557
_cell_length_c 21.956388
_cell_angle_alpha 90.000000
_cell_angle_beta 90.000000
_cell_angle_gamma 90.000000
_cell_volume 4420.776619
_symmetry_space_group_name_H-M "P 4/N C C"
_symmetry_group_IT_number 130
_symmetry_cell_setting 'tetragonal'
loop_
_space_group_symop_operation_xyz
x,y,z
1/2-y,x,z
1/2-x,1/2-y,z
y,1/2-x,z
1/2+x,-y,1/2-z
-x,1/2+y,1/2-z
1/2+y,1/2+x,1/2-z
-y,-x,1/2-z
-x,-y,-z
1/2+y,-x,-z
1/2+x,1/2+y,-z
-y,1/2+x,-z
1/2-x,y,1/2+z
x,1/2-y,1/2+z
1/2-y,1/2-x,1/2+z
y,x,1/2+z
loop_
_atom_site_type_symbol
_atom_site_label
_atom_site_fract_x
_atom_site_fract_y
_atom_site_fract_z
Si Si1 0.147334 0.946523 0.963349
Si Si2 0.655913 0.106561 0.084021
Si Si3 0.419171 0.919171 0.250000
Si Si4 0.482666 0.010905 0.127014
Si Si5 0.885129 0.834312 0.442549
Si Si6 0.139095 0.776493 0.300594
O O1 0.236886 0.926548 0.920597
O O2 0.056100 0.934193 0.922324
O O3 0.142190 0.872179 0.017732
O O4 0.145706 0.047054 0.999050
O O5 0.624930 0.186260 0.132079
O O6 0.590124 0.020883 0.105264
O O7 0.473453 0.960368 0.191724
O O8 0.421180 0.809948 0.274190
O O9 0.434664 0.113089 0.115053
O O10 0.778912 0.874851 0.442609
O O11 0.250000 0.750000 0.305656
O O12 0.140360 0.859641 0.250000
#
# Coordination Sequence:
#
# PCOD9565740 Si02
#       6
#    16  16   8  16  16  16
#     4  11  22  39  60  99 135 162 215 278 346 406
#     4  11  24  36  67  95 134 168 218 271 344 418
#     4  10  23  40  62  84 133 172 222 276 332 396
#     4  11  24  41  59  94 127 176 220 273 333 394
#     4  10  21  39  64  90 126 173 217 269 328 399
#     4   9  20  39  60  91 124 168 210 266 334 396
#
# _framework density 19.906003999999999
#
# number of rings (size 3 to 8) (size 9 to 14) (size 15 to 20)
#    0.000    1.818    0.000    6.545   11.455    0.000 
#    0.000    0.000    0.000    0.000    0.000    0.000 
#    0.000    0.000    0.000    0.000    0.000    0.000 
#
# Total GULP energy -489958.297396 kJ/mol
# GULP energy per Si atom -5567.707925 kJ/mol
# Density = 1.986070 g / cm^3
# Si number density = 19.906004 Si / 1000 Ang^3
#
#
#
# Elastic Constant Matrix: (Units=GPa)
#
#
# Indices 1 2 3 4 5 6 
#
# 1 82.5950 25.5884 18.1080 0.0000 0.0000 0.0000
# 2 25.5884 82.5947 18.1081 0.0000 0.0000 0.0000
# 3 18.1080 18.1081 92.6182 0.0000 0.0000 0.0000
# 4 0.0000 0.0000 0.0000 35.7073 0.0000 0.0000
# 5 0.0000 0.0000 0.0000 0.0000 35.7075 0.0000
# 6 0.0000 0.0000 0.0000 0.0000 0.0000 19.3677
#
#
#
# Elastic Compliance Matrix: (Units=1/GPa)
#
#
# Indices 1 2 3 4 5 6 
#
# 1 0.013716 -0.003825 -0.001934 0.000000 0.000000 0.000000
# 2 -0.003825 0.013716 -0.001934 0.000000 0.000000 0.000000
# 3 -0.001934 -0.001934 0.011553 0.000000 0.000000 0.000000
# 4 0.000000 0.000000 0.000000 0.028005 0.000000 0.000000
# 5 0.000000 0.000000 0.000000 0.000000 0.028005 0.000000
# 6 0.000000 0.000000 0.000000 0.000000 0.000000 0.051632
#
#
# Mechanical properties :
#
#
# Convention : Reuss Voigt Hill
#
# Bulk Modulus (GPa) = 42.37316 42.37966 42.37641
# Shear Modulus (GPa) = 29.43223 31.22341 30.32782
#
# Velocity S-wave (km/s) = 3.84938 3.96478 3.90750
# Velocity P-wave (km/s) = 6.41013 6.50349 6.45698
#
# Compressibility (1/GPa) = 0.02359984
#
# Stress axis : x y z
#
# Youngs Moduli (GPa) = 72.90554 72.90525 86.55624
#
# Poissons Ratio (x) = 0.27890 0.16738
# Poissons Ratio (y) = 0.27890 0.16738
# Poissons Ratio (z) = 0.14098 0.14099
#
# Static dielectric constant tensor:
#      x y z
#    x 1.776350 0.000000 0.000000 
#    y 0.000000 1.776360 0.000000 
#    z 0.000000 0.000000 1.814220 
# 
# From -- ./inp_files/3689.got.cif
#   From: 2010.05.17/outbox.cif.g08.bks.cpg/sg130_2_cif.got.tgz:3689.got - 2010.05.20 12:17:35.
