data_PCOD9565523
_publ_section_title
;
Structure prediction by ZEFSAII (Michael W. Deem and Ramdas Pophale) SiO2 
 PCOD9565523
Probable space group: P 4/N M M
;
_chemical_formula_sum "Si O2"
_cell_formula_units_Z 128
_cell_length_a 24.000000
_cell_length_b 24.000000
_cell_length_c 12.000000
_cell_angle_alpha 90.000000
_cell_angle_beta 90.000000
_cell_angle_gamma 90.000000
_cell_volume 6912.000000
_symmetry_space_group_name_H-M "P 4/N M M"
_symmetry_group_IT_number 129
_symmetry_cell_setting 'tetragonal'
loop_
_space_group_symop_operation_xyz
x,y,z
1/2-y,x,z
1/2-x,1/2-y,z
y,1/2-x,z
1/2+x,-y,-z
-x,1/2+y,-z
1/2+y,1/2+x,-z
-y,-x,-z
-x,-y,-z
1/2+y,-x,-z
1/2+x,1/2+y,-z
-y,1/2+x,-z
1/2-x,y,z
x,1/2-y,z
1/2-y,1/2-x,z
y,x,z
loop_
_atom_site_type_symbol
_atom_site_label
_atom_site_fract_x
_atom_site_fract_y
_atom_site_fract_z
Si Si1 0.521129 0.611155 0.672353
Si Si2 0.122992 0.571373 0.147706
Si Si3 0.185329 0.013629 0.983481
Si Si4 0.896536 0.021759 0.440130
Si Si5 0.122985 0.811489 0.411735
Si Si6 0.312322 0.817142 0.826921
Si Si7 0.004175 0.093667 0.815717
Si Si8 0.099413 0.313499 0.175571
O O1 0.549137 0.549137 0.689017
O O2 0.460944 0.623454 0.731097
O O3 0.517648 0.623367 0.540783
O O4 0.562290 0.651655 0.738094
O O5 0.153889 0.630738 0.131520
O O6 0.056984 0.579298 0.137274
O O7 0.152417 0.530275 0.061097
O O8 0.250000 0.997621 0.971903
O O9 0.153925 0.017860 0.866553
O O10 0.181914 0.070172 0.054928
O O11 0.950016 0.049985 0.500000
O O12 0.853252 0.071391 0.415777
O O13 0.907383 0.996865 0.318750
O O14 0.167504 0.832497 0.500000
O O15 0.102648 0.750000 0.439403
O O16 0.154752 0.809942 0.294742
O O17 0.250000 0.827806 0.879364
O O18 0.318734 0.750000 0.822703
O O19 0.048855 0.048855 0.856547
O O20 0.099299 0.250000 0.209288
O O21 0.159568 0.340433 0.171578
#
# Coordination Sequence:
#
# PCOD9565523 Si02
#       8
#    16  16  16  16  16  16  16  16
#     4  10  20  34  55  82 117 153 187 234 290 351
#     4  11  20  37  58  83 111 146 194 240 292 346
#     4  10  23  40  59  82 113 152 190 234 290 352
#     4  11  21  36  54  81 116 154 193 238 294 352
#     4  10  19  31  47  72 105 145 192 240 285 333
#     4  10  20  34  53  77 107 144 189 239 285 331
#     4  12  24  37  59  88 119 153 194 244 298 354
#     4   9  19  37  60  87 117 148 186 234 289 351
#
# _framework density 18.518519000000001
#
# number of rings (size 3 to 8) (size 9 to 14) (size 15 to 20)
#    0.000    1.625    2.500    3.000    0.000    5.250 
#    0.000    0.000    0.000    0.000    0.000    1.750 
#    0.000    0.000    0.000    4.125    0.000    0.000 
#
# Total GULP energy -713735.068983 kJ/mol
# GULP energy per Si atom -5576.055226 kJ/mol
# Density = 1.847637 g / cm^3
# Si number density = 18.518519 Si / 1000 Ang^3
#
#
#
# Elastic Constant Matrix: (Units=GPa)
#
#
# Indices 1 2 3 4 5 6 
#
# 1 71.7835 60.1092 33.5510 0.0000 0.0000 0.0000
# 2 60.1092 71.7869 33.5491 0.0000 0.0000 0.0000
# 3 33.5510 33.5491 78.8176 0.0000 0.0000 0.0000
# 4 0.0000 0.0000 0.0000 58.7221 0.0000 0.0000
# 5 0.0000 0.0000 0.0000 0.0000 58.7997 0.0000
# 6 0.0000 0.0000 0.0000 0.0000 0.0000 25.1875
#
#
#
# Elastic Compliance Matrix: (Units=1/GPa)
#
#
# Indices 1 2 3 4 5 6 
#
# 1 0.047664 -0.037984 -0.004121 0.000000 0.000000 0.000000
# 2 -0.037984 0.047660 -0.004117 0.000000 0.000000 0.000000
# 3 -0.004121 -0.004117 0.016195 0.000000 0.000000 0.000000
# 4 0.000000 0.000000 0.000000 0.017029 0.000000 0.000000
# 5 0.000000 0.000000 0.000000 0.000000 0.017007 0.000000
# 6 0.000000 0.000000 0.000000 0.000000 0.000000 0.039702
#
#
# Mechanical properties :
#
#
# Convention : Reuss Voigt Hill
#
# Bulk Modulus (GPa) = 52.43302 52.97852 52.70577
# Shear Modulus (GPa) = 17.60191 34.88710 26.24450
#
# Velocity S-wave (km/s) = 3.08637 4.34510 3.76866
# Velocity P-wave (km/s) = 6.40907 7.33783 6.88912
#
# Compressibility (1/GPa) = 0.01907195
#
# Stress axis : x y z
#
# Youngs Moduli (GPa) = 20.98025 20.98206 61.74933
#
# Poissons Ratio (x) = 0.79699 0.25449
# Poissons Ratio (y) = 0.79692 0.25425
# Poissons Ratio (z) = 0.08647 0.08639
#
# Static dielectric constant tensor:
#      x y z
#    x 1.805300 0.000000 0.000000 
#    y 0.000000 1.805120 0.000000 
#    z 0.000000 0.000000 1.667060 
# 
# From -- ./inp_files/4239.got.cif
#   From: 2010.05.17/outbox.ucp.g08.bks.cvg/sg129_3_cif.got.tgz:4239.got - 2010.06.11 11:38:03.
