data_PCOD9565674
_publ_section_title
;
Structure prediction by ZEFSAII (Michael W. Deem and Ramdas Pophale) SiO2 
 PCOD9565674
Probable space group: P 4/N C C
;
_chemical_formula_sum "Si O2"
_cell_formula_units_Z 72
_cell_length_a 15.131890
_cell_length_b 15.131890
_cell_length_c 16.233814
_cell_angle_alpha 90.000000
_cell_angle_beta 90.000000
_cell_angle_gamma 90.000000
_cell_volume 3717.122869
_symmetry_space_group_name_H-M "P 4/N C C"
_symmetry_group_IT_number 130
_symmetry_cell_setting 'tetragonal'
loop_
_space_group_symop_operation_xyz
x,y,z
1/2-y,x,z
1/2-x,1/2-y,z
y,1/2-x,z
1/2+x,-y,1/2-z
-x,1/2+y,1/2-z
1/2+y,1/2+x,1/2-z
-y,-x,1/2-z
-x,-y,-z
1/2+y,-x,-z
1/2+x,1/2+y,-z
-y,1/2+x,-z
1/2-x,y,1/2+z
x,1/2-y,1/2+z
1/2-y,1/2-x,1/2+z
y,x,1/2+z
loop_
_atom_site_type_symbol
_atom_site_label
_atom_site_fract_x
_atom_site_fract_y
_atom_site_fract_z
Si Si1 0.200044 0.030913 0.646491
Si Si2 0.938440 0.438440 0.750000
Si Si3 0.582438 0.968667 0.110833
Si Si4 0.230407 0.105715 0.313978
Si Si5 0.963019 0.625242 0.943710
O O1 0.255396 0.076121 0.720344
O O2 0.122865 0.092171 0.608473
O O3 0.273361 0.015617 0.576562
O O4 0.146772 0.950948 0.691204
O O5 0.943368 0.523784 0.690785
O O6 0.686207 0.971941 0.133577
O O7 0.544297 0.063091 0.082815
O O8 0.559991 0.901326 0.036909
O O9 0.320335 0.156171 0.331521
#
# Coordination Sequence:
#
# PCOD9565674 Si02
#       5
#    16   8  16  16  16
#     4  11  20  37  58  89 120 162 198 258 307 368
#     4  10  20  38  62  83 120 161 210 238 302 380
#     4  10  21  40  56  87 121 170 202 243 318 380
#     4  11  20  33  58  87 118 155 196 250 301 368
#     4  10  23  36  58  87 127 158 205 260 313 368
#
# _framework density 19.369820000000001
#
# number of rings (size 3 to 8) (size 9 to 14) (size 15 to 20)
#    0.000    1.556    4.444    1.333    3.111    0.444 
#    0.000    0.000    0.000    2.667    0.000    0.000 
#    0.000    0.000    0.000    0.000    0.000    0.000 
#
# Total GULP energy -400910.840722 kJ/mol
# GULP energy per Si atom -5568.206121 kJ/mol
# Density = 1.932573 g / cm^3
# Si number density = 19.369820 Si / 1000 Ang^3
#
#
#
# Elastic Constant Matrix: (Units=GPa)
#
#
# Indices 1 2 3 4 5 6 
#
# 1 73.1395 44.1231 32.2691 0.0000 0.0000 0.0000
# 2 44.1231 73.1395 32.2691 0.0000 0.0000 0.0000
# 3 32.2691 32.2691 87.0141 0.0000 0.0000 0.0000
# 4 0.0000 0.0000 0.0000 32.6921 0.0000 0.0000
# 5 0.0000 0.0000 0.0000 0.0000 32.6921 0.0000
# 6 0.0000 0.0000 0.0000 0.0000 0.0000 28.7808
#
#
#
# Elastic Compliance Matrix: (Units=1/GPa)
#
#
# Indices 1 2 3 4 5 6 
#
# 1 0.022589 -0.011874 -0.003974 0.000000 0.000000 0.000000
# 2 -0.011874 0.022589 -0.003974 0.000000 0.000000 0.000000
# 3 -0.003974 -0.003974 0.014440 0.000000 0.000000 0.000000
# 4 0.000000 0.000000 0.000000 0.030588 0.000000 0.000000
# 5 0.000000 0.000000 0.000000 0.000000 0.030588 0.000000
# 6 0.000000 0.000000 0.000000 0.000000 0.000000 0.034745
#
#
# Mechanical properties :
#
#
# Convention : Reuss Voigt Hill
#
# Bulk Modulus (GPa) = 50.06282 50.06841 50.06562
# Shear Modulus (GPa) = 24.77197 27.14178 25.95688
#
# Velocity S-wave (km/s) = 3.58004 3.74738 3.66467
# Velocity P-wave (km/s) = 6.55674 6.68046 6.61889
#
# Compressibility (1/GPa) = 0.01997490
#
# Stress axis : x y z
#
# Youngs Moduli (GPa) = 44.26921 44.26921 69.25401
#
# Poissons Ratio (x) = 0.52566 0.27519
# Poissons Ratio (y) = 0.52566 0.27519
# Poissons Ratio (z) = 0.17591 0.17591
#
# Static dielectric constant tensor:
#      x y z
#    x 1.706590 0.000000 0.000000 
#    y 0.000000 1.706590 0.000000 
#    z 0.000000 0.000000 1.700590 
# 
# From -- ./inp_files/2902.got.cif
#   From: 2010.05.17/outbox.cif.g08.bks.cpg/sg130_2_cif.got.tgz:2902.got - 2010.05.20 12:17:35.
