data_PCOD9565446
_publ_section_title
;
Structure prediction by ZEFSAII (Michael W. Deem and Ramdas Pophale) SiO2 
 PCOD9565446
Probable space group: P 4/N M M
;
_chemical_formula_sum "Si O2"
_cell_formula_units_Z 128
_cell_length_a 25.363262
_cell_length_b 25.363262
_cell_length_c 8.822668
_cell_angle_alpha 90.000000
_cell_angle_beta 90.000000
_cell_angle_gamma 90.000000
_cell_volume 5675.578734
_symmetry_space_group_name_H-M "P 4/N M M"
_symmetry_group_IT_number 129
_symmetry_cell_setting 'tetragonal'
loop_
_space_group_symop_operation_xyz
x,y,z
1/2-y,x,z
1/2-x,1/2-y,z
y,1/2-x,z
1/2+x,-y,-z
-x,1/2+y,-z
1/2+y,1/2+x,-z
-y,-x,-z
-x,-y,-z
1/2+y,-x,-z
1/2+x,1/2+y,-z
-y,1/2+x,-z
1/2-x,y,z
x,1/2-y,z
1/2-y,1/2-x,z
y,x,z
loop_
_atom_site_type_symbol
_atom_site_label
_atom_site_fract_x
_atom_site_fract_y
_atom_site_fract_z
Si Si1 0.997747 0.846594 0.866695
Si Si2 0.609442 0.190496 0.081262
Si Si3 0.106660 0.307689 0.283077
Si Si4 0.106492 0.809093 0.551284
Si Si5 0.394222 0.308102 0.650717
Si Si6 0.493662 0.922499 0.601719
Si Si7 0.577838 0.494542 0.105299
Si Si8 0.653552 0.004833 0.364415
O O1 0.046840 0.817914 0.946244
O O2 0.022013 0.885804 0.739349
O O3 0.952181 0.814567 0.784082
O O4 0.973582 0.884538 0.992671
O O5 0.624976 0.250000 0.033250
O O6 0.609315 0.189220 0.265435
O O7 0.646732 0.146732 0.000000
O O8 0.126786 0.250000 0.235882
O O9 0.144477 0.355524 0.235466
O O10 0.105262 0.307700 0.466259
O O11 0.146133 0.853868 0.500000
O O12 0.122967 0.750000 0.506324
O O13 0.050234 0.819073 0.465681
O O14 0.375049 0.250000 0.699503
O O15 0.355672 0.355672 0.699765
O O16 0.455756 0.313717 0.698162
O O17 0.384271 0.971807 0.765685
O O18 0.523378 0.886111 0.482262
O O19 0.532404 0.967597 0.657467
O O20 0.534215 0.534215 0.170147
O O21 0.547903 0.452098 0.000000
O O22 0.551817 0.051817 0.500000
#
# Coordination Sequence:
#
# PCOD9565446 Si02
#       8
#    16  16  16  16  16  16  16  16
#     4  12  22  39  64  93 134 174 224 282 346 406
#     4  11  26  47  73 103 137 177 227 286 351 425
#     4  10  20  36  61  93 131 178 230 284 345 409
#     4  11  26  47  72 104 138 176 228 290 352 416
#     4  10  20  36  61  94 133 178 229 285 342 406
#     4  11  21  33  58  93 129 176 227 272 330 407
#     4  11  25  40  59  95 142 187 229 280 342 411
#     4  12  22  40  67  96 135 178 231 283 347 413
#
# _framework density 22.552765999999998
#
# number of rings (size 3 to 8) (size 9 to 14) (size 15 to 20)
#    0.000    1.000    2.500    4.500    3.500    5.000 
#    0.000    4.375    0.000    0.000    0.000    0.000 
#    0.000    3.000    0.000    0.000    0.000    0.000 
#
# Total GULP energy -714386.471845 kJ/mol
# GULP energy per Si atom -5581.144311 kJ/mol
# Density = 2.250143 g / cm^3
# Si number density = 22.552766 Si / 1000 Ang^3
#
#
#
# Elastic Constant Matrix: (Units=GPa)
#
#
# Indices 1 2 3 4 5 6 
#
# 1 123.3850 59.5120 12.6980 0.0000 0.0000 0.0000
# 2 59.5120 123.3805 12.6940 0.0000 0.0000 0.0000
# 3 12.6980 12.6940 40.1306 0.0000 0.0000 0.0000
# 4 0.0000 0.0000 0.0000 25.5490 0.0000 0.0000
# 5 0.0000 0.0000 0.0000 0.0000 25.5488 0.0000
# 6 0.0000 0.0000 0.0000 0.0000 0.0000 16.0063
#
#
#
# Elastic Compliance Matrix: (Units=1/GPa)
#
#
# Indices 1 2 3 4 5 6 
#
# 1 0.010688 -0.004969 -0.001810 0.000000 0.000000 0.000000
# 2 -0.004969 0.010688 -0.001808 0.000000 0.000000 0.000000
# 3 -0.001810 -0.001808 0.026063 0.000000 0.000000 0.000000
# 4 0.000000 0.000000 0.000000 0.039141 0.000000 0.000000
# 5 0.000000 0.000000 0.000000 0.000000 0.039141 0.000000
# 6 0.000000 0.000000 0.000000 0.000000 0.000000 0.062475
#
#
# Mechanical properties :
#
#
# Convention : Reuss Voigt Hill
#
# Bulk Modulus (GPa) = 33.04253 50.74491 41.89372
# Shear Modulus (GPa) = 23.20635 26.88695 25.04665
#
# Velocity S-wave (km/s) = 3.21125 3.45654 3.33615
# Velocity P-wave (km/s) = 5.33222 6.20319 5.78412
#
# Compressibility (1/GPa) = 0.03026403
#
# Stress axis : x y z
#
# Youngs Moduli (GPa) = 93.56619 93.56463 38.36799
#
# Poissons Ratio (x) = 0.46491 0.06945
# Poissons Ratio (y) = 0.46492 0.06939
# Poissons Ratio (z) = 0.16935 0.16921
#
# Static dielectric constant tensor:
#      x y z
#    x 1.865900 0.000000 0.000000 
#    y 0.000000 1.865900 0.000000 
#    z 0.000000 0.000000 1.878650 
# 
# From -- ./inp_files/4176.got.cif
#   From: 2010.05.17/outbox.cif.g08.bks.cpg/sg129_3_cif.got.tgz:4176.got - 2010.05.20 12:12:06.
