data_PCOD9565408
_publ_section_title
;
Structure prediction by ZEFSAII (Michael W. Deem and Ramdas Pophale) SiO2 
 PCOD9565408
Probable space group: P 4/N M M
;
_chemical_formula_sum "Si O2"
_cell_formula_units_Z 80
_cell_length_a 19.431742
_cell_length_b 19.431742
_cell_length_c 12.211476
_cell_angle_alpha 90.000000
_cell_angle_beta 90.000000
_cell_angle_gamma 90.000000
_cell_volume 4610.962938
_symmetry_space_group_name_H-M "P 4/N M M"
_symmetry_group_IT_number 129
_symmetry_cell_setting 'tetragonal'
loop_
_space_group_symop_operation_xyz
x,y,z
1/2-y,x,z
1/2-x,1/2-y,z
y,1/2-x,z
1/2+x,-y,-z
-x,1/2+y,-z
1/2+y,1/2+x,-z
-y,-x,-z
-x,-y,-z
1/2+y,-x,-z
1/2+x,1/2+y,-z
-y,1/2+x,-z
1/2-x,y,z
x,1/2-y,z
1/2-y,1/2-x,z
y,x,z
loop_
_atom_site_type_symbol
_atom_site_label
_atom_site_fract_x
_atom_site_fract_y
_atom_site_fract_z
Si Si1 0.994262 0.172112 0.832353
Si Si2 0.919850 0.464522 0.769231
Si Si3 0.827053 0.938459 0.401444
Si Si4 0.830193 0.070569 0.556333
Si Si5 0.059398 0.329839 0.071883
O O1 0.963867 0.250000 0.828985
O O2 0.043824 0.167100 0.727004
O O3 0.942410 0.108706 0.819112
O O4 0.034453 0.165185 0.946193
O O5 0.987586 0.512415 0.749745
O O6 0.877407 0.450403 0.658893
O O7 0.871630 0.506051 0.852988
O O8 0.750000 0.912038 0.422589
O O9 0.884440 0.884440 0.434426
O O10 0.835139 0.009168 0.467804
O O11 0.861900 0.138101 0.500000
O O12 0.750000 0.078622 0.586510
O O13 0.061876 0.250000 0.102968
O O14 0.132208 0.367792 0.083033
#
# Coordination Sequence:
#
# PCOD9565408 Si02
#       5
#    16  16  16  16  16
#     4  10  20  34  54  82 114 143 180 225 271 325
#     4  11  21  35  59  83 109 144 186 231 277 322
#     4  10  20  34  53  79 109 141 179 222 269 326
#     4  11  23  37  55  79 106 140 183 227 276 331
#     4  10  21  36  55  82 113 146 185 228 272 324
#
# _framework density 17.349955000000001
#
# number of rings (size 3 to 8) (size 9 to 14) (size 15 to 20)
#    0.000    1.600    2.000    3.600    0.000    3.000 
#    0.000    0.000    0.000    5.400    0.000    8.400 
#    0.000    0.000    0.000    0.000    0.000    0.000 
#
# Total GULP energy -446536.318463 kJ/mol
# GULP energy per Si atom -5581.703981 kJ/mol
# Density = 1.731047 g / cm^3
# Si number density = 17.349955 Si / 1000 Ang^3
#
#
#
# Elastic Constant Matrix: (Units=GPa)
#
#
# Indices 1 2 3 4 5 6 
#
# 1 116.7685 77.2533 24.0593 0.0000 0.0000 0.0000
# 2 77.2533 116.7653 24.0581 0.0000 0.0000 0.0000
# 3 24.0593 24.0581 35.8952 0.0000 0.0000 0.0000
# 4 0.0000 0.0000 0.0000 23.4601 0.0000 0.0000
# 5 0.0000 0.0000 0.0000 0.0000 23.4604 0.0000
# 6 0.0000 0.0000 0.0000 0.0000 0.0000 12.4069
#
#
#
# Elastic Compliance Matrix: (Units=1/GPa)
#
#
# Indices 1 2 3 4 5 6 
#
# 1 0.015745 -0.009563 -0.004144 0.000000 0.000000 0.000000
# 2 -0.009563 0.015745 -0.004143 0.000000 0.000000 0.000000
# 3 -0.004144 -0.004143 0.033413 0.000000 0.000000 0.000000
# 4 0.000000 0.000000 0.000000 0.042626 0.000000 0.000000
# 5 0.000000 0.000000 0.000000 0.000000 0.042625 0.000000
# 6 0.000000 0.000000 0.000000 0.000000 0.000000 0.080600
#
#
# Mechanical properties :
#
#
# Convention : Reuss Voigt Hill
#
# Bulk Modulus (GPa) = 34.24283 57.79672 46.01978
# Shear Modulus (GPa) = 18.10372 21.46937 19.78655
#
# Velocity S-wave (km/s) = 3.23374 3.52153 3.38070
# Velocity P-wave (km/s) = 5.80708 7.06538 6.46691
#
# Compressibility (1/GPa) = 0.02920320
#
# Stress axis : x y z
#
# Youngs Moduli (GPa) = 63.51394 63.51293 29.92860
#
# Poissons Ratio (x) = 0.60738 0.12401
# Poissons Ratio (y) = 0.60739 0.12399
# Poissons Ratio (z) = 0.26317 0.26313
#
# Static dielectric constant tensor:
#      x y z
#    x 1.579180 0.000000 0.000000 
#    y 0.000000 1.579190 0.000000 
#    z 0.000000 0.000000 1.578080 
# 
# From -- ./inp_files/4601.got.cif
#   From: 2010.05.17/outbox.cif.g08.bks.cpg/sg129_3_cif.got.tgz:4601.got - 2010.05.20 12:12:06.
