data_PCOD9565202
_publ_section_title
;
Structure prediction by ZEFSAII (Michael W. Deem and Ramdas Pophale) SiO2 
 PCOD9565202
Probable space group: P 4/N M M
;
_chemical_formula_sum "Si O2"
_cell_formula_units_Z 72
_cell_length_a 14.486227
_cell_length_b 14.486227
_cell_length_c 23.010312
_cell_angle_alpha 90.000000
_cell_angle_beta 90.000000
_cell_angle_gamma 90.000000
_cell_volume 4828.731753
_symmetry_space_group_name_H-M "P 4/N M M"
_symmetry_group_IT_number 129
_symmetry_cell_setting 'tetragonal'
loop_
_space_group_symop_operation_xyz
x,y,z
1/2-y,x,z
1/2-x,1/2-y,z
y,1/2-x,z
1/2+x,-y,-z
-x,1/2+y,-z
1/2+y,1/2+x,-z
-y,-x,-z
-x,-y,-z
1/2+y,-x,-z
1/2+x,1/2+y,-z
-y,1/2+x,-z
1/2-x,y,z
x,1/2-y,z
1/2-y,1/2-x,z
y,x,z
loop_
_atom_site_type_symbol
_atom_site_label
_atom_site_fract_x
_atom_site_fract_y
_atom_site_fract_z
Si Si1 0.990953 0.143024 0.173961
Si Si2 0.640684 0.487109 0.961453
Si Si3 0.143314 0.640289 0.280832
Si Si4 0.357585 0.857585 0.500000
Si Si5 0.640354 0.012707 0.389019
O O1 0.017614 0.250000 0.180541
O O2 0.076693 0.076693 0.184704
O O3 0.961641 0.130898 0.106819
O O4 0.912575 0.122701 0.221185
O O5 0.750000 0.497050 0.973978
O O6 0.581968 0.581968 0.970015
O O7 0.590592 0.409409 0.000000
O O8 0.250000 0.619803 0.297305
O O9 0.136987 0.750000 0.271734
O O10 0.074120 0.615645 0.332640
O O11 0.368681 0.750000 0.517653
O O12 0.424623 0.875536 0.446049
O O13 0.750000 0.992253 0.386375
O O14 0.577791 0.922210 0.391007
#
# Coordination Sequence:
#
# PCOD9565202 Si02
#       5
#    16  16  16   8  16
#     4   9  17  29  45  65  89 115 142 174 213 258
#     4   9  18  31  46  66  91 118 149 184 222 265
#     4   9  17  29  45  65  87 111 142 179 216 251
#     4   9  17  30  48  68  87 107 136 176 218 255
#     4  10  19  30  45  64  87 115 144 174 209 250
#
# _framework density 14.910747000000001
#
# number of rings (size 3 to 8) (size 9 to 14) (size 15 to 20)
#    0.000    2.778    0.000    1.667    0.000    4.444 
#    0.000    4.444    0.000    0.000    0.000    0.000 
#    0.000   21.333    0.000    0.000    0.000    0.000 
#
# Total GULP energy -401021.847322 kJ/mol
# GULP energy per Si atom -5569.747879 kJ/mol
# Density = 1.487681 g / cm^3
# Si number density = 14.910747 Si / 1000 Ang^3
#
#
#
# Elastic Constant Matrix: (Units=GPa)
#
#
# Indices 1 2 3 4 5 6 
#
# 1 85.1872 63.9803 65.8431 0.0000 0.0000 0.0000
# 2 63.9803 85.1879 65.8433 0.0000 0.0000 0.0000
# 3 65.8431 65.8433 89.9583 0.0000 0.0000 0.0000
# 4 0.0000 0.0000 0.0000 22.8214 0.0000 0.0000
# 5 0.0000 0.0000 0.0000 0.0000 22.8215 0.0000
# 6 0.0000 0.0000 0.0000 0.0000 0.0000 25.8807
#
#
#
# Elastic Compliance Matrix: (Units=1/GPa)
#
#
# Indices 1 2 3 4 5 6 
#
# 1 0.033050 -0.014104 -0.013867 0.000000 0.000000 0.000000
# 2 -0.014104 0.033049 -0.013867 0.000000 0.000000 0.000000
# 3 -0.013867 -0.013867 0.031415 0.000000 0.000000 0.000000
# 4 0.000000 0.000000 0.000000 0.043818 0.000000 0.000000
# 5 0.000000 0.000000 0.000000 0.000000 0.043818 0.000000
# 6 0.000000 0.000000 0.000000 0.000000 0.000000 0.038639
#
#
# Mechanical properties :
#
#
# Convention : Reuss Voigt Hill
#
# Bulk Modulus (GPa) = 72.25861 72.40743 72.33302
# Shear Modulus (GPa) = 16.02158 18.61585 17.31872
#
# Velocity S-wave (km/s) = 3.28151 3.53722 3.41176
# Velocity P-wave (km/s) = 7.93245 8.08385 8.00851
#
# Compressibility (1/GPa) = 0.01383918
#
# Stress axis : x y z
#
# Youngs Moduli (GPa) = 30.25729 30.25771 31.83143
#
# Poissons Ratio (x) = 0.42675 0.44141
# Poissons Ratio (y) = 0.42675 0.44140
# Poissons Ratio (z) = 0.41958 0.41958
#
# Static dielectric constant tensor:
#      x y z
#    x 1.476240 0.000000 0.000000 
#    y 0.000000 1.476240 0.000000 
#    z 0.000000 0.000000 1.488610 
# 
# From -- ./inp_files/5494.got.cif
#   From: 2010.05.17/outbox.cif.g08.bks.cpg/sg129_3_cif.got.tgz:5494.got - 2010.05.20 12:12:06.
