data_PCOD9565791
_publ_section_title
;
Structure prediction by ZEFSAII (Michael W. Deem and Ramdas Pophale) SiO2 
 PCOD9565791
Probable space group: P 4/N C C
;
_chemical_formula_sum "Si O2"
_cell_formula_units_Z 80
_cell_length_a 11.004146
_cell_length_b 11.004146
_cell_length_c 27.618341
_cell_angle_alpha 90.000000
_cell_angle_beta 90.000000
_cell_angle_gamma 90.000000
_cell_volume 3344.338860
_symmetry_space_group_name_H-M "P 4/N C C"
_symmetry_group_IT_number 130
_symmetry_cell_setting 'tetragonal'
loop_
_space_group_symop_operation_xyz
x,y,z
1/2-y,x,z
1/2-x,1/2-y,z
y,1/2-x,z
1/2+x,-y,1/2-z
-x,1/2+y,1/2-z
1/2+y,1/2+x,1/2-z
-y,-x,1/2-z
-x,-y,-z
1/2+y,-x,-z
1/2+x,1/2+y,-z
-y,1/2+x,-z
1/2-x,y,1/2+z
x,1/2-y,1/2+z
1/2-y,1/2-x,1/2+z
y,x,1/2+z
loop_
_atom_site_type_symbol
_atom_site_label
_atom_site_fract_x
_atom_site_fract_y
_atom_site_fract_z
Si Si1 0.996678 0.493523 0.083360
Si Si2 0.307556 0.947179 0.351595
Si Si3 0.223011 0.049944 0.248429
Si Si4 0.163185 0.063380 0.501754
Si Si5 0.301985 0.927847 0.651466
O O1 0.964209 0.615521 0.114425
O O2 0.888321 0.488219 0.043716
O O3 0.019616 0.375541 0.117486
O O4 0.116690 0.505128 0.049833
O O5 0.409152 0.841527 0.348670
O O6 0.191805 0.870583 0.367708
O O7 0.253671 0.003214 0.302340
O O8 0.349500 0.119849 0.239870
O O9 0.184321 0.950942 0.208862
O O10 0.305519 0.093633 0.501029
#
# Coordination Sequence:
#
# PCOD9565791 Si02
#       5
#    16  16  16  16  16
#     4  11  22  40  65  94 132 178 229 287 352 424
#     4  11  23  39  61  90 126 171 224 280 344 415
#     4  11  24  41  62  90 126 169 220 283 348 418
#     4  10  22  40  64  96 134 174 224 287 352 420
#     4  11  23  39  61  90 126 171 224 280 344 415
#
# _framework density 23.921019999999999
#
# number of rings (size 3 to 8) (size 9 to 14) (size 15 to 20)
#    0.000    1.200    0.000    6.000    0.000    3.200 
#    0.000    4.000    0.000    9.600    0.000    0.000 
#    0.000    0.000    0.000    0.000    0.000    0.000 
#
# Total GULP energy -445447.804780 kJ/mol
# GULP energy per Si atom -5568.097560 kJ/mol
# Density = 2.386657 g / cm^3
# Si number density = 23.921020 Si / 1000 Ang^3
#
#
#
# Elastic Constant Matrix: (Units=GPa)
#
#
# Indices 1 2 3 4 5 6 
#
# 1 65.2491 -7.1911 26.3113 0.0000 0.0000 0.0000
# 2 -7.1911 65.2491 26.3113 0.0000 0.0000 0.0000
# 3 26.3113 26.3113 155.0408 0.0000 0.0000 0.0000
# 4 0.0000 0.0000 0.0000 31.6464 0.0000 0.0000
# 5 0.0000 0.0000 0.0000 0.0000 31.6464 0.0000
# 6 0.0000 0.0000 0.0000 0.0000 0.0000 571.2491
#
#
#
# Elastic Compliance Matrix: (Units=1/GPa)
#
#
# Indices 1 2 3 4 5 6 
#
# 1 0.017080 0.003275 -0.003454 0.000000 0.000000 0.000000
# 2 0.003275 0.017080 -0.003454 0.000000 0.000000 0.000000
# 3 -0.003454 -0.003454 0.007622 0.000000 0.000000 0.000000
# 4 0.000000 0.000000 0.000000 0.031599 0.000000 0.000000
# 5 0.000000 0.000000 0.000000 0.000000 0.031599 0.000000
# 6 0.000000 0.000000 0.000000 0.000000 0.000000 0.001751
#
#
# Mechanical properties :
#
#
# Convention : Reuss Voigt Hill
#
# Bulk Modulus (GPa) = 28.97284 41.82248 35.39766
# Shear Modulus (GPa) = 39.83977 142.91556 91.37766
#
# Velocity S-wave (km/s) = 4.08545 7.73786 6.18730
# Velocity P-wave (km/s) = 5.86453 9.86682 8.11624
#
# Compressibility (1/GPa) = 0.03451508
#
# Stress axis : x y z
#
# Youngs Moduli (GPa) = 58.54868 58.54868 131.19277
#
# Poissons Ratio (x) = -0.19177 0.45319
# Poissons Ratio (y) = -0.19177 0.45319
# Poissons Ratio (z) = 0.20225 0.20225
#
# Static dielectric constant tensor:
#      x y z
#    x 2.154270 0.000000 0.000000 
#    y 0.000000 2.154270 0.000000 
#    z 0.000000 0.000000 1.998320 
# 
# From -- ./inp_files/4762.got.cif
#   From: 2010.05.17/outbox.cif.g08.bks.cpg/sg130_3_cif.got.tgz:4762.got - 2010.05.20 12:17:35.
