data_PCOD9565440
_publ_section_title
;
Structure prediction by ZEFSAII (Michael W. Deem and Ramdas Pophale) SiO2 
 PCOD9565440
Probable space group: P 4/N M M
;
_chemical_formula_sum "Si O2"
_cell_formula_units_Z 84
_cell_length_a 13.289578
_cell_length_b 13.289578
_cell_length_c 28.257404
_cell_angle_alpha 90.000000
_cell_angle_beta 90.000000
_cell_angle_gamma 90.000000
_cell_volume 4990.621598
_symmetry_space_group_name_H-M "P 4/N M M"
_symmetry_group_IT_number 129
_symmetry_cell_setting 'tetragonal'
loop_
_space_group_symop_operation_xyz
x,y,z
1/2-y,x,z
1/2-x,1/2-y,z
y,1/2-x,z
1/2+x,-y,-z
-x,1/2+y,-z
1/2+y,1/2+x,-z
-y,-x,-z
-x,-y,-z
1/2+y,-x,-z
1/2+x,1/2+y,-z
-y,1/2+x,-z
1/2-x,y,z
x,1/2-y,z
1/2-y,1/2-x,z
y,x,z
loop_
_atom_site_type_symbol
_atom_site_label
_atom_site_fract_x
_atom_site_fract_y
_atom_site_fract_z
Si Si1 0.131711 0.868103 0.073448
Si Si2 0.964393 0.131375 0.546310
Si Si3 0.035597 0.631487 0.638917
Si Si4 0.000000 0.000000 0.000000
Si Si5 0.535519 0.131498 0.731308
Si Si6 0.535822 0.367671 0.176394
O O1 0.250000 0.882217 0.061022
O O2 0.107832 0.750000 0.068099
O O3 0.119991 0.901441 0.128041
O O4 0.062263 0.936597 0.040950
O O5 0.903023 0.096978 0.500000
O O6 0.981330 0.250000 0.546132
O O7 0.903718 0.097527 0.592908
O O8 0.067901 0.067901 0.546199
O O9 0.018203 0.750000 0.638094
O O10 0.095906 0.599035 0.685831
O O11 0.932321 0.567679 0.638866
O O12 0.518391 0.250000 0.730098
O O13 0.594261 0.099305 0.778734
O O14 0.432309 0.067692 0.730385
O O15 0.511219 0.250000 0.181696
O O16 0.436419 0.436419 0.173749
#
# Coordination Sequence:
#
# PCOD9565440 Si02
#       6
#    16  16  16   4  16  16
#     4  10  21  37  58  82 108 141 179 219 264 313
#     4  10  21  36  54  78 108 143 184 227 272 324
#     4  10  21  36  54  80 111 142 181 226 270 321
#     4  12  20  34  56  82 108 138 176 222 258 310
#     4  10  21  36  56  82 110 141 179 224 270 320
#     4  10  20  36  57  83 111 142 178 218 264 317
#
# _framework density 16.831569999999999
#
# number of rings (size 3 to 8) (size 9 to 14) (size 15 to 20)
#    0.000    1.905    0.952    2.857    0.000    5.905 
#    0.000    0.000    0.000   14.857    0.000    0.000 
#    0.000    0.000    0.000    0.000    0.000    0.000 
#
# Total GULP energy -467964.991230 kJ/mol
# GULP energy per Si atom -5571.011800 kJ/mol
# Density = 1.679326 g / cm^3
# Si number density = 16.831570 Si / 1000 Ang^3
#
#
#
# Elastic Constant Matrix: (Units=GPa)
#
#
# Indices 1 2 3 4 5 6 
#
# 1 496.0644 -259.6767 77.0235 0.0000 0.0000 0.0000
# 2 -259.6767 495.9837 77.0102 0.0000 0.0000 0.0000
# 3 77.0235 77.0102 153.0786 0.0000 0.0000 0.0000
# 4 0.0000 0.0000 0.0000 -4.4705 0.0000 0.0000
# 5 0.0000 0.0000 0.0000 0.0000 -4.4718 0.0000
# 6 0.0000 0.0000 0.0000 0.0000 0.0000 13.6335
#
#
#
# Elastic Compliance Matrix: (Units=1/GPa)
#
#
# Indices 1 2 3 4 5 6 
#
# 1 0.003809 0.002486 -0.003167 0.000000 0.000000 0.000000
# 2 0.002486 0.003810 -0.003167 0.000000 0.000000 0.000000
# 3 -0.003167 -0.003167 0.009720 0.000000 0.000000 0.000000
# 4 0.000000 0.000000 0.000000 -0.223687 0.000000 0.000000
# 5 0.000000 0.000000 0.000000 0.000000 -0.223625 0.000000
# 6 0.000000 0.000000 0.000000 0.000000 0.000000 0.073349
#
#
# Mechanical properties :
#
#
# Convention : Reuss Voigt Hill
#
# Bulk Modulus (GPa) = 103.72304 103.76009 103.74156
# Shear Modulus (GPa) = -14.46278 84.32289 34.93005
#
# Velocity S-wave (km/s) = -2.93450 7.08568 4.56046
# Velocity P-wave (km/s) = 7.09057 11.34559 9.46040
#
# Compressibility (1/GPa) = 0.00964106
#
# Stress axis : x y z
#
# Youngs Moduli (GPa) = 262.53730 262.49865 102.88471
#
# Poissons Ratio (x) = -0.65257 0.32585
# Poissons Ratio (y) = -0.65266 0.32587
# Poissons Ratio (z) = 0.83150 0.83142
#
# Static dielectric constant tensor:
#      x y z
#    x 1.536420 0.000000 0.000000 
#    y 0.000000 1.536420 0.000000 
#    z 0.000000 0.000000 1.568550 
# 
# From -- ./inp_files/7738.got.cif
#   From: 2010.05.17/outbox.cif.g08.bks.cpg/sg129_4_cif.got.tgz:7738.got - 2010.05.20 12:12:06.
