data_PCOD9565064
_publ_section_title
;
Structure prediction by ZEFSAII (Michael W. Deem and Ramdas Pophale) SiO2 
 PCOD9565064
Probable space group: P 4/M N C
;
_chemical_formula_sum "Si O2"
_cell_formula_units_Z 64
_cell_length_a 10.619966
_cell_length_b 10.619966
_cell_length_c 22.345650
_cell_angle_alpha 90.000000
_cell_angle_beta 90.000000
_cell_angle_gamma 90.000000
_cell_volume 2520.224591
_symmetry_space_group_name_H-M "P 4/M N C"
_symmetry_group_IT_number 128
_symmetry_cell_setting 'tetragonal'
loop_
_space_group_symop_operation_xyz
x,y,z
-y,x,z
-x,-y,z
y,-x,z
1/2+x,1/2-y,1/2-z
1/2-x,1/2+y,1/2-z
1/2+y,1/2+x,1/2-z
1/2-y,1/2-x,1/2-z
-x,-y,-z
y,-x,-z
x,y,-z
-y,x,-z
1/2-x,1/2+y,1/2+z
1/2+x,1/2-y,1/2+z
1/2-y,1/2-x,1/2+z
1/2+y,1/2+x,1/2+z
loop_
_atom_site_type_symbol
_atom_site_label
_atom_site_fract_x
_atom_site_fract_y
_atom_site_fract_z
Si Si1 0.645799 0.854202 0.750000
Si Si2 0.888193 0.180909 0.500000
Si Si3 0.710766 0.532268 0.690000
Si Si4 0.181971 0.112968 0.634643
Si Si5 0.292326 0.450151 0.437958
O O1 0.503056 0.822047 0.733049
O O2 0.734059 0.838992 0.689942
O O3 0.856477 0.232478 0.566816
O O4 0.039209 0.165991 0.500000
O O5 0.599130 0.631345 0.696884
O O6 0.771708 0.559002 0.625423
O O7 0.039153 0.166112 0.639029
O O8 0.412589 0.357795 0.437982
O O9 0.220238 0.431852 0.500000
#
# Coordination Sequence:
#
# PCOD9565064 Si02
#       5
#     8   8  16  16  16
#     4  12  20  26  44  78 102 126 160 202 252 302
#     4   7  12  28  54  76  92 121 168 216 258 293
#     4   9  18  32  47  64  92 127 158 191 233 282
#     4   9  18  34  55  76 100 131 168 212 257 300
#     4   7  10  20  40  61  79 105 141 176 212 259
#
# _framework density 25.394563000000002
#
# number of rings (size 3 to 8) (size 9 to 14) (size 15 to 20)
#    0.000    3.375    0.000    5.250    0.000    2.000 
#    2.250    0.000    0.000   12.000    0.000    0.000 
#    0.000   24.000    0.000    0.000    0.000    0.000 
#
# Total GULP energy -356534.798901 kJ/mol
# GULP energy per Si atom -5570.856233 kJ/mol
# Density = 2.533676 g / cm^3
# Si number density = 25.394563 Si / 1000 Ang^3
#
#
#
# Elastic Constant Matrix: (Units=GPa)
#
#
# Indices 1 2 3 4 5 6 
#
# 1 44.4423 89.2414 57.1210 0.0000 0.0000 0.0000
# 2 89.2414 44.4427 57.1204 0.0000 0.0000 0.0000
# 3 57.1210 57.1204 193.0203 0.0000 0.0000 0.0000
# 4 0.0000 0.0000 0.0000 25.1930 0.0000 0.0000
# 5 0.0000 0.0000 0.0000 0.0000 25.1931 0.0000
# 6 0.0000 0.0000 0.0000 0.0000 0.0000 31.5993
#
#
#
# Elastic Compliance Matrix: (Units=1/GPa)
#
#
# Indices 1 2 3 4 5 6 
#
# 1 -0.006155 0.016167 -0.002963 0.000000 0.000000 0.000000
# 2 0.016167 -0.006155 -0.002963 0.000000 0.000000 0.000000
# 3 -0.002963 -0.002963 0.006934 0.000000 0.000000 0.000000
# 4 0.000000 0.000000 0.000000 0.039694 0.000000 0.000000
# 5 0.000000 0.000000 0.000000 0.000000 0.039693 0.000000
# 6 0.000000 0.000000 0.000000 0.000000 0.000000 0.031646
#
#
# Mechanical properties :
#
#
# Convention : Reuss Voigt Hill
#
# Bulk Modulus (GPa) = 66.19301 76.54122 71.36712
# Shear Modulus (GPa) = 55.42535 21.62525 38.52530
#
# Velocity S-wave (km/s) = 4.67686 2.92133 3.89918
# Velocity P-wave (km/s) = 7.43549 6.44865 6.95958
#
# Compressibility (1/GPa) = 0.01510733
#
# Stress axis : x y z
#
# Youngs Moduli (GPa) = -162.47254 -162.47682 144.20704
#
# Poissons Ratio (x) = 2.62679 0.42727
# Poissons Ratio (y) = 2.62672 0.42729
# Poissons Ratio (z) = -0.48139 -0.48142
#
# Static dielectric constant tensor:
#      x y z
#    x 2.024900 0.000000 0.000000 
#    y 0.000000 2.024890 0.000000 
#    z 0.000000 0.000000 2.171340 
# 
# From -- ./inp_files/6269.got.cif
#   From: 2010.05.17/outbox.cif.g08.bks.cpg/sg128_4_cif.got.tgz:6269.got - 2010.05.20 12:07:25.
