data_PCOD9565175
_publ_section_title
;
Structure prediction by ZEFSAII (Michael W. Deem and Ramdas Pophale) SiO2 
 PCOD9565175
Probable space group: P 4/N M M
;
_chemical_formula_sum "Si O2"
_cell_formula_units_Z 60
_cell_length_a 18.920762
_cell_length_b 18.920762
_cell_length_c 9.191132
_cell_angle_alpha 90.000000
_cell_angle_beta 90.000000
_cell_angle_gamma 90.000000
_cell_volume 3290.381457
_symmetry_space_group_name_H-M "P 4/N M M"
_symmetry_group_IT_number 129
_symmetry_cell_setting 'tetragonal'
loop_
_space_group_symop_operation_xyz
x,y,z
1/2-y,x,z
1/2-x,1/2-y,z
y,1/2-x,z
1/2+x,-y,-z
-x,1/2+y,-z
1/2+y,1/2+x,-z
-y,-x,-z
-x,-y,-z
1/2+y,-x,-z
1/2+x,1/2+y,-z
-y,1/2+x,-z
1/2-x,y,z
x,1/2-y,z
1/2-y,1/2-x,z
y,x,z
loop_
_atom_site_type_symbol
_atom_site_label
_atom_site_fract_x
_atom_site_fract_y
_atom_site_fract_z
Si Si1 0.250000 0.944945 0.817762
Si Si2 0.250000 0.750000 0.000000
Si Si3 0.502741 0.502741 0.232399
Si Si4 0.612438 0.109898 0.667933
Si Si5 0.250000 0.901020 0.150430
Si Si6 0.250000 0.250000 0.845137
Si Si7 0.089572 0.089572 0.009478
Si Si8 0.413731 0.250000 0.923329
O O1 0.180667 0.910778 0.751283
O O2 0.250000 0.028499 0.795791
O O3 0.250000 0.937085 0.992674
O O4 0.318307 0.750000 0.896515
O O5 0.450801 0.553818 0.319898
O O6 0.552831 0.552831 0.131721
O O7 0.451773 0.451773 0.136372
O O8 0.626837 0.126837 0.500000
O O9 0.681104 0.082848 0.754473
O O10 0.336325 0.250000 0.857254
O O11 0.078061 0.174665 0.007591
#
# Coordination Sequence:
#
# PCOD9565175 Si02
#       8
#     8   2   8  16   8   2   8   8
#     4  12  21  37  65  89 119 168 208 262 310 370
#     4  12  20  36  66  88 124 156 206 268 292 364
#     4  11  23  38  57  89 120 166 210 254 320 366
#     4  12  25  41  60  89 130 168 210 258 318 383
#     4  12  23  40  62  92 120 166 216 256 310 366
#     4   8  20  32  52  88 120 146 184 256 316 370
#     4  10  20  34  62  90 119 155 208 269 305 372
#     4  10  18  35  57  90 120 149 200 261 323 353
#
# _framework density 18.234967000000001
#
# number of rings (size 3 to 8) (size 9 to 14) (size 15 to 20)
#    0.000    0.800    5.333    2.800    3.733    0.000 
#    0.000    1.333    0.000    0.000    0.000    1.867 
#    0.000    2.133    0.000    0.000    0.000    0.000 
#
# Total GULP energy -334360.822454 kJ/mol
# GULP energy per Si atom -5572.680374 kJ/mol
# Density = 1.819346 g / cm^3
# Si number density = 18.234967 Si / 1000 Ang^3
#
#
#
# Elastic Constant Matrix: (Units=GPa)
#
#
# Indices 1 2 3 4 5 6 
#
# 1 144.7556 25.2513 35.8720 0.0000 0.0000 0.0000
# 2 25.2513 144.7556 35.8720 0.0000 0.0000 0.0000
# 3 35.8720 35.8720 115.4695 0.0000 0.0000 0.0000
# 4 0.0000 0.0000 0.0000 2.8257 0.0000 0.0000
# 5 0.0000 0.0000 0.0000 0.0000 2.8257 0.0000
# 6 0.0000 0.0000 0.0000 0.0000 0.0000 32.9916
#
#
#
# Elastic Compliance Matrix: (Units=1/GPa)
#
#
# Indices 1 2 3 4 5 6 
#
# 1 0.007569 -0.000799 -0.002103 0.000000 0.000000 0.000000
# 2 -0.000799 0.007569 -0.002103 0.000000 0.000000 0.000000
# 3 -0.002103 -0.002103 0.009967 0.000000 0.000000 0.000000
# 4 0.000000 0.000000 0.000000 0.353889 0.000000 0.000000
# 5 0.000000 0.000000 0.000000 0.000000 0.353889 0.000000
# 6 0.000000 0.000000 0.000000 0.000000 0.000000 0.030311
#
#
# Mechanical properties :
#
#
# Convention : Reuss Voigt Hill
#
# Bulk Modulus (GPa) = 66.25167 66.55238 66.40202
# Shear Modulus (GPa) = 6.42480 28.26097 17.34288
#
# Velocity S-wave (km/s) = 1.87909 3.94105 3.08730
# Velocity P-wave (km/s) = 6.41242 7.56872 7.01443
#
# Compressibility (1/GPa) = 0.01509396
#
# Stress axis : x y z
#
# Youngs Moduli (GPa) = 132.12199 132.12199 100.33130
#
# Poissons Ratio (x) = 0.10558 0.21100
# Poissons Ratio (y) = 0.10558 0.21100
# Poissons Ratio (z) = 0.27786 0.27786
#
# Static dielectric constant tensor:
#      x y z
#    x 1.663750 0.000000 0.000000 
#    y 0.000000 1.663750 0.000000 
#    z 0.000000 0.000000 1.600250 
# 
# From -- ./inp_files/1850.got.cif
#   From: 2010.05.17/outbox.cif.g08.bks.cpg/sg129_1_cif.got.tgz:1850.got - 2010.05.20 12:12:06.
