data_PCOD9565817
_publ_section_title
;
Structure prediction by ZEFSAII (Michael W. Deem and Ramdas Pophale) SiO2 
 PCOD9565817
Probable space group: P 4/N C C
;
_chemical_formula_sum "Si O2"
_cell_formula_units_Z 116
_cell_length_a 17.832640
_cell_length_b 17.832640
_cell_length_c 18.132064
_cell_angle_alpha 90.000000
_cell_angle_beta 90.000000
_cell_angle_gamma 90.000000
_cell_volume 5766.051643
_symmetry_space_group_name_H-M "P 4/N C C"
_symmetry_group_IT_number 130
_symmetry_cell_setting 'tetragonal'
loop_
_space_group_symop_operation_xyz
x,y,z
1/2-y,x,z
1/2-x,1/2-y,z
y,1/2-x,z
1/2+x,-y,1/2-z
-x,1/2+y,1/2-z
1/2+y,1/2+x,1/2-z
-y,-x,1/2-z
-x,-y,-z
1/2+y,-x,-z
1/2+x,1/2+y,-z
-y,1/2+x,-z
1/2-x,y,1/2+z
x,1/2-y,1/2+z
1/2-y,1/2-x,1/2+z
y,x,1/2+z
loop_
_atom_site_type_symbol
_atom_site_label
_atom_site_fract_x
_atom_site_fract_y
_atom_site_fract_z
Si Si1 0.528425 0.407107 0.028310
Si Si2 0.980982 0.224228 0.381646
Si Si3 0.428751 0.509187 0.824131
Si Si4 0.397160 0.334000 0.816323
Si Si5 0.135491 0.302446 0.144112
Si Si6 0.373746 0.037321 0.519060
Si Si7 0.784925 0.365359 0.013540
Si Si8 0.250000 0.250000 0.859979
O O1 0.532250 0.449937 0.106581
O O2 0.442559 0.405028 0.002571
O O3 0.579174 0.459474 0.974527
O O4 0.571313 0.328925 0.032282
O O5 0.037170 0.282412 0.346737
O O6 0.020173 0.183038 0.452361
O O7 0.962335 0.156933 0.326339
O O8 0.906350 0.263218 0.411205
O O9 0.469926 0.530075 0.750000
O O10 0.420046 0.419875 0.828772
O O11 0.385202 0.316891 0.729270
O O12 0.318244 0.312713 0.854185
O O13 0.153980 0.214535 0.131744
O O14 0.071657 0.331533 0.088883
O O15 0.836691 0.292443 0.021615
#
# Coordination Sequence:
#
# PCOD9565817 Si02
#       8
#    16  16  16  16  16  16  16   4
#     4  10  23  42  65  98 132 166 227 282 341 392
#     4  11  25  42  67 103 130 178 226 280 344 402
#     4  11  23  43  68  97 132 182 224 276 339 409
#     4  12  23  42  68  92 140 181 222 272 341 421
#     4  11  22  40  58  92 136 181 218 259 330 409
#     4  10  23  39  64  97 131 168 218 285 324 401
#     4  11  23  43  69  91 129 177 220 276 347 398
#     4  12  20  40  64  94 136 188 208 266 344 416
#
# _framework density 20.117751999999999
#
# number of rings (size 3 to 8) (size 9 to 14) (size 15 to 20)
#    0.000    1.103    5.517    0.828    7.724    0.000 
#    0.000    0.000    0.000    0.828    0.000    0.000 
#    0.000    0.000    0.000    0.000    0.000    0.000 
#
# Total GULP energy -646790.089075 kJ/mol
# GULP energy per Si atom -5575.776630 kJ/mol
# Density = 2.007196 g / cm^3
# Si number density = 20.117752 Si / 1000 Ang^3
#
#
#
# Elastic Constant Matrix: (Units=GPa)
#
#
# Indices 1 2 3 4 5 6 
#
# 1 83.4719 47.7364 29.9476 0.0000 0.0000 0.0000
# 2 47.7364 83.4745 29.9494 0.0000 0.0000 0.0000
# 3 29.9476 29.9494 19.9922 0.0000 0.0000 0.0000
# 4 0.0000 0.0000 0.0000 21.8012 0.0000 0.0000
# 5 0.0000 0.0000 0.0000 0.0000 21.7991 0.0000
# 6 0.0000 0.0000 0.0000 0.0000 0.0000 43.4214
#
#
#
# Elastic Compliance Matrix: (Units=1/GPa)
#
#
# Indices 1 2 3 4 5 6 
#
# 1 0.026043 -0.001938 -0.036109 0.000000 0.000000 0.000000
# 2 -0.001938 0.026045 -0.036114 0.000000 0.000000 0.000000
# 3 -0.036109 -0.036114 0.158210 0.000000 0.000000 0.000000
# 4 0.000000 0.000000 0.000000 0.045869 0.000000 0.000000
# 5 0.000000 0.000000 0.000000 0.000000 0.045873 0.000000
# 6 0.000000 0.000000 0.000000 0.000000 0.000000 0.023030
#
#
# Mechanical properties :
#
#
# Convention : Reuss Voigt Hill
#
# Bulk Modulus (GPa) = 16.13507 44.68949 30.41228
# Shear Modulus (GPa) = 10.12042 22.69135 16.40588
#
# Velocity S-wave (km/s) = 2.24533 3.36211 2.85878
# Velocity P-wave (km/s) = 3.84184 6.11014 5.10361
#
# Compressibility (1/GPa) = 0.06197678
#
# Stress axis : x y z
#
# Youngs Moduli (GPa) = 38.39760 38.39478 6.32073
#
# Poissons Ratio (x) = 0.07441 0.22823
# Poissons Ratio (y) = 0.07442 0.22827
# Poissons Ratio (z) = 1.38648 1.38659
#
# Static dielectric constant tensor:
#      x y z
#    x 1.745550 0.000000 0.000000 
#    y 0.000000 1.745550 0.000000 
#    z 0.000000 0.000000 1.715220 
# 
# From -- ./inp_files/3228.got.cif
#   From: 2010.05.17/outbox.cif.g08.bks.cpg/sg130_2_cif.got.tgz:3228.got - 2010.05.20 12:17:35.
