data_PCOD9565121
_publ_section_title
;
Structure prediction by ZEFSAII (Michael W. Deem and Ramdas Pophale) SiO2 
 PCOD9565121
Probable space group: P 4/N M M
;
_chemical_formula_sum "Si O2"
_cell_formula_units_Z 112
_cell_length_a 18.704758
_cell_length_b 18.704758
_cell_length_c 22.353825
_cell_angle_alpha 90.000000
_cell_angle_beta 90.000000
_cell_angle_gamma 90.000000
_cell_volume 7820.887416
_symmetry_space_group_name_H-M "P 4/N M M"
_symmetry_group_IT_number 129
_symmetry_cell_setting 'tetragonal'
loop_
_space_group_symop_operation_xyz
x,y,z
1/2-y,x,z
1/2-x,1/2-y,z
y,1/2-x,z
1/2+x,-y,-z
-x,1/2+y,-z
1/2+y,1/2+x,-z
-y,-x,-z
-x,-y,-z
1/2+y,-x,-z
1/2+x,1/2+y,-z
-y,1/2+x,-z
1/2-x,y,z
x,1/2-y,z
1/2-y,1/2-x,z
y,x,z
loop_
_atom_site_type_symbol
_atom_site_label
_atom_site_fract_x
_atom_site_fract_y
_atom_site_fract_z
Si Si1 0.549392 0.833238 0.375385
Si Si2 0.529617 0.164816 0.750190
Si Si3 0.592190 0.477757 0.124725
Si Si4 0.831923 0.404776 0.943597
Si Si5 0.900246 0.335150 0.558418
Si Si6 0.831458 0.947765 0.014382
Si Si7 0.670872 0.163240 0.682720
O O1 0.569882 0.750000 0.380639
O O2 0.613258 0.886743 0.388546
O O3 0.521286 0.844630 0.307362
O O4 0.481192 0.845288 0.418493
O O5 0.531190 0.250000 0.763510
O O6 0.510077 0.121339 0.808884
O O7 0.608206 0.141471 0.727440
O O8 0.513456 0.513456 0.118414
O O9 0.598970 0.394602 0.105695
O O10 0.641357 0.520422 0.077469
O O11 0.750000 0.388969 0.925045
O O12 0.854854 0.354854 0.000000
O O13 0.834631 0.485383 0.969307
O O14 0.878470 0.378470 0.500000
O O15 0.889947 0.250000 0.547537
O O16 0.850965 0.356067 0.615067
O O17 0.750000 0.923134 0.018956
O O18 0.885226 0.885226 0.996533
O O19 0.750000 0.137850 0.697957
O O20 0.670564 0.250000 0.683699
#
# Coordination Sequence:
#
# PCOD9565121 Si02
#       7
#    16  16  16  16  16  16  16
#     4   9  18  31  44  59  80 105 136 173 207 239
#     4   9  17  28  41  58  80 105 134 167 199 232
#     4  10  18  28  44  61  78 106 137 162 197 242
#     4   9  18  31  44  60  82 105 131 162 195 235
#     4   9  16  25  40  62  85 110 138 165 196 237
#     4   9  17  29  44  61  81 103 129 164 201 237
#     4   8  14  24  37  55  81 110 136 162 192 228
#
# _framework density 14.320625
#
# number of rings (size 3 to 8) (size 9 to 14) (size 15 to 20)
#    0.000    3.000    0.000    3.429    0.000    4.286 
#    0.000    0.000    0.000    0.000    0.000    2.000 
#    0.000    0.000    0.000    0.000    0.000    0.286 
#
# Total GULP energy -623531.595144 kJ/mol
# GULP energy per Si atom -5567.246385 kJ/mol
# Density = 1.428803 g / cm^3
# Si number density = 14.320625 Si / 1000 Ang^3
#
#
#
# Elastic Constant Matrix: (Units=GPa)
#
#
# Indices 1 2 3 4 5 6 
#
# 1 57.5937 30.8634 7.0422 0.0000 0.0000 0.0000
# 2 30.8634 57.5937 7.0422 0.0000 0.0000 0.0000
# 3 7.0422 7.0422 45.2348 0.0000 0.0000 0.0000
# 4 0.0000 0.0000 0.0000 12.1441 0.0000 0.0000
# 5 0.0000 0.0000 0.0000 0.0000 12.1441 0.0000
# 6 0.0000 0.0000 0.0000 0.0000 0.0000 20.6170
#
#
#
# Elastic Compliance Matrix: (Units=1/GPa)
#
#
# Indices 1 2 3 4 5 6 
#
# 1 0.024501 -0.012909 -0.001805 0.000000 0.000000 0.000000
# 2 -0.012909 0.024501 -0.001805 0.000000 0.000000 0.000000
# 3 -0.001805 -0.001805 0.022669 0.000000 0.000000 0.000000
# 4 0.000000 0.000000 0.000000 0.082344 0.000000 0.000000
# 5 0.000000 0.000000 0.000000 0.000000 0.082344 0.000000
# 6 0.000000 0.000000 0.000000 0.000000 0.000000 0.048504
#
#
# Mechanical properties :
#
#
# Convention : Reuss Voigt Hill
#
# Bulk Modulus (GPa) = 25.88357 27.81309 26.84833
# Shear Modulus (GPa) = 15.11581 16.67935 15.89758
#
# Velocity S-wave (km/s) = 3.25241 3.41648 3.33546
# Velocity P-wave (km/s) = 5.67607 5.91836 5.79848
#
# Compressibility (1/GPa) = 0.03863454
#
# Stress axis : x y z
#
# Youngs Moduli (GPa) = 40.81385 40.81385 44.11349
#
# Poissons Ratio (x) = 0.52688 0.07961
# Poissons Ratio (y) = 0.52688 0.07961
# Poissons Ratio (z) = 0.07366 0.07366
#
# Static dielectric constant tensor:
#      x y z
#    x 1.468610 0.000000 0.000000 
#    y 0.000000 1.468610 0.000000 
#    z 0.000000 0.000000 1.457670 
# 
# From -- ./inp_files/6710.got.cif
#   From: 2010.05.17/outbox.cif.g08.bks.cpg/sg129_4_cif.got.tgz:6710.got - 2010.05.20 12:12:06.
