data_PCOD9565739
_publ_section_title
;
Structure prediction by ZEFSAII (Michael W. Deem and Ramdas Pophale) SiO2 
 PCOD9565739
Probable space group: P 4/N C C
;
_chemical_formula_sum "Si O2"
_cell_formula_units_Z 80
_cell_length_a 12.460716
_cell_length_b 12.460716
_cell_length_c 27.493984
_cell_angle_alpha 90.000000
_cell_angle_beta 90.000000
_cell_angle_gamma 90.000000
_cell_volume 4268.975588
_symmetry_space_group_name_H-M "P 4/N C C"
_symmetry_group_IT_number 130
_symmetry_cell_setting 'tetragonal'
loop_
_space_group_symop_operation_xyz
x,y,z
1/2-y,x,z
1/2-x,1/2-y,z
y,1/2-x,z
1/2+x,-y,1/2-z
-x,1/2+y,1/2-z
1/2+y,1/2+x,1/2-z
-y,-x,1/2-z
-x,-y,-z
1/2+y,-x,-z
1/2+x,1/2+y,-z
-y,1/2+x,-z
1/2-x,y,1/2+z
x,1/2-y,1/2+z
1/2-y,1/2-x,1/2+z
y,x,1/2+z
loop_
_atom_site_type_symbol
_atom_site_label
_atom_site_fract_x
_atom_site_fract_y
_atom_site_fract_z
Si Si1 0.745426 0.120509 0.625166
Si Si2 0.625987 0.053076 0.802341
Si Si3 0.975440 0.133838 0.662369
Si Si4 0.085258 0.322625 0.058938
Si Si5 0.412658 0.703257 0.516297
O O1 0.750000 0.250000 0.617399
O O2 0.641129 0.096901 0.656884
O O3 0.734892 0.069010 0.572053
O O4 0.853864 0.093202 0.654182
O O5 0.604091 0.104091 0.750000
O O6 0.551787 0.949676 0.810542
O O7 0.751366 0.026893 0.810753
O O8 0.021580 0.151695 0.608100
O O9 0.114256 0.196710 0.058790
O O10 0.012850 0.345469 0.012010
O O11 0.310724 0.624353 0.512270
#
# Coordination Sequence:
#
# PCOD9565739 Si02
#       5
#    16  16  16  16  16
#     4  10  21  39  62  94 128 161 213 262 310 381
#     4  11  26  41  66  94 121 165 214 265 327 371
#     4  11  22  42  66  91 127 165 211 267 315 378
#     4  11  23  38  57  91 128 166 209 260 316 380
#     4  11  19  34  59  91 124 161 204 248 306 374
#
# _framework density 18.739858999999999
#
# number of rings (size 3 to 8) (size 9 to 14) (size 15 to 20)
#    0.000    1.200    6.000    1.200    2.800    5.600 
#    0.000    0.000    0.000    0.600    0.000    0.000 
#    0.000    0.000    0.000    0.000    0.000    0.000 
#
# Total GULP energy -447152.573777 kJ/mol
# GULP energy per Si atom -5589.407172 kJ/mol
# Density = 1.869721 g / cm^3
# Si number density = 18.739859 Si / 1000 Ang^3
#
#
#
# Elastic Constant Matrix: (Units=GPa)
#
#
# Indices 1 2 3 4 5 6 
#
# 1 54.6998 28.6115 23.6952 0.0000 0.0000 0.0000
# 2 28.6115 54.6998 23.6952 0.0000 0.0000 0.0000
# 3 23.6952 23.6952 92.8995 0.0000 0.0000 0.0000
# 4 0.0000 0.0000 0.0000 10.5409 0.0000 0.0000
# 5 0.0000 0.0000 0.0000 0.0000 10.5409 0.0000
# 6 0.0000 0.0000 0.0000 0.0000 0.0000 4.4012
#
#
#
# Elastic Compliance Matrix: (Units=1/GPa)
#
#
# Indices 1 2 3 4 5 6 
#
# 1 0.026186 -0.012146 -0.003581 0.000000 0.000000 0.000000
# 2 -0.012146 0.026186 -0.003581 0.000000 0.000000 0.000000
# 3 -0.003581 -0.003581 0.012591 0.000000 0.000000 0.000000
# 4 0.000000 0.000000 0.000000 0.094869 0.000000 0.000000
# 5 0.000000 0.000000 0.000000 0.000000 0.094869 0.000000
# 6 0.000000 0.000000 0.000000 0.000000 0.000000 0.227209
#
#
# Mechanical properties :
#
#
# Convention : Reuss Voigt Hill
#
# Bulk Modulus (GPa) = 37.95487 39.36700 38.66093
# Shear Modulus (GPa) = 9.44631 13.51642 11.48136
#
# Velocity S-wave (km/s) = 2.24760 2.68855 2.47790
# Velocity P-wave (km/s) = 5.19934 5.53990 5.37232
#
# Compressibility (1/GPa) = 0.02634708
#
# Stress axis : x y z
#
# Youngs Moduli (GPa) = 38.18861 38.18861 79.42083
#
# Poissons Ratio (x) = 0.46382 0.28442
# Poissons Ratio (y) = 0.46382 0.28442
# Poissons Ratio (z) = 0.13676 0.13676
#
# Static dielectric constant tensor:
#      x y z
#    x 1.645010 0.000000 0.000000 
#    y 0.000000 1.645010 0.000000 
#    z 0.000000 0.000000 1.618160 
# 
# From -- ./inp_files/4774.got.cif
#   From: 2010.05.17/outbox.cif.g08.bks.cpg/sg130_3_cif.got.tgz:4774.got - 2010.05.20 12:17:35.
