data_PCOD9565586
_publ_section_title
;
Structure prediction by ZEFSAII (Michael W. Deem and Ramdas Pophale) SiO2 
 PCOD9565586
Probable space group: P 4/N C C
;
_chemical_formula_sum "Si O2"
_cell_formula_units_Z 80
_cell_length_a 14.563556
_cell_length_b 14.563556
_cell_length_c 15.670962
_cell_angle_alpha 90.000000
_cell_angle_beta 90.000000
_cell_angle_gamma 90.000000
_cell_volume 3323.766587
_symmetry_space_group_name_H-M "P 4/N C C"
_symmetry_group_IT_number 130
_symmetry_cell_setting 'tetragonal'
loop_
_space_group_symop_operation_xyz
x,y,z
1/2-y,x,z
1/2-x,1/2-y,z
y,1/2-x,z
1/2+x,-y,1/2-z
-x,1/2+y,1/2-z
1/2+y,1/2+x,1/2-z
-y,-x,1/2-z
-x,-y,-z
1/2+y,-x,-z
1/2+x,1/2+y,-z
-y,1/2+x,-z
1/2-x,y,1/2+z
x,1/2-y,1/2+z
1/2-y,1/2-x,1/2+z
y,x,1/2+z
loop_
_atom_site_type_symbol
_atom_site_label
_atom_site_fract_x
_atom_site_fract_y
_atom_site_fract_z
Si Si1 0.818178 0.171350 0.383752
Si Si2 0.176338 0.116793 0.018903
Si Si3 0.070762 0.525250 0.427659
Si Si4 0.917556 0.927042 0.801094
Si Si5 0.752813 0.028823 0.246919
O O1 0.750000 0.250000 0.409789
O O2 0.875375 0.112682 0.450735
O O3 0.762100 0.098570 0.326990
O O4 0.902499 0.215361 0.328623
O O5 0.284405 0.129348 0.013305
O O6 0.144355 0.082508 0.112377
O O7 0.145905 0.052314 0.941440
O O8 0.000000 0.500000 0.500000
O O9 0.013694 0.532592 0.339764
O O10 0.948722 0.828507 0.763246
O O11 0.848991 0.986698 0.742389
#
# Coordination Sequence:
#
# PCOD9565586 Si02
#       5
#    16  16  16  16  16
#     4  10  22  44  63  92 135 173 224 279 352 412
#     4  10  19  35  61  89 128 172 220 282 337 403
#     4   9  21  40  65  95 132 175 225 281 338 408
#     4  10  19  36  63  91 127 170 229 273 341 416
#     4  10  20  37  62  95 125 176 224 282 338 421
#
# _framework density 24.069078999999999
#
# number of rings (size 3 to 8) (size 9 to 14) (size 15 to 20)
#    0.000    2.200    2.000    1.200    0.000    2.000 
#   18.000    0.000    0.000    4.800    0.000    0.000 
#    0.000    0.000    0.000    0.000    0.000    0.000 
#
# Total GULP energy -447137.984095 kJ/mol
# GULP energy per Si atom -5589.224801 kJ/mol
# Density = 2.401430 g / cm^3
# Si number density = 24.069079 Si / 1000 Ang^3
#
#
#
# Elastic Constant Matrix: (Units=GPa)
#
#
# Indices 1 2 3 4 5 6 
#
# 1 206.1258 -31.2071 15.9994 0.0000 0.0000 0.0000
# 2 -31.2071 206.1258 15.9994 0.0000 0.0000 0.0000
# 3 15.9994 15.9994 52.2208 0.0000 0.0000 0.0000
# 4 0.0000 0.0000 0.0000 26.4622 0.0000 0.0000
# 5 0.0000 0.0000 0.0000 0.0000 26.4622 0.0000
# 6 0.0000 0.0000 0.0000 0.0000 0.0000 251.9911
#
#
#
# Elastic Compliance Matrix: (Units=1/GPa)
#
#
# Indices 1 2 3 4 5 6 
#
# 1 0.005135 0.000921 -0.001856 0.000000 0.000000 0.000000
# 2 0.000921 0.005135 -0.001856 0.000000 0.000000 0.000000
# 3 -0.001856 -0.001856 0.020286 0.000000 0.000000 0.000000
# 4 0.000000 0.000000 0.000000 0.037790 0.000000 0.000000
# 5 0.000000 0.000000 0.000000 0.000000 0.037790 0.000000
# 6 0.000000 0.000000 0.000000 0.000000 0.000000 0.003968
#
#
# Mechanical properties :
#
#
# Convention : Reuss Voigt Hill
#
# Bulk Modulus (GPa) = 40.03676 51.78394 45.91035
# Shear Modulus (GPa) = 40.31955 91.89514 66.10734
#
# Velocity S-wave (km/s) = 4.09731 6.18568 5.24646
# Velocity P-wave (km/s) = 6.24933 8.51929 7.47103
#
# Compressibility (1/GPa) = 0.02497705
#
# Stress axis : x y z
#
# Youngs Moduli (GPa) = 194.74424 194.74424 49.29392
#
# Poissons Ratio (x) = -0.17945 0.09147
# Poissons Ratio (y) = -0.17945 0.09147
# Poissons Ratio (z) = 0.36136 0.36136
#
# Static dielectric constant tensor:
#      x y z
#    x 1.960400 0.000000 0.000000 
#    y 0.000000 1.960400 0.000000 
#    z 0.000000 0.000000 2.148950 
# 
# From -- ./inp_files/3620.got.cif
#   From: 2010.05.17/outbox.cif.g08.bks.cpg/sg130_2_cif.got.tgz:3620.got - 2010.05.20 12:17:35.
