data_PCOD9565706
_publ_section_title
;
Structure prediction by ZEFSAII (Michael W. Deem and Ramdas Pophale) SiO2 
 PCOD9565706
Probable space group: P 4/N C C
;
_chemical_formula_sum "Si O2"
_cell_formula_units_Z 88
_cell_length_a 14.423291
_cell_length_b 14.423291
_cell_length_c 22.869099
_cell_angle_alpha 90.000000
_cell_angle_beta 90.000000
_cell_angle_gamma 90.000000
_cell_volume 4757.488927
_symmetry_space_group_name_H-M "P 4/N C C"
_symmetry_group_IT_number 130
_symmetry_cell_setting 'tetragonal'
loop_
_space_group_symop_operation_xyz
x,y,z
1/2-y,x,z
1/2-x,1/2-y,z
y,1/2-x,z
1/2+x,-y,1/2-z
-x,1/2+y,1/2-z
1/2+y,1/2+x,1/2-z
-y,-x,1/2-z
-x,-y,-z
1/2+y,-x,-z
1/2+x,1/2+y,-z
-y,1/2+x,-z
1/2-x,y,1/2+z
x,1/2-y,1/2+z
1/2-y,1/2-x,1/2+z
y,x,1/2+z
loop_
_atom_site_type_symbol
_atom_site_label
_atom_site_fract_x
_atom_site_fract_y
_atom_site_fract_z
Si Si1 0.250000 0.250000 0.005394
Si Si2 0.285767 0.401079 0.227028
Si Si3 0.942936 0.656490 0.457660
Si Si4 0.732269 0.904137 0.136574
Si Si5 0.250000 0.750000 0.000000
Si Si6 0.823372 0.073770 0.560618
Si Si7 0.001266 0.161392 0.613474
O O1 0.349456 0.306720 0.011108
O O2 0.184408 0.356616 0.216408
O O3 0.281862 0.428292 0.294989
O O4 0.315183 0.477740 0.180754
O O5 0.983629 0.742887 0.421398
O O6 0.910214 0.576306 0.413619
O O7 0.019714 0.630872 0.505645
O O8 0.651905 0.827538 0.125792
O O9 0.727479 0.994012 0.097014
O O10 0.344114 0.741688 0.037260
O O11 0.901602 0.120010 0.600371
#
# Coordination Sequence:
#
# PCOD9565706 Si02
#       7
#     4  16  16  16   4  16  16
#     4   8  20  32  56  88 122 140 196 264 316 350
#     4   9  17  35  63  93 124 153 201 262 321 362
#     4  10  21  34  56  94 120 154 202 263 310 359
#     4   9  22  41  65  96 125 157 197 267 327 366
#     4  12  28  48  56  82 128 176 208 240 290 384
#     4  12  25  40  59  84 128 171 207 249 305 371
#     4  11  20  35  61  89 120 164 206 254 304 365
#
# _framework density 18.497153000000001
#
# number of rings (size 3 to 8) (size 9 to 14) (size 15 to 20)
#    0.000    1.818    3.636    1.636    5.091    2.182 
#    0.000    0.000    0.000    2.182    0.000    0.000 
#    0.000    0.000    0.000    0.000    0.000    0.000 
#
# Total GULP energy -490141.293888 kJ/mol
# GULP energy per Si atom -5569.787431 kJ/mol
# Density = 1.845505 g / cm^3
# Si number density = 18.497153 Si / 1000 Ang^3
#
#
#
# Elastic Constant Matrix: (Units=GPa)
#
#
# Indices 1 2 3 4 5 6 
#
# 1 84.2152 9.3428 44.1087 0.0000 0.0000 0.0000
# 2 9.3428 84.2152 44.1087 0.0000 0.0000 0.0000
# 3 44.1087 44.1087 101.4826 0.0000 0.0000 0.0000
# 4 0.0000 0.0000 0.0000 30.5592 0.0000 0.0000
# 5 0.0000 0.0000 0.0000 0.0000 30.5592 0.0000
# 6 0.0000 0.0000 0.0000 0.0000 0.0000 21.5790
#
#
#
# Elastic Compliance Matrix: (Units=1/GPa)
#
#
# Indices 1 2 3 4 5 6 
#
# 1 0.015734 0.002378 -0.007872 0.000000 0.000000 0.000000
# 2 0.002378 0.015734 -0.007872 0.000000 0.000000 0.000000
# 3 -0.007872 -0.007872 0.016697 0.000000 0.000000 0.000000
# 4 0.000000 0.000000 0.000000 0.032723 0.000000 0.000000
# 5 0.000000 0.000000 0.000000 0.000000 0.032723 0.000000
# 6 0.000000 0.000000 0.000000 0.000000 0.000000 0.046341
#
#
# Mechanical properties :
#
#
# Convention : Reuss Voigt Hill
#
# Bulk Modulus (GPa) = 46.66022 51.67037 49.16529
# Shear Modulus (GPa) = 25.79606 28.02968 26.91287
#
# Velocity S-wave (km/s) = 3.73848 3.89697 3.81855
# Velocity P-wave (km/s) = 6.62687 6.94575 6.78818
#
# Compressibility (1/GPa) = 0.02143153
#
# Stress axis : x y z
#
# Youngs Moduli (GPa) = 63.55843 63.55843 59.89179
#
# Poissons Ratio (x) = -0.15111 0.47146
# Poissons Ratio (y) = -0.15111 0.47146
# Poissons Ratio (z) = 0.50032 0.50032
#
# Static dielectric constant tensor:
#      x y z
#    x 1.620800 0.000000 0.000000 
#    y 0.000000 1.620800 0.000000 
#    z 0.000000 0.000000 1.678320 
# 
# From -- ./inp_files/4191.got.cif
#   From: 2010.05.17/outbox.cif.g08.bks.cpg/sg130_3_cif.got.tgz:4191.got - 2010.05.20 12:17:35.
