data_PCOD9565034
_publ_section_title
;
Structure prediction by ZEFSAII (Michael W. Deem and Ramdas Pophale) SiO2 
 PCOD9565034
Probable space group: P 4/M N C
;
_chemical_formula_sum "Si O2"
_cell_formula_units_Z 88
_cell_length_a 11.567303
_cell_length_b 11.567303
_cell_length_c 29.698085
_cell_angle_alpha 90.000000
_cell_angle_beta 90.000000
_cell_angle_gamma 90.000000
_cell_volume 3973.677979
_symmetry_space_group_name_H-M "P 4/M N C"
_symmetry_group_IT_number 128
_symmetry_cell_setting 'tetragonal'
loop_
_space_group_symop_operation_xyz
x,y,z
-y,x,z
-x,-y,z
y,-x,z
1/2+x,1/2-y,1/2-z
1/2-x,1/2+y,1/2-z
1/2+y,1/2+x,1/2-z
1/2-y,1/2-x,1/2-z
-x,-y,-z
y,-x,-z
x,y,-z
-y,x,-z
1/2-x,1/2+y,1/2+z
1/2+x,1/2-y,1/2+z
1/2-y,1/2-x,1/2+z
1/2+y,1/2+x,1/2+z
loop_
_atom_site_type_symbol
_atom_site_label
_atom_site_fract_x
_atom_site_fract_y
_atom_site_fract_z
Si Si1 0.880205 0.380201 0.000000
Si Si2 0.473046 0.691709 0.750000
Si Si3 0.311075 0.994233 0.655017
Si Si4 0.812438 0.973884 0.434355
Si Si5 0.811076 0.505771 0.655018
Si Si6 0.187563 0.026109 0.934355
O O1 0.804350 0.448621 0.961044
O O2 0.948631 0.304351 0.961044
O O3 0.374005 0.595436 0.750000
O O4 0.466642 0.763860 0.795680
O O5 0.466639 0.763861 0.704320
O O6 0.383950 0.883952 0.637907
O O7 0.213928 0.024873 0.618804
O O8 0.399386 0.100616 0.658448
O O9 0.904708 0.873552 0.445578
O O10 0.713928 0.475134 0.618804
O O11 0.095297 0.126445 0.945578
#
# Coordination Sequence:
#
# PCOD9565034 Si02
#       6
#     8  16  16  16  16  16
#     4  12  24  46  73  99 132 182 230 292 358 399
#     4  11  24  41  66 100 138 185 234 282 344 420
#     4  11  24  43  67 103 139 182 232 288 348 418
#     4  11  25  46  71 104 140 182 236 287 350 425
#     4  11  24  43  67 103 139 182 232 288 348 418
#     4  11  25  46  71 104 140 182 236 287 350 425
#
# _framework density 22.145731999999999
#
# number of rings (size 3 to 8) (size 9 to 14) (size 15 to 20)
#    0.000    0.909    1.818    4.364    2.545   11.636 
#    0.000    0.909    0.000    0.000    0.000    0.000 
#    0.000    0.000    0.000    0.000    0.000    0.000 
#
# Total GULP energy -490615.529111 kJ/mol
# GULP energy per Si atom -5575.176467 kJ/mol
# Density = 2.209533 g / cm^3
# Si number density = 22.145732 Si / 1000 Ang^3
#
#
#
# Elastic Constant Matrix: (Units=GPa)
#
#
# Indices 1 2 3 4 5 6 
#
# 1 65.4027 29.7070 19.6409 0.0000 0.0000 0.0000
# 2 29.7070 65.4027 19.6409 0.0000 0.0000 0.0000
# 3 19.6409 19.6409 138.5507 0.0000 0.0000 0.0000
# 4 0.0000 0.0000 0.0000 103.6263 0.0000 0.0000
# 5 0.0000 0.0000 0.0000 0.0000 103.6263 0.0000
# 6 0.0000 0.0000 0.0000 0.0000 0.0000 -52.4443
#
#
#
# Elastic Compliance Matrix: (Units=1/GPa)
#
#
# Indices 1 2 3 4 5 6 
#
# 1 0.019591 -0.008423 -0.001583 0.000000 0.000000 0.000000
# 2 -0.008423 0.019591 -0.001583 0.000000 0.000000 0.000000
# 3 -0.001583 -0.001583 0.007666 0.000000 0.000000 0.000000
# 4 0.000000 0.000000 0.000000 0.009650 0.000000 0.000000
# 5 0.000000 0.000000 0.000000 0.000000 0.009650 0.000000
# 6 0.000000 0.000000 0.000000 0.000000 0.000000 -0.019068
#
#
# Mechanical properties :
#
#
# Convention : Reuss Voigt Hill
#
# Bulk Modulus (GPa) = 42.24787 45.25928 43.75357
# Shear Modulus (GPa) = 63.97909 44.31946 54.14928
#
# Velocity S-wave (km/s) = 5.38078 4.47840 4.95019
# Velocity P-wave (km/s) = 7.59752 6.87189 7.24379
#
# Compressibility (1/GPa) = 0.02366983
#
# Stress axis : x y z
#
# Youngs Moduli (GPa) = 51.04303 51.04303 130.43868
#
# Poissons Ratio (x) = 0.42995 0.20651
# Poissons Ratio (y) = 0.42995 0.20651
# Poissons Ratio (z) = 0.08081 0.08081
#
# Static dielectric constant tensor:
#      x y z
#    x 1.796450 0.000000 0.000000 
#    y 0.000000 1.796450 0.000000 
#    z 0.000000 0.000000 1.785370 
# 
# From -- ./inp_files/7251.got.cif
#   From: 2010.05.17/outbox.cif.g08.bks.cpg/sg128_4_cif.got.tgz:7251.got - 2010.05.20 12:07:25.
