data_PCOD9565372
_publ_section_title
;
Structure prediction by ZEFSAII (Michael W. Deem and Ramdas Pophale) SiO2 
 PCOD9565372
Probable space group: P 4/N M M
;
_chemical_formula_sum "Si O2"
_cell_formula_units_Z 96
_cell_length_a 18.868787
_cell_length_b 18.868787
_cell_length_c 16.573060
_cell_angle_alpha 90.000000
_cell_angle_beta 90.000000
_cell_angle_gamma 90.000000
_cell_volume 5900.525161
_symmetry_space_group_name_H-M "P 4/N M M"
_symmetry_group_IT_number 129
_symmetry_cell_setting 'tetragonal'
loop_
_space_group_symop_operation_xyz
x,y,z
1/2-y,x,z
1/2-x,1/2-y,z
y,1/2-x,z
1/2+x,-y,-z
-x,1/2+y,-z
1/2+y,1/2+x,-z
-y,-x,-z
-x,-y,-z
1/2+y,-x,-z
1/2+x,1/2+y,-z
-y,1/2+x,-z
1/2-x,y,z
x,1/2-y,z
1/2-y,1/2-x,z
y,x,z
loop_
_atom_site_type_symbol
_atom_site_label
_atom_site_fract_x
_atom_site_fract_y
_atom_site_fract_z
Si Si1 0.444040 0.328278 0.656805
Si Si2 0.551839 0.667761 0.818151
Si Si3 0.435536 0.947483 0.094822
Si Si4 0.054362 0.832283 0.668597
Si Si5 0.667960 0.419391 0.232308
Si Si6 0.452859 0.165704 0.470153
O O1 0.411107 0.250000 0.657314
O O2 0.387220 0.387220 0.675483
O O3 0.506227 0.330343 0.721103
O O4 0.470661 0.339826 0.565040
O O5 0.561790 0.750000 0.837142
O O6 0.624437 0.624437 0.812999
O O7 0.501041 0.627677 0.881279
O O8 0.508970 0.661967 0.734148
O O9 0.427712 0.878116 0.150675
O O10 0.508170 0.991831 0.112151
O O11 0.432447 0.932447 0.000000
O O12 0.072232 0.750000 0.657828
O O13 0.121963 0.870118 0.707588
O O14 0.018460 0.858196 0.585752
O O15 0.750000 0.396724 0.219479
O O16 0.439129 0.250000 0.452879
O O17 0.384331 0.115670 0.455441
#
# Coordination Sequence:
#
# PCOD9565372 Si02
#       6
#    16  16  16  16  16  16
#     4   9  18  31  47  70  98 127 161 199 238 281
#     4   9  17  29  46  69  96 124 153 186 228 281
#     4   9  18  33  52  72  94 122 155 191 236 288
#     4   9  18  32  47  64  91 125 158 194 237 282
#     4  10  20  33  50  71  94 121 156 198 239 282
#     4   9  17  29  46  69  97 129 164 200 238 281
#
# _framework density 16.269738
#
# number of rings (size 3 to 8) (size 9 to 14) (size 15 to 20)
#    0.000    2.833    0.000    1.000    0.000    4.167 
#    0.000    3.333    0.000    3.000    0.000    7.000 
#    0.000    4.000    0.000    0.000    0.000    0.167 
#
# Total GULP energy -534533.235610 kJ/mol
# GULP energy per Si atom -5568.054538 kJ/mol
# Density = 1.623271 g / cm^3
# Si number density = 16.269738 Si / 1000 Ang^3
#
#
#
# Elastic Constant Matrix: (Units=GPa)
#
#
# Indices 1 2 3 4 5 6 
#
# 1 96.5520 48.0905 37.4309 0.0000 0.0000 0.0000
# 2 48.0905 96.5520 37.4309 0.0000 0.0000 0.0000
# 3 37.4309 37.4309 49.9154 0.0000 0.0000 0.0000
# 4 0.0000 0.0000 0.0000 18.2105 0.0000 0.0000
# 5 0.0000 0.0000 0.0000 0.0000 18.2105 0.0000
# 6 0.0000 0.0000 0.0000 0.0000 0.0000 -6.7155
#
#
#
# Elastic Compliance Matrix: (Units=1/GPa)
#
#
# Indices 1 2 3 4 5 6 
#
# 1 0.015967 -0.004668 -0.008473 0.000000 0.000000 0.000000
# 2 -0.004668 0.015967 -0.008473 0.000000 0.000000 0.000000
# 3 -0.008473 -0.008473 0.032741 0.000000 0.000000 0.000000
# 4 0.000000 0.000000 0.000000 0.054913 0.000000 0.000000
# 5 0.000000 0.000000 0.000000 0.000000 0.054913 0.000000
# 6 0.000000 0.000000 0.000000 0.000000 0.000000 -0.148908
#
#
# Mechanical properties :
#
#
# Convention : Reuss Voigt Hill
#
# Bulk Modulus (GPa) = 46.62544 54.32490 50.47517
# Shear Modulus (GPa) = 65.81520 13.94556 39.88038
#
# Velocity S-wave (km/s) = 6.36713 2.93088 4.95633
# Velocity P-wave (km/s) = 9.09801 6.70195 7.99030
#
# Compressibility (1/GPa) = 0.02144752
#
# Stress axis : x y z
#
# Youngs Moduli (GPa) = 62.62953 62.62953 30.54249
#
# Poissons Ratio (x) = 0.29236 0.25878
# Poissons Ratio (y) = 0.29236 0.25878
# Poissons Ratio (z) = 0.53065 0.53065
#
# Static dielectric constant tensor:
#      x y z
#    x 1.544630 0.000000 0.000000 
#    y 0.000000 1.544630 0.000000 
#    z 0.000000 0.000000 1.548920 
# 
# From -- ./inp_files/5663.got.cif
#   From: 2010.05.17/outbox.cif.g08.bks.cpg/sg129_3_cif.got.tgz:5663.got - 2010.05.20 12:12:06.
