data_PCOD9565751
_publ_section_title
;
Structure prediction by ZEFSAII (Michael W. Deem and Ramdas Pophale) SiO2 
 PCOD9565751
Probable space group: P 4/N C C
;
_chemical_formula_sum "Si O2"
_cell_formula_units_Z 116
_cell_length_a 17.157696
_cell_length_b 17.157696
_cell_length_c 19.464016
_cell_angle_alpha 90.000000
_cell_angle_beta 90.000000
_cell_angle_gamma 90.000000
_cell_volume 5729.944170
_symmetry_space_group_name_H-M "P 4/N C C"
_symmetry_group_IT_number 130
_symmetry_cell_setting 'tetragonal'
loop_
_space_group_symop_operation_xyz
x,y,z
1/2-y,x,z
1/2-x,1/2-y,z
y,1/2-x,z
1/2+x,-y,1/2-z
-x,1/2+y,1/2-z
1/2+y,1/2+x,1/2-z
-y,-x,1/2-z
-x,-y,-z
1/2+y,-x,-z
1/2+x,1/2+y,-z
-y,1/2+x,-z
1/2-x,y,1/2+z
x,1/2-y,1/2+z
1/2-y,1/2-x,1/2+z
y,x,1/2+z
loop_
_atom_site_type_symbol
_atom_site_label
_atom_site_fract_x
_atom_site_fract_y
_atom_site_fract_z
Si Si1 0.386377 0.567860 0.673728
Si Si2 0.571773 0.989559 0.052413
Si Si3 0.750000 0.750000 0.530617
Si Si4 0.541211 0.746176 0.338268
Si Si5 0.229790 0.069326 0.507526
Si Si6 0.497521 0.165307 0.902186
Si Si7 0.513678 0.070381 0.176419
Si Si8 0.878088 0.732998 0.197228
O O1 0.398795 0.601206 0.750000
O O2 0.300407 0.535563 0.662389
O O3 0.419345 0.632846 0.621534
O O4 0.442886 0.491848 0.668586
O O5 0.648934 0.973377 0.009339
O O6 0.555853 0.911227 0.095199
O O7 0.569638 0.055689 0.110744
O O8 0.500000 0.000000 0.000000
O O9 0.764020 0.845801 0.526925
O O10 0.580672 0.757827 0.411895
O O11 0.519587 0.656788 0.326259
O O12 0.596692 0.772194 0.276285
O O13 0.295291 0.012672 0.475715
O O14 0.455896 0.221847 0.847419
O O15 0.552806 0.052806 0.250000
O O16 0.833591 0.813832 0.183471
#
# Coordination Sequence:
#
# PCOD9565751 Si02
#       8
#    16  16   4  16  16  16  16  16
#     4  10  21  41  65  95 128 174 229 281 334 403
#     4  11  23  43  65  94 134 185 231 272 325 411
#     4  12  28  40  60 106 152 180 208 266 360 420
#     4  12  25  41  65  96 133 175 219 285 342 391
#     4  12  26  40  66  99 144 178 217 272 345 418
#     4  11  22  40  64  90 131 179 224 271 324 405
#     4  10  24  41  68  96 131 176 234 276 331 408
#     4  11  25  36  58  95 139 175 211 261 340 419
#
# _framework density 20.244524999999999
#
# number of rings (size 3 to 8) (size 9 to 14) (size 15 to 20)
#    0.000    0.966    2.759    4.138    9.655    0.000 
#    0.000    0.000    0.000    2.897    0.000    3.862 
#    0.000    0.000    0.000    0.000    0.000    0.000 
#
# Total GULP energy -647506.978138 kJ/mol
# GULP energy per Si atom -5581.956708 kJ/mol
# Density = 2.019845 g / cm^3
# Si number density = 20.244525 Si / 1000 Ang^3
#
#
#
# Elastic Constant Matrix: (Units=GPa)
#
#
# Indices 1 2 3 4 5 6 
#
# 1 67.1267 28.0888 11.4857 0.0000 0.0000 0.0000
# 2 28.0888 67.1265 11.4858 0.0000 0.0000 0.0000
# 3 11.4857 11.4858 92.9577 0.0000 0.0000 0.0000
# 4 0.0000 0.0000 0.0000 25.4133 0.0000 0.0000
# 5 0.0000 0.0000 0.0000 0.0000 25.4133 0.0000
# 6 0.0000 0.0000 0.0000 0.0000 0.0000 9.3809
#
#
#
# Elastic Compliance Matrix: (Units=1/GPa)
#
#
# Indices 1 2 3 4 5 6 
#
# 1 0.018221 -0.007396 -0.001338 0.000000 0.000000 0.000000
# 2 -0.007396 0.018221 -0.001338 0.000000 0.000000 0.000000
# 3 -0.001338 -0.001338 0.011088 0.000000 0.000000 0.000000
# 4 0.000000 0.000000 0.000000 0.039349 0.000000 0.000000
# 5 0.000000 0.000000 0.000000 0.000000 0.039350 0.000000
# 6 0.000000 0.000000 0.000000 0.000000 0.000000 0.106599
#
#
# Mechanical properties :
#
#
# Convention : Reuss Voigt Hill
#
# Bulk Modulus (GPa) = 36.51192 36.59239 36.55216
# Shear Modulus (GPa) = 19.07679 23.78488 21.43083
#
# Velocity S-wave (km/s) = 3.07305 3.43137 3.25714
# Velocity P-wave (km/s) = 5.53770 5.81494 5.67801
#
# Compressibility (1/GPa) = 0.02738831
#
# Stress axis : x y z
#
# Youngs Moduli (GPa) = 54.88271 54.88254 90.18668
#
# Poissons Ratio (x) = 0.40588 0.12063
# Poissons Ratio (y) = 0.40589 0.12063
# Poissons Ratio (z) = 0.07341 0.07341
#
# Static dielectric constant tensor:
#      x y z
#    x 1.726660 0.000000 0.000000 
#    y 0.000000 1.726660 0.000000 
#    z 0.000000 0.000000 1.758550 
# 
# From -- ./inp_files/3198.got.cif
#   From: 2010.05.17/outbox.cif.g08.bks.cpg/sg130_2_cif.got.tgz:3198.got - 2010.05.20 12:17:35.
