data_PCOD9565458
_publ_section_title
;
Structure prediction by ZEFSAII (Michael W. Deem and Ramdas Pophale) SiO2 
 PCOD9565458
Probable space group: P 4/N M M
;
_chemical_formula_sum "Si O2"
_cell_formula_units_Z 96
_cell_length_a 21.147473
_cell_length_b 21.147473
_cell_length_c 12.597067
_cell_angle_alpha 90.000000
_cell_angle_beta 90.000000
_cell_angle_gamma 90.000000
_cell_volume 5633.605057
_symmetry_space_group_name_H-M "P 4/N M M"
_symmetry_group_IT_number 129
_symmetry_cell_setting 'tetragonal'
loop_
_space_group_symop_operation_xyz
x,y,z
1/2-y,x,z
1/2-x,1/2-y,z
y,1/2-x,z
1/2+x,-y,-z
-x,1/2+y,-z
1/2+y,1/2+x,-z
-y,-x,-z
-x,-y,-z
1/2+y,-x,-z
1/2+x,1/2+y,-z
-y,1/2+x,-z
1/2-x,y,z
x,1/2-y,z
1/2-y,1/2-x,z
y,x,z
loop_
_atom_site_type_symbol
_atom_site_label
_atom_site_fract_x
_atom_site_fract_y
_atom_site_fract_z
Si Si1 0.676015 0.573351 0.606329
Si Si2 0.673746 0.445748 0.233792
Si Si3 0.675544 0.570394 0.850518
Si Si4 0.395478 0.999345 0.968783
Si Si5 0.598117 0.493215 0.437850
Si Si6 0.826634 0.320831 0.120381
O O1 0.750000 0.579275 0.586383
O O2 0.640325 0.640325 0.599064
O O3 0.666689 0.550462 0.727717
O O4 0.643198 0.527901 0.522096
O O5 0.750000 0.450809 0.243008
O O6 0.648159 0.483271 0.131242
O O7 0.637958 0.469570 0.337821
O O8 0.656118 0.372970 0.206275
O O9 0.750000 0.580518 0.868581
O O10 0.634344 0.634344 0.865064
O O11 0.647069 0.519283 0.930935
O O12 0.441544 0.058457 0.943740
O O13 0.442146 0.942146 0.000000
O O14 0.562797 0.437204 0.500000
O O15 0.543684 0.543684 0.404920
O O16 0.750000 0.317402 0.120282
O O17 0.851498 0.250000 0.138785
O O18 0.842015 0.342015 0.000000
#
# Coordination Sequence:
#
# PCOD9565458 Si02
#       6
#    16  16  16  16  16  16
#     4   9  18  34  56  81 109 140 176 221 271 323
#     4  11  21  34  55  80 105 133 174 221 267 318
#     4   9  18  33  54  81 112 143 176 219 270 323
#     4  10  21  34  52  78 111 146 181 219 260 310
#     4  10  22  38  56  74 101 141 182 222 267 318
#     4   8  15  30  50  72 101 133 164 202 252 308
#
# _framework density 17.040597999999999
#
# number of rings (size 3 to 8) (size 9 to 14) (size 15 to 20)
#    0.000    2.500    0.000    2.500    2.333    0.333 
#    0.000    4.167    0.000    0.000    0.000    0.000 
#    0.000   12.000    0.000    0.000    0.000    0.000 
#
# Total GULP energy -535459.860523 kJ/mol
# GULP energy per Si atom -5577.706880 kJ/mol
# Density = 1.700181 g / cm^3
# Si number density = 17.040598 Si / 1000 Ang^3
#
#
#
# Elastic Constant Matrix: (Units=GPa)
#
#
# Indices 1 2 3 4 5 6 
#
# 1 144.7201 11.5769 81.1755 0.0000 0.0000 0.0000
# 2 11.5769 144.6685 81.1620 0.0000 0.0000 0.0000
# 3 81.1755 81.1620 127.0185 0.0000 0.0000 0.0000
# 4 0.0000 0.0000 0.0000 28.1341 0.0000 0.0000
# 5 0.0000 0.0000 0.0000 0.0000 28.1343 0.0000
# 6 0.0000 0.0000 0.0000 0.0000 0.0000 18.1862
#
#
#
# Elastic Compliance Matrix: (Units=1/GPa)
#
#
# Indices 1 2 3 4 5 6 
#
# 1 0.013272 0.005762 -0.012163 0.000000 0.000000 0.000000
# 2 0.005762 0.013276 -0.012166 0.000000 0.000000 0.000000
# 3 -0.012163 -0.012166 0.023420 0.000000 0.000000 0.000000
# 4 0.000000 0.000000 0.000000 0.035544 0.000000 0.000000
# 5 0.000000 0.000000 0.000000 0.000000 0.035544 0.000000
# 6 0.000000 0.000000 0.000000 0.000000 0.000000 0.054987
#
#
# Mechanical properties :
#
#
# Convention : Reuss Voigt Hill
#
# Bulk Modulus (GPa) = 77.92074 84.91511 81.41792
# Shear Modulus (GPa) = 22.99332 31.05710 27.02521
#
# Velocity S-wave (km/s) = 3.67730 4.27375 3.98670
# Velocity P-wave (km/s) = 7.99099 8.61931 8.31109
#
# Compressibility (1/GPa) = 0.01283355
#
# Stress axis : x y z
#
# Youngs Moduli (GPa) = 75.34926 75.32142 42.69893
#
# Poissons Ratio (x) = -0.43399 0.51936
# Poissons Ratio (y) = -0.43415 0.51946
# Poissons Ratio (z) = 0.91650 0.91633
#
# Static dielectric constant tensor:
#      x y z
#    x 1.576780 0.000000 0.000000 
#    y 0.000000 1.576770 0.000000 
#    z 0.000000 0.000000 1.551060 
# 
# From -- ./inp_files/3809.got.cif
#   From: 2010.05.17/outbox.cif.g08.bks.cpg/sg129_2_cif.got.tgz:3809.got - 2010.05.20 12:12:06.
