data_PCOD9565775
_publ_section_title
;
Structure prediction by ZEFSAII (Michael W. Deem and Ramdas Pophale) SiO2 
 PCOD9565775
Probable space group: P 4/N C C
;
_chemical_formula_sum "Si O2"
_cell_formula_units_Z 96
_cell_length_a 19.340905
_cell_length_b 19.340905
_cell_length_c 14.378572
_cell_angle_alpha 90.000000
_cell_angle_beta 90.000000
_cell_angle_gamma 90.000000
_cell_volume 5378.601145
_symmetry_space_group_name_H-M "P 4/N C C"
_symmetry_group_IT_number 130
_symmetry_cell_setting 'tetragonal'
loop_
_space_group_symop_operation_xyz
x,y,z
1/2-y,x,z
1/2-x,1/2-y,z
y,1/2-x,z
1/2+x,-y,1/2-z
-x,1/2+y,1/2-z
1/2+y,1/2+x,1/2-z
-y,-x,1/2-z
-x,-y,-z
1/2+y,-x,-z
1/2+x,1/2+y,-z
-y,1/2+x,-z
1/2-x,y,1/2+z
x,1/2-y,1/2+z
1/2-y,1/2-x,1/2+z
y,x,1/2+z
loop_
_atom_site_type_symbol
_atom_site_label
_atom_site_fract_x
_atom_site_fract_y
_atom_site_fract_z
Si Si1 0.836480 0.336480 0.250000
Si Si2 0.322481 0.822481 0.250000
Si Si3 0.818345 0.415185 0.572372
Si Si4 0.797047 0.857818 0.321085
Si Si5 0.423690 0.186739 0.880821
Si Si6 0.583125 0.160760 0.437575
Si Si7 0.421843 0.329661 0.981307
O O1 0.756342 0.337918 0.282419
O O2 0.892790 0.346062 0.330524
O O3 0.335100 0.870373 0.337429
O O4 0.818094 0.494365 0.604422
O O5 0.873084 0.394528 0.494804
O O6 0.740479 0.397546 0.538358
O O7 0.715435 0.837965 0.323847
O O8 0.813031 0.898123 0.225547
O O9 0.817599 0.903287 0.410721
O O10 0.402043 0.259223 0.927405
O O11 0.388759 0.125357 0.937834
O O12 0.502064 0.154893 0.459850
#
# Coordination Sequence:
#
# PCOD9565775 Si02
#       7
#     8   8  16  16  16  16  16
#     4   9  18  38  61  86 116 154 205 254 300 361
#     4   9  18  34  61  88 112 148 209 252 294 361
#     4  10  22  38  61  89 119 161 200 253 306 360
#     4  11  22  38  68  92 119 164 203 257 311 357
#     4  11  23  41  59  91 127 156 206 254 301 371
#     4  10  22  40  61  88 122 161 201 254 309 363
#     4  11  23  41  61  93 125 157 206 255 304 369
#
# _framework density 17.848507000000001
#
# number of rings (size 3 to 8) (size 9 to 14) (size 15 to 20)
#    0.000    1.667    3.333    1.000    2.333    2.667 
#   12.000    0.833    0.000    0.000    0.000    0.000 
#    0.000    0.000    0.000    0.000    0.000    0.000 
#
# Total GULP energy -535657.228269 kJ/mol
# GULP energy per Si atom -5579.762794 kJ/mol
# Density = 1.780788 g / cm^3
# Si number density = 17.848507 Si / 1000 Ang^3
#
#
#
# Elastic Constant Matrix: (Units=GPa)
#
#
# Indices 1 2 3 4 5 6 
#
# 1 57.5212 38.3291 44.8493 0.0000 0.0000 0.0000
# 2 38.3291 57.5212 44.8493 0.0000 0.0000 0.0000
# 3 44.8493 44.8493 119.7248 0.0000 0.0000 0.0000
# 4 0.0000 0.0000 0.0000 -5.8810 0.0000 0.0000
# 5 0.0000 0.0000 0.0000 0.0000 -5.8810 0.0000
# 6 0.0000 0.0000 0.0000 0.0000 0.0000 24.3131
#
#
#
# Elastic Compliance Matrix: (Units=1/GPa)
#
#
# Indices 1 2 3 4 5 6 
#
# 1 0.034085 -0.018020 -0.006018 0.000000 0.000000 0.000000
# 2 -0.018020 0.034085 -0.006018 0.000000 0.000000 0.000000
# 3 -0.006018 -0.006018 0.012861 0.000000 0.000000 0.000000
# 4 0.000000 0.000000 0.000000 -0.170038 0.000000 0.000000
# 5 0.000000 0.000000 0.000000 0.000000 -0.170038 0.000000
# 6 0.000000 0.000000 0.000000 0.000000 0.000000 0.041130
#
#
# Mechanical properties :
#
#
# Convention : Reuss Voigt Hill
#
# Bulk Modulus (GPa) = 47.80378 54.53584 51.16981
# Shear Modulus (GPa) = -33.14959 9.62617 -11.76171
#
# Velocity S-wave (km/s) = -4.31429 2.32486 -2.56983
# Velocity P-wave (km/s) = 1.42260 6.15043 4.46383
#
# Compressibility (1/GPa) = 0.02091885
#
# Stress axis : x y z
#
# Youngs Moduli (GPa) = 29.33869 29.33869 77.75398
#
# Poissons Ratio (x) = 0.52869 0.46791
# Poissons Ratio (y) = 0.52869 0.46791
# Poissons Ratio (z) = 0.17656 0.17656
#
# Static dielectric constant tensor:
#      x y z
#    x 1.610100 0.000000 0.000000 
#    y 0.000000 1.610100 0.000000 
#    z 0.000000 0.000000 1.592310 
# 
# From -- ./inp_files/1808.got.cif
#   From: 2010.05.17/outbox.cif.g08.bks.cpg/sg130_1_cif.got.tgz:1808.got - 2010.05.20 12:17:35.
