data_PCOD9565781
_publ_section_title
;
Structure prediction by ZEFSAII (Michael W. Deem and Ramdas Pophale) SiO2 
 PCOD9565781
Probable space group: P 4/N C C
;
_chemical_formula_sum "Si O2"
_cell_formula_units_Z 112
_cell_length_a 14.434722
_cell_length_b 14.434722
_cell_length_c 23.831742
_cell_angle_alpha 90.000000
_cell_angle_beta 90.000000
_cell_angle_gamma 90.000000
_cell_volume 4965.610343
_symmetry_space_group_name_H-M "P 4/N C C"
_symmetry_group_IT_number 130
_symmetry_cell_setting 'tetragonal'
loop_
_space_group_symop_operation_xyz
x,y,z
1/2-y,x,z
1/2-x,1/2-y,z
y,1/2-x,z
1/2+x,-y,1/2-z
-x,1/2+y,1/2-z
1/2+y,1/2+x,1/2-z
-y,-x,1/2-z
-x,-y,-z
1/2+y,-x,-z
1/2+x,1/2+y,-z
-y,1/2+x,-z
1/2-x,y,1/2+z
x,1/2-y,1/2+z
1/2-y,1/2-x,1/2+z
y,x,1/2+z
loop_
_atom_site_type_symbol
_atom_site_label
_atom_site_fract_x
_atom_site_fract_y
_atom_site_fract_z
Si Si1 0.142028 0.640460 0.995807
Si Si2 0.424787 0.638343 0.127087
Si Si3 0.969649 0.648513 0.445067
Si Si4 0.264020 0.101476 0.747712
Si Si5 0.112225 0.754637 0.721809
Si Si6 0.826558 0.535728 0.369468
Si Si7 0.183132 0.110784 0.429431
O O1 0.113694 0.614446 0.933838
O O2 0.124557 0.747147 0.006311
O O3 0.100958 0.568227 0.040310
O O4 0.381327 0.730408 0.155368
O O5 0.385303 0.548253 0.158897
O O6 0.533046 0.650757 0.114673
O O7 0.898825 0.591094 0.407758
O O8 0.990060 0.740335 0.409243
O O9 0.924981 0.668336 0.506371
O O10 0.347272 0.169448 0.765599
O O11 0.280407 0.093981 0.680705
O O12 0.260949 0.995876 0.767360
O O13 0.177660 0.677660 0.750000
O O14 0.150976 0.849025 0.750000
O O15 0.292270 0.130526 0.422343
#
# Coordination Sequence:
#
# PCOD9565781 Si02
#       7
#    16  16  16  16  16  16  16
#     4  10  22  39  61  93 139 180 215 269 332 414
#     4  11  25  43  68 100 136 176 233 282 352 427
#     4  11  22  36  63  98 134 176 224 273 338 404
#     4  11  25  46  72 106 139 178 236 300 361 418
#     4  11  26  49  75  99 136 185 242 307 369 432
#     4  12  22  39  67  99 134 176 222 287 340 405
#     4  10  22  41  65  98 142 188 228 274 336 423
#
# _framework density 22.555132
#
# number of rings (size 3 to 8) (size 9 to 14) (size 15 to 20)
#    0.000    1.143    5.714    0.000    0.000   10.000 
#    2.571    1.429    0.000    0.000    0.000    0.000 
#    0.000    0.000    0.000    0.000    0.000    0.000 
#
# Total GULP energy -625139.684491 kJ/mol
# GULP energy per Si atom -5581.604326 kJ/mol
# Density = 2.250380 g / cm^3
# Si number density = 22.555132 Si / 1000 Ang^3
#
#
#
# Elastic Constant Matrix: (Units=GPa)
#
#
# Indices 1 2 3 4 5 6 
#
# 1 98.3649 29.2267 8.9561 0.0000 0.0000 0.0000
# 2 29.2267 98.3631 8.9557 0.0000 0.0000 0.0000
# 3 8.9561 8.9557 41.2760 0.0000 0.0000 0.0000
# 4 0.0000 0.0000 0.0000 18.4569 0.0000 0.0000
# 5 0.0000 0.0000 0.0000 0.0000 18.4567 0.0000
# 6 0.0000 0.0000 0.0000 0.0000 0.0000 22.8054
#
#
#
# Elastic Compliance Matrix: (Units=1/GPa)
#
#
# Indices 1 2 3 4 5 6 
#
# 1 0.011274 -0.003190 -0.001754 0.000000 0.000000 0.000000
# 2 -0.003190 0.011274 -0.001754 0.000000 0.000000 0.000000
# 3 -0.001754 -0.001754 0.024988 0.000000 0.000000 0.000000
# 4 0.000000 0.000000 0.000000 0.054180 0.000000 0.000000
# 5 0.000000 0.000000 0.000000 0.000000 0.054181 0.000000
# 6 0.000000 0.000000 0.000000 0.000000 0.000000 0.043849
#
#
# Mechanical properties :
#
#
# Convention : Reuss Voigt Hill
#
# Bulk Modulus (GPa) = 29.29120 36.92009 33.10565
# Shear Modulus (GPa) = 22.26946 24.66816 23.46881
#
# Velocity S-wave (km/s) = 3.14560 3.31068 3.22919
# Velocity P-wave (km/s) = 5.11935 5.56942 5.34912
#
# Compressibility (1/GPa) = 0.03413994
#
# Stress axis : x y z
#
# Youngs Moduli (GPa) = 88.70136 88.69983 40.01874
#
# Poissons Ratio (x) = 0.28296 0.07019
# Poissons Ratio (y) = 0.28296 0.07019
# Poissons Ratio (z) = 0.15558 0.15557
#
# Static dielectric constant tensor:
#      x y z
#    x 1.859930 0.000000 0.000000 
#    y 0.000000 1.859930 0.000000 
#    z 0.000000 0.000000 1.831240 
# 
# From -- ./inp_files/4281.got.cif
#   From: 2010.05.17/outbox.cif.g08.bks.cpg/sg130_3_cif.got.tgz:4281.got - 2010.05.20 12:17:35.
