data_PCOD9565804
_publ_section_title
;
Structure prediction by ZEFSAII (Michael W. Deem and Ramdas Pophale) SiO2 
 PCOD9565804
Probable space group: P 4/N C C
;
_chemical_formula_sum "Si O2"
_cell_formula_units_Z 84
_cell_length_a 10.188507
_cell_length_b 10.188507
_cell_length_c 29.613373
_cell_angle_alpha 90.000000
_cell_angle_beta 90.000000
_cell_angle_gamma 90.000000
_cell_volume 3074.036170
_symmetry_space_group_name_H-M "P 4/N C C"
_symmetry_group_IT_number 130
_symmetry_cell_setting 'tetragonal'
loop_
_space_group_symop_operation_xyz
x,y,z
1/2-y,x,z
1/2-x,1/2-y,z
y,1/2-x,z
1/2+x,-y,1/2-z
-x,1/2+y,1/2-z
1/2+y,1/2+x,1/2-z
-y,-x,1/2-z
-x,-y,-z
1/2+y,-x,-z
1/2+x,1/2+y,-z
-y,1/2+x,-z
1/2-x,y,1/2+z
x,1/2-y,1/2+z
1/2-y,1/2-x,1/2+z
y,x,1/2+z
loop_
_atom_site_type_symbol
_atom_site_label
_atom_site_fract_x
_atom_site_fract_y
_atom_site_fract_z
Si Si1 0.250000 0.250000 0.269803
Si Si2 0.028940 0.276852 0.070070
Si Si3 0.109519 0.451175 0.722374
Si Si4 0.711476 0.071547 0.836256
Si Si5 0.470680 0.221216 0.972878
Si Si6 0.716177 0.528794 0.129484
O O1 0.284613 0.401626 0.258538
O O2 0.109382 0.139279 0.071465
O O3 0.943318 0.277037 0.114658
O O4 0.958417 0.288779 0.021294
O O5 0.172795 0.578955 0.699625
O O6 0.981690 0.481690 0.750000
O O7 0.066796 0.356126 0.680885
O O8 0.593778 0.172757 0.840995
O O9 0.391349 0.358375 0.974090
O O10 0.523708 0.210654 0.922385
O O11 0.853411 0.607471 0.135919
#
# Coordination Sequence:
#
# PCOD9565804 Si02
#       6
#     4  16  16  16  16  16
#     4   8  20  44  80  96 136 184 218 280 364 448
#     4   9  15  27  58  97 131 165 213 269 323 399
#     4  10  22  42  69 106 139 170 226 300 369 440
#     4  11  20  38  70  99 129 173 221 285 359 421
#     4   7  12  26  50  84 130 165 216 269 314 382
#     4   9  19  39  62  91 131 183 236 277 327 416
#
# _framework density 27.325637
#
# number of rings (size 3 to 8) (size 9 to 14) (size 15 to 20)
#    0.000    2.857    1.905    2.286    0.000    0.000 
#    6.857    9.524   16.762    0.000    0.000    0.000 
#    0.000    0.000    0.000    0.000    0.000    0.571 
#
# Total GULP energy -468356.531451 kJ/mol
# GULP energy per Si atom -5575.672993 kJ/mol
# Density = 2.726344 g / cm^3
# Si number density = 27.325637 Si / 1000 Ang^3
#
#
#
# Elastic Constant Matrix: (Units=GPa)
#
#
# Indices 1 2 3 4 5 6 
#
# 1 56.9089 21.9784 28.3251 0.0000 0.0000 0.0000
# 2 21.9784 56.9089 28.3251 0.0000 0.0000 0.0000
# 3 28.3251 28.3251 117.1609 0.0000 0.0000 0.0000
# 4 0.0000 0.0000 0.0000 26.7706 0.0000 0.0000
# 5 0.0000 0.0000 0.0000 0.0000 26.7706 0.0000
# 6 0.0000 0.0000 0.0000 0.0000 0.0000 46.8115
#
#
#
# Elastic Compliance Matrix: (Units=1/GPa)
#
#
# Indices 1 2 3 4 5 6 
#
# 1 0.021984 -0.006644 -0.003709 0.000000 0.000000 0.000000
# 2 -0.006644 0.021984 -0.003709 0.000000 0.000000 0.000000
# 3 -0.003709 -0.003709 0.010328 0.000000 0.000000 0.000000
# 4 0.000000 0.000000 0.000000 0.037354 0.000000 0.000000
# 5 0.000000 0.000000 0.000000 0.000000 0.037354 0.000000
# 6 0.000000 0.000000 0.000000 0.000000 0.000000 0.021362
#
#
# Mechanical properties :
#
#
# Convention : Reuss Voigt Hill
#
# Bulk Modulus (GPa) = 38.20687 43.13734 40.67210
# Shear Modulus (GPa) = 26.70736 30.22723 28.46729
#
# Velocity S-wave (km/s) = 3.12969 3.32955 3.23116
# Velocity P-wave (km/s) = 5.20311 5.53189 5.37002
#
# Compressibility (1/GPa) = 0.02617330
#
# Stress axis : x y z
#
# Youngs Moduli (GPa) = 45.48798 45.48798 96.82011
#
# Poissons Ratio (x) = 0.30224 0.35906
# Poissons Ratio (y) = 0.30224 0.35906
# Poissons Ratio (z) = 0.16869 0.16869
#
# Static dielectric constant tensor:
#      x y z
#    x 2.326000 0.000000 0.000000 
#    y 0.000000 2.326000 0.000000 
#    z 0.000000 0.000000 2.230490 
# 
# From -- ./inp_files/4837.got.cif
#   From: 2010.05.17/outbox.cif.g08.bks.cpg/sg130_3_cif.got.tgz:4837.got - 2010.05.20 12:17:35.
