data_PCOD9565896
_publ_section_title
;
Structure prediction by ZEFSAII (Michael W. Deem and Ramdas Pophale) SiO2 
 PCOD9565896
Probable space group: P 4/N C C
;
_chemical_formula_sum "Si O2"
_cell_formula_units_Z 68
_cell_length_a 17.049512
_cell_length_b 17.049512
_cell_length_c 9.223279
_cell_angle_alpha 90.000000
_cell_angle_beta 90.000000
_cell_angle_gamma 90.000000
_cell_volume 2681.076783
_symmetry_space_group_name_H-M "P 4/N C C"
_symmetry_group_IT_number 130
_symmetry_cell_setting 'tetragonal'
loop_
_space_group_symop_operation_xyz
x,y,z
1/2-y,x,z
1/2-x,1/2-y,z
y,1/2-x,z
1/2+x,-y,1/2-z
-x,1/2+y,1/2-z
1/2+y,1/2+x,1/2-z
-y,-x,1/2-z
-x,-y,-z
1/2+y,-x,-z
1/2+x,1/2+y,-z
-y,1/2+x,-z
1/2-x,y,1/2+z
x,1/2-y,1/2+z
1/2-y,1/2-x,1/2+z
y,x,1/2+z
loop_
_atom_site_type_symbol
_atom_site_label
_atom_site_fract_x
_atom_site_fract_y
_atom_site_fract_z
Si Si1 0.816934 0.461735 0.664495
Si Si2 0.089026 0.414921 0.699330
Si Si3 0.250000 0.250000 0.547209
Si Si4 0.905717 0.801468 0.057049
Si Si5 0.920509 0.321856 0.143088
O O1 0.893740 0.511176 0.708859
O O2 0.754458 0.523036 0.596394
O O3 0.830428 0.404771 0.528341
O O4 0.767844 0.432691 0.803298
O O5 0.072578 0.372006 0.548739
O O6 0.123630 0.501594 0.673902
O O7 0.158961 0.374667 0.794917
O O8 0.344441 0.253057 0.524352
O O9 0.855603 0.355603 0.250000
#
# Coordination Sequence:
#
# PCOD9565896 Si02
#       5
#    16  16   4  16  16
#     4  11  22  43  62  90 138 172 215 275 326 382
#     4  11  21  39  57  88 131 172 213 259 315 385
#     4  12  20  26  44  82 120 158 232 230 292 362
#     4  11  22  32  54  85 126 179 212 255 305 385
#     4  11  25  44  71  99 128 174 224 271 337 402
#
# _framework density 25.362945
#
# number of rings (size 3 to 8) (size 9 to 14) (size 15 to 20)
#    0.000    0.941    7.059    0.000    3.294    1.882 
#    0.000    1.176    0.000    2.118    0.000    0.000 
#    0.000    0.000    0.000    0.000    0.000    0.000 
#
# Total GULP energy -379097.859332 kJ/mol
# GULP energy per Si atom -5574.968520 kJ/mol
# Density = 2.530522 g / cm^3
# Si number density = 25.362945 Si / 1000 Ang^3
#
#
#
# Elastic Constant Matrix: (Units=GPa)
#
#
# Indices 1 2 3 4 5 6 
#
# 1 34.3323 40.0539 32.5159 0.0000 0.0000 0.0000
# 2 40.0539 34.3323 32.5159 0.0000 0.0000 0.0000
# 3 32.5159 32.5159 120.7502 0.0000 0.0000 0.0000
# 4 0.0000 0.0000 0.0000 29.3049 0.0000 0.0000
# 5 0.0000 0.0000 0.0000 0.0000 29.3049 0.0000
# 6 0.0000 0.0000 0.0000 0.0000 0.0000 35.4523
#
#
#
# Elastic Compliance Matrix: (Units=1/GPa)
#
#
# Indices 1 2 3 4 5 6 
#
# 1 -0.078597 0.096180 -0.004735 0.000000 0.000000 0.000000
# 2 0.096180 -0.078597 -0.004735 0.000000 0.000000 0.000000
# 3 -0.004735 -0.004735 0.010831 0.000000 0.000000 0.000000
# 4 0.000000 0.000000 0.000000 0.034124 0.000000 0.000000
# 5 0.000000 0.000000 0.000000 0.000000 0.034124 0.000000
# 6 0.000000 0.000000 0.000000 0.000000 0.000000 0.028207
#
#
# Mechanical properties :
#
#
# Convention : Reuss Voigt Hill
#
# Bulk Modulus (GPa) = 36.95764 44.39845 40.67805
# Shear Modulus (GPa) = -23.33068 24.43436 0.55184
#
# Velocity S-wave (km/s) = -3.03623 3.10722 0.46696
# Velocity P-wave (km/s) = 1.52038 5.51510 4.04524
#
# Compressibility (1/GPa) = 0.02705800
#
# Stress axis : x y z
#
# Youngs Moduli (GPa) = -12.72308 -12.72308 92.32333
#
# Poissons Ratio (x) = 1.22371 0.43712
# Poissons Ratio (y) = 1.22371 0.43712
# Poissons Ratio (z) = -0.06024 -0.06024
#
# Static dielectric constant tensor:
#      x y z
#    x 2.045330 0.000000 0.000000 
#    y 0.000000 2.045330 0.000000 
#    z 0.000000 0.000000 2.113370 
# 
# From -- ./inp_files/793.got.cif
#   From: 2010.05.17/outbox.cif.g08.bks.cpg/sg130_1_cif.got.tgz:793.got - 2010.05.20 12:17:35.
