data_PCOD9565298
_publ_section_title
;
Structure prediction by ZEFSAII (Michael W. Deem and Ramdas Pophale) SiO2 
 PCOD9565298
Probable space group: P 4/N M M
;
_chemical_formula_sum "Si O2"
_cell_formula_units_Z 120
_cell_length_a 26.165137
_cell_length_b 26.165137
_cell_length_c 9.231066
_cell_angle_alpha 90.000000
_cell_angle_beta 90.000000
_cell_angle_gamma 90.000000
_cell_volume 6319.720658
_symmetry_space_group_name_H-M "P 4/N M M"
_symmetry_group_IT_number 129
_symmetry_cell_setting 'tetragonal'
loop_
_space_group_symop_operation_xyz
x,y,z
1/2-y,x,z
1/2-x,1/2-y,z
y,1/2-x,z
1/2+x,-y,-z
-x,1/2+y,-z
1/2+y,1/2+x,-z
-y,-x,-z
-x,-y,-z
1/2+y,-x,-z
1/2+x,1/2+y,-z
-y,1/2+x,-z
1/2-x,y,z
x,1/2-y,z
1/2-y,1/2-x,z
y,x,z
loop_
_atom_site_type_symbol
_atom_site_label
_atom_site_fract_x
_atom_site_fract_y
_atom_site_fract_z
Si Si1 0.970660 0.364431 0.701081
Si Si2 0.312433 0.812433 0.000000
Si Si3 0.889688 0.309996 0.523357
Si Si4 0.633109 0.950589 0.544284
Si Si5 0.810502 0.091019 0.793616
Si Si6 0.480631 0.101998 0.994570
Si Si7 0.971745 0.691332 0.825088
Si Si8 0.523360 0.055937 0.284691
O O1 0.925663 0.326305 0.655767
O O2 0.946257 0.419275 0.666086
O O3 0.020989 0.353547 0.605142
O O4 0.987560 0.372430 0.866073
O O5 0.325540 0.856752 0.121053
O O6 0.318183 0.750000 0.034194
O O7 0.834373 0.334373 0.500000
O O8 0.885559 0.250000 0.527848
O O9 0.914439 0.328844 0.371981
O O10 0.603764 0.896237 0.528325
O O11 0.678979 0.953976 0.660956
O O12 0.591829 0.987964 0.619726
O O13 0.750000 0.097232 0.784119
O O14 0.817564 0.033250 0.850655
O O15 0.441256 0.058745 0.940857
O O16 0.449166 0.146906 0.074829
O O17 0.514674 0.074781 0.119696
O O18 0.960967 0.750000 0.860731
O O19 0.500520 0.999481 0.296919
#
# Coordination Sequence:
#
# PCOD9565298 Si02
#       8
#    16   8  16  16  16  16  16  16
#     4  12  21  33  56  82 109 145 186 237 296 358
#     4   9  18  34  60  84  99 128 180 246 315 368
#     4  11  25  41  57  80 110 148 201 254 307 359
#     4  10  19  32  53  79 105 137 179 227 279 341
#     4   9  19  37  55  73 102 137 180 239 295 347
#     4  10  22  37  55  84 120 152 187 236 291 354
#     4  10  20  37  55  74 106 152 191 226 278 337
#     4   9  18  33  51  75 109 147 183 223 284 358
#
# _framework density 18.988181000000001
#
# number of rings (size 3 to 8) (size 9 to 14) (size 15 to 20)
#    0.000    1.933    1.333    4.000    1.867    4.400 
#    0.000    2.667    0.000    0.000    0.000    0.000 
#    0.000    4.267    0.000    0.000    0.000   16.800 
#
# Total GULP energy -668349.216558 kJ/mol
# GULP energy per Si atom -5569.576805 kJ/mol
# Density = 1.894496 g / cm^3
# Si number density = 18.988181 Si / 1000 Ang^3
#
#
#
# Elastic Constant Matrix: (Units=GPa)
#
#
# Indices 1 2 3 4 5 6 
#
# 1 38.7123 49.9089 9.0847 0.0000 0.0000 0.0000
# 2 49.9089 38.7123 9.0847 0.0000 0.0000 0.0000
# 3 9.0847 9.0847 71.0028 0.0000 0.0000 0.0000
# 4 0.0000 0.0000 0.0000 12.2280 0.0000 0.0000
# 5 0.0000 0.0000 0.0000 0.0000 12.2280 0.0000
# 6 0.0000 0.0000 0.0000 0.0000 0.0000 20.5199
#
#
#
# Elastic Compliance Matrix: (Units=1/GPa)
#
#
# Indices 1 2 3 4 5 6 
#
# 1 -0.038863 0.050451 -0.001483 0.000000 0.000000 0.000000
# 2 0.050451 -0.038863 -0.001483 0.000000 0.000000 0.000000
# 3 -0.001483 -0.001483 0.014463 0.000000 0.000000 0.000000
# 4 0.000000 0.000000 0.000000 0.081780 0.000000 0.000000
# 5 0.000000 0.000000 0.000000 0.000000 0.081780 0.000000
# 6 0.000000 0.000000 0.000000 0.000000 0.000000 0.048733
#
#
# Mechanical properties :
#
#
# Convention : Reuss Voigt Hill
#
# Bulk Modulus (GPa) = 31.53714 31.62043 31.57879
# Shear Modulus (GPa) = 77.36444 14.35178 45.85811
#
# Velocity S-wave (km/s) = 6.38999 2.75221 4.91968
# Velocity P-wave (km/s) = 8.43134 5.17575 6.99556
#
# Compressibility (1/GPa) = 0.03170865
#
# Stress axis : x y z
#
# Youngs Moduli (GPa) = -25.73158 -25.73158 69.14022
#
# Poissons Ratio (x) = 1.29818 0.10251
# Poissons Ratio (y) = 1.29818 0.10251
# Poissons Ratio (z) = -0.03815 -0.03815
#
# Static dielectric constant tensor:
#      x y z
#    x 1.693070 0.000000 0.000000 
#    y 0.000000 1.693070 0.000000 
#    z 0.000000 0.000000 1.787390 
# 
# From -- ./inp_files/2904.got.cif
#   From: 2010.05.17/outbox.cif.g08.bks.cpg/sg129_2_cif.got.tgz:2904.got - 2010.05.20 12:12:06.
