data_PCOD9565367
_publ_section_title
;
Structure prediction by ZEFSAII (Michael W. Deem and Ramdas Pophale) SiO2 
 PCOD9565367
Probable space group: P 4/N M M
;
_chemical_formula_sum "Si O2"
_cell_formula_units_Z 56
_cell_length_a 14.132719
_cell_length_b 14.132719
_cell_length_c 17.510644
_cell_angle_alpha 90.000000
_cell_angle_beta 90.000000
_cell_angle_gamma 90.000000
_cell_volume 3497.466527
_symmetry_space_group_name_H-M "P 4/N M M"
_symmetry_group_IT_number 129
_symmetry_cell_setting 'tetragonal'
loop_
_space_group_symop_operation_xyz
x,y,z
1/2-y,x,z
1/2-x,1/2-y,z
y,1/2-x,z
1/2+x,-y,-z
-x,1/2+y,-z
1/2+y,1/2+x,-z
-y,-x,-z
-x,-y,-z
1/2+y,-x,-z
1/2+x,1/2+y,-z
-y,1/2+x,-z
1/2-x,y,z
x,1/2-y,z
1/2-y,1/2-x,z
y,x,z
loop_
_atom_site_type_symbol
_atom_site_label
_atom_site_fract_x
_atom_site_fract_y
_atom_site_fract_z
Si Si1 0.983515 0.360858 0.267138
Si Si2 0.360080 0.639921 0.000000
Si Si3 0.515579 0.140421 0.447321
Si Si4 0.518640 0.138106 0.848046
O O1 0.992461 0.250000 0.248372
O O2 0.080740 0.419261 0.254060
O O3 0.961075 0.368898 0.357336
O O4 0.904349 0.412321 0.216688
O O5 0.377625 0.571220 0.928985
O O6 0.250000 0.628466 0.023881
O O7 0.596938 0.096938 0.500000
O O8 0.499443 0.250000 0.463881
O O9 0.422244 0.077757 0.461396
O O10 0.503841 0.250000 0.838227
O O11 0.422553 0.077448 0.845773
#
# Coordination Sequence:
#
# PCOD9565367 Si02
#       4
#    16   8  16  16
#     4   9  18  32  50  72  96 122 153 191 236 283
#     4   9  17  30  50  74  95 117 150 192 237 283
#     4   9  18  32  49  70  96 124 155 192 233 278
#     4  10  20  33  49  69  95 127 161 196 232 272
#
# _framework density 16.011589000000001
#
# number of rings (size 3 to 8) (size 9 to 14) (size 15 to 20)
#    0.000    2.714    0.000    1.286    0.000    4.000 
#    0.000    5.714    0.000    0.000    0.000   12.000 
#    0.000    0.000    0.000    0.000    0.000    0.000 
#
# Total GULP energy -312131.675829 kJ/mol
# GULP energy per Si atom -5573.779926 kJ/mol
# Density = 1.597515 g / cm^3
# Si number density = 16.011589 Si / 1000 Ang^3
#
#
#
# Elastic Constant Matrix: (Units=GPa)
#
#
# Indices 1 2 3 4 5 6 
#
# 1 133.2985 71.4079 63.7161 0.0000 0.0000 0.0000
# 2 71.4079 133.2987 63.7161 0.0000 0.0000 0.0000
# 3 63.7161 63.7161 56.9127 0.0000 0.0000 0.0000
# 4 0.0000 0.0000 0.0000 25.9590 0.0000 0.0000
# 5 0.0000 0.0000 0.0000 0.0000 25.9591 0.0000
# 6 0.0000 0.0000 0.0000 0.0000 0.0000 9.9780
#
#
#
# Elastic Compliance Matrix: (Units=1/GPa)
#
#
# Indices 1 2 3 4 5 6 
#
# 1 0.016138 -0.000020 -0.018045 0.000000 0.000000 0.000000
# 2 -0.000020 0.016138 -0.018045 0.000000 0.000000 0.000000
# 3 -0.018045 -0.018045 0.057976 0.000000 0.000000 0.000000
# 4 0.000000 0.000000 0.000000 0.038522 0.000000 0.000000
# 5 0.000000 0.000000 0.000000 0.000000 0.038522 0.000000
# 6 0.000000 0.000000 0.000000 0.000000 0.000000 0.100221
#
#
# Mechanical properties :
#
#
# Convention : Reuss Voigt Hill
#
# Bulk Modulus (GPa) = 55.45864 80.13223 67.79543
# Shear Modulus (GPa) = 14.46144 20.69055 17.57600
#
# Velocity S-wave (km/s) = 3.00857 3.59865 3.31676
# Velocity P-wave (km/s) = 6.83962 8.21110 7.55654
#
# Compressibility (1/GPa) = 0.01803146
#
# Stress axis : x y z
#
# Youngs Moduli (GPa) = 61.96563 61.96578 17.24863
#
# Poissons Ratio (x) = 0.00121 0.31126
# Poissons Ratio (y) = 0.00121 0.31126
# Poissons Ratio (z) = 1.11819 1.11819
#
# Static dielectric constant tensor:
#      x y z
#    x 1.515080 0.000000 0.000000 
#    y 0.000000 1.515080 0.000000 
#    z 0.000000 0.000000 1.529410 
# 
# From -- ./inp_files/4401.got.cif
#   From: 2010.05.17/outbox.cif.g08.bks.cpg/sg129_3_cif.got.tgz:4401.got - 2010.05.20 12:12:06.
