data_PCOD9565549
_publ_section_title
;
Structure prediction by ZEFSAII (Michael W. Deem and Ramdas Pophale) SiO2 
 PCOD9565549
Probable space group: P 4/N C C
;
_chemical_formula_sum "Si O2"
_cell_formula_units_Z 72
_cell_length_a 20.741173
_cell_length_b 20.741173
_cell_length_c 9.190863
_cell_angle_alpha 90.000000
_cell_angle_beta 90.000000
_cell_angle_gamma 90.000000
_cell_volume 3953.874865
_symmetry_space_group_name_H-M "P 4/N C C"
_symmetry_group_IT_number 130
_symmetry_cell_setting 'tetragonal'
loop_
_space_group_symop_operation_xyz
x,y,z
1/2-y,x,z
1/2-x,1/2-y,z
y,1/2-x,z
1/2+x,-y,1/2-z
-x,1/2+y,1/2-z
1/2+y,1/2+x,1/2-z
-y,-x,1/2-z
-x,-y,-z
1/2+y,-x,-z
1/2+x,1/2+y,-z
-y,1/2+x,-z
1/2-x,y,1/2+z
x,1/2-y,1/2+z
1/2-y,1/2-x,1/2+z
y,x,1/2+z
loop_
_atom_site_type_symbol
_atom_site_label
_atom_site_fract_x
_atom_site_fract_y
_atom_site_fract_z
Si Si1 0.473441 0.697562 0.395340
Si Si2 0.258222 0.438931 0.854352
Si Si3 0.268287 0.649166 0.481920
Si Si4 0.352388 0.214147 0.597375
Si Si5 0.623233 0.376768 0.750000
O O1 0.518770 0.698322 0.536735
O O2 0.514848 0.722361 0.259564
O O3 0.413718 0.745759 0.431110
O O4 0.438978 0.631154 0.350516
O O5 0.295008 0.388866 0.749766
O O6 0.209486 0.400262 0.960593
O O7 0.203161 0.687760 0.437788
O O8 0.313231 0.626841 0.350332
O O9 0.328749 0.288746 0.590940
#
# Coordination Sequence:
#
# PCOD9565549 Si02
#       5
#    16  16  16  16   8
#     4  10  19  33  46  75 112 151 187 219 267 317
#     4  10  20  33  52  80 120 140 174 217 268 346
#     4   9  18  29  46  71 105 144 184 235 283 315
#     4  10  20  36  61  90 114 134 160 209 288 366
#     4  10  18  33  48  70 114 150 192 240 274 320
#
# _framework density 18.209986000000001
#
# number of rings (size 3 to 8) (size 9 to 14) (size 15 to 20)
#    0.000    2.222    2.222    1.333    0.000    8.889 
#    0.000    0.000    0.000    0.000    0.000   24.889 
#    0.000    0.000    0.000    0.000    0.000    0.000 
#
# Total GULP energy -401193.073748 kJ/mol
# GULP energy per Si atom -5572.126024 kJ/mol
# Density = 1.816854 g / cm^3
# Si number density = 18.209986 Si / 1000 Ang^3
#
#
#
# Elastic Constant Matrix: (Units=GPa)
#
#
# Indices 1 2 3 4 5 6 
#
# 1 82.3618 18.2960 37.7759 0.0000 0.0000 0.0000
# 2 18.2960 82.3619 37.7757 0.0000 0.0000 0.0000
# 3 37.7759 37.7757 123.9155 0.0000 0.0000 0.0000
# 4 0.0000 0.0000 0.0000 28.4361 0.0000 0.0000
# 5 0.0000 0.0000 0.0000 0.0000 28.4360 0.0000
# 6 0.0000 0.0000 0.0000 0.0000 0.0000 12.4190
#
#
#
# Elastic Compliance Matrix: (Units=1/GPa)
#
#
# Indices 1 2 3 4 5 6 
#
# 1 0.014246 -0.001363 -0.003927 0.000000 0.000000 0.000000
# 2 -0.001363 0.014246 -0.003927 0.000000 0.000000 0.000000
# 3 -0.003927 -0.003927 0.010464 0.000000 0.000000 0.000000
# 4 0.000000 0.000000 0.000000 0.035167 0.000000 0.000000
# 5 0.000000 0.000000 0.000000 0.000000 0.035167 0.000000
# 6 0.000000 0.000000 0.000000 0.000000 0.000000 0.080522
#
#
# Mechanical properties :
#
#
# Convention : Reuss Voigt Hill
#
# Bulk Modulus (GPa) = 48.73225 52.92605 50.82915
# Shear Modulus (GPa) = 23.24652 26.84434 25.04543
#
# Velocity S-wave (km/s) = 3.57680 3.84364 3.71262
# Velocity P-wave (km/s) = 6.62400 6.98752 6.80819
#
# Compressibility (1/GPa) = 0.02052029
#
# Stress axis : x y z
#
# Youngs Moduli (GPa) = 70.19688 70.19706 95.56184
#
# Poissons Ratio (x) = 0.09570 0.37529
# Poissons Ratio (y) = 0.09570 0.37529
# Poissons Ratio (z) = 0.27568 0.27568
#
# Static dielectric constant tensor:
#      x y z
#    x 1.643300 0.000000 0.000000 
#    y 0.000000 1.643300 0.000000 
#    z 0.000000 0.000000 1.667170 
# 
# From -- ./inp_files/777.got.cif
#   From: 2010.05.17/outbox.cif.g08.bks.cpg/sg130_1_cif.got.tgz:777.got - 2010.05.20 12:17:35.
