data_PCOD9565117
_publ_section_title
;
Structure prediction by ZEFSAII (Michael W. Deem and Ramdas Pophale) SiO2 
 PCOD9565117
Probable space group: P 4/N M M
;
_chemical_formula_sum "Si O2"
_cell_formula_units_Z 80
_cell_length_a 19.418539
_cell_length_b 19.418539
_cell_length_c 15.891522
_cell_angle_alpha 90.000000
_cell_angle_beta 90.000000
_cell_angle_gamma 90.000000
_cell_volume 5992.369663
_symmetry_space_group_name_H-M "P 4/N M M"
_symmetry_group_IT_number 129
_symmetry_cell_setting 'tetragonal'
loop_
_space_group_symop_operation_xyz
x,y,z
1/2-y,x,z
1/2-x,1/2-y,z
y,1/2-x,z
1/2+x,-y,-z
-x,1/2+y,-z
1/2+y,1/2+x,-z
-y,-x,-z
-x,-y,-z
1/2+y,-x,-z
1/2+x,1/2+y,-z
-y,1/2+x,-z
1/2-x,y,z
x,1/2-y,z
1/2-y,1/2-x,z
y,x,z
loop_
_atom_site_type_symbol
_atom_site_label
_atom_site_fract_x
_atom_site_fract_y
_atom_site_fract_z
Si Si1 0.095115 0.667352 0.736970
Si Si2 0.670434 0.557325 0.677615
Si Si3 0.903541 0.167745 0.579825
Si Si4 0.833620 0.170609 0.907076
Si Si5 0.056704 0.329904 0.524084
O O1 0.105847 0.750000 0.726619
O O2 0.135929 0.628118 0.663974
O O3 0.123916 0.646723 0.828196
O O4 0.014071 0.654787 0.724259
O O5 0.750000 0.576390 0.694229
O O6 0.617751 0.617751 0.699462
O O7 0.664858 0.544428 0.576841
O O8 0.865016 0.134985 0.500000
O O9 0.894643 0.250000 0.578628
O O10 0.984896 0.153260 0.569363
O O11 0.750000 0.171937 0.909912
O O12 0.856148 0.250000 0.894326
O O13 0.854717 0.145284 0.000000
O O14 0.074680 0.250000 0.541300
O O15 0.117529 0.382472 0.545939
#
# Coordination Sequence:
#
# PCOD9565117 Si02
#       5
#    16  16  16  16  16
#     4  10  18  28  41  59  83 112 142 169 199 239
#     4   9  17  29  43  59  79 103 135 172 209 249
#     4  11  20  28  38  57  85 115 142 166 193 232
#     4   8  14  25  41  60  80 104 137 172 200 228
#     4   9  18  31  44  59  79 104 138 177 211 244
#
# _framework density 13.350311
#
# number of rings (size 3 to 8) (size 9 to 14) (size 15 to 20)
#    0.000    2.600    2.000    1.800    0.000    3.800 
#    0.000    2.000    0.000    0.600    0.000    0.000 
#    0.000    0.000    0.000    0.000    0.000   25.200 
#
# Total GULP energy -445629.022109 kJ/mol
# GULP energy per Si atom -5570.362776 kJ/mol
# Density = 1.331992 g / cm^3
# Si number density = 13.350311 Si / 1000 Ang^3
#
#
#
# Elastic Constant Matrix: (Units=GPa)
#
#
# Indices 1 2 3 4 5 6 
#
# 1 78.3643 68.0996 51.6002 0.0000 0.0000 0.0000
# 2 68.0996 78.3643 51.6009 0.0000 0.0000 0.0000
# 3 51.6002 51.6009 97.1000 0.0000 0.0000 0.0000
# 4 0.0000 0.0000 0.0000 11.1000 0.0000 0.0000
# 5 0.0000 0.0000 0.0000 0.0000 11.0996 0.0000
# 6 0.0000 0.0000 0.0000 0.0000 0.0000 21.6090
#
#
#
# Elastic Compliance Matrix: (Units=1/GPa)
#
#
# Indices 1 2 3 4 5 6 
#
# 1 0.054168 -0.043254 -0.005800 0.000000 0.000000 0.000000
# 2 -0.043254 0.054168 -0.005801 0.000000 0.000000 0.000000
# 3 -0.005800 -0.005801 0.016463 0.000000 0.000000 0.000000
# 4 0.000000 0.000000 0.000000 0.090090 0.000000 0.000000
# 5 0.000000 0.000000 0.000000 0.000000 0.090093 0.000000
# 6 0.000000 0.000000 0.000000 0.000000 0.000000 0.046277
#
#
# Mechanical properties :
#
#
# Convention : Reuss Voigt Hill
#
# Bulk Modulus (GPa) = 66.26173 66.27002 66.26588
# Shear Modulus (GPa) = 10.72968 14.26360 12.49664
#
# Velocity S-wave (km/s) = 2.83804 3.27220 3.06282
# Velocity P-wave (km/s) = 7.77690 8.00147 7.88998
#
# Compressibility (1/GPa) = 0.01509167
#
# Stress axis : x y z
#
# Youngs Moduli (GPa) = 18.46121 18.46094 60.74134
#
# Poissons Ratio (x) = 0.79850 0.35227
# Poissons Ratio (y) = 0.79851 0.35234
# Poissons Ratio (z) = 0.10707 0.10709
#
# Static dielectric constant tensor:
#      x y z
#    x 1.429280 0.000000 0.000000 
#    y 0.000000 1.429280 0.000000 
#    z 0.000000 0.000000 1.427960 
# 
# From -- ./inp_files/4580.got.cif
#   From: 2010.05.17/outbox.cif.g08.bks.cpg/sg129_3_cif.got.tgz:4580.got - 2010.05.20 12:12:06.
