data_PCOD9565767
_publ_section_title
;
Structure prediction by ZEFSAII (Michael W. Deem and Ramdas Pophale) SiO2 
 PCOD9565767
Probable space group: P 4/N C C
;
_chemical_formula_sum "Si O2"
_cell_formula_units_Z 112
_cell_length_a 21.962104
_cell_length_b 21.962104
_cell_length_c 12.459969
_cell_angle_alpha 90.000000
_cell_angle_beta 90.000000
_cell_angle_gamma 90.000000
_cell_volume 6009.866838
_symmetry_space_group_name_H-M "P 4/N C C"
_symmetry_group_IT_number 130
_symmetry_cell_setting 'tetragonal'
loop_
_space_group_symop_operation_xyz
x,y,z
1/2-y,x,z
1/2-x,1/2-y,z
y,1/2-x,z
1/2+x,-y,1/2-z
-x,1/2+y,1/2-z
1/2+y,1/2+x,1/2-z
-y,-x,1/2-z
-x,-y,-z
1/2+y,-x,-z
1/2+x,1/2+y,-z
-y,1/2+x,-z
1/2-x,y,1/2+z
x,1/2-y,1/2+z
1/2-y,1/2-x,1/2+z
y,x,1/2+z
loop_
_atom_site_type_symbol
_atom_site_label
_atom_site_fract_x
_atom_site_fract_y
_atom_site_fract_z
Si Si1 0.851142 0.744536 0.619301
Si Si2 0.475482 0.565870 0.464315
Si Si3 0.996871 0.634517 0.623051
Si Si4 0.918687 0.578775 0.801385
Si Si5 0.376630 0.958583 0.303774
Si Si6 0.481698 0.248658 0.260705
Si Si7 0.198219 0.425585 0.068562
O O1 0.811966 0.805367 0.639119
O O2 0.914091 0.746192 0.685432
O O3 0.874374 0.733797 0.497358
O O4 0.500000 0.500000 0.500000
O O5 0.414346 0.548821 0.400097
O O6 0.527911 0.591247 0.386529
O O7 0.463681 0.602892 0.572824
O O8 0.940096 0.606007 0.688526
O O9 0.016660 0.689849 0.698294
O O10 0.968825 0.661403 0.513773
O O11 0.911631 0.507430 0.773132
O O12 0.854180 0.598978 0.850797
O O13 0.394557 0.894557 0.250000
O O14 0.307759 0.981172 0.295863
O O15 0.466805 0.255436 0.135823
#
# Coordination Sequence:
#
# PCOD9565767 Si02
#       7
#    16  16  16  16  16  16  16
#     4  10  24  39  52  76 107 154 219 259 290 343
#     4  12  19  32  58  87 118 149 188 255 321 373
#     4  11  22  37  53  87 119 147 200 250 312 386
#     4  11  20  32  58  87 114 148 198 254 315 372
#     4  11  20  36  56  84 114 156 202 246 322 391
#     4  10  25  37  57  80 116 159 203 257 310 370
#     4  10  22  36  57  75 109 160 202 257 301 354
#
# _framework density 18.636019999999998
#
# number of rings (size 3 to 8) (size 9 to 14) (size 15 to 20)
#    0.000    1.286    4.286    1.286   12.000    1.143 
#    0.000    1.429    0.000    0.000    0.000    0.000 
#    0.000    7.429    0.000    0.000    0.000    0.000 
#
# Total GULP energy -625068.253715 kJ/mol
# GULP energy per Si atom -5580.966551 kJ/mol
# Density = 1.859360 g / cm^3
# Si number density = 18.636020 Si / 1000 Ang^3
#
#
#
# Elastic Constant Matrix: (Units=GPa)
#
#
# Indices 1 2 3 4 5 6 
#
# 1 58.8133 21.8614 8.8177 0.0000 0.0000 0.0000
# 2 21.8614 58.8133 8.8177 0.0000 0.0000 0.0000
# 3 8.8177 8.8177 76.8153 0.0000 0.0000 0.0000
# 4 0.0000 0.0000 0.0000 32.9309 0.0000 0.0000
# 5 0.0000 0.0000 0.0000 0.0000 32.9309 0.0000
# 6 0.0000 0.0000 0.0000 0.0000 0.0000 23.7548
#
#
#
# Elastic Compliance Matrix: (Units=1/GPa)
#
#
# Indices 1 2 3 4 5 6 
#
# 1 0.019888 -0.007174 -0.001460 0.000000 0.000000 0.000000
# 2 -0.007174 0.019888 -0.001460 0.000000 0.000000 0.000000
# 3 -0.001460 -0.001460 0.013353 0.000000 0.000000 0.000000
# 4 0.000000 0.000000 0.000000 0.030367 0.000000 0.000000
# 5 0.000000 0.000000 0.000000 0.000000 0.030367 0.000000
# 6 0.000000 0.000000 0.000000 0.000000 0.000000 0.042097
#
#
# Mechanical properties :
#
#
# Convention : Reuss Voigt Hill
#
# Bulk Modulus (GPa) = 30.35429 30.38174 30.36801
# Shear Modulus (GPa) = 26.71979 28.25300 27.48640
#
# Velocity S-wave (km/s) = 3.79063 3.89786 3.84462
# Velocity P-wave (km/s) = 5.95666 6.04945 6.00323
#
# Compressibility (1/GPa) = 0.03294427
#
# Stress axis : x y z
#
# Youngs Moduli (GPa) = 50.28062 50.28062 74.88775
#
# Poissons Ratio (x) = 0.36071 0.10930
# Poissons Ratio (y) = 0.36071 0.10930
# Poissons Ratio (z) = 0.07339 0.07339
#
# Static dielectric constant tensor:
#      x y z
#    x 1.680100 0.000000 0.000000 
#    y 0.000000 1.680100 0.000000 
#    z 0.000000 0.000000 1.699950 
# 
# From -- ./inp_files/1851.got.cif
#   From: 2010.05.17/outbox.cif.g08.bks.cpg/sg130_1_cif.got.tgz:1851.got - 2010.05.20 12:17:35.
