data_PCOD9565530
_publ_section_title
;
Structure prediction by ZEFSAII (Michael W. Deem and Ramdas Pophale) SiO2 
 PCOD9565530
Probable space group: P 4/N C C
;
_chemical_formula_sum "Si O2"
_cell_formula_units_Z 84
_cell_length_a 17.005855
_cell_length_b 17.005855
_cell_length_c 13.959051
_cell_angle_alpha 90.000000
_cell_angle_beta 90.000000
_cell_angle_gamma 90.000000
_cell_volume 4036.945046
_symmetry_space_group_name_H-M "P 4/N C C"
_symmetry_group_IT_number 130
_symmetry_cell_setting 'tetragonal'
loop_
_space_group_symop_operation_xyz
x,y,z
1/2-y,x,z
1/2-x,1/2-y,z
y,1/2-x,z
1/2+x,-y,1/2-z
-x,1/2+y,1/2-z
1/2+y,1/2+x,1/2-z
-y,-x,1/2-z
-x,-y,-z
1/2+y,-x,-z
1/2+x,1/2+y,-z
-y,1/2+x,-z
1/2-x,y,1/2+z
x,1/2-y,1/2+z
1/2-y,1/2-x,1/2+z
y,x,1/2+z
loop_
_atom_site_type_symbol
_atom_site_label
_atom_site_fract_x
_atom_site_fract_y
_atom_site_fract_z
Si Si1 0.124316 0.128554 0.946574
Si Si2 0.539147 0.141586 0.512724
Si Si3 0.354852 0.322726 0.170356
Si Si4 0.970382 0.172945 0.537260
Si Si5 0.250000 0.250000 0.874352
Si Si6 0.450888 0.453589 0.175399
O O1 0.132896 0.166458 0.055361
O O2 0.029921 0.132794 0.931999
O O3 0.155290 0.039596 0.959642
O O4 0.180756 0.182135 0.884715
O O5 0.539710 0.233034 0.545034
O O6 0.624739 0.109133 0.485067
O O7 0.508110 0.079081 0.592319
O O8 0.268261 0.353677 0.190560
O O9 0.419477 0.373522 0.222544
O O10 0.005062 0.125534 0.628923
O O11 0.492971 0.507030 0.250000
#
# Coordination Sequence:
#
# PCOD9565530 Si02
#       6
#    16  16  16  16   4  16
#     4  10  14  25  46  80 106 127 162 216 279 336
#     4  10  20  35  55  78 108 149 198 242 280 337
#     4   9  13  24  46  74  99 128 161 202 255 338
#     4  10  20  35  55  78 108 149 198 242 280 337
#     4  12  12  20  48  84 108 126 156 212 284 346
#     4  10  19  33  54  82 113 142 177 234 309 358
#
# _framework density 20.807811999999998
#
# number of rings (size 3 to 8) (size 9 to 14) (size 15 to 20)
#    0.000    2.476    3.810    5.714    0.000    0.381 
#    0.000    3.810    0.000    0.000    0.000    0.000 
#    0.000    0.000    0.000    0.000    0.000    0.000 
#
# Total GULP energy -467662.553546 kJ/mol
# GULP energy per Si atom -5567.411352 kJ/mol
# Density = 2.076045 g / cm^3
# Si number density = 20.807812 Si / 1000 Ang^3
#
#
#
# Elastic Constant Matrix: (Units=GPa)
#
#
# Indices 1 2 3 4 5 6 
#
# 1 158.4031 -2.9125 24.2766 0.0000 0.0000 0.0000
# 2 -2.9125 158.3838 24.2834 0.0000 0.0000 0.0000
# 3 24.2766 24.2834 37.0255 0.0000 0.0000 0.0000
# 4 0.0000 0.0000 0.0000 19.2641 0.0000 0.0000
# 5 0.0000 0.0000 0.0000 0.0000 19.2645 0.0000
# 6 0.0000 0.0000 0.0000 0.0000 0.0000 50.9835
#
#
#
# Elastic Compliance Matrix: (Units=1/GPa)
#
#
# Indices 1 2 3 4 5 6 
#
# 1 0.007143 0.000944 -0.005303 0.000000 0.000000 0.000000
# 2 0.000944 0.007145 -0.005305 0.000000 0.000000 0.000000
# 3 -0.005303 -0.005305 0.033965 0.000000 0.000000 0.000000
# 4 0.000000 0.000000 0.000000 0.051910 0.000000 0.000000
# 5 0.000000 0.000000 0.000000 0.000000 0.051909 0.000000
# 6 0.000000 0.000000 0.000000 0.000000 0.000000 0.019614
#
#
# Mechanical properties :
#
#
# Convention : Reuss Voigt Hill
#
# Bulk Modulus (GPa) = 34.57179 49.45635 42.01407
# Shear Modulus (GPa) = 24.91849 38.44675 31.68262
#
# Velocity S-wave (km/s) = 3.46432 4.30316 3.90632
# Velocity P-wave (km/s) = 5.71428 6.96486 6.37033
#
# Compressibility (1/GPa) = 0.02892532
#
# Stress axis : x y z
#
# Youngs Moduli (GPa) = 139.99551 139.96778 29.44233
#
# Poissons Ratio (x) = -0.13218 0.15613
# Poissons Ratio (y) = -0.13221 0.15619
# Poissons Ratio (z) = 0.74238 0.74253
#
# Static dielectric constant tensor:
#      x y z
#    x 1.779160 0.000000 0.000000 
#    y 0.000000 1.779160 0.000000 
#    z 0.000000 0.000000 1.916420 
# 
# From -- ./inp_files/3019.got.cif
#   From: 2010.05.17/outbox.cif.g08.bks.cpg/sg130_2_cif.got.tgz:3019.got - 2010.05.20 12:17:35.
