data_PCOD9565865
_publ_section_title
;
Structure prediction by ZEFSAII (Michael W. Deem and Ramdas Pophale) SiO2 
 PCOD9565865
Probable space group: P 4/N C C
;
_chemical_formula_sum "Si O2"
_cell_formula_units_Z 108
_cell_length_a 12.647589
_cell_length_b 12.647589
_cell_length_c 26.503597
_cell_angle_alpha 90.000000
_cell_angle_beta 90.000000
_cell_angle_gamma 90.000000
_cell_volume 4239.555331
_symmetry_space_group_name_H-M "P 4/N C C"
_symmetry_group_IT_number 130
_symmetry_cell_setting 'tetragonal'
loop_
_space_group_symop_operation_xyz
x,y,z
1/2-y,x,z
1/2-x,1/2-y,z
y,1/2-x,z
1/2+x,-y,1/2-z
-x,1/2+y,1/2-z
1/2+y,1/2+x,1/2-z
-y,-x,1/2-z
-x,-y,-z
1/2+y,-x,-z
1/2+x,1/2+y,-z
-y,1/2+x,-z
1/2-x,y,1/2+z
x,1/2-y,1/2+z
1/2-y,1/2-x,1/2+z
y,x,1/2+z
loop_
_atom_site_type_symbol
_atom_site_label
_atom_site_fract_x
_atom_site_fract_y
_atom_site_fract_z
Si Si1 0.574384 0.714588 0.084453
Si Si2 0.250000 0.750000 0.250000
Si Si3 0.278996 0.867245 0.084522
Si Si4 0.336043 0.962725 0.492540
Si Si5 0.733603 0.044587 0.182791
Si Si6 0.475156 0.975156 0.750000
Si Si7 0.616388 0.628469 0.428249
Si Si8 0.585177 0.030992 0.842266
O O1 0.670130 0.632249 0.087673
O O2 0.513561 0.731268 0.032376
O O3 0.489955 0.690097 0.128031
O O4 0.347333 0.752055 0.212162
O O5 0.250000 0.750000 0.099746
O O6 0.389699 0.875705 0.053240
O O7 0.301896 0.929493 0.135905
O O8 0.195794 0.895573 0.041506
O O9 0.398762 0.057309 0.519429
O O10 0.634645 0.009628 0.218967
O O11 0.859117 0.020773 0.168652
O O12 0.573578 0.977625 0.788385
O O13 0.742833 0.607366 0.425902
O O14 0.561327 0.561424 0.383507
#
# Coordination Sequence:
#
# PCOD9565865 Si02
#       8
#    16   4  16  16  16   8  16  16
#     4  11  25  44  73 109 154 205 262 325 392 493
#     4  10  26  48  80 108 150 196 254 346 414 492
#     4  12  26  46  73 122 169 217 274 347 414 505
#     4  12  23  46  76 113 169 220 266 333 413 487
#     4  11  25  48  75 112 149 199 265 341 417 496
#     4  11  29  53  81 116 154 204 282 358 417 517
#     4  11  26  47  74 114 162 212 276 335 404 508
#     4  12  27  50  81 116 158 217 275 345 437 494
#
# _framework density 25.47437
#
# number of rings (size 3 to 8) (size 9 to 14) (size 15 to 20)
#    0.000    0.593    4.444    2.222    1.037    8.889 
#    1.333    0.000    0.000    1.778    0.000    0.000 
#    0.000    0.000    0.000    0.000    0.000    0.000 
#
# Total GULP energy -601336.608802 kJ/mol
# GULP energy per Si atom -5567.931563 kJ/mol
# Density = 2.541639 g / cm^3
# Si number density = 25.474370 Si / 1000 Ang^3
#
#
#
# Elastic Constant Matrix: (Units=GPa)
#
#
# Indices 1 2 3 4 5 6 
#
# 1 113.8866 32.5954 56.9901 0.0000 0.0000 0.0000
# 2 32.5954 113.8866 56.9901 0.0000 0.0000 0.0000
# 3 56.9901 56.9901 176.6375 0.0000 0.0000 0.0000
# 4 0.0000 0.0000 0.0000 32.8115 0.0000 0.0000
# 5 0.0000 0.0000 0.0000 0.0000 32.8115 0.0000
# 6 0.0000 0.0000 0.0000 0.0000 0.0000 34.0343
#
#
#
# Elastic Compliance Matrix: (Units=1/GPa)
#
#
# Indices 1 2 3 4 5 6 
#
# 1 0.010708 -0.001593 -0.002941 0.000000 0.000000 0.000000
# 2 -0.001593 0.010708 -0.002941 0.000000 0.000000 0.000000
# 3 -0.002941 -0.002941 0.007559 0.000000 0.000000 0.000000
# 4 0.000000 0.000000 0.000000 0.030477 0.000000 0.000000
# 5 0.000000 0.000000 0.000000 0.000000 0.030477 0.000000
# 6 0.000000 0.000000 0.000000 0.000000 0.000000 0.029382
#
#
# Mechanical properties :
#
#
# Convention : Reuss Voigt Hill
#
# Bulk Modulus (GPa) = 71.29769 77.50686 74.40227
# Shear Modulus (GPa) = 35.98749 37.12045 36.55397
#
# Velocity S-wave (km/s) = 3.76266 3.82143 3.79216
# Velocity P-wave (km/s) = 6.85022 7.06842 6.96018
#
# Compressibility (1/GPa) = 0.01402570
#
# Stress axis : x y z
#
# Youngs Moduli (GPa) = 93.38547 93.38547 132.29250
#
# Poissons Ratio (x) = 0.14878 0.38906
# Poissons Ratio (y) = 0.14878 0.38906
# Poissons Ratio (z) = 0.27464 0.27464
#
# Static dielectric constant tensor:
#      x y z
#    x 2.118690 0.000000 0.000000 
#    y 0.000000 2.118690 0.000000 
#    z 0.000000 0.000000 1.936700 
# 
# From -- ./inp_files/4333.got.cif
#   From: 2010.05.17/outbox.cif.g08.bks.cpg/sg130_3_cif.got.tgz:4333.got - 2010.05.20 12:17:35.
