data_PCOD9565465
_publ_section_title
;
Structure prediction by ZEFSAII (Michael W. Deem and Ramdas Pophale) SiO2 
 PCOD9565465
Probable space group: P 4/N M M
;
_chemical_formula_sum "Si O2"
_cell_formula_units_Z 56
_cell_length_a 13.699115
_cell_length_b 13.699115
_cell_length_c 18.540882
_cell_angle_alpha 90.000000
_cell_angle_beta 90.000000
_cell_angle_gamma 90.000000
_cell_volume 3479.488559
_symmetry_space_group_name_H-M "P 4/N M M"
_symmetry_group_IT_number 129
_symmetry_cell_setting 'tetragonal'
loop_
_space_group_symop_operation_xyz
x,y,z
1/2-y,x,z
1/2-x,1/2-y,z
y,1/2-x,z
1/2+x,-y,-z
-x,1/2+y,-z
1/2+y,1/2+x,-z
-y,-x,-z
-x,-y,-z
1/2+y,-x,-z
1/2+x,1/2+y,-z
-y,1/2+x,-z
1/2-x,y,z
x,1/2-y,z
1/2-y,1/2-x,z
y,x,z
loop_
_atom_site_type_symbol
_atom_site_label
_atom_site_fract_x
_atom_site_fract_y
_atom_site_fract_z
Si Si1 0.634496 0.478323 0.141606
Si Si2 0.471691 0.633453 0.304875
Si Si3 0.134264 0.634264 0.000000
Si Si4 0.028570 0.865983 0.566384
O O1 0.750000 0.488750 0.135411
O O2 0.581534 0.581534 0.138066
O O3 0.615746 0.438080 0.222141
O O4 0.599194 0.415184 0.073835
O O5 0.483467 0.750000 0.315316
O O6 0.573277 0.573277 0.314359
O O7 0.397003 0.587092 0.361618
O O8 0.118218 0.750000 0.994079
O O9 0.092430 0.907571 0.500000
O O10 0.015042 0.750000 0.561353
O O11 0.927267 0.927267 0.565788
#
# Coordination Sequence:
#
# PCOD9565465 Si02
#       4
#    16  16   8  16
#     4   9  17  29  45  65  90 119 150 186 228 273
#     4   9  18  31  47  70  97 124 157 194 233 280
#     4   9  17  28  42  62  87 115 150 190 230 273
#     4  10  21  36  53  74  99 126 158 194 231 274
#
# _framework density 16.094321000000001
#
# number of rings (size 3 to 8) (size 9 to 14) (size 15 to 20)
#    0.000    2.714    0.000    1.286    0.000    4.000 
#    0.000    5.714    0.000    5.143    0.000    0.000 
#    0.000    6.857    0.000    0.000    0.000    0.000 
#
# Total GULP energy -311784.256243 kJ/mol
# GULP energy per Si atom -5567.576004 kJ/mol
# Density = 1.605769 g / cm^3
# Si number density = 16.094321 Si / 1000 Ang^3
#
#
#
# Elastic Constant Matrix: (Units=GPa)
#
#
# Indices 1 2 3 4 5 6 
#
# 1 88.8814 47.0632 60.6032 0.0000 0.0000 0.0000
# 2 47.0632 88.8811 60.6036 0.0000 0.0000 0.0000
# 3 60.6032 60.6036 139.2674 0.0000 0.0000 0.0000
# 4 0.0000 0.0000 0.0000 25.2202 0.0000 0.0000
# 5 0.0000 0.0000 0.0000 0.0000 25.2205 0.0000
# 6 0.0000 0.0000 0.0000 0.0000 0.0000 12.7025
#
#
#
# Elastic Compliance Matrix: (Units=1/GPa)
#
#
# Indices 1 2 3 4 5 6 
#
# 1 0.017966 -0.005947 -0.005230 0.000000 0.000000 0.000000
# 2 -0.005947 0.017966 -0.005230 0.000000 0.000000 0.000000
# 3 -0.005230 -0.005230 0.011732 0.000000 0.000000 0.000000
# 4 0.000000 0.000000 0.000000 0.039651 0.000000 0.000000
# 5 0.000000 0.000000 0.000000 0.000000 0.039650 0.000000
# 6 0.000000 0.000000 0.000000 0.000000 0.000000 0.078725
#
#
# Mechanical properties :
#
#
# Convention : Reuss Voigt Hill
#
# Bulk Modulus (GPa) = 67.34106 72.61887 69.97997
# Shear Modulus (GPa) = 20.53765 22.54598 21.54181
#
# Velocity S-wave (km/s) = 3.57610 3.74687 3.66248
# Velocity P-wave (km/s) = 7.68008 7.99609 7.83968
#
# Compressibility (1/GPa) = 0.01484978
#
# Stress axis : x y z
#
# Youngs Moduli (GPa) = 55.66056 55.65997 85.23402
#
# Poissons Ratio (x) = 0.33101 0.44579
# Poissons Ratio (y) = 0.33101 0.44580
# Poissons Ratio (z) = 0.29111 0.29112
#
# Static dielectric constant tensor:
#      x y z
#    x 1.517280 0.000000 0.000000 
#    y 0.000000 1.517270 0.000000 
#    z 0.000000 0.000000 1.579200 
# 
# From -- ./inp_files/6193.got.cif
#   From: 2010.05.17/outbox.cif.g08.bks.cpg/sg129_4_cif.got.tgz:6193.got - 2010.05.20 12:12:06.
