data_PCOD9565255
_publ_section_title
;
Structure prediction by ZEFSAII (Michael W. Deem and Ramdas Pophale) SiO2 
 PCOD9565255
Probable space group: P 4/N M M
;
_chemical_formula_sum "Si O2"
_cell_formula_units_Z 72
_cell_length_a 19.499972
_cell_length_b 19.499972
_cell_length_c 11.767570
_cell_angle_alpha 90.000000
_cell_angle_beta 90.000000
_cell_angle_gamma 90.000000
_cell_volume 4474.605642
_symmetry_space_group_name_H-M "P 4/N M M"
_symmetry_group_IT_number 129
_symmetry_cell_setting 'tetragonal'
loop_
_space_group_symop_operation_xyz
x,y,z
1/2-y,x,z
1/2-x,1/2-y,z
y,1/2-x,z
1/2+x,-y,-z
-x,1/2+y,-z
1/2+y,1/2+x,-z
-y,-x,-z
-x,-y,-z
1/2+y,-x,-z
1/2+x,1/2+y,-z
-y,1/2+x,-z
1/2-x,y,z
x,1/2-y,z
1/2-y,1/2-x,z
y,x,z
loop_
_atom_site_type_symbol
_atom_site_label
_atom_site_fract_x
_atom_site_fract_y
_atom_site_fract_z
Si Si1 0.169379 0.935373 0.189571
Si Si2 0.054093 0.168733 0.746591
Si Si3 0.941394 0.828316 0.988750
Si Si4 0.048963 0.565747 0.366738
Si Si5 0.830482 0.330482 0.000000
O O1 0.250000 0.930148 0.221806
O O2 0.117825 0.940696 0.293629
O O3 0.148937 0.870381 0.112698
O O4 0.162523 0.998616 0.102187
O O5 0.061968 0.250000 0.722724
O O6 0.124355 0.124355 0.730915
O O7 0.995584 0.131668 0.672448
O O8 0.035096 0.161453 0.880550
O O9 0.916677 0.750000 0.981285
O O10 0.881326 0.881326 0.965824
O O11 0.065771 0.565771 0.500000
O O12 0.999325 0.500676 0.343770
O O13 0.843080 0.250000 0.984237
#
# Coordination Sequence:
#
# PCOD9565255 Si02
#       5
#    16  16  16  16   8
#     4  10  19  31  49  71  93 122 160 197 234 280
#     4   9  18  32  51  75 100 127 158 193 238 288
#     4   9  17  29  47  72  99 125 154 191 237 288
#     4  10  21  35  49  67  94 128 164 202 244 284
#     4   9  18  32  49  70  96 122 147 182 232 285
#
# _framework density 16.090803000000001
#
# number of rings (size 3 to 8) (size 9 to 14) (size 15 to 20)
#    0.000    2.556    0.000    2.000    0.000    4.000 
#    0.000    6.667    0.000    0.000    0.000    1.556 
#    0.000    5.333    0.000    0.000    0.000    0.000 
#
# Total GULP energy -401368.315698 kJ/mol
# GULP energy per Si atom -5574.559940 kJ/mol
# Density = 1.605418 g / cm^3
# Si number density = 16.090803 Si / 1000 Ang^3
#
#
#
# Elastic Constant Matrix: (Units=GPa)
#
#
# Indices 1 2 3 4 5 6 
#
# 1 93.5363 50.1965 62.2321 0.0000 0.0000 0.0000
# 2 50.1965 93.5363 62.2321 0.0000 0.0000 0.0000
# 3 62.2321 62.2321 94.9174 0.0000 0.0000 0.0000
# 4 0.0000 0.0000 0.0000 19.9339 0.0000 0.0000
# 5 0.0000 0.0000 0.0000 0.0000 19.9339 0.0000
# 6 0.0000 0.0000 0.0000 0.0000 0.0000 19.2005
#
#
#
# Elastic Compliance Matrix: (Units=1/GPa)
#
#
# Indices 1 2 3 4 5 6 
#
# 1 0.019585 -0.003489 -0.010553 0.000000 0.000000 0.000000
# 2 -0.003489 0.019585 -0.010553 0.000000 0.000000 0.000000
# 3 -0.010553 -0.010553 0.024374 0.000000 0.000000 0.000000
# 4 0.000000 0.000000 0.000000 0.050166 0.000000 0.000000
# 5 0.000000 0.000000 0.000000 0.000000 0.050166 0.000000
# 6 0.000000 0.000000 0.000000 0.000000 0.000000 0.052082
#
#
# Mechanical properties :
#
#
# Convention : Reuss Voigt Hill
#
# Bulk Modulus (GPa) = 69.67309 70.14571 69.90940
# Shear Modulus (GPa) = 18.52329 18.96895 18.74612
#
# Velocity S-wave (km/s) = 3.39657 3.43719 3.41694
# Velocity P-wave (km/s) = 7.66657 7.70978 7.68820
#
# Compressibility (1/GPa) = 0.01435274
#
# Stress axis : x y z
#
# Youngs Moduli (GPa) = 51.06060 51.06060 41.02803
#
# Poissons Ratio (x) = 0.17814 0.43297
# Poissons Ratio (y) = 0.17814 0.43297
# Poissons Ratio (z) = 0.53885 0.53885
#
# Static dielectric constant tensor:
#      x y z
#    x 1.539460 0.000000 0.000000 
#    y 0.000000 1.539460 0.000000 
#    z 0.000000 0.000000 1.497690 
# 
# From -- ./inp_files/2296.got.cif
#   From: 2010.05.17/outbox.cif.g08.bks.cpg/sg129_2_cif.got.tgz:2296.got - 2010.05.20 12:12:06.
