data_PCOD9565133
_publ_section_title
;
Structure prediction by ZEFSAII (Michael W. Deem and Ramdas Pophale) SiO2 
 PCOD9565133
Probable space group: P 4/N M M
;
_chemical_formula_sum "Si O2"
_cell_formula_units_Z 96
_cell_length_a 19.042746
_cell_length_b 19.042746
_cell_length_c 16.760566
_cell_angle_alpha 90.000000
_cell_angle_beta 90.000000
_cell_angle_gamma 90.000000
_cell_volume 6077.819943
_symmetry_space_group_name_H-M "P 4/N M M"
_symmetry_group_IT_number 129
_symmetry_cell_setting 'tetragonal'
loop_
_space_group_symop_operation_xyz
x,y,z
1/2-y,x,z
1/2-x,1/2-y,z
y,1/2-x,z
1/2+x,-y,-z
-x,1/2+y,-z
1/2+y,1/2+x,-z
-y,-x,-z
-x,-y,-z
1/2+y,-x,-z
1/2+x,1/2+y,-z
-y,1/2+x,-z
1/2-x,y,z
x,1/2-y,z
1/2-y,1/2-x,z
y,x,z
loop_
_atom_site_type_symbol
_atom_site_label
_atom_site_fract_x
_atom_site_fract_y
_atom_site_fract_z
Si Si1 0.666785 0.948677 0.177590
Si Si2 0.498282 0.385312 0.518803
Si Si3 0.667226 0.428822 0.768803
Si Si4 0.947405 0.435285 0.906357
Si Si5 0.828161 0.945608 0.645450
Si Si6 0.056413 0.830740 0.317563
O O1 0.750000 0.940296 0.165429
O O2 0.623716 0.876285 0.175750
O O3 0.630127 0.002158 0.115751
O O4 0.654189 0.989462 0.260932
O O5 0.554048 0.445953 0.500000
O O6 0.425368 0.425368 0.539503
O O7 0.485694 0.341647 0.438286
O O8 0.530574 0.344503 0.593089
O O9 0.750000 0.410111 0.780384
O O10 0.621405 0.434206 0.850049
O O11 0.665859 0.501243 0.719301
O O12 0.622182 0.376221 0.712728
O O13 0.994876 0.505125 0.890305
O O14 0.931860 0.431860 0.000000
O O15 0.750000 0.915634 0.644235
O O16 0.886846 0.886846 0.651831
O O17 0.075301 0.750000 0.306623
#
# Coordination Sequence:
#
# PCOD9565133 Si02
#       6
#    16  16  16  16  16  16
#     4   9  18  31  49  73  99 128 160 196 243 294
#     4  10  18  29  49  73  95 124 166 210 244 280
#     4  10  20  33  50  72  98 128 163 201 244 295
#     4   9  18  33  53  75  98 125 160 202 245 291
#     4  10  20  33  50  73 100 131 167 205 246 292
#     4  10  19  32  49  68  96 130 164 204 246 288
#
# _framework density 15.795137
#
# number of rings (size 3 to 8) (size 9 to 14) (size 15 to 20)
#    0.000    2.333    1.667    1.500    0.000    2.667 
#    0.000    0.000    0.000    0.000    0.000    4.667 
#    0.000    4.000    0.000    0.000    0.000    0.000 
#
# Total GULP energy -534716.064249 kJ/mol
# GULP energy per Si atom -5569.959003 kJ/mol
# Density = 1.575919 g / cm^3
# Si number density = 15.795137 Si / 1000 Ang^3
#
#
#
# Elastic Constant Matrix: (Units=GPa)
#
#
# Indices 1 2 3 4 5 6 
#
# 1 90.7880 53.3786 42.3482 0.0000 0.0000 0.0000
# 2 53.3786 90.7866 42.3474 0.0000 0.0000 0.0000
# 3 42.3482 42.3474 84.6916 0.0000 0.0000 0.0000
# 4 0.0000 0.0000 0.0000 -11.4995 0.0000 0.0000
# 5 0.0000 0.0000 0.0000 0.0000 -11.5296 0.0000
# 6 0.0000 0.0000 0.0000 0.0000 0.0000 8.9481
#
#
#
# Elastic Compliance Matrix: (Units=1/GPa)
#
#
# Indices 1 2 3 4 5 6 
#
# 1 0.018277 -0.008455 -0.004911 0.000000 0.000000 0.000000
# 2 -0.008455 0.018277 -0.004911 0.000000 0.000000 0.000000
# 3 -0.004911 -0.004911 0.016719 0.000000 0.000000 0.000000
# 4 0.000000 0.000000 0.000000 -0.086960 0.000000 0.000000
# 5 0.000000 0.000000 0.000000 0.000000 -0.086733 0.000000
# 6 0.000000 0.000000 0.000000 0.000000 0.000000 0.111755
#
#
# Mechanical properties :
#
#
# Convention : Reuss Voigt Hill
#
# Bulk Modulus (GPa) = 59.81614 60.26829 60.04221
# Shear Modulus (GPa) = 149.42806 5.72993 77.57900
#
# Velocity S-wave (km/s) = 9.73700 1.90671 7.01587
# Velocity P-wave (km/s) = 12.82047 6.56403 10.18457
#
# Compressibility (1/GPa) = 0.01671790
#
# Stress axis : x y z
#
# Youngs Moduli (GPa) = 54.71472 54.71423 59.81281
#
# Poissons Ratio (x) = 0.46261 0.29375
# Poissons Ratio (y) = 0.46262 0.29374
# Poissons Ratio (z) = 0.26871 0.26870
#
# Static dielectric constant tensor:
#      x y z
#    x 1.521900 0.000000 0.000000 
#    y 0.000000 1.521900 0.000000 
#    z 0.000000 0.000000 1.547160 
# 
# From -- ./inp_files/5651.got.cif
#   From: 2010.05.17/outbox.cif.g08.bks.cpg/sg129_3_cif.got.tgz:5651.got - 2010.05.20 12:12:06.
