data_PCOD9565168
_publ_section_title
;
Structure prediction by ZEFSAII (Michael W. Deem and Ramdas Pophale) SiO2 
 PCOD9565168
Probable space group: P 4/N M M
;
_chemical_formula_sum "Si O2"
_cell_formula_units_Z 112
_cell_length_a 23.969029
_cell_length_b 23.969029
_cell_length_c 11.382055
_cell_angle_alpha 90.000000
_cell_angle_beta 90.000000
_cell_angle_gamma 90.000000
_cell_volume 6539.153944
_symmetry_space_group_name_H-M "P 4/N M M"
_symmetry_group_IT_number 129
_symmetry_cell_setting 'tetragonal'
loop_
_space_group_symop_operation_xyz
x,y,z
1/2-y,x,z
1/2-x,1/2-y,z
y,1/2-x,z
1/2+x,-y,-z
-x,1/2+y,-z
1/2+y,1/2+x,-z
-y,-x,-z
-x,-y,-z
1/2+y,-x,-z
1/2+x,1/2+y,-z
-y,1/2+x,-z
1/2-x,y,z
x,1/2-y,z
1/2-y,1/2-x,z
y,x,z
loop_
_atom_site_type_symbol
_atom_site_label
_atom_site_fract_x
_atom_site_fract_y
_atom_site_fract_z
Si Si1 0.018636 0.633575 0.062940
Si Si2 0.520825 0.685302 0.398219
Si Si3 0.023109 0.567523 0.833482
Si Si4 0.092199 0.315736 0.832373
Si Si5 0.685234 0.133107 0.613740
Si Si6 0.186388 0.591162 0.759187
Si Si7 0.611575 0.030105 0.570618
O O1 0.029077 0.577180 0.139834
O O2 0.066994 0.673342 0.112868
O O3 0.958736 0.660066 0.089515
O O4 0.026101 0.616872 0.928260
O O5 0.522022 0.750000 0.439864
O O6 0.568906 0.678951 0.300988
O O7 0.462300 0.677459 0.326418
O O8 0.520714 0.637480 0.496822
O O9 0.019792 0.588473 0.700448
O O10 0.969295 0.530706 0.861691
O O11 0.100309 0.250000 0.855973
O O12 0.146717 0.353284 0.848734
O O13 0.671210 0.171210 0.500000
O O14 0.750000 0.136013 0.642447
O O15 0.642927 0.150161 0.717038
O O16 0.664620 0.071628 0.579418
O O17 0.250000 0.608108 0.747688
O O18 0.563477 0.063477 0.500000
#
# Coordination Sequence:
#
# PCOD9565168 Si02
#       7
#    16  16  16  16  16  16  16
#     4  10  19  37  55  75 105 139 177 216 263 323
#     4   9  17  31  50  72 103 140 174 211 257 315
#     4  11  22  34  55  79 103 136 175 220 264 315
#     4  10  20  35  58  84 109 141 178 221 275 331
#     4  11  20  31  48  75 109 146 184 229 272 311
#     4  10  18  32  53  74 101 139 183 224 262 308
#     4  11  19  32  50  76 109 139 174 217 269 320
#
# _framework density 17.127597000000002
#
# number of rings (size 3 to 8) (size 9 to 14) (size 15 to 20)
#    0.000    1.714    4.286    4.714    0.000    2.000 
#    0.000    2.857    0.000    0.000    0.000    0.000 
#    0.000    0.000    0.000    3.571    0.000    0.000 
#
# Total GULP energy -624696.154075 kJ/mol
# GULP energy per Si atom -5577.644233 kJ/mol
# Density = 1.708861 g / cm^3
# Si number density = 17.127597 Si / 1000 Ang^3
#
#
#
# Elastic Constant Matrix: (Units=GPa)
#
#
# Indices 1 2 3 4 5 6 
#
# 1 55.4075 37.0382 15.8322 0.0000 0.0000 0.0000
# 2 37.0382 55.4075 15.8322 0.0000 0.0000 0.0000
# 3 15.8322 15.8322 70.8247 0.0000 0.0000 0.0000
# 4 0.0000 0.0000 0.0000 14.4086 0.0000 0.0000
# 5 0.0000 0.0000 0.0000 0.0000 14.4086 0.0000
# 6 0.0000 0.0000 0.0000 0.0000 0.0000 14.3691
#
#
#
# Elastic Compliance Matrix: (Units=1/GPa)
#
#
# Indices 1 2 3 4 5 6 
#
# 1 0.033076 -0.021362 -0.002619 0.000000 0.000000 0.000000
# 2 -0.021362 0.033076 -0.002619 0.000000 0.000000 0.000000
# 3 -0.002619 -0.002619 0.015290 0.000000 0.000000 0.000000
# 4 0.000000 0.000000 0.000000 0.069403 0.000000 0.000000
# 5 0.000000 0.000000 0.000000 0.000000 0.069403 0.000000
# 6 0.000000 0.000000 0.000000 0.000000 0.000000 0.069594
#
#
# Mechanical properties :
#
#
# Convention : Reuss Voigt Hill
#
# Bulk Modulus (GPa) = 35.40582 35.44942 35.42762
# Shear Modulus (GPa) = 14.18618 16.16641 15.17629
#
# Velocity S-wave (km/s) = 2.88108 3.07560 2.97993
# Velocity P-wave (km/s) = 5.63774 5.77534 5.70696
#
# Compressibility (1/GPa) = 0.02824395
#
# Stress axis : x y z
#
# Youngs Moduli (GPa) = 30.23313 30.23313 65.40191
#
# Poissons Ratio (x) = 0.64585 0.17126
# Poissons Ratio (y) = 0.64585 0.17126
# Poissons Ratio (z) = 0.07917 0.07917
#
# Static dielectric constant tensor:
#      x y z
#    x 1.590760 0.000000 0.000000 
#    y 0.000000 1.590760 0.000000 
#    z 0.000000 0.000000 1.618280 
# 
# From -- ./inp_files/4130.got.cif
#   From: 2010.05.17/outbox.cif.g08.bks.cpg/sg129_3_cif.got.tgz:4130.got - 2010.05.20 12:12:06.
