data_PCOD9565933
_publ_section_title
;
Structure prediction by ZEFSAII (Michael W. Deem and Ramdas Pophale) SiO2 
 PCOD9565933
Probable space group: P 4/N C C
;
_chemical_formula_sum "Si O2"
_cell_formula_units_Z 120
_cell_length_a 26.960979
_cell_length_b 26.960979
_cell_length_c 8.116425
_cell_angle_alpha 90.000000
_cell_angle_beta 90.000000
_cell_angle_gamma 90.000000
_cell_volume 5899.783788
_symmetry_space_group_name_H-M "P 4/N C C"
_symmetry_group_IT_number 130
_symmetry_cell_setting 'tetragonal'
loop_
_space_group_symop_operation_xyz
x,y,z
1/2-y,x,z
1/2-x,1/2-y,z
y,1/2-x,z
1/2+x,-y,1/2-z
-x,1/2+y,1/2-z
1/2+y,1/2+x,1/2-z
-y,-x,1/2-z
-x,-y,-z
1/2+y,-x,-z
1/2+x,1/2+y,-z
-y,1/2+x,-z
1/2-x,y,1/2+z
x,1/2-y,1/2+z
1/2-y,1/2-x,1/2+z
y,x,1/2+z
loop_
_atom_site_type_symbol
_atom_site_label
_atom_site_fract_x
_atom_site_fract_y
_atom_site_fract_z
Si Si1 0.220817 0.001373 0.705415
Si Si2 0.022719 0.551394 0.067750
Si Si3 0.925858 0.849957 0.204748
Si Si4 0.134962 0.057425 0.910542
Si Si5 0.327617 0.280498 0.351553
Si Si6 0.030929 0.821279 0.109858
Si Si7 0.741407 0.602716 0.866542
Si Si8 0.413100 0.913100 0.750000
O O1 0.180834 0.029559 0.821617
O O2 0.241070 0.047633 0.596233
O O3 0.193913 0.963298 0.581541
O O4 0.269186 0.977789 0.792618
O O5 0.046832 0.546832 0.250000
O O6 0.977896 0.588005 0.105095
O O7 0.055493 0.572402 0.914997
O O8 0.000000 0.500000 0.000000
O O9 0.939118 0.856070 0.395643
O O10 0.885260 0.889707 0.153275
O O11 0.905380 0.793959 0.206820
O O12 0.978376 0.851645 0.112308
O O13 0.276679 0.309282 0.352262
O O14 0.365268 0.287792 0.500697
O O15 0.361392 0.285739 0.190069
O O16 0.071412 0.856939 0.195906
#
# Coordination Sequence:
#
# PCOD9565933 Si02
#       8
#    16  16  16  16  16  16  16   8
#     4  11  24  42  66  91 132 174 215 281 343 414
#     4  12  23  40  65  96 139 183 227 283 342 407
#     4  11  23  37  58  88 122 163 225 273 330 410
#     4  12  23  39  61  93 127 175 224 275 345 403
#     4  11  24  38  52  72 101 142 202 279 348 398
#     4  11  23  45  65  97 133 178 223 279 340 410
#     4  11  23  38  58  77 108 152 209 268 340 391
#     4  12  24  44  70 100 136 183 234 276 346 427
#
# _framework density 20.339728999999998
#
# number of rings (size 3 to 8) (size 9 to 14) (size 15 to 20)
#    0.000    0.667    2.000    8.000    5.600    1.067 
#    0.000    0.000    0.000    0.000    0.000    0.000 
#    0.000    1.600    0.000    0.000    0.000    0.000 
#
# Total GULP energy -670191.950546 kJ/mol
# GULP energy per Si atom -5584.932921 kJ/mol
# Density = 2.029344 g / cm^3
# Si number density = 20.339729 Si / 1000 Ang^3
#
#
#
# Elastic Constant Matrix: (Units=GPa)
#
#
# Indices 1 2 3 4 5 6 
#
# 1 70.9770 32.1022 5.0735 0.0000 0.0000 0.0000
# 2 32.1022 70.9770 5.0735 0.0000 0.0000 0.0000
# 3 5.0735 5.0735 81.2324 0.0000 0.0000 0.0000
# 4 0.0000 0.0000 0.0000 26.6100 0.0000 0.0000
# 5 0.0000 0.0000 0.0000 0.0000 26.6100 0.0000
# 6 0.0000 0.0000 0.0000 0.0000 0.0000 31.1864
#
#
#
# Elastic Compliance Matrix: (Units=1/GPa)
#
#
# Indices 1 2 3 4 5 6 
#
# 1 0.017742 -0.007981 -0.000610 0.000000 0.000000 0.000000
# 2 -0.007981 0.017742 -0.000610 0.000000 0.000000 0.000000
# 3 -0.000610 -0.000610 0.012387 0.000000 0.000000 0.000000
# 4 0.000000 0.000000 0.000000 0.037580 0.000000 0.000000
# 5 0.000000 0.000000 0.000000 0.000000 0.037580 0.000000
# 6 0.000000 0.000000 0.000000 0.000000 0.000000 0.032065
#
#
# Mechanical properties :
#
#
# Convention : Reuss Voigt Hill
#
# Bulk Modulus (GPa) = 33.93228 34.18720 34.05974
# Shear Modulus (GPa) = 27.27461 28.94377 28.10919
#
# Velocity S-wave (km/s) = 3.66587 3.77638 3.72154
# Velocity P-wave (km/s) = 5.88533 5.98827 5.93702
#
# Compressibility (1/GPa) = 0.02947046
#
# Stress axis : x y z
#
# Youngs Moduli (GPa) = 56.36203 56.36203 80.73299
#
# Poissons Ratio (x) = 0.44983 0.04922
# Poissons Ratio (y) = 0.44983 0.04922
# Poissons Ratio (z) = 0.03436 0.03436
#
# Static dielectric constant tensor:
#      x y z
#    x 1.804570 0.000000 0.000000 
#    y 0.000000 1.804570 0.000000 
#    z 0.000000 0.000000 1.875190 
# 
# From -- ./inp_files/1084.got.cif
#   From: 2010.05.17/outbox.cif.g08.bks.cpg/sg130_1_cif.got.tgz:1084.got - 2010.05.20 12:17:35.
