data_PCOD9565008
_publ_section_title
;
Structure prediction by ZEFSAII (Michael W. Deem and Ramdas Pophale) SiO2 
 PCOD9565008
Probable space group: P 4/M N C
;
_chemical_formula_sum "Si O2"
_cell_formula_units_Z 58
_cell_length_a 17.569671
_cell_length_b 17.569671
_cell_length_c 9.447018
_cell_angle_alpha 90.000000
_cell_angle_beta 90.000000
_cell_angle_gamma 90.000000
_cell_volume 2916.231530
_symmetry_space_group_name_H-M "P 4/M N C"
_symmetry_group_IT_number 128
_symmetry_cell_setting 'tetragonal'
loop_
_space_group_symop_operation_xyz
x,y,z
-y,x,z
-x,-y,z
y,-x,z
1/2+x,1/2-y,1/2-z
1/2-x,1/2+y,1/2-z
1/2+y,1/2+x,1/2-z
1/2-y,1/2-x,1/2-z
-x,-y,-z
y,-x,-z
x,y,-z
-y,x,-z
1/2-x,1/2+y,1/2+z
1/2+x,1/2-y,1/2+z
1/2-y,1/2-x,1/2+z
1/2+y,1/2+x,1/2+z
loop_
_atom_site_type_symbol
_atom_site_label
_atom_site_fract_x
_atom_site_fract_y
_atom_site_fract_z
Si Si1 0.297077 0.266298 0.500000
Si Si2 0.500000 0.500000 0.500000
Si Si3 0.190389 0.309612 0.250000
Si Si4 0.194053 0.589967 0.000000
Si Si5 0.526809 0.682203 0.500000
Si Si6 0.409916 0.013986 0.000000
Si Si7 0.791212 0.522680 0.741814
O O1 0.255785 0.300828 0.364767
O O2 0.277925 0.176326 0.500000
O O3 0.386469 0.285316 0.500000
O O4 0.524077 0.591643 0.500000
O O5 0.200843 0.394421 0.189144
O O6 0.213865 0.542307 0.859976
O O7 0.103819 0.598912 0.000000
O O8 0.486509 0.719435 0.637195
O O9 0.500000 0.000000 0.000000
O O10 0.364976 0.985225 0.138822
#
# Coordination Sequence:
#
# PCOD9565008 Si02
#       7
#     8   2   8   8   8   8  16
#     4  12  24  42  65  91 129 173 220 272 335 393
#     4  12  24  44  76  94 108 180 236 306 336 364
#     4  12  24  40  63  90 129 176 214 264 326 394
#     4  12  23  38  66  96 132 172 211 266 339 405
#     4  11  24  44  67  92 127 163 232 285 328 392
#     4  11  22  38  63  95 137 177 209 257 325 414
#     4  11  23  41  62  96 136 167 221 270 323 410
#
# _framework density 19.888681999999999
#
# number of rings (size 3 to 8) (size 9 to 14) (size 15 to 20)
#    0.000    0.552    2.759    8.276    0.000    1.103 
#    0.000    0.000    0.000    0.828    0.000    0.000 
#    0.000    0.000    0.000    0.000    0.000    0.000 
#
# Total GULP energy -323794.936274 kJ/mol
# GULP energy per Si atom -5582.671315 kJ/mol
# Density = 1.984341 g / cm^3
# Si number density = 19.888682 Si / 1000 Ang^3
#
#
#
# Elastic Constant Matrix: (Units=GPa)
#
#
# Indices 1 2 3 4 5 6 
#
# 1 133.3016 3.7251 24.8073 0.0000 0.0000 0.0000
# 2 3.7251 133.3013 24.8064 0.0000 0.0000 0.0000
# 3 24.8073 24.8064 79.3670 0.0000 0.0000 0.0000
# 4 0.0000 0.0000 0.0000 24.3842 0.0000 0.0000
# 5 0.0000 0.0000 0.0000 0.0000 24.3843 0.0000
# 6 0.0000 0.0000 0.0000 0.0000 0.0000 24.9753
#
#
#
# Elastic Compliance Matrix: (Units=1/GPa)
#
#
# Indices 1 2 3 4 5 6 
#
# 1 0.007973 0.000256 -0.002572 0.000000 0.000000 0.000000
# 2 0.000256 0.007973 -0.002572 0.000000 0.000000 0.000000
# 3 -0.002572 -0.002572 0.014208 0.000000 0.000000 0.000000
# 4 0.000000 0.000000 0.000000 0.041010 0.000000 0.000000
# 5 0.000000 0.000000 0.000000 0.000000 0.041010 0.000000
# 6 0.000000 0.000000 0.000000 0.000000 0.000000 0.040040
#
#
# Mechanical properties :
#
#
# Convention : Reuss Voigt Hill
#
# Bulk Modulus (GPa) = 49.07380 50.29418 49.68399
# Shear Modulus (GPa) = 29.62383 34.25749 31.94066
#
# Velocity S-wave (km/s) = 3.86357 4.15476 4.01181
# Velocity P-wave (km/s) = 6.68062 6.95405 6.81870
#
# Compressibility (1/GPa) = 0.02037747
#
# Stress axis : x y z
#
# Youngs Moduli (GPa) = 125.41842 125.41866 70.38504
#
# Poissons Ratio (x) = -0.03209 0.18104
# Poissons Ratio (y) = -0.03209 0.18103
# Poissons Ratio (z) = 0.32259 0.32258
#
# Static dielectric constant tensor:
#      x y z
#    x 1.657910 0.000000 0.000000 
#    y 0.000000 1.657900 0.000000 
#    z 0.000000 0.000000 1.701810 
# 
# From -- ./inp_files/866.got.cif
#   From: 2010.05.17/outbox.cif.g08.bks.cpg/sg128_1_cif.got.tgz:866.got - 2010.05.20 12:07:25.
