data_PCOD9565818
_publ_section_title
;
Structure prediction by ZEFSAII (Michael W. Deem and Ramdas Pophale) SiO2 
 PCOD9565818
Probable space group: P 4/N C C
;
_chemical_formula_sum "Si O2"
_cell_formula_units_Z 64
_cell_length_a 13.468054
_cell_length_b 13.468054
_cell_length_c 16.054095
_cell_angle_alpha 90.000000
_cell_angle_beta 90.000000
_cell_angle_gamma 90.000000
_cell_volume 2912.027866
_symmetry_space_group_name_H-M "P 4/N C C"
_symmetry_group_IT_number 130
_symmetry_cell_setting 'tetragonal'
loop_
_space_group_symop_operation_xyz
x,y,z
1/2-y,x,z
1/2-x,1/2-y,z
y,1/2-x,z
1/2+x,-y,1/2-z
-x,1/2+y,1/2-z
1/2+y,1/2+x,1/2-z
-y,-x,1/2-z
-x,-y,-z
1/2+y,-x,-z
1/2+x,1/2+y,-z
-y,1/2+x,-z
1/2-x,y,1/2+z
x,1/2-y,1/2+z
1/2-y,1/2-x,1/2+z
y,x,1/2+z
loop_
_atom_site_type_symbol
_atom_site_label
_atom_site_fract_x
_atom_site_fract_y
_atom_site_fract_z
Si Si1 0.356610 0.483205 0.723567
Si Si2 0.766885 0.916545 0.019963
Si Si3 0.574362 0.994084 0.419971
Si Si4 0.483938 0.328945 0.816467
O O1 0.425239 0.574762 0.750000
O O2 0.395110 0.451396 0.632811
O O3 0.388430 0.388647 0.781338
O O4 0.243231 0.511175 0.740344
O O5 0.666507 0.853044 0.014580
O O6 0.747847 0.968977 0.107673
O O7 0.813279 0.993086 0.954279
O O8 0.500000 0.000000 0.500000
O O9 0.551307 0.084451 0.356300
#
# Coordination Sequence:
#
# PCOD9565818 Si02
#       4
#    16  16  16  16
#     4  10  23  40  64 101 136 190 237 303 366 443
#     4  11  21  37  65 102 138 183 241 305 365 433
#     4  11  23  41  66 105 144 185 234 309 372 433
#     4  11  21  42  69  99 147 185 240 303 378 431
#
# _framework density 21.977812
#
# number of rings (size 3 to 8) (size 9 to 14) (size 15 to 20)
#    0.000    1.250    5.000    1.500    3.500    0.500 
#    0.000    0.000    0.000   16.500    0.000    0.000 
#    0.000    0.000    0.000    0.000    0.000    0.000 
#
# Total GULP energy -356534.379745 kJ/mol
# GULP energy per Si atom -5570.849684 kJ/mol
# Density = 2.192779 g / cm^3
# Si number density = 21.977812 Si / 1000 Ang^3
#
#
#
# Elastic Constant Matrix: (Units=GPa)
#
#
# Indices 1 2 3 4 5 6 
#
# 1 87.1851 37.8679 51.1368 0.0000 0.0000 0.0000
# 2 37.8679 87.1876 51.1360 0.0000 0.0000 0.0000
# 3 51.1368 51.1360 138.1341 0.0000 0.0000 0.0000
# 4 0.0000 0.0000 0.0000 45.3235 0.0000 0.0000
# 5 0.0000 0.0000 0.0000 0.0000 45.3238 0.0000
# 6 0.0000 0.0000 0.0000 0.0000 0.0000 23.4606
#
#
#
# Elastic Compliance Matrix: (Units=1/GPa)
#
#
# Indices 1 2 3 4 5 6 
#
# 1 0.015873 -0.004404 -0.004246 0.000000 0.000000 0.000000
# 2 -0.004404 0.015872 -0.004245 0.000000 0.000000 0.000000
# 3 -0.004246 -0.004245 0.010383 0.000000 0.000000 0.000000
# 4 0.000000 0.000000 0.000000 0.022064 0.000000 0.000000
# 5 0.000000 0.000000 0.000000 0.000000 0.022063 0.000000
# 6 0.000000 0.000000 0.000000 0.000000 0.000000 0.042625
#
#
# Mechanical properties :
#
#
# Convention : Reuss Voigt Hill
#
# Bulk Modulus (GPa) = 61.20839 65.86536 63.53688
# Shear Modulus (GPa) = 31.22740 34.31265 32.77002
#
# Velocity S-wave (km/s) = 3.77352 3.95554 3.86560
# Velocity P-wave (km/s) = 6.84810 7.13413 6.99258
#
# Compressibility (1/GPa) = 0.01633763
#
# Stress axis : x y z
#
# Youngs Moduli (GPa) = 63.00042 63.00319 96.31340
#
# Poissons Ratio (x) = 0.27745 0.40893
# Poissons Ratio (y) = 0.27744 0.40890
# Poissons Ratio (z) = 0.26749 0.26748
#
# Static dielectric constant tensor:
#      x y z
#    x 1.856060 0.000000 0.000000 
#    y 0.000000 1.856070 0.000000 
#    z 0.000000 0.000000 1.927100 
# 
# From -- ./inp_files/2165.got.cif
#   From: 2010.05.17/outbox.cif.g08.bks.cpg/sg130_2_cif.got.tgz:2165.got - 2010.05.20 12:17:35.
