data_PCOD9565957
_publ_section_title
;
Structure prediction by ZEFSAII (Michael W. Deem and Ramdas Pophale) SiO2 
 PCOD9565957
Probable space group: P 4/N C C
;
_chemical_formula_sum "Si O2"
_cell_formula_units_Z 116
_cell_length_a 17.917551
_cell_length_b 17.917551
_cell_length_c 18.568916
_cell_angle_alpha 90.000000
_cell_angle_beta 90.000000
_cell_angle_gamma 90.000000
_cell_volume 5961.339424
_symmetry_space_group_name_H-M "P 4/N C C"
_symmetry_group_IT_number 130
_symmetry_cell_setting 'tetragonal'
loop_
_space_group_symop_operation_xyz
x,y,z
1/2-y,x,z
1/2-x,1/2-y,z
y,1/2-x,z
1/2+x,-y,1/2-z
-x,1/2+y,1/2-z
1/2+y,1/2+x,1/2-z
-y,-x,1/2-z
-x,-y,-z
1/2+y,-x,-z
1/2+x,1/2+y,-z
-y,1/2+x,-z
1/2-x,y,1/2+z
x,1/2-y,1/2+z
1/2-y,1/2-x,1/2+z
y,x,1/2+z
loop_
_atom_site_type_symbol
_atom_site_label
_atom_site_fract_x
_atom_site_fract_y
_atom_site_fract_z
Si Si1 0.991967 0.134163 0.674766
Si Si2 0.529690 0.576199 0.543337
Si Si3 0.048260 0.720156 0.414876
Si Si4 0.181542 0.696123 0.165073
Si Si5 0.267030 0.953464 0.424979
Si Si6 0.503831 0.126294 0.344462
Si Si7 0.750000 0.750000 0.905553
Si Si8 0.607810 0.635440 0.916532
O O1 0.070465 0.106180 0.643207
O O2 0.973506 0.208911 0.632514
O O3 0.921622 0.081008 0.655727
O O4 0.003965 0.143803 0.760046
O O5 0.500000 0.500000 0.500000
O O6 0.477082 0.646739 0.562249
O O7 0.566699 0.550799 0.617964
O O8 0.590990 0.613905 0.491477
O O9 0.117913 0.684380 0.375361
O O10 0.071147 0.740260 0.496159
O O11 0.973347 0.672435 0.418126
O O12 0.250000 0.750000 0.146386
O O13 0.183158 0.683158 0.250000
O O14 0.108719 0.735935 0.136308
O O15 0.200813 0.005761 0.393301
O O16 0.674467 0.694541 0.906282
#
# Coordination Sequence:
#
# PCOD9565957 Si02
#       8
#    16  16  16  16  16  16   4  16
#     4  11  24  44  67  97 137 185 223 286 368 423
#     4  12  23  45  69 104 138 177 240 293 352 427
#     4  12  24  41  71  98 134 179 235 284 344 425
#     4  11  27  45  65 100 146 183 224 287 355 425
#     4  12  25  41  69 102 132 182 233 287 345 414
#     4  11  25  43  68  97 139 178 228 292 358 429
#     4  12  24  44  72 102 136 184 244 294 356 424
#     4  12  23  44  71 101 135 184 236 291 356 423
#
# _framework density 19.458712999999999
#
# number of rings (size 3 to 8) (size 9 to 14) (size 15 to 20)
#    0.000    0.414    5.517    2.483    3.862    4.414 
#    0.000    0.000    0.000    0.828    0.000    0.000 
#    0.000    0.000    0.000    0.000    0.000    0.000 
#
# Total GULP energy -645842.805135 kJ/mol
# GULP energy per Si atom -5567.610389 kJ/mol
# Density = 1.941442 g / cm^3
# Si number density = 19.458713 Si / 1000 Ang^3
#
#
#
# Elastic Constant Matrix: (Units=GPa)
#
#
# Indices 1 2 3 4 5 6 
#
# 1 87.0287 18.4662 13.4390 0.0000 0.0000 0.0000
# 2 18.4662 87.0287 13.4390 0.0000 0.0000 0.0000
# 3 13.4390 13.4390 70.7063 0.0000 0.0000 0.0000
# 4 0.0000 0.0000 0.0000 44.2252 0.0000 0.0000
# 5 0.0000 0.0000 0.0000 0.0000 44.2252 0.0000
# 6 0.0000 0.0000 0.0000 0.0000 0.0000 30.3822
#
#
#
# Elastic Compliance Matrix: (Units=1/GPa)
#
#
# Indices 1 2 3 4 5 6 
#
# 1 0.012273 -0.002312 -0.001893 0.000000 0.000000 0.000000
# 2 -0.002312 0.012273 -0.001893 0.000000 0.000000 0.000000
# 3 -0.001893 -0.001893 0.014863 0.000000 0.000000 0.000000
# 4 0.000000 0.000000 0.000000 0.022612 0.000000 0.000000
# 5 0.000000 0.000000 0.000000 0.000000 0.022612 0.000000
# 6 0.000000 0.000000 0.000000 0.000000 0.000000 0.032914
#
#
# Mechanical properties :
#
#
# Convention : Reuss Voigt Hill
#
# Bulk Modulus (GPa) = 36.74805 37.27246 37.01026
# Shear Modulus (GPa) = 36.01927 37.06115 36.54021
#
# Velocity S-wave (km/s) = 4.30706 4.36891 4.33810
# Velocity P-wave (km/s) = 6.60761 6.68177 6.64480
#
# Compressibility (1/GPa) = 0.02721233
#
# Stress axis : x y z
#
# Youngs Moduli (GPa) = 81.47711 81.47711 67.28225
#
# Poissons Ratio (x) = 0.18836 0.12739
# Poissons Ratio (y) = 0.18836 0.12739
# Poissons Ratio (z) = 0.15427 0.15427
#
# Static dielectric constant tensor:
#      x y z
#    x 1.831330 0.000000 0.000000 
#    y 0.000000 1.831330 0.000000 
#    z 0.000000 0.000000 1.662360 
# 
# From -- ./inp_files/3226.got.cif
#   From: 2010.05.17/outbox.cif.g08.bks.cpg/sg130_2_cif.got.tgz:3226.got - 2010.05.20 12:17:35.
