data_PCOD9565289
_publ_section_title
;
Structure prediction by ZEFSAII (Michael W. Deem and Ramdas Pophale) SiO2 
 PCOD9565289
Probable space group: P 4/N M M
;
_chemical_formula_sum "Si O2"
_cell_formula_units_Z 112
_cell_length_a 18.102863
_cell_length_b 18.102863
_cell_length_c 21.811674
_cell_angle_alpha 90.000000
_cell_angle_beta 90.000000
_cell_angle_gamma 90.000000
_cell_volume 7147.983273
_symmetry_space_group_name_H-M "P 4/N M M"
_symmetry_group_IT_number 129
_symmetry_cell_setting 'tetragonal'
loop_
_space_group_symop_operation_xyz
x,y,z
1/2-y,x,z
1/2-x,1/2-y,z
y,1/2-x,z
1/2+x,-y,-z
-x,1/2+y,-z
1/2+y,1/2+x,-z
-y,-x,-z
-x,-y,-z
1/2+y,-x,-z
1/2+x,1/2+y,-z
-y,1/2+x,-z
1/2-x,y,z
x,1/2-y,z
1/2-y,1/2-x,z
y,x,z
loop_
_atom_site_type_symbol
_atom_site_label
_atom_site_fract_x
_atom_site_fract_y
_atom_site_fract_z
Si Si1 0.663253 0.544522 0.921151
Si Si2 0.939596 0.435925 0.848777
Si Si3 0.336785 0.040015 0.626177
Si Si4 0.336816 0.943293 0.965261
Si Si5 0.961108 0.662720 0.633984
Si Si6 0.164244 0.539438 0.496659
Si Si7 0.434325 0.560971 0.709227
O O1 0.750000 0.550110 0.912446
O O2 0.621005 0.621005 0.913598
O O3 0.627090 0.486568 0.874010
O O4 0.648005 0.511983 0.989191
O O5 0.951348 0.372523 0.898730
O O6 0.925552 0.411489 0.779324
O O7 0.011159 0.488841 0.849561
O O8 0.250000 0.053260 0.637651
O O9 0.387728 0.112273 0.635586
O O10 0.345744 0.011602 0.556438
O O11 0.369201 0.974701 0.669017
O O12 0.250000 0.933222 0.961112
O O13 0.375050 0.875050 0.000000
O O14 0.947580 0.750000 0.643786
O O15 0.888461 0.611540 0.642270
O O16 0.992099 0.652148 0.564954
O O17 0.025659 0.630847 0.678030
O O18 0.106730 0.606730 0.500000
O O19 0.250000 0.564834 0.496219
O O20 0.498259 0.498259 0.709962
#
# Coordination Sequence:
#
# PCOD9565289 Si02
#       7
#    16  16  16  16  16  16  16
#     4   9  17  29  46  69  96 125 157 193 234 281
#     4   9  17  30  48  69  92 121 157 196 235 274
#     4  10  20  33  51  75 101 129 162 200 243 292
#     4   9  17  29  46  68  92 120 152 190 233 278
#     4  10  20  33  51  74  99 129 163 201 246 293
#     4  10  19  32  52  76 101 132 166 205 248 294
#     4   9  18  32  50  70  94 126 164 202 237 283
#
# _framework density 15.668756
#
# number of rings (size 3 to 8) (size 9 to 14) (size 15 to 20)
#    0.000    2.571    1.429    0.857    0.000    4.143 
#    0.000    0.000    0.000    3.000    0.000    6.000 
#    0.000    3.429    0.000    0.000    0.000    0.000 
#
# Total GULP energy -624034.321257 kJ/mol
# GULP energy per Si atom -5571.735011 kJ/mol
# Density = 1.563309 g / cm^3
# Si number density = 15.668756 Si / 1000 Ang^3
#
#
#
# Elastic Constant Matrix: (Units=GPa)
#
#
# Indices 1 2 3 4 5 6 
#
# 1 72.5595 45.7939 20.8054 0.0000 0.0000 0.0000
# 2 45.7939 72.5595 20.8054 0.0000 0.0000 0.0000
# 3 20.8054 20.8054 103.0118 0.0000 0.0000 0.0000
# 4 0.0000 0.0000 0.0000 6.3843 0.0000 0.0000
# 5 0.0000 0.0000 0.0000 0.0000 6.3843 0.0000
# 6 0.0000 0.0000 0.0000 0.0000 0.0000 15.2159
#
#
#
# Elastic Compliance Matrix: (Units=1/GPa)
#
#
# Indices 1 2 3 4 5 6 
#
# 1 0.023228 -0.014133 -0.001837 0.000000 0.000000 0.000000
# 2 -0.014133 0.023228 -0.001837 0.000000 0.000000 0.000000
# 3 -0.001837 -0.001837 0.010450 0.000000 0.000000 0.000000
# 4 0.000000 0.000000 0.000000 0.156634 0.000000 0.000000
# 5 0.000000 0.000000 0.000000 0.000000 0.156634 0.000000
# 6 0.000000 0.000000 0.000000 0.000000 0.000000 0.065721
#
#
# Mechanical properties :
#
#
# Convention : Reuss Voigt Hill
#
# Bulk Modulus (GPa) = 46.96583 46.99334 46.97958
# Shear Modulus (GPa) = 10.44702 16.31199 13.37951
#
# Velocity S-wave (km/s) = 2.58494 3.23003 2.92532
# Velocity P-wave (km/s) = 6.24087 6.63081 6.43879
#
# Compressibility (1/GPa) = 0.02129208
#
# Stress axis : x y z
#
# Youngs Moduli (GPa) = 43.05107 43.05107 95.69706
#
# Poissons Ratio (x) = 0.60845 0.17579
# Poissons Ratio (y) = 0.60845 0.17579
# Poissons Ratio (z) = 0.07908 0.07908
#
# Static dielectric constant tensor:
#      x y z
#    x 1.503830 0.000000 0.000000 
#    y 0.000000 1.503830 0.000000 
#    z 0.000000 0.000000 1.527450 
# 
# From -- ./inp_files/6662.got.cif
#   From: 2010.05.17/outbox.cif.g08.bks.cpg/sg129_4_cif.got.tgz:6662.got - 2010.05.20 12:12:06.
