data_PCOD9565012
_publ_section_title
;
Structure prediction by ZEFSAII (Michael W. Deem and Ramdas Pophale) SiO2 
 PCOD9565012
Probable space group: P 4/M N C
;
_chemical_formula_sum "Si O2"
_cell_formula_units_Z 40
_cell_length_a 9.896720
_cell_length_b 9.896720
_cell_length_c 21.959377
_cell_angle_alpha 90.000000
_cell_angle_beta 90.000000
_cell_angle_gamma 90.000000
_cell_volume 2150.812646
_symmetry_space_group_name_H-M "P 4/M N C"
_symmetry_group_IT_number 128
_symmetry_cell_setting 'tetragonal'
loop_
_space_group_symop_operation_xyz
x,y,z
-y,x,z
-x,-y,z
y,-x,z
1/2+x,1/2-y,1/2-z
1/2-x,1/2+y,1/2-z
1/2+y,1/2+x,1/2-z
1/2-y,1/2-x,1/2-z
-x,-y,-z
y,-x,-z
x,y,-z
-y,x,-z
1/2-x,1/2+y,1/2+z
1/2+x,1/2-y,1/2+z
1/2-y,1/2-x,1/2+z
1/2+y,1/2+x,1/2+z
loop_
_atom_site_type_symbol
_atom_site_label
_atom_site_fract_x
_atom_site_fract_y
_atom_site_fract_z
Si Si1 0.361793 0.862519 0.321717
Si Si2 0.647316 0.837177 0.871049
Si Si3 0.703259 0.391525 0.000000
O O1 0.383039 0.883039 0.250000
O O2 0.264078 0.738401 0.334562
O O3 0.503223 0.843215 0.357268
O O4 0.295624 0.999696 0.346710
O O5 0.651046 0.788139 0.940619
O O6 0.676837 0.554060 0.000000
#
# Coordination Sequence:
#
# PCOD9565012 Si02
#       3
#    16  16   8
#     4  11  23  41  63  95 128 163 207 253 313 373
#     4  11  23  40  64  92 126 166 204 259 307 365
#     4  11  22  41  65  92 124 163 220 257 305 378
#
# _framework density 18.597622999999999
#
# number of rings (size 3 to 8) (size 9 to 14) (size 15 to 20)
#    0.000    1.000    4.000    4.800    0.000    6.400 
#    0.000    4.000    0.000    2.400    0.000    0.000 
#    0.000    0.000    0.000    0.000    0.000    0.000 
#
# Total GULP energy -223420.920679 kJ/mol
# GULP energy per Si atom -5585.523017 kJ/mol
# Density = 1.855529 g / cm^3
# Si number density = 18.597623 Si / 1000 Ang^3
#
#
#
# Elastic Constant Matrix: (Units=GPa)
#
#
# Indices 1 2 3 4 5 6 
#
# 1 46.0640 75.9110 17.8662 0.0000 0.0000 0.0000
# 2 75.9110 46.0640 17.8662 0.0000 0.0000 0.0000
# 3 17.8662 17.8662 127.9317 0.0000 0.0000 0.0000
# 4 0.0000 0.0000 0.0000 3.0669 0.0000 0.0000
# 5 0.0000 0.0000 0.0000 0.0000 3.0669 0.0000
# 6 0.0000 0.0000 0.0000 0.0000 0.0000 41.5697
#
#
#
# Elastic Compliance Matrix: (Units=1/GPa)
#
#
# Indices 1 2 3 4 5 6 
#
# 1 -0.012478 0.021026 -0.001194 0.000000 0.000000 0.000000
# 2 0.021026 -0.012478 -0.001194 0.000000 0.000000 0.000000
# 3 -0.001194 -0.001194 0.008150 0.000000 0.000000 0.000000
# 4 0.000000 0.000000 0.000000 0.326061 0.000000 0.000000
# 5 0.000000 0.000000 0.000000 0.000000 0.326061 0.000000
# 6 0.000000 0.000000 0.000000 0.000000 0.000000 0.024056
#
#
# Mechanical properties :
#
#
# Convention : Reuss Voigt Hill
#
# Bulk Modulus (GPa) = 48.84908 49.26073 49.05490
# Shear Modulus (GPa) = 7.95016 16.76845 12.35930
#
# Velocity S-wave (km/s) = 2.06981 3.00600 2.58071
# Velocity P-wave (km/s) = 5.65999 6.21234 5.94259
#
# Compressibility (1/GPa) = 0.02047121
#
# Stress axis : x y z
#
# Youngs Moduli (GPa) = -80.14063 -80.14063 122.69779
#
# Poissons Ratio (x) = 1.68505 0.14647
# Poissons Ratio (y) = 1.68505 0.14647
# Poissons Ratio (z) = -0.09567 -0.09567
#
# Static dielectric constant tensor:
#      x y z
#    x 1.628910 0.000000 0.000000 
#    y 0.000000 1.628910 0.000000 
#    z 0.000000 0.000000 1.648750 
# 
# From -- ./inp_files/4257.got.cif
#   From: 2010.05.17/outbox.cif.g08.bks.cpg/sg128_3_cif.got.tgz:4257.got - 2010.05.20 12:07:25.
