data_PCOD9565872
_publ_section_title
;
Structure prediction by ZEFSAII (Michael W. Deem and Ramdas Pophale) SiO2 
 PCOD9565872
Probable space group: P 4/N C C
;
_chemical_formula_sum "Si O2"
_cell_formula_units_Z 96
_cell_length_a 20.933168
_cell_length_b 20.933168
_cell_length_c 12.279467
_cell_angle_alpha 90.000000
_cell_angle_beta 90.000000
_cell_angle_gamma 90.000000
_cell_volume 5380.832017
_symmetry_space_group_name_H-M "P 4/N C C"
_symmetry_group_IT_number 130
_symmetry_cell_setting 'tetragonal'
loop_
_space_group_symop_operation_xyz
x,y,z
1/2-y,x,z
1/2-x,1/2-y,z
y,1/2-x,z
1/2+x,-y,1/2-z
-x,1/2+y,1/2-z
1/2+y,1/2+x,1/2-z
-y,-x,1/2-z
-x,-y,-z
1/2+y,-x,-z
1/2+x,1/2+y,-z
-y,1/2+x,-z
1/2-x,y,1/2+z
x,1/2-y,1/2+z
1/2-y,1/2-x,1/2+z
y,x,1/2+z
loop_
_atom_site_type_symbol
_atom_site_label
_atom_site_fract_x
_atom_site_fract_y
_atom_site_fract_z
Si Si1 0.655708 0.495526 0.988334
Si Si2 0.580769 0.693820 0.288693
Si Si3 0.479434 0.301743 0.941694
Si Si4 0.910893 0.839855 0.840680
Si Si5 0.601266 0.075436 0.128672
Si Si6 0.526098 0.942632 0.179607
O O1 0.660443 0.531456 0.872056
O O2 0.628625 0.426998 0.951733
O O3 0.726346 0.508678 0.037008
O O4 0.602001 0.517966 0.073891
O O5 0.563854 0.683106 0.163340
O O6 0.576005 0.769521 0.297712
O O7 0.646878 0.664812 0.332871
O O8 0.547456 0.333209 0.916444
O O9 0.444453 0.336840 0.042159
O O10 0.937341 0.896612 0.764947
O O11 0.603611 0.103611 0.250000
O O12 0.557301 0.010465 0.141473
O O13 0.464157 0.964157 0.250000
#
# Coordination Sequence:
#
# PCOD9565872 Si02
#       6
#    16  16  16  16  16  16
#     4  11  22  37  60  87 122 161 201 250 316 367
#     4  11  22  39  56  85 120 167 211 256 301 359
#     4  11  22  39  62  85 125 164 203 254 306 373
#     4  11  23  36  58  82 118 166 210 249 302 359
#     4  11  20  36  60  89 119 152 197 251 315 368
#     4  11  20  34  58  91 122 152 199 259 313 373
#
# _framework density 17.841107999999998
#
# number of rings (size 3 to 8) (size 9 to 14) (size 15 to 20)
#    0.000    1.000    5.000    3.500    0.000    0.333 
#    0.000    0.000    0.000    2.500    0.000    1.167 
#    0.000    0.000    0.000    0.000    0.000    0.000 
#
# Total GULP energy -534467.856318 kJ/mol
# GULP energy per Si atom -5567.373503 kJ/mol
# Density = 1.780050 g / cm^3
# Si number density = 17.841108 Si / 1000 Ang^3
#
#
#
# Elastic Constant Matrix: (Units=GPa)
#
#
# Indices 1 2 3 4 5 6 
#
# 1 47.1342 14.3950 21.2665 0.0000 0.0000 0.0000
# 2 14.3950 47.1342 21.2665 0.0000 0.0000 0.0000
# 3 21.2665 21.2665 94.4306 0.0000 0.0000 0.0000
# 4 0.0000 0.0000 0.0000 16.6271 0.0000 0.0000
# 5 0.0000 0.0000 0.0000 0.0000 16.6271 0.0000
# 6 0.0000 0.0000 0.0000 0.0000 0.0000 19.4937
#
#
#
# Elastic Compliance Matrix: (Units=1/GPa)
#
#
# Indices 1 2 3 4 5 6 
#
# 1 0.024897 -0.005648 -0.004335 0.000000 0.000000 0.000000
# 2 -0.005648 0.024897 -0.004335 0.000000 0.000000 0.000000
# 3 -0.004335 -0.004335 0.012542 0.000000 0.000000 0.000000
# 4 0.000000 0.000000 0.000000 0.060143 0.000000 0.000000
# 5 0.000000 0.000000 0.000000 0.000000 0.060143 0.000000
# 6 0.000000 0.000000 0.000000 0.000000 0.000000 0.051299
#
#
# Mechanical properties :
#
#
# Convention : Reuss Voigt Hill
#
# Bulk Modulus (GPa) = 29.67323 33.61720 31.64522
# Shear Modulus (GPa) = 18.26223 19.33431 18.79827
#
# Velocity S-wave (km/s) = 3.20285 3.29552 3.24952
# Velocity P-wave (km/s) = 5.50870 5.77617 5.64402
#
# Compressibility (1/GPa) = 0.03370041
#
# Stress axis : x y z
#
# Youngs Moduli (GPa) = 40.16593 40.16593 79.72986
#
# Poissons Ratio (x) = 0.22684 0.34563
# Poissons Ratio (y) = 0.22684 0.34563
# Poissons Ratio (z) = 0.17412 0.17412
#
# Static dielectric constant tensor:
#      x y z
#    x 1.657270 0.000000 0.000000 
#    y 0.000000 1.657270 0.000000 
#    z 0.000000 0.000000 1.635310 
# 
# From -- ./inp_files/1777.got.cif
#   From: 2010.05.17/outbox.cif.g08.bks.cpg/sg130_1_cif.got.tgz:1777.got - 2010.05.20 12:17:35.
