data_PCOD9565376
_publ_section_title
;
Structure prediction by ZEFSAII (Michael W. Deem and Ramdas Pophale) SiO2 
 PCOD9565376
Probable space group: P 4/N M M
;
_chemical_formula_sum "Si O2"
_cell_formula_units_Z 112
_cell_length_a 13.762411
_cell_length_b 13.762411
_cell_length_c 37.006047
_cell_angle_alpha 90.000000
_cell_angle_beta 90.000000
_cell_angle_gamma 90.000000
_cell_volume 7009.091717
_symmetry_space_group_name_H-M "P 4/N M M"
_symmetry_group_IT_number 129
_symmetry_cell_setting 'tetragonal'
loop_
_space_group_symop_operation_xyz
x,y,z
1/2-y,x,z
1/2-x,1/2-y,z
y,1/2-x,z
1/2+x,-y,-z
-x,1/2+y,-z
1/2+y,1/2+x,-z
-y,-x,-z
-x,-y,-z
1/2+y,-x,-z
1/2+x,1/2+y,-z
-y,1/2+x,-z
1/2-x,y,z
x,1/2-y,z
1/2-y,1/2-x,z
y,x,z
loop_
_atom_site_type_symbol
_atom_site_label
_atom_site_fract_x
_atom_site_fract_y
_atom_site_fract_z
Si Si1 0.135620 0.526141 0.969297
Si Si2 0.133765 0.524637 0.256818
Si Si3 0.635176 0.022977 0.111683
Si Si4 0.633668 0.473777 0.320576
Si Si5 0.366067 0.862352 0.183843
Si Si6 0.361081 0.867505 0.393953
Si Si7 0.526631 0.366649 0.532411
O O1 0.250000 0.507320 0.972561
O O2 0.071566 0.428435 0.973172
O O3 0.116343 0.564800 0.928492
O O4 0.099055 0.599055 0.000000
O O5 0.250000 0.515332 0.259588
O O6 0.108569 0.571101 0.217871
O O7 0.076519 0.423481 0.260885
O O8 0.092560 0.596527 0.287539
O O9 0.750000 0.006648 0.114043
O O10 0.576569 0.923432 0.113941
O O11 0.606454 0.088194 0.145790
O O12 0.750000 0.486431 0.319482
O O13 0.574723 0.574723 0.318811
O O14 0.605871 0.418780 0.357728
O O15 0.250000 0.863706 0.180321
O O16 0.395178 0.750000 0.191005
O O17 0.250000 0.904331 0.394243
O O18 0.355773 0.750000 0.393794
O O19 0.419992 0.893246 0.429996
O O20 0.594278 0.405723 0.500000
O O21 0.514864 0.250000 0.530640
O O22 0.425433 0.425433 0.530376
#
# Coordination Sequence:
#
# PCOD9565376 Si02
#       7
#    16  16  16  16  16  16  16
#     4   9  18  31  46  66  91 119 152 189 229 273
#     4  10  20  33  50  71  94 123 159 198 240 283
#     4   9  17  29  45  65  90 118 147 181 221 267
#     4  10  20  33  50  73 100 130 164 200 240 287
#     4   9  17  29  46  68  92 118 150 187 227 273
#     4   9  17  30  49  71  95 125 161 200 239 279
#     4  10  20  33  50  73 100 131 168 208 251 299
#
# _framework density 15.979245000000001
#
# number of rings (size 3 to 8) (size 9 to 14) (size 15 to 20)
#    0.000    2.571    0.000    2.143    0.000    3.571 
#    0.000    2.857    0.000    2.571    0.000    2.000 
#    0.000   13.714    0.000    0.000    0.000    0.000 
#
# Total GULP energy -623937.049103 kJ/mol
# GULP energy per Si atom -5570.866510 kJ/mol
# Density = 1.594288 g / cm^3
# Si number density = 15.979245 Si / 1000 Ang^3
#
#
#
# Elastic Constant Matrix: (Units=GPa)
#
#
# Indices 1 2 3 4 5 6 
#
# 1 81.1324 45.4795 55.1176 0.0000 0.0000 0.0000
# 2 45.4795 81.1322 55.1178 0.0000 0.0000 0.0000
# 3 55.1176 55.1178 146.8251 0.0000 0.0000 0.0000
# 4 0.0000 0.0000 0.0000 25.3838 0.0000 0.0000
# 5 0.0000 0.0000 0.0000 0.0000 25.3839 0.0000
# 6 0.0000 0.0000 0.0000 0.0000 0.0000 11.6382
#
#
#
# Elastic Compliance Matrix: (Units=1/GPa)
#
#
# Indices 1 2 3 4 5 6 
#
# 1 0.019891 -0.008158 -0.004404 0.000000 0.000000 0.000000
# 2 -0.008158 0.019891 -0.004405 0.000000 0.000000 0.000000
# 3 -0.004404 -0.004405 0.010118 0.000000 0.000000 0.000000
# 4 0.000000 0.000000 0.000000 0.039395 0.000000 0.000000
# 5 0.000000 0.000000 0.000000 0.000000 0.039395 0.000000
# 6 0.000000 0.000000 0.000000 0.000000 0.000000 0.085924
#
#
# Mechanical properties :
#
#
# Convention : Reuss Voigt Hill
#
# Bulk Modulus (GPa) = 62.63472 68.94660 65.79066
# Shear Modulus (GPa) = 19.69523 22.70616 21.20069
#
# Velocity S-wave (km/s) = 3.51458 3.77368 3.64643
# Velocity P-wave (km/s) = 7.46675 7.88852 7.68053
#
# Compressibility (1/GPa) = 0.01596559
#
# Stress axis : x y z
#
# Youngs Moduli (GPa) = 50.27506 50.27475 98.83653
#
# Poissons Ratio (x) = 0.41012 0.43532
# Poissons Ratio (y) = 0.41013 0.43533
# Poissons Ratio (z) = 0.22144 0.22144
#
# Static dielectric constant tensor:
#      x y z
#    x 1.515400 0.000000 0.000000 
#    y 0.000000 1.515400 0.000000 
#    z 0.000000 0.000000 1.547990 
# 
# From -- ./inp_files/7589.got.cif
#   From: 2010.05.17/outbox.cif.g08.bks.cpg/sg129_4_cif.got.tgz:7589.got - 2010.05.20 12:12:06.
