data_PCOD9565611
_publ_section_title
;
Structure prediction by ZEFSAII (Michael W. Deem and Ramdas Pophale) SiO2 
 PCOD9565611
Probable space group: P 4/N C C
;
_chemical_formula_sum "Si O2"
_cell_formula_units_Z 96
_cell_length_a 24.801107
_cell_length_b 24.801107
_cell_length_c 8.157935
_cell_angle_alpha 90.000000
_cell_angle_beta 90.000000
_cell_angle_gamma 90.000000
_cell_volume 5017.904282
_symmetry_space_group_name_H-M "P 4/N C C"
_symmetry_group_IT_number 130
_symmetry_cell_setting 'tetragonal'
loop_
_space_group_symop_operation_xyz
x,y,z
1/2-y,x,z
1/2-x,1/2-y,z
y,1/2-x,z
1/2+x,-y,1/2-z
-x,1/2+y,1/2-z
1/2+y,1/2+x,1/2-z
-y,-x,1/2-z
-x,-y,-z
1/2+y,-x,-z
1/2+x,1/2+y,-z
-y,1/2+x,-z
1/2-x,y,1/2+z
x,1/2-y,1/2+z
1/2-y,1/2-x,1/2+z
y,x,1/2+z
loop_
_atom_site_type_symbol
_atom_site_label
_atom_site_fract_x
_atom_site_fract_y
_atom_site_fract_z
Si Si1 0.879794 0.379794 0.250000
Si Si2 0.066525 0.720065 0.326527
Si Si3 0.185294 0.400506 0.941392
Si Si4 0.250000 0.750000 0.500000
Si Si5 0.199335 0.860070 0.963015
Si Si6 0.250000 0.250000 0.694912
Si Si7 0.821797 0.482805 0.147941
Si Si8 0.633164 0.702901 0.714682
O O1 0.855530 0.350264 0.088992
O O2 0.863996 0.442239 0.232724
O O3 0.108881 0.755850 0.429302
O O4 0.029059 0.764003 0.234349
O O5 0.034556 0.685322 0.458309
O O6 0.101484 0.688711 0.191299
O O7 0.185598 0.405043 0.137220
O O8 0.165732 0.454181 0.850871
O O9 0.150643 0.348184 0.892559
O O10 0.247375 0.390102 0.888028
O O11 0.303061 0.725346 0.585428
O O12 0.188629 0.274839 0.703905
#
# Coordination Sequence:
#
# PCOD9565611 Si02
#       8
#     8  16  16   4  16   4  16  16
#     4  10  22  37  52  72 104 146 194 242 286 331
#     4   9  19  34  51  73 106 144 187 230 279 337
#     4  11  21  35  57  86 119 150 185 224 277 337
#     4  12  20  26  44  70 104 138 172 222 292 358
#     4  10  20  31  46  72 104 141 181 228 286 348
#     4   8  16  30  48  78 120 150 168 190 256 338
#     4  10  20  36  56  79 108 148 192 236 279 333
#     4  10  20  33  55  87 121 154 181 219 271 341
#
# _framework density 19.131492000000001
#
# number of rings (size 3 to 8) (size 9 to 14) (size 15 to 20)
#    0.000    2.000    0.000    6.000    0.000    7.667 
#    0.000    1.667    0.000    1.000    0.000    0.000 
#    0.000    0.000    0.000    0.000    0.000    0.000 
#
# Total GULP energy -534828.755437 kJ/mol
# GULP energy per Si atom -5571.132869 kJ/mol
# Density = 1.908795 g / cm^3
# Si number density = 19.131492 Si / 1000 Ang^3
#
#
#
# Elastic Constant Matrix: (Units=GPa)
#
#
# Indices 1 2 3 4 5 6 
#
# 1 63.4092 18.5349 7.5361 0.0000 0.0000 0.0000
# 2 18.5349 63.4092 7.5361 0.0000 0.0000 0.0000
# 3 7.5361 7.5361 83.7958 0.0000 0.0000 0.0000
# 4 0.0000 0.0000 0.0000 15.1542 0.0000 0.0000
# 5 0.0000 0.0000 0.0000 0.0000 15.1542 0.0000
# 6 0.0000 0.0000 0.0000 0.0000 0.0000 16.3896
#
#
#
# Elastic Compliance Matrix: (Units=1/GPa)
#
#
# Indices 1 2 3 4 5 6 
#
# 1 0.017347 -0.004938 -0.001116 0.000000 0.000000 0.000000
# 2 -0.004938 0.017347 -0.001116 0.000000 0.000000 0.000000
# 3 -0.001116 -0.001116 0.012135 0.000000 0.000000 0.000000
# 4 0.000000 0.000000 0.000000 0.065988 0.000000 0.000000
# 5 0.000000 0.000000 0.000000 0.000000 0.065988 0.000000
# 6 0.000000 0.000000 0.000000 0.000000 0.000000 0.061014
#
#
# Mechanical properties :
#
#
# Convention : Reuss Voigt Hill
#
# Bulk Modulus (GPa) = 30.78056 30.86983 30.82519
# Shear Modulus (GPa) = 18.86880 21.14006 20.00443
#
# Velocity S-wave (km/s) = 3.14390 3.32774 3.23713
# Velocity P-wave (km/s) = 5.41320 5.56200 5.48810
#
# Compressibility (1/GPa) = 0.03248804
#
# Stress axis : x y z
#
# Youngs Moduli (GPa) = 57.64822 57.64822 82.40964
#
# Poissons Ratio (x) = 0.28466 0.09197
# Poissons Ratio (y) = 0.28466 0.09197
# Poissons Ratio (z) = 0.06433 0.06433
#
# Static dielectric constant tensor:
#      x y z
#    x 1.679950 0.000000 0.000000 
#    y 0.000000 1.679950 0.000000 
#    z 0.000000 0.000000 1.724210 
# 
# From -- ./inp_files/986.got.cif
#   From: 2010.05.17/outbox.cif.g08.bks.cpg/sg130_1_cif.got.tgz:986.got - 2010.05.20 12:17:35.
