data_PCOD9565445
_publ_section_title
;
Structure prediction by ZEFSAII (Michael W. Deem and Ramdas Pophale) SiO2 
 PCOD9565445
Probable space group: P 4/N M M
;
_chemical_formula_sum "Si O2"
_cell_formula_units_Z 40
_cell_length_a 17.867987
_cell_length_b 17.867987
_cell_length_c 5.496280
_cell_angle_alpha 90.000000
_cell_angle_beta 90.000000
_cell_angle_gamma 90.000000
_cell_volume 1754.769611
_symmetry_space_group_name_H-M "P 4/N M M"
_symmetry_group_IT_number 129
_symmetry_cell_setting 'tetragonal'
loop_
_space_group_symop_operation_xyz
x,y,z
1/2-y,x,z
1/2-x,1/2-y,z
y,1/2-x,z
1/2+x,-y,-z
-x,1/2+y,-z
1/2+y,1/2+x,-z
-y,-x,-z
-x,-y,-z
1/2+y,-x,-z
1/2+x,1/2+y,-z
-y,1/2+x,-z
1/2-x,y,z
x,1/2-y,z
1/2-y,1/2-x,z
y,x,z
loop_
_atom_site_type_symbol
_atom_site_label
_atom_site_fract_x
_atom_site_fract_y
_atom_site_fract_z
Si Si1 0.521068 0.099948 0.253584
Si Si2 0.337404 0.047153 0.751217
Si Si3 0.340097 0.840097 0.000000
O O1 0.484939 0.015062 0.246438
O O2 0.493012 0.131219 0.509531
O O3 0.607273 0.126914 0.216018
O O4 0.485026 0.136567 0.011861
O O5 0.250000 0.042811 0.741166
O O6 0.369489 0.130512 0.739222
O O7 0.351691 0.750000 0.028675
#
# Coordination Sequence:
#
# PCOD9565445 Si02
#       3
#    16  16   8
#     4  10  22  41  63  86 118 162 207 246 295 365
#     4  10  20  36  60  88 120 160 204 253 305 358
#     4  11  23  40  64  94 127 161 200 254 312 361
#
# _framework density 22.795014999999999
#
# number of rings (size 3 to 8) (size 9 to 14) (size 15 to 20)
#    0.000    1.800    0.000    4.200    0.000    2.000 
#    0.000   12.000    0.000   19.200    0.000    0.000 
#    0.000    7.200    0.000    0.000    0.000    0.000 
#
# Total GULP energy -223024.965221 kJ/mol
# GULP energy per Si atom -5575.624131 kJ/mol
# Density = 2.274313 g / cm^3
# Si number density = 22.795015 Si / 1000 Ang^3
#
#
#
# Elastic Constant Matrix: (Units=GPa)
#
#
# Indices 1 2 3 4 5 6 
#
# 1 185.3511 92.3338 73.2768 0.0000 0.0000 0.0000
# 2 92.3338 185.3511 73.2768 0.0000 0.0000 0.0000
# 3 73.2768 73.2768 214.1566 0.0000 0.0000 0.0000
# 4 0.0000 0.0000 0.0000 29.6451 0.0000 0.0000
# 5 0.0000 0.0000 0.0000 0.0000 29.6451 0.0000
# 6 0.0000 0.0000 0.0000 0.0000 0.0000 29.5815
#
#
#
# Elastic Compliance Matrix: (Units=1/GPa)
#
#
# Indices 1 2 3 4 5 6 
#
# 1 0.007573 -0.003178 -0.001504 0.000000 0.000000 0.000000
# 2 -0.003178 0.007573 -0.001504 0.000000 0.000000 0.000000
# 3 -0.001504 -0.001504 0.005699 0.000000 0.000000 0.000000
# 4 0.000000 0.000000 0.000000 0.033732 0.000000 0.000000
# 5 0.000000 0.000000 0.000000 0.000000 0.033732 0.000000
# 6 0.000000 0.000000 0.000000 0.000000 0.000000 0.033805
#
#
# Mechanical properties :
#
#
# Convention : Reuss Voigt Hill
#
# Bulk Modulus (GPa) = 118.01925 118.07040 118.04482
# Shear Modulus (GPa) = 36.41422 40.83910 38.62666
#
# Velocity S-wave (km/s) = 4.00117 4.23730 4.12092
# Velocity P-wave (km/s) = 8.55759 8.70911 8.63368
#
# Compressibility (1/GPa) = 0.00847319
#
# Stress axis : x y z
#
# Youngs Moduli (GPa) = 132.05208 132.05208 175.48331
#
# Poissons Ratio (x) = 0.41965 0.26388
# Poissons Ratio (y) = 0.41965 0.26388
# Poissons Ratio (z) = 0.19857 0.19857
#
# Static dielectric constant tensor:
#      x y z
#    x 1.874320 0.000000 0.000000 
#    y 0.000000 1.874320 0.000000 
#    z 0.000000 0.000000 1.819410 
# 
# From -- ./inp_files/263.got.cif
#   From: 2010.05.17/outbox.cif.g08.bks.cpg/sg129_1_cif.got.tgz:263.got - 2010.05.20 12:12:06.
