data_PCOD9565471
_publ_section_title
;
Structure prediction by ZEFSAII (Michael W. Deem and Ramdas Pophale) SiO2 
 PCOD9565471
Probable space group: P 4/N M M
;
_chemical_formula_sum "Si O2"
_cell_formula_units_Z 80
_cell_length_a 28.020863
_cell_length_b 28.020863
_cell_length_c 5.107675
_cell_angle_alpha 90.000000
_cell_angle_beta 90.000000
_cell_angle_gamma 90.000000
_cell_volume 4010.386863
_symmetry_space_group_name_H-M "P 4/N M M"
_symmetry_group_IT_number 129
_symmetry_cell_setting 'tetragonal'
loop_
_space_group_symop_operation_xyz
x,y,z
1/2-y,x,z
1/2-x,1/2-y,z
y,1/2-x,z
1/2+x,-y,-z
-x,1/2+y,-z
1/2+y,1/2+x,-z
-y,-x,-z
-x,-y,-z
1/2+y,-x,-z
1/2+x,1/2+y,-z
-y,1/2+x,-z
1/2-x,y,z
x,1/2-y,z
1/2-y,1/2-x,z
y,x,z
loop_
_atom_site_type_symbol
_atom_site_label
_atom_site_fract_x
_atom_site_fract_y
_atom_site_fract_z
Si Si1 0.642950 0.428409 0.889048
Si Si2 0.550551 0.302341 0.607026
Si Si3 0.571743 0.002793 0.665341
Si Si4 0.192188 0.114344 0.036504
Si Si5 0.447356 0.338333 0.538311
O O1 0.661312 0.424751 0.593489
O O2 0.603741 0.470402 0.877948
O O3 0.618243 0.381758 0.000000
O O4 0.683328 0.443180 0.092518
O O5 0.569316 0.250000 0.557633
O O6 0.494474 0.305620 0.543732
O O7 0.542854 0.042854 0.500000
O O8 0.532755 0.967246 0.781099
O O9 0.608933 0.970564 0.497374
O O10 0.250000 0.117357 0.022995
O O11 0.165533 0.165533 0.034314
O O12 0.171257 0.083416 0.795960
O O13 0.175633 0.085928 0.295243
#
# Coordination Sequence:
#
# PCOD9565471 Si02
#       5
#    16  16  16  16  16
#     4  11  22  38  57  84 121 155 189 238 285 328
#     4  11  22  38  61  86 116 154 196 236 282 345
#     4  10  21  37  57  84 120 162 203 236 278 341
#     4  12  25  42  63  85 111 146 194 252 314 370
#     4  11  23  40  61  85 117 152 191 240 292 346
#
# _framework density 19.948201999999998
#
# number of rings (size 3 to 8) (size 9 to 14) (size 15 to 20)
#    0.000    1.000    0.000    9.600    0.000    0.600 
#    0.000    7.000    0.000    2.400    0.000    0.000 
#    0.000   28.000    0.000    0.000    0.000    0.000 
#
# Total GULP energy -447251.298128 kJ/mol
# GULP energy per Si atom -5590.641227 kJ/mol
# Density = 1.990280 g / cm^3
# Si number density = 19.948202 Si / 1000 Ang^3
#
#
#
# Elastic Constant Matrix: (Units=GPa)
#
#
# Indices 1 2 3 4 5 6 
#
# 1 79.0232 50.1539 9.6837 0.0000 0.0000 0.0000
# 2 50.1539 79.0261 9.6843 0.0000 0.0000 0.0000
# 3 9.6837 9.6843 83.3926 0.0000 0.0000 0.0000
# 4 0.0000 0.0000 0.0000 -3.3318 0.0000 0.0000
# 5 0.0000 0.0000 0.0000 0.0000 -3.3326 0.0000
# 6 0.0000 0.0000 0.0000 0.0000 0.0000 19.1724
#
#
#
# Elastic Compliance Matrix: (Units=1/GPa)
#
#
# Indices 1 2 3 4 5 6 
#
# 1 0.021258 -0.013379 -0.000915 0.000000 0.000000 0.000000
# 2 -0.013379 0.021257 -0.000915 0.000000 0.000000 0.000000
# 3 -0.000915 -0.000915 0.012204 0.000000 0.000000 0.000000
# 4 0.000000 0.000000 0.000000 -0.300142 0.000000 0.000000
# 5 0.000000 0.000000 0.000000 0.000000 -0.300070 0.000000
# 6 0.000000 0.000000 0.000000 0.000000 0.000000 0.052158
#
#
# Mechanical properties :
#
#
# Convention : Reuss Voigt Hill
#
# Bulk Modulus (GPa) = 41.15021 42.27619 41.71320
# Shear Modulus (GPa) = -10.99347 13.96296 1.48474
#
# Velocity S-wave (km/s) = -2.35010 2.64855 0.86366
# Velocity P-wave (km/s) = 3.64820 5.53101 4.68516
#
# Compressibility (1/GPa) = 0.02430121
#
# Stress axis : x y z
#
# Youngs Moduli (GPa) = 47.04088 47.04254 81.94064
#
# Poissons Ratio (x) = 0.62940 0.07496
# Poissons Ratio (y) = 0.62938 0.07497
# Poissons Ratio (z) = 0.04303 0.04304
#
# Static dielectric constant tensor:
#      x y z
#    x 1.714870 0.000000 0.000000 
#    y 0.000000 1.714870 0.000000 
#    z 0.000000 0.000000 1.701800 
# 
# From -- ./inp_files/960.got.cif
#   From: 2010.05.17/outbox.cif.g08.bks.cpg/sg129_1_cif.got.tgz:960.got - 2010.05.20 12:12:06.
