data_PCOD9565251
_publ_section_title
;
Structure prediction by ZEFSAII (Michael W. Deem and Ramdas Pophale) SiO2 
 PCOD9565251
Probable space group: P 4/N M M
;
_chemical_formula_sum "Si O2"
_cell_formula_units_Z 96
_cell_length_a 18.039045
_cell_length_b 18.039045
_cell_length_c 18.185807
_cell_angle_alpha 90.000000
_cell_angle_beta 90.000000
_cell_angle_gamma 90.000000
_cell_volume 5917.791527
_symmetry_space_group_name_H-M "P 4/N M M"
_symmetry_group_IT_number 129
_symmetry_cell_setting 'tetragonal'
loop_
_space_group_symop_operation_xyz
x,y,z
1/2-y,x,z
1/2-x,1/2-y,z
y,1/2-x,z
1/2+x,-y,-z
-x,1/2+y,-z
1/2+y,1/2+x,-z
-y,-x,-z
-x,-y,-z
1/2+y,-x,-z
1/2+x,1/2+y,-z
-y,1/2+x,-z
1/2-x,y,z
x,1/2-y,z
1/2-y,1/2-x,z
y,x,z
loop_
_atom_site_type_symbol
_atom_site_label
_atom_site_fract_x
_atom_site_fract_y
_atom_site_fract_z
Si Si1 0.336410 0.457039 0.029950
Si Si2 0.953996 0.834846 0.232404
Si Si3 0.563061 0.443408 0.682277
Si Si4 0.835156 0.163401 0.411538
Si Si5 0.434120 0.834508 0.097261
Si Si6 0.163053 0.955859 0.175114
O O1 0.250000 0.440675 0.015441
O O2 0.389864 0.389864 0.011195
O O3 0.344552 0.478666 0.115477
O O4 0.355872 0.528068 0.979642
O O5 0.947233 0.750000 0.255825
O O6 0.876156 0.876156 0.224989
O O7 0.004568 0.883047 0.287078
O O8 0.998141 0.836932 0.155445
O O9 0.514269 0.514269 0.656965
O O10 0.613729 0.398773 0.624779
O O11 0.614830 0.466193 0.751521
O O12 0.840061 0.159940 0.500000
O O13 0.750000 0.141561 0.390662
O O14 0.844037 0.250000 0.390212
O O15 0.407430 0.750000 0.091142
O O16 0.370988 0.885563 0.131724
O O17 0.250000 0.945702 0.191573
#
# Coordination Sequence:
#
# PCOD9565251 Si02
#       6
#    16  16  16  16  16  16
#     4  10  20  33  48  65  87 117 155 199 244 288
#     4   9  17  28  42  62  88 119 155 193 233 277
#     4  10  19  31  48  70  98 128 158 194 233 279
#     4   9  18  33  53  76 101 128 157 191 234 286
#     4   9  18  31  45  64  89 116 151 195 240 286
#     4  10  20  32  47  68  92 122 159 194 233 281
#
# _framework density 16.222268
#
# number of rings (size 3 to 8) (size 9 to 14) (size 15 to 20)
#    0.000    2.500    0.000    3.000    0.000    4.333 
#    0.000    0.000    0.000    6.000    0.000    0.000 
#    0.000    3.000    0.000   12.333    0.000    0.333 
#
# Total GULP energy -534967.761969 kJ/mol
# GULP energy per Si atom -5572.580854 kJ/mol
# Density = 1.618535 g / cm^3
# Si number density = 16.222268 Si / 1000 Ang^3
#
#
#
# Elastic Constant Matrix: (Units=GPa)
#
#
# Indices 1 2 3 4 5 6 
#
# 1 82.5160 58.9935 21.3757 0.0000 0.0000 0.0000
# 2 58.9935 82.5160 21.3757 0.0000 0.0000 0.0000
# 3 21.3757 21.3757 43.6783 0.0000 0.0000 0.0000
# 4 0.0000 0.0000 0.0000 18.1514 0.0000 0.0000
# 5 0.0000 0.0000 0.0000 0.0000 18.1513 0.0000
# 6 0.0000 0.0000 0.0000 0.0000 0.0000 13.8568
#
#
#
# Elastic Compliance Matrix: (Units=1/GPa)
#
#
# Indices 1 2 3 4 5 6 
#
# 1 0.025403 -0.017110 -0.004058 0.000000 0.000000 0.000000
# 2 -0.017110 0.025403 -0.004058 0.000000 0.000000 0.000000
# 3 -0.004058 -0.004058 0.026867 0.000000 0.000000 0.000000
# 4 0.000000 0.000000 0.000000 0.055092 0.000000 0.000000
# 5 0.000000 0.000000 0.000000 0.000000 0.055093 0.000000
# 6 0.000000 0.000000 0.000000 0.000000 0.000000 0.072167
#
#
# Mechanical properties :
#
#
# Convention : Reuss Voigt Hill
#
# Bulk Modulus (GPa) = 36.73919 45.80002 41.26960
# Shear Modulus (GPa) = 15.64701 17.16292 16.40496
#
# Velocity S-wave (km/s) = 3.10907 3.25620 3.18348
# Velocity P-wave (km/s) = 5.96532 6.51392 6.24565
#
# Compressibility (1/GPa) = 0.02721889
#
# Stress axis : x y z
#
# Youngs Moduli (GPa) = 39.36595 39.36602 37.22045
#
# Poissons Ratio (x) = 0.67355 0.15106
# Poissons Ratio (y) = 0.67355 0.15105
# Poissons Ratio (z) = 0.15976 0.15976
#
# Static dielectric constant tensor:
#      x y z
#    x 1.540890 0.000000 0.000000 
#    y 0.000000 1.540890 0.000000 
#    z 0.000000 0.000000 1.549580 
# 
# From -- ./inp_files/5644.got.cif
#   From: 2010.05.17/outbox.cif.g08.bks.cpg/sg129_3_cif.got.tgz:5644.got - 2010.05.20 12:12:06.
