data_PCOD9565371
_publ_section_title
;
Structure prediction by ZEFSAII (Michael W. Deem and Ramdas Pophale) SiO2 
 PCOD9565371
Probable space group: P 4/N M M
;
_chemical_formula_sum "Si O2"
_cell_formula_units_Z 96
_cell_length_a 14.070882
_cell_length_b 14.070882
_cell_length_c 31.391063
_cell_angle_alpha 90.000000
_cell_angle_beta 90.000000
_cell_angle_gamma 90.000000
_cell_volume 6215.107782
_symmetry_space_group_name_H-M "P 4/N M M"
_symmetry_group_IT_number 129
_symmetry_cell_setting 'tetragonal'
loop_
_space_group_symop_operation_xyz
x,y,z
1/2-y,x,z
1/2-x,1/2-y,z
y,1/2-x,z
1/2+x,-y,-z
-x,1/2+y,-z
1/2+y,1/2+x,-z
-y,-x,-z
-x,-y,-z
1/2+y,-x,-z
1/2+x,1/2+y,-z
-y,1/2+x,-z
1/2-x,y,z
x,1/2-y,z
1/2-y,1/2-x,z
y,x,z
loop_
_atom_site_type_symbol
_atom_site_label
_atom_site_fract_x
_atom_site_fract_y
_atom_site_fract_z
Si Si1 0.637833 0.018519 0.323008
Si Si2 0.636003 0.020440 0.844727
Si Si3 0.362510 0.637491 0.500000
Si Si4 0.137093 0.520456 0.914611
Si Si5 0.636903 0.359655 0.760509
Si Si6 0.637196 0.481982 0.417907
Si Si7 0.860072 0.139929 0.000000
O O1 0.750000 0.998165 0.320950
O O2 0.576107 0.923894 0.319028
O O3 0.614320 0.086492 0.283651
O O4 0.618917 0.059406 0.370477
O O5 0.750000 0.010573 0.849289
O O6 0.591993 0.090129 0.880425
O O7 0.614838 0.070267 0.799312
O O8 0.578536 0.921465 0.847630
O O9 0.250000 0.622281 0.494385
O O10 0.393003 0.583694 0.542782
O O11 0.250000 0.508346 0.907239
O O12 0.124285 0.569101 0.960857
O O13 0.077157 0.422844 0.912461
O O14 0.750000 0.361430 0.754292
O O15 0.610506 0.250000 0.771345
O O16 0.750000 0.497202 0.421261
O O17 0.579554 0.579554 0.420389
O O18 0.750000 0.129219 0.985620
#
# Coordination Sequence:
#
# PCOD9565371 Si02
#       7
#    16  16   8  16  16  16   8
#     4   9  17  28  42  61  85 112 141 173 209 250
#     4  10  20  33  50  71  94 121 153 190 232 276
#     4   9  17  28  42  60  81 105 134 170 212 255
#     4  10  20  33  50  72  98 128 161 196 233 274
#     4   9  17  29  46  67  89 114 145 180 217 259
#     4   9  17  28  42  60  82 109 139 171 208 250
#     4   9  17  30  50  74  97 123 158 198 235 273
#
# _framework density 15.446232
#
# number of rings (size 3 to 8) (size 9 to 14) (size 15 to 20)
#    0.000    2.667    0.000    2.000    0.000    3.000 
#    0.000    5.000    0.000    0.000    0.000    4.667 
#    0.000    0.000    0.000   31.000    0.000    0.833 
#
# Total GULP energy -534599.108179 kJ/mol
# GULP energy per Si atom -5568.740710 kJ/mol
# Density = 1.541108 g / cm^3
# Si number density = 15.446232 Si / 1000 Ang^3
#
#
#
# Elastic Constant Matrix: (Units=GPa)
#
#
# Indices 1 2 3 4 5 6 
#
# 1 70.3821 53.8093 57.2186 0.0000 0.0000 0.0000
# 2 53.8093 70.3819 57.2185 0.0000 0.0000 0.0000
# 3 57.2186 57.2185 113.8606 0.0000 0.0000 0.0000
# 4 0.0000 0.0000 0.0000 25.1669 0.0000 0.0000
# 5 0.0000 0.0000 0.0000 0.0000 25.1669 0.0000
# 6 0.0000 0.0000 0.0000 0.0000 0.0000 19.6799
#
#
#
# Elastic Compliance Matrix: (Units=1/GPa)
#
#
# Indices 1 2 3 4 5 6 
#
# 1 0.037668 -0.022672 -0.007536 0.000000 0.000000 0.000000
# 2 -0.022672 0.037668 -0.007536 0.000000 0.000000 0.000000
# 3 -0.007536 -0.007536 0.016357 0.000000 0.000000 0.000000
# 4 0.000000 0.000000 0.000000 0.039735 0.000000 0.000000
# 5 0.000000 0.000000 0.000000 0.000000 0.039735 0.000000
# 6 0.000000 0.000000 0.000000 0.000000 0.000000 0.050813
#
#
# Mechanical properties :
#
#
# Convention : Reuss Voigt Hill
#
# Bulk Modulus (GPa) = 61.70900 65.67972 63.69436
# Shear Modulus (GPa) = 16.50896 19.76130 18.13513
#
# Velocity S-wave (km/s) = 3.27280 3.58069 3.43020
# Velocity P-wave (km/s) = 7.37016 7.72716 7.55077
#
# Compressibility (1/GPa) = 0.01620509
#
# Stress axis : x y z
#
# Youngs Moduli (GPa) = 26.54762 26.54758 61.13602
#
# Poissons Ratio (x) = 0.60188 0.46073
# Poissons Ratio (y) = 0.60188 0.46073
# Poissons Ratio (z) = 0.20007 0.20007
#
# Static dielectric constant tensor:
#      x y z
#    x 1.495800 0.000000 0.000000 
#    y 0.000000 1.495800 0.000000 
#    z 0.000000 0.000000 1.525930 
# 
# From -- ./inp_files/7516.got.cif
#   From: 2010.05.17/outbox.cif.g08.bks.cpg/sg129_4_cif.got.tgz:7516.got - 2010.05.20 12:12:06.
