data_PCOD9565037
_publ_section_title
;
Structure prediction by ZEFSAII (Michael W. Deem and Ramdas Pophale) SiO2 
 PCOD9565037
Probable space group: P 4/M N C
;
_chemical_formula_sum "Si O2"
_cell_formula_units_Z 40
_cell_length_a 8.047447
_cell_length_b 8.047447
_cell_length_c 29.068864
_cell_angle_alpha 90.000000
_cell_angle_beta 90.000000
_cell_angle_gamma 90.000000
_cell_volume 1882.540423
_symmetry_space_group_name_H-M "P 4/M N C"
_symmetry_group_IT_number 128
_symmetry_cell_setting 'tetragonal'
loop_
_space_group_symop_operation_xyz
x,y,z
-y,x,z
-x,-y,z
y,-x,z
1/2+x,1/2-y,1/2-z
1/2-x,1/2+y,1/2-z
1/2+y,1/2+x,1/2-z
1/2-y,1/2-x,1/2-z
-x,-y,-z
y,-x,-z
x,y,-z
-y,x,-z
1/2-x,1/2+y,1/2+z
1/2+x,1/2-y,1/2+z
1/2-y,1/2-x,1/2+z
1/2+y,1/2+x,1/2+z
loop_
_atom_site_type_symbol
_atom_site_label
_atom_site_fract_x
_atom_site_fract_y
_atom_site_fract_z
Si Si1 0.000000 0.500000 0.374142
Si Si2 0.587983 0.765577 0.795758
Si Si3 0.763489 0.596320 0.051492
O O1 0.896740 0.380216 0.340455
O O2 0.117036 0.393198 0.407838
O O3 0.398198 0.701682 0.796418
O O4 0.634455 0.865546 0.750000
O O5 0.595892 0.703282 0.055348
O O6 0.832033 0.622447 0.000000
#
# Coordination Sequence:
#
# PCOD9565037 Si02
#       3
#     8  16  16
#     4  12  20  32  58  90 118 152 198 250 308 372
#     4  11  24  42  63  89 123 161 204 255 313 380
#     4   9  19  36  57  83 117 158 206 259 313 370
#
# _framework density 21.247882000000001
#
# number of rings (size 3 to 8) (size 9 to 14) (size 15 to 20)
#    0.000    1.600    0.000    7.200    0.000    3.200 
#    0.000    0.000    0.000   10.800    0.000   22.400 
#    0.000    0.000    0.000    0.000    0.000    0.000 
#
# Total GULP energy -223669.045954 kJ/mol
# GULP energy per Si atom -5591.726149 kJ/mol
# Density = 2.119952 g / cm^3
# Si number density = 21.247882 Si / 1000 Ang^3
#
#
#
# Elastic Constant Matrix: (Units=GPa)
#
#
# Indices 1 2 3 4 5 6 
#
# 1 95.3296 24.9204 67.9797 0.0000 0.0000 0.0000
# 2 24.9204 95.3299 67.9795 0.0000 0.0000 0.0000
# 3 67.9797 67.9795 210.2250 0.0000 0.0000 0.0000
# 4 0.0000 0.0000 0.0000 28.1649 0.0000 0.0000
# 5 0.0000 0.0000 0.0000 0.0000 28.1651 0.0000
# 6 0.0000 0.0000 0.0000 0.0000 0.0000 19.6434
#
#
#
# Elastic Compliance Matrix: (Units=1/GPa)
#
#
# Indices 1 2 3 4 5 6 
#
# 1 0.013656 -0.000547 -0.004239 0.000000 0.000000 0.000000
# 2 -0.000547 0.013656 -0.004239 0.000000 0.000000 0.000000
# 3 -0.004239 -0.004239 0.007498 0.000000 0.000000 0.000000
# 4 0.000000 0.000000 0.000000 0.035505 0.000000 0.000000
# 5 0.000000 0.000000 0.000000 0.000000 0.035505 0.000000
# 6 0.000000 0.000000 0.000000 0.000000 0.000000 0.050908
#
#
# Mechanical properties :
#
#
# Convention : Reuss Voigt Hill
#
# Bulk Modulus (GPa) = 59.66599 80.29373 69.97986
# Shear Modulus (GPa) = 27.72180 31.19501 29.45841
#
# Velocity S-wave (km/s) = 3.61596 3.83580 3.72750
# Velocity P-wave (km/s) = 6.75096 7.58214 7.17859
#
# Compressibility (1/GPa) = 0.01675997
#
# Stress axis : x y z
#
# Youngs Moduli (GPa) = 73.22957 73.22997 133.36474
#
# Poissons Ratio (x) = 0.04006 0.56532
# Poissons Ratio (y) = 0.04006 0.56532
# Poissons Ratio (z) = 0.31041 0.31041
#
# Static dielectric constant tensor:
#      x y z
#    x 1.782400 0.000000 0.000000 
#    y 0.000000 1.782400 0.000000 
#    z 0.000000 0.000000 1.768980 
# 
# From -- ./inp_files/6103.got.cif
#   From: 2010.05.17/outbox.cif.g08.bks.cpg/sg128_4_cif.got.tgz:6103.got - 2010.05.20 12:07:25.
