data_PCOD9565498
_publ_section_title
;
Structure prediction by ZEFSAII (Michael W. Deem and Ramdas Pophale) SiO2 
 PCOD9565498
Probable space group: P 4/N M M
;
_chemical_formula_sum "Si O2"
_cell_formula_units_Z 96
_cell_length_a 24.101532
_cell_length_b 24.101532
_cell_length_c 9.967657
_cell_angle_alpha 90.000000
_cell_angle_beta 90.000000
_cell_angle_gamma 90.000000
_cell_volume 5790.050921
_symmetry_space_group_name_H-M "P 4/N M M"
_symmetry_group_IT_number 129
_symmetry_cell_setting 'tetragonal'
loop_
_space_group_symop_operation_xyz
x,y,z
1/2-y,x,z
1/2-x,1/2-y,z
y,1/2-x,z
1/2+x,-y,-z
-x,1/2+y,-z
1/2+y,1/2+x,-z
-y,-x,-z
-x,-y,-z
1/2+y,-x,-z
1/2+x,1/2+y,-z
-y,1/2+x,-z
1/2-x,y,z
x,1/2-y,z
1/2-y,1/2-x,z
y,x,z
loop_
_atom_site_type_symbol
_atom_site_label
_atom_site_fract_x
_atom_site_fract_y
_atom_site_fract_z
Si Si1 0.684775 0.127810 0.884438
Si Si2 0.489025 0.817399 0.013592
Si Si3 0.868534 0.316062 0.628998
Si Si4 0.407206 0.315348 0.172594
Si Si5 0.315492 0.093290 0.486627
Si Si6 0.993556 0.317003 0.677881
O O1 0.750000 0.124009 0.855345
O O2 0.665377 0.068467 0.943293
O O3 0.653212 0.148816 0.754172
O O4 0.672306 0.172306 0.000000
O O5 0.486757 0.750000 0.018406
O O6 0.542056 0.831935 0.923516
O O7 0.493985 0.836932 0.167632
O O8 0.833839 0.333839 0.500000
O O9 0.863043 0.250000 0.655196
O O10 0.933802 0.328842 0.613085
O O11 0.394953 0.250000 0.150275
O O12 0.354076 0.354076 0.148444
O O13 0.423182 0.321315 0.329773
O O14 0.250000 0.103670 0.509654
O O15 0.352033 0.147968 0.507907
O O16 0.335258 0.044521 0.585425
O O17 0.997725 0.250000 0.683639
#
# Coordination Sequence:
#
# PCOD9565498 Si02
#       6
#    16  16  16  16  16  16
#     4  11  21  34  53  76 103 136 172 213 259 308
#     4   9  18  33  52  74 100 136 179 213 247 300
#     4  11  23  36  51  76 107 138 171 212 263 314
#     4   9  18  32  53  81 109 137 169 207 252 303
#     4   9  18  32  53  80 108 138 170 207 252 303
#     4   9  18  34  52  72 101 138 178 212 248 300
#
# _framework density 16.580165000000001
#
# number of rings (size 3 to 8) (size 9 to 14) (size 15 to 20)
#    0.000    2.333    1.667    1.000    2.333    3.000 
#    0.000    1.667    0.000    2.000    0.000    4.667 
#    0.000    0.000    0.000    0.000    0.000    0.000 
#
# Total GULP energy -535012.613162 kJ/mol
# GULP energy per Si atom -5573.048054 kJ/mol
# Density = 1.654243 g / cm^3
# Si number density = 16.580165 Si / 1000 Ang^3
#
#
#
# Elastic Constant Matrix: (Units=GPa)
#
#
# Indices 1 2 3 4 5 6 
#
# 1 52.8184 41.4980 23.0510 0.0000 0.0000 0.0000
# 2 41.4980 52.8184 23.0510 0.0000 0.0000 0.0000
# 3 23.0510 23.0510 45.9169 0.0000 0.0000 0.0000
# 4 0.0000 0.0000 0.0000 20.9801 0.0000 0.0000
# 5 0.0000 0.0000 0.0000 0.0000 20.9801 0.0000
# 6 0.0000 0.0000 0.0000 0.0000 0.0000 -0.9265
#
#
#
# Elastic Compliance Matrix: (Units=1/GPa)
#
#
# Indices 1 2 3 4 5 6 
#
# 1 0.051193 -0.037143 -0.007054 0.000000 0.000000 0.000000
# 2 -0.037143 0.051193 -0.007054 0.000000 0.000000 0.000000
# 3 -0.007054 -0.007054 0.028860 0.000000 0.000000 0.000000
# 4 0.000000 0.000000 0.000000 0.047664 0.000000 0.000000
# 5 0.000000 0.000000 0.000000 0.000000 0.047664 0.000000
# 6 0.000000 0.000000 0.000000 0.000000 0.000000 -1.079294
#
#
# Mechanical properties :
#
#
# Convention : Reuss Voigt Hill
#
# Bulk Modulus (GPa) = 34.78607 36.30596 35.54601
# Shear Modulus (GPa) = -6.75095 12.47032 2.85969
#
# Velocity S-wave (km/s) = -2.02003 2.74546 1.31473
# Velocity P-wave (km/s) = 3.94783 5.65640 4.87751
#
# Compressibility (1/GPa) = 0.02874714
#
# Stress axis : x y z
#
# Youngs Moduli (GPa) = 19.53385 19.53385 34.64947
#
# Poissons Ratio (x) = 0.72554 0.24440
# Poissons Ratio (y) = 0.72554 0.24440
# Poissons Ratio (z) = 0.13778 0.13778
#
# Static dielectric constant tensor:
#      x y z
#    x 1.547470 0.000000 0.000000 
#    y 0.000000 1.547470 0.000000 
#    z 0.000000 0.000000 1.579140 
# 
# From -- ./inp_files/2617.got.cif
#   From: 2010.05.17/outbox.cif.g08.bks.cpg/sg129_2_cif.got.tgz:2617.got - 2010.05.20 12:12:06.
