data_PCOD9565958
_publ_section_title
;
Structure prediction by ZEFSAII (Michael W. Deem and Ramdas Pophale) SiO2 
 PCOD9565958
Probable space group: P 4/N C C
;
_chemical_formula_sum "Si O2"
_cell_formula_units_Z 36
_cell_length_a 9.698725
_cell_length_b 9.698725
_cell_length_c 14.098898
_cell_angle_alpha 90.000000
_cell_angle_beta 90.000000
_cell_angle_gamma 90.000000
_cell_volume 1326.216599
_symmetry_space_group_name_H-M "P 4/N C C"
_symmetry_group_IT_number 130
_symmetry_cell_setting 'tetragonal'
loop_
_space_group_symop_operation_xyz
x,y,z
1/2-y,x,z
1/2-x,1/2-y,z
y,1/2-x,z
1/2+x,-y,1/2-z
-x,1/2+y,1/2-z
1/2+y,1/2+x,1/2-z
-y,-x,1/2-z
-x,-y,-z
1/2+y,-x,-z
1/2+x,1/2+y,-z
-y,1/2+x,-z
1/2-x,y,1/2+z
x,1/2-y,1/2+z
1/2-y,1/2-x,1/2+z
y,x,1/2+z
loop_
_atom_site_type_symbol
_atom_site_label
_atom_site_fract_x
_atom_site_fract_y
_atom_site_fract_z
Si Si1 0.541263 0.668950 0.215079
Si Si2 0.750000 0.750000 0.418913
Si Si3 0.970179 0.241431 0.993980
O O1 0.675063 0.579540 0.244806
O O2 0.402080 0.597921 0.250000
O O3 0.536069 0.678520 0.101073
O O4 0.587174 0.706238 0.435769
O O5 0.867870 0.127887 0.036558
#
# Coordination Sequence:
#
# PCOD9565958 Si02
#       3
#    16   4  16
#     4  11  25  49  73 102 142 185 231 290 350 414
#     4  12  20  44  72 102 152 180 224 298 340 424
#     4  11  24  44  73 106 142 186 231 288 350 415
#
# _framework density 27.144884999999999
#
# number of rings (size 3 to 8) (size 9 to 14) (size 15 to 20)
#    0.000    0.889    4.444    1.333    0.000    8.000 
#    0.000    0.000    0.000    0.000    0.000    0.000 
#    0.000    0.000    0.000    0.000    0.000    0.000 
#
# Total GULP energy -201059.010428 kJ/mol
# GULP energy per Si atom -5584.972512 kJ/mol
# Density = 2.708310 g / cm^3
# Si number density = 27.144885 Si / 1000 Ang^3
#
#
#
# Elastic Constant Matrix: (Units=GPa)
#
#
# Indices 1 2 3 4 5 6 
#
# 1 121.4397 54.7098 5.4428 0.0000 0.0000 0.0000
# 2 54.7098 121.4330 5.4426 0.0000 0.0000 0.0000
# 3 5.4428 5.4426 120.1286 0.0000 0.0000 0.0000
# 4 0.0000 0.0000 0.0000 33.4400 0.0000 0.0000
# 5 0.0000 0.0000 0.0000 0.0000 33.4406 0.0000
# 6 0.0000 0.0000 0.0000 0.0000 0.0000 76.4054
#
#
#
# Elastic Compliance Matrix: (Units=1/GPa)
#
#
# Indices 1 2 3 4 5 6 
#
# 1 0.010340 -0.004647 -0.000258 0.000000 0.000000 0.000000
# 2 -0.004647 0.010340 -0.000258 0.000000 0.000000 0.000000
# 3 -0.000258 -0.000258 0.008348 0.000000 0.000000 0.000000
# 4 0.000000 0.000000 0.000000 0.029904 0.000000 0.000000
# 5 0.000000 0.000000 0.000000 0.000000 0.029904 0.000000
# 6 0.000000 0.000000 0.000000 0.000000 0.000000 0.013088
#
#
# Mechanical properties :
#
#
# Convention : Reuss Voigt Hill
#
# Bulk Modulus (GPa) = 53.46985 54.91019 54.19002
# Shear Modulus (GPa) = 42.20021 48.48427 45.34224
#
# Velocity S-wave (km/s) = 3.94716 4.23085 4.09146
# Velocity P-wave (km/s) = 6.36507 6.64374 6.50589
#
# Compressibility (1/GPa) = 0.01870213
#
# Stress axis : x y z
#
# Youngs Moduli (GPa) = 96.71643 96.71103 119.79222
#
# Poissons Ratio (x) = 0.44939 0.03090
# Poissons Ratio (y) = 0.44942 0.03090
# Poissons Ratio (z) = 0.02495 0.02495
#
# Static dielectric constant tensor:
#      x y z
#    x 2.090960 0.000000 0.000000 
#    y 0.000000 2.090960 0.000000 
#    z 0.000000 0.000000 2.322500 
# 
# From -- ./inp_files/1997.got.cif
#   From: 2010.05.17/outbox.cif.g08.bks.cpg/sg130_1_cif.got.tgz:1997.got - 2010.05.20 12:17:35.
