data_PCOD9565391
_publ_section_title
;
Structure prediction by ZEFSAII (Michael W. Deem and Ramdas Pophale) SiO2 
 PCOD9565391
Probable space group: P 4/N M M
;
_chemical_formula_sum "Si O2"
_cell_formula_units_Z 88
_cell_length_a 13.604137
_cell_length_b 13.604137
_cell_length_c 28.481527
_cell_angle_alpha 90.000000
_cell_angle_beta 90.000000
_cell_angle_gamma 90.000000
_cell_volume 5271.148645
_symmetry_space_group_name_H-M "P 4/N M M"
_symmetry_group_IT_number 129
_symmetry_cell_setting 'tetragonal'
loop_
_space_group_symop_operation_xyz
x,y,z
1/2-y,x,z
1/2-x,1/2-y,z
y,1/2-x,z
1/2+x,-y,-z
-x,1/2+y,-z
1/2+y,1/2+x,-z
-y,-x,-z
-x,-y,-z
1/2+y,-x,-z
1/2+x,1/2+y,-z
-y,1/2+x,-z
1/2-x,y,z
x,1/2-y,z
1/2-y,1/2-x,z
y,x,z
loop_
_atom_site_type_symbol
_atom_site_label
_atom_site_fract_x
_atom_site_fract_y
_atom_site_fract_z
Si Si1 0.973277 0.366825 0.597344
Si Si2 0.471308 0.634081 0.853056
Si Si3 0.529215 0.366038 0.769160
Si Si4 0.526703 0.363307 0.038960
Si Si5 0.634923 0.134923 0.500000
Si Si6 0.633608 0.470671 0.682269
O O1 0.982308 0.250000 0.603823
O O2 0.930660 0.386037 0.545374
O O3 0.899365 0.412521 0.635568
O O4 0.075643 0.424358 0.603209
O O5 0.484224 0.750000 0.843959
O O6 0.572978 0.572978 0.847584
O O7 0.395697 0.585944 0.816790
O O8 0.438806 0.621708 0.907269
O O9 0.514699 0.250000 0.765401
O O10 0.427745 0.427745 0.768168
O O11 0.594582 0.407340 0.726287
O O12 0.500296 0.250000 0.033833
O O13 0.432383 0.432383 0.032156
O O14 0.604856 0.395145 0.000000
O O15 0.621686 0.250000 0.487511
O O16 0.750000 0.484509 0.684253
O O17 0.572679 0.572679 0.683027
#
# Coordination Sequence:
#
# PCOD9565391 Si02
#       6
#    16  16  16  16   8  16
#     4  10  20  33  50  73 101 133 169 208 248 291
#     4   9  18  32  50  73  99 127 160 198 242 291
#     4  10  21  36  53  74 100 130 165 203 241 283
#     4   9  18  32  49  70  97 127 160 200 243 288
#     4   9  17  30  50  74  97 125 164 208 253 299
#     4  10  21  36  54  77 103 130 162 200 243 292
#
# _framework density 16.694652000000001
#
# number of rings (size 3 to 8) (size 9 to 14) (size 15 to 20)
#    0.000    2.455    0.000    1.909    0.000    5.091 
#    0.000    3.636    0.000    6.545    0.000    7.636 
#    0.000    0.000    0.000    0.000    0.000    0.000 
#
# Total GULP energy -490772.315606 kJ/mol
# GULP energy per Si atom -5576.958132 kJ/mol
# Density = 1.665665 g / cm^3
# Si number density = 16.694652 Si / 1000 Ang^3
#
#
#
# Elastic Constant Matrix: (Units=GPa)
#
#
# Indices 1 2 3 4 5 6 
#
# 1 123.1910 71.2285 62.8602 0.0000 0.0000 0.0000
# 2 71.2285 123.1929 62.8601 0.0000 0.0000 0.0000
# 3 62.8602 62.8601 94.5290 0.0000 0.0000 0.0000
# 4 0.0000 0.0000 0.0000 22.1198 0.0000 0.0000
# 5 0.0000 0.0000 0.0000 0.0000 22.1197 0.0000
# 6 0.0000 0.0000 0.0000 0.0000 0.0000 7.0892
#
#
#
# Elastic Compliance Matrix: (Units=1/GPa)
#
#
# Indices 1 2 3 4 5 6 
#
# 1 0.014134 -0.005110 -0.006001 0.000000 0.000000 0.000000
# 2 -0.005110 0.014134 -0.006001 0.000000 0.000000 0.000000
# 3 -0.006001 -0.006001 0.018559 0.000000 0.000000 0.000000
# 4 0.000000 0.000000 0.000000 0.045208 0.000000 0.000000
# 5 0.000000 0.000000 0.000000 0.000000 0.045209 0.000000
# 6 0.000000 0.000000 0.000000 0.000000 0.000000 0.141060
#
#
# Mechanical properties :
#
#
# Convention : Reuss Voigt Hill
#
# Bulk Modulus (GPa) = 79.33766 81.64562 80.49164
# Shear Modulus (GPa) = 15.78634 19.86333 17.82484
#
# Velocity S-wave (km/s) = 3.07839 3.45309 3.27111
# Velocity P-wave (km/s) = 7.76281 8.05667 7.91110
#
# Compressibility (1/GPa) = 0.01260435
#
# Stress axis : x y z
#
# Youngs Moduli (GPa) = 70.75035 70.75210 53.88097
#
# Poissons Ratio (x) = 0.36156 0.32333
# Poissons Ratio (y) = 0.36155 0.32331
# Poissons Ratio (z) = 0.42456 0.42455
#
# Static dielectric constant tensor:
#      x y z
#    x 1.535030 0.000000 0.000000 
#    y 0.000000 1.535030 0.000000 
#    z 0.000000 0.000000 1.573980 
# 
# From -- ./inp_files/7746.got.cif
#   From: 2010.05.17/outbox.cif.g08.bks.cpg/sg129_4_cif.got.tgz:7746.got - 2010.05.20 12:12:06.
