data_PCOD9565218
_publ_section_title
;
Structure prediction by ZEFSAII (Michael W. Deem and Ramdas Pophale) SiO2 
 PCOD9565218
Probable space group: P 4/N M M
;
_chemical_formula_sum "Si O2"
_cell_formula_units_Z 80
_cell_length_a 13.841616
_cell_length_b 13.841616
_cell_length_c 26.134182
_cell_angle_alpha 90.000000
_cell_angle_beta 90.000000
_cell_angle_gamma 90.000000
_cell_volume 5007.056645
_symmetry_space_group_name_H-M "P 4/N M M"
_symmetry_group_IT_number 129
_symmetry_cell_setting 'tetragonal'
loop_
_space_group_symop_operation_xyz
x,y,z
1/2-y,x,z
1/2-x,1/2-y,z
y,1/2-x,z
1/2+x,-y,-z
-x,1/2+y,-z
1/2+y,1/2+x,-z
-y,-x,-z
-x,-y,-z
1/2+y,-x,-z
1/2+x,1/2+y,-z
-y,1/2+x,-z
1/2-x,y,z
x,1/2-y,z
1/2-y,1/2-x,z
y,x,z
loop_
_atom_site_type_symbol
_atom_site_label
_atom_site_fract_x
_atom_site_fract_y
_atom_site_fract_z
Si Si1 0.859968 0.133003 0.147852
Si Si2 0.022269 0.865482 0.751644
Si Si3 0.023055 0.864746 0.456309
Si Si4 0.475353 0.865863 0.955266
Si Si5 0.637018 0.363934 0.647859
O O1 0.750000 0.096891 0.143600
O O2 0.855148 0.250000 0.148903
O O3 0.910647 0.103807 0.200700
O O4 0.924274 0.108728 0.098643
O O5 0.008718 0.750000 0.754680
O O6 0.074796 0.887201 0.698005
O O7 0.922698 0.922698 0.754592
O O8 0.093330 0.906671 0.500000
O O9 0.011407 0.750000 0.461796
O O10 0.071755 0.884910 0.401242
O O11 0.923326 0.923326 0.460219
O O12 0.486483 0.750000 0.958545
O O13 0.575851 0.924150 0.958962
O O14 0.406060 0.906060 0.000000
O O15 0.750000 0.381450 0.635077
O O16 0.627836 0.250000 0.660018
#
# Coordination Sequence:
#
# PCOD9565218 Si02
#       5
#    16  16  16  16  16
#     4   9  17  30  48  68  90 118 154 196 239 280
#     4  10  19  30  45  66  94 126 158 193 234 281
#     4  10  20  33  50  72  97 125 158 196 238 285
#     4  10  20  33  50  73 100 130 164 201 243 291
#     4   9  17  30  49  71  93 119 154 196 239 280
#
# _framework density 15.977449999999999
#
# number of rings (size 3 to 8) (size 9 to 14) (size 15 to 20)
#    0.000    2.400    0.000    3.000    0.000    5.000 
#    0.000    0.000    0.000    3.600    0.000    2.800 
#    0.000   16.400    0.000    0.000    0.000    0.000 
#
# Total GULP energy -446024.967246 kJ/mol
# GULP energy per Si atom -5575.312091 kJ/mol
# Density = 1.594108 g / cm^3
# Si number density = 15.977450 Si / 1000 Ang^3
#
#
#
# Elastic Constant Matrix: (Units=GPa)
#
#
# Indices 1 2 3 4 5 6 
#
# 1 84.6976 61.2939 58.9306 0.0000 0.0000 0.0000
# 2 61.2939 84.6973 58.9311 0.0000 0.0000 0.0000
# 3 58.9306 58.9311 120.4265 0.0000 0.0000 0.0000
# 4 0.0000 0.0000 0.0000 19.6182 0.0000 0.0000
# 5 0.0000 0.0000 0.0000 0.0000 19.6183 0.0000
# 6 0.0000 0.0000 0.0000 0.0000 0.0000 16.9319
#
#
#
# Elastic Compliance Matrix: (Units=1/GPa)
#
#
# Indices 1 2 3 4 5 6 
#
# 1 0.027026 -0.015703 -0.005541 0.000000 0.000000 0.000000
# 2 -0.015703 0.027026 -0.005541 0.000000 0.000000 0.000000
# 3 -0.005541 -0.005541 0.013727 0.000000 0.000000 0.000000
# 4 0.000000 0.000000 0.000000 0.050973 0.000000 0.000000
# 5 0.000000 0.000000 0.000000 0.000000 0.050973 0.000000
# 6 0.000000 0.000000 0.000000 0.000000 0.000000 0.059060
#
#
# Mechanical properties :
#
#
# Convention : Reuss Voigt Hill
#
# Bulk Modulus (GPa) = 70.37765 72.01473 71.19619
# Shear Modulus (GPa) = 17.41614 18.61139 18.01376
#
# Velocity S-wave (km/s) = 3.30516 3.41670 3.36139
# Velocity P-wave (km/s) = 7.66219 7.79331 7.72803
#
# Compressibility (1/GPa) = 0.01420906
#
# Stress axis : x y z
#
# Youngs Moduli (GPa) = 37.00202 37.00151 72.85048
#
# Poissons Ratio (x) = 0.58102 0.40365
# Poissons Ratio (y) = 0.58103 0.40367
# Poissons Ratio (z) = 0.20502 0.20503
#
# Static dielectric constant tensor:
#      x y z
#    x 1.516950 0.000000 0.000000 
#    y 0.000000 1.516950 0.000000 
#    z 0.000000 0.000000 1.530540 
# 
# From -- ./inp_files/6307.got.cif
#   From: 2010.05.17/outbox.cif.g08.bks.cpg/sg129_4_cif.got.tgz:6307.got - 2010.05.20 12:12:06.
