data_PCOD9565928
_publ_section_title
;
Structure prediction by ZEFSAII (Michael W. Deem and Ramdas Pophale) SiO2 
 PCOD9565928
Probable space group: P 4/N C C
;
_chemical_formula_sum "Si O2"
_cell_formula_units_Z 100
_cell_length_a 14.641867
_cell_length_b 14.641867
_cell_length_c 21.827678
_cell_angle_alpha 90.000000
_cell_angle_beta 90.000000
_cell_angle_gamma 90.000000
_cell_volume 4679.510797
_symmetry_space_group_name_H-M "P 4/N C C"
_symmetry_group_IT_number 130
_symmetry_cell_setting 'tetragonal'
loop_
_space_group_symop_operation_xyz
x,y,z
1/2-y,x,z
1/2-x,1/2-y,z
y,1/2-x,z
1/2+x,-y,1/2-z
-x,1/2+y,1/2-z
1/2+y,1/2+x,1/2-z
-y,-x,1/2-z
-x,-y,-z
1/2+y,-x,-z
1/2+x,1/2+y,-z
-y,1/2+x,-z
1/2-x,y,1/2+z
x,1/2-y,1/2+z
1/2-y,1/2-x,1/2+z
y,x,1/2+z
loop_
_atom_site_type_symbol
_atom_site_label
_atom_site_fract_x
_atom_site_fract_y
_atom_site_fract_z
Si Si1 0.581071 0.634949 0.161949
Si Si2 0.286177 0.897316 0.491564
Si Si3 0.610800 0.804009 0.801060
Si Si4 0.631008 0.426836 0.140533
Si Si5 0.950737 0.240129 0.619612
Si Si6 0.620895 0.181535 0.317085
Si Si7 0.250000 0.250000 0.385500
O O1 0.595635 0.679202 0.229323
O O2 0.600572 0.526965 0.160914
O O3 0.473521 0.647945 0.152193
O O4 0.653089 0.689746 0.120214
O O5 0.353390 0.814412 0.510268
O O6 0.322067 0.932963 0.426819
O O7 0.280254 0.966499 0.548348
O O8 0.637445 0.699670 0.815250
O O9 0.520696 0.817800 0.839895
O O10 0.554564 0.348041 0.134326
O O11 0.709853 0.391226 0.186021
O O12 0.851542 0.202459 0.639469
O O13 0.640145 0.140145 0.250000
#
# Coordination Sequence:
#
# PCOD9565928 Si02
#       7
#    16  16  16  16  16  16   4
#     4  12  23  42  65  94 126 179 227 270 333 408
#     4   9  18  40  67  93 135 182 223 275 348 410
#     4  11  22  43  65  86 131 183 222 266 335 416
#     4  11  24  42  69 100 131 181 230 280 343 411
#     4  11  24  40  67 100 133 172 225 283 344 402
#     4  12  24  41  60  98 143 168 215 285 346 407
#     4  12  20  44  68  84 126 180 220 272 320 402
#
# _framework density 21.369755000000001
#
# number of rings (size 3 to 8) (size 9 to 14) (size 15 to 20)
#    0.000    0.960    6.400    0.480    2.240    1.280 
#    0.000    2.400    0.000    0.000    0.000    0.000 
#    0.000    0.000    0.000    0.000    0.000    0.000 
#
# Total GULP energy -557356.352481 kJ/mol
# GULP energy per Si atom -5573.563525 kJ/mol
# Density = 2.132112 g / cm^3
# Si number density = 21.369755 Si / 1000 Ang^3
#
#
#
# Elastic Constant Matrix: (Units=GPa)
#
#
# Indices 1 2 3 4 5 6 
#
# 1 87.6472 28.4395 26.1651 0.0000 0.0000 0.0000
# 2 28.4395 87.6472 26.1651 0.0000 0.0000 0.0000
# 3 26.1651 26.1651 54.1319 0.0000 0.0000 0.0000
# 4 0.0000 0.0000 0.0000 11.6339 0.0000 0.0000
# 5 0.0000 0.0000 0.0000 0.0000 11.6339 0.0000
# 6 0.0000 0.0000 0.0000 0.0000 0.0000 28.3337
#
#
#
# Elastic Compliance Matrix: (Units=1/GPa)
#
#
# Indices 1 2 3 4 5 6 
#
# 1 0.013952 -0.002938 -0.005324 0.000000 0.000000 0.000000
# 2 -0.002938 0.013952 -0.005324 0.000000 0.000000 0.000000
# 3 -0.005324 -0.005324 0.023620 0.000000 0.000000 0.000000
# 4 0.000000 0.000000 0.000000 0.085956 0.000000 0.000000
# 5 0.000000 0.000000 0.000000 0.000000 0.085956 0.000000
# 6 0.000000 0.000000 0.000000 0.000000 0.000000 0.035294
#
#
# Mechanical properties :
#
#
# Convention : Reuss Voigt Hill
#
# Bulk Modulus (GPa) = 41.06242 43.44060 42.25151
# Shear Modulus (GPa) = 17.00582 20.23074 18.61828
#
# Velocity S-wave (km/s) = 2.82403 3.08019 2.95489
# Velocity P-wave (km/s) = 5.46722 5.74650 5.60860
#
# Compressibility (1/GPa) = 0.02435317
#
# Stress axis : x y z
#
# Youngs Moduli (GPa) = 71.67476 71.67476 42.33707
#
# Poissons Ratio (x) = 0.21057 0.22539
# Poissons Ratio (y) = 0.21057 0.22539
# Poissons Ratio (z) = 0.38158 0.38158
#
# Static dielectric constant tensor:
#      x y z
#    x 1.803050 0.000000 0.000000 
#    y 0.000000 1.803050 0.000000 
#    z 0.000000 0.000000 1.804850 
# 
# From -- ./inp_files/4219.got.cif
#   From: 2010.05.17/outbox.cif.g08.bks.cpg/sg130_3_cif.got.tgz:4219.got - 2010.05.20 12:17:35.
