data_PCOD9565574
_publ_section_title
;
Structure prediction by ZEFSAII (Michael W. Deem and Ramdas Pophale) SiO2 
 PCOD9565574
Probable space group: P 4/N C C
;
_chemical_formula_sum "Si O2"
_cell_formula_units_Z 68
_cell_length_a 12.420686
_cell_length_b 12.420686
_cell_length_c 19.701865
_cell_angle_alpha 90.000000
_cell_angle_beta 90.000000
_cell_angle_gamma 90.000000
_cell_volume 3039.474502
_symmetry_space_group_name_H-M "P 4/N C C"
_symmetry_group_IT_number 130
_symmetry_cell_setting 'tetragonal'
loop_
_space_group_symop_operation_xyz
x,y,z
1/2-y,x,z
1/2-x,1/2-y,z
y,1/2-x,z
1/2+x,-y,1/2-z
-x,1/2+y,1/2-z
1/2+y,1/2+x,1/2-z
-y,-x,1/2-z
-x,-y,-z
1/2+y,-x,-z
1/2+x,1/2+y,-z
-y,1/2+x,-z
1/2-x,y,1/2+z
x,1/2-y,1/2+z
1/2-y,1/2-x,1/2+z
y,x,1/2+z
loop_
_atom_site_type_symbol
_atom_site_label
_atom_site_fract_x
_atom_site_fract_y
_atom_site_fract_z
Si Si1 0.250000 0.750000 0.500000
Si Si2 0.996929 0.790673 0.117564
Si Si3 0.800400 0.445888 0.406659
Si Si4 0.430386 0.755026 0.258430
Si Si5 0.113067 0.449918 0.474206
O O1 0.144401 0.742887 0.452965
O O2 0.986462 0.765574 0.197160
O O3 0.090628 0.879779 0.111586
O O4 0.022303 0.679183 0.079646
O O5 0.905781 0.843242 0.070108
O O6 0.749105 0.473301 0.334801
O O7 0.820486 0.546374 0.455846
O O8 0.367140 0.867140 0.250000
O O9 0.337666 0.662335 0.250000
O O10 0.000000 0.500000 0.500000
#
# Coordination Sequence:
#
# PCOD9565574 Si02
#       5
#     4  16  16  16  16
#     4  12  16  28  66  88 124 148 190 264 340 360
#     4  10  20  38  54  80 124 161 202 253 310 378
#     4  10  19  32  58  90 120 152 199 263 321 383
#     4   9  18  32  55  87 119 151 197 262 333 372
#     4  10  22  37  59  86 119 163 210 254 315 377
#
# _framework density 22.372288000000001
#
# number of rings (size 3 to 8) (size 9 to 14) (size 15 to 20)
#    0.000    2.118    2.353    2.824    0.000    0.471 
#    0.000    8.235    0.000    0.000    0.000    6.588 
#    0.000    0.000    0.000    0.000    0.000    0.000 
#
# Total GULP energy -378689.770127 kJ/mol
# GULP energy per Si atom -5568.967208 kJ/mol
# Density = 2.232137 g / cm^3
# Si number density = 22.372288 Si / 1000 Ang^3
#
#
#
# Elastic Constant Matrix: (Units=GPa)
#
#
# Indices 1 2 3 4 5 6 
#
# 1 35.3816 24.9664 58.9986 0.0000 0.0000 0.0000
# 2 24.9664 35.3816 58.9985 0.0000 0.0000 0.0000
# 3 58.9986 58.9985 281.0462 0.0000 0.0000 0.0000
# 4 0.0000 0.0000 0.0000 24.5087 0.0000 0.0000
# 5 0.0000 0.0000 0.0000 0.0000 24.5087 0.0000
# 6 0.0000 0.0000 0.0000 0.0000 0.0000 16.8378
#
#
#
# Elastic Compliance Matrix: (Units=1/GPa)
#
#
# Indices 1 2 3 4 5 6 
#
# 1 0.062060 -0.033953 -0.005901 0.000000 0.000000 0.000000
# 2 -0.033953 0.062060 -0.005900 0.000000 0.000000 0.000000
# 3 -0.005901 -0.005900 0.006035 0.000000 0.000000 0.000000
# 4 0.000000 0.000000 0.000000 0.040802 0.000000 0.000000
# 5 0.000000 0.000000 0.000000 0.000000 0.040802 0.000000
# 6 0.000000 0.000000 0.000000 0.000000 0.000000 0.059390
#
#
# Mechanical properties :
#
#
# Convention : Reuss Voigt Hill
#
# Bulk Modulus (GPa) = 25.87402 70.85962 48.36682
# Shear Modulus (GPa) = 13.31413 27.09408 20.20410
#
# Velocity S-wave (km/s) = 2.44215 3.48380 3.00840
# Velocity P-wave (km/s) = 4.42068 6.92273 5.80804
#
# Compressibility (1/GPa) = 0.03864881
#
# Stress axis : x y z
#
# Youngs Moduli (GPa) = 16.11332 16.11334 165.68754
#
# Poissons Ratio (x) = 0.54709 0.97764
# Poissons Ratio (y) = 0.54709 0.97763
# Poissons Ratio (z) = 0.09508 0.09508
#
# Static dielectric constant tensor:
#      x y z
#    x 1.894440 0.000000 0.000000 
#    y 0.000000 1.894440 0.000000 
#    z 0.000000 0.000000 1.550630 
# 
# From -- ./inp_files/2273.got.cif
#   From: 2010.05.17/outbox.cif.g08.bks.cpg/sg130_2_cif.got.tgz:2273.got - 2010.05.20 12:17:35.
