data_PCOD9565878
_publ_section_title
;
Structure prediction by ZEFSAII (Michael W. Deem and Ramdas Pophale) SiO2 
 PCOD9565878
Probable space group: P 4/N C C
;
_chemical_formula_sum "Si O2"
_cell_formula_units_Z 116
_cell_length_a 18.573205
_cell_length_b 18.573205
_cell_length_c 15.470421
_cell_angle_alpha 90.000000
_cell_angle_beta 90.000000
_cell_angle_gamma 90.000000
_cell_volume 5336.737443
_symmetry_space_group_name_H-M "P 4/N C C"
_symmetry_group_IT_number 130
_symmetry_cell_setting 'tetragonal'
loop_
_space_group_symop_operation_xyz
x,y,z
1/2-y,x,z
1/2-x,1/2-y,z
y,1/2-x,z
1/2+x,-y,1/2-z
-x,1/2+y,1/2-z
1/2+y,1/2+x,1/2-z
-y,-x,1/2-z
-x,-y,-z
1/2+y,-x,-z
1/2+x,1/2+y,-z
-y,1/2+x,-z
1/2-x,y,1/2+z
x,1/2-y,1/2+z
1/2-y,1/2-x,1/2+z
y,x,1/2+z
loop_
_atom_site_type_symbol
_atom_site_label
_atom_site_fract_x
_atom_site_fract_y
_atom_site_fract_z
Si Si1 0.018531 0.779396 0.594978
Si Si2 0.868078 0.757749 0.639056
Si Si3 0.963645 0.907079 0.942056
Si Si4 0.981334 0.156981 0.578256
Si Si5 0.250000 0.250000 0.103189
Si Si6 0.532283 0.375240 0.876212
Si Si7 0.434314 0.003359 0.331456
Si Si8 0.913744 0.768539 0.840279
O O1 0.935487 0.759128 0.577106
O O2 0.053202 0.801924 0.503949
O O3 0.048316 0.708359 0.642128
O O4 0.008714 0.850642 0.652398
O O5 0.814022 0.822998 0.623930
O O6 0.892558 0.763363 0.739043
O O7 0.893292 0.954788 0.960049
O O8 0.941732 0.846364 0.872610
O O9 0.021184 0.964370 0.906813
O O10 0.000905 0.874708 0.026226
O O11 0.022364 0.212687 0.639505
O O12 0.925189 0.103309 0.624684
O O13 0.160699 0.250212 0.110772
O O14 0.467904 0.416030 0.824497
O O15 0.459308 0.959308 0.250000
#
# Coordination Sequence:
#
# PCOD9565878 Si02
#       8
#    16  16  16  16   4  16  16  16
#     4  12  23  38  65  91 125 168 225 274 334 393
#     4  11  22  38  53  89 137 171 203 259 332 412
#     4  11  20  37  63  89 129 173 220 269 320 401
#     4  11  22  38  61  91 124 173 220 274 326 392
#     4  12  20  36  56  94 132 168 212 258 324 408
#     4  11  23  41  63  92 131 168 224 284 331 396
#     4  11  23  42  64  96 134 177 220 272 346 407
#     4  12  21  37  63  90 130 176 215 264 336 403
#
# _framework density 21.736125999999999
#
# number of rings (size 3 to 8) (size 9 to 14) (size 15 to 20)
#    0.000    0.690    6.897    2.483    0.000    3.310 
#    0.000    0.000    0.000    2.897    0.000    0.966 
#    0.000    0.000    0.000    0.000    0.000    0.000 
#
# Total GULP energy -647622.113051 kJ/mol
# GULP energy per Si atom -5582.949250 kJ/mol
# Density = 2.168665 g / cm^3
# Si number density = 21.736126 Si / 1000 Ang^3
#
#
#
# Elastic Constant Matrix: (Units=GPa)
#
#
# Indices 1 2 3 4 5 6 
#
# 1 120.8374 48.9476 4.8137 0.0000 0.0000 0.0000
# 2 48.9476 120.8374 4.8137 0.0000 0.0000 0.0000
# 3 4.8137 4.8137 19.3966 0.0000 0.0000 0.0000
# 4 0.0000 0.0000 0.0000 24.4844 0.0000 0.0000
# 5 0.0000 0.0000 0.0000 0.0000 24.4844 0.0000
# 6 0.0000 0.0000 0.0000 0.0000 0.0000 17.1923
#
#
#
# Elastic Compliance Matrix: (Units=1/GPa)
#
#
# Indices 1 2 3 4 5 6 
#
# 1 0.009942 -0.003968 -0.001483 0.000000 0.000000 0.000000
# 2 -0.003968 0.009942 -0.001483 0.000000 0.000000 0.000000
# 3 -0.001483 -0.001483 0.052291 0.000000 0.000000 0.000000
# 4 0.000000 0.000000 0.000000 0.040842 0.000000 0.000000
# 5 0.000000 0.000000 0.000000 0.000000 0.040842 0.000000
# 6 0.000000 0.000000 0.000000 0.000000 0.000000 0.058166
#
#
# Mechanical properties :
#
#
# Convention : Reuss Voigt Hill
#
# Bulk Modulus (GPa) = 17.15008 42.02462 29.58735
# Shear Modulus (GPa) = 20.38086 26.73199 23.55643
#
# Velocity S-wave (km/s) = 3.06543 3.51071 3.29560
# Velocity P-wave (km/s) = 4.52066 5.98410 5.30310
#
# Compressibility (1/GPa) = 0.05830877
#
# Stress axis : x y z
#
# Youngs Moduli (GPa) = 100.58310 100.58310 19.12366
#
# Poissons Ratio (x) = 0.39913 0.02835
# Poissons Ratio (y) = 0.39913 0.02835
# Poissons Ratio (z) = 0.14912 0.14912
#
# Static dielectric constant tensor:
#      x y z
#    x 1.831590 0.000000 0.000000 
#    y 0.000000 1.831590 0.000000 
#    z 0.000000 0.000000 1.887390 
# 
# From -- ./inp_files/3237.got.cif
#   From: 2010.05.17/outbox.cif.g08.bks.cpg/sg130_2_cif.got.tgz:3237.got - 2010.05.20 12:17:35.
