data_PCOD9565258
_publ_section_title
;
Structure prediction by ZEFSAII (Michael W. Deem and Ramdas Pophale) SiO2 
 PCOD9565258
Probable space group: P 4/N M M
;
_chemical_formula_sum "Si O2"
_cell_formula_units_Z 112
_cell_length_a 18.268738
_cell_length_b 18.268738
_cell_length_c 21.734205
_cell_angle_alpha 90.000000
_cell_angle_beta 90.000000
_cell_angle_gamma 90.000000
_cell_volume 7253.721111
_symmetry_space_group_name_H-M "P 4/N M M"
_symmetry_group_IT_number 129
_symmetry_cell_setting 'tetragonal'
loop_
_space_group_symop_operation_xyz
x,y,z
1/2-y,x,z
1/2-x,1/2-y,z
y,1/2-x,z
1/2+x,-y,-z
-x,1/2+y,-z
1/2+y,1/2+x,-z
-y,-x,-z
-x,-y,-z
1/2+y,-x,-z
1/2+x,1/2+y,-z
-y,1/2+x,-z
1/2-x,y,z
x,1/2-y,z
1/2-y,1/2-x,z
y,x,z
loop_
_atom_site_type_symbol
_atom_site_label
_atom_site_fract_x
_atom_site_fract_y
_atom_site_fract_z
Si Si1 0.935655 0.439034 0.790889
Si Si2 0.059479 0.663956 0.535902
Si Si3 0.835984 0.545245 0.423400
Si Si4 0.959415 0.834298 0.136559
Si Si5 0.496480 0.878873 0.002745
Si Si6 0.665989 0.541356 0.869405
Si Si7 0.437700 0.561123 0.650559
O O1 0.870507 0.476117 0.829547
O O2 0.914706 0.424399 0.720373
O O3 0.998871 0.501130 0.790267
O O4 0.975651 0.370409 0.822912
O O5 0.127057 0.627057 0.500000
O O6 0.069272 0.750000 0.542207
O O7 0.051646 0.625220 0.601388
O O8 0.990727 0.650224 0.490548
O O9 0.750000 0.552532 0.414290
O O10 0.879364 0.620637 0.418521
O O11 0.871640 0.489272 0.374628
O O12 0.943595 0.750000 0.153153
O O13 0.888360 0.888360 0.141581
O O14 0.987952 0.837561 0.066098
O O15 0.554436 0.945565 0.003803
O O16 0.416914 0.916914 0.000000
O O17 0.514862 0.836819 0.940291
O O18 0.750000 0.556585 0.851935
O O19 0.612269 0.612269 0.863585
O O20 0.508921 0.508921 0.649052
#
# Coordination Sequence:
#
# PCOD9565258 Si02
#       7
#    16  16  16  16  16  16  16
#     4   9  18  32  48  68  92 124 164 198 229 275
#     4   9  17  29  46  68  92 117 148 185 228 274
#     4   9  17  29  46  69  96 124 153 186 226 273
#     4  10  19  31  49  72  97 125 157 195 239 285
#     4   9  15  28  49  70  93 121 159 197 231 276
#     4  10  19  31  49  73  99 125 156 194 236 284
#     4   9  17  30  48  67  90 119 155 196 231 262
#
# _framework density 15.440351
#
# number of rings (size 3 to 8) (size 9 to 14) (size 15 to 20)
#    0.000    2.714    1.429    0.857    0.000    3.429 
#    0.000    0.000    0.000    3.000    0.000    7.000 
#    0.000    3.429    0.000    0.000    0.000    0.000 
#
# Total GULP energy -623609.596907 kJ/mol
# GULP energy per Si atom -5567.942830 kJ/mol
# Density = 1.540521 g / cm^3
# Si number density = 15.440351 Si / 1000 Ang^3
#
#
#
# Elastic Constant Matrix: (Units=GPa)
#
#
# Indices 1 2 3 4 5 6 
#
# 1 73.2434 37.6900 30.7986 0.0000 0.0000 0.0000
# 2 37.6900 73.2434 30.7986 0.0000 0.0000 0.0000
# 3 30.7986 30.7986 112.7405 0.0000 0.0000 0.0000
# 4 0.0000 0.0000 0.0000 6.6489 0.0000 0.0000
# 5 0.0000 0.0000 0.0000 0.0000 6.6489 0.0000
# 6 0.0000 0.0000 0.0000 0.0000 0.0000 10.6205
#
#
#
# Elastic Compliance Matrix: (Units=1/GPa)
#
#
# Indices 1 2 3 4 5 6 
#
# 1 0.019376 -0.008750 -0.002903 0.000000 0.000000 0.000000
# 2 -0.008750 0.019376 -0.002903 0.000000 0.000000 0.000000
# 3 -0.002903 -0.002903 0.010456 0.000000 0.000000 0.000000
# 4 0.000000 0.000000 0.000000 0.150401 0.000000 0.000000
# 5 0.000000 0.000000 0.000000 0.000000 0.150401 0.000000
# 6 0.000000 0.000000 0.000000 0.000000 0.000000 0.094158
#
#
# Mechanical properties :
#
#
# Convention : Reuss Voigt Hill
#
# Bulk Modulus (GPa) = 49.75882 50.86683 50.31282
# Shear Modulus (GPa) = 10.41709 15.44632 12.93171
#
# Velocity S-wave (km/s) = 2.60025 3.16632 2.89715
# Velocity P-wave (km/s) = 6.42740 6.81051 6.62173
#
# Compressibility (1/GPa) = 0.02009694
#
# Stress axis : x y z
#
# Youngs Moduli (GPa) = 51.60892 51.60892 95.63922
#
# Poissons Ratio (x) = 0.45159 0.27763
# Poissons Ratio (y) = 0.45159 0.27763
# Poissons Ratio (z) = 0.14982 0.14982
#
# Static dielectric constant tensor:
#      x y z
#    x 1.500030 0.000000 0.000000 
#    y 0.000000 1.500030 0.000000 
#    z 0.000000 0.000000 1.524040 
# 
# From -- ./inp_files/6661.got.cif
#   From: 2010.05.17/outbox.cif.g08.bks.cpg/sg129_4_cif.got.tgz:6661.got - 2010.05.20 12:12:06.
