data_PCOD9565399
_publ_section_title
;
Structure prediction by ZEFSAII (Michael W. Deem and Ramdas Pophale) SiO2 
 PCOD9565399
Probable space group: P 4/N M M
;
_chemical_formula_sum "Si O2"
_cell_formula_units_Z 128
_cell_length_a 20.060188
_cell_length_b 20.060188
_cell_length_c 17.008774
_cell_angle_alpha 90.000000
_cell_angle_beta 90.000000
_cell_angle_gamma 90.000000
_cell_volume 6844.520179
_symmetry_space_group_name_H-M "P 4/N M M"
_symmetry_group_IT_number 129
_symmetry_cell_setting 'tetragonal'
loop_
_space_group_symop_operation_xyz
x,y,z
1/2-y,x,z
1/2-x,1/2-y,z
y,1/2-x,z
1/2+x,-y,-z
-x,1/2+y,-z
1/2+y,1/2+x,-z
-y,-x,-z
-x,-y,-z
1/2+y,-x,-z
1/2+x,1/2+y,-z
-y,1/2+x,-z
1/2-x,y,z
x,1/2-y,z
1/2-y,1/2-x,z
y,x,z
loop_
_atom_site_type_symbol
_atom_site_label
_atom_site_fract_x
_atom_site_fract_y
_atom_site_fract_z
Si Si1 0.520097 0.633235 0.365037
Si Si2 0.437274 0.325502 0.468645
Si Si3 0.170464 0.676741 0.093405
Si Si4 0.991468 0.097581 0.947494
Si Si5 0.067498 0.326201 0.085157
Si Si6 0.413707 0.973774 0.354861
Si Si7 0.828443 0.555455 0.190765
Si Si8 0.555768 0.172692 0.203071
O O1 0.575820 0.575820 0.363560
O O2 0.538788 0.675826 0.440960
O O3 0.451435 0.593702 0.379422
O O4 0.526687 0.666417 0.279555
O O5 0.427988 0.250000 0.439941
O O6 0.370039 0.370039 0.463612
O O7 0.492837 0.365361 0.418858
O O8 0.250000 0.680201 0.106333
O O9 0.141328 0.750000 0.110705
O O10 0.147906 0.616528 0.148228
O O11 0.164806 0.664806 0.000000
O O12 0.029401 0.029401 0.924485
O O13 0.999421 0.142945 0.869635
O O14 0.034936 0.139859 0.009177
O O15 0.929604 0.070397 0.000000
O O16 0.084601 0.250000 0.068714
O O17 0.130944 0.369057 0.109279
O O18 0.010707 0.328688 0.150970
O O19 0.372526 0.956128 0.277704
O O20 0.470703 0.029298 0.337913
O O21 0.750000 0.571040 0.174402
O O22 0.879372 0.620629 0.184420
O O23 0.568261 0.250000 0.225072
#
# Coordination Sequence:
#
# PCOD9565399 Si02
#       8
#    16  16  16  16  16  16  16  16
#     4   9  19  35  56  81 111 148 190 233 279 332
#     4  10  20  36  59  87 119 151 183 226 282 347
#     4   8  15  31  53  74 102 142 184 229 286 349
#     4   9  19  34  54  77 107 147 190 238 293 341
#     4  10  21  36  54  77 107 145 191 242 295 353
#     4  10  20  35  57  80 108 147 192 237 285 331
#     4  10  20  35  56  85 121 158 196 238 287 350
#     4  10  20  33  52  80 110 142 187 239 291 348
#
# _framework density 18.701091000000002
#
# number of rings (size 3 to 8) (size 9 to 14) (size 15 to 20)
#    0.000    2.500    0.000    2.250    1.750    2.375 
#    0.000    1.250    0.000    4.875    0.000    1.750 
#    0.000    5.250    0.000    0.000    0.000    0.000 
#
# Total GULP energy -713334.683290 kJ/mol
# GULP energy per Si atom -5572.927213 kJ/mol
# Density = 1.865853 g / cm^3
# Si number density = 18.701091 Si / 1000 Ang^3
#
#
#
# Elastic Constant Matrix: (Units=GPa)
#
#
# Indices 1 2 3 4 5 6 
#
# 1 147.9230 19.7351 33.5922 0.0000 0.0000 0.0000
# 2 19.7351 147.9325 33.5885 0.0000 0.0000 0.0000
# 3 33.5922 33.5885 81.9684 0.0000 0.0000 0.0000
# 4 0.0000 0.0000 0.0000 29.7420 0.0000 0.0000
# 5 0.0000 0.0000 0.0000 0.0000 29.7422 0.0000
# 6 0.0000 0.0000 0.0000 0.0000 0.0000 20.8098
#
#
#
# Elastic Compliance Matrix: (Units=1/GPa)
#
#
# Indices 1 2 3 4 5 6 
#
# 1 0.007469 -0.000332 -0.002925 0.000000 0.000000 0.000000
# 2 -0.000332 0.007468 -0.002924 0.000000 0.000000 0.000000
# 3 -0.002925 -0.002924 0.014597 0.000000 0.000000 0.000000
# 4 0.000000 0.000000 0.000000 0.033622 0.000000 0.000000
# 5 0.000000 0.000000 0.000000 0.000000 0.033622 0.000000
# 6 0.000000 0.000000 0.000000 0.000000 0.000000 0.048054
#
#
# Mechanical properties :
#
#
# Convention : Reuss Voigt Hill
#
# Bulk Modulus (GPa) = 58.23632 61.29504 59.76568
# Shear Modulus (GPa) = 30.69021 35.45268 33.07144
#
# Velocity S-wave (km/s) = 4.05543 4.35875 4.20982
# Velocity P-wave (km/s) = 7.28951 7.62751 7.46042
#
# Compressibility (1/GPa) = 0.01717141
#
# Stress axis : x y z
#
# Youngs Moduli (GPa) = 133.89066 133.90324 68.50915
#
# Poissons Ratio (x) = 0.04450 0.20037
# Poissons Ratio (y) = 0.04450 0.20032
# Poissons Ratio (z) = 0.39159 0.39154
#
# Static dielectric constant tensor:
#      x y z
#    x 1.679630 0.000000 0.000000 
#    y 0.000000 1.679630 0.000000 
#    z 0.000000 0.000000 1.639320 
# 
# From -- ./inp_files/6085.got.cif
#   From: 2010.05.17/outbox.cif.g08.bks.cpg/sg129_4_cif.got.tgz:6085.got - 2010.05.20 12:12:06.
