data_PCOD9565351
_publ_section_title
;
Structure prediction by ZEFSAII (Michael W. Deem and Ramdas Pophale) SiO2 
 PCOD9565351
Probable space group: P 4/N M M
;
_chemical_formula_sum "Si O2"
_cell_formula_units_Z 96
_cell_length_a 20.946853
_cell_length_b 20.946853
_cell_length_c 12.658930
_cell_angle_alpha 90.000000
_cell_angle_beta 90.000000
_cell_angle_gamma 90.000000
_cell_volume 5554.366952
_symmetry_space_group_name_H-M "P 4/N M M"
_symmetry_group_IT_number 129
_symmetry_cell_setting 'tetragonal'
loop_
_space_group_symop_operation_xyz
x,y,z
1/2-y,x,z
1/2-x,1/2-y,z
y,1/2-x,z
1/2+x,-y,-z
-x,1/2+y,-z
1/2+y,1/2+x,-z
-y,-x,-z
-x,-y,-z
1/2+y,-x,-z
1/2+x,1/2+y,-z
-y,1/2+x,-z
1/2-x,y,z
x,1/2-y,z
1/2-y,1/2-x,z
y,x,z
loop_
_atom_site_type_symbol
_atom_site_label
_atom_site_fract_x
_atom_site_fract_y
_atom_site_fract_z
Si Si1 0.823979 0.570714 0.556485
Si Si2 0.677457 0.922682 0.303628
Si Si3 0.918366 0.481868 0.187394
Si Si4 0.825383 0.178854 0.665801
Si Si5 0.822449 0.381523 0.100836
Si Si6 0.446236 0.598431 0.608024
O O1 0.750000 0.579158 0.587225
O O2 0.868992 0.631009 0.583343
O O3 0.825692 0.563652 0.428907
O O4 0.854756 0.506452 0.602264
O O5 0.750000 0.926856 0.268929
O O6 0.646845 0.853156 0.287850
O O7 0.633619 0.972344 0.242622
O O8 0.877293 0.435005 0.114064
O O9 0.948582 0.442824 0.285370
O O10 0.973037 0.526964 0.138467
O O11 0.750000 0.173105 0.648103
O O12 0.845992 0.250000 0.628919
O O13 0.840877 0.175827 0.790828
O O14 0.863246 0.120494 0.615523
O O15 0.750000 0.407566 0.091987
O O16 0.838885 0.338885 0.000000
O O17 0.442578 0.557423 0.500000
#
# Coordination Sequence:
#
# PCOD9565351 Si02
#       6
#    16  16  16  16  16  16
#     4  10  20  32  48  69  94 129 171 213 256 300
#     4   9  17  29  45  66  94 128 166 206 247 290
#     4  10  20  33  50  72 100 131 163 205 248 295
#     4   9  19  33  47  69 100 133 171 212 255 304
#     4  10  20  34  54  75  96 126 161 201 250 305
#     4  11  20  31  49  71 100 136 174 209 249 300
#
# _framework density 17.283698000000001
#
# number of rings (size 3 to 8) (size 9 to 14) (size 15 to 20)
#    0.000    2.167    1.667    2.000    0.000    4.167 
#    0.000    2.500    0.000    0.000    0.000    0.000 
#    0.000    0.000    0.000    0.000    0.000   30.667 
#
# Total GULP energy -535532.309836 kJ/mol
# GULP energy per Si atom -5578.461561 kJ/mol
# Density = 1.724436 g / cm^3
# Si number density = 17.283698 Si / 1000 Ang^3
#
#
#
# Elastic Constant Matrix: (Units=GPa)
#
#
# Indices 1 2 3 4 5 6 
#
# 1 88.6977 34.1029 19.8301 0.0000 0.0000 0.0000
# 2 34.1029 88.6991 19.8300 0.0000 0.0000 0.0000
# 3 19.8301 19.8300 46.2808 0.0000 0.0000 0.0000
# 4 0.0000 0.0000 0.0000 12.8606 0.0000 0.0000
# 5 0.0000 0.0000 0.0000 0.0000 12.8604 0.0000
# 6 0.0000 0.0000 0.0000 0.0000 0.0000 23.4217
#
#
#
# Elastic Compliance Matrix: (Units=1/GPa)
#
#
# Indices 1 2 3 4 5 6 
#
# 1 0.013884 -0.004433 -0.004050 0.000000 0.000000 0.000000
# 2 -0.004433 0.013884 -0.004049 0.000000 0.000000 0.000000
# 3 -0.004050 -0.004049 0.025077 0.000000 0.000000 0.000000
# 4 0.000000 0.000000 0.000000 0.077757 0.000000 0.000000
# 5 0.000000 0.000000 0.000000 0.000000 0.077758 0.000000
# 6 0.000000 0.000000 0.000000 0.000000 0.000000 0.042695
#
#
# Mechanical properties :
#
#
# Convention : Reuss Voigt Hill
#
# Bulk Modulus (GPa) = 35.99518 41.24485 38.62001
# Shear Modulus (GPa) = 17.52053 19.82285 18.67169
#
# Velocity S-wave (km/s) = 3.18732 3.39028 3.29037
# Velocity P-wave (km/s) = 5.86657 6.26423 6.06866
#
# Compressibility (1/GPa) = 0.02778150
#
# Stress axis : x y z
#
# Youngs Moduli (GPa) = 72.02568 72.02710 39.87644
#
# Poissons Ratio (x) = 0.31928 0.16148
# Poissons Ratio (y) = 0.31927 0.16148
# Poissons Ratio (z) = 0.29168 0.29167
#
# Static dielectric constant tensor:
#      x y z
#    x 1.591290 0.000000 0.000000 
#    y 0.000000 1.591290 0.000000 
#    z 0.000000 0.000000 1.573830 
# 
# From -- ./inp_files/3846.got.cif
#   From: 2010.05.17/outbox.cif.g08.bks.cpg/sg129_2_cif.got.tgz:3846.got - 2010.05.20 12:12:06.
