data_PCOD9565833
_publ_section_title
;
Structure prediction by ZEFSAII (Michael W. Deem and Ramdas Pophale) SiO2 
 PCOD9565833
Probable space group: P 4/N C C
;
_chemical_formula_sum "Si O2"
_cell_formula_units_Z 100
_cell_length_a 14.355987
_cell_length_b 14.355987
_cell_length_c 21.168785
_cell_angle_alpha 90.000000
_cell_angle_beta 90.000000
_cell_angle_gamma 90.000000
_cell_volume 4362.767255
_symmetry_space_group_name_H-M "P 4/N C C"
_symmetry_group_IT_number 130
_symmetry_cell_setting 'tetragonal'
loop_
_space_group_symop_operation_xyz
x,y,z
1/2-y,x,z
1/2-x,1/2-y,z
y,1/2-x,z
1/2+x,-y,1/2-z
-x,1/2+y,1/2-z
1/2+y,1/2+x,1/2-z
-y,-x,1/2-z
-x,-y,-z
1/2+y,-x,-z
1/2+x,1/2+y,-z
-y,1/2+x,-z
1/2-x,y,1/2+z
x,1/2-y,1/2+z
1/2-y,1/2-x,1/2+z
y,x,1/2+z
loop_
_atom_site_type_symbol
_atom_site_label
_atom_site_fract_x
_atom_site_fract_y
_atom_site_fract_z
Si Si1 0.260168 0.039485 0.705620
Si Si2 0.532628 0.147996 0.527308
Si Si3 0.045789 0.645145 0.679586
Si Si4 0.938032 0.951847 0.354684
Si Si5 0.750000 0.750000 0.250315
Si Si6 0.212676 0.099986 0.420833
Si Si7 0.346545 0.694860 0.423358
O O1 0.156160 0.018291 0.681582
O O2 0.338505 0.060881 0.651459
O O3 0.251905 0.135675 0.744320
O O4 0.307557 0.965161 0.752665
O O5 0.493157 0.068977 0.574178
O O6 0.449476 0.191432 0.486910
O O7 0.616222 0.130248 0.476751
O O8 0.575889 0.227309 0.571189
O O9 0.018030 0.535859 0.675930
O O10 0.143246 0.656156 0.643311
O O11 0.974605 0.697032 0.633197
O O12 0.314769 0.141879 0.415091
O O13 0.250000 0.750000 0.433239
#
# Coordination Sequence:
#
# PCOD9565833 Si02
#       7
#    16  16  16  16   4  16  16
#     4  10  23  47  68 105 147 189 243 302 365 444
#     4  11  23  42  73 103 144 188 250 291 396 447
#     4  11  26  43  76 105 142 191 259 297 370 458
#     4  11  25  43  75 105 144 199 238 313 374 447
#     4   8  20  40  72  84 130 196 212 292 368 402
#     4  10  26  42  65 103 143 185 235 313 370 445
#     4  11  23  47  72 103 150 197 239 326 382 445
#
# _framework density 22.921232
#
# number of rings (size 3 to 8) (size 9 to 14) (size 15 to 20)
#    0.000    1.440    1.600    1.440   11.200    1.280 
#    2.880    0.000    0.000    4.800    0.000    0.000 
#    0.000    0.000    0.000    0.000    0.000    0.000 
#
# Total GULP energy -557930.577298 kJ/mol
# GULP energy per Si atom -5579.305773 kJ/mol
# Density = 2.286906 g / cm^3
# Si number density = 22.921232 Si / 1000 Ang^3
#
#
#
# Elastic Constant Matrix: (Units=GPa)
#
#
# Indices 1 2 3 4 5 6 
#
# 1 116.3517 -5.3737 38.9586 0.0000 0.0000 0.0000
# 2 -5.3737 116.3517 38.9586 0.0000 0.0000 0.0000
# 3 38.9586 38.9586 100.5996 0.0000 0.0000 0.0000
# 4 0.0000 0.0000 0.0000 18.6513 0.0000 0.0000
# 5 0.0000 0.0000 0.0000 0.0000 18.6513 0.0000
# 6 0.0000 0.0000 0.0000 0.0000 0.0000 65.5973
#
#
#
# Elastic Compliance Matrix: (Units=1/GPa)
#
#
# Indices 1 2 3 4 5 6 
#
# 1 0.010295 0.002080 -0.004793 0.000000 0.000000 0.000000
# 2 0.002080 0.010295 -0.004793 0.000000 0.000000 0.000000
# 3 -0.004793 -0.004793 0.013652 0.000000 0.000000 0.000000
# 4 0.000000 0.000000 0.000000 0.053616 0.000000 0.000000
# 5 0.000000 0.000000 0.000000 0.000000 0.053616 0.000000
# 6 0.000000 0.000000 0.000000 0.000000 0.000000 0.015245
#
#
# Mechanical properties :
#
#
# Convention : Reuss Voigt Hill
#
# Bulk Modulus (GPa) = 51.99341 53.15443 52.57392
# Shear Modulus (GPa) = 28.06777 37.96396 33.01586
#
# Velocity S-wave (km/s) = 3.50313 4.07416 3.79938
# Velocity P-wave (km/s) = 6.25262 6.73588 6.49874
#
# Compressibility (1/GPa) = 0.01923321
#
# Stress axis : x y z
#
# Youngs Moduli (GPa) = 97.13028 97.13028 73.24702
#
# Poissons Ratio (x) = -0.20205 0.35105
# Poissons Ratio (y) = -0.20205 0.35105
# Poissons Ratio (z) = 0.46551 0.46551
#
# Static dielectric constant tensor:
#      x y z
#    x 1.865710 0.000000 0.000000 
#    y 0.000000 1.865710 0.000000 
#    z 0.000000 0.000000 1.909780 
# 
# From -- ./inp_files/4216.got.cif
#   From: 2010.05.17/outbox.cif.g08.bks.cpg/sg130_3_cif.got.tgz:4216.got - 2010.05.20 12:17:35.
