data_PCOD9565955
_publ_section_title
;
Structure prediction by ZEFSAII (Michael W. Deem and Ramdas Pophale) SiO2 
 PCOD9565955
Probable space group: P 4/N C C
;
_chemical_formula_sum "Si O2"
_cell_formula_units_Z 56
_cell_length_a 14.066734
_cell_length_b 14.066734
_cell_length_c 13.732706
_cell_angle_alpha 90.000000
_cell_angle_beta 90.000000
_cell_angle_gamma 90.000000
_cell_volume 2717.331809
_symmetry_space_group_name_H-M "P 4/N C C"
_symmetry_group_IT_number 130
_symmetry_cell_setting 'tetragonal'
loop_
_space_group_symop_operation_xyz
x,y,z
1/2-y,x,z
1/2-x,1/2-y,z
y,1/2-x,z
1/2+x,-y,1/2-z
-x,1/2+y,1/2-z
1/2+y,1/2+x,1/2-z
-y,-x,1/2-z
-x,-y,-z
1/2+y,-x,-z
1/2+x,1/2+y,-z
-y,1/2+x,-z
1/2-x,y,1/2+z
x,1/2-y,1/2+z
1/2-y,1/2-x,1/2+z
y,x,1/2+z
loop_
_atom_site_type_symbol
_atom_site_label
_atom_site_fract_x
_atom_site_fract_y
_atom_site_fract_z
Si Si1 0.393252 0.893252 0.750000
Si Si2 0.934108 0.535092 0.087129
Si Si3 0.100034 0.196966 0.066928
Si Si4 0.522443 0.319908 0.262497
O O1 0.445787 0.938931 0.658592
O O2 0.426763 0.783905 0.736990
O O3 0.963930 0.630357 0.147587
O O4 0.833059 0.548436 0.033055
O O5 0.000000 0.500000 0.000000
O O6 0.194468 0.132754 0.067547
O O7 0.041783 0.179169 0.165423
O O8 0.607701 0.392300 0.250000
#
# Coordination Sequence:
#
# PCOD9565955 Si02
#       4
#     8  16  16  16
#     4  12  27  42  72 101 138 190 232 286 352 429
#     4  12  22  45  69  97 139 185 229 294 350 410
#     4  11  24  43  71 104 137 181 240 296 350 417
#     4  12  24  46  68 101 143 184 232 288 359 423
#
# _framework density 20.608450999999999
#
# number of rings (size 3 to 8) (size 9 to 14) (size 15 to 20)
#    0.000    0.286    4.286    5.571    0.000    0.000 
#    0.000    2.857    6.286    0.000    0.000    0.000 
#    0.000    0.000    0.000    0.000    0.000    0.000 
#
# Total GULP energy -312310.421473 kJ/mol
# GULP energy per Si atom -5576.971812 kJ/mol
# Density = 2.056155 g / cm^3
# Si number density = 20.608451 Si / 1000 Ang^3
#
#
#
# Elastic Constant Matrix: (Units=GPa)
#
#
# Indices 1 2 3 4 5 6 
#
# 1 77.3142 6.0563 30.6199 0.0000 0.0000 0.0000
# 2 6.0563 77.3157 30.6205 0.0000 0.0000 0.0000
# 3 30.6199 30.6205 131.5421 0.0000 0.0000 0.0000
# 4 0.0000 0.0000 0.0000 33.0993 0.0000 0.0000
# 5 0.0000 0.0000 0.0000 0.0000 33.0988 0.0000
# 6 0.0000 0.0000 0.0000 0.0000 0.0000 35.6355
#
#
#
# Elastic Compliance Matrix: (Units=1/GPa)
#
#
# Indices 1 2 3 4 5 6 
#
# 1 0.014251 0.000218 -0.003368 0.000000 0.000000 0.000000
# 2 0.000218 0.014251 -0.003368 0.000000 0.000000 0.000000
# 3 -0.003368 -0.003368 0.009170 0.000000 0.000000 0.000000
# 4 0.000000 0.000000 0.000000 0.030212 0.000000 0.000000
# 5 0.000000 0.000000 0.000000 0.000000 0.030213 0.000000
# 6 0.000000 0.000000 0.000000 0.000000 0.000000 0.028062
#
#
# Mechanical properties :
#
#
# Convention : Reuss Voigt Hill
#
# Bulk Modulus (GPa) = 40.59226 46.75172 43.67199
# Shear Modulus (GPa) = 33.91967 34.95840 34.43903
#
# Velocity S-wave (km/s) = 4.06138 4.12310 4.09236
# Velocity P-wave (km/s) = 6.46009 6.73807 6.60054
#
# Compressibility (1/GPa) = 0.02463524
#
# Stress axis : x y z
#
# Youngs Moduli (GPa) = 70.17026 70.17148 109.05001
#
# Poissons Ratio (x) = -0.01527 0.36727
# Poissons Ratio (y) = -0.01527 0.36728
# Poissons Ratio (z) = 0.23633 0.23633
#
# Static dielectric constant tensor:
#      x y z
#    x 1.781180 0.000000 0.000000 
#    y 0.000000 1.781180 0.000000 
#    z 0.000000 0.000000 1.867350 
# 
# From -- ./inp_files/1392.got.cif
#   From: 2010.05.17/outbox.cif.g08.bks.cpg/sg130_1_cif.got.tgz:1392.got - 2010.05.20 12:17:35.
