data_PCOD9565466
_publ_section_title
;
Structure prediction by ZEFSAII (Michael W. Deem and Ramdas Pophale) SiO2 
 PCOD9565466
Probable space group: P 4/N M M
;
_chemical_formula_sum "Si O2"
_cell_formula_units_Z 80
_cell_length_a 13.529021
_cell_length_b 13.529021
_cell_length_c 26.709628
_cell_angle_alpha 90.000000
_cell_angle_beta 90.000000
_cell_angle_gamma 90.000000
_cell_volume 4888.780981
_symmetry_space_group_name_H-M "P 4/N M M"
_symmetry_group_IT_number 129
_symmetry_cell_setting 'tetragonal'
loop_
_space_group_symop_operation_xyz
x,y,z
1/2-y,x,z
1/2-x,1/2-y,z
y,1/2-x,z
1/2+x,-y,-z
-x,1/2+y,-z
1/2+y,1/2+x,-z
-y,-x,-z
-x,-y,-z
1/2+y,-x,-z
1/2+x,1/2+y,-z
-y,1/2+x,-z
1/2-x,y,z
x,1/2-y,z
1/2-y,1/2-x,z
y,x,z
loop_
_atom_site_type_symbol
_atom_site_label
_atom_site_fract_x
_atom_site_fract_y
_atom_site_fract_z
Si Si1 0.023273 0.633123 0.153258
Si Si2 0.129278 0.635792 0.945537
Si Si3 0.366787 0.531393 0.357622
Si Si4 0.867926 0.468338 0.265509
Si Si5 0.968363 0.367688 0.547609
O O1 0.015727 0.750000 0.149085
O O2 0.081450 0.596277 0.104621
O O3 0.067192 0.612374 0.208397
O O4 0.916961 0.583040 0.152929
O O5 0.250000 0.633218 0.946747
O O6 0.100209 0.750000 0.941834
O O7 0.096423 0.596423 0.000000
O O8 0.250000 0.516443 0.362586
O O9 0.429439 0.429439 0.358296
O O10 0.394247 0.588322 0.306455
O O11 0.409650 0.597213 0.403034
O O12 0.750000 0.481524 0.271473
O O13 0.929237 0.570764 0.272021
O O14 0.905999 0.405999 0.500000
O O15 0.981405 0.250000 0.546607
O O16 0.071733 0.428268 0.546973
#
# Coordination Sequence:
#
# PCOD9565466 Si02
#       5
#    16  16  16  16  16
#     4   9  17  28  42  62  88 116 146 179 216 263
#     4   8  14  25  40  58  81 108 140 181 225 265
#     4  10  21  36  53  74  99 126 159 198 238 283
#     4   9  18  31  46  67  94 122 154 191 230 276
#     4  10  21  36  54  78 106 135 169 206 243 286
#
# _framework density 16.363997999999999
#
# number of rings (size 3 to 8) (size 9 to 14) (size 15 to 20)
#    0.000    2.800    0.000    1.800    0.000    4.600 
#    0.000    4.000    0.000    7.200    0.000    0.000 
#    0.000    0.400    0.000    0.400    0.000    0.200 
#
# Total GULP energy -445394.443862 kJ/mol
# GULP energy per Si atom -5567.430548 kJ/mol
# Density = 1.632675 g / cm^3
# Si number density = 16.363998 Si / 1000 Ang^3
#
#
#
# Elastic Constant Matrix: (Units=GPa)
#
#
# Indices 1 2 3 4 5 6 
#
# 1 338.4773 -196.3188 55.3302 0.0000 0.0000 0.0000
# 2 -196.3188 338.4773 55.3302 0.0000 0.0000 0.0000
# 3 55.3302 55.3302 148.3028 0.0000 0.0000 0.0000
# 4 0.0000 0.0000 0.0000 22.1647 0.0000 0.0000
# 5 0.0000 0.0000 0.0000 0.0000 22.1647 0.0000
# 6 0.0000 0.0000 0.0000 0.0000 0.0000 8.7640
#
#
#
# Elastic Compliance Matrix: (Units=1/GPa)
#
#
# Indices 1 2 3 4 5 6 
#
# 1 0.005892 0.004022 -0.003699 0.000000 0.000000 0.000000
# 2 0.004022 0.005892 -0.003699 0.000000 0.000000 0.000000
# 3 -0.003699 -0.003699 0.009503 0.000000 0.000000 0.000000
# 4 0.000000 0.000000 0.000000 0.045117 0.000000 0.000000
# 5 0.000000 0.000000 0.000000 0.000000 0.045117 0.000000
# 6 0.000000 0.000000 0.000000 0.000000 0.000000 0.114103
#
#
# Mechanical properties :
#
#
# Convention : Reuss Voigt Hill
#
# Bulk Modulus (GPa) = 68.79793 72.66009 70.72901
# Shear Modulus (GPa) = 21.07762 71.34640 46.21201
#
# Velocity S-wave (km/s) = 3.59283 6.61016 5.31990
# Velocity P-wave (km/s) = 7.70356 10.13695 9.00285
#
# Compressibility (1/GPa) = 0.01453532
#
# Stress axis : x y z
#
# Youngs Moduli (GPa) = 169.73037 169.73037 105.23213
#
# Poissons Ratio (x) = -0.68263 0.38921
# Poissons Ratio (y) = -0.68263 0.38921
# Poissons Ratio (z) = 0.62777 0.62777
#
# Static dielectric constant tensor:
#      x y z
#    x 1.528850 0.000000 0.000000 
#    y 0.000000 1.528850 0.000000 
#    z 0.000000 0.000000 1.595050 
# 
# From -- ./inp_files/7692.got.cif
#   From: 2010.05.17/outbox.cif.g08.bks.cpg/sg129_4_cif.got.tgz:7692.got - 2010.05.20 12:12:06.
