data_PCOD9565891
_publ_section_title
;
Structure prediction by ZEFSAII (Michael W. Deem and Ramdas Pophale) SiO2 
 PCOD9565891
Probable space group: P 4/N C C
;
_chemical_formula_sum "Si O2"
_cell_formula_units_Z 96
_cell_length_a 14.907934
_cell_length_b 14.907934
_cell_length_c 22.578360
_cell_angle_alpha 90.000000
_cell_angle_beta 90.000000
_cell_angle_gamma 90.000000
_cell_volume 5017.961399
_symmetry_space_group_name_H-M "P 4/N C C"
_symmetry_group_IT_number 130
_symmetry_cell_setting 'tetragonal'
loop_
_space_group_symop_operation_xyz
x,y,z
1/2-y,x,z
1/2-x,1/2-y,z
y,1/2-x,z
1/2+x,-y,1/2-z
-x,1/2+y,1/2-z
1/2+y,1/2+x,1/2-z
-y,-x,1/2-z
-x,-y,-z
1/2+y,-x,-z
1/2+x,1/2+y,-z
-y,1/2+x,-z
1/2-x,y,1/2+z
x,1/2-y,1/2+z
1/2-y,1/2-x,1/2+z
y,x,1/2+z
loop_
_atom_site_type_symbol
_atom_site_label
_atom_site_fract_x
_atom_site_fract_y
_atom_site_fract_z
Si Si1 0.071822 0.631164 0.132362
Si Si2 0.390938 0.199438 0.202252
Si Si3 0.578845 0.529900 0.700348
Si Si4 0.813009 0.362240 0.182455
Si Si5 0.788240 0.105359 0.005769
Si Si6 0.951600 0.255319 0.118271
O O1 0.108217 0.711246 0.174008
O O2 0.065908 0.674717 0.066950
O O3 0.148095 0.553640 0.128487
O O4 0.980019 0.593134 0.158860
O O5 0.359424 0.301843 0.194641
O O6 0.425838 0.162680 0.265124
O O7 0.474341 0.194984 0.157528
O O8 0.511463 0.488538 0.750000
O O9 0.624339 0.447051 0.667483
O O10 0.832629 0.332629 0.250000
O O11 0.852447 0.286505 0.139645
O O12 0.688976 0.147679 0.011511
O O13 0.780863 0.039180 0.950182
#
# Coordination Sequence:
#
# PCOD9565891 Si02
#       6
#    16  16  16  16  16  16
#     4  11  23  37  64  91 123 171 209 258 321 375
#     4  11  23  41  61  84 123 172 205 249 317 382
#     4  11  22  38  56  87 124 155 203 262 309 374
#     4  11  22  37  55  91 130 156 203 262 317 376
#     4   9  18  37  59  90 131 169 207 260 323 379
#     4  11  21  38  62  90 125 162 210 259 315 376
#
# _framework density 19.131276
#
# number of rings (size 3 to 8) (size 9 to 14) (size 15 to 20)
#    0.000    1.333    5.000    2.500    2.333    0.667 
#    0.000    2.500    0.000    0.000    0.000    2.333 
#    0.000    0.000    0.000    0.000    0.000    0.000 
#
# Total GULP energy -535534.938070 kJ/mol
# GULP energy per Si atom -5578.488938 kJ/mol
# Density = 1.908773 g / cm^3
# Si number density = 19.131276 Si / 1000 Ang^3
#
#
#
# Elastic Constant Matrix: (Units=GPa)
#
#
# Indices 1 2 3 4 5 6 
#
# 1 82.1772 44.5285 37.9668 0.0000 0.0000 0.0000
# 2 44.5285 82.1778 37.9667 0.0000 0.0000 0.0000
# 3 37.9668 37.9667 96.0992 0.0000 0.0000 0.0000
# 4 0.0000 0.0000 0.0000 22.0183 0.0000 0.0000
# 5 0.0000 0.0000 0.0000 0.0000 22.0181 0.0000
# 6 0.0000 0.0000 0.0000 0.0000 0.0000 32.3719
#
#
#
# Elastic Compliance Matrix: (Units=1/GPa)
#
#
# Indices 1 2 3 4 5 6 
#
# 1 0.018451 -0.008110 -0.004085 0.000000 0.000000 0.000000
# 2 -0.008110 0.018451 -0.004085 0.000000 0.000000 0.000000
# 3 -0.004085 -0.004085 0.013634 0.000000 0.000000 0.000000
# 4 0.000000 0.000000 0.000000 0.045417 0.000000 0.000000
# 5 0.000000 0.000000 0.000000 0.000000 0.045417 0.000000
# 6 0.000000 0.000000 0.000000 0.000000 0.000000 0.030891
#
#
# Mechanical properties :
#
#
# Convention : Reuss Voigt Hill
#
# Bulk Modulus (GPa) = 55.63661 55.70867 55.67264
# Shear Modulus (GPa) = 23.71763 24.61449 24.16606
#
# Velocity S-wave (km/s) = 3.52480 3.59083 3.55797
# Velocity P-wave (km/s) = 6.76094 6.80988 6.78545
#
# Compressibility (1/GPa) = 0.01797378
#
# Stress axis : x y z
#
# Youngs Moduli (GPa) = 54.19774 54.19829 73.34618
#
# Poissons Ratio (x) = 0.43956 0.29965
# Poissons Ratio (y) = 0.43956 0.29964
# Poissons Ratio (z) = 0.22142 0.22142
#
# Static dielectric constant tensor:
#      x y z
#    x 1.708670 0.000000 0.000000 
#    y 0.000000 1.708680 0.000000 
#    z 0.000000 0.000000 1.675690 
# 
# From -- ./inp_files/3771.got.cif
#   From: 2010.05.17/outbox.cif.g08.bks.cpg/sg130_2_cif.got.tgz:3771.got - 2010.05.20 12:17:35.
