data_PCOD9565125
_publ_section_title
;
Structure prediction by ZEFSAII (Michael W. Deem and Ramdas Pophale) SiO2 
 PCOD9565125
Probable space group: P 4/N M M
;
_chemical_formula_sum "Si O2"
_cell_formula_units_Z 128
_cell_length_a 19.982714
_cell_length_b 19.982714
_cell_length_c 20.076774
_cell_angle_alpha 90.000000
_cell_angle_beta 90.000000
_cell_angle_gamma 90.000000
_cell_volume 8016.833714
_symmetry_space_group_name_H-M "P 4/N M M"
_symmetry_group_IT_number 129
_symmetry_cell_setting 'tetragonal'
loop_
_space_group_symop_operation_xyz
x,y,z
1/2-y,x,z
1/2-x,1/2-y,z
y,1/2-x,z
1/2+x,-y,-z
-x,1/2+y,-z
1/2+y,1/2+x,-z
-y,-x,-z
-x,-y,-z
1/2+y,-x,-z
1/2+x,1/2+y,-z
-y,1/2+x,-z
1/2-x,y,z
x,1/2-y,z
1/2-y,1/2-x,z
y,x,z
loop_
_atom_site_type_symbol
_atom_site_label
_atom_site_fract_x
_atom_site_fract_y
_atom_site_fract_z
Si Si1 0.586111 0.025050 0.192432
Si Si2 0.823838 0.045160 0.822704
Si Si3 0.082742 0.974936 0.656215
Si Si4 0.864888 0.528320 0.693409
Si Si5 0.671258 0.069675 0.466357
Si Si6 0.828461 0.562380 0.091750
Si Si7 0.176190 0.065948 0.450466
Si Si8 0.674506 0.935734 0.937480
O O1 0.583196 0.104845 0.180323
O O2 0.608754 0.012783 0.268741
O O3 0.513204 0.986797 0.187268
O O4 0.634106 0.989108 0.140054
O O5 0.750000 0.079271 0.826077
O O6 0.825032 0.002148 0.754592
O O7 0.829016 0.996376 0.886018
O O8 0.137147 0.951441 0.603292
O O9 0.028644 0.915635 0.666357
O O10 0.040115 0.040115 0.633941
O O11 0.911170 0.588831 0.718718
O O12 0.826028 0.553455 0.628856
O O13 0.629944 0.129944 0.500000
O O14 0.750000 0.084997 0.459115
O O15 0.664638 0.004799 0.513776
O O16 0.750000 0.567174 0.106509
O O17 0.867023 0.632978 0.098902
O O18 0.836339 0.542169 0.014083
O O19 0.250000 0.090383 0.469765
O O20 0.118362 0.118362 0.467113
O O21 0.750000 0.907630 0.934315
O O22 0.619857 0.880144 0.920990
#
# Coordination Sequence:
#
# PCOD9565125 Si02
#       8
#    16  16  16  16  16  16  16  16
#     4   9  18  32  50  74  99 125 161 202 249 292
#     4  10  18  28  44  67  98 131 165 203 237 279
#     4   9  17  31  52  75  96 122 158 202 242 283
#     4   9  16  28  48  70  93 123 161 202 240 274
#     4  11  22  35  51  72  97 125 159 197 241 292
#     4   9  18  32  50  72  98 127 159 200 248 298
#     4  10  20  32  49  72  96 126 160 194 237 285
#     4   9  17  28  43  66  95 128 164 200 243 291
#
# _framework density 15.966403
#
# number of rings (size 3 to 8) (size 9 to 14) (size 15 to 20)
#    0.000    2.500    1.250    2.625    0.000    2.000 
#    0.000    3.125    0.000    0.375    0.000    1.750 
#    0.000    6.000    0.000    0.000    0.000    0.000 
#
# Total GULP energy -712731.988975 kJ/mol
# GULP energy per Si atom -5568.218664 kJ/mol
# Density = 1.593006 g / cm^3
# Si number density = 15.966403 Si / 1000 Ang^3
#
#
#
# Elastic Constant Matrix: (Units=GPa)
#
#
# Indices 1 2 3 4 5 6 
#
# 1 88.5496 47.4178 44.1246 0.0000 0.0000 0.0000
# 2 47.4178 88.5496 44.1246 0.0000 0.0000 0.0000
# 3 44.1246 44.1246 73.1259 0.0000 0.0000 0.0000
# 4 0.0000 0.0000 0.0000 19.2836 0.0000 0.0000
# 5 0.0000 0.0000 0.0000 0.0000 19.2836 0.0000
# 6 0.0000 0.0000 0.0000 0.0000 0.0000 15.1482
#
#
#
# Elastic Compliance Matrix: (Units=1/GPa)
#
#
# Indices 1 2 3 4 5 6 
#
# 1 0.018201 -0.006111 -0.007295 0.000000 0.000000 0.000000
# 2 -0.006111 0.018201 -0.007295 0.000000 0.000000 0.000000
# 3 -0.007295 -0.007295 0.022478 0.000000 0.000000 0.000000
# 4 0.000000 0.000000 0.000000 0.051857 0.000000 0.000000
# 5 0.000000 0.000000 0.000000 0.000000 0.051857 0.000000
# 6 0.000000 0.000000 0.000000 0.000000 0.000000 0.066014
#
#
# Mechanical properties :
#
#
# Convention : Reuss Voigt Hill
#
# Bulk Modulus (GPa) = 57.21462 57.95099 57.58280
# Shear Modulus (GPa) = 18.12664 18.38030 18.25347
#
# Velocity S-wave (km/s) = 3.37307 3.39659 3.38485
# Velocity P-wave (km/s) = 7.14719 7.19422 7.17075
#
# Compressibility (1/GPa) = 0.01747805
#
# Stress axis : x y z
#
# Youngs Moduli (GPa) = 54.94286 54.94286 44.48701
#
# Poissons Ratio (x) = 0.33578 0.32452
# Poissons Ratio (y) = 0.33578 0.32452
# Poissons Ratio (z) = 0.40080 0.40080
#
# Static dielectric constant tensor:
#      x y z
#    x 1.532300 0.000000 0.000000 
#    y 0.000000 1.532300 0.000000 
#    z 0.000000 0.000000 1.539830 
# 
# From -- ./inp_files/6131.got.cif
#   From: 2010.05.17/outbox.cif.g08.bks.cpg/sg129_4_cif.got.tgz:6131.got - 2010.05.20 12:12:06.
