data_PCOD9565407
_publ_section_title
;
Structure prediction by ZEFSAII (Michael W. Deem and Ramdas Pophale) SiO2 
 PCOD9565407
Probable space group: P 4/N M M
;
_chemical_formula_sum "Si O2"
_cell_formula_units_Z 96
_cell_length_a 21.664594
_cell_length_b 21.664594
_cell_length_c 11.294867
_cell_angle_alpha 90.000000
_cell_angle_beta 90.000000
_cell_angle_gamma 90.000000
_cell_volume 5301.298158
_symmetry_space_group_name_H-M "P 4/N M M"
_symmetry_group_IT_number 129
_symmetry_cell_setting 'tetragonal'
loop_
_space_group_symop_operation_xyz
x,y,z
1/2-y,x,z
1/2-x,1/2-y,z
y,1/2-x,z
1/2+x,-y,-z
-x,1/2+y,-z
1/2+y,1/2+x,-z
-y,-x,-z
-x,-y,-z
1/2+y,-x,-z
1/2+x,1/2+y,-z
-y,1/2+x,-z
1/2-x,y,z
x,1/2-y,z
1/2-y,1/2-x,z
y,x,z
loop_
_atom_site_type_symbol
_atom_site_label
_atom_site_fract_x
_atom_site_fract_y
_atom_site_fract_z
Si Si1 0.982255 0.885374 0.843791
Si Si2 0.405046 0.506895 0.573901
Si Si3 0.320651 0.086653 0.938937
Si Si4 0.912501 0.320435 0.031778
Si Si5 0.180462 0.980026 0.778038
Si Si6 0.175342 0.427204 0.393127
O O1 0.955727 0.955727 0.830185
O O2 0.959647 0.847958 0.728739
O O3 0.946601 0.857606 0.956840
O O4 0.052239 0.868083 0.880061
O O5 0.441660 0.558341 0.500000
O O6 0.456546 0.456546 0.610065
O O7 0.370917 0.537123 0.684639
O O8 0.354151 0.470161 0.495987
O O9 0.250000 0.081461 0.970284
O O10 0.344507 0.155494 0.929775
O O11 0.330435 0.051059 0.816051
O O12 0.915399 0.250000 0.076376
O O13 0.946169 0.321576 0.904152
O O14 0.844884 0.344884 0.000000
O O15 0.250000 0.972850 0.730645
O O16 0.250000 0.422422 0.397990
O O17 0.138540 0.361461 0.398326
#
# Coordination Sequence:
#
# PCOD9565407 Si02
#       6
#    16  16  16  16  16  16
#     4   9  18  33  51  76 107 138 176 216 260 314
#     4  10  21  34  50  74 103 133 172 220 264 310
#     4   9  16  27  45  68  97 133 167 205 248 294
#     4  10  21  35  55  81 107 138 174 214 263 321
#     4   9  18  34  52  70  95 128 166 205 252 310
#     4  10  20  34  53  76 106 144 180 220 266 313
#
# _framework density 18.108771999999998
#
# number of rings (size 3 to 8) (size 9 to 14) (size 15 to 20)
#    0.000    2.500    0.000    3.500    2.333    1.500 
#    0.000    0.000    0.000    3.000    0.000    2.333 
#    0.000    3.000    0.000    0.000    0.000    0.000 
#
# Total GULP energy -534490.252371 kJ/mol
# GULP energy per Si atom -5567.606796 kJ/mol
# Density = 1.806756 g / cm^3
# Si number density = 18.108772 Si / 1000 Ang^3
#
#
#
# Elastic Constant Matrix: (Units=GPa)
#
#
# Indices 1 2 3 4 5 6 
#
# 1 47.7471 29.0863 18.7187 0.0000 0.0000 0.0000
# 2 29.0863 47.7445 18.7193 0.0000 0.0000 0.0000
# 3 18.7187 18.7193 37.5887 0.0000 0.0000 0.0000
# 4 0.0000 0.0000 0.0000 14.1746 0.0000 0.0000
# 5 0.0000 0.0000 0.0000 0.0000 14.1777 0.0000
# 6 0.0000 0.0000 0.0000 0.0000 0.0000 18.8291
#
#
#
# Elastic Compliance Matrix: (Units=1/GPa)
#
#
# Indices 1 2 3 4 5 6 
#
# 1 0.035387 -0.018203 -0.008557 0.000000 0.000000 0.000000
# 2 -0.018203 0.035390 -0.008560 0.000000 0.000000 0.000000
# 3 -0.008557 -0.008560 0.035128 0.000000 0.000000 0.000000
# 4 0.000000 0.000000 0.000000 0.070549 0.000000 0.000000
# 5 0.000000 0.000000 0.000000 0.000000 0.070533 0.000000
# 6 0.000000 0.000000 0.000000 0.000000 0.000000 0.053109
#
#
# Mechanical properties :
#
#
# Convention : Reuss Voigt Hill
#
# Bulk Modulus (GPa) = 28.35627 29.56989 28.96308
# Shear Modulus (GPa) = 13.07219 13.87335 13.47277
#
# Velocity S-wave (km/s) = 2.68968 2.77088 2.73058
# Velocity P-wave (km/s) = 5.03375 5.15766 5.09609
#
# Compressibility (1/GPa) = 0.03526557
#
# Stress axis : x y z
#
# Youngs Moduli (GPa) = 28.25875 28.25639 28.46747
#
# Poissons Ratio (x) = 0.51435 0.24360
# Poissons Ratio (y) = 0.51440 0.24367
# Poissons Ratio (z) = 0.24182 0.24186
#
# Static dielectric constant tensor:
#      x y z
#    x 1.645060 0.000000 0.000000 
#    y 0.000000 1.645060 0.000000 
#    z 0.000000 0.000000 1.631050 
# 
# From -- ./inp_files/3886.got.cif
#   From: 2010.05.17/outbox.cif.g08.bks.cpg/sg129_2_cif.got.tgz:3886.got - 2010.05.20 12:12:06.
