data_PCOD9565180
_publ_section_title
;
Structure prediction by ZEFSAII (Michael W. Deem and Ramdas Pophale) SiO2 
 PCOD9565180
Probable space group: P 4/N M M
;
_chemical_formula_sum "Si O2"
_cell_formula_units_Z 112
_cell_length_a 14.498976
_cell_length_b 14.498976
_cell_length_c 35.007559
_cell_angle_alpha 90.000000
_cell_angle_beta 90.000000
_cell_angle_gamma 90.000000
_cell_volume 7359.299732
_symmetry_space_group_name_H-M "P 4/N M M"
_symmetry_group_IT_number 129
_symmetry_cell_setting 'tetragonal'
loop_
_space_group_symop_operation_xyz
x,y,z
1/2-y,x,z
1/2-x,1/2-y,z
y,1/2-x,z
1/2+x,-y,-z
-x,1/2+y,-z
1/2+y,1/2+x,-z
-y,-x,-z
-x,-y,-z
1/2+y,-x,-z
1/2+x,1/2+y,-z
-y,1/2+x,-z
1/2-x,y,z
x,1/2-y,z
1/2-y,1/2-x,z
y,x,z
loop_
_atom_site_type_symbol
_atom_site_label
_atom_site_fract_x
_atom_site_fract_y
_atom_site_fract_z
Si Si1 0.641344 0.011763 0.656687
Si Si2 0.007065 0.856393 0.480223
Si Si3 0.138050 0.855716 0.957268
Si Si4 0.356384 0.859339 0.184259
Si Si5 0.357033 0.992120 0.611555
Si Si6 0.487394 0.860858 0.112803
Si Si7 0.991341 0.143280 0.254417
O O1 0.750000 0.000926 0.648519
O O2 0.592321 0.089507 0.631244
O O3 0.631080 0.038145 0.701468
O O4 0.582566 0.917435 0.651150
O O5 0.999013 0.750000 0.491645
O O6 0.916207 0.916207 0.489941
O O7 0.018412 0.860288 0.434358
O O8 0.092352 0.907649 0.500000
O O9 0.250000 0.851880 0.957334
O O10 0.106045 0.750000 0.950800
O O11 0.112004 0.925330 0.923832
O O12 0.112435 0.887566 0.000000
O O13 0.250000 0.879668 0.172753
O O14 0.362012 0.750000 0.190905
O O15 0.426724 0.882206 0.150422
O O16 0.376152 0.913149 0.223270
O O17 0.250000 0.998119 0.622945
O O18 0.415930 0.084071 0.621115
O O19 0.502517 0.750000 0.111619
O O20 0.580813 0.919188 0.113186
O O21 0.018691 0.250000 0.250298
O O22 0.076589 0.076589 0.247360
#
# Coordination Sequence:
#
# PCOD9565180 Si02
#       7
#    16  16  16  16  16  16  16
#     4   9  18  31  46  66  92 121 152 184 218 259
#     4   9  18  32  49  69  93 120 150 185 224 266
#     4   8  14  26  44  64  84 104 129 167 212 250
#     4   9  17  29  45  64  84 106 136 176 218 254
#     4   9  18  32  49  69  92 118 149 186 227 268
#     4  10  19  29  42  60  83 112 142 170 202 242
#     4   9  17  29  45  65  89 115 142 173 210 254
#
# _framework density 15.218838999999999
#
# number of rings (size 3 to 8) (size 9 to 14) (size 15 to 20)
#    0.000    3.000    0.000    1.286    0.000    4.286 
#    0.000    5.714    0.000    0.000    0.000    4.000 
#    0.000    6.000    0.000    0.571    0.000    0.143 
#
# Total GULP energy -623609.896227 kJ/mol
# GULP energy per Si atom -5567.945502 kJ/mol
# Density = 1.518420 g / cm^3
# Si number density = 15.218839 Si / 1000 Ang^3
#
#
#
# Elastic Constant Matrix: (Units=GPa)
#
#
# Indices 1 2 3 4 5 6 
#
# 1 94.4423 57.3943 43.8935 0.0000 0.0000 0.0000
# 2 57.3943 94.4444 43.8933 0.0000 0.0000 0.0000
# 3 43.8935 43.8933 35.4916 0.0000 0.0000 0.0000
# 4 0.0000 0.0000 0.0000 19.5443 0.0000 0.0000
# 5 0.0000 0.0000 0.0000 0.0000 19.5443 0.0000
# 6 0.0000 0.0000 0.0000 0.0000 0.0000 17.2730
#
#
#
# Elastic Compliance Matrix: (Units=1/GPa)
#
#
# Indices 1 2 3 4 5 6 
#
# 1 0.025052 -0.001940 -0.028583 0.000000 0.000000 0.000000
# 2 -0.001940 0.025050 -0.028581 0.000000 0.000000 0.000000
# 3 -0.028583 -0.028581 0.098872 0.000000 0.000000 0.000000
# 4 0.000000 0.000000 0.000000 0.051166 0.000000 0.000000
# 5 0.000000 0.000000 0.000000 0.000000 0.051166 0.000000
# 6 0.000000 0.000000 0.000000 0.000000 0.000000 0.057894
#
#
# Mechanical properties :
#
#
# Convention : Reuss Voigt Hill
#
# Bulk Modulus (GPa) = 32.50341 57.19339 44.84840
# Shear Modulus (GPa) = 11.42430 16.55214 13.98822
#
# Velocity S-wave (km/s) = 2.74280 3.30147 3.03502
# Velocity P-wave (km/s) = 5.60663 7.22462 6.46643
#
# Compressibility (1/GPa) = 0.03076601
#
# Stress axis : x y z
#
# Youngs Moduli (GPa) = 39.91696 39.91968 10.11407
#
# Poissons Ratio (x) = 0.07745 0.28909
# Poissons Ratio (y) = 0.07744 0.28907
# Poissons Ratio (z) = 1.14095 1.14094
#
# Static dielectric constant tensor:
#      x y z
#    x 1.489180 0.000000 0.000000 
#    y 0.000000 1.489180 0.000000 
#    z 0.000000 0.000000 1.511490 
# 
# From -- ./inp_files/7882.got.cif
#   From: 2010.05.17/outbox.cif.g08.bks.cpg/sg129_4_cif.got.tgz:7882.got - 2010.05.20 12:12:06.
