data_PCOD9565718
_publ_section_title
;
Structure prediction by ZEFSAII (Michael W. Deem and Ramdas Pophale) SiO2 
 PCOD9565718
Probable space group: P 4/N C C
;
_chemical_formula_sum "Si O2"
_cell_formula_units_Z 128
_cell_length_a 22.422235
_cell_length_b 22.422235
_cell_length_c 11.160847
_cell_angle_alpha 90.000000
_cell_angle_beta 90.000000
_cell_angle_gamma 90.000000
_cell_volume 5611.189741
_symmetry_space_group_name_H-M "P 4/N C C"
_symmetry_group_IT_number 130
_symmetry_cell_setting 'tetragonal'
loop_
_space_group_symop_operation_xyz
x,y,z
1/2-y,x,z
1/2-x,1/2-y,z
y,1/2-x,z
1/2+x,-y,1/2-z
-x,1/2+y,1/2-z
1/2+y,1/2+x,1/2-z
-y,-x,1/2-z
-x,-y,-z
1/2+y,-x,-z
1/2+x,1/2+y,-z
-y,1/2+x,-z
1/2-x,y,1/2+z
x,1/2-y,1/2+z
1/2-y,1/2-x,1/2+z
y,x,1/2+z
loop_
_atom_site_type_symbol
_atom_site_label
_atom_site_fract_x
_atom_site_fract_y
_atom_site_fract_z
Si Si1 0.493055 0.673224 0.126483
Si Si2 0.623626 0.594199 0.351442
Si Si3 0.135995 0.960705 0.878739
Si Si4 0.835477 0.707661 0.200248
Si Si5 0.013950 0.319654 0.118031
Si Si6 0.456551 0.852007 0.381242
Si Si7 0.980263 0.967973 0.124782
Si Si8 0.768313 0.599194 0.006936
O O1 0.474431 0.685323 0.262655
O O2 0.505930 0.602111 0.119753
O O3 0.553109 0.712041 0.111046
O O4 0.455086 0.684993 0.005200
O O5 0.662225 0.612791 0.235860
O O6 0.559681 0.624927 0.360899
O O7 0.622322 0.524026 0.376354
O O8 0.669374 0.618617 0.451589
O O9 0.172410 0.951710 0.755133
O O10 0.092631 0.903636 0.891061
O O11 0.089238 0.015411 0.865608
O O12 0.170572 0.974995 0.999560
O O13 0.825505 0.775537 0.244823
O O14 0.850005 0.728079 0.064117
O O15 0.058621 0.265245 0.090633
O O16 0.008497 0.991504 0.250000
O O17 0.000000 0.000000 0.000000
#
# Coordination Sequence:
#
# PCOD9565718 Si02
#       8
#    16  16  16  16  16  16  16  16
#     4  11  23  37  55  84 113 150 190 247 307 373
#     4  11  22  38  56  77 107 142 199 261 333 376
#     4  11  20  36  54  86 116 152 185 229 317 385
#     4  11  23  39  57  75 100 143 206 278 334 380
#     4  12  25  36  60  83 111 155 198 260 314 390
#     4  10  21  36  56  81 116 147 180 243 305 398
#     4  12  20  33  54  84 118 144 182 239 313 384
#     4  11  23  40  54  75 109 152 206 250 319 375
#
# _framework density 22.811561000000001
#
# number of rings (size 3 to 8) (size 9 to 14) (size 15 to 20)
#    0.000    0.875    2.500    6.750    0.000    2.000 
#    0.000    1.250    0.000    0.000    0.000    0.000 
#    0.000    0.000    0.000    0.000    0.000   10.000 
#
# Total GULP energy -714409.194542 kJ/mol
# GULP energy per Si atom -5581.321832 kJ/mol
# Density = 2.275964 g / cm^3
# Si number density = 22.811561 Si / 1000 Ang^3
#
#
#
# Elastic Constant Matrix: (Units=GPa)
#
#
# Indices 1 2 3 4 5 6 
#
# 1 65.4231 28.5581 36.5106 0.0000 0.0000 0.0000
# 2 28.5581 65.4231 36.5106 0.0000 0.0000 0.0000
# 3 36.5106 36.5106 205.7272 0.0000 0.0000 0.0000
# 4 0.0000 0.0000 0.0000 31.1946 0.0000 0.0000
# 5 0.0000 0.0000 0.0000 0.0000 31.1946 0.0000
# 6 0.0000 0.0000 0.0000 0.0000 0.0000 29.4893
#
#
#
# Elastic Compliance Matrix: (Units=1/GPa)
#
#
# Indices 1 2 3 4 5 6 
#
# 1 0.019734 -0.007392 -0.002190 0.000000 0.000000 0.000000
# 2 -0.007392 0.019734 -0.002190 0.000000 0.000000 0.000000
# 3 -0.002190 -0.002190 0.005638 0.000000 0.000000 0.000000
# 4 0.000000 0.000000 0.000000 0.032057 0.000000 0.000000
# 5 0.000000 0.000000 0.000000 0.000000 0.032057 0.000000
# 6 0.000000 0.000000 0.000000 0.000000 0.000000 0.033911
#
#
# Mechanical properties :
#
#
# Convention : Reuss Voigt Hill
#
# Bulk Modulus (GPa) = 46.37944 59.97025 53.17485
# Shear Modulus (GPa) = 28.75822 34.04196 31.40009
#
# Velocity S-wave (km/s) = 3.55447 3.86724 3.71414
# Velocity P-wave (km/s) = 6.10093 6.80347 6.46175
#
# Compressibility (1/GPa) = 0.02156128
#
# Stress axis : x y z
#
# Youngs Moduli (GPa) = 50.67357 50.67356 177.35932
#
# Poissons Ratio (x) = 0.37457 0.38849
# Poissons Ratio (y) = 0.37457 0.38849
# Poissons Ratio (z) = 0.11100 0.11100
#
# Static dielectric constant tensor:
#      x y z
#    x 1.861820 0.000000 0.000000 
#    y 0.000000 1.861820 0.000000 
#    z 0.000000 0.000000 2.062450 
# 
# From -- ./inp_files/1902.got.cif
#   From: 2010.05.17/outbox.cif.g08.bks.cpg/sg130_1_cif.got.tgz:1902.got - 2010.05.20 12:17:35.
