data_PCOD9565975
_publ_section_title
;
Structure prediction by ZEFSAII (Michael W. Deem and Ramdas Pophale) SiO2 
 PCOD9565975
Probable space group: P 4/N C C
;
_chemical_formula_sum "Si O2"
_cell_formula_units_Z 52
_cell_length_a 13.339301
_cell_length_b 13.339301
_cell_length_c 13.847182
_cell_angle_alpha 90.000000
_cell_angle_beta 90.000000
_cell_angle_gamma 90.000000
_cell_volume 2463.925347
_symmetry_space_group_name_H-M "P 4/N C C"
_symmetry_group_IT_number 130
_symmetry_cell_setting 'tetragonal'
loop_
_space_group_symop_operation_xyz
x,y,z
1/2-y,x,z
1/2-x,1/2-y,z
y,1/2-x,z
1/2+x,-y,1/2-z
-x,1/2+y,1/2-z
1/2+y,1/2+x,1/2-z
-y,-x,1/2-z
-x,-y,-z
1/2+y,-x,-z
1/2+x,1/2+y,-z
-y,1/2+x,-z
1/2-x,y,1/2+z
x,1/2-y,1/2+z
1/2-y,1/2-x,1/2+z
y,x,1/2+z
loop_
_atom_site_type_symbol
_atom_site_label
_atom_site_fract_x
_atom_site_fract_y
_atom_site_fract_z
Si Si1 0.220050 0.557006 0.622532
Si Si2 0.750000 0.250000 0.750000
Si Si3 0.094365 0.317002 0.285426
Si Si4 0.525669 0.113837 0.475477
O O1 0.253359 0.648516 0.688954
O O2 0.166859 0.475239 0.691574
O O3 0.310611 0.508264 0.563437
O O4 0.142937 0.607298 0.548541
O O5 0.122689 0.198852 0.285110
O O6 0.033276 0.347404 0.381163
O O7 0.500000 0.000000 0.500000
#
# Coordination Sequence:
#
# PCOD9565975 Si02
#       4
#    16   4  16  16
#     4  12  25  44  67 104 138 184 231 296 354 426
#     4  12  24  42  68  96 142 168 230 284 360 416
#     4  11  25  46  69  99 140 186 238 291 359 432
#     4  12  25  44  72 103 142 185 239 291 359 425
#
# _framework density 21.104536
#
# number of rings (size 3 to 8) (size 9 to 14) (size 15 to 20)
#    0.000    0.308    3.077    5.538    4.308    0.000 
#    0.000    3.077    0.000    0.000    0.000    0.000 
#    0.000    0.000    0.000    0.000    0.000    0.000 
#
# Total GULP energy -290985.841147 kJ/mol
# GULP energy per Si atom -5595.881561 kJ/mol
# Density = 2.105650 g / cm^3
# Si number density = 21.104536 Si / 1000 Ang^3
#
#
#
# Elastic Constant Matrix: (Units=GPa)
#
#
# Indices 1 2 3 4 5 6 
#
# 1 82.9612 3.4417 31.6816 0.0000 0.0000 0.0000
# 2 3.4417 82.9612 31.6816 0.0000 0.0000 0.0000
# 3 31.6816 31.6816 110.8968 0.0000 0.0000 0.0000
# 4 0.0000 0.0000 0.0000 53.5630 0.0000 0.0000
# 5 0.0000 0.0000 0.0000 0.0000 53.5630 0.0000
# 6 0.0000 0.0000 0.0000 0.0000 0.0000 36.1213
#
#
#
# Elastic Compliance Matrix: (Units=1/GPa)
#
#
# Indices 1 2 3 4 5 6 
#
# 1 0.013608 0.001033 -0.004183 0.000000 0.000000 0.000000
# 2 0.001033 0.013608 -0.004183 0.000000 0.000000 0.000000
# 3 -0.004183 -0.004183 0.011407 0.000000 0.000000 0.000000
# 4 0.000000 0.000000 0.000000 0.018670 0.000000 0.000000
# 5 0.000000 0.000000 0.000000 0.000000 0.018670 0.000000
# 6 0.000000 0.000000 0.000000 0.000000 0.000000 0.027685
#
#
# Mechanical properties :
#
#
# Convention : Reuss Voigt Hill
#
# Bulk Modulus (GPa) = 41.73889 45.60324 43.67107
# Shear Modulus (GPa) = 39.58852 42.65040 41.11946
#
# Velocity S-wave (km/s) = 4.33578 4.50033 4.41882
# Velocity P-wave (km/s) = 6.69966 6.97561 6.83903
#
# Compressibility (1/GPa) = 0.02395847
#
# Stress axis : x y z
#
# Youngs Moduli (GPa) = 73.48450 73.48450 87.66321
#
# Poissons Ratio (x) = -0.07589 0.36667
# Poissons Ratio (y) = -0.07589 0.36667
# Poissons Ratio (z) = 0.30737 0.30737
#
# Static dielectric constant tensor:
#      x y z
#    x 1.726250 0.000000 0.000000 
#    y 0.000000 1.726250 0.000000 
#    z 0.000000 0.000000 1.667960 
# 
# From -- ./inp_files/1372.got.cif
#   From: 2010.05.17/outbox.cif.g08.bks.cpg/sg130_1_cif.got.tgz:1372.got - 2010.05.20 12:17:35.
