data_PCOD9565857
_publ_section_title
;
Structure prediction by ZEFSAII (Michael W. Deem and Ramdas Pophale) SiO2 
 PCOD9565857
Probable space group: P 4/N C C
;
_chemical_formula_sum "Si O2"
_cell_formula_units_Z 96
_cell_length_a 14.232878
_cell_length_b 14.232878
_cell_length_c 23.116338
_cell_angle_alpha 90.000000
_cell_angle_beta 90.000000
_cell_angle_gamma 90.000000
_cell_volume 4682.787921
_symmetry_space_group_name_H-M "P 4/N C C"
_symmetry_group_IT_number 130
_symmetry_cell_setting 'tetragonal'
loop_
_space_group_symop_operation_xyz
x,y,z
1/2-y,x,z
1/2-x,1/2-y,z
y,1/2-x,z
1/2+x,-y,1/2-z
-x,1/2+y,1/2-z
1/2+y,1/2+x,1/2-z
-y,-x,1/2-z
-x,-y,-z
1/2+y,-x,-z
1/2+x,1/2+y,-z
-y,1/2+x,-z
1/2-x,y,1/2+z
x,1/2-y,1/2+z
1/2-y,1/2-x,1/2+z
y,x,1/2+z
loop_
_atom_site_type_symbol
_atom_site_label
_atom_site_fract_x
_atom_site_fract_y
_atom_site_fract_z
Si Si1 0.370893 0.154216 0.240426
Si Si2 0.502895 0.246716 0.890541
Si Si3 0.444105 0.067738 0.346864
Si Si4 0.019621 0.145526 0.628983
Si Si5 0.593314 0.721003 0.491525
Si Si6 0.674729 0.168104 0.317812
O O1 0.377210 0.264949 0.253991
O O2 0.442730 0.094221 0.279045
O O3 0.393490 0.144752 0.173004
O O4 0.429017 0.330158 0.876656
O O5 0.491255 0.148239 0.858840
O O6 0.594178 0.294267 0.861527
O O7 0.484645 0.222083 0.957610
O O8 0.537038 0.017138 0.371085
O O9 0.933690 0.202510 0.658050
O O10 0.044929 0.193427 0.568877
O O11 0.677737 0.644617 0.495262
O O12 0.750000 0.250000 0.319256
O O13 0.652257 0.152257 0.250000
#
# Coordination Sequence:
#
# PCOD9565857 Si02
#       6
#    16  16  16  16  16  16
#     4  11  22  37  65  98 133 172 222 290 358 413
#     4  11  22  42  69  97 128 177 231 279 340 406
#     4  11  22  40  64  96 130 172 226 287 340 413
#     4  11  24  42  61  99 138 174 226 281 343 420
#     4  11  24  44  70  97 137 180 223 286 348 402
#     4  10  24  48  69  95 137 183 224 276 340 413
#
# _framework density 20.500608
#
# number of rings (size 3 to 8) (size 9 to 14) (size 15 to 20)
#    0.000    1.167    3.333    3.500    0.000    5.000 
#    9.000    0.000    0.000    0.000    0.000    0.000 
#    0.000    0.000    0.000    0.000    0.000    0.000 
#
# Total GULP energy -535081.352767 kJ/mol
# GULP energy per Si atom -5573.764091 kJ/mol
# Density = 2.045395 g / cm^3
# Si number density = 20.500608 Si / 1000 Ang^3
#
#
#
# Elastic Constant Matrix: (Units=GPa)
#
#
# Indices 1 2 3 4 5 6 
#
# 1 49.6755 27.0740 41.4686 0.0000 0.0000 0.0000
# 2 27.0740 49.6755 41.4686 0.0000 0.0000 0.0000
# 3 41.4686 41.4686 176.5431 0.0000 0.0000 0.0000
# 4 0.0000 0.0000 0.0000 25.0552 0.0000 0.0000
# 5 0.0000 0.0000 0.0000 0.0000 25.0552 0.0000
# 6 0.0000 0.0000 0.0000 0.0000 0.0000 28.4549
#
#
#
# Elastic Compliance Matrix: (Units=1/GPa)
#
#
# Indices 1 2 3 4 5 6 
#
# 1 0.030853 -0.013392 -0.004102 0.000000 0.000000 0.000000
# 2 -0.013392 0.030853 -0.004102 0.000000 0.000000 0.000000
# 3 -0.004102 -0.004102 0.007591 0.000000 0.000000 0.000000
# 4 0.000000 0.000000 0.000000 0.039912 0.000000 0.000000
# 5 0.000000 0.000000 0.000000 0.000000 0.039912 0.000000
# 6 0.000000 0.000000 0.000000 0.000000 0.000000 0.035143
#
#
# Mechanical properties :
#
#
# Convention : Reuss Voigt Hill
#
# Bulk Modulus (GPa) = 38.30224 55.10183 46.70204
# Shear Modulus (GPa) = 21.17234 26.77192 23.97213
#
# Velocity S-wave (km/s) = 3.21716 3.61766 3.42327
# Velocity P-wave (km/s) = 5.70299 6.66231 6.20123
#
# Compressibility (1/GPa) = 0.02610813
#
# Stress axis : x y z
#
# Youngs Moduli (GPa) = 32.41148 32.41148 131.73124
#
# Poissons Ratio (x) = 0.43404 0.54031
# Poissons Ratio (y) = 0.43404 0.54031
# Poissons Ratio (z) = 0.13294 0.13294
#
# Static dielectric constant tensor:
#      x y z
#    x 1.767310 0.000000 0.000000 
#    y 0.000000 1.767310 0.000000 
#    z 0.000000 0.000000 1.756590 
# 
# From -- ./inp_files/3810.got.cif
#   From: 2010.05.17/outbox.cif.g08.bks.cpg/sg130_2_cif.got.tgz:3810.got - 2010.05.20 12:17:35.
