data_PCOD9565478
_publ_section_title
;
Structure prediction by ZEFSAII (Michael W. Deem and Ramdas Pophale) SiO2 
 PCOD9565478
Probable space group: P 4/N M M
;
_chemical_formula_sum "Si O2"
_cell_formula_units_Z 64
_cell_length_a 18.854227
_cell_length_b 18.854227
_cell_length_c 10.185998
_cell_angle_alpha 90.000000
_cell_angle_beta 90.000000
_cell_angle_gamma 90.000000
_cell_volume 3620.937676
_symmetry_space_group_name_H-M "P 4/N M M"
_symmetry_group_IT_number 129
_symmetry_cell_setting 'tetragonal'
loop_
_space_group_symop_operation_xyz
x,y,z
1/2-y,x,z
1/2-x,1/2-y,z
y,1/2-x,z
1/2+x,-y,-z
-x,1/2+y,-z
1/2+y,1/2+x,-z
-y,-x,-z
-x,-y,-z
1/2+y,-x,-z
1/2+x,1/2+y,-z
-y,1/2+x,-z
1/2-x,y,z
x,1/2-y,z
1/2-y,1/2-x,z
y,x,z
loop_
_atom_site_type_symbol
_atom_site_label
_atom_site_fract_x
_atom_site_fract_y
_atom_site_fract_z
Si Si1 0.012026 0.250000 0.482001
Si Si2 0.130884 0.250000 0.999293
Si Si3 0.993068 0.750000 0.201860
Si Si4 0.088754 0.971064 0.864541
Si Si5 0.750000 0.631962 0.716889
Si Si6 0.596536 0.484703 0.614845
O O1 0.011398 0.250000 0.639622
O O2 0.089144 0.250000 0.416351
O O3 0.979542 0.178245 0.423144
O O4 0.181920 0.181920 0.996320
O O5 0.081284 0.250000 0.874326
O O6 0.091493 0.250000 0.141919
O O7 0.025596 0.826416 0.157890
O O8 0.053304 0.925377 0.748658
O O9 0.065477 0.934524 0.000000
O O10 0.048568 0.048568 0.859913
O O11 0.817629 0.682372 0.720237
O O12 0.554117 0.445884 0.500000
O O13 0.564858 0.564858 0.620724
#
# Coordination Sequence:
#
# PCOD9565478 Si02
#       6
#     8   8   8  16   8  16
#     4  12  23  35  61  89 115 157 202 247 299 353
#     4   9  20  36  52  78 119 157 189 235 294 357
#     4  12  23  37  61  89 115 151 204 253 299 351
#     4  10  23  41  62  90 122 157 198 248 304 361
#     4   9  20  36  52  80 121 157 189 229 288 363
#     4  10  21  39  59  86 124 157 192 244 301 357
#
# _framework density 17.674979
#
# number of rings (size 3 to 8) (size 9 to 14) (size 15 to 20)
#    0.000    1.750    2.500    2.250    3.500    3.000 
#    0.000    1.250    0.000    4.500    0.000    0.000 
#    0.000    0.000    0.000    0.000    0.000    0.000 
#
# Total GULP energy -356651.637048 kJ/mol
# GULP energy per Si atom -5572.681829 kJ/mol
# Density = 1.763475 g / cm^3
# Si number density = 17.674979 Si / 1000 Ang^3
#
#
#
# Elastic Constant Matrix: (Units=GPa)
#
#
# Indices 1 2 3 4 5 6 
#
# 1 123.7260 38.6254 58.6598 0.0000 0.0000 0.0000
# 2 38.6254 123.7260 58.6594 0.0000 0.0000 0.0000
# 3 58.6598 58.6594 161.3865 0.0000 0.0000 0.0000
# 4 0.0000 0.0000 0.0000 22.4761 0.0000 0.0000
# 5 0.0000 0.0000 0.0000 0.0000 22.4766 0.0000
# 6 0.0000 0.0000 0.0000 0.0000 0.0000 11.7914
#
#
#
# Elastic Compliance Matrix: (Units=1/GPa)
#
#
# Indices 1 2 3 4 5 6 
#
# 1 0.010052 -0.001699 -0.003036 0.000000 0.000000 0.000000
# 2 -0.001699 0.010052 -0.003036 0.000000 0.000000 0.000000
# 3 -0.003036 -0.003036 0.008404 0.000000 0.000000 0.000000
# 4 0.000000 0.000000 0.000000 0.044492 0.000000 0.000000
# 5 0.000000 0.000000 0.000000 0.000000 0.044491 0.000000
# 6 0.000000 0.000000 0.000000 0.000000 0.000000 0.084808
#
#
# Mechanical properties :
#
#
# Convention : Reuss Voigt Hill
#
# Bulk Modulus (GPa) = 77.12777 80.08085 78.60431
# Shear Modulus (GPa) = 22.50607 28.20840 25.35723
#
# Velocity S-wave (km/s) = 3.57225 3.99927 3.79177
# Velocity P-wave (km/s) = 7.79397 8.16893 7.98365
#
# Compressibility (1/GPa) = 0.01296550
#
# Stress axis : x y z
#
# Youngs Moduli (GPa) = 99.48059 99.48092 118.99766
#
# Poissons Ratio (x) = 0.16898 0.36132
# Poissons Ratio (y) = 0.16898 0.36131
# Poissons Ratio (z) = 0.30206 0.30205
#
# Static dielectric constant tensor:
#      x y z
#    x 1.632500 0.000000 0.000000 
#    y 0.000000 1.632500 0.000000 
#    z 0.000000 0.000000 1.484860 
# 
# From -- ./inp_files/2199.got.cif
#   From: 2010.05.17/outbox.cif.g08.bks.cpg/sg129_2_cif.got.tgz:2199.got - 2010.05.20 12:12:06.
