data_PCOD9565520
_publ_section_title
;
Structure prediction by ZEFSAII (Michael W. Deem and Ramdas Pophale) SiO2 
 PCOD9565520
Probable space group: P 4/N M M
;
_chemical_formula_sum "Si O2"
_cell_formula_units_Z 80
_cell_length_a 18.000000
_cell_length_b 18.000000
_cell_length_c 15.000000
_cell_angle_alpha 90.000000
_cell_angle_beta 90.000000
_cell_angle_gamma 90.000000
_cell_volume 4860.000000
_symmetry_space_group_name_H-M "P 4/N M M"
_symmetry_group_IT_number 129
_symmetry_cell_setting 'tetragonal'
loop_
_space_group_symop_operation_xyz
x,y,z
1/2-y,x,z
1/2-x,1/2-y,z
y,1/2-x,z
1/2+x,-y,-z
-x,1/2+y,-z
1/2+y,1/2+x,-z
-y,-x,-z
-x,-y,-z
1/2+y,-x,-z
1/2+x,1/2+y,-z
-y,1/2+x,-z
1/2-x,y,z
x,1/2-y,z
1/2-y,1/2-x,z
y,x,z
loop_
_atom_site_type_symbol
_atom_site_label
_atom_site_fract_x
_atom_site_fract_y
_atom_site_fract_z
Si Si1 0.164698 0.459333 0.714433
Si Si2 0.510825 0.112313 0.904340
Si Si3 0.063527 0.563999 0.602509
Si Si4 0.036607 0.834309 0.904309
Si Si5 0.041119 0.335969 0.284081
O O1 0.250000 0.444886 0.693216
O O2 0.112013 0.387988 0.699394
O O3 0.155595 0.482105 0.818200
O O4 0.131080 0.526387 0.655631
O O5 0.598422 0.095125 0.895527
O O6 0.465726 0.034275 0.904980
O O7 0.499095 0.151753 0.999295
O O8 0.081809 0.581809 0.500000
O O9 0.999487 0.500514 0.601748
O O10 0.026637 0.631240 0.657208
O O11 0.066744 0.750000 0.902457
O O12 0.982277 0.841943 0.819836
O O13 0.054549 0.250000 0.304906
O O14 0.112239 0.387762 0.300403
#
# Coordination Sequence:
#
# PCOD9565520 Si02
#       5
#    16  16  16  16  16
#     4  10  20  34  54  79 106 135 170 213 260 310
#     4  10  18  31  51  72 101 140 181 215 250 306
#     4   9  18  34  54  74  97 129 172 215 253 300
#     4  10  18  28  48  75 102 132 172 219 259 295
#     4  10  19  32  51  77 107 137 172 211 253 303
#
# _framework density 16.460905
#
# number of rings (size 3 to 8) (size 9 to 14) (size 15 to 20)
#    0.000    2.200    2.000    3.000    0.000    1.200 
#    0.000    0.000    0.000   12.000    0.000    9.800 
#    0.000    0.000    0.000    0.000    0.000    0.000 
#
# Total GULP energy -445839.530131 kJ/mol
# GULP energy per Si atom -5572.994127 kJ/mol
# Density = 1.642344 g / cm^3
# Si number density = 16.460905 Si / 1000 Ang^3
#
#
#
# Elastic Constant Matrix: (Units=GPa)
#
#
# Indices 1 2 3 4 5 6 
#
# 1 107.5005 49.2266 39.3842 0.0000 0.0000 0.0000
# 2 49.2266 107.5005 39.3842 0.0000 0.0000 0.0000
# 3 39.3842 39.3842 108.8625 0.0000 0.0000 0.0000
# 4 0.0000 0.0000 0.0000 9.0813 0.0000 0.0000
# 5 0.0000 0.0000 0.0000 0.0000 9.0813 0.0000
# 6 0.0000 0.0000 0.0000 0.0000 0.0000 12.4754
#
#
#
# Elastic Compliance Matrix: (Units=1/GPa)
#
#
# Indices 1 2 3 4 5 6 
#
# 1 0.012479 -0.004681 -0.002821 0.000000 0.000000 0.000000
# 2 -0.004681 0.012479 -0.002821 0.000000 0.000000 0.000000
# 3 -0.002821 -0.002821 0.011227 0.000000 0.000000 0.000000
# 4 0.000000 0.000000 0.000000 0.110116 0.000000 0.000000
# 5 0.000000 0.000000 0.000000 0.000000 0.110116 0.000000
# 6 0.000000 0.000000 0.000000 0.000000 0.000000 0.080158
#
#
# Mechanical properties :
#
#
# Convention : Reuss Voigt Hill
#
# Bulk Modulus (GPa) = 64.35448 64.42816 64.39132
# Shear Modulus (GPa) = 13.79682 19.18552 16.49117
#
# Velocity S-wave (km/s) = 2.89823 3.41768 3.16862
# Velocity P-wave (km/s) = 7.09788 7.40264 7.25186
#
# Compressibility (1/GPa) = 0.01553893
#
# Stress axis : x y z
#
# Youngs Moduli (GPa) = 80.13205 80.13205 89.06864
#
# Poissons Ratio (x) = 0.37509 0.25129
# Poissons Ratio (y) = 0.37509 0.25129
# Poissons Ratio (z) = 0.22608 0.22608
#
# Static dielectric constant tensor:
#      x y z
#    x 1.543660 0.000000 0.000000 
#    y 0.000000 1.543660 0.000000 
#    z 0.000000 0.000000 1.570690 
# 
# From -- ./inp_files/4549.got.cif
#   From: 2010.05.17/outbox.ucp.g08.bks.cvg/sg129_3_cif.got.tgz:4549.got - 2010.06.11 11:38:03.
