data_PCOD9565923
_publ_section_title
;
Structure prediction by ZEFSAII (Michael W. Deem and Ramdas Pophale) SiO2 
 PCOD9565923
Probable space group: P 4/N C C
;
_chemical_formula_sum "Si O2"
_cell_formula_units_Z 116
_cell_length_a 17.416217
_cell_length_b 17.416217
_cell_length_c 15.353373
_cell_angle_alpha 90.000000
_cell_angle_beta 90.000000
_cell_angle_gamma 90.000000
_cell_volume 4657.055948
_symmetry_space_group_name_H-M "P 4/N C C"
_symmetry_group_IT_number 130
_symmetry_cell_setting 'tetragonal'
loop_
_space_group_symop_operation_xyz
x,y,z
1/2-y,x,z
1/2-x,1/2-y,z
y,1/2-x,z
1/2+x,-y,1/2-z
-x,1/2+y,1/2-z
1/2+y,1/2+x,1/2-z
-y,-x,1/2-z
-x,-y,-z
1/2+y,-x,-z
1/2+x,1/2+y,-z
-y,1/2+x,-z
1/2-x,y,1/2+z
x,1/2-y,1/2+z
1/2-y,1/2-x,1/2+z
y,x,1/2+z
loop_
_atom_site_type_symbol
_atom_site_label
_atom_site_fract_x
_atom_site_fract_y
_atom_site_fract_z
Si Si1 0.898878 0.694266 0.791444
Si Si2 0.071049 0.818943 0.471566
Si Si3 0.854755 0.415873 0.159703
Si Si4 0.250000 0.250000 0.293266
Si Si5 0.392158 0.403548 0.045529
Si Si6 0.850810 0.062712 0.411154
Si Si7 0.974680 0.195257 0.269808
Si Si8 0.584626 0.573730 0.645833
O O1 0.836129 0.717116 0.720831
O O2 0.864941 0.665306 0.883149
O O3 0.936334 0.623696 0.741009
O O4 0.958257 0.763423 0.789895
O O5 0.133867 0.841268 0.399189
O O6 0.057268 0.728459 0.466252
O O7 0.104583 0.863691 0.553510
O O8 0.990165 0.860058 0.450400
O O9 0.890853 0.390853 0.250000
O O10 0.767171 0.443109 0.174671
O O11 0.907848 0.484118 0.119120
O O12 0.480580 0.393869 0.075666
O O13 0.387351 0.381250 0.942991
O O14 0.834587 0.076146 0.309532
O O15 0.013782 0.127685 0.326105
#
# Coordination Sequence:
#
# PCOD9565923 Si02
#       8
#    16  16  16   4  16  16  16  16
#     4  11  22  42  65 100 153 198 245 317 389 463
#     4  12  27  47  77 111 151 203 254 322 395 454
#     4  11  23  43  71 108 151 200 247 313 389 459
#     4  12  20  40  62  92 156 202 240 304 398 460
#     4  12  25  46  74 112 146 199 264 316 386 464
#     4  12  25  48  74 109 152 197 255 321 388 464
#     4  11  23  43  71 107 150 200 249 317 386 460
#     4  11  24  39  73 108 143 191 263 315 382 465
#
# _framework density 24.908439999999999
#
# number of rings (size 3 to 8) (size 9 to 14) (size 15 to 20)
#    0.000    0.552    6.897    1.241    1.931    0.276 
#    0.000    0.690    0.000    0.000    0.000    0.000 
#    0.000    0.000    0.000    0.000    0.000    0.000 
#
# Total GULP energy -646259.018015 kJ/mol
# GULP energy per Si atom -5571.198431 kJ/mol
# Density = 2.485175 g / cm^3
# Si number density = 24.908440 Si / 1000 Ang^3
#
#
#
# Elastic Constant Matrix: (Units=GPa)
#
#
# Indices 1 2 3 4 5 6 
#
# 1 85.0980 32.6219 2.3697 0.0000 0.0000 0.0000
# 2 32.6219 85.0980 2.3697 0.0000 0.0000 0.0000
# 3 2.3697 2.3697 120.2169 0.0000 0.0000 0.0000
# 4 0.0000 0.0000 0.0000 20.6101 0.0000 0.0000
# 5 0.0000 0.0000 0.0000 0.0000 20.6101 0.0000
# 6 0.0000 0.0000 0.0000 0.0000 0.0000 37.1916
#
#
#
# Elastic Compliance Matrix: (Units=1/GPa)
#
#
# Indices 1 2 3 4 5 6 
#
# 1 0.013779 -0.005277 -0.000168 0.000000 0.000000 0.000000
# 2 -0.005277 0.013779 -0.000168 0.000000 0.000000 0.000000
# 3 -0.000168 -0.000168 0.008325 0.000000 0.000000 0.000000
# 4 0.000000 0.000000 0.000000 0.048520 0.000000 0.000000
# 5 0.000000 0.000000 0.000000 0.000000 0.048520 0.000000
# 6 0.000000 0.000000 0.000000 0.000000 0.000000 0.026888
#
#
# Mechanical properties :
#
#
# Convention : Reuss Voigt Hill
#
# Bulk Modulus (GPa) = 40.55550 40.57060 40.56305
# Shear Modulus (GPa) = 27.89327 32.55245 30.22286
#
# Velocity S-wave (km/s) = 3.35002 3.61901 3.48711
# Velocity P-wave (km/s) = 5.59291 5.81259 5.70381
#
# Compressibility (1/GPa) = 0.02465757
#
# Stress axis : x y z
#
# Youngs Moduli (GPa) = 72.57474 72.57474 120.12145
#
# Poissons Ratio (x) = 0.38301 0.02013
# Poissons Ratio (y) = 0.38301 0.02013
# Poissons Ratio (z) = 0.01216 0.01216
#
# Static dielectric constant tensor:
#      x y z
#    x 2.367950 0.000000 0.000000 
#    y 0.000000 2.367950 0.000000 
#    z 0.000000 0.000000 1.998690 
# 
# From -- ./inp_files/3224.got.cif
#   From: 2010.05.17/outbox.cif.g08.bks.cpg/sg130_2_cif.got.tgz:3224.got - 2010.05.20 12:17:35.
