data_PCOD9565769
_publ_section_title
;
Structure prediction by ZEFSAII (Michael W. Deem and Ramdas Pophale) SiO2 
 PCOD9565769
Probable space group: P 4/N C C
;
_chemical_formula_sum "Si O2"
_cell_formula_units_Z 100
_cell_length_a 14.665200
_cell_length_b 14.665200
_cell_length_c 19.462928
_cell_angle_alpha 90.000000
_cell_angle_beta 90.000000
_cell_angle_gamma 90.000000
_cell_volume 4185.854771
_symmetry_space_group_name_H-M "P 4/N C C"
_symmetry_group_IT_number 130
_symmetry_cell_setting 'tetragonal'
loop_
_space_group_symop_operation_xyz
x,y,z
1/2-y,x,z
1/2-x,1/2-y,z
y,1/2-x,z
1/2+x,-y,1/2-z
-x,1/2+y,1/2-z
1/2+y,1/2+x,1/2-z
-y,-x,1/2-z
-x,-y,-z
1/2+y,-x,-z
1/2+x,1/2+y,-z
-y,1/2+x,-z
1/2-x,y,1/2+z
x,1/2-y,1/2+z
1/2-y,1/2-x,1/2+z
y,x,1/2+z
loop_
_atom_site_type_symbol
_atom_site_label
_atom_site_fract_x
_atom_site_fract_y
_atom_site_fract_z
Si Si1 0.302369 0.918005 0.061688
Si Si2 0.993865 0.481931 0.918127
Si Si3 0.900474 0.757462 0.773524
Si Si4 0.877388 0.144796 0.913012
Si Si5 0.033807 0.218209 0.367085
Si Si6 0.746358 0.601829 0.936316
Si Si7 0.750000 0.750000 0.610051
O O1 0.387137 0.968155 0.098767
O O2 0.229202 0.863240 0.106573
O O3 0.246589 0.004310 0.030751
O O4 0.344473 0.868048 0.996173
O O5 0.053350 0.566922 0.890752
O O6 0.032557 0.385961 0.892676
O O7 0.000000 0.500000 0.000000
O O8 0.832491 0.841331 0.759290
O O9 0.974866 0.770977 0.715912
O O10 0.915145 0.748630 0.854536
O O11 0.944537 0.226038 0.891705
O O12 0.135232 0.254570 0.387425
O O13 0.834727 0.661525 0.954284
#
# Coordination Sequence:
#
# PCOD9565769 Si02
#       7
#    16  16  16  16  16  16   4
#     4  11  23  41  56  78 120 163 203 245 300 369
#     4  10  22  37  58  85 120 157 201 252 302 366
#     4   9  15  31  58  89 120 149 194 254 313 364
#     4  11  23  38  61  86 119 162 206 251 303 374
#     4  12  20  37  62  94 123 156 200 254 318 359
#     4   9  19  36  61  88 117 156 200 253 311 363
#     4  12  20  36  64  92 126 152 196 276 320 346
#
# _framework density 23.889980999999999
#
# number of rings (size 3 to 8) (size 9 to 14) (size 15 to 20)
#    0.000    1.600    3.200    3.840    0.000    3.520 
#    0.000    1.600    0.000    5.760    0.000    4.480 
#    0.000    0.000    0.000    0.000    0.000    0.000 
#
# Total GULP energy -557117.066684 kJ/mol
# GULP energy per Si atom -5571.170667 kJ/mol
# Density = 2.383561 g / cm^3
# Si number density = 23.889981 Si / 1000 Ang^3
#
#
#
# Elastic Constant Matrix: (Units=GPa)
#
#
# Indices 1 2 3 4 5 6 
#
# 1 156.8922 37.4402 11.9792 0.0000 0.0000 0.0000
# 2 37.4402 156.8922 11.9792 0.0000 0.0000 0.0000
# 3 11.9792 11.9792 51.4080 0.0000 0.0000 0.0000
# 4 0.0000 0.0000 0.0000 21.3560 0.0000 0.0000
# 5 0.0000 0.0000 0.0000 0.0000 21.3560 0.0000
# 6 0.0000 0.0000 0.0000 0.0000 0.0000 42.4602
#
#
#
# Elastic Compliance Matrix: (Units=1/GPa)
#
#
# Indices 1 2 3 4 5 6 
#
# 1 0.006835 -0.001537 -0.001235 0.000000 0.000000 0.000000
# 2 -0.001537 0.006835 -0.001235 0.000000 0.000000 0.000000
# 3 -0.001235 -0.001235 0.020028 0.000000 0.000000 0.000000
# 4 0.000000 0.000000 0.000000 0.046825 0.000000 0.000000
# 5 0.000000 0.000000 0.000000 0.000000 0.046825 0.000000
# 6 0.000000 0.000000 0.000000 0.000000 0.000000 0.023551
#
#
# Mechanical properties :
#
#
# Convention : Reuss Voigt Hill
#
# Bulk Modulus (GPa) = 38.93263 54.22110 46.57686
# Shear Modulus (GPa) = 29.85563 37.28737 33.57150
#
# Velocity S-wave (km/s) = 3.53896 3.95498 3.75274
# Velocity P-wave (km/s) = 5.74726 6.60312 6.19000
#
# Compressibility (1/GPa) = 0.02568540
#
# Stress axis : x y z
#
# Youngs Moduli (GPa) = 146.31021 146.31021 49.93112
#
# Poissons Ratio (x) = 0.22484 0.06164
# Poissons Ratio (y) = 0.22484 0.06164
# Poissons Ratio (z) = 0.18063 0.18063
#
# Static dielectric constant tensor:
#      x y z
#    x 1.998670 0.000000 0.000000 
#    y 0.000000 1.998670 0.000000 
#    z 0.000000 0.000000 2.013680 
# 
# From -- ./inp_files/4211.got.cif
#   From: 2010.05.17/outbox.cif.g08.bks.cpg/sg130_3_cif.got.tgz:4211.got - 2010.05.20 12:17:35.
