data_PCOD9565240
_publ_section_title
;
Structure prediction by ZEFSAII (Michael W. Deem and Ramdas Pophale) SiO2 
 PCOD9565240
Probable space group: P 4/N M M
;
_chemical_formula_sum "Si O2"
_cell_formula_units_Z 112
_cell_length_a 15.410743
_cell_length_b 15.410743
_cell_length_c 31.117323
_cell_angle_alpha 90.000000
_cell_angle_beta 90.000000
_cell_angle_gamma 90.000000
_cell_volume 7390.084151
_symmetry_space_group_name_H-M "P 4/N M M"
_symmetry_group_IT_number 129
_symmetry_cell_setting 'tetragonal'
loop_
_space_group_symop_operation_xyz
x,y,z
1/2-y,x,z
1/2-x,1/2-y,z
y,1/2-x,z
1/2+x,-y,-z
-x,1/2+y,-z
1/2+y,1/2+x,-z
-y,-x,-z
-x,-y,-z
1/2+y,-x,-z
1/2+x,1/2+y,-z
-y,1/2+x,-z
1/2-x,y,z
x,1/2-y,z
1/2-y,1/2-x,z
y,x,z
loop_
_atom_site_type_symbol
_atom_site_label
_atom_site_fract_x
_atom_site_fract_y
_atom_site_fract_z
Si Si1 0.850229 0.993879 0.287585
Si Si2 0.649550 0.506776 0.843876
Si Si3 0.347628 0.929355 0.062162
Si Si4 0.350561 0.850192 0.221763
Si Si5 0.995154 0.647814 0.389438
Si Si6 0.151220 0.644869 0.451148
Si Si7 0.486508 0.154445 0.969563
O O1 0.750000 0.965961 0.280577
O O2 0.864770 0.080012 0.259476
O O3 0.859408 0.012749 0.338403
O O4 0.918438 0.918438 0.276329
O O5 0.750000 0.533634 0.837465
O O6 0.582049 0.582049 0.832717
O O7 0.639378 0.480662 0.893787
O O8 0.634780 0.420672 0.815407
O O9 0.250000 0.892158 0.062584
O O10 0.422950 0.860117 0.054831
O O11 0.353168 0.991188 0.020308
O O12 0.250000 0.859144 0.236197
O O13 0.360809 0.750000 0.206785
O O14 0.978341 0.750000 0.398526
O O15 0.912767 0.587234 0.399274
O O16 0.078848 0.618900 0.416816
O O17 0.123728 0.623728 0.500000
O O18 0.250000 0.613313 0.443251
O O19 0.155437 0.750000 0.449790
O O20 0.451390 0.250000 0.961319
O O21 0.420523 0.079478 0.957260
#
# Coordination Sequence:
#
# PCOD9565240 Si02
#       7
#    16  16  16  16  16  16  16
#     4   9  17  29  44  62  85 111 140 174 209 249
#     4  10  19  31  48  68  91 117 142 171 208 251
#     4   9  18  32  49  67  87 113 145 180 216 249
#     4   9  18  31  46  65  87 111 140 174 212 251
#     4   9  17  27  40  60  84 111 141 171 207 251
#     4   8  14  25  40  58  81 108 139 176 214 249
#     4  10  19  31  47  66  91 119 145 176 210 248
#
# _framework density 15.155443
#
# number of rings (size 3 to 8) (size 9 to 14) (size 15 to 20)
#    0.000    2.857    0.000    2.571    0.000    2.286 
#    0.000    7.143    0.000    2.571    0.000    0.000 
#    0.000    3.714    0.000    3.143    0.000    5.571 
#
# Total GULP energy -623537.120177 kJ/mol
# GULP energy per Si atom -5567.295716 kJ/mol
# Density = 1.512095 g / cm^3
# Si number density = 15.155443 Si / 1000 Ang^3
#
#
#
# Elastic Constant Matrix: (Units=GPa)
#
#
# Indices 1 2 3 4 5 6 
#
# 1 91.9557 70.2538 49.7675 0.0000 0.0000 0.0000
# 2 70.2538 91.9557 49.7675 0.0000 0.0000 0.0000
# 3 49.7675 49.7675 49.3546 0.0000 0.0000 0.0000
# 4 0.0000 0.0000 0.0000 17.7704 0.0000 0.0000
# 5 0.0000 0.0000 0.0000 0.0000 17.7704 0.0000
# 6 0.0000 0.0000 0.0000 0.0000 0.0000 16.9617
#
#
#
# Elastic Compliance Matrix: (Units=1/GPa)
#
#
# Indices 1 2 3 4 5 6 
#
# 1 0.031125 -0.014954 -0.016306 0.000000 0.000000 0.000000
# 2 -0.014954 0.031125 -0.016306 0.000000 0.000000 0.000000
# 3 -0.016306 -0.016306 0.053146 0.000000 0.000000 0.000000
# 4 0.000000 0.000000 0.000000 0.056273 0.000000 0.000000
# 5 0.000000 0.000000 0.000000 0.000000 0.056273 0.000000
# 6 0.000000 0.000000 0.000000 0.000000 0.000000 0.058956
#
#
# Mechanical properties :
#
#
# Convention : Reuss Voigt Hill
#
# Bulk Modulus (GPa) = 49.34904 63.64929 56.49917
# Shear Modulus (GPa) = 12.86061 14.73230 13.79645
#
# Velocity S-wave (km/s) = 2.91620 3.12120 3.02044
# Velocity P-wave (km/s) = 6.63111 7.42146 7.03739
#
# Compressibility (1/GPa) = 0.02026382
#
# Stress axis : x y z
#
# Youngs Moduli (GPa) = 32.12891 32.12891 18.81617
#
# Poissons Ratio (x) = 0.48046 0.30681
# Poissons Ratio (y) = 0.48046 0.30681
# Poissons Ratio (z) = 0.52388 0.52388
#
# Static dielectric constant tensor:
#      x y z
#    x 1.499190 0.000000 0.000000 
#    y 0.000000 1.499190 0.000000 
#    z 0.000000 0.000000 1.493810 
# 
# From -- ./inp_files/7608.got.cif
#   From: 2010.05.17/outbox.cif.g08.bks.cpg/sg129_4_cif.got.tgz:7608.got - 2010.05.20 12:12:06.
