data_PCOD9565554
_publ_section_title
;
Structure prediction by ZEFSAII (Michael W. Deem and Ramdas Pophale) SiO2 
 PCOD9565554
Probable space group: P 4/N C C
;
_chemical_formula_sum "Si O2"
_cell_formula_units_Z 104
_cell_length_a 14.355381
_cell_length_b 14.355381
_cell_length_c 20.209312
_cell_angle_alpha 90.000000
_cell_angle_beta 90.000000
_cell_angle_gamma 90.000000
_cell_volume 4164.673655
_symmetry_space_group_name_H-M "P 4/N C C"
_symmetry_group_IT_number 130
_symmetry_cell_setting 'tetragonal'
loop_
_space_group_symop_operation_xyz
x,y,z
1/2-y,x,z
1/2-x,1/2-y,z
y,1/2-x,z
1/2+x,-y,1/2-z
-x,1/2+y,1/2-z
1/2+y,1/2+x,1/2-z
-y,-x,1/2-z
-x,-y,-z
1/2+y,-x,-z
1/2+x,1/2+y,-z
-y,1/2+x,-z
1/2-x,y,1/2+z
x,1/2-y,1/2+z
1/2-y,1/2-x,1/2+z
y,x,1/2+z
loop_
_atom_site_type_symbol
_atom_site_label
_atom_site_fract_x
_atom_site_fract_y
_atom_site_fract_z
Si Si1 0.418423 0.359090 0.888708
Si Si2 0.056125 0.605381 0.064203
Si Si3 0.300088 0.552920 0.190750
Si Si4 0.593266 0.254481 0.831428
Si Si5 0.750000 0.750000 0.554806
Si Si6 0.870760 0.659126 0.761512
Si Si7 0.750000 0.250000 0.500000
Si Si8 0.548935 0.251708 0.046184
O O1 0.441829 0.464844 0.906996
O O2 0.509486 0.300849 0.872451
O O3 0.349211 0.308305 0.938711
O O4 0.366335 0.356630 0.817439
O O5 0.107776 0.662733 0.124201
O O6 0.137432 0.541119 0.033508
O O7 0.018978 0.678229 0.009103
O O8 0.336884 0.658382 0.178129
O O9 0.233867 0.564171 0.255459
O O10 0.373980 0.472668 0.214293
O O11 0.266749 0.516972 0.119907
O O12 0.873735 0.768672 0.782349
O O13 0.731676 0.159967 0.457564
#
# Coordination Sequence:
#
# PCOD9565554 Si02
#       8
#    16  16  16  16   4  16   4  16
#     4  11  19  35  65  92 112 153 216 271 306 373
#     4  11  22  40  66  90 127 175 230 262 316 398
#     4  10  21  36  57  89 132 160 203 267 331 382
#     4  10  21  36  58  92 124 163 210 270 318 384
#     4  12  16  36  68  92 110 148 216 272 310 368
#     4  10  18  35  60  83 114 160 205 251 320 386
#     4   8  16  36  64  78 116 184 228 234 296 408
#     4  10  21  38  58  88 126 175 209 262 321 378
#
# _framework density 24.971945000000002
#
# number of rings (size 3 to 8) (size 9 to 14) (size 15 to 20)
#    0.000    1.692    3.077    3.692    0.000    1.846 
#    0.000    9.231    0.000    0.000    0.000    0.000 
#    0.000    0.000    0.000    0.000    0.000    0.000 
#
# Total GULP energy -579073.036538 kJ/mol
# GULP energy per Si atom -5568.009967 kJ/mol
# Density = 2.491511 g / cm^3
# Si number density = 24.971945 Si / 1000 Ang^3
#
#
#
# Elastic Constant Matrix: (Units=GPa)
#
#
# Indices 1 2 3 4 5 6 
#
# 1 50.4990 -25.1641 9.2870 0.0000 0.0000 0.0000
# 2 -25.1641 50.4990 9.2870 0.0000 0.0000 0.0000
# 3 9.2870 9.2870 122.8321 0.0000 0.0000 0.0000
# 4 0.0000 0.0000 0.0000 21.5376 0.0000 0.0000
# 5 0.0000 0.0000 0.0000 0.0000 21.5376 0.0000
# 6 0.0000 0.0000 0.0000 0.0000 0.0000 22.2009
#
#
#
# Elastic Compliance Matrix: (Units=1/GPa)
#
#
# Indices 1 2 3 4 5 6 
#
# 1 0.027502 0.014286 -0.003159 0.000000 0.000000 0.000000
# 2 0.014286 0.027502 -0.003159 0.000000 0.000000 0.000000
# 3 -0.003159 -0.003159 0.008619 0.000000 0.000000 0.000000
# 4 0.000000 0.000000 0.000000 0.046430 0.000000 0.000000
# 5 0.000000 0.000000 0.000000 0.000000 0.046430 0.000000
# 6 0.000000 0.000000 0.000000 0.000000 0.000000 0.045043
#
#
# Mechanical properties :
#
#
# Convention : Reuss Voigt Hill
#
# Bulk Modulus (GPa) = 12.56970 23.40551 17.98760
# Shear Modulus (GPa) = 23.57238 28.41656 25.99447
#
# Velocity S-wave (km/s) = 3.07572 3.37700 3.22987
# Velocity P-wave (km/s) = 4.20212 4.95969 4.59654
#
# Compressibility (1/GPa) = 0.07955642
#
# Stress axis : x y z
#
# Youngs Moduli (GPa) = 36.36093 36.36093 116.02344
#
# Poissons Ratio (x) = -0.51944 0.36657
# Poissons Ratio (y) = -0.51944 0.36657
# Poissons Ratio (z) = 0.11488 0.11488
#
# Static dielectric constant tensor:
#      x y z
#    x 2.041310 0.000000 0.000000 
#    y 0.000000 2.041310 0.000000 
#    z 0.000000 0.000000 2.018280 
# 
# From -- ./inp_files/3184.got.cif
#   From: 2010.05.17/outbox.cif.g08.bks.cpg/sg130_2_cif.got.tgz:3184.got - 2010.05.20 12:17:35.
