data_PCOD9565835
_publ_section_title
;
Structure prediction by ZEFSAII (Michael W. Deem and Ramdas Pophale) SiO2 
 PCOD9565835
Probable space group: P 4/N C C
;
_chemical_formula_sum "Si O2"
_cell_formula_units_Z 80
_cell_length_a 10.903958
_cell_length_b 10.903958
_cell_length_c 31.304246
_cell_angle_alpha 90.000000
_cell_angle_beta 90.000000
_cell_angle_gamma 90.000000
_cell_volume 3721.959026
_symmetry_space_group_name_H-M "P 4/N C C"
_symmetry_group_IT_number 130
_symmetry_cell_setting 'tetragonal'
loop_
_space_group_symop_operation_xyz
x,y,z
1/2-y,x,z
1/2-x,1/2-y,z
y,1/2-x,z
1/2+x,-y,1/2-z
-x,1/2+y,1/2-z
1/2+y,1/2+x,1/2-z
-y,-x,1/2-z
-x,-y,-z
1/2+y,-x,-z
1/2+x,1/2+y,-z
-y,1/2+x,-z
1/2-x,y,1/2+z
x,1/2-y,1/2+z
1/2-y,1/2-x,1/2+z
y,x,1/2+z
loop_
_atom_site_type_symbol
_atom_site_label
_atom_site_fract_x
_atom_site_fract_y
_atom_site_fract_z
Si Si1 0.982406 0.352883 0.143021
Si Si2 0.749021 0.550727 0.267650
Si Si3 0.903964 0.385636 0.987009
Si Si4 0.113105 0.921655 0.609655
Si Si5 0.747948 0.103063 0.186072
O O1 0.915186 0.260717 0.111204
O O2 0.882881 0.435639 0.167115
O O3 0.027635 0.265404 0.181941
O O4 0.075274 0.437290 0.117706
O O5 0.868268 0.630958 0.258575
O O6 0.741309 0.443562 0.233870
O O7 0.926855 0.375408 0.936107
O O8 0.919222 0.243030 0.004747
O O9 0.000000 0.500000 0.000000
O O10 0.065148 0.846655 0.650686
O O11 0.750000 0.250000 0.187053
#
# Coordination Sequence:
#
# PCOD9565835 Si02
#       5
#    16  16  16  16  16
#     4  11  22  40  64  93 129 176 222 279 329 420
#     4  11  22  40  58  89 129 177 224 274 331 385
#     4  11  27  49  80 113 150 194 246 319 393 473
#     4  11  24  41  70  96 132 173 230 282 356 427
#     4  10  24  38  62  93 129 172 222 277 333 410
#
# _framework density 21.494059
#
# number of rings (size 3 to 8) (size 9 to 14) (size 15 to 20)
#    0.000    1.200    2.000    3.000   11.200    6.400 
#    0.000    2.000    0.000    0.000    0.000    0.000 
#    0.000    0.000    0.000    0.000    0.000    0.000 
#
# Total GULP energy -445685.392624 kJ/mol
# GULP energy per Si atom -5571.067408 kJ/mol
# Density = 2.144514 g / cm^3
# Si number density = 21.494059 Si / 1000 Ang^3
#
#
#
# Elastic Constant Matrix: (Units=GPa)
#
#
# Indices 1 2 3 4 5 6 
#
# 1 79.6001 39.1978 31.9898 0.0000 0.0000 0.0000
# 2 39.1978 79.6001 31.9898 0.0000 0.0000 0.0000
# 3 31.9898 31.9898 104.3452 0.0000 0.0000 0.0000
# 4 0.0000 0.0000 0.0000 28.2096 0.0000 0.0000
# 5 0.0000 0.0000 0.0000 0.0000 28.2096 0.0000
# 6 0.0000 0.0000 0.0000 0.0000 0.0000 33.8738
#
#
#
# Elastic Compliance Matrix: (Units=1/GPa)
#
#
# Indices 1 2 3 4 5 6 
#
# 1 0.017417 -0.007334 -0.003091 0.000000 0.000000 0.000000
# 2 -0.007334 0.017417 -0.003091 0.000000 0.000000 0.000000
# 3 -0.003091 -0.003091 0.011479 0.000000 0.000000 0.000000
# 4 0.000000 0.000000 0.000000 0.035449 0.000000 0.000000
# 5 0.000000 0.000000 0.000000 0.000000 0.035449 0.000000
# 6 0.000000 0.000000 0.000000 0.000000 0.000000 0.029521
#
#
# Mechanical properties :
#
#
# Convention : Reuss Voigt Hill
#
# Bulk Modulus (GPa) = 51.86862 52.21115 52.03989
# Shear Modulus (GPa) = 27.74837 28.74979 28.24908
#
# Velocity S-wave (km/s) = 3.59692 3.66125 3.62922
# Velocity P-wave (km/s) = 6.43696 6.49744 6.46727
#
# Compressibility (1/GPa) = 0.01927948
#
# Stress axis : x y z
#
# Youngs Moduli (GPa) = 57.41615 57.41615 87.11681
#
# Poissons Ratio (x) = 0.42111 0.26928
# Poissons Ratio (y) = 0.42111 0.26928
# Poissons Ratio (z) = 0.17747 0.17747
#
# Static dielectric constant tensor:
#      x y z
#    x 1.863150 0.000000 0.000000 
#    y 0.000000 1.863150 0.000000 
#    z 0.000000 0.000000 1.822890 
# 
# From -- ./inp_files/4763.got.cif
#   From: 2010.05.17/outbox.cif.g08.bks.cpg/sg130_3_cif.got.tgz:4763.got - 2010.05.20 12:17:35.
