data_PCOD9565977
_publ_section_title
;
Structure prediction by ZEFSAII (Michael W. Deem and Ramdas Pophale) SiO2 
 PCOD9565977
Probable space group: P 4/N C C
;
_chemical_formula_sum "Si O2"
_cell_formula_units_Z 80
_cell_length_a 15.184183
_cell_length_b 15.184183
_cell_length_c 13.453241
_cell_angle_alpha 90.000000
_cell_angle_beta 90.000000
_cell_angle_gamma 90.000000
_cell_volume 3101.771353
_symmetry_space_group_name_H-M "P 4/N C C"
_symmetry_group_IT_number 130
_symmetry_cell_setting 'tetragonal'
loop_
_space_group_symop_operation_xyz
x,y,z
1/2-y,x,z
1/2-x,1/2-y,z
y,1/2-x,z
1/2+x,-y,1/2-z
-x,1/2+y,1/2-z
1/2+y,1/2+x,1/2-z
-y,-x,1/2-z
-x,-y,-z
1/2+y,-x,-z
1/2+x,1/2+y,-z
-y,1/2+x,-z
1/2-x,y,1/2+z
x,1/2-y,1/2+z
1/2-y,1/2-x,1/2+z
y,x,1/2+z
loop_
_atom_site_type_symbol
_atom_site_label
_atom_site_fract_x
_atom_site_fract_y
_atom_site_fract_z
Si Si1 0.132850 0.948767 0.161434
Si Si2 0.739469 0.598892 0.127085
Si Si3 0.032819 0.647925 0.503319
Si Si4 0.203723 0.841885 0.638744
Si Si5 0.106337 0.036845 0.710074
O O1 0.120595 0.879406 0.250000
O O2 0.228742 0.922956 0.127930
O O3 0.122813 0.044462 0.207723
O O4 0.052044 0.925891 0.087695
O O5 0.827215 0.661102 0.113292
O O6 0.770370 0.515801 0.058493
O O7 0.692305 0.551700 0.222929
O O8 0.131593 0.645847 0.454569
O O9 0.976548 0.623997 0.406650
O O10 0.250000 0.750000 0.622627
O O11 0.164480 0.835521 0.750000
O O12 0.039963 0.960037 0.750000
#
# Coordination Sequence:
#
# PCOD9565977 Si02
#       5
#    16  16  16  16  16
#     4  11  25  46  76 115 168 210 277 348 431 521
#     4  11  28  53  82 119 166 223 291 361 434 523
#     4  12  29  45  84 115 166 216 288 350 442 515
#     4  11  26  47  74 115 165 219 274 347 431 520
#     4  11  27  50  82 119 165 221 285 362 441 522
#
# _framework density 25.791715
#
# number of rings (size 3 to 8) (size 9 to 14) (size 15 to 20)
#    0.000    0.800    2.000    3.600   14.000    0.000 
#    0.000    2.000    0.000    0.000    0.000    0.000 
#    0.000    0.000    0.000    0.000    0.000    0.000 
#
# Total GULP energy -445481.050427 kJ/mol
# GULP energy per Si atom -5568.513130 kJ/mol
# Density = 2.573301 g / cm^3
# Si number density = 25.791715 Si / 1000 Ang^3
#
#
#
# Elastic Constant Matrix: (Units=GPa)
#
#
# Indices 1 2 3 4 5 6 
#
# 1 115.9604 82.2933 58.9489 0.0000 0.0000 0.0000
# 2 82.2933 115.9590 58.9447 0.0000 0.0000 0.0000
# 3 58.9489 58.9447 162.9648 0.0000 0.0000 0.0000
# 4 0.0000 0.0000 0.0000 31.8275 0.0000 0.0000
# 5 0.0000 0.0000 0.0000 0.0000 31.8273 0.0000
# 6 0.0000 0.0000 0.0000 0.0000 0.0000 48.4973
#
#
#
# Elastic Compliance Matrix: (Units=1/GPa)
#
#
# Indices 1 2 3 4 5 6 
#
# 1 0.018065 -0.011638 -0.002325 0.000000 0.000000 0.000000
# 2 -0.011638 0.018065 -0.002324 0.000000 0.000000 0.000000
# 3 -0.002325 -0.002324 0.007818 0.000000 0.000000 0.000000
# 4 0.000000 0.000000 0.000000 0.031419 0.000000 0.000000
# 5 0.000000 0.000000 0.000000 0.000000 0.031420 0.000000
# 6 0.000000 0.000000 0.000000 0.000000 0.000000 0.020620
#
#
# Mechanical properties :
#
#
# Convention : Reuss Voigt Hill
#
# Bulk Modulus (GPa) = 87.93070 88.36200 88.14635
# Shear Modulus (GPa) = 30.53027 35.41023 32.97025
#
# Velocity S-wave (km/s) = 3.44426 3.70933 3.57925
# Velocity P-wave (km/s) = 7.06993 7.25808 7.16462
#
# Compressibility (1/GPa) = 0.01137259
#
# Stress axis : x y z
#
# Youngs Moduli (GPa) = 55.35593 55.35684 127.91139
#
# Poissons Ratio (x) = 0.64427 0.29739
# Poissons Ratio (y) = 0.64425 0.29728
# Poissons Ratio (z) = 0.12870 0.12865
#
# Static dielectric constant tensor:
#      x y z
#    x 2.221130 0.000000 0.000000 
#    y 0.000000 2.221120 0.000000 
#    z 0.000000 0.000000 2.037120 
# 
# From -- ./inp_files/2327.got.cif
#   From: 2010.05.17/outbox.cif.g08.bks.cpg/sg130_2_cif.got.tgz:2327.got - 2010.05.20 12:17:35.
