data_PCOD9565503
_publ_section_title
;
Structure prediction by ZEFSAII (Michael W. Deem and Ramdas Pophale) SiO2 
 PCOD9565503
Probable space group: P 4/N M M
;
_chemical_formula_sum "Si O2"
_cell_formula_units_Z 56
_cell_length_a 18.103478
_cell_length_b 18.103478
_cell_length_c 8.016986
_cell_angle_alpha 90.000000
_cell_angle_beta 90.000000
_cell_angle_gamma 90.000000
_cell_volume 2627.454248
_symmetry_space_group_name_H-M "P 4/N M M"
_symmetry_group_IT_number 129
_symmetry_cell_setting 'tetragonal'
loop_
_space_group_symop_operation_xyz
x,y,z
1/2-y,x,z
1/2-x,1/2-y,z
y,1/2-x,z
1/2+x,-y,-z
-x,1/2+y,-z
1/2+y,1/2+x,-z
-y,-x,-z
-x,-y,-z
1/2+y,-x,-z
1/2+x,1/2+y,-z
-y,1/2+x,-z
1/2-x,y,z
x,1/2-y,z
1/2-y,1/2-x,z
y,x,z
loop_
_atom_site_type_symbol
_atom_site_label
_atom_site_fract_x
_atom_site_fract_y
_atom_site_fract_z
Si Si1 0.580128 0.580128 0.793561
Si Si2 0.088000 0.585428 0.746462
Si Si3 0.832728 0.332728 0.000000
Si Si4 0.338070 0.338070 0.904992
Si Si5 0.331318 0.831318 0.500000
Si Si6 0.078967 0.421034 0.605980
O O1 0.591924 0.492876 0.823159
O O2 0.592299 0.592299 0.592381
O O3 0.626278 0.626278 0.927706
O O4 0.153910 0.599482 0.875025
O O5 0.102672 0.654880 0.626637
O O6 0.092023 0.507435 0.651912
O O7 0.837685 0.250000 0.072499
O O8 0.250000 0.351091 0.905057
O O9 0.373787 0.373787 0.738009
O O10 0.336410 0.750000 0.423140
#
# Coordination Sequence:
#
# PCOD9565503 Si02
#       6
#     8  16   8   8   8   8
#     4  11  23  45  72  99 129 171 221 277 340 397
#     4  11  21  41  63  94 133 167 218 276 313 387
#     4  11  24  39  58  92 138 185 224 263 326 398
#     4  11  28  49  66  96 134 165 218 289 344 398
#     4  11  22  35  56  90 134 173 204 253 310 370
#     4  11  23  45  72  99 129 171 221 277 340 397
#
# _framework density 21.313404999999999
#
# number of rings (size 3 to 8) (size 9 to 14) (size 15 to 20)
#    0.000    1.000    2.857    4.286    0.000   12.571 
#    0.000    1.429    0.000    0.000    0.000    0.000 
#    0.000    0.000    0.000    0.000    0.000    0.000 
#
# Total GULP energy -312100.230745 kJ/mol
# GULP energy per Si atom -5573.218406 kJ/mol
# Density = 2.126490 g / cm^3
# Si number density = 21.313405 Si / 1000 Ang^3
#
#
#
# Elastic Constant Matrix: (Units=GPa)
#
#
# Indices 1 2 3 4 5 6 
#
# 1 111.2189 96.2918 55.6732 0.0000 0.0000 0.0000
# 2 96.2918 111.2189 55.6732 0.0000 0.0000 0.0000
# 3 55.6732 55.6732 98.4814 0.0000 0.0000 0.0000
# 4 0.0000 0.0000 0.0000 36.9905 0.0000 0.0000
# 5 0.0000 0.0000 0.0000 0.0000 36.9905 0.0000
# 6 0.0000 0.0000 0.0000 0.0000 0.0000 40.9598
#
#
#
# Elastic Compliance Matrix: (Units=1/GPa)
#
#
# Indices 1 2 3 4 5 6 
#
# 1 0.036955 -0.030037 -0.003910 0.000000 0.000000 0.000000
# 2 -0.030037 0.036955 -0.003910 0.000000 0.000000 0.000000
# 3 -0.003910 -0.003910 0.014576 0.000000 0.000000 0.000000
# 4 0.000000 0.000000 0.000000 0.027034 0.000000 0.000000
# 5 0.000000 0.000000 0.000000 0.000000 0.027034 0.000000
# 6 0.000000 0.000000 0.000000 0.000000 0.000000 0.024414
#
#
# Mechanical properties :
#
#
# Convention : Reuss Voigt Hill
#
# Bulk Modulus (GPa) = 78.31930 81.79953 80.05941
# Shear Modulus (GPa) = 20.24787 30.54024 25.39405
#
# Velocity S-wave (km/s) = 3.08556 3.78949 3.45550
# Velocity P-wave (km/s) = 7.03708 7.59010 7.31882
#
# Compressibility (1/GPa) = 0.01276825
#
# Stress axis : x y z
#
# Youngs Moduli (GPa) = 27.06019 27.06019 68.60815
#
# Poissons Ratio (x) = 0.81282 0.26829
# Poissons Ratio (y) = 0.81282 0.26829
# Poissons Ratio (z) = 0.10582 0.10582
#
# Static dielectric constant tensor:
#      x y z
#    x 1.719020 0.000000 0.000000 
#    y 0.000000 1.719020 0.000000 
#    z 0.000000 0.000000 1.954240 
# 
# From -- ./inp_files/1814.got.cif
#   From: 2010.05.17/outbox.cif.g08.bks.cpg/sg129_1_cif.got.tgz:1814.got - 2010.05.20 12:12:06.
