data_PCOD9565531
_publ_section_title
;
Structure prediction by ZEFSAII (Michael W. Deem and Ramdas Pophale) SiO2 
 PCOD9565531
Probable space group: P 4/N C C
;
_chemical_formula_sum "Si O2"
_cell_formula_units_Z 72
_cell_length_a 13.053231
_cell_length_b 13.053231
_cell_length_c 19.025241
_cell_angle_alpha 90.000000
_cell_angle_beta 90.000000
_cell_angle_gamma 90.000000
_cell_volume 3241.650685
_symmetry_space_group_name_H-M "P 4/N C C"
_symmetry_group_IT_number 130
_symmetry_cell_setting 'tetragonal'
loop_
_space_group_symop_operation_xyz
x,y,z
1/2-y,x,z
1/2-x,1/2-y,z
y,1/2-x,z
1/2+x,-y,1/2-z
-x,1/2+y,1/2-z
1/2+y,1/2+x,1/2-z
-y,-x,1/2-z
-x,-y,-z
1/2+y,-x,-z
1/2+x,1/2+y,-z
-y,1/2+x,-z
1/2-x,y,1/2+z
x,1/2-y,1/2+z
1/2-y,1/2-x,1/2+z
y,x,1/2+z
loop_
_atom_site_type_symbol
_atom_site_label
_atom_site_fract_x
_atom_site_fract_y
_atom_site_fract_z
Si Si1 0.584318 0.171915 0.341175
Si Si2 0.080056 0.718633 0.504338
Si Si3 0.126996 0.873005 0.750000
Si Si4 0.892265 0.670480 0.738197
Si Si5 0.496934 0.759919 0.357001
O O1 0.540400 0.196327 0.417996
O O2 0.619942 0.273025 0.299541
O O3 0.492654 0.124498 0.296064
O O4 0.682114 0.099647 0.350035
O O5 0.136445 0.828911 0.508781
O O6 0.001998 0.714064 0.439074
O O7 0.144417 0.965605 0.693891
O O8 0.881967 0.789018 0.713835
O O9 0.911769 0.694642 0.821156
#
# Coordination Sequence:
#
# PCOD9565531 Si02
#       5
#    16  16   8  16  16
#     4  10  18  32  54  83 109 133 174 221 264 321
#     4   9  16  28  50  83 118 142 160 207 282 330
#     4  10  15  26  50  80 108 136 168 209 262 309
#     4  10  22  40  55  70 101 146 190 226 265 314
#     4  10  18  32  54  83 109 133 174 221 264 321
#
# _framework density 22.210906000000001
#
# number of rings (size 3 to 8) (size 9 to 14) (size 15 to 20)
#    0.000    2.222    2.222    4.000    0.000    0.000 
#   16.000    2.222    0.000    8.000    0.000    0.000 
#    0.000    0.000    0.000    0.000    0.000    0.000 
#
# Total GULP energy -401389.878437 kJ/mol
# GULP energy per Si atom -5574.859423 kJ/mol
# Density = 2.216035 g / cm^3
# Si number density = 22.210906 Si / 1000 Ang^3
#
#
#
# Elastic Constant Matrix: (Units=GPa)
#
#
# Indices 1 2 3 4 5 6 
#
# 1 47.1477 -2.9472 11.8678 0.0000 0.0000 0.0000
# 2 -2.9472 47.1477 11.8681 0.0000 0.0000 0.0000
# 3 11.8678 11.8681 164.9157 0.0000 0.0000 0.0000
# 4 0.0000 0.0000 0.0000 17.4498 0.0000 0.0000
# 5 0.0000 0.0000 0.0000 0.0000 17.4498 0.0000
# 6 0.0000 0.0000 0.0000 0.0000 0.0000 16.6498
#
#
#
# Elastic Compliance Matrix: (Units=1/GPa)
#
#
# Indices 1 2 3 4 5 6 
#
# 1 0.021748 0.001786 -0.001694 0.000000 0.000000 0.000000
# 2 0.001786 0.021748 -0.001694 0.000000 0.000000 0.000000
# 3 -0.001694 -0.001694 0.006307 0.000000 0.000000 0.000000
# 4 0.000000 0.000000 0.000000 0.057307 0.000000 0.000000
# 5 0.000000 0.000000 0.000000 0.000000 0.057307 0.000000
# 6 0.000000 0.000000 0.000000 0.000000 0.000000 0.060061
#
#
# Mechanical properties :
#
#
# Convention : Reuss Voigt Hill
#
# Bulk Modulus (GPa) = 21.45903 33.42095 27.43999
# Shear Modulus (GPa) = 20.55799 26.20472 23.38136
#
# Velocity S-wave (km/s) = 3.04564 3.43857 3.24805
# Velocity P-wave (km/s) = 4.69578 5.55381 5.14272
#
# Compressibility (1/GPa) = 0.04660043
#
# Stress axis : x y z
#
# Youngs Moduli (GPa) = 45.98152 45.98149 158.54257
#
# Poissons Ratio (x) = -0.08211 0.26850
# Poissons Ratio (y) = -0.08211 0.26851
# Poissons Ratio (z) = 0.07787 0.07787
#
# Static dielectric constant tensor:
#      x y z
#    x 1.867940 0.000000 0.000000 
#    y 0.000000 1.867940 0.000000 
#    z 0.000000 0.000000 1.871780 
# 
# From -- ./inp_files/2910.got.cif
#   From: 2010.05.17/outbox.cif.g08.bks.cpg/sg130_2_cif.got.tgz:2910.got - 2010.05.20 12:17:35.
