data_PCOD9565507
_publ_section_title
;
Structure prediction by ZEFSAII (Michael W. Deem and Ramdas Pophale) SiO2 
 PCOD9565507
Probable space group: P 4/N M M
;
_chemical_formula_sum "Si O2"
_cell_formula_units_Z 60
_cell_length_a 15.500109
_cell_length_b 15.500109
_cell_length_c 12.616956
_cell_angle_alpha 90.000000
_cell_angle_beta 90.000000
_cell_angle_gamma 90.000000
_cell_volume 3031.266312
_symmetry_space_group_name_H-M "P 4/N M M"
_symmetry_group_IT_number 129
_symmetry_cell_setting 'tetragonal'
loop_
_space_group_symop_operation_xyz
x,y,z
1/2-y,x,z
1/2-x,1/2-y,z
y,1/2-x,z
1/2+x,-y,-z
-x,1/2+y,-z
1/2+y,1/2+x,-z
-y,-x,-z
-x,-y,-z
1/2+y,-x,-z
1/2+x,1/2+y,-z
-y,1/2+x,-z
1/2-x,y,z
x,1/2-y,z
1/2-y,1/2-x,z
y,x,z
loop_
_atom_site_type_symbol
_atom_site_label
_atom_site_fract_x
_atom_site_fract_y
_atom_site_fract_z
Si Si1 0.957895 0.750000 0.691260
Si Si2 0.060749 0.578925 0.627608
Si Si3 0.426487 0.750000 0.371230
Si Si4 0.396897 0.250000 0.076027
Si Si5 0.250000 0.105042 0.848382
Si Si6 0.250000 0.750000 0.500000
Si Si7 0.250000 0.250000 0.352516
Si Si8 0.106186 0.250000 0.603250
O O1 0.953301 0.750000 0.819524
O O2 0.857868 0.750000 0.652187
O O3 0.008106 0.663914 0.657271
O O4 0.074604 0.574604 0.500000
O O5 0.155096 0.575121 0.680710
O O6 0.004288 0.495713 0.657110
O O7 0.336720 0.750000 0.433337
O O8 0.512380 0.750000 0.446741
O O9 0.332312 0.332312 0.082365
O O10 0.443206 0.250000 0.960952
O O11 0.332587 0.167414 0.853408
O O12 0.250000 0.076095 0.726803
O O13 0.167619 0.167619 0.583447
#
# Coordination Sequence:
#
# PCOD9565507 Si02
#       8
#     8  16   8   8   8   2   2   8
#     4  12  20  37  58  87 119 148 181 234 300 349
#     4  11  23  37  57  79 109 149 192 236 289 342
#     4  12  22  41  57  77 106 148 203 241 272 334
#     4   9  13  24  49  85 121 144 170 221 290 348
#     4   7  12  23  47  84 120 148 172 211 275 350
#     4  12  24  40  56  76  96 146 200 252 284 328
#     4  12  20  36  60  92 124 132 178 252 308 348
#     4   9  18  35  60  89 119 149 183 227 283 336
#
# _framework density 19.793709
#
# number of rings (size 3 to 8) (size 9 to 14) (size 15 to 20)
#    0.000    1.733    4.000    4.000    0.000    0.000 
#    0.000    0.000    0.000    1.600    0.000    9.333 
#    0.000    0.000    0.000    0.000    0.000    0.000 
#
# Total GULP energy -334060.387520 kJ/mol
# GULP energy per Si atom -5567.673125 kJ/mol
# Density = 1.974866 g / cm^3
# Si number density = 19.793709 Si / 1000 Ang^3
#
#
#
# Elastic Constant Matrix: (Units=GPa)
#
#
# Indices 1 2 3 4 5 6 
#
# 1 154.5800 60.7106 9.2756 0.0000 0.0000 0.0000
# 2 60.7106 154.5800 9.2756 0.0000 0.0000 0.0000
# 3 9.2756 9.2756 75.2741 0.0000 0.0000 0.0000
# 4 0.0000 0.0000 0.0000 11.1423 0.0000 0.0000
# 5 0.0000 0.0000 0.0000 0.0000 11.1423 0.0000
# 6 0.0000 0.0000 0.0000 0.0000 0.0000 39.0544
#
#
#
# Elastic Compliance Matrix: (Units=1/GPa)
#
#
# Indices 1 2 3 4 5 6 
#
# 1 0.007674 -0.002979 -0.000579 0.000000 0.000000 0.000000
# 2 -0.002979 0.007674 -0.000579 0.000000 0.000000 0.000000
# 3 -0.000579 -0.000579 0.013427 0.000000 0.000000 0.000000
# 4 0.000000 0.000000 0.000000 0.089748 0.000000 0.000000
# 5 0.000000 0.000000 0.000000 0.000000 0.089748 0.000000
# 6 0.000000 0.000000 0.000000 0.000000 0.000000 0.025605
#
#
# Mechanical properties :
#
#
# Convention : Reuss Voigt Hill
#
# Bulk Modulus (GPa) = 48.77383 60.32864 54.55124
# Shear Modulus (GPa) = 20.08170 32.61264 26.34717
#
# Velocity S-wave (km/s) = 3.18865 4.06350 3.65237
# Velocity P-wave (km/s) = 6.18476 7.24989 6.73840
#
# Compressibility (1/GPa) = 0.02050280
#
# Stress axis : x y z
#
# Youngs Moduli (GPa) = 130.31157 130.31157 74.47488
#
# Poissons Ratio (x) = 0.38822 0.04308
# Poissons Ratio (y) = 0.38822 0.04308
# Poissons Ratio (z) = 0.07539 0.07539
#
# Static dielectric constant tensor:
#      x y z
#    x 1.741080 0.000000 0.000000 
#    y 0.000000 1.741080 0.000000 
#    z 0.000000 0.000000 1.836710 
# 
# From -- ./inp_files/4518.got.cif
#   From: 2010.05.17/outbox.cif.g08.bks.cpg/sg129_3_cif.got.tgz:4518.got - 2010.05.20 12:12:06.
