data_PCOD9565980
_publ_section_title
;
Structure prediction by ZEFSAII (Michael W. Deem and Ramdas Pophale) SiO2 
 PCOD9565980
Probable space group: P 4/N C C
;
_chemical_formula_sum "Si O2"
_cell_formula_units_Z 48
_cell_length_a 10.526709
_cell_length_b 10.526709
_cell_length_c 18.403943
_cell_angle_alpha 90.000000
_cell_angle_beta 90.000000
_cell_angle_gamma 90.000000
_cell_volume 2039.370414
_symmetry_space_group_name_H-M "P 4/N C C"
_symmetry_group_IT_number 130
_symmetry_cell_setting 'tetragonal'
loop_
_space_group_symop_operation_xyz
x,y,z
1/2-y,x,z
1/2-x,1/2-y,z
y,1/2-x,z
1/2+x,-y,1/2-z
-x,1/2+y,1/2-z
1/2+y,1/2+x,1/2-z
-y,-x,1/2-z
-x,-y,-z
1/2+y,-x,-z
1/2+x,1/2+y,-z
-y,1/2+x,-z
1/2-x,y,1/2+z
x,1/2-y,1/2+z
1/2-y,1/2-x,1/2+z
y,x,1/2+z
loop_
_atom_site_type_symbol
_atom_site_label
_atom_site_fract_x
_atom_site_fract_y
_atom_site_fract_z
Si Si1 0.965607 0.036331 0.164514
Si Si2 0.897159 0.294149 0.102498
Si Si3 0.692806 0.951157 0.537572
O O1 0.982275 0.176499 0.130571
O O2 0.082709 0.942753 0.147261
O O3 0.949464 0.050537 0.250000
O O4 0.842475 0.987121 0.119987
O O5 0.750000 0.250000 0.109803
O O6 0.936549 0.327355 0.019744
O O7 0.600264 0.833055 0.524543
#
# Coordination Sequence:
#
# PCOD9565980 Si02
#       3
#    16  16  16
#     4  12  30  48  77 120 161 212 269 334 418 491
#     4  12  28  49  85 114 162 214 273 337 411 495
#     4  11  25  50  78 115 157 207 270 332 401 490
#
# _framework density 23.536674000000001
#
# number of rings (size 3 to 8) (size 9 to 14) (size 15 to 20)
#    0.000    0.333    3.333    3.000   14.000    0.667 
#    0.000    0.000    0.000    0.000    0.000    0.000 
#    0.000    0.000    0.000    0.000    0.000    0.000 
#
# Total GULP energy -268574.760775 kJ/mol
# GULP energy per Si atom -5595.307516 kJ/mol
# Density = 2.348310 g / cm^3
# Si number density = 23.536674 Si / 1000 Ang^3
#
#
#
# Elastic Constant Matrix: (Units=GPa)
#
#
# Indices 1 2 3 4 5 6 
#
# 1 136.8308 63.9859 51.2052 0.0000 0.0000 0.0000
# 2 63.9859 136.8311 51.2053 0.0000 0.0000 0.0000
# 3 51.2052 51.2053 210.1851 0.0000 0.0000 0.0000
# 4 0.0000 0.0000 0.0000 30.6646 0.0000 0.0000
# 5 0.0000 0.0000 0.0000 0.0000 30.6643 0.0000
# 6 0.0000 0.0000 0.0000 0.0000 0.0000 48.2759
#
#
#
# Elastic Compliance Matrix: (Units=1/GPa)
#
#
# Indices 1 2 3 4 5 6 
#
# 1 0.009707 -0.004021 -0.001385 0.000000 0.000000 0.000000
# 2 -0.004021 0.009707 -0.001385 0.000000 0.000000 0.000000
# 3 -0.001385 -0.001385 0.005433 0.000000 0.000000 0.000000
# 4 0.000000 0.000000 0.000000 0.032611 0.000000 0.000000
# 5 0.000000 0.000000 0.000000 0.000000 0.032611 0.000000
# 6 0.000000 0.000000 0.000000 0.000000 0.000000 0.020714
#
#
# Mechanical properties :
#
#
# Convention : Reuss Voigt Hill
#
# Bulk Modulus (GPa) = 88.77948 90.73778 89.75863
# Shear Modulus (GPa) = 39.02585 43.08432 41.05508
#
# Velocity S-wave (km/s) = 4.07638 4.28310 4.18102
# Velocity P-wave (km/s) = 7.74321 7.94325 7.84387
#
# Compressibility (1/GPa) = 0.01126386
#
# Stress axis : x y z
#
# Youngs Moduli (GPa) = 103.01902 103.01921 184.07198
#
# Poissons Ratio (x) = 0.41422 0.25498
# Poissons Ratio (y) = 0.41422 0.25499
# Poissons Ratio (z) = 0.14271 0.14271
#
# Static dielectric constant tensor:
#      x y z
#    x 1.924140 0.000000 0.000000 
#    y 0.000000 1.924140 0.000000 
#    z 0.000000 0.000000 1.842280 
# 
# From -- ./inp_files/2722.got.cif
#   From: 2010.05.17/outbox.cif.g08.bks.cpg/sg130_2_cif.got.tgz:2722.got - 2010.05.20 12:17:35.
