data_PCOD9565219
_publ_section_title
;
Structure prediction by ZEFSAII (Michael W. Deem and Ramdas Pophale) SiO2 
 PCOD9565219
Probable space group: P 4/N M M
;
_chemical_formula_sum "Si O2"
_cell_formula_units_Z 80
_cell_length_a 30.391004
_cell_length_b 30.391004
_cell_length_c 5.148675
_cell_angle_alpha 90.000000
_cell_angle_beta 90.000000
_cell_angle_gamma 90.000000
_cell_volume 4755.383802
_symmetry_space_group_name_H-M "P 4/N M M"
_symmetry_group_IT_number 129
_symmetry_cell_setting 'tetragonal'
loop_
_space_group_symop_operation_xyz
x,y,z
1/2-y,x,z
1/2-x,1/2-y,z
y,1/2-x,z
1/2+x,-y,-z
-x,1/2+y,-z
1/2+y,1/2+x,-z
-y,-x,-z
-x,-y,-z
1/2+y,-x,-z
1/2+x,1/2+y,-z
-y,1/2+x,-z
1/2-x,y,z
x,1/2-y,z
1/2-y,1/2-x,z
y,x,z
loop_
_atom_site_type_symbol
_atom_site_label
_atom_site_fract_x
_atom_site_fract_y
_atom_site_fract_z
Si Si1 0.698400 0.129647 0.957660
Si Si2 0.912442 0.343368 0.542515
Si Si3 0.655198 0.655198 0.057610
Si Si4 0.697929 0.697929 0.557935
Si Si5 0.198885 0.003174 0.435809
Si Si6 0.562924 0.800917 0.062311
O O1 0.750000 0.127569 0.999969
O O2 0.685953 0.113674 0.669790
O O3 0.677798 0.177798 0.000000
O O4 0.673544 0.099313 0.169608
O O5 0.892011 0.392011 0.500000
O O6 0.963254 0.334238 0.485525
O O7 0.672090 0.672090 0.335563
O O8 0.667172 0.604105 0.031461
O O9 0.681474 0.681474 0.835949
O O10 0.750000 0.689925 0.530912
O O11 0.250000 0.986808 0.446317
O O12 0.194351 0.039503 0.660416
O O13 0.192283 0.026605 0.160394
O O14 0.578549 0.750000 0.038119
#
# Coordination Sequence:
#
# PCOD9565219 Si02
#       6
#    16  16   8   8  16  16
#     4  10  19  30  45  67  96 131 168 202 244 297
#     4  10  20  33  51  74  98 128 166 210 260 308
#     4  12  22  37  54  74 109 140 172 220 248 290
#     4  11  22  34  52  76 104 144 181 206 240 284
#     4  10  19  33  52  75 102 129 166 212 258 307
#     4  10  21  34  52  77 101 134 171 205 253 300
#
# _framework density 16.823036999999999
#
# number of rings (size 3 to 8) (size 9 to 14) (size 15 to 20)
#    0.000    1.700    0.000    6.000    0.000    4.200 
#    0.000    0.000    0.000    3.600    0.000    4.200 
#    0.000    0.000    0.000    0.000    0.000    0.000 
#
# Total GULP energy -446738.827086 kJ/mol
# GULP energy per Si atom -5584.235339 kJ/mol
# Density = 1.678475 g / cm^3
# Si number density = 16.823037 Si / 1000 Ang^3
#
#
#
# Elastic Constant Matrix: (Units=GPa)
#
#
# Indices 1 2 3 4 5 6 
#
# 1 59.6915 27.8751 -17.7123 0.0000 0.0000 0.0000
# 2 27.8751 59.6915 -17.7123 0.0000 0.0000 0.0000
# 3 -17.7123 -17.7123 43.9487 0.0000 0.0000 0.0000
# 4 0.0000 0.0000 0.0000 15.5302 0.0000 0.0000
# 5 0.0000 0.0000 0.0000 0.0000 15.5302 0.0000
# 6 0.0000 0.0000 0.0000 0.0000 0.0000 28.3232
#
#
#
# Elastic Compliance Matrix: (Units=1/GPa)
#
#
# Indices 1 2 3 4 5 6 
#
# 1 0.022537 -0.008893 0.005499 0.000000 0.000000 0.000000
# 2 -0.008893 0.022537 0.005499 0.000000 0.000000 0.000000
# 3 0.005499 0.005499 0.027186 0.000000 0.000000 0.000000
# 4 0.000000 0.000000 0.000000 0.064391 0.000000 0.000000
# 5 0.000000 0.000000 0.000000 0.000000 0.064391 0.000000
# 6 0.000000 0.000000 0.000000 0.000000 0.000000 0.035307
#
#
# Mechanical properties :
#
#
# Convention : Reuss Voigt Hill
#
# Bulk Modulus (GPa) = 13.07677 16.47027 14.77352
# Shear Modulus (GPa) = 19.40775 23.26882 21.33828
#
# Velocity S-wave (km/s) = 3.40021 3.72311 3.56532
# Velocity P-wave (km/s) = 4.81719 5.31918 5.07439
#
# Compressibility (1/GPa) = 0.07647147
#
# Stress axis : x y z
#
# Youngs Moduli (GPa) = 44.37062 44.37062 36.78325
#
# Poissons Ratio (x) = 0.39458 -0.20227
# Poissons Ratio (y) = 0.39458 -0.20227
# Poissons Ratio (z) = -0.24400 -0.24400
#
# Static dielectric constant tensor:
#      x y z
#    x 1.557200 0.000000 0.000000 
#    y 0.000000 1.557200 0.000000 
#    z 0.000000 0.000000 1.563710 
# 
# From -- ./inp_files/1011.got.cif
#   From: 2010.05.17/outbox.cif.g08.bks.cpg/sg129_1_cif.got.tgz:1011.got - 2010.05.20 12:12:06.
