data_PCOD9565072
_publ_section_title
;
Structure prediction by ZEFSAII (Michael W. Deem and Ramdas Pophale) SiO2 
 PCOD9565072
Probable space group: P 4/M N C
;
_chemical_formula_sum "Si O2"
_cell_formula_units_Z 80
_cell_length_a 10.455595
_cell_length_b 10.455595
_cell_length_c 34.674045
_cell_angle_alpha 90.000000
_cell_angle_beta 90.000000
_cell_angle_gamma 90.000000
_cell_volume 3790.548111
_symmetry_space_group_name_H-M "P 4/M N C"
_symmetry_group_IT_number 128
_symmetry_cell_setting 'tetragonal'
loop_
_space_group_symop_operation_xyz
x,y,z
-y,x,z
-x,-y,z
y,-x,z
1/2+x,1/2-y,1/2-z
1/2-x,1/2+y,1/2-z
1/2+y,1/2+x,1/2-z
1/2-y,1/2-x,1/2-z
-x,-y,-z
y,-x,-z
x,y,-z
-y,x,-z
1/2-x,1/2+y,1/2+z
1/2+x,1/2-y,1/2+z
1/2-y,1/2-x,1/2+z
1/2+y,1/2+x,1/2+z
loop_
_atom_site_type_symbol
_atom_site_label
_atom_site_fract_x
_atom_site_fract_y
_atom_site_fract_z
Si Si1 0.506629 0.284734 0.163586
Si Si2 0.093776 0.399172 0.897882
Si Si3 0.997013 0.783170 0.252732
Si Si4 0.216770 0.997017 0.167916
Si Si5 0.315152 0.394133 0.454557
O O1 0.627297 0.381196 0.162448
O O2 0.522908 0.194908 0.127342
O O3 0.505798 0.217282 0.205686
O O4 0.015938 0.317079 0.866037
O O5 0.152897 0.298399 0.927592
O O6 0.000000 0.500000 0.917975
O O7 0.996942 0.721374 0.210656
O O8 0.120982 0.875574 0.252743
O O9 0.120947 0.874779 0.164885
O O10 0.453604 0.332444 0.446656
O O11 0.289404 0.378523 0.500000
#
# Coordination Sequence:
#
# PCOD9565072 Si02
#       5
#    16  16  16  16  16
#     4   9  20  38  56  73 109 161 203 231 268 330
#     4  12  25  33  55  88 122 145 182 231 285 339
#     4   7  12  29  54  74  96 145 203 241 280 328
#     4   9  18  34  57  80 108 145 192 251 303 332
#     4   9  20  42  70  93 113 141 177 225 288 348
#
# _framework density 21.105125000000001
#
# number of rings (size 3 to 8) (size 9 to 14) (size 15 to 20)
#    0.000    2.800    0.000    4.200    5.600    2.800 
#    0.000    2.000    0.000    0.000    0.000    1.400 
#    0.000    0.000    0.000    0.000    0.000    0.000 
#
# Total GULP energy -446632.603877 kJ/mol
# GULP energy per Si atom -5582.907548 kJ/mol
# Density = 2.105709 g / cm^3
# Si number density = 21.105125 Si / 1000 Ang^3
#
#
#
# Elastic Constant Matrix: (Units=GPa)
#
#
# Indices 1 2 3 4 5 6 
#
# 1 1.5191 49.4402 6.4423 0.0000 0.0000 0.0000
# 2 49.4402 1.5191 6.4423 0.0000 0.0000 0.0000
# 3 6.4423 6.4423 59.3027 0.0000 0.0000 0.0000
# 4 0.0000 0.0000 0.0000 60.8614 0.0000 0.0000
# 5 0.0000 0.0000 0.0000 0.0000 60.8614 0.0000
# 6 0.0000 0.0000 0.0000 0.0000 0.0000 39.0789
#
#
#
# Elastic Compliance Matrix: (Units=1/GPa)
#
#
# Indices 1 2 3 4 5 6 
#
# 1 -0.000345 0.020523 -0.002192 0.000000 0.000000 0.000000
# 2 0.020523 -0.000345 -0.002192 0.000000 0.000000 0.000000
# 3 -0.002192 -0.002192 0.017339 0.000000 0.000000 0.000000
# 4 0.000000 0.000000 0.000000 0.016431 0.000000 0.000000
# 5 0.000000 0.000000 0.000000 0.000000 0.016431 0.000000
# 6 0.000000 0.000000 0.000000 0.000000 0.000000 0.025589
#
#
# Mechanical properties :
#
#
# Convention : Reuss Voigt Hill
#
# Bulk Modulus (GPa) = 20.43886 20.77670 20.60778
# Shear Modulus (GPa) = 84.55778 32.16140 58.35959
#
# Velocity S-wave (km/s) = 6.33656 3.90791 5.26421
# Velocity P-wave (km/s) = 7.95244 5.49801 6.83628
#
# Compressibility (1/GPa) = 0.04892642
#
# Stress axis : x y z
#
# Youngs Moduli (GPa) = -2898.84191 -2898.84191 57.67380
#
# Poissons Ratio (x) = 59.49200 0.12642
# Poissons Ratio (y) = 59.49200 0.12642
# Poissons Ratio (z) = -6.35419 -6.35419
#
# Static dielectric constant tensor:
#      x y z
#    x 1.747540 0.000000 0.000000 
#    y 0.000000 1.747540 0.000000 
#    z 0.000000 0.000000 1.750050 
# 
# From -- ./inp_files/7150.got.cif
#   From: 2010.05.17/outbox.cif.g08.bks.cpg/sg128_4_cif.got.tgz:7150.got - 2010.05.20 12:07:25.
