data_PCOD9565170
_publ_section_title
;
Structure prediction by ZEFSAII (Michael W. Deem and Ramdas Pophale) SiO2 
 PCOD9565170
Probable space group: P 4/N M M
;
_chemical_formula_sum "Si O2"
_cell_formula_units_Z 64
_cell_length_a 22.931822
_cell_length_b 22.931822
_cell_length_c 7.694052
_cell_angle_alpha 90.000000
_cell_angle_beta 90.000000
_cell_angle_gamma 90.000000
_cell_volume 4046.059278
_symmetry_space_group_name_H-M "P 4/N M M"
_symmetry_group_IT_number 129
_symmetry_cell_setting 'tetragonal'
loop_
_space_group_symop_operation_xyz
x,y,z
1/2-y,x,z
1/2-x,1/2-y,z
y,1/2-x,z
1/2+x,-y,-z
-x,1/2+y,-z
1/2+y,1/2+x,-z
-y,-x,-z
-x,-y,-z
1/2+y,-x,-z
1/2+x,1/2+y,-z
-y,1/2+x,-z
1/2-x,y,z
x,1/2-y,z
1/2-y,1/2-x,z
y,x,z
loop_
_atom_site_type_symbol
_atom_site_label
_atom_site_fract_x
_atom_site_fract_y
_atom_site_fract_z
Si Si1 0.087067 0.315999 0.506874
Si Si2 0.036412 0.941366 0.704245
Si Si3 0.184530 0.998249 0.192266
Si Si4 0.128187 0.031991 0.841756
O O1 0.104111 0.250000 0.546693
O O2 0.141758 0.358242 0.496552
O O3 0.051832 0.316997 0.327195
O O4 0.045893 0.340072 0.660610
O O5 0.049997 0.950004 0.500000
O O6 0.037306 0.873659 0.754959
O O7 0.083691 0.978644 0.810411
O O8 0.973383 0.973383 0.734592
O O9 0.250000 0.972094 0.206117
O O10 0.172241 0.018887 0.996525
O O11 0.087871 0.087871 0.884531
#
# Coordination Sequence:
#
# PCOD9565170 Si02
#       4
#    16  16  16  16
#     4  10  20  33  48  69 100 136 174 213 250 294
#     4  10  18  32  54  77 102 132 168 212 264 313
#     4  11  21  32  48  73 105 134 165 201 253 313
#     4  10  19  32  53  74  98 131 169 214 262 303
#
# _framework density 15.817862
#
# number of rings (size 3 to 8) (size 9 to 14) (size 15 to 20)
#    0.000    1.750    2.500    3.750    0.000    2.250 
#    0.000    0.000    0.000    0.000    0.000    3.500 
#    0.000   27.500    0.000    0.000    0.000    0.000 
#
# Total GULP energy -356935.395742 kJ/mol
# GULP energy per Si atom -5577.115558 kJ/mol
# Density = 1.578186 g / cm^3
# Si number density = 15.817862 Si / 1000 Ang^3
#
#
#
# Elastic Constant Matrix: (Units=GPa)
#
#
# Indices 1 2 3 4 5 6 
#
# 1 80.2900 19.3298 32.0620 0.0000 0.0000 0.0000
# 2 19.3298 80.2893 32.0622 0.0000 0.0000 0.0000
# 3 32.0620 32.0622 69.7146 0.0000 0.0000 0.0000
# 4 0.0000 0.0000 0.0000 19.6467 0.0000 0.0000
# 5 0.0000 0.0000 0.0000 0.0000 19.6468 0.0000
# 6 0.0000 0.0000 0.0000 0.0000 0.0000 12.2269
#
#
#
# Elastic Compliance Matrix: (Units=1/GPa)
#
#
# Indices 1 2 3 4 5 6 
#
# 1 0.015332 -0.001072 -0.006558 0.000000 0.000000 0.000000
# 2 -0.001072 0.015332 -0.006558 0.000000 0.000000 0.000000
# 3 -0.006558 -0.006558 0.020376 0.000000 0.000000 0.000000
# 4 0.000000 0.000000 0.000000 0.050899 0.000000 0.000000
# 5 0.000000 0.000000 0.000000 0.000000 0.050899 0.000000
# 6 0.000000 0.000000 0.000000 0.000000 0.000000 0.081787
#
#
# Mechanical properties :
#
#
# Convention : Reuss Voigt Hill
#
# Bulk Modulus (GPa) = 44.12421 44.13355 44.12888
# Shear Modulus (GPa) = 18.48044 20.09341 19.28692
#
# Velocity S-wave (km/s) = 3.42179 3.56799 3.49565
# Velocity P-wave (km/s) = 6.60055 6.70341 6.65218
#
# Compressibility (1/GPa) = 0.02266329
#
# Stress axis : x y z
#
# Youngs Moduli (GPa) = 65.22393 65.22298 49.07646
#
# Poissons Ratio (x) = 0.06994 0.32184
# Poissons Ratio (y) = 0.06994 0.32185
# Poissons Ratio (z) = 0.42774 0.42774
#
# Static dielectric constant tensor:
#      x y z
#    x 1.523840 0.000000 0.000000 
#    y 0.000000 1.523840 0.000000 
#    z 0.000000 0.000000 1.549560 
# 
# From -- ./inp_files/2046.got.cif
#   From: 2010.05.17/outbox.cif.g08.bks.cpg/sg129_2_cif.got.tgz:2046.got - 2010.05.20 12:12:06.
