data_PCOD9565319
_publ_section_title
;
Structure prediction by ZEFSAII (Michael W. Deem and Ramdas Pophale) SiO2 
 PCOD9565319
Probable space group: P 4/N M M
;
_chemical_formula_sum "Si O2"
_cell_formula_units_Z 96
_cell_length_a 21.298014
_cell_length_b 21.298014
_cell_length_c 12.478518
_cell_angle_alpha 90.000000
_cell_angle_beta 90.000000
_cell_angle_gamma 90.000000
_cell_volume 5660.323153
_symmetry_space_group_name_H-M "P 4/N M M"
_symmetry_group_IT_number 129
_symmetry_cell_setting 'tetragonal'
loop_
_space_group_symop_operation_xyz
x,y,z
1/2-y,x,z
1/2-x,1/2-y,z
y,1/2-x,z
1/2+x,-y,-z
-x,1/2+y,-z
1/2+y,1/2+x,-z
-y,-x,-z
-x,-y,-z
1/2+y,-x,-z
1/2+x,1/2+y,-z
-y,1/2+x,-z
1/2-x,y,z
x,1/2-y,z
1/2-y,1/2-x,z
y,x,z
loop_
_atom_site_type_symbol
_atom_site_label
_atom_site_fract_x
_atom_site_fract_y
_atom_site_fract_z
Si Si1 0.176041 0.926840 0.479733
Si Si2 0.009373 0.389244 0.659834
Si Si3 0.603321 0.497189 0.961847
Si Si4 0.119218 0.935137 0.252740
Si Si5 0.070357 0.324043 0.862312
Si Si6 0.177973 0.825173 0.874487
O O1 0.137456 0.862545 0.500000
O O2 0.250000 0.918574 0.491271
O O3 0.157794 0.948274 0.359995
O O4 0.149017 0.976350 0.565319
O O5 0.062470 0.437531 0.620785
O O6 0.040249 0.344458 0.748874
O O7 0.954029 0.429354 0.716885
O O8 0.552682 0.552682 0.954785
O O9 0.629830 0.482543 0.844758
O O10 0.563550 0.436451 0.000000
O O11 0.654356 0.520028 0.047528
O O12 0.140135 0.868031 0.205353
O O13 0.082528 0.250000 0.867357
O O14 0.132615 0.367386 0.876512
O O15 0.250000 0.843580 0.856075
O O16 0.172744 0.750000 0.859095
O O17 0.163342 0.836659 0.000000
#
# Coordination Sequence:
#
# PCOD9565319 Si02
#       6
#    16  16  16  16  16  16
#     4  10  23  38  54  77 107 143 185 225 269 326
#     4  10  21  38  57  77 103 137 182 228 275 322
#     4  10  19  34  53  79 112 140 173 213 262 325
#     4  11  20  32  52  79 106 137 174 223 272 319
#     4  10  21  36  57  82 109 143 180 225 277 326
#     4   9  19  33  46  67 104 147 188 222 257 310
#
# _framework density 16.960162
#
# number of rings (size 3 to 8) (size 9 to 14) (size 15 to 20)
#    0.000    2.000    1.667    2.500    0.000    8.667 
#    0.000    0.000    0.000    0.000    0.000    0.000 
#    0.000    0.000    0.000    8.667    0.000    0.000 
#
# Total GULP energy -535978.433403 kJ/mol
# GULP energy per Si atom -5583.108681 kJ/mol
# Density = 1.692156 g / cm^3
# Si number density = 16.960162 Si / 1000 Ang^3
#
#
#
# Elastic Constant Matrix: (Units=GPa)
#
#
# Indices 1 2 3 4 5 6 
#
# 1 95.3261 60.4148 52.2850 0.0000 0.0000 0.0000
# 2 60.4148 95.3258 52.2855 0.0000 0.0000 0.0000
# 3 52.2850 52.2855 111.7764 0.0000 0.0000 0.0000
# 4 0.0000 0.0000 0.0000 13.7702 0.0000 0.0000
# 5 0.0000 0.0000 0.0000 0.0000 13.7708 0.0000
# 6 0.0000 0.0000 0.0000 0.0000 0.0000 17.0724
#
#
#
# Elastic Compliance Matrix: (Units=1/GPa)
#
#
# Indices 1 2 3 4 5 6 
#
# 1 0.019002 -0.009642 -0.004379 0.000000 0.000000 0.000000
# 2 -0.009642 0.019003 -0.004379 0.000000 0.000000 0.000000
# 3 -0.004379 -0.004379 0.013043 0.000000 0.000000 0.000000
# 4 0.000000 0.000000 0.000000 0.072620 0.000000 0.000000
# 5 0.000000 0.000000 0.000000 0.000000 0.072617 0.000000
# 6 0.000000 0.000000 0.000000 0.000000 0.000000 0.058574
#
#
# Mechanical properties :
#
#
# Convention : Reuss Voigt Hill
#
# Bulk Modulus (GPa) = 70.17613 70.26655 70.22134
# Shear Modulus (GPa) = 16.86863 18.08555 17.47709
#
# Velocity S-wave (km/s) = 3.15715 3.26905 3.21359
# Velocity P-wave (km/s) = 7.39980 7.46788 7.43392
#
# Compressibility (1/GPa) = 0.01424986
#
# Stress axis : x y z
#
# Youngs Moduli (GPa) = 52.62478 52.62418 76.66998
#
# Poissons Ratio (x) = 0.50738 0.33571
# Poissons Ratio (y) = 0.50738 0.33573
# Poissons Ratio (z) = 0.23043 0.23044
#
# Static dielectric constant tensor:
#      x y z
#    x 1.563570 0.000000 0.000000 
#    y 0.000000 1.563570 0.000000 
#    z 0.000000 0.000000 1.585430 
# 
# From -- ./inp_files/3823.got.cif
#   From: 2010.05.17/outbox.cif.g08.bks.cpg/sg129_2_cif.got.tgz:3823.got - 2010.05.20 12:12:06.
