data_PCOD9565054
_publ_section_title
;
Structure prediction by ZEFSAII (Michael W. Deem and Ramdas Pophale) SiO2 
 PCOD9565054
Probable space group: P 4/M N C
;
_chemical_formula_sum "Si O2"
_cell_formula_units_Z 42
_cell_length_a 8.493747
_cell_length_b 8.493747
_cell_length_c 25.694140
_cell_angle_alpha 90.000000
_cell_angle_beta 90.000000
_cell_angle_gamma 90.000000
_cell_volume 1853.671307
_symmetry_space_group_name_H-M "P 4/M N C"
_symmetry_group_IT_number 128
_symmetry_cell_setting 'tetragonal'
loop_
_space_group_symop_operation_xyz
x,y,z
-y,x,z
-x,-y,z
y,-x,z
1/2+x,1/2-y,1/2-z
1/2-x,1/2+y,1/2-z
1/2+y,1/2+x,1/2-z
1/2-y,1/2-x,1/2-z
-x,-y,-z
y,-x,-z
x,y,-z
-y,x,-z
1/2-x,1/2+y,1/2+z
1/2+x,1/2-y,1/2+z
1/2-y,1/2-x,1/2+z
1/2+y,1/2+x,1/2+z
loop_
_atom_site_type_symbol
_atom_site_label
_atom_site_fract_x
_atom_site_fract_y
_atom_site_fract_z
Si Si1 0.852179 0.616359 0.000000
Si Si2 0.763183 0.108492 0.111907
Si Si3 0.750623 0.583421 0.796041
Si Si4 0.000000 0.000000 0.500000
O O1 0.864018 0.718861 0.947815
O O2 0.693068 0.515491 0.000000
O O3 0.000000 0.500000 0.000000
O O4 0.625712 0.170860 0.149016
O O5 0.925636 0.200819 0.122811
O O6 0.594168 0.691324 0.791988
O O7 0.866054 0.633947 0.750000
#
# Coordination Sequence:
#
# PCOD9565054 Si02
#       4
#     8  16  16   2
#     4  12  28  47  74 109 150 195 245 310 380 442
#     4  11  25  45  71 104 145 190 244 304 370 447
#     4  11  26  45  70 103 142 188 244 305 371 444
#     4  12  28  44  76 104 148 188 260 300 364 474
#
# _framework density 22.657737000000001
#
# number of rings (size 3 to 8) (size 9 to 14) (size 15 to 20)
#    0.000    0.762    0.000    5.714   10.667    8.381 
#    0.000    0.000    0.000    0.000    0.000    0.000 
#    0.000    0.000    0.000    0.000    0.000    0.000 
#
# Total GULP energy -235050.854881 kJ/mol
# GULP energy per Si atom -5596.448926 kJ/mol
# Density = 2.260617 g / cm^3
# Si number density = 22.657737 Si / 1000 Ang^3
#
#
#
# Elastic Constant Matrix: (Units=GPa)
#
#
# Indices 1 2 3 4 5 6 
#
# 1 93.4798 40.9508 -1.4503 0.0000 0.0000 0.0000
# 2 40.9508 93.4819 -1.4493 0.0000 0.0000 0.0000
# 3 -1.4503 -1.4493 81.8860 0.0000 0.0000 0.0000
# 4 0.0000 0.0000 0.0000 24.0431 0.0000 0.0000
# 5 0.0000 0.0000 0.0000 0.0000 24.0430 0.0000
# 6 0.0000 0.0000 0.0000 0.0000 0.0000 39.1015
#
#
#
# Elastic Compliance Matrix: (Units=1/GPa)
#
#
# Indices 1 2 3 4 5 6 
#
# 1 0.013239 -0.005798 0.000132 0.000000 0.000000 0.000000
# 2 -0.005798 0.013239 0.000132 0.000000 0.000000 0.000000
# 3 0.000132 0.000132 0.012217 0.000000 0.000000 0.000000
# 4 0.000000 0.000000 0.000000 0.041592 0.000000 0.000000
# 5 0.000000 0.000000 0.000000 0.000000 0.041592 0.000000
# 6 0.000000 0.000000 0.000000 0.000000 0.000000 0.025574
#
#
# Mechanical properties :
#
#
# Convention : Reuss Voigt Hill
#
# Bulk Modulus (GPa) = 36.19660 38.32781 37.26220
# Shear Modulus (GPa) = 29.80965 32.82393 31.31679
#
# Velocity S-wave (km/s) = 3.63112 3.81029 3.72178
# Velocity P-wave (km/s) = 5.79570 6.02582 5.91188
#
# Compressibility (1/GPa) = 0.02762690
#
# Stress axis : x y z
#
# Youngs Moduli (GPa) = 75.53268 75.53442 81.85474
#
# Poissons Ratio (x) = 0.43792 -0.01079
# Poissons Ratio (y) = 0.43791 -0.01078
# Poissons Ratio (z) = -0.00996 -0.00994
#
# Static dielectric constant tensor:
#      x y z
#    x 1.817210 0.000000 0.000000 
#    y 0.000000 1.817210 0.000000 
#    z 0.000000 0.000000 1.792430 
# 
# From -- ./inp_files/6123.got.cif
#   From: 2010.05.17/outbox.cif.g08.bks.cpg/sg128_4_cif.got.tgz:6123.got - 2010.05.20 12:07:25.
