data_PCOD9565271
_publ_section_title
;
Structure prediction by ZEFSAII (Michael W. Deem and Ramdas Pophale) SiO2 
 PCOD9565271
Probable space group: P 4/N M M
;
_chemical_formula_sum "Si O2"
_cell_formula_units_Z 72
_cell_length_a 13.716830
_cell_length_b 13.716830
_cell_length_c 24.241279
_cell_angle_alpha 90.000000
_cell_angle_beta 90.000000
_cell_angle_gamma 90.000000
_cell_volume 4561.031194
_symmetry_space_group_name_H-M "P 4/N M M"
_symmetry_group_IT_number 129
_symmetry_cell_setting 'tetragonal'
loop_
_space_group_symop_operation_xyz
x,y,z
1/2-y,x,z
1/2-x,1/2-y,z
y,1/2-x,z
1/2+x,-y,-z
-x,1/2+y,-z
1/2+y,1/2+x,-z
-y,-x,-z
-x,-y,-z
1/2+y,-x,-z
1/2+x,1/2+y,-z
-y,1/2+x,-z
1/2-x,y,z
x,1/2-y,z
1/2-y,1/2-x,z
y,x,z
loop_
_atom_site_type_symbol
_atom_site_label
_atom_site_fract_x
_atom_site_fract_y
_atom_site_fract_z
Si Si1 0.868642 0.137924 0.939315
Si Si2 0.635170 0.024170 0.829468
Si Si3 0.364859 0.864502 0.716030
Si Si4 0.364856 0.364856 0.563507
Si Si5 0.501461 0.998540 0.359766
Si Si6 0.635200 0.635200 0.566946
O O1 0.750000 0.140130 0.940838
O O2 0.901161 0.250000 0.931942
O O3 0.895913 0.073436 0.887073
O O4 0.898809 0.101192 0.000000
O O5 0.750000 0.000210 0.832932
O O6 0.623130 0.099568 0.779103
O O7 0.570094 0.929907 0.818511
O O8 0.250000 0.885448 0.711065
O O9 0.380043 0.750000 0.701848
O O10 0.429414 0.934001 0.677909
O O11 0.250000 0.383073 0.574063
O O12 0.432148 0.432148 0.600693
O O13 0.381895 0.381895 0.498278
O O14 0.432311 0.067689 0.396199
O O15 0.750000 0.617015 0.577629
#
# Coordination Sequence:
#
# PCOD9565271 Si02
#       6
#    16  16  16   8   8   8
#     4   8  14  26  46  70  93 119 156 202 245 286
#     4  10  19  32  47  67  95 129 163 200 246 295
#     4  10  21  35  50  71 100 131 163 203 249 294
#     4   9  19  35  53  75 103 134 166 200 241 288
#     4  12  19  32  54  80  99 128 166 208 242 286
#     4   9  19  35  53  75 105 136 164 196 237 288
#
# _framework density 15.785902999999999
#
# number of rings (size 3 to 8) (size 9 to 14) (size 15 to 20)
#    0.000    2.444    1.111    3.667    0.000    3.333 
#    0.000    0.000    0.000    0.000    0.000    9.333 
#    0.000    0.000    0.000    0.000    0.000    0.000 
#
# Total GULP energy -401346.446371 kJ/mol
# GULP energy per Si atom -5574.256200 kJ/mol
# Density = 1.574997 g / cm^3
# Si number density = 15.785903 Si / 1000 Ang^3
#
#
#
# Elastic Constant Matrix: (Units=GPa)
#
#
# Indices 1 2 3 4 5 6 
#
# 1 91.9667 74.6084 72.9196 0.0000 0.0000 0.0000
# 2 74.6084 91.9669 72.9196 0.0000 0.0000 0.0000
# 3 72.9196 72.9196 112.1140 0.0000 0.0000 0.0000
# 4 0.0000 0.0000 0.0000 25.8772 0.0000 0.0000
# 5 0.0000 0.0000 0.0000 0.0000 25.8770 0.0000
# 6 0.0000 0.0000 0.0000 0.0000 0.0000 28.8796
#
#
#
# Elastic Compliance Matrix: (Units=1/GPa)
#
#
# Indices 1 2 3 4 5 6 
#
# 1 0.035776 -0.021833 -0.009069 0.000000 0.000000 0.000000
# 2 -0.021833 0.035776 -0.009069 0.000000 0.000000 0.000000
# 3 -0.009069 -0.009069 0.020716 0.000000 0.000000 0.000000
# 4 0.000000 0.000000 0.000000 0.038644 0.000000 0.000000
# 5 0.000000 0.000000 0.000000 0.000000 0.038644 0.000000
# 6 0.000000 0.000000 0.000000 0.000000 0.000000 0.034626
#
#
# Mechanical properties :
#
#
# Convention : Reuss Voigt Hill
#
# Bulk Modulus (GPa) = 81.11871 81.88253 81.50062
# Shear Modulus (GPa) = 17.34713 21.16678 19.25695
#
# Velocity S-wave (km/s) = 3.31856 3.66576 3.49647
# Velocity P-wave (km/s) = 8.13524 8.36064 8.24871
#
# Compressibility (1/GPa) = 0.01232761
#
# Stress axis : x y z
#
# Youngs Moduli (GPa) = 27.95169 27.95182 48.27182
#
# Poissons Ratio (x) = 0.61027 0.43776
# Poissons Ratio (y) = 0.61027 0.43775
# Poissons Ratio (z) = 0.25348 0.25348
#
# Static dielectric constant tensor:
#      x y z
#    x 1.502370 0.000000 0.000000 
#    y 0.000000 1.502370 0.000000 
#    z 0.000000 0.000000 1.527790 
# 
# From -- ./inp_files/7440.got.cif
#   From: 2010.05.17/outbox.cif.g08.bks.cpg/sg129_4_cif.got.tgz:7440.got - 2010.05.20 12:12:06.
