data_PCOD9565239
_publ_section_title
;
Structure prediction by ZEFSAII (Michael W. Deem and Ramdas Pophale) SiO2 
 PCOD9565239
Probable space group: P 4/N M M
;
_chemical_formula_sum "Si O2"
_cell_formula_units_Z 80
_cell_length_a 27.016988
_cell_length_b 27.016988
_cell_length_c 7.182792
_cell_angle_alpha 90.000000
_cell_angle_beta 90.000000
_cell_angle_gamma 90.000000
_cell_volume 5242.846590
_symmetry_space_group_name_H-M "P 4/N M M"
_symmetry_group_IT_number 129
_symmetry_cell_setting 'tetragonal'
loop_
_space_group_symop_operation_xyz
x,y,z
1/2-y,x,z
1/2-x,1/2-y,z
y,1/2-x,z
1/2+x,-y,-z
-x,1/2+y,-z
1/2+y,1/2+x,-z
-y,-x,-z
-x,-y,-z
1/2+y,-x,-z
1/2+x,1/2+y,-z
-y,1/2+x,-z
1/2-x,y,z
x,1/2-y,z
1/2-y,1/2-x,z
y,x,z
loop_
_atom_site_type_symbol
_atom_site_label
_atom_site_fract_x
_atom_site_fract_y
_atom_site_fract_z
Si Si1 0.250000 0.092685 0.243135
Si Si2 0.167340 0.250000 0.499959
Si Si3 0.941571 0.860757 0.718473
Si Si4 0.860758 0.941575 0.281606
Si Si5 0.918235 0.497196 0.000049
Si Si6 0.668160 0.750000 0.000041
Si Si7 0.750000 0.592686 0.243217
O O1 0.250000 0.154841 0.251301
O O2 0.196903 0.066072 0.242466
O O3 0.250000 0.106960 0.999959
O O4 0.200287 0.200287 0.499958
O O5 0.105243 0.250000 0.499960
O O6 0.891970 0.891970 0.773400
O O7 0.947700 0.867540 0.500040
O O8 0.987498 0.884825 0.825049
O O9 0.891979 0.891979 0.226668
O O10 0.803098 0.933925 0.242547
O O11 0.884818 0.987510 0.175043
O O12 0.963198 0.536803 0.000090
O O13 0.943752 0.443752 0.000000
O O14 0.700927 0.700927 0.000040
O O15 0.654842 0.750000 0.251382
#
# Coordination Sequence:
#
# PCOD9565239 Si02
#       7
#     8   8  16  16  16   8   8
#     4  12  20  31  44  60  88 116 151 194 228 275
#     4  11  20  28  40  56  82 122 158 190 224 255
#     4  10  19  31  47  66  88 116 149 187 232 275
#     4  10  19  31  47  66  88 116 149 187 232 275
#     4   9  19  34  49  65  83 105 142 193 244 289
#     4  11  22  30  38  54  78 116 162 200 232 261
#     4  12  20  31  44  60  88 116 151 194 228 275
#
# _framework density 15.258886
#
# number of rings (size 3 to 8) (size 9 to 14) (size 15 to 20)
#    0.000    1.600    2.000    4.800    0.000    4.000 
#    0.000    4.000    0.000    0.000    0.000    0.000 
#    0.000    0.000    0.000    0.000    0.000    8.000 
#
# Total GULP energy -445802.484007 kJ/mol
# GULP energy per Si atom -5572.531050 kJ/mol
# Density = 1.522416 g / cm^3
# Si number density = 15.258886 Si / 1000 Ang^3
#
#
#
# Elastic Constant Matrix: (Units=GPa)
#
#
# Indices 1 2 3 4 5 6 
#
# 1 91.9894 72.9646 46.7846 0.0000 0.0000 0.0000
# 2 72.9646 91.9894 46.7846 0.0000 0.0000 0.0000
# 3 46.7846 46.7846 126.7889 0.0000 0.0000 0.0000
# 4 0.0000 0.0000 0.0000 15.4372 0.0000 0.0000
# 5 0.0000 0.0000 0.0000 0.0000 15.4372 0.0000
# 6 0.0000 0.0000 0.0000 0.0000 0.0000 22.0765
#
#
#
# Elastic Compliance Matrix: (Units=1/GPa)
#
#
# Indices 1 2 3 4 5 6 
#
# 1 0.030115 -0.022448 -0.002829 0.000000 0.000000 0.000000
# 2 -0.022448 0.030115 -0.002829 0.000000 0.000000 0.000000
# 3 -0.002829 -0.002829 0.009975 0.000000 0.000000 0.000000
# 4 0.000000 0.000000 0.000000 0.064779 0.000000 0.000000
# 5 0.000000 0.000000 0.000000 0.000000 0.064779 0.000000
# 6 0.000000 0.000000 0.000000 0.000000 0.000000 0.045297
#
#
# Mechanical properties :
#
#
# Convention : Reuss Voigt Hill
#
# Bulk Modulus (GPa) = 71.46592 71.53727 71.50160
# Shear Modulus (GPa) = 16.34330 20.20578 18.27454
#
# Velocity S-wave (km/s) = 3.27627 3.64290 3.46444
# Velocity P-wave (km/s) = 7.82619 8.04229 7.93497
#
# Compressibility (1/GPa) = 0.01399268
#
# Stress axis : x y z
#
# Youngs Moduli (GPa) = 33.20608 33.20608 100.25064
#
# Poissons Ratio (x) = 0.74541 0.28362
# Poissons Ratio (y) = 0.74541 0.28362
# Poissons Ratio (z) = 0.09394 0.09394
#
# Static dielectric constant tensor:
#      x y z
#    x 1.456730 0.000000 0.000000 
#    y 0.000000 1.456730 0.000000 
#    z 0.000000 0.000000 2.393790 
# 
# From -- ./inp_files/2556.got.cif
#   From: 2010.05.17/outbox.cif.g08.bks.cpg/sg129_2_cif.got.tgz:2556.got - 2010.05.20 12:12:06.
