data_PCOD9565341
_publ_section_title
;
Structure prediction by ZEFSAII (Michael W. Deem and Ramdas Pophale) SiO2 
 PCOD9565341
Probable space group: P 4/N M M
;
_chemical_formula_sum "Si O2"
_cell_formula_units_Z 80
_cell_length_a 13.573409
_cell_length_b 13.573409
_cell_length_c 26.505954
_cell_angle_alpha 90.000000
_cell_angle_beta 90.000000
_cell_angle_gamma 90.000000
_cell_volume 4883.388895
_symmetry_space_group_name_H-M "P 4/N M M"
_symmetry_group_IT_number 129
_symmetry_cell_setting 'tetragonal'
loop_
_space_group_symop_operation_xyz
x,y,z
1/2-y,x,z
1/2-x,1/2-y,z
y,1/2-x,z
1/2+x,-y,-z
-x,1/2+y,-z
1/2+y,1/2+x,-z
-y,-x,-z
-x,-y,-z
1/2+y,-x,-z
1/2+x,1/2+y,-z
-y,1/2+x,-z
1/2-x,y,z
x,1/2-y,z
1/2-y,1/2-x,z
y,x,z
loop_
_atom_site_type_symbol
_atom_site_label
_atom_site_fract_x
_atom_site_fract_y
_atom_site_fract_z
Si Si1 0.026937 0.868005 0.360190
Si Si2 0.526154 0.133032 0.955618
Si Si3 0.030794 0.866913 0.547466
Si Si4 0.363954 0.630360 0.145969
Si Si5 0.630482 0.363737 0.257927
O O1 0.019131 0.750000 0.363646
O O2 0.100665 0.909897 0.402516
O O3 0.069600 0.896438 0.305258
O O4 0.923404 0.923404 0.368032
O O5 0.514110 0.250000 0.955883
O O6 0.571592 0.101048 0.901760
O O7 0.424662 0.075339 0.963656
O O8 0.599355 0.099355 0.000000
O O9 0.093809 0.906192 0.500000
O O10 0.016642 0.750000 0.545170
O O11 0.928746 0.928746 0.547164
O O12 0.250000 0.600024 0.139311
O O13 0.364428 0.750000 0.146216
O O14 0.396836 0.598095 0.201970
O O15 0.750000 0.362521 0.257160
O O16 0.598887 0.250000 0.265167
#
# Coordination Sequence:
#
# PCOD9565341 Si02
#       5
#    16  16  16  16  16
#     4  10  20  32  47  69  97 130 168 207 246 290
#     4  10  20  32  47  68  93 122 157 196 238 285
#     4  10  21  36  54  77 102 128 161 199 240 288
#     4   8  14  26  45  67  89 115 150 192 235 278
#     4   8  14  26  45  67  89 116 153 196 239 279
#
# _framework density 16.382065000000001
#
# number of rings (size 3 to 8) (size 9 to 14) (size 15 to 20)
#    0.000    2.800    0.000    3.000    0.000    4.600 
#    0.000    0.000    0.000    3.600    0.000    5.600 
#    0.000    0.000    0.000   37.200    0.000    2.000 
#
# Total GULP energy -445597.597661 kJ/mol
# GULP energy per Si atom -5569.969971 kJ/mol
# Density = 1.634478 g / cm^3
# Si number density = 16.382065 Si / 1000 Ang^3
#
#
#
# Elastic Constant Matrix: (Units=GPa)
#
#
# Indices 1 2 3 4 5 6 
#
# 1 74.9660 59.2056 43.9196 0.0000 0.0000 0.0000
# 2 59.2056 74.9617 43.9227 0.0000 0.0000 0.0000
# 3 43.9196 43.9227 116.6580 0.0000 0.0000 0.0000
# 4 0.0000 0.0000 0.0000 18.1184 0.0000 0.0000
# 5 0.0000 0.0000 0.0000 0.0000 18.1184 0.0000
# 6 0.0000 0.0000 0.0000 0.0000 0.0000 5.9900
#
#
#
# Elastic Compliance Matrix: (Units=1/GPa)
#
#
# Indices 1 2 3 4 5 6 
#
# 1 0.036673 -0.026784 -0.003722 0.000000 0.000000 0.000000
# 2 -0.026784 0.036677 -0.003726 0.000000 0.000000 0.000000
# 3 -0.003722 -0.003726 0.011376 0.000000 0.000000 0.000000
# 4 0.000000 0.000000 0.000000 0.055193 0.000000 0.000000
# 5 0.000000 0.000000 0.000000 0.000000 0.055192 0.000000
# 6 0.000000 0.000000 0.000000 0.000000 0.000000 0.166945
#
#
# Mechanical properties :
#
#
# Convention : Reuss Voigt Hill
#
# Bulk Modulus (GPa) = 61.48982 62.29791 61.89386
# Shear Modulus (GPa) = 11.46944 16.41455 13.94199
#
# Velocity S-wave (km/s) = 2.64885 3.16885 2.92044
# Velocity P-wave (km/s) = 6.85358 7.17631 7.01680
#
# Compressibility (1/GPa) = 0.01626286
#
# Stress axis : x y z
#
# Youngs Moduli (GPa) = 27.26805 27.26493 87.90231
#
# Poissons Ratio (x) = 0.73025 0.32721
# Poissons Ratio (y) = 0.73034 0.32750
# Poissons Ratio (z) = 0.10150 0.10158
#
# Static dielectric constant tensor:
#      x y z
#    x 1.527120 0.000000 0.000000 
#    y 0.000000 1.527120 0.000000 
#    z 0.000000 0.000000 1.577290 
# 
# From -- ./inp_files/7697.got.cif
#   From: 2010.05.17/outbox.cif.g08.bks.cpg/sg129_4_cif.got.tgz:7697.got - 2010.05.20 12:12:06.
