data_PCOD9565725
_publ_section_title
;
Structure prediction by ZEFSAII (Michael W. Deem and Ramdas Pophale) SiO2 
 PCOD9565725
Probable space group: P 4/N C C
;
_chemical_formula_sum "Si O2"
_cell_formula_units_Z 52
_cell_length_a 15.074840
_cell_length_b 15.074840
_cell_length_c 10.658190
_cell_angle_alpha 90.000000
_cell_angle_beta 90.000000
_cell_angle_gamma 90.000000
_cell_volume 2422.082215
_symmetry_space_group_name_H-M "P 4/N C C"
_symmetry_group_IT_number 130
_symmetry_cell_setting 'tetragonal'
loop_
_space_group_symop_operation_xyz
x,y,z
1/2-y,x,z
1/2-x,1/2-y,z
y,1/2-x,z
1/2+x,-y,1/2-z
-x,1/2+y,1/2-z
1/2+y,1/2+x,1/2-z
-y,-x,1/2-z
-x,-y,-z
1/2+y,-x,-z
1/2+x,1/2+y,-z
-y,1/2+x,-z
1/2-x,y,1/2+z
x,1/2-y,1/2+z
1/2-y,1/2-x,1/2+z
y,x,1/2+z
loop_
_atom_site_type_symbol
_atom_site_label
_atom_site_fract_x
_atom_site_fract_y
_atom_site_fract_z
Si Si1 0.554219 0.591639 0.013058
Si Si2 0.633263 0.519216 0.249421
Si Si3 0.750000 0.250000 0.500000
Si Si4 0.915900 0.296067 0.334321
O O1 0.626955 0.572600 0.119159
O O2 0.485694 0.662170 0.070027
O O3 0.500000 0.500000 0.000000
O O4 0.578961 0.620020 0.872617
O O5 0.553323 0.446678 0.250000
O O6 0.723866 0.464386 0.251069
O O7 0.836382 0.251111 0.412205
O O8 0.873054 0.373054 0.250000
#
# Coordination Sequence:
#
# PCOD9565725 Si02
#       4
#    16  16   4  16
#     4  10  21  38  58  83 121 167 211 253 313 392
#     4  10  21  37  57  85 120 163 213 258 313 385
#     4  12  22  32  52  90 132 164 202 262 340 404
#     4  12  22  35  58  89 127 165 205 265 330 393
#
# _framework density 21.469128999999999
#
# number of rings (size 3 to 8) (size 9 to 14) (size 15 to 20)
#    0.000    1.231    0.000   10.615    0.000    2.462 
#    0.000    0.000    0.000    0.923    0.000    8.615 
#    0.000    0.000    0.000    0.000    0.000    0.000 
#
# Total GULP energy -290768.133648 kJ/mol
# GULP energy per Si atom -5591.694878 kJ/mol
# Density = 2.142026 g / cm^3
# Si number density = 21.469129 Si / 1000 Ang^3
#
#
#
# Elastic Constant Matrix: (Units=GPa)
#
#
# Indices 1 2 3 4 5 6 
#
# 1 36.6474 26.9519 24.6353 0.0000 0.0000 0.0000
# 2 26.9519 36.6476 24.6353 0.0000 0.0000 0.0000
# 3 24.6353 24.6353 116.7399 0.0000 0.0000 0.0000
# 4 0.0000 0.0000 0.0000 24.2433 0.0000 0.0000
# 5 0.0000 0.0000 0.0000 0.0000 24.2432 0.0000
# 6 0.0000 0.0000 0.0000 0.0000 0.0000 40.0093
#
#
#
# Elastic Compliance Matrix: (Units=1/GPa)
#
#
# Indices 1 2 3 4 5 6 
#
# 1 0.060968 -0.042172 -0.003967 0.000000 0.000000 0.000000
# 2 -0.042172 0.060968 -0.003966 0.000000 0.000000 0.000000
# 3 -0.003967 -0.003966 0.010240 0.000000 0.000000 0.000000
# 4 0.000000 0.000000 0.000000 0.041249 0.000000 0.000000
# 5 0.000000 0.000000 0.000000 0.000000 0.041249 0.000000
# 6 0.000000 0.000000 0.000000 0.000000 0.000000 0.024994
#
#
# Mechanical properties :
#
#
# Convention : Reuss Voigt Hill
#
# Bulk Modulus (GPa) = 31.28265 38.05335 34.66800
# Shear Modulus (GPa) = 14.26399 25.28666 19.77532
#
# Velocity S-wave (km/s) = 2.58038 3.43565 3.03826
# Velocity P-wave (km/s) = 4.84566 5.78804 5.33769
#
# Compressibility (1/GPa) = 0.03196660
#
# Stress axis : x y z
#
# Youngs Moduli (GPa) = 16.40195 16.40209 97.65485
#
# Poissons Ratio (x) = 0.69171 0.38736
# Poissons Ratio (y) = 0.69170 0.38735
# Poissons Ratio (z) = 0.06506 0.06506
#
# Static dielectric constant tensor:
#      x y z
#    x 1.749210 0.000000 0.000000 
#    y 0.000000 1.749210 0.000000 
#    z 0.000000 0.000000 1.825650 
# 
# From -- ./inp_files/539.got.cif
#   From: 2010.05.17/outbox.cif.g08.bks.cpg/sg130_1_cif.got.tgz:539.got - 2010.05.20 12:17:35.
