data_PCOD9565045
_publ_section_title
;
Structure prediction by ZEFSAII (Michael W. Deem and Ramdas Pophale) SiO2 
 PCOD9565045
Probable space group: P 4/M N C
;
_chemical_formula_sum "Si O2"
_cell_formula_units_Z 64
_cell_length_a 13.643271
_cell_length_b 13.643271
_cell_length_c 15.234391
_cell_angle_alpha 90.000000
_cell_angle_beta 90.000000
_cell_angle_gamma 90.000000
_cell_volume 2835.711923
_symmetry_space_group_name_H-M "P 4/M N C"
_symmetry_group_IT_number 128
_symmetry_cell_setting 'tetragonal'
loop_
_space_group_symop_operation_xyz
x,y,z
-y,x,z
-x,-y,z
y,-x,z
1/2+x,1/2-y,1/2-z
1/2-x,1/2+y,1/2-z
1/2+y,1/2+x,1/2-z
1/2-y,1/2-x,1/2-z
-x,-y,-z
y,-x,-z
x,y,-z
-y,x,-z
1/2-x,1/2+y,1/2+z
1/2+x,1/2-y,1/2+z
1/2-y,1/2-x,1/2+z
1/2+y,1/2+x,1/2+z
loop_
_atom_site_type_symbol
_atom_site_label
_atom_site_fract_x
_atom_site_fract_y
_atom_site_fract_z
Si Si1 0.095841 0.119954 0.779421
Si Si2 0.946168 0.400134 0.647877
Si Si3 0.575853 0.289858 0.097506
Si Si4 0.256232 0.695778 0.406361
O O1 0.081883 0.131194 0.675332
O O2 0.172891 0.190390 0.823051
O O3 0.985550 0.132969 0.810668
O O4 0.921265 0.421265 0.750000
O O5 0.842364 0.367922 0.606486
O O6 0.000000 0.500000 0.615013
O O7 0.016922 0.306047 0.632269
O O8 0.690212 0.267843 0.087382
O O9 0.536461 0.316206 0.000000
O O10 0.302667 0.665917 0.500000
#
# Coordination Sequence:
#
# PCOD9565045 Si02
#       4
#    16  16  16  16
#     4  11  25  43  67  96 134 185 238 294 361 440
#     4  11  25  43  72 110 148 197 250 311 378 455
#     4  11  24  43  70 101 140 186 240 307 374 442
#     4  11  25  43  68 100 142 190 242 304 371 445
#
# _framework density 22.569286000000002
#
# number of rings (size 3 to 8) (size 9 to 14) (size 15 to 20)
#    0.000    1.000    0.000    6.000   10.500    6.000 
#    0.000    2.500    0.000    0.000    0.000    0.000 
#    0.000    0.000    0.000    0.000    0.000    0.000 
#
# Total GULP energy -357092.344570 kJ/mol
# GULP energy per Si atom -5579.567884 kJ/mol
# Density = 2.251792 g / cm^3
# Si number density = 22.569286 Si / 1000 Ang^3
#
#
#
# Elastic Constant Matrix: (Units=GPa)
#
#
# Indices 1 2 3 4 5 6 
#
# 1 84.3920 -6.4758 18.4981 0.0000 0.0000 0.0000
# 2 -6.4758 84.3920 18.4981 0.0000 0.0000 0.0000
# 3 18.4981 18.4981 90.5139 0.0000 0.0000 0.0000
# 4 0.0000 0.0000 0.0000 -32.2530 0.0000 0.0000
# 5 0.0000 0.0000 0.0000 0.0000 -32.2530 0.0000
# 6 0.0000 0.0000 0.0000 0.0000 0.0000 54.0761
#
#
#
# Elastic Compliance Matrix: (Units=1/GPa)
#
#
# Indices 1 2 3 4 5 6 
#
# 1 0.012609 0.001604 -0.002905 0.000000 0.000000 0.000000
# 2 0.001604 0.012609 -0.002905 0.000000 0.000000 0.000000
# 3 -0.002905 -0.002905 0.012235 0.000000 0.000000 0.000000
# 4 0.000000 0.000000 0.000000 -0.031005 0.000000 0.000000
# 5 0.000000 0.000000 0.000000 0.000000 -0.031005 0.000000
# 6 0.000000 0.000000 0.000000 0.000000 0.000000 0.018492
#
#
# Mechanical properties :
#
#
# Convention : Reuss Voigt Hill
#
# Bulk Modulus (GPa) = 34.43141 35.59322 35.01232
# Shear Modulus (GPa) = 415.68420 13.16584 214.42502
#
# Velocity S-wave (km/s) = 13.58607 2.41789 9.75775
# Velocity P-wave (km/s) = 16.16778 4.85796 11.93727
#
# Compressibility (1/GPa) = 0.02904325
#
# Stress axis : x y z
#
# Youngs Moduli (GPa) = 79.30670 79.30670 81.73058
#
# Poissons Ratio (x) = -0.12723 0.23741
# Poissons Ratio (y) = -0.12723 0.23741
# Poissons Ratio (z) = 0.23037 0.23037
#
# Static dielectric constant tensor:
#      x y z
#    x 1.841310 0.000000 0.000000 
#    y 0.000000 1.841310 0.000000 
#    z 0.000000 0.000000 1.920790 
# 
# From -- ./inp_files/3537.got.cif
#   From: 2010.05.17/outbox.cif.g08.bks.cpg/sg128_2_cif.got.tgz:3537.got - 2010.05.20 12:07:25.
