data_PCOD9565907
_publ_section_title
;
Structure prediction by ZEFSAII (Michael W. Deem and Ramdas Pophale) SiO2 
 PCOD9565907
Probable space group: P 4/N C C
;
_chemical_formula_sum "Si O2"
_cell_formula_units_Z 96
_cell_length_a 25.798045
_cell_length_b 25.798045
_cell_length_c 9.916291
_cell_angle_alpha 90.000000
_cell_angle_beta 90.000000
_cell_angle_gamma 90.000000
_cell_volume 6599.679644
_symmetry_space_group_name_H-M "P 4/N C C"
_symmetry_group_IT_number 130
_symmetry_cell_setting 'tetragonal'
loop_
_space_group_symop_operation_xyz
x,y,z
1/2-y,x,z
1/2-x,1/2-y,z
y,1/2-x,z
1/2+x,-y,1/2-z
-x,1/2+y,1/2-z
1/2+y,1/2+x,1/2-z
-y,-x,1/2-z
-x,-y,-z
1/2+y,-x,-z
1/2+x,1/2+y,-z
-y,1/2+x,-z
1/2-x,y,1/2+z
x,1/2-y,1/2+z
1/2-y,1/2-x,1/2+z
y,x,1/2+z
loop_
_atom_site_type_symbol
_atom_site_label
_atom_site_fract_x
_atom_site_fract_y
_atom_site_fract_z
Si Si1 0.431833 0.986006 0.364814
Si Si2 0.028259 0.567074 0.615558
Si Si3 0.059826 0.143937 0.947808
Si Si4 0.862418 0.574739 0.732100
Si Si5 0.253882 0.100348 0.397865
Si Si6 0.732134 0.666083 0.848291
O O1 0.445780 0.945780 0.250000
O O2 0.433924 0.954356 0.501280
O O3 0.479921 0.026628 0.373083
O O4 0.383027 0.020065 0.324709
O O5 0.061375 0.561375 0.750000
O O6 0.996835 0.619357 0.581462
O O7 0.100956 0.116752 0.844728
O O8 0.062658 0.205576 0.924661
O O9 0.075258 0.132117 0.104663
O O10 0.803046 0.581458 0.687804
O O11 0.274116 0.121813 0.540620
O O12 0.230495 0.146248 0.304563
O O13 0.788843 0.690732 0.869754
#
# Coordination Sequence:
#
# PCOD9565907 Si02
#       6
#    16  16  16  16  16  16
#     4   9  16  30  50  71  94 113 144 186 235 286
#     4   9  18  30  50  75  94 116 144 190 236 290
#     4  11  23  36  51  70  94 122 159 199 246 293
#     4  11  23  35  52  70  91 125 156 200 247 290
#     4  12  24  35  49  65  93 121 159 204 248 293
#     4  11  22  36  50  63  80 116 165 214 254 283
#
# _framework density 14.546162000000001
#
# number of rings (size 3 to 8) (size 9 to 14) (size 15 to 20)
#    0.000    1.500    3.333    3.000    9.333    1.333 
#    0.000    0.000    0.000    0.000    0.000    0.000 
#    0.000    0.000    0.000    0.000    0.000    5.000 
#
# Total GULP energy -535177.630360 kJ/mol
# GULP energy per Si atom -5574.766983 kJ/mol
# Density = 1.451305 g / cm^3
# Si number density = 14.546162 Si / 1000 Ang^3
#
#
#
# Elastic Constant Matrix: (Units=GPa)
#
#
# Indices 1 2 3 4 5 6 
#
# 1 40.8217 27.2464 11.5693 0.0000 0.0000 0.0000
# 2 27.2464 40.8217 11.5693 0.0000 0.0000 0.0000
# 3 11.5693 11.5693 83.1719 0.0000 0.0000 0.0000
# 4 0.0000 0.0000 0.0000 19.1926 0.0000 0.0000
# 5 0.0000 0.0000 0.0000 0.0000 19.1926 0.0000
# 6 0.0000 0.0000 0.0000 0.0000 0.0000 13.0809
#
#
#
# Elastic Compliance Matrix: (Units=1/GPa)
#
#
# Indices 1 2 3 4 5 6 
#
# 1 0.044542 -0.029122 -0.002145 0.000000 0.000000 0.000000
# 2 -0.029122 0.044542 -0.002145 0.000000 0.000000 0.000000
# 3 -0.002145 -0.002145 0.012620 0.000000 0.000000 0.000000
# 4 0.000000 0.000000 0.000000 0.052104 0.000000 0.000000
# 5 0.000000 0.000000 0.000000 0.000000 0.052104 0.000000
# 6 0.000000 0.000000 0.000000 0.000000 0.000000 0.076447
#
#
# Mechanical properties :
#
#
# Convention : Reuss Voigt Hill
#
# Bulk Modulus (GPa) = 28.66912 29.50948 29.08930
# Shear Modulus (GPa) = 13.85779 17.92190 15.88985
#
# Velocity S-wave (km/s) = 3.08990 3.51389 3.30869
# Velocity P-wave (km/s) = 5.69928 6.06581 5.88540
#
# Compressibility (1/GPa) = 0.03488074
#
# Stress axis : x y z
#
# Youngs Moduli (GPa) = 22.45079 22.45079 79.23917
#
# Poissons Ratio (x) = 0.65380 0.16997
# Poissons Ratio (y) = 0.65380 0.16997
# Poissons Ratio (z) = 0.04816 0.04816
#
# Static dielectric constant tensor:
#      x y z
#    x 1.477300 0.000000 0.000000 
#    y 0.000000 1.477300 0.000000 
#    z 0.000000 0.000000 1.469810 
# 
# From -- ./inp_files/996.got.cif
#   From: 2010.05.17/outbox.cif.g08.bks.cpg/sg130_1_cif.got.tgz:996.got - 2010.05.20 12:17:35.
