data_PCOD9565059
_publ_section_title
;
Structure prediction by ZEFSAII (Michael W. Deem and Ramdas Pophale) SiO2 
 PCOD9565059
Probable space group: P 4/M N C
;
_chemical_formula_sum "Si O2"
_cell_formula_units_Z 44
_cell_length_a 8.757422
_cell_length_b 8.757422
_cell_length_c 27.106425
_cell_angle_alpha 90.000000
_cell_angle_beta 90.000000
_cell_angle_gamma 90.000000
_cell_volume 2078.857875
_symmetry_space_group_name_H-M "P 4/M N C"
_symmetry_group_IT_number 128
_symmetry_cell_setting 'tetragonal'
loop_
_space_group_symop_operation_xyz
x,y,z
-y,x,z
-x,-y,z
y,-x,z
1/2+x,1/2-y,1/2-z
1/2-x,1/2+y,1/2-z
1/2+y,1/2+x,1/2-z
1/2-y,1/2-x,1/2-z
-x,-y,-z
y,-x,-z
x,y,-z
-y,x,-z
1/2-x,1/2+y,1/2+z
1/2+x,1/2-y,1/2+z
1/2-y,1/2-x,1/2+z
1/2+y,1/2+x,1/2+z
loop_
_atom_site_type_symbol
_atom_site_label
_atom_site_fract_x
_atom_site_fract_y
_atom_site_fract_z
Si Si1 0.273294 0.614828 0.000000
Si Si2 0.915118 0.337272 0.901296
Si Si3 0.725248 0.371885 0.297493
Si Si4 0.500000 0.500000 0.589965
O O1 0.301708 0.434582 0.000000
O O2 0.185084 0.654959 0.049642
O O3 0.833670 0.311035 0.848407
O O4 0.000000 0.500000 0.897992
O O5 0.020978 0.187079 0.908230
O O6 0.699687 0.555160 0.297048
O O7 0.816054 0.316054 0.250000
#
# Coordination Sequence:
#
# PCOD9565059 Si02
#       4
#     8  16  16   4
#     4  11  27  47  70 110 155 195 268 329 386 480
#     4  12  25  46  76 109 151 208 258 319 400 461
#     4  11  26  47  71 110 151 199 262 322 386 470
#     4  12  24  49  72 112 164 184 272 321 368 482
#
# _framework density 21.165465999999999
#
# number of rings (size 3 to 8) (size 9 to 14) (size 15 to 20)
#    0.000    0.545    3.636    2.727    5.091    2.182 
#    0.000    3.636    0.000    0.000    0.000    0.000 
#    0.000    0.000    0.000    0.000    0.000    0.000 
#
# Total GULP energy -244996.474653 kJ/mol
# GULP energy per Si atom -5568.101697 kJ/mol
# Density = 2.111729 g / cm^3
# Si number density = 21.165466 Si / 1000 Ang^3
#
#
#
# Elastic Constant Matrix: (Units=GPa)
#
#
# Indices 1 2 3 4 5 6 
#
# 1 183.6294 -6.8641 86.9864 0.0000 0.0000 0.0000
# 2 -6.8641 183.6294 86.9864 0.0000 0.0000 0.0000
# 3 86.9864 86.9864 260.0410 0.0000 0.0000 0.0000
# 4 0.0000 0.0000 0.0000 5.5775 0.0000 0.0000
# 5 0.0000 0.0000 0.0000 0.0000 5.5775 0.0000
# 6 0.0000 0.0000 0.0000 0.0000 0.0000 77.6674
#
#
#
# Elastic Compliance Matrix: (Units=1/GPa)
#
#
# Indices 1 2 3 4 5 6 
#
# 1 0.006842 0.001592 -0.002821 0.000000 0.000000 0.000000
# 2 0.001592 0.006842 -0.002821 0.000000 0.000000 0.000000
# 3 -0.002821 -0.002821 0.005733 0.000000 0.000000 0.000000
# 4 0.000000 0.000000 0.000000 0.179291 0.000000 0.000000
# 5 0.000000 0.000000 0.000000 0.000000 0.179291 0.000000
# 6 0.000000 0.000000 0.000000 0.000000 0.000000 0.012875
#
#
# Mechanical properties :
#
#
# Convention : Reuss Voigt Hill
#
# Bulk Modulus (GPa) = 88.37148 106.83525 97.60337
# Shear Modulus (GPa) = 12.41476 48.44389 30.42933
#
# Velocity S-wave (km/s) = 2.42452 4.78935 3.79580
# Velocity P-wave (km/s) = 7.04848 9.00942 8.08859
#
# Compressibility (1/GPa) = 0.01131587
#
# Stress axis : x y z
#
# Youngs Moduli (GPa) = 146.16264 146.16264 174.42875
#
# Poissons Ratio (x) = -0.23272 0.49210
# Poissons Ratio (y) = -0.23272 0.49210
# Poissons Ratio (z) = 0.41236 0.41236
#
# Static dielectric constant tensor:
#      x y z
#    x 1.767500 0.000000 0.000000 
#    y 0.000000 1.767500 0.000000 
#    z 0.000000 0.000000 1.804800 
# 
# From -- ./inp_files/6985.got.cif
#   From: 2010.05.17/outbox.cif.g08.bks.cpg/sg128_4_cif.got.tgz:6985.got - 2010.05.20 12:07:25.
