data_PCOD9565167
_publ_section_title
;
Structure prediction by ZEFSAII (Michael W. Deem and Ramdas Pophale) SiO2 
 PCOD9565167
Probable space group: P 4/N M M
;
_chemical_formula_sum "Si O2"
_cell_formula_units_Z 58
_cell_length_a 18.283514
_cell_length_b 18.283514
_cell_length_c 8.059941
_cell_angle_alpha 90.000000
_cell_angle_beta 90.000000
_cell_angle_gamma 90.000000
_cell_volume 2694.332564
_symmetry_space_group_name_H-M "P 4/N M M"
_symmetry_group_IT_number 129
_symmetry_cell_setting 'tetragonal'
loop_
_space_group_symop_operation_xyz
x,y,z
1/2-y,x,z
1/2-x,1/2-y,z
y,1/2-x,z
1/2+x,-y,-z
-x,1/2+y,-z
1/2+y,1/2+x,-z
-y,-x,-z
-x,-y,-z
1/2+y,-x,-z
1/2+x,1/2+y,-z
-y,1/2+x,-z
1/2-x,y,z
x,1/2-y,z
1/2-y,1/2-x,z
y,x,z
loop_
_atom_site_type_symbol
_atom_site_label
_atom_site_fract_x
_atom_site_fract_y
_atom_site_fract_z
Si Si1 0.453464 0.334498 0.312200
Si Si2 0.250000 0.750000 0.000000
Si Si3 0.750000 0.335854 0.294154
Si Si4 0.404417 0.605878 0.196270
Si Si5 0.945766 0.666858 0.286560
O O1 0.448433 0.250000 0.255681
O O2 0.386201 0.386201 0.257361
O O3 0.529853 0.370343 0.256661
O O4 0.452131 0.333345 0.513269
O O5 0.250000 0.675315 0.902968
O O6 0.750000 0.250000 0.342432
O O7 0.827553 0.374123 0.314891
O O8 0.490949 0.615019 0.217084
O O9 0.388428 0.611573 0.000000
O O10 0.956136 0.750000 0.228122
O O11 0.867788 0.632213 0.242912
#
# Coordination Sequence:
#
# PCOD9565167 Si02
#       5
#    16   2   8  16  16
#     4  10  23  41  63  88 120 159 201 250 299 353
#     4   8  16  32  48  76 114 156 180 228 290 332
#     4  10  18  32  52  79 116 153 189 233 284 344
#     4  12  22  36  61  89 121 159 197 243 298 360
#     4  10  22  41  62  87 120 158 201 248 299 351
#
# _framework density 21.526668000000001
#
# number of rings (size 3 to 8) (size 9 to 14) (size 15 to 20)
#    0.414    1.103    2.759    2.483    1.931    4.966 
#    0.000    2.759    0.000    0.000    0.000    3.862 
#    0.000    0.000    0.000    0.000    0.000    0.000 
#
# Total GULP energy -323248.467721 kJ/mol
# GULP energy per Si atom -5573.249443 kJ/mol
# Density = 2.147767 g / cm^3
# Si number density = 21.526668 Si / 1000 Ang^3
#
#
#
# Elastic Constant Matrix: (Units=GPa)
#
#
# Indices 1 2 3 4 5 6 
#
# 1 135.5261 124.4327 18.0354 0.0000 0.0000 0.0000
# 2 124.4327 135.5257 18.0353 0.0000 0.0000 0.0000
# 3 18.0354 18.0353 31.6046 0.0000 0.0000 0.0000
# 4 0.0000 0.0000 0.0000 10.8487 0.0000 0.0000
# 5 0.0000 0.0000 0.0000 0.0000 10.8488 0.0000
# 6 0.0000 0.0000 0.0000 0.0000 0.0000 44.1320
#
#
#
# Elastic Compliance Matrix: (Units=1/GPa)
#
#
# Indices 1 2 3 4 5 6 
#
# 1 0.047162 -0.042984 -0.002384 0.000000 0.000000 0.000000
# 2 -0.042984 0.047162 -0.002384 0.000000 0.000000 0.000000
# 3 -0.002384 -0.002384 0.034362 0.000000 0.000000 0.000000
# 4 0.000000 0.000000 0.000000 0.092177 0.000000 0.000000
# 5 0.000000 0.000000 0.000000 0.000000 0.092176 0.000000
# 6 0.000000 0.000000 0.000000 0.000000 0.000000 0.022659
#
#
# Mechanical properties :
#
#
# Convention : Reuss Voigt Hill
#
# Bulk Modulus (GPa) = 30.13760 69.29590 49.71675
# Shear Modulus (GPa) = 11.30552 22.64277 16.97414
#
# Velocity S-wave (km/s) = 2.29418 3.24674 2.81110
# Velocity P-wave (km/s) = 4.58783 6.80556 5.80361
#
# Compressibility (1/GPa) = 0.03318115
#
# Stress axis : x y z
#
# Youngs Moduli (GPa) = 21.20371 21.20367 29.10208
#
# Poissons Ratio (x) = 0.91142 0.06938
# Poissons Ratio (y) = 0.91142 0.06937
# Poissons Ratio (z) = 0.05055 0.05055
#
# Static dielectric constant tensor:
#      x y z
#    x 1.828380 0.000000 0.000000 
#    y 0.000000 1.828370 0.000000 
#    z 0.000000 0.000000 1.926040 
# 
# From -- ./inp_files/1800.got.cif
#   From: 2010.05.17/outbox.cif.g08.bks.cpg/sg129_1_cif.got.tgz:1800.got - 2010.05.20 12:12:06.
