data_PCOD9565660
_publ_section_title
;
Structure prediction by ZEFSAII (Michael W. Deem and Ramdas Pophale) SiO2 
 PCOD9565660
Probable space group: P 4/N C C
;
_chemical_formula_sum "Si O2"
_cell_formula_units_Z 112
_cell_length_a 14.341268
_cell_length_b 14.341268
_cell_length_c 27.463005
_cell_angle_alpha 90.000000
_cell_angle_beta 90.000000
_cell_angle_gamma 90.000000
_cell_volume 5648.370281
_symmetry_space_group_name_H-M "P 4/N C C"
_symmetry_group_IT_number 130
_symmetry_cell_setting 'tetragonal'
loop_
_space_group_symop_operation_xyz
x,y,z
1/2-y,x,z
1/2-x,1/2-y,z
y,1/2-x,z
1/2+x,-y,1/2-z
-x,1/2+y,1/2-z
1/2+y,1/2+x,1/2-z
-y,-x,1/2-z
-x,-y,-z
1/2+y,-x,-z
1/2+x,1/2+y,-z
-y,1/2+x,-z
1/2-x,y,1/2+z
x,1/2-y,1/2+z
1/2-y,1/2-x,1/2+z
y,x,1/2+z
loop_
_atom_site_type_symbol
_atom_site_label
_atom_site_fract_x
_atom_site_fract_y
_atom_site_fract_z
Si Si1 0.558425 0.342403 0.099368
Si Si2 0.205857 0.401832 0.264172
Si Si3 0.900322 0.711173 0.042668
Si Si4 0.438137 0.594330 0.499589
Si Si5 0.171888 0.672024 0.908101
Si Si6 0.299598 0.518100 0.860821
Si Si7 0.607315 0.688929 0.842603
O O1 0.596380 0.241329 0.115192
O O2 0.606700 0.424328 0.129520
O O3 0.451113 0.342588 0.111481
O O4 0.583932 0.366269 0.044162
O O5 0.139581 0.310814 0.267953
O O6 0.198403 0.474063 0.307848
O O7 0.180907 0.440676 0.210487
O O8 0.860131 0.814537 0.034082
O O9 0.936871 0.706896 0.098430
O O10 0.988857 0.677700 0.011245
O O11 0.500000 0.500000 0.500000
O O12 0.378964 0.618020 0.451847
O O13 0.250000 0.750000 0.923736
O O14 0.219834 0.594823 0.873795
O O15 0.703098 0.633597 0.844094
#
# Coordination Sequence:
#
# PCOD9565660 Si02
#       7
#    16  16  16  16  16  16  16
#     4  10  24  38  60  87 120 163 200 255 301 357
#     4   9  18  36  66  93 120 158 195 242 310 375
#     4  10  21  37  56  84 123 155 194 258 316 357
#     4  11  25  38  61  88 118 161 220 260 296 367
#     4  10  24  41  62  82 121 170 207 243 308 374
#     4  10  20  37  60  91 119 152 201 248 303 360
#     4   9  20  42  64  86 120 162 201 243 309 379
#
# _framework density 19.828728999999999
#
# number of rings (size 3 to 8) (size 9 to 14) (size 15 to 20)
#    0.000    2.143    0.000    2.571   10.000    2.857 
#    0.000    0.714    0.000    2.571    0.000    0.000 
#    0.000    0.000    0.000    0.000    0.000    0.000 
#
# Total GULP energy -624887.022196 kJ/mol
# GULP energy per Si atom -5579.348412 kJ/mol
# Density = 1.978360 g / cm^3
# Si number density = 19.828729 Si / 1000 Ang^3
#
#
#
# Elastic Constant Matrix: (Units=GPa)
#
#
# Indices 1 2 3 4 5 6 
#
# 1 47.8123 -6.2102 9.2954 0.0000 0.0000 0.0000
# 2 -6.2102 47.8123 9.2954 0.0000 0.0000 0.0000
# 3 9.2954 9.2954 19.8327 0.0000 0.0000 0.0000
# 4 0.0000 0.0000 0.0000 25.8787 0.0000 0.0000
# 5 0.0000 0.0000 0.0000 0.0000 25.8787 0.0000
# 6 0.0000 0.0000 0.0000 0.0000 0.0000 24.4365
#
#
#
# Elastic Compliance Matrix: (Units=1/GPa)
#
#
# Indices 1 2 3 4 5 6 
#
# 1 0.024458 0.005947 -0.014251 0.000000 0.000000 0.000000
# 2 0.005947 0.024458 -0.014251 0.000000 0.000000 0.000000
# 3 -0.014251 -0.014251 0.063780 0.000000 0.000000 0.000000
# 4 0.000000 0.000000 0.000000 0.038642 0.000000 0.000000
# 5 0.000000 0.000000 0.000000 0.000000 0.038642 0.000000
# 6 0.000000 0.000000 0.000000 0.000000 0.000000 0.040922
#
#
# Mechanical properties :
#
#
# Convention : Reuss Voigt Hill
#
# Bulk Modulus (GPa) = 14.79548 15.57981 15.18765
# Shear Modulus (GPa) = 16.74815 22.11056 19.42936
#
# Velocity S-wave (km/s) = 2.90942 3.34290 3.13367
# Velocity P-wave (km/s) = 4.33176 4.77223 4.55732
#
# Compressibility (1/GPa) = 0.06758822
#
# Stress axis : x y z
#
# Youngs Moduli (GPa) = 40.88613 40.88613 15.67883
#
# Poissons Ratio (x) = -0.24316 0.22344
# Poissons Ratio (y) = -0.24316 0.22344
# Poissons Ratio (z) = 0.58266 0.58266
#
# Static dielectric constant tensor:
#      x y z
#    x 1.719610 0.000000 0.000000 
#    y 0.000000 1.719610 0.000000 
#    z 0.000000 0.000000 1.685220 
# 
# From -- ./inp_files/4309.got.cif
#   From: 2010.05.17/outbox.cif.g08.bks.cpg/sg130_3_cif.got.tgz:4309.got - 2010.05.20 12:17:35.
