data_PCOD9565124
_publ_section_title
;
Structure prediction by ZEFSAII (Michael W. Deem and Ramdas Pophale) SiO2 
 PCOD9565124
Probable space group: P 4/N M M
;
_chemical_formula_sum "Si O2"
_cell_formula_units_Z 128
_cell_length_a 18.559293
_cell_length_b 18.559293
_cell_length_c 23.148880
_cell_angle_alpha 90.000000
_cell_angle_beta 90.000000
_cell_angle_gamma 90.000000
_cell_volume 7973.570526
_symmetry_space_group_name_H-M "P 4/N M M"
_symmetry_group_IT_number 129
_symmetry_cell_setting 'tetragonal'
loop_
_space_group_symop_operation_xyz
x,y,z
1/2-y,x,z
1/2-x,1/2-y,z
y,1/2-x,z
1/2+x,-y,-z
-x,1/2+y,-z
1/2+y,1/2+x,-z
-y,-x,-z
-x,-y,-z
1/2+y,-x,-z
1/2+x,1/2+y,-z
-y,1/2+x,-z
1/2-x,y,z
x,1/2-y,z
1/2-y,1/2-x,z
y,x,z
loop_
_atom_site_type_symbol
_atom_site_label
_atom_site_fract_x
_atom_site_fract_y
_atom_site_fract_z
Si Si1 0.666225 0.420452 0.259067
Si Si2 0.334079 0.048177 0.559105
Si Si3 0.835545 0.169423 0.850172
Si Si4 0.934293 0.444829 0.367616
Si Si5 0.835311 0.547444 0.034146
Si Si6 0.666976 0.951634 0.167273
Si Si7 0.582957 0.335040 0.043660
Si Si8 0.453032 0.334310 0.419968
O O1 0.750000 0.420913 0.278468
O O2 0.654785 0.353413 0.216198
O O3 0.611655 0.423940 0.311655
O O4 0.655999 0.487159 0.214966
O O5 0.250000 0.050461 0.577143
O O6 0.378732 0.121269 0.573625
O O7 0.336059 0.040534 0.489699
O O8 0.378665 0.982910 0.587891
O O9 0.750000 0.173262 0.857975
O O10 0.865934 0.250000 0.863517
O O11 0.862541 0.108512 0.894121
O O12 0.993968 0.506032 0.353756
O O13 0.979095 0.377811 0.393698
O O14 0.750000 0.558055 0.025730
O O15 0.879604 0.620397 0.026885
O O16 0.845118 0.523444 0.100946
O O17 0.863202 0.487796 0.988963
O O18 0.750000 0.928321 0.170476
O O19 0.613606 0.886395 0.178479
O O20 0.572201 0.250000 0.048305
O O21 0.647864 0.352137 0.000000
O O22 0.449221 0.250000 0.402596
O O23 0.381290 0.381290 0.405307
#
# Coordination Sequence:
#
# PCOD9565124 Si02
#       8
#    16  16  16  16  16  16  16  16
#     4  10  19  31  47  65  88 121 157 190 224 263
#     4   9  17  30  49  73 101 131 162 197 236 278
#     4   9  18  31  45  62  85 113 145 181 222 270
#     4  10  19  31  48  70  96 127 162 196 233 279
#     4   9  18  31  46  65  88 115 148 185 226 272
#     4   9  17  29  44  62  86 115 148 187 227 267
#     4  10  18  28  44  65  88 113 141 175 219 271
#     4   9  18  32  51  75 100 126 157 195 239 285
#
# _framework density 16.053034
#
# number of rings (size 3 to 8) (size 9 to 14) (size 15 to 20)
#    0.000    2.625    0.000    2.250    0.000    5.375 
#    0.000    3.750    0.000    1.125    0.000    5.250 
#    0.000    0.000    0.000    3.750    0.000    0.250 
#
# Total GULP energy -712734.932412 kJ/mol
# GULP energy per Si atom -5568.241659 kJ/mol
# Density = 1.601650 g / cm^3
# Si number density = 16.053034 Si / 1000 Ang^3
#
#
#
# Elastic Constant Matrix: (Units=GPa)
#
#
# Indices 1 2 3 4 5 6 
#
# 1 -169.6583 302.4573 36.7801 0.0000 0.0000 0.0000
# 2 302.4573 -169.5766 36.7711 0.0000 0.0000 0.0000
# 3 36.7801 36.7711 58.8428 0.0000 0.0000 0.0000
# 4 0.0000 0.0000 0.0000 24.9050 0.0000 0.0000
# 5 0.0000 0.0000 0.0000 0.0000 24.9050 0.0000
# 6 0.0000 0.0000 0.0000 0.0000 0.0000 11.2053
#
#
#
# Elastic Compliance Matrix: (Units=1/GPa)
#
#
# Indices 1 2 3 4 5 6 
#
# 1 0.004695 0.006815 -0.007193 0.000000 0.000000 0.000000
# 2 0.006815 0.004698 -0.007195 0.000000 0.000000 0.000000
# 3 -0.007193 -0.007195 0.025987 0.000000 0.000000 0.000000
# 4 0.000000 0.000000 0.000000 0.040153 0.000000 0.000000
# 5 0.000000 0.000000 0.000000 0.000000 0.040153 0.000000
# 6 0.000000 0.000000 0.000000 0.000000 0.000000 0.089244
#
#
# Mechanical properties :
#
#
# Convention : Reuss Voigt Hill
#
# Bulk Modulus (GPa) = 49.42592 52.40276 50.91434
# Shear Modulus (GPa) = 22.04387 -31.55699 -4.75656
#
# Velocity S-wave (km/s) = 3.70968 -4.43854 -1.72321
# Velocity P-wave (km/s) = 7.01462 2.53907 5.27503
#
# Compressibility (1/GPa) = 0.02023230
#
# Stress axis : x y z
#
# Youngs Moduli (GPa) = 212.97836 212.87564 38.48085
#
# Poissons Ratio (x) = -1.45070 0.27681
# Poissons Ratio (y) = -1.45140 0.27687
# Poissons Ratio (z) = 1.53204 1.53167
#
# Static dielectric constant tensor:
#      x y z
#    x 1.544990 0.000000 0.000000 
#    y 0.000000 1.544990 0.000000 
#    z 0.000000 0.000000 1.532580 
# 
# From -- ./inp_files/7299.got.cif
#   From: 2010.05.17/outbox.cif.g08.bks.cpg/sg129_4_cif.got.tgz:7299.got - 2010.05.20 12:12:06.
