data_PCOD9565082
_publ_section_title
;
Structure prediction by ZEFSAII (Michael W. Deem and Ramdas Pophale) SiO2 
 PCOD9565082
Probable space group: P 4/M N C
;
_chemical_formula_sum "Si O2"
_cell_formula_units_Z 80
_cell_length_a 12.000000
_cell_length_b 12.000000
_cell_length_c 30.000000
_cell_angle_alpha 90.000000
_cell_angle_beta 90.000000
_cell_angle_gamma 90.000000
_cell_volume 4320.000000
_symmetry_space_group_name_H-M "P 4/M N C"
_symmetry_group_IT_number 128
_symmetry_cell_setting 'tetragonal'
loop_
_space_group_symop_operation_xyz
x,y,z
-y,x,z
-x,-y,z
y,-x,z
1/2+x,1/2-y,1/2-z
1/2-x,1/2+y,1/2-z
1/2+y,1/2+x,1/2-z
1/2-y,1/2-x,1/2-z
-x,-y,-z
y,-x,-z
x,y,-z
-y,x,-z
1/2-x,1/2+y,1/2+z
1/2+x,1/2-y,1/2+z
1/2-y,1/2-x,1/2+z
1/2+y,1/2+x,1/2+z
loop_
_atom_site_type_symbol
_atom_site_label
_atom_site_fract_x
_atom_site_fract_y
_atom_site_fract_z
Si Si1 0.513221 0.315167 0.265238
Si Si2 0.501068 0.815155 0.174916
Si Si3 0.922317 0.389728 0.052282
Si Si4 0.458370 0.319707 0.089898
Si Si5 0.327309 0.994618 0.148032
O O1 0.615612 0.399637 0.258531
O O2 0.517914 0.222876 0.225788
O O3 0.515371 0.272738 0.316514
O O4 0.536507 0.713959 0.142398
O O5 0.596684 0.908210 0.169964
O O6 0.394545 0.878018 0.152988
O O7 0.794828 0.425267 0.064464
O O8 0.968940 0.317589 0.095399
O O9 0.000000 0.500000 0.053834
O O10 0.927027 0.348540 0.000000
O O11 0.581180 0.370546 0.079984
#
# Coordination Sequence:
#
# PCOD9565082 Si02
#       5
#    16  16  16  16  16
#     4  11  24  37  53  81 118 156 193 237 290 350
#     4  10  19  36  57  86 116 154 191 233 284 355
#     4  10  20  40  62  82 112 153 200 244 288 350
#     4  10  20  34  58  93 129 156 186 240 308 364
#     4  10  20  37  57  85 111 149 196 247 288 342
#
# _framework density 18.518519000000001
#
# number of rings (size 3 to 8) (size 9 to 14) (size 15 to 20)
#    0.000    1.800    4.000    2.400    0.000   10.400 
#    0.000    1.000    0.000    0.000    0.000    1.400 
#    0.000    0.000    0.000    0.000    0.000    0.000 
#
# Total GULP energy -445945.108778 kJ/mol
# GULP energy per Si atom -5574.313860 kJ/mol
# Density = 1.847637 g / cm^3
# Si number density = 18.518519 Si / 1000 Ang^3
#
#
#
# Elastic Constant Matrix: (Units=GPa)
#
#
# Indices 1 2 3 4 5 6 
#
# 1 61.5315 5.9595 27.3310 0.0000 0.0000 0.0000
# 2 5.9595 61.5315 27.3310 0.0000 0.0000 0.0000
# 3 27.3310 27.3310 166.1502 0.0000 0.0000 0.0000
# 4 0.0000 0.0000 0.0000 24.5455 0.0000 0.0000
# 5 0.0000 0.0000 0.0000 0.0000 24.5455 0.0000
# 6 0.0000 0.0000 0.0000 0.0000 0.0000 6.4916
#
#
#
# Elastic Compliance Matrix: (Units=1/GPa)
#
#
# Indices 1 2 3 4 5 6 
#
# 1 0.017544 -0.000450 -0.002812 0.000000 0.000000 0.000000
# 2 -0.000450 0.017544 -0.002812 0.000000 0.000000 0.000000
# 3 -0.002812 -0.002812 0.006944 0.000000 0.000000 0.000000
# 4 0.000000 0.000000 0.000000 0.040741 0.000000 0.000000
# 5 0.000000 0.000000 0.000000 0.000000 0.040741 0.000000
# 6 0.000000 0.000000 0.000000 0.000000 0.000000 0.154046
#
#
# Mechanical properties :
#
#
# Convention : Reuss Voigt Hill
#
# Bulk Modulus (GPa) = 33.46221 45.60624 39.53423
# Shear Modulus (GPa) = 16.68506 26.35595 21.52051
#
# Velocity S-wave (km/s) = 3.00491 3.77665 3.41267
# Velocity P-wave (km/s) = 5.49073 6.61047 6.07645
#
# Compressibility (1/GPa) = 0.02988446
#
# Stress axis : x y z
#
# Youngs Moduli (GPa) = 56.99811 56.99811 144.01442
#
# Poissons Ratio (x) = 0.02566 0.40496
# Poissons Ratio (y) = 0.02566 0.40496
# Poissons Ratio (z) = 0.16027 0.16027
#
# Static dielectric constant tensor:
#      x y z
#    x 1.652940 0.000000 0.000000 
#    y 0.000000 1.652940 0.000000 
#    z 0.000000 0.000000 1.659010 
# 
# From -- ./inp_files/7175.got.cif
#   From: 2010.05.17/outbox.ucp.g08.bks.cvg/sg128_4_cif.got.tgz:7175.got - 2010.06.11 11:37:33.
