data_PCOD9565350
_publ_section_title
;
Structure prediction by ZEFSAII (Michael W. Deem and Ramdas Pophale) SiO2 
 PCOD9565350
Probable space group: P 4/N M M
;
_chemical_formula_sum "Si O2"
_cell_formula_units_Z 80
_cell_length_a 13.384615
_cell_length_b 13.384615
_cell_length_c 26.359125
_cell_angle_alpha 90.000000
_cell_angle_beta 90.000000
_cell_angle_gamma 90.000000
_cell_volume 4722.182382
_symmetry_space_group_name_H-M "P 4/N M M"
_symmetry_group_IT_number 129
_symmetry_cell_setting 'tetragonal'
loop_
_space_group_symop_operation_xyz
x,y,z
1/2-y,x,z
1/2-x,1/2-y,z
y,1/2-x,z
1/2+x,-y,-z
-x,1/2+y,-z
1/2+y,1/2+x,-z
-y,-x,-z
-x,-y,-z
1/2+y,-x,-z
1/2+x,1/2+y,-z
-y,1/2+x,-z
1/2-x,y,z
x,1/2-y,z
1/2-y,1/2-x,z
y,x,z
loop_
_atom_site_type_symbol
_atom_site_label
_atom_site_fract_x
_atom_site_fract_y
_atom_site_fract_z
Si Si1 0.368177 0.966198 0.352598
Si Si2 0.029612 0.869052 0.839958
Si Si3 0.631626 0.034063 0.450806
Si Si4 0.867572 0.033542 0.254967
Si Si5 0.364747 0.628595 0.944545
O O1 0.250000 0.981345 0.354202
O O2 0.405847 0.903144 0.400957
O O3 0.400878 0.907671 0.301937
O O4 0.430318 0.069683 0.353226
O O5 0.021126 0.750000 0.836868
O O6 0.104039 0.909498 0.796850
O O7 0.071430 0.897357 0.895459
O O8 0.925105 0.925105 0.831505
O O9 0.595443 0.095443 0.500000
O O10 0.750000 0.019200 0.451267
O O11 0.569674 0.930327 0.450978
O O12 0.750000 0.017165 0.258921
O O13 0.931047 0.931047 0.255852
O O14 0.250000 0.594667 0.937876
O O15 0.362241 0.750000 0.946986
O O16 0.403492 0.596508 0.000000
#
# Coordination Sequence:
#
# PCOD9565350 Si02
#       5
#    16  16  16  16  16
#     4  10  21  36  54  78 106 136 172 210 248 293
#     4  10  20  32  47  69  96 128 166 204 243 288
#     4  10  21  36  54  78 106 136 173 214 256 305
#     4  10  21  36  54  77 102 128 161 200 244 296
#     4   8  14  26  45  68  92 118 152 197 246 292
#
# _framework density 16.941317999999999
#
# number of rings (size 3 to 8) (size 9 to 14) (size 15 to 20)
#    0.000    2.400    0.000    3.000    0.000    5.800 
#    0.000    0.000    0.000   10.800    0.000    0.000 
#    0.000    4.800    0.000    0.000    0.000    0.000 
#
# Total GULP energy -446247.251120 kJ/mol
# GULP energy per Si atom -5578.090639 kJ/mol
# Density = 1.690276 g / cm^3
# Si number density = 16.941318 Si / 1000 Ang^3
#
#
#
# Elastic Constant Matrix: (Units=GPa)
#
#
# Indices 1 2 3 4 5 6 
#
# 1 100.9488 98.4502 52.5301 0.0000 0.0000 0.0000
# 2 98.4502 100.9488 52.5301 0.0000 0.0000 0.0000
# 3 52.5301 52.5301 138.3048 0.0000 0.0000 0.0000
# 4 0.0000 0.0000 0.0000 13.3417 0.0000 0.0000
# 5 0.0000 0.0000 0.0000 0.0000 13.3417 0.0000
# 6 0.0000 0.0000 0.0000 0.0000 0.0000 5.8457
#
#
#
# Elastic Compliance Matrix: (Units=1/GPa)
#
#
# Indices 1 2 3 4 5 6 
#
# 1 0.203243 -0.196973 -0.002381 0.000000 0.000000 0.000000
# 2 -0.196973 0.203243 -0.002381 0.000000 0.000000 0.000000
# 3 -0.002381 -0.002381 0.009039 0.000000 0.000000 0.000000
# 4 0.000000 0.000000 0.000000 0.074953 0.000000 0.000000
# 5 0.000000 0.000000 0.000000 0.000000 0.074953 0.000000
# 6 0.000000 0.000000 0.000000 0.000000 0.000000 0.171067
#
#
# Mechanical properties :
#
#
# Convention : Reuss Voigt Hill
#
# Bulk Modulus (GPa) = 82.96351 83.02480 82.99416
# Shear Modulus (GPa) = 4.37068 15.61863 9.99466
#
# Velocity S-wave (km/s) = 1.60795 3.03962 2.43154
# Velocity P-wave (km/s) = 7.24740 7.83790 7.54843
#
# Compressibility (1/GPa) = 0.01205349
#
# Stress axis : x y z
#
# Youngs Moduli (GPa) = 4.92023 4.92023 110.62751
#
# Poissons Ratio (x) = 0.96915 0.26344
# Poissons Ratio (y) = 0.96915 0.26344
# Poissons Ratio (z) = 0.01172 0.01172
#
# Static dielectric constant tensor:
#      x y z
#    x 1.546010 0.000000 0.000000 
#    y 0.000000 1.546010 0.000000 
#    z 0.000000 0.000000 1.586660 
# 
# From -- ./inp_files/7686.got.cif
#   From: 2010.05.17/outbox.cif.g08.bks.cpg/sg129_4_cif.got.tgz:7686.got - 2010.05.20 12:12:06.
