data_PCOD9565074
_publ_section_title
;
Structure prediction by ZEFSAII (Michael W. Deem and Ramdas Pophale) SiO2 
 PCOD9565074
Probable space group: P 4/M N C
;
_chemical_formula_sum "Si O2"
_cell_formula_units_Z 112
_cell_length_a 27.606734
_cell_length_b 27.606734
_cell_length_c 7.377539
_cell_angle_alpha 90.000000
_cell_angle_beta 90.000000
_cell_angle_gamma 90.000000
_cell_volume 5622.656798
_symmetry_space_group_name_H-M "P 4/M N C"
_symmetry_group_IT_number 128
_symmetry_cell_setting 'tetragonal'
loop_
_space_group_symop_operation_xyz
x,y,z
-y,x,z
-x,-y,z
y,-x,z
1/2+x,1/2-y,1/2-z
1/2-x,1/2+y,1/2-z
1/2+y,1/2+x,1/2-z
1/2-y,1/2-x,1/2-z
-x,-y,-z
y,-x,-z
x,y,-z
-y,x,-z
1/2-x,1/2+y,1/2+z
1/2+x,1/2-y,1/2+z
1/2-y,1/2-x,1/2+z
1/2+y,1/2+x,1/2+z
loop_
_atom_site_type_symbol
_atom_site_label
_atom_site_fract_x
_atom_site_fract_y
_atom_site_fract_z
Si Si1 0.998832 0.078075 0.779125
Si Si2 0.317646 0.471939 0.720518
Si Si3 0.315030 0.894147 0.215826
Si Si4 0.681544 0.739603 0.283501
Si Si5 0.209099 0.864917 0.778699
Si Si6 0.317488 0.104299 0.783346
Si Si7 0.999528 0.710152 0.221344
O O1 0.002333 0.133337 0.717981
O O2 0.952449 0.046435 0.724038
O O3 0.998302 0.078530 0.000000
O O4 0.317890 0.472652 0.500000
O O5 0.315997 0.415337 0.774415
O O6 0.266704 0.495634 0.774983
O O7 0.361617 0.861617 0.250000
O O8 0.265259 0.868950 0.280400
O O9 0.315101 0.949605 0.281958
O O10 0.309789 0.897191 0.000000
O O11 0.731284 0.768717 0.250000
O O12 0.675230 0.736657 0.500000
O O13 0.685294 0.684892 0.214867
O O14 0.638554 0.773932 0.212673
O O15 0.208534 0.863836 0.000000
O O16 0.367256 0.132745 0.750000
O O17 0.313208 0.049590 0.715788
O O18 0.311769 0.102260 0.000000
O O19 0.999669 0.709111 0.000000
#
# Coordination Sequence:
#
# PCOD9565074 Si02
#       7
#    16  16  16  16  16  16  16
#     4   8  13  19  26  40  66 100 136 172 205 232
#     4   8  13  21  33  49  70  99 134 166 196 231
#     4   9  16  27  43  61  82 106 131 161 198 237
#     4   9  16  25  38  57  80 104 131 161 192 231
#     4   8  14  23  35  54  78 102 129 162 196 230
#     4   9  17  29  44  61  81 106 135 164 196 233
#     4   8  15  27  41  57  77 101 129 162 197 234
#
# _framework density 19.919409999999999
#
# number of rings (size 3 to 8) (size 9 to 14) (size 15 to 20)
#    0.000    3.571    0.000    2.571    0.000    1.143 
#    0.000    6.429    0.000    0.429    0.000    3.000 
#    0.000    0.000    0.000    0.000    0.000    1.143 
#
# Total GULP energy -624389.452995 kJ/mol
# GULP energy per Si atom -5574.905830 kJ/mol
# Density = 1.987407 g / cm^3
# Si number density = 19.919410 Si / 1000 Ang^3
#
#
#
# Elastic Constant Matrix: (Units=GPa)
#
#
# Indices 1 2 3 4 5 6 
#
# 1 97.2539 58.4533 1.8669 0.0000 0.0000 0.0000
# 2 58.4533 97.2601 1.8617 0.0000 0.0000 0.0000
# 3 1.8669 1.8617 69.1646 0.0000 0.0000 0.0000
# 4 0.0000 0.0000 0.0000 -13.9578 0.0000 0.0000
# 5 0.0000 0.0000 0.0000 0.0000 -13.9526 0.0000
# 6 0.0000 0.0000 0.0000 0.0000 0.0000 16.8842
#
#
#
# Elastic Compliance Matrix: (Units=1/GPa)
#
#
# Indices 1 2 3 4 5 6 
#
# 1 0.016099 -0.009672 -0.000174 0.000000 0.000000 0.000000
# 2 -0.009672 0.016098 -0.000172 0.000000 0.000000 0.000000
# 3 -0.000174 -0.000172 0.014468 0.000000 0.000000 0.000000
# 4 0.000000 0.000000 0.000000 -0.071644 0.000000 0.000000
# 5 0.000000 0.000000 0.000000 0.000000 -0.071671 0.000000
# 6 0.000000 0.000000 0.000000 0.000000 0.000000 0.059227
#
#
# Mechanical properties :
#
#
# Convention : Reuss Voigt Hill
#
# Bulk Modulus (GPa) = 37.55532 43.11582 40.33557
# Shear Modulus (GPa) = -587.46001 11.22789 -288.11606
#
# Velocity S-wave (km/s) = -17.19182 2.37674 -12.03972
# Velocity P-wave (km/s) = 19.36966 5.40592 13.15218
#
# Compressibility (1/GPa) = 0.02662739
#
# Stress axis : x y z
#
# Youngs Moduli (GPa) = 62.11538 62.11950 69.12000
#
# Poissons Ratio (x) = 0.60083 0.01204
# Poissons Ratio (y) = 0.60079 0.01191
# Poissons Ratio (z) = 0.01082 0.01070
#
# Static dielectric constant tensor:
#      x y z
#    x 1.690050 0.000000 0.000000 
#    y 0.000000 1.690050 0.000000 
#    z 0.000000 0.000000 1.854290 
# 
# From -- ./inp_files/2969.got.cif
#   From: 2010.05.17/outbox.cif.g08.bks.cpg/sg128_2_cif.got.tgz:2969.got - 2010.05.20 12:07:25.
