data_PCOD9565983
_publ_section_title
;
Structure prediction by ZEFSAII (Michael W. Deem and Ramdas Pophale) SiO2 
 PCOD9565983
Probable space group: P 4/N C C
;
_chemical_formula_sum "Si O2"
_cell_formula_units_Z 56
_cell_length_a 12.020633
_cell_length_b 12.020633
_cell_length_c 17.227814
_cell_angle_alpha 90.000000
_cell_angle_beta 90.000000
_cell_angle_gamma 90.000000
_cell_volume 2489.343626
_symmetry_space_group_name_H-M "P 4/N C C"
_symmetry_group_IT_number 130
_symmetry_cell_setting 'tetragonal'
loop_
_space_group_symop_operation_xyz
x,y,z
1/2-y,x,z
1/2-x,1/2-y,z
y,1/2-x,z
1/2+x,-y,1/2-z
-x,1/2+y,1/2-z
1/2+y,1/2+x,1/2-z
-y,-x,1/2-z
-x,-y,-z
1/2+y,-x,-z
1/2+x,1/2+y,-z
-y,1/2+x,-z
1/2-x,y,1/2+z
x,1/2-y,1/2+z
1/2-y,1/2-x,1/2+z
y,x,1/2+z
loop_
_atom_site_type_symbol
_atom_site_label
_atom_site_fract_x
_atom_site_fract_y
_atom_site_fract_z
Si Si1 0.669484 0.582868 0.844313
Si Si2 0.410589 0.915880 0.964433
Si Si3 0.372668 0.703148 0.621809
Si Si4 0.968895 0.468895 0.750000
O O1 0.798333 0.609457 0.849035
O O2 0.654319 0.492643 0.910625
O O3 0.599684 0.539857 0.770756
O O4 0.309564 0.946411 0.906082
O O5 0.357635 0.860727 0.040399
O O6 0.500000 0.000000 0.000000
O O7 0.250000 0.750000 0.647124
O O8 0.431668 0.617537 0.681420
#
# Coordination Sequence:
#
# PCOD9565983 Si02
#       4
#    16  16  16   8
#     4  11  26  46  67 101 149 195 238 300 378 452
#     4  12  22  43  71 103 142 188 245 303 364 439
#     4  12  24  45  74 110 145 188 256 316 373 442
#     4  12  27  44  74 109 146 200 242 318 381 446
#
# _framework density 22.495891
#
# number of rings (size 3 to 8) (size 9 to 14) (size 15 to 20)
#    0.000    0.286    5.714    3.857    4.000    0.000 
#    0.000    0.000    0.000    3.429    0.000    0.000 
#    0.000    0.000    0.000    0.000    0.000    0.000 
#
# Total GULP energy -311895.999690 kJ/mol
# GULP energy per Si atom -5569.571423 kJ/mol
# Density = 2.244469 g / cm^3
# Si number density = 22.495891 Si / 1000 Ang^3
#
#
#
# Elastic Constant Matrix: (Units=GPa)
#
#
# Indices 1 2 3 4 5 6 
#
# 1 64.6095 31.3325 32.6028 0.0000 0.0000 0.0000
# 2 31.3325 64.6095 32.6028 0.0000 0.0000 0.0000
# 3 32.6028 32.6028 118.2466 0.0000 0.0000 0.0000
# 4 0.0000 0.0000 0.0000 28.5110 0.0000 0.0000
# 5 0.0000 0.0000 0.0000 0.0000 28.5110 0.0000
# 6 0.0000 0.0000 0.0000 0.0000 0.0000 32.5558
#
#
#
# Elastic Compliance Matrix: (Units=1/GPa)
#
#
# Indices 1 2 3 4 5 6 
#
# 1 0.021439 -0.008612 -0.003536 0.000000 0.000000 0.000000
# 2 -0.008612 0.021439 -0.003536 0.000000 0.000000 0.000000
# 3 -0.003536 -0.003536 0.010407 0.000000 0.000000 0.000000
# 4 0.000000 0.000000 0.000000 0.035074 0.000000 0.000000
# 5 0.000000 0.000000 0.000000 0.000000 0.035074 0.000000
# 6 0.000000 0.000000 0.000000 0.000000 0.000000 0.030716
#
#
# Mechanical properties :
#
#
# Convention : Reuss Voigt Hill
#
# Bulk Modulus (GPa) = 45.63283 48.94907 47.29095
# Shear Modulus (GPa) = 25.93037 27.97741 26.95389
#
# Velocity S-wave (km/s) = 3.39878 3.53039 3.46521
# Velocity P-wave (km/s) = 5.97757 6.19876 6.08917
#
# Compressibility (1/GPa) = 0.02191405
#
# Stress axis : x y z
#
# Youngs Moduli (GPa) = 46.64476 46.64476 96.08866
#
# Poissons Ratio (x) = 0.40171 0.33982
# Poissons Ratio (y) = 0.40171 0.33982
# Poissons Ratio (z) = 0.16496 0.16496
#
# Static dielectric constant tensor:
#      x y z
#    x 2.185560 0.000000 0.000000 
#    y 0.000000 2.185560 0.000000 
#    z 0.000000 0.000000 1.861300 
# 
# From -- ./inp_files/3449.got.cif
#   From: 2010.05.17/outbox.cif.g08.bks.cpg/sg130_2_cif.got.tgz:3449.got - 2010.05.20 12:17:35.
