data_PCOD9565071
_publ_section_title
;
Structure prediction by ZEFSAII (Michael W. Deem and Ramdas Pophale) SiO2 
 PCOD9565071
Probable space group: P 4/M N C
;
_chemical_formula_sum "Si O2"
_cell_formula_units_Z 60
_cell_length_a 12.569732
_cell_length_b 12.569732
_cell_length_c 18.799033
_cell_angle_alpha 90.000000
_cell_angle_beta 90.000000
_cell_angle_gamma 90.000000
_cell_volume 2970.212672
_symmetry_space_group_name_H-M "P 4/M N C"
_symmetry_group_IT_number 128
_symmetry_cell_setting 'tetragonal'
loop_
_space_group_symop_operation_xyz
x,y,z
-y,x,z
-x,-y,z
y,-x,z
1/2+x,1/2-y,1/2-z
1/2-x,1/2+y,1/2-z
1/2+y,1/2+x,1/2-z
1/2-y,1/2-x,1/2-z
-x,-y,-z
y,-x,-z
x,y,-z
-y,x,-z
1/2-x,1/2+y,1/2+z
1/2+x,1/2-y,1/2+z
1/2-y,1/2-x,1/2+z
1/2+y,1/2+x,1/2+z
loop_
_atom_site_type_symbol
_atom_site_label
_atom_site_fract_x
_atom_site_fract_y
_atom_site_fract_z
Si Si1 0.773219 0.322810 0.000000
Si Si2 0.788578 0.711423 0.250000
Si Si3 0.820254 0.567518 0.000000
Si Si4 0.572129 0.099332 0.350540
Si Si5 0.774275 0.895719 0.864348
Si Si6 0.500000 0.500000 0.394622
O O1 0.772666 0.449764 0.000000
O O2 0.657808 0.269403 0.000000
O O3 0.833662 0.283473 0.071205
O O4 0.880585 0.681168 0.307113
O O5 0.789214 0.819154 0.204069
O O6 0.893558 0.582953 0.068671
O O7 0.496967 0.202208 0.344304
O O8 0.500000 0.000000 0.328122
O O9 0.887888 0.933130 0.892173
#
# Coordination Sequence:
#
# PCOD9565071 Si02
#       6
#     8   8   8  16  16   4
#     4  12  25  48  75 104 141 182 241 298 359 426
#     4  12  27  44  67 106 146 182 236 286 365 432
#     4  12  24  48  74 107 136 185 246 300 352 429
#     4  12  25  46  75 101 137 192 245 290 354 433
#     4  12  26  44  72 102 144 188 231 301 356 425
#     4  12  24  49  64 108 148 177 240 286 376 417
#
# _framework density 20.200574
#
# number of rings (size 3 to 8) (size 9 to 14) (size 15 to 20)
#    0.000    0.000    8.000    1.600    3.733    1.867 
#    0.000    0.000    0.000    0.000    0.000    0.000 
#    0.000    0.000    0.000    0.000    0.000    0.000 
#
# Total GULP energy -334328.051066 kJ/mol
# GULP energy per Si atom -5572.134184 kJ/mol
# Density = 2.015460 g / cm^3
# Si number density = 20.200574 Si / 1000 Ang^3
#
#
#
# Elastic Constant Matrix: (Units=GPa)
#
#
# Indices 1 2 3 4 5 6 
#
# 1 131.5088 43.9904 36.7619 0.0000 0.0000 0.0000
# 2 43.9904 131.5090 36.7622 0.0000 0.0000 0.0000
# 3 36.7619 36.7622 127.8765 0.0000 0.0000 0.0000
# 4 0.0000 0.0000 0.0000 18.6686 0.0000 0.0000
# 5 0.0000 0.0000 0.0000 0.0000 18.6685 0.0000
# 6 0.0000 0.0000 0.0000 0.0000 0.0000 55.7135
#
#
#
# Elastic Compliance Matrix: (Units=1/GPa)
#
#
# Indices 1 2 3 4 5 6 
#
# 1 0.008952 -0.002474 -0.001862 0.000000 0.000000 0.000000
# 2 -0.002474 0.008952 -0.001862 0.000000 0.000000 0.000000
# 3 -0.001862 -0.001862 0.008891 0.000000 0.000000 0.000000
# 4 0.000000 0.000000 0.000000 0.053566 0.000000 0.000000
# 5 0.000000 0.000000 0.000000 0.000000 0.053566 0.000000
# 6 0.000000 0.000000 0.000000 0.000000 0.000000 0.017949
#
#
# Mechanical properties :
#
#
# Convention : Reuss Voigt Hill
#
# Bulk Modulus (GPa) = 69.45478 69.54701 69.50090
# Shear Modulus (GPa) = 29.57303 36.83543 33.20423
#
# Velocity S-wave (km/s) = 3.83034 4.27486 4.05869
# Velocity P-wave (km/s) = 7.34977 7.67261 7.51292
#
# Compressibility (1/GPa) = 0.01439786
#
# Stress axis : x y z
#
# Youngs Moduli (GPa) = 111.70428 111.70428 112.47529
#
# Poissons Ratio (x) = 0.27635 0.20947
# Poissons Ratio (y) = 0.27635 0.20947
# Poissons Ratio (z) = 0.20803 0.20804
#
# Static dielectric constant tensor:
#      x y z
#    x 1.699480 0.000000 0.000000 
#    y 0.000000 1.699480 0.000000 
#    z 0.000000 0.000000 1.757090 
# 
# From -- ./inp_files/5464.got.cif
#   From: 2010.05.17/outbox.cif.g08.bks.cpg/sg128_3_cif.got.tgz:5464.got - 2010.05.20 12:07:25.
