data_PCOD9565276
_publ_section_title
;
Structure prediction by ZEFSAII (Michael W. Deem and Ramdas Pophale) SiO2 
 PCOD9565276
Probable space group: P 4/N M M
;
_chemical_formula_sum "Si O2"
_cell_formula_units_Z 80
_cell_length_a 13.473616
_cell_length_b 13.473616
_cell_length_c 27.069641
_cell_angle_alpha 90.000000
_cell_angle_beta 90.000000
_cell_angle_gamma 90.000000
_cell_volume 4914.177370
_symmetry_space_group_name_H-M "P 4/N M M"
_symmetry_group_IT_number 129
_symmetry_cell_setting 'tetragonal'
loop_
_space_group_symop_operation_xyz
x,y,z
1/2-y,x,z
1/2-x,1/2-y,z
y,1/2-x,z
1/2+x,-y,-z
-x,1/2+y,-z
1/2+y,1/2+x,-z
-y,-x,-z
-x,-y,-z
1/2+y,-x,-z
1/2+x,1/2+y,-z
-y,1/2+x,-z
1/2-x,y,z
x,1/2-y,z
1/2-y,1/2-x,z
y,x,z
loop_
_atom_site_type_symbol
_atom_site_label
_atom_site_fract_x
_atom_site_fract_y
_atom_site_fract_z
Si Si1 0.631974 0.134457 0.851259
Si Si2 0.632018 0.367045 0.353595
Si Si3 0.632795 0.471924 0.455769
Si Si4 0.498785 0.498785 0.077355
Si Si5 0.367786 0.528691 0.251177
Si Si6 0.371124 0.128877 0.999149
O O1 0.750000 0.121625 0.859770
O O2 0.607897 0.250000 0.857741
O O3 0.611980 0.101072 0.794914
O O4 0.570197 0.067141 0.888438
O O5 0.750000 0.379352 0.346109
O O6 0.613612 0.250000 0.361784
O O7 0.603620 0.425471 0.402880
O O8 0.576941 0.396856 0.303499
O O9 0.600498 0.399503 0.500000
O O10 0.750000 0.486018 0.456197
O O11 0.573230 0.573230 0.463103
O O12 0.571548 0.571548 0.045590
O O13 0.426692 0.426692 0.044938
O O14 0.250000 0.510845 0.252315
O O15 0.428965 0.428965 0.243427
O O16 0.386632 0.250000 0.998888
#
# Coordination Sequence:
#
# PCOD9565276 Si02
#       6
#    16  16  16   8  16   8
#     4  10  20  34  53  78 105 134 172 216 259 303
#     4   9  17  30  50  74  98 129 169 211 257 306
#     4  10  20  33  50  73 100 131 171 217 263 311
#     4  11  20  36  58  80 106 138 175 214 254 298
#     4  10  19  32  49  72 103 136 170 210 255 307
#     4  10  22  38  56  80 110 142 174 208 252 306
#
# _framework density 16.279429
#
# number of rings (size 3 to 8) (size 9 to 14) (size 15 to 20)
#    0.000    2.100    1.000    3.000    0.000    3.800 
#    0.000    0.000    0.000    4.800    0.000    2.800 
#    0.000    0.000    0.000    0.000    0.000    0.000 
#
# Total GULP energy -445980.878135 kJ/mol
# GULP energy per Si atom -5574.760977 kJ/mol
# Density = 1.624238 g / cm^3
# Si number density = 16.279429 Si / 1000 Ang^3
#
#
#
# Elastic Constant Matrix: (Units=GPa)
#
#
# Indices 1 2 3 4 5 6 
#
# 1 75.0551 54.1271 55.4698 0.0000 0.0000 0.0000
# 2 54.1271 75.0606 55.4723 0.0000 0.0000 0.0000
# 3 55.4698 55.4723 118.1172 0.0000 0.0000 0.0000
# 4 0.0000 0.0000 0.0000 25.5008 0.0000 0.0000
# 5 0.0000 0.0000 0.0000 0.0000 25.5015 0.0000
# 6 0.0000 0.0000 0.0000 0.0000 0.0000 25.7713
#
#
#
# Elastic Compliance Matrix: (Units=1/GPa)
#
#
# Indices 1 2 3 4 5 6 
#
# 1 0.030376 -0.017402 -0.006092 0.000000 0.000000 0.000000
# 2 -0.017402 0.030374 -0.006092 0.000000 0.000000 0.000000
# 3 -0.006092 -0.006092 0.014189 0.000000 0.000000 0.000000
# 4 0.000000 0.000000 0.000000 0.039214 0.000000 0.000000
# 5 0.000000 0.000000 0.000000 0.000000 0.039213 0.000000
# 6 0.000000 0.000000 0.000000 0.000000 0.000000 0.038803
#
#
# Mechanical properties :
#
#
# Convention : Reuss Voigt Hill
#
# Bulk Modulus (GPa) = 63.43319 66.48571 64.95945
# Shear Modulus (GPa) = 19.48581 22.23232 20.85906
#
# Velocity S-wave (km/s) = 3.46346 3.69951 3.58343
# Velocity P-wave (km/s) = 7.41916 7.69269 7.55716
#
# Compressibility (1/GPa) = 0.01576462
#
# Stress axis : x y z
#
# Youngs Moduli (GPa) = 32.92099 32.92313 70.47952
#
# Poissons Ratio (x) = 0.57292 0.42939
# Poissons Ratio (y) = 0.57289 0.42939
# Poissons Ratio (z) = 0.20057 0.20058
#
# Static dielectric constant tensor:
#      x y z
#    x 1.520490 0.000000 0.000000 
#    y 0.000000 1.520490 0.000000 
#    z 0.000000 0.000000 1.548070 
# 
# From -- ./inp_files/7717.got.cif
#   From: 2010.05.17/outbox.cif.g08.bks.cpg/sg129_4_cif.got.tgz:7717.got - 2010.05.20 12:12:06.
