data_PCOD9565536
_publ_section_title
;
Structure prediction by ZEFSAII (Michael W. Deem and Ramdas Pophale) SiO2 
 PCOD9565536
Probable space group: P 4/N C C
;
_chemical_formula_sum "Si O2"
_cell_formula_units_Z 76
_cell_length_a 14.890216
_cell_length_b 14.890216
_cell_length_c 15.579709
_cell_angle_alpha 90.000000
_cell_angle_beta 90.000000
_cell_angle_gamma 90.000000
_cell_volume 3454.310217
_symmetry_space_group_name_H-M "P 4/N C C"
_symmetry_group_IT_number 130
_symmetry_cell_setting 'tetragonal'
loop_
_space_group_symop_operation_xyz
x,y,z
1/2-y,x,z
1/2-x,1/2-y,z
y,1/2-x,z
1/2+x,-y,1/2-z
-x,1/2+y,1/2-z
1/2+y,1/2+x,1/2-z
-y,-x,1/2-z
-x,-y,-z
1/2+y,-x,-z
1/2+x,1/2+y,-z
-y,1/2+x,-z
1/2-x,y,1/2+z
x,1/2-y,1/2+z
1/2-y,1/2-x,1/2+z
y,x,1/2+z
loop_
_atom_site_type_symbol
_atom_site_label
_atom_site_fract_x
_atom_site_fract_y
_atom_site_fract_z
Si Si1 0.750000 0.250000 0.250000
Si Si2 0.580622 0.841771 0.629225
Si Si3 0.092502 0.720826 0.121538
Si Si4 0.970150 0.019851 0.401550
Si Si5 0.750000 0.750000 0.202882
Si Si6 0.657324 0.864089 0.928084
Si Si7 0.250000 0.750000 0.500000
O O1 0.754074 0.156365 0.200074
O O2 0.503536 0.766984 0.625323
O O3 0.660425 0.814702 0.691812
O O4 0.622877 0.848283 0.532158
O O5 0.533105 0.936673 0.648534
O O6 0.080286 0.614490 0.108699
O O7 0.154740 0.759111 0.046378
O O8 0.903887 0.937788 0.382363
O O9 0.000000 0.000000 0.500000
O O10 0.628395 0.762695 0.906676
#
# Coordination Sequence:
#
# PCOD9565536 Si02
#       7
#     4  16  16  16   4  16   4
#     4  10  28  46  60  78 128 178 204 258 336 438
#     4  11  18  31  55  84 116 154 205 260 313 381
#     4  11  22  40  59  89 123 164 211 261 329 402
#     4  10  20  30  56  92 123 155 205 264 318 385
#     4  12  16  32  56  84 116 158 200 268 320 386
#     4  10  17  29  48  84 128 164 191 248 325 388
#     4  10  20  34  60  86 120 162 204 262 308 374
#
# _framework density 22.001498000000002
#
# number of rings (size 3 to 8) (size 9 to 14) (size 15 to 20)
#    0.000    1.474    4.211    3.789    0.000    3.368 
#    0.000    1.053    0.000    0.000    0.000    0.000 
#    0.000    1.684    0.000    0.000    0.000    0.000 
#
# Total GULP energy -423441.113265 kJ/mol
# GULP energy per Si atom -5571.593596 kJ/mol
# Density = 2.195142 g / cm^3
# Si number density = 22.001498 Si / 1000 Ang^3
#
#
#
# Elastic Constant Matrix: (Units=GPa)
#
#
# Indices 1 2 3 4 5 6 
#
# 1 165.5097 89.3503 24.0597 0.0000 0.0000 0.0000
# 2 89.3503 165.5097 24.0597 0.0000 0.0000 0.0000
# 3 24.0597 24.0597 20.6699 0.0000 0.0000 0.0000
# 4 0.0000 0.0000 0.0000 12.6242 0.0000 0.0000
# 5 0.0000 0.0000 0.0000 0.0000 12.6242 0.0000
# 6 0.0000 0.0000 0.0000 0.0000 0.0000 15.3766
#
#
#
# Elastic Compliance Matrix: (Units=1/GPa)
#
#
# Indices 1 2 3 4 5 6 
#
# 1 0.009080 -0.004051 -0.005854 0.000000 0.000000 0.000000
# 2 -0.004051 0.009080 -0.005854 0.000000 0.000000 0.000000
# 3 -0.005854 -0.005854 0.062007 0.000000 0.000000 0.000000
# 4 0.000000 0.000000 0.000000 0.079213 0.000000 0.000000
# 5 0.000000 0.000000 0.000000 0.000000 0.079213 0.000000
# 6 0.000000 0.000000 0.000000 0.000000 0.000000 0.065034
#
#
# Mechanical properties :
#
#
# Convention : Reuss Voigt Hill
#
# Bulk Modulus (GPa) = 20.55493 69.62540 45.09017
# Shear Modulus (GPa) = 14.23049 22.40632 18.31841
#
# Velocity S-wave (km/s) = 2.54598 3.19470 2.88861
# Velocity P-wave (km/s) = 4.24329 6.73221 5.62708
#
# Compressibility (1/GPa) = 0.04865012
#
# Stress axis : x y z
#
# Youngs Moduli (GPa) = 110.13639 110.13639 16.12723
#
# Poissons Ratio (x) = 0.44613 0.09440
# Poissons Ratio (y) = 0.44613 0.09440
# Poissons Ratio (z) = 0.64470 0.64470
#
# Static dielectric constant tensor:
#      x y z
#    x 1.764290 0.000000 0.000000 
#    y 0.000000 1.764290 0.000000 
#    z 0.000000 0.000000 1.860290 
# 
# From -- ./inp_files/4153.got.cif
#   From: 2010.05.17/outbox.cif.g08.bks.cpg/sg130_3_cif.got.tgz:4153.got - 2010.05.20 12:17:35.
