data_PCOD9565863
_publ_section_title
;
Structure prediction by ZEFSAII (Michael W. Deem and Ramdas Pophale) SiO2 
 PCOD9565863
Probable space group: P 4/N C C
;
_chemical_formula_sum "Si O2"
_cell_formula_units_Z 64
_cell_length_a 14.494845
_cell_length_b 14.494845
_cell_length_c 13.630754
_cell_angle_alpha 90.000000
_cell_angle_beta 90.000000
_cell_angle_gamma 90.000000
_cell_volume 2863.828661
_symmetry_space_group_name_H-M "P 4/N C C"
_symmetry_group_IT_number 130
_symmetry_cell_setting 'tetragonal'
loop_
_space_group_symop_operation_xyz
x,y,z
1/2-y,x,z
1/2-x,1/2-y,z
y,1/2-x,z
1/2+x,-y,1/2-z
-x,1/2+y,1/2-z
1/2+y,1/2+x,1/2-z
-y,-x,1/2-z
-x,-y,-z
1/2+y,-x,-z
1/2+x,1/2+y,-z
-y,1/2+x,-z
1/2-x,y,1/2+z
x,1/2-y,1/2+z
1/2-y,1/2-x,1/2+z
y,x,1/2+z
loop_
_atom_site_type_symbol
_atom_site_label
_atom_site_fract_x
_atom_site_fract_y
_atom_site_fract_z
Si Si1 0.143600 0.716286 0.385093
Si Si2 0.532077 0.289033 0.426650
Si Si3 0.488197 0.661052 0.251762
Si Si4 0.325914 0.383401 0.069850
O O1 0.250000 0.750000 0.379880
O O2 0.145925 0.606576 0.373728
O O3 0.093776 0.740710 0.487962
O O4 0.084729 0.771881 0.306653
O O5 0.495449 0.211295 0.351973
O O6 0.454579 0.347472 0.482800
O O7 0.436703 0.563298 0.250000
O O8 0.575233 0.654255 0.323253
O O9 0.215582 0.371379 0.060381
#
# Coordination Sequence:
#
# PCOD9565863 Si02
#       4
#    16  16  16  16
#     4  11  18  32  60  96 134 167 194 247 331 407
#     4  11  19  34  61  94 121 165 212 256 317 398
#     4  11  22  36  65 100 132 163 211 271 336 398
#     4  10  25  48  65  83 123 180 233 279 324 384
#
# _framework density 22.347705999999999
#
# number of rings (size 3 to 8) (size 9 to 14) (size 15 to 20)
#    0.000    1.250    5.000    2.250    0.000    2.000 
#    0.000   18.750    0.000    0.000    0.000    0.000 
#    0.000    0.000    0.000    0.000    0.000    0.000 
#
# Total GULP energy -357836.720871 kJ/mol
# GULP energy per Si atom -5591.198764 kJ/mol
# Density = 2.229684 g / cm^3
# Si number density = 22.347706 Si / 1000 Ang^3
#
#
#
# Elastic Constant Matrix: (Units=GPa)
#
#
# Indices 1 2 3 4 5 6 
#
# 1 52.8366 -4.1310 -4.8430 0.0000 0.0000 0.0000
# 2 -4.1310 52.8375 -4.8432 0.0000 0.0000 0.0000
# 3 -4.8430 -4.8432 87.1490 0.0000 0.0000 0.0000
# 4 0.0000 0.0000 0.0000 14.8395 0.0000 0.0000
# 5 0.0000 0.0000 0.0000 0.0000 14.8390 0.0000
# 6 0.0000 0.0000 0.0000 0.0000 0.0000 7.5226
#
#
#
# Elastic Compliance Matrix: (Units=1/GPa)
#
#
# Indices 1 2 3 4 5 6 
#
# 1 0.019157 0.001604 0.001154 0.000000 0.000000 0.000000
# 2 0.001604 0.019157 0.001154 0.000000 0.000000 0.000000
# 3 0.001154 0.001154 0.011603 0.000000 0.000000 0.000000
# 4 0.000000 0.000000 0.000000 0.067388 0.000000 0.000000
# 5 0.000000 0.000000 0.000000 0.000000 0.067390 0.000000
# 6 0.000000 0.000000 0.000000 0.000000 0.000000 0.132934
#
#
# Mechanical properties :
#
#
# Convention : Reuss Voigt Hill
#
# Bulk Modulus (GPa) = 17.31922 18.35429 17.83675
# Shear Modulus (GPa) = 15.19510 21.21622 18.20566
#
# Velocity S-wave (km/s) = 2.61040 3.08453 2.85731
# Velocity P-wave (km/s) = 4.10515 4.57347 4.34562
#
# Compressibility (1/GPa) = 0.05773933
#
# Stress axis : x y z
#
# Youngs Moduli (GPa) = 52.19914 52.20001 86.18586
#
# Poissons Ratio (x) = -0.08370 -0.09943
# Poissons Ratio (y) = -0.08370 -0.09944
# Poissons Ratio (z) = -0.06022 -0.06023
#
# Static dielectric constant tensor:
#      x y z
#    x 1.825480 0.000000 0.000000 
#    y 0.000000 1.825480 0.000000 
#    z 0.000000 0.000000 1.869720 
# 
# From -- ./inp_files/2163.got.cif
#   From: 2010.05.17/outbox.cif.g08.bks.cpg/sg130_2_cif.got.tgz:2163.got - 2010.05.20 12:17:35.
