data_PCOD9565226
_publ_section_title
;
Structure prediction by ZEFSAII (Michael W. Deem and Ramdas Pophale) SiO2 
 PCOD9565226
Probable space group: P 4/N M M
;
_chemical_formula_sum "Si O2"
_cell_formula_units_Z 128
_cell_length_a 18.386209
_cell_length_b 18.386209
_cell_length_c 23.710210
_cell_angle_alpha 90.000000
_cell_angle_beta 90.000000
_cell_angle_gamma 90.000000
_cell_volume 8015.300067
_symmetry_space_group_name_H-M "P 4/N M M"
_symmetry_group_IT_number 129
_symmetry_cell_setting 'tetragonal'
loop_
_space_group_symop_operation_xyz
x,y,z
1/2-y,x,z
1/2-x,1/2-y,z
y,1/2-x,z
1/2+x,-y,-z
-x,1/2+y,-z
1/2+y,1/2+x,-z
-y,-x,-z
-x,-y,-z
1/2+y,-x,-z
1/2+x,1/2+y,-z
-y,1/2+x,-z
1/2-x,y,z
x,1/2-y,z
1/2-y,1/2-x,z
y,x,z
loop_
_atom_site_type_symbol
_atom_site_label
_atom_site_fract_x
_atom_site_fract_y
_atom_site_fract_z
Si Si1 0.980040 0.401424 0.925297
Si Si2 0.835416 0.057613 0.529902
Si Si3 0.442435 0.666159 0.871294
Si Si4 0.450297 0.332970 0.030786
Si Si5 0.445066 0.567894 0.764678
Si Si6 0.952968 0.664745 0.183470
Si Si7 0.835660 0.955902 0.424389
Si Si8 0.563345 0.059834 0.635654
O O1 0.896898 0.398504 0.904867
O O2 0.018114 0.481887 0.919554
O O3 0.025247 0.351608 0.881547
O O4 0.995016 0.373664 0.987946
O O5 0.874087 0.125914 0.500000
O O6 0.750000 0.068537 0.536009
O O7 0.874489 0.048010 0.589592
O O8 0.847298 0.990387 0.486818
O O9 0.415827 0.750000 0.872668
O O10 0.517597 0.665238 0.906288
O O11 0.449063 0.634054 0.808582
O O12 0.444151 0.250000 0.012935
O O13 0.375480 0.375480 0.027247
O O14 0.516173 0.516173 0.771079
O O15 0.377639 0.515665 0.781818
O O16 0.436833 0.589839 0.699778
O O17 0.949995 0.750000 0.194757
O O18 0.877917 0.622084 0.195033
O O19 0.750000 0.945398 0.415520
O O20 0.883173 0.883173 0.418553
O O21 0.869500 0.016097 0.382131
O O22 0.506585 0.993416 0.631476
#
# Coordination Sequence:
#
# PCOD9565226 Si02
#       8
#    16  16  16  16  16  16  16  16
#     4   9  17  31  49  67  90 122 157 189 225 273
#     4   9  17  29  46  68  93 121 152 188 229 270
#     4  10  19  30  47  70  92 115 150 195 234 269
#     4  10  19  30  48  73  98 125 154 185 226 275
#     4   9  18  32  48  65  89 122 156 189 227 271
#     4   9  17  29  46  67  90 117 148 184 227 274
#     4   9  17  29  46  70  98 124 151 182 219 267
#     4   9  17  30  48  67  88 119 157 193 227 263
#
# _framework density 15.969459000000001
#
# number of rings (size 3 to 8) (size 9 to 14) (size 15 to 20)
#    0.000    2.750    0.000    3.000    0.000    4.000 
#    0.000    0.000    0.000   11.625    0.000   17.500 
#    0.000    0.000    0.000   29.750    0.000    0.000 
#
# Total GULP energy -712924.008692 kJ/mol
# GULP energy per Si atom -5569.718818 kJ/mol
# Density = 1.593311 g / cm^3
# Si number density = 15.969459 Si / 1000 Ang^3
#
#
#
# Elastic Constant Matrix: (Units=GPa)
#
#
# Indices 1 2 3 4 5 6 
#
# 1 53.0062 63.5776 29.6485 0.0000 0.0000 0.0000
# 2 63.5776 53.0030 29.6471 0.0000 0.0000 0.0000
# 3 29.6485 29.6471 112.1887 0.0000 0.0000 0.0000
# 4 0.0000 0.0000 0.0000 13.4007 0.0000 0.0000
# 5 0.0000 0.0000 0.0000 0.0000 13.4003 0.0000
# 6 0.0000 0.0000 0.0000 0.0000 0.0000 10.5705
#
#
#
# Elastic Compliance Matrix: (Units=1/GPa)
#
#
# Indices 1 2 3 4 5 6 
#
# 1 -0.042335 0.052245 -0.002618 0.000000 0.000000 0.000000
# 2 0.052245 -0.042337 -0.002619 0.000000 0.000000 0.000000
# 3 -0.002618 -0.002619 0.010298 0.000000 0.000000 0.000000
# 4 0.000000 0.000000 0.000000 0.074623 0.000000 0.000000
# 5 0.000000 0.000000 0.000000 0.000000 0.074625 0.000000
# 6 0.000000 0.000000 0.000000 0.000000 0.000000 0.094603
#
#
# Mechanical properties :
#
#
# Convention : Reuss Voigt Hill
#
# Bulk Modulus (GPa) = 50.91201 51.54937 51.23069
# Shear Modulus (GPa) = 60.96849 13.82927 37.39888
#
# Velocity S-wave (km/s) = 6.18555 2.94595 4.84457
# Velocity P-wave (km/s) = 9.10850 6.62733 7.96512
#
# Compressibility (1/GPa) = 0.01964173
#
# Stress axis : x y z
#
# Youngs Moduli (GPa) = -23.62138 -23.62011 97.10929
#
# Poissons Ratio (x) = 1.23404 0.25428
# Poissons Ratio (y) = 1.23411 0.25434
# Poissons Ratio (z) = -0.06185 -0.06186
#
# Static dielectric constant tensor:
#      x y z
#    x 1.525230 0.000000 0.000000 
#    y 0.000000 1.525230 0.000000 
#    z 0.000000 0.000000 1.554830 
# 
# From -- ./inp_files/7297.got.cif
#   From: 2010.05.17/outbox.cif.g08.bks.cpg/sg129_4_cif.got.tgz:7297.got - 2010.05.20 12:12:06.
