data_PCOD9565191
_publ_section_title
;
Structure prediction by ZEFSAII (Michael W. Deem and Ramdas Pophale) SiO2 
 PCOD9565191
Probable space group: P 4/N M M
;
_chemical_formula_sum "Si O2"
_cell_formula_units_Z 112
_cell_length_a 14.205680
_cell_length_b 14.205680
_cell_length_c 36.815959
_cell_angle_alpha 90.000000
_cell_angle_beta 90.000000
_cell_angle_gamma 90.000000
_cell_volume 7429.510017
_symmetry_space_group_name_H-M "P 4/N M M"
_symmetry_group_IT_number 129
_symmetry_cell_setting 'tetragonal'
loop_
_space_group_symop_operation_xyz
x,y,z
1/2-y,x,z
1/2-x,1/2-y,z
y,1/2-x,z
1/2+x,-y,-z
-x,1/2+y,-z
1/2+y,1/2+x,-z
-y,-x,-z
-x,-y,-z
1/2+y,-x,-z
1/2+x,1/2+y,-z
-y,1/2+x,-z
1/2-x,y,z
x,1/2-y,z
1/2-y,1/2-x,z
y,x,z
loop_
_atom_site_type_symbol
_atom_site_label
_atom_site_fract_x
_atom_site_fract_y
_atom_site_fract_z
Si Si1 0.861335 0.482106 0.972728
Si Si2 0.862154 0.141085 0.180060
Si Si3 0.982448 0.136621 0.609847
Si Si4 0.635996 0.142327 0.320061
Si Si5 0.364286 0.641898 0.540326
Si Si6 0.363147 0.982501 0.749718
Si Si7 0.139960 0.985175 0.110487
O O1 0.750000 0.495033 0.978923
O O2 0.921275 0.578726 0.976879
O O3 0.874904 0.450092 0.930790
O O4 0.907211 0.407211 0.000000
O O5 0.750000 0.136686 0.175270
O O6 0.885753 0.250000 0.189342
O O7 0.886731 0.072434 0.213094
O O8 0.912124 0.116780 0.142276
O O9 0.996768 0.250000 0.610246
O O10 0.078840 0.078840 0.612057
O O11 0.916258 0.110960 0.644036
O O12 0.926424 0.110290 0.573126
O O13 0.750000 0.147484 0.319877
O O14 0.601008 0.250000 0.320323
O O15 0.609958 0.084505 0.284087
O O16 0.391909 0.608092 0.500000
O O17 0.250000 0.645508 0.539592
O O18 0.396476 0.750000 0.546237
O O19 0.250000 0.997368 0.748505
O O20 0.421530 0.078471 0.747572
O O21 0.250000 0.008476 0.113532
O O22 0.076356 0.076356 0.115352
#
# Coordination Sequence:
#
# PCOD9565191 Si02
#       7
#    16  16  16  16  16  16  16
#     4   9  18  31  46  66  91 118 149 185 225 270
#     4   9  17  29  45  65  88 114 146 184 222 254
#     4  10  19  29  42  62  89 119 147 174 207 252
#     4   9  17  30  47  64  82 105 136 177 219 251
#     4   8  14  26  44  64  85 109 140 183 230 263
#     4  10  19  30  45  65  90 119 147 174 207 250
#     4   9  17  29  45  65  89 115 143 177 218 265
#
# _framework density 15.075018
#
# number of rings (size 3 to 8) (size 9 to 14) (size 15 to 20)
#    0.000    2.857    0.000    2.143    0.000    5.000 
#    0.000    2.857    0.000    2.571    0.000    0.000 
#    0.000   26.000    0.000    0.000    0.000    0.000 
#
# Total GULP energy -623580.605797 kJ/mol
# GULP energy per Si atom -5567.683980 kJ/mol
# Density = 1.504071 g / cm^3
# Si number density = 15.075018 Si / 1000 Ang^3
#
#
#
# Elastic Constant Matrix: (Units=GPa)
#
#
# Indices 1 2 3 4 5 6 
#
# 1 64.1043 42.2872 57.3858 0.0000 0.0000 0.0000
# 2 42.2872 64.1044 57.3858 0.0000 0.0000 0.0000
# 3 57.3858 57.3858 128.2233 0.0000 0.0000 0.0000
# 4 0.0000 0.0000 0.0000 16.9527 0.0000 0.0000
# 5 0.0000 0.0000 0.0000 0.0000 16.9526 0.0000
# 6 0.0000 0.0000 0.0000 0.0000 0.0000 18.0245
#
#
#
# Elastic Compliance Matrix: (Units=1/GPa)
#
#
# Indices 1 2 3 4 5 6 
#
# 1 0.032004 -0.013831 -0.008133 0.000000 0.000000 0.000000
# 2 -0.013831 0.032004 -0.008133 0.000000 0.000000 0.000000
# 3 -0.008133 -0.008133 0.015079 0.000000 0.000000 0.000000
# 4 0.000000 0.000000 0.000000 0.058988 0.000000 0.000000
# 5 0.000000 0.000000 0.000000 0.000000 0.058988 0.000000
# 6 0.000000 0.000000 0.000000 0.000000 0.000000 0.055480
#
#
# Mechanical properties :
#
#
# Convention : Reuss Voigt Hill
#
# Bulk Modulus (GPa) = 52.93233 63.39437 58.16335
# Shear Modulus (GPa) = 15.67219 17.01084 16.34151
#
# Velocity S-wave (km/s) = 3.22780 3.36283 3.29601
# Velocity P-wave (km/s) = 7.00574 7.56453 7.29049
#
# Compressibility (1/GPa) = 0.01889205
#
# Stress axis : x y z
#
# Youngs Moduli (GPa) = 31.24571 31.24582 66.31747
#
# Poissons Ratio (x) = 0.43216 0.53938
# Poissons Ratio (y) = 0.43216 0.53938
# Poissons Ratio (z) = 0.25413 0.25413
#
# Static dielectric constant tensor:
#      x y z
#    x 1.482310 0.000000 0.000000 
#    y 0.000000 1.482310 0.000000 
#    z 0.000000 0.000000 1.515870 
# 
# From -- ./inp_files/7906.got.cif
#   From: 2010.05.17/outbox.cif.g08.bks.cpg/sg129_4_cif.got.tgz:7906.got - 2010.05.20 12:12:06.
