data_PCOD9565952
_publ_section_title
;
Structure prediction by ZEFSAII (Michael W. Deem and Ramdas Pophale) SiO2 
 PCOD9565952
Probable space group: P 4/N C C
;
_chemical_formula_sum "Si O2"
_cell_formula_units_Z 112
_cell_length_a 14.837452
_cell_length_b 14.837452
_cell_length_c 23.531521
_cell_angle_alpha 90.000000
_cell_angle_beta 90.000000
_cell_angle_gamma 90.000000
_cell_volume 5180.463921
_symmetry_space_group_name_H-M "P 4/N C C"
_symmetry_group_IT_number 130
_symmetry_cell_setting 'tetragonal'
loop_
_space_group_symop_operation_xyz
x,y,z
1/2-y,x,z
1/2-x,1/2-y,z
y,1/2-x,z
1/2+x,-y,1/2-z
-x,1/2+y,1/2-z
1/2+y,1/2+x,1/2-z
-y,-x,1/2-z
-x,-y,-z
1/2+y,-x,-z
1/2+x,1/2+y,-z
-y,1/2+x,-z
1/2-x,y,1/2+z
x,1/2-y,1/2+z
1/2-y,1/2-x,1/2+z
y,x,1/2+z
loop_
_atom_site_type_symbol
_atom_site_label
_atom_site_fract_x
_atom_site_fract_y
_atom_site_fract_z
Si Si1 0.836819 0.999196 0.798693
Si Si2 0.578085 0.124195 0.875633
Si Si3 0.654925 0.631793 0.465401
Si Si4 0.182209 0.937551 0.328845
Si Si5 0.047977 0.151166 0.157850
Si Si6 0.906473 0.524758 0.076467
Si Si7 0.143400 0.641926 0.501761
O O1 0.812337 0.025681 0.734754
O O2 0.873123 0.092379 0.828206
O O3 0.915176 0.924843 0.800365
O O4 0.755123 0.941992 0.826442
O O5 0.597736 0.221297 0.848802
O O6 0.482791 0.071456 0.883923
O O7 0.641810 0.058425 0.841515
O O8 0.604141 0.122058 0.940894
O O9 0.763665 0.627339 0.467263
O O10 0.629501 0.586320 0.405240
O O11 0.614127 0.583663 0.520749
O O12 0.170659 0.014554 0.376644
O O13 0.905379 0.422517 0.048126
O O14 0.126807 0.749245 0.494118
#
# Coordination Sequence:
#
# PCOD9565952 Si02
#       7
#    16  16  16  16  16  16  16
#     4  11  28  49  76 104 145 191 248 311 357 440
#     4  12  26  42  74 105 141 196 241 296 370 438
#     4  11  24  42  69 107 147 184 236 298 368 437
#     4  11  27  50  69 107 147 187 247 304 364 437
#     4  12  25  45  80 106 141 191 246 299 369 426
#     4  12  24  43  72 102 146 188 243 296 368 440
#     4  11  25  40  65 105 150 192 233 293 368 446
#
# _framework density 21.619685
#
# number of rings (size 3 to 8) (size 9 to 14) (size 15 to 20)
#    0.000    0.571    5.714    1.286    4.000    1.429 
#    0.000    1.429    0.000    0.000    0.000    0.000 
#    0.000    0.000    0.000    0.000    0.000    0.000 
#
# Total GULP energy -624002.132730 kJ/mol
# GULP energy per Si atom -5571.447614 kJ/mol
# Density = 2.157048 g / cm^3
# Si number density = 21.619685 Si / 1000 Ang^3
#
#
#
# Elastic Constant Matrix: (Units=GPa)
#
#
# Indices 1 2 3 4 5 6 
#
# 1 55.8093 -0.5064 -7.4184 0.0000 0.0000 0.0000
# 2 -0.5064 55.8093 -7.4184 0.0000 0.0000 0.0000
# 3 -7.4184 -7.4184 93.6672 0.0000 0.0000 0.0000
# 4 0.0000 0.0000 0.0000 97.8131 0.0000 0.0000
# 5 0.0000 0.0000 0.0000 0.0000 97.8131 0.0000
# 6 0.0000 0.0000 0.0000 0.0000 0.0000 40.5672
#
#
#
# Elastic Compliance Matrix: (Units=1/GPa)
#
#
# Indices 1 2 3 4 5 6 
#
# 1 0.018116 0.000359 0.001463 0.000000 0.000000 0.000000
# 2 0.000359 0.018116 0.001463 0.000000 0.000000 0.000000
# 3 0.001463 0.001463 0.010908 0.000000 0.000000 0.000000
# 4 0.000000 0.000000 0.000000 0.010224 0.000000 0.000000
# 5 0.000000 0.000000 0.000000 0.000000 0.010224 0.000000
# 6 0.000000 0.000000 0.000000 0.000000 0.000000 0.024650
#
#
# Mechanical properties :
#
#
# Convention : Reuss Voigt Hill
#
# Bulk Modulus (GPa) = 18.61844 19.39994 19.00919
# Shear Modulus (GPa) = 48.27642 61.94725 55.11184
#
# Velocity S-wave (km/s) = 4.73057 5.35867 5.05439
# Velocity P-wave (km/s) = 6.20228 6.87604 6.54783
#
# Compressibility (1/GPa) = 0.05371018
#
# Stress axis : x y z
#
# Youngs Moduli (GPa) = 55.20010 55.20010 91.67700
#
# Poissons Ratio (x) = -0.01981 -0.13414
# Poissons Ratio (y) = -0.01981 -0.13414
# Poissons Ratio (z) = -0.08077 -0.08077
#
# Static dielectric constant tensor:
#      x y z
#    x 1.758180 0.000000 0.000000 
#    y 0.000000 1.758180 0.000000 
#    z 0.000000 0.000000 1.757170 
# 
# From -- ./inp_files/4273.got.cif
#   From: 2010.05.17/outbox.cif.g08.bks.cpg/sg130_3_cif.got.tgz:4273.got - 2010.05.20 12:17:35.
