data_PCOD9565564
_publ_section_title
;
Structure prediction by ZEFSAII (Michael W. Deem and Ramdas Pophale) SiO2 
 PCOD9565564
Probable space group: P 4/N C C
;
_chemical_formula_sum "Si O2"
_cell_formula_units_Z 112
_cell_length_a 15.034143
_cell_length_b 15.034143
_cell_length_c 24.382013
_cell_angle_alpha 90.000000
_cell_angle_beta 90.000000
_cell_angle_gamma 90.000000
_cell_volume 5510.955600
_symmetry_space_group_name_H-M "P 4/N C C"
_symmetry_group_IT_number 130
_symmetry_cell_setting 'tetragonal'
loop_
_space_group_symop_operation_xyz
x,y,z
1/2-y,x,z
1/2-x,1/2-y,z
y,1/2-x,z
1/2+x,-y,1/2-z
-x,1/2+y,1/2-z
1/2+y,1/2+x,1/2-z
-y,-x,1/2-z
-x,-y,-z
1/2+y,-x,-z
1/2+x,1/2+y,-z
-y,1/2+x,-z
1/2-x,y,1/2+z
x,1/2-y,1/2+z
1/2-y,1/2-x,1/2+z
y,x,1/2+z
loop_
_atom_site_type_symbol
_atom_site_label
_atom_site_fract_x
_atom_site_fract_y
_atom_site_fract_z
Si Si1 0.907464 0.566202 0.685844
Si Si2 0.396519 0.252270 0.997879
Si Si3 0.535668 0.542661 0.883626
Si Si4 0.425207 0.818569 0.449619
Si Si5 0.639483 0.650400 0.800594
Si Si6 0.634969 0.371482 0.930529
Si Si7 0.479200 0.234728 0.378293
O O1 0.891835 0.588947 0.748829
O O2 0.820611 0.521342 0.659588
O O3 0.926760 0.658263 0.654184
O O4 0.989468 0.505462 0.668017
O O5 0.334288 0.337690 0.008761
O O6 0.426037 0.248257 0.934517
O O7 0.485687 0.266620 0.031488
O O8 0.459949 0.595263 0.917304
O O9 0.602749 0.613377 0.857722
O O10 0.585466 0.465491 0.917676
O O11 0.375684 0.849586 0.504859
O O12 0.373335 0.740197 0.418012
O O13 0.743724 0.628950 0.797046
O O14 0.576313 0.300468 0.896564
#
# Coordination Sequence:
#
# PCOD9565564 Si02
#       7
#    16  16  16  16  16  16  16
#     4  11  21  38  63  91 125 163 206 263 316 384
#     4  10  19  30  54  87 119 154 195 260 325 372
#     4  11  24  41  63  90 127 171 204 253 322 383
#     4  11  23  40  59  82 125 163 219 251 304 376
#     4  11  23  40  67  98 126 156 203 263 327 385
#     4  10  24  40  62  89 121 168 212 266 305 374
#     4  10  20  35  60  91 123 155 207 264 325 362
#
# _framework density 20.323153000000001
#
# number of rings (size 3 to 8) (size 9 to 14) (size 15 to 20)
#    0.000    1.429    2.857    2.571    4.000    0.571 
#    0.000    1.429    0.000    0.000    0.000    2.000 
#    0.000    0.000    0.000    0.000    0.000    0.000 
#
# Total GULP energy -626020.483877 kJ/mol
# GULP energy per Si atom -5589.468606 kJ/mol
# Density = 2.027690 g / cm^3
# Si number density = 20.323153 Si / 1000 Ang^3
#
#
#
# Elastic Constant Matrix: (Units=GPa)
#
#
# Indices 1 2 3 4 5 6 
#
# 1 64.4435 33.4535 24.1207 0.0000 0.0000 0.0000
# 2 33.4535 64.4435 24.1207 0.0000 0.0000 0.0000
# 3 24.1207 24.1207 58.8704 0.0000 0.0000 0.0000
# 4 0.0000 0.0000 0.0000 23.8076 0.0000 0.0000
# 5 0.0000 0.0000 0.0000 0.0000 23.8076 0.0000
# 6 0.0000 0.0000 0.0000 0.0000 0.0000 10.6430
#
#
#
# Elastic Compliance Matrix: (Units=1/GPa)
#
#
# Indices 1 2 3 4 5 6 
#
# 1 0.022534 -0.009735 -0.005244 0.000000 0.000000 0.000000
# 2 -0.009735 0.022534 -0.005244 0.000000 0.000000 0.000000
# 3 -0.005244 -0.005244 0.021284 0.000000 0.000000 0.000000
# 4 0.000000 0.000000 0.000000 0.042003 0.000000 0.000000
# 5 0.000000 0.000000 0.000000 0.000000 0.042003 0.000000
# 6 0.000000 0.000000 0.000000 0.000000 0.000000 0.093958
#
#
# Mechanical properties :
#
#
# Convention : Reuss Voigt Hill
#
# Bulk Modulus (GPa) = 38.60196 39.01634 38.80915
# Shear Modulus (GPa) = 17.04176 18.72249 17.88213
#
# Velocity S-wave (km/s) = 2.89890 3.03849 2.96951
# Velocity P-wave (km/s) = 5.49910 5.61690 5.55831
#
# Compressibility (1/GPa) = 0.02590542
#
# Stress axis : x y z
#
# Youngs Moduli (GPa) = 44.37796 44.37796 46.98428
#
# Poissons Ratio (x) = 0.43201 0.24639
# Poissons Ratio (y) = 0.43201 0.24639
# Poissons Ratio (z) = 0.23272 0.23272
#
# Static dielectric constant tensor:
#      x y z
#    x 1.733670 0.000000 0.000000 
#    y 0.000000 1.733670 0.000000 
#    z 0.000000 0.000000 1.683260 
# 
# From -- ./inp_files/4267.got.cif
#   From: 2010.05.17/outbox.cif.g08.bks.cpg/sg130_3_cif.got.tgz:4267.got - 2010.05.20 12:17:35.
