data_PCOD9565759
_publ_section_title
;
Structure prediction by ZEFSAII (Michael W. Deem and Ramdas Pophale) SiO2 
 PCOD9565759
Probable space group: P 4/N C C
;
_chemical_formula_sum "Si O2"
_cell_formula_units_Z 96
_cell_length_a 13.410703
_cell_length_b 13.410703
_cell_length_c 20.367995
_cell_angle_alpha 90.000000
_cell_angle_beta 90.000000
_cell_angle_gamma 90.000000
_cell_volume 3663.121879
_symmetry_space_group_name_H-M "P 4/N C C"
_symmetry_group_IT_number 130
_symmetry_cell_setting 'tetragonal'
loop_
_space_group_symop_operation_xyz
x,y,z
1/2-y,x,z
1/2-x,1/2-y,z
y,1/2-x,z
1/2+x,-y,1/2-z
-x,1/2+y,1/2-z
1/2+y,1/2+x,1/2-z
-y,-x,1/2-z
-x,-y,-z
1/2+y,-x,-z
1/2+x,1/2+y,-z
-y,1/2+x,-z
1/2-x,y,1/2+z
x,1/2-y,1/2+z
1/2-y,1/2-x,1/2+z
y,x,1/2+z
loop_
_atom_site_type_symbol
_atom_site_label
_atom_site_fract_x
_atom_site_fract_y
_atom_site_fract_z
Si Si1 0.750000 0.750000 0.419237
Si Si2 0.847468 0.347468 0.250000
Si Si3 0.913998 0.588975 0.876961
Si Si4 0.099674 0.779484 0.484802
Si Si5 0.268218 0.549304 0.658060
Si Si6 0.599475 0.530540 0.079619
Si Si7 0.750000 0.750000 0.212310
Si Si8 0.211495 0.467250 0.838005
O O1 0.671796 0.653508 0.413386
O O2 0.752926 0.359254 0.296697
O O3 0.839937 0.443807 0.201579
O O4 0.857354 0.522129 0.823230
O O5 0.985600 0.667185 0.843395
O O6 0.975344 0.506395 0.917221
O O7 0.190989 0.855392 0.470508
O O8 0.076835 0.721932 0.418031
O O9 0.007034 0.839008 0.515699
O O10 0.679767 0.500059 0.135691
O O11 0.573383 0.645159 0.099212
O O12 0.774819 0.630085 0.206498
#
# Coordination Sequence:
#
# PCOD9565759 Si02
#       8
#     4   8  16  16  16  16   4  16
#     4   8  20  40  73 105 144 186 224 298 344 452
#     4  12  24  44  69  98 146 185 244 296 344 450
#     4  10  21  43  71 103 146 179 242 286 369 428
#     4  11  24  42  70 100 143 185 240 296 373 449
#     4  11  24  44  66 105 134 189 230 292 361 422
#     4  11  22  45  73 103 141 188 234 308 360 440
#     4   8  20  44  69 101 142 188 244 298 356 442
#     4  10  23  43  72 107 141 188 247 293 375 428
#
# _framework density 26.207156000000001
#
# number of rings (size 3 to 8) (size 9 to 14) (size 15 to 20)
#    0.000    1.500    3.333    1.000    0.000    4.667 
#    0.000    4.167    0.000    6.000    0.000    0.000 
#    0.000    0.000    0.000    0.000    0.000    0.000 
#
# Total GULP energy -534550.839981 kJ/mol
# GULP energy per Si atom -5568.237916 kJ/mol
# Density = 2.614751 g / cm^3
# Si number density = 26.207156 Si / 1000 Ang^3
#
#
#
# Elastic Constant Matrix: (Units=GPa)
#
#
# Indices 1 2 3 4 5 6 
#
# 1 119.4107 19.0463 14.4705 0.0000 0.0000 0.0000
# 2 19.0463 119.4107 14.4705 0.0000 0.0000 0.0000
# 3 14.4705 14.4705 46.9368 0.0000 0.0000 0.0000
# 4 0.0000 0.0000 0.0000 4.7407 0.0000 0.0000
# 5 0.0000 0.0000 0.0000 0.0000 4.7407 0.0000
# 6 0.0000 0.0000 0.0000 0.0000 0.0000 68.0941
#
#
#
# Elastic Compliance Matrix: (Units=1/GPa)
#
#
# Indices 1 2 3 4 5 6 
#
# 1 0.008842 -0.001122 -0.002380 0.000000 0.000000 0.000000
# 2 -0.001122 0.008842 -0.002380 0.000000 0.000000 0.000000
# 3 -0.002380 -0.002380 0.022773 0.000000 0.000000 0.000000
# 4 0.000000 0.000000 0.000000 0.210940 0.000000 0.000000
# 5 0.000000 0.000000 0.000000 0.000000 0.210940 0.000000
# 6 0.000000 0.000000 0.000000 0.000000 0.000000 0.014686
#
#
# Mechanical properties :
#
#
# Convention : Reuss Voigt Hill
#
# Bulk Modulus (GPa) = 34.85229 42.41473 38.63351
# Shear Modulus (GPa) = 10.03310 31.36650 20.69980
#
# Velocity S-wave (km/s) = 1.95875 3.46333 2.81348
# Velocity P-wave (km/s) = 4.29456 5.67560 5.03268
#
# Compressibility (1/GPa) = 0.02869252
#
# Stress axis : x y z
#
# Youngs Moduli (GPa) = 113.09897 113.09897 43.91211
#
# Poissons Ratio (x) = 0.12688 0.10451
# Poissons Ratio (y) = 0.12688 0.10451
# Poissons Ratio (z) = 0.26918 0.26918
#
# Static dielectric constant tensor:
#      x y z
#    x 2.017270 0.000000 0.000000 
#    y 0.000000 2.017270 0.000000 
#    z 0.000000 0.000000 2.205620 
# 
# From -- ./inp_files/3866.got.cif
#   From: 2010.05.17/outbox.cif.g08.bks.cpg/sg130_2_cif.got.tgz:3866.got - 2010.05.20 12:17:35.
