data_PCOD9565676
_publ_section_title
;
Structure prediction by ZEFSAII (Michael W. Deem and Ramdas Pophale) SiO2 
 PCOD9565676
Probable space group: P 4/N C C
;
_chemical_formula_sum "Si O2"
_cell_formula_units_Z 88
_cell_length_a 11.641304
_cell_length_b 11.641304
_cell_length_c 31.159332
_cell_angle_alpha 90.000000
_cell_angle_beta 90.000000
_cell_angle_gamma 90.000000
_cell_volume 4222.711390
_symmetry_space_group_name_H-M "P 4/N C C"
_symmetry_group_IT_number 130
_symmetry_cell_setting 'tetragonal'
loop_
_space_group_symop_operation_xyz
x,y,z
1/2-y,x,z
1/2-x,1/2-y,z
y,1/2-x,z
1/2+x,-y,1/2-z
-x,1/2+y,1/2-z
1/2+y,1/2+x,1/2-z
-y,-x,1/2-z
-x,-y,-z
1/2+y,-x,-z
1/2+x,1/2+y,-z
-y,1/2+x,-z
1/2-x,y,1/2+z
x,1/2-y,1/2+z
1/2-y,1/2-x,1/2+z
y,x,1/2+z
loop_
_atom_site_type_symbol
_atom_site_label
_atom_site_fract_x
_atom_site_fract_y
_atom_site_fract_z
Si Si1 0.951177 0.048823 0.750000
Si Si2 0.439748 0.964528 0.605456
Si Si3 0.885070 0.613007 0.175611
Si Si4 0.911275 0.647985 0.456693
Si Si5 0.804116 0.937776 0.816920
Si Si6 0.667121 0.096778 0.019995
O O1 0.050644 0.050224 0.785458
O O2 0.976607 0.162904 0.721930
O O3 0.548659 0.922424 0.632393
O O4 0.398845 0.873957 0.569058
O O5 0.475577 0.080461 0.580460
O O6 0.339736 0.997819 0.639266
O O7 0.905911 0.748151 0.178344
O O8 0.900435 0.783486 0.452503
O O9 0.974471 0.628235 0.501355
O O10 0.675430 0.887473 0.814839
O O11 0.611878 0.198404 0.991000
#
# Coordination Sequence:
#
# PCOD9565676 Si02
#       6
#     8  16  16  16  16  16
#     4  10  20  38  66  98 128 166 208 262 338 392
#     4  11  23  39  64  94 129 170 223 279 339 392
#     4  10  23  42  68  99 133 175 222 277 333 407
#     4  11  23  41  65  90 120 169 232 282 327 396
#     4  10  21  39  66  95 127 167 218 274 324 394
#     4  11  25  43  62  91 134 182 222 284 359 407
#
# _framework density 20.839690999999998
#
# number of rings (size 3 to 8) (size 9 to 14) (size 15 to 20)
#    0.000    1.455    1.818    2.727    2.545    2.909 
#    0.000    1.818    0.000   42.545    0.000    0.000 
#    0.000    0.000    0.000    0.000    0.000    0.000 
#
# Total GULP energy -491016.751705 kJ/mol
# GULP energy per Si atom -5579.735815 kJ/mol
# Density = 2.079226 g / cm^3
# Si number density = 20.839691 Si / 1000 Ang^3
#
#
#
# Elastic Constant Matrix: (Units=GPa)
#
#
# Indices 1 2 3 4 5 6 
#
# 1 92.0234 48.9970 50.9250 0.0000 0.0000 0.0000
# 2 48.9970 92.0229 50.9249 0.0000 0.0000 0.0000
# 3 50.9250 50.9249 146.5059 0.0000 0.0000 0.0000
# 4 0.0000 0.0000 0.0000 27.7692 0.0000 0.0000
# 5 0.0000 0.0000 0.0000 0.0000 27.7692 0.0000
# 6 0.0000 0.0000 0.0000 0.0000 0.0000 25.0027
#
#
#
# Elastic Compliance Matrix: (Units=1/GPa)
#
#
# Indices 1 2 3 4 5 6 
#
# 1 0.016355 -0.006887 -0.003291 0.000000 0.000000 0.000000
# 2 -0.006887 0.016355 -0.003291 0.000000 0.000000 0.000000
# 3 -0.003291 -0.003291 0.009114 0.000000 0.000000 0.000000
# 4 0.000000 0.000000 0.000000 0.036011 0.000000 0.000000
# 5 0.000000 0.000000 0.000000 0.000000 0.036011 0.000000
# 6 0.000000 0.000000 0.000000 0.000000 0.000000 0.039996
#
#
# Mechanical properties :
#
#
# Convention : Reuss Voigt Hill
#
# Bulk Modulus (GPa) = 67.17945 70.24956 68.71451
# Shear Modulus (GPa) = 26.91922 28.08860 27.50391
#
# Velocity S-wave (km/s) = 3.59796 3.67528 3.63683
# Velocity P-wave (km/s) = 7.04036 7.19673 7.11898
#
# Compressibility (1/GPa) = 0.01488550
#
# Stress axis : x y z
#
# Youngs Moduli (GPa) = 61.14390 61.14356 109.72609
#
# Poissons Ratio (x) = 0.42108 0.36112
# Poissons Ratio (y) = 0.42108 0.36112
# Poissons Ratio (z) = 0.20123 0.20123
#
# Static dielectric constant tensor:
#      x y z
#    x 1.769460 0.000000 0.000000 
#    y 0.000000 1.769460 0.000000 
#    z 0.000000 0.000000 1.763920 
# 
# From -- ./inp_files/4881.got.cif
#   From: 2010.05.17/outbox.cif.g08.bks.cpg/sg130_3_cif.got.tgz:4881.got - 2010.05.20 12:17:35.
