data_PCOD9565323
_publ_section_title
;
Structure prediction by ZEFSAII (Michael W. Deem and Ramdas Pophale) SiO2 
 PCOD9565323
Probable space group: P 4/N M M
;
_chemical_formula_sum "Si O2"
_cell_formula_units_Z 80
_cell_length_a 24.490896
_cell_length_b 24.490896
_cell_length_c 7.231656
_cell_angle_alpha 90.000000
_cell_angle_beta 90.000000
_cell_angle_gamma 90.000000
_cell_volume 4337.576101
_symmetry_space_group_name_H-M "P 4/N M M"
_symmetry_group_IT_number 129
_symmetry_cell_setting 'tetragonal'
loop_
_space_group_symop_operation_xyz
x,y,z
1/2-y,x,z
1/2-x,1/2-y,z
y,1/2-x,z
1/2+x,-y,-z
-x,1/2+y,-z
1/2+y,1/2+x,-z
-y,-x,-z
-x,-y,-z
1/2+y,-x,-z
1/2+x,1/2+y,-z
-y,1/2+x,-z
1/2-x,y,z
x,1/2-y,z
1/2-y,1/2-x,z
y,x,z
loop_
_atom_site_type_symbol
_atom_site_label
_atom_site_fract_x
_atom_site_fract_y
_atom_site_fract_z
Si Si1 0.635034 0.864967 0.458420
Si Si2 0.413939 0.250000 0.544061
Si Si3 0.497913 0.750000 0.169562
Si Si4 0.071775 0.071775 0.826734
Si Si5 0.250000 0.983002 0.273632
Si Si6 0.936806 0.563195 0.730640
Si Si7 0.130672 0.960081 0.802203
Si Si8 0.048418 0.626541 0.751159
O O1 0.621272 0.802906 0.481065
O O2 0.614106 0.885895 0.259400
O O3 0.601510 0.898491 0.610403
O O4 0.441832 0.250000 0.746046
O O5 0.462908 0.250000 0.396579
O O6 0.470919 0.693886 0.241692
O O7 0.496090 0.750000 0.946878
O O8 0.012530 0.092471 0.759869
O O9 0.070725 0.070725 0.048573
O O10 0.309934 0.955491 0.310423
O O11 0.913272 0.502061 0.692153
O O12 0.103898 0.906658 0.713756
O O13 0.128954 0.955273 0.024997
#
# Coordination Sequence:
#
# PCOD9565323 Si02
#       8
#     8   8   8   8   8   8  16  16
#     4  12  24  37  57  80 106 140 186 226 261 321
#     4  12  24  39  56  80 106 141 188 222 264 322
#     4  10  20  36  57  78 109 148 180 219 267 321
#     4  10  19  34  55  81 110 139 171 223 282 326
#     4  10  20  36  57  78 109 148 180 219 267 321
#     4  10  19  34  55  81 110 139 171 223 282 326
#     4   9  17  31  54  82 110 142 178 218 271 326
#     4   9  17  31  54  82 110 142 178 218 271 326
#
# _framework density 18.443479
#
# number of rings (size 3 to 8) (size 9 to 14) (size 15 to 20)
#    0.000    2.000    4.000    0.600    0.000    2.600 
#    0.000    5.000    0.000    0.600    0.000    7.000 
#    0.000    1.600    0.000    0.200    0.000    0.000 
#
# Total GULP energy -446049.125634 kJ/mol
# GULP energy per Si atom -5575.614070 kJ/mol
# Density = 1.840150 g / cm^3
# Si number density = 18.443479 Si / 1000 Ang^3
#
#
#
# Elastic Constant Matrix: (Units=GPa)
#
#
# Indices 1 2 3 4 5 6 
#
# 1 69.3928 101.4405 -7.6946 0.0000 0.0000 0.0000
# 2 101.4405 69.3928 -7.6946 0.0000 0.0000 0.0000
# 3 -7.6946 -7.6946 52.8165 0.0000 0.0000 0.0000
# 4 0.0000 0.0000 0.0000 -0.6783 0.0000 0.0000
# 5 0.0000 0.0000 0.0000 0.0000 -0.6783 0.0000
# 6 0.0000 0.0000 0.0000 0.0000 0.0000 31.7974
#
#
#
# Elastic Compliance Matrix: (Units=1/GPa)
#
#
# Indices 1 2 3 4 5 6 
#
# 1 -0.012636 0.018567 0.000864 0.000000 0.000000 0.000000
# 2 0.018567 -0.012636 0.000864 0.000000 0.000000 0.000000
# 3 0.000864 0.000864 0.019185 0.000000 0.000000 0.000000
# 4 0.000000 0.000000 0.000000 -1.474293 0.000000 0.000000
# 5 0.000000 0.000000 0.000000 0.000000 -1.474293 0.000000
# 6 0.000000 0.000000 0.000000 0.000000 0.000000 0.031449
#
#
# Mechanical properties :
#
#
# Convention : Reuss Voigt Hill
#
# Bulk Modulus (GPa) = 28.98147 40.41161 34.69654
# Shear Modulus (GPa) = -1.69359 13.12489 5.71565
#
# Velocity S-wave (km/s) = -0.95930 2.67053 1.76231
# Velocity P-wave (km/s) = 3.81061 5.60960 4.79523
#
# Compressibility (1/GPa) = 0.03450481
#
# Stress axis : x y z
#
# Youngs Moduli (GPa) = -79.13903 -79.13903 52.12338
#
# Poissons Ratio (x) = 1.46941 -0.04504
# Poissons Ratio (y) = 1.46941 -0.04504
# Poissons Ratio (z) = 0.06839 0.06839
#
# Static dielectric constant tensor:
#      x y z
#    x 1.645520 0.000000 0.000000 
#    y 0.000000 1.645520 0.000000 
#    z 0.000000 0.000000 1.666670 
# 
# From -- ./inp_files/2587.got.cif
#   From: 2010.05.17/outbox.cif.g08.bks.cpg/sg129_2_cif.got.tgz:2587.got - 2010.05.20 12:12:06.
