data_PCOD9565745
_publ_section_title
;
Structure prediction by ZEFSAII (Michael W. Deem and Ramdas Pophale) SiO2 
 PCOD9565745
Probable space group: P 4/N C C
;
_chemical_formula_sum "Si O2"
_cell_formula_units_Z 68
_cell_length_a 16.298991
_cell_length_b 16.298991
_cell_length_c 10.247510
_cell_angle_alpha 90.000000
_cell_angle_beta 90.000000
_cell_angle_gamma 90.000000
_cell_volume 2722.323867
_symmetry_space_group_name_H-M "P 4/N C C"
_symmetry_group_IT_number 130
_symmetry_cell_setting 'tetragonal'
loop_
_space_group_symop_operation_xyz
x,y,z
1/2-y,x,z
1/2-x,1/2-y,z
y,1/2-x,z
1/2+x,-y,1/2-z
-x,1/2+y,1/2-z
1/2+y,1/2+x,1/2-z
-y,-x,1/2-z
-x,-y,-z
1/2+y,-x,-z
1/2+x,1/2+y,-z
-y,1/2+x,-z
1/2-x,y,1/2+z
x,1/2-y,1/2+z
1/2-y,1/2-x,1/2+z
y,x,1/2+z
loop_
_atom_site_type_symbol
_atom_site_label
_atom_site_fract_x
_atom_site_fract_y
_atom_site_fract_z
Si Si1 0.245342 0.489319 0.809404
Si Si2 0.250000 0.250000 0.539895
Si Si3 0.880888 0.620826 0.050968
Si Si4 0.019329 0.604316 0.365064
Si Si5 0.311863 0.642670 0.470006
O O1 0.301402 0.499225 0.680951
O O2 0.167630 0.427119 0.830451
O O3 0.314002 0.445716 0.898808
O O4 0.215486 0.577663 0.861049
O O5 0.312465 0.328610 0.527648
O O6 0.920934 0.554428 0.957157
O O7 0.042586 0.542586 0.250000
O O8 0.100312 0.616305 0.450041
O O9 0.233468 0.658663 0.564342
#
# Coordination Sequence:
#
# PCOD9565745 Si02
#       5
#    16   4  16  16  16
#     4  10  21  40  61  93 123 166 207 258 313 376
#     4   8  16  40  62  88 116 166 204 248 294 364
#     4   9  21  38  65  89 130 162 210 260 309 374
#     4  11  22  39  62  92 127 168 210 262 324 380
#     4  10  21  40  63  85 119 161 212 267 306 372
#
# _framework density 24.978660000000001
#
# number of rings (size 3 to 8) (size 9 to 14) (size 15 to 20)
#    0.000    2.118    2.353    0.000    0.000    7.529 
#    0.000    4.706    0.000    0.000    0.000    0.000 
#    0.000    0.000    0.000    0.000    0.000    0.000 
#
# Total GULP energy -378785.358784 kJ/mol
# GULP energy per Si atom -5570.372923 kJ/mol
# Density = 2.492181 g / cm^3
# Si number density = 24.978660 Si / 1000 Ang^3
#
#
#
# Elastic Constant Matrix: (Units=GPa)
#
#
# Indices 1 2 3 4 5 6 
#
# 1 106.1547 18.7754 9.5347 0.0000 0.0000 0.0000
# 2 18.7754 106.1547 9.5347 0.0000 0.0000 0.0000
# 3 9.5347 9.5347 22.4618 0.0000 0.0000 0.0000
# 4 0.0000 0.0000 0.0000 24.8486 0.0000 0.0000
# 5 0.0000 0.0000 0.0000 0.0000 24.8486 0.0000
# 6 0.0000 0.0000 0.0000 0.0000 0.0000 60.7826
#
#
#
# Elastic Compliance Matrix: (Units=1/GPa)
#
#
# Indices 1 2 3 4 5 6 
#
# 1 0.010002 -0.001443 -0.003633 0.000000 0.000000 0.000000
# 2 -0.001443 0.010002 -0.003633 0.000000 0.000000 0.000000
# 3 -0.003633 -0.003633 0.047605 0.000000 0.000000 0.000000
# 4 0.000000 0.000000 0.000000 0.040244 0.000000 0.000000
# 5 0.000000 0.000000 0.000000 0.000000 0.040244 0.000000
# 6 0.000000 0.000000 0.000000 0.000000 0.000000 0.016452
#
#
# Mechanical properties :
#
#
# Convention : Reuss Voigt Hill
#
# Bulk Modulus (GPa) = 19.92435 34.49565 27.21000
# Shear Modulus (GPa) = 25.16414 35.22440 30.19427
#
# Velocity S-wave (km/s) = 3.17744 3.75931 3.48056
# Velocity P-wave (km/s) = 4.63199 5.71693 5.20282
#
# Compressibility (1/GPa) = 0.05018985
#
# Stress axis : x y z
#
# Youngs Moduli (GPa) = 99.98291 99.98291 21.00639
#
# Poissons Ratio (x) = 0.14424 0.07632
# Poissons Ratio (y) = 0.14424 0.07632
# Poissons Ratio (z) = 0.36326 0.36326
#
# Static dielectric constant tensor:
#      x y z
#    x 1.979440 0.000000 0.000000 
#    y 0.000000 1.979440 0.000000 
#    z 0.000000 0.000000 2.033650 
# 
# From -- ./inp_files/1630.got.cif
#   From: 2010.05.17/outbox.cif.g08.bks.cpg/sg130_1_cif.got.tgz:1630.got - 2010.05.20 12:17:35.
