data_PCOD9565911
_publ_section_title
;
Structure prediction by ZEFSAII (Michael W. Deem and Ramdas Pophale) SiO2 
 PCOD9565911
Probable space group: P 4/N C C
;
_chemical_formula_sum "Si O2"
_cell_formula_units_Z 96
_cell_length_a 25.375237
_cell_length_b 25.375237
_cell_length_c 8.527656
_cell_angle_alpha 90.000000
_cell_angle_beta 90.000000
_cell_angle_gamma 90.000000
_cell_volume 5490.980321
_symmetry_space_group_name_H-M "P 4/N C C"
_symmetry_group_IT_number 130
_symmetry_cell_setting 'tetragonal'
loop_
_space_group_symop_operation_xyz
x,y,z
1/2-y,x,z
1/2-x,1/2-y,z
y,1/2-x,z
1/2+x,-y,1/2-z
-x,1/2+y,1/2-z
1/2+y,1/2+x,1/2-z
-y,-x,1/2-z
-x,-y,-z
1/2+y,-x,-z
1/2+x,1/2+y,-z
-y,1/2+x,-z
1/2-x,y,1/2+z
x,1/2-y,1/2+z
1/2-y,1/2-x,1/2+z
y,x,1/2+z
loop_
_atom_site_type_symbol
_atom_site_label
_atom_site_fract_x
_atom_site_fract_y
_atom_site_fract_z
Si Si1 0.477272 0.697048 0.832110
Si Si2 0.860601 0.303718 0.631014
Si Si3 0.634170 0.187826 0.118072
Si Si4 0.920780 0.998736 0.819751
Si Si5 0.808923 0.478383 0.208986
Si Si6 0.085717 0.995609 0.805077
O O1 0.416016 0.695392 0.779818
O O2 0.499574 0.752989 0.773721
O O3 0.502052 0.644835 0.758637
O O4 0.474853 0.695258 0.021091
O O5 0.813312 0.313312 0.750000
O O6 0.855701 0.351786 0.510216
O O7 0.859189 0.246606 0.552155
O O8 0.677667 0.177667 0.250000
O O9 0.577718 0.183662 0.201116
O O10 0.959248 0.951616 0.767582
O O11 0.862326 0.991343 0.751754
O O12 0.948488 0.051513 0.750000
O O13 0.917517 0.002278 0.007212
O O14 0.059520 0.940481 0.750000
#
# Coordination Sequence:
#
# PCOD9565911 Si02
#       6
#    16  16  16  16  16  16
#     4  11  23  38  55  78 105 141 180 222 274 332
#     4  11  24  33  51  66  93 127 176 223 278 325
#     4  11  22  37  48  68  91 130 173 227 277 322
#     4  11  22  37  59  84 112 143 181 228 277 329
#     4  11  23  37  56  76 106 140 179 222 274 330
#     4  11  22  37  58  84 111 142 182 227 278 330
#
# _framework density 17.483217
#
# number of rings (size 3 to 8) (size 9 to 14) (size 15 to 20)
#    0.000    1.000    1.667    7.000   11.667    2.000 
#    0.000    0.000    0.000    0.000    0.000    0.000 
#    0.000    0.667    0.000    6.667    0.000    4.000 
#
# Total GULP energy -536064.633918 kJ/mol
# GULP energy per Si atom -5584.006603 kJ/mol
# Density = 1.744342 g / cm^3
# Si number density = 17.483217 Si / 1000 Ang^3
#
#
#
# Elastic Constant Matrix: (Units=GPa)
#
#
# Indices 1 2 3 4 5 6 
#
# 1 79.5451 22.9480 12.0025 0.0000 0.0000 0.0000
# 2 22.9480 79.5463 12.0033 0.0000 0.0000 0.0000
# 3 12.0025 12.0033 50.7176 0.0000 0.0000 0.0000
# 4 0.0000 0.0000 0.0000 26.4692 0.0000 0.0000
# 5 0.0000 0.0000 0.0000 0.0000 26.4691 0.0000
# 6 0.0000 0.0000 0.0000 0.0000 0.0000 20.8704
#
#
#
# Elastic Compliance Matrix: (Units=1/GPa)
#
#
# Indices 1 2 3 4 5 6 
#
# 1 0.013999 -0.003670 -0.002444 0.000000 0.000000 0.000000
# 2 -0.003670 0.013999 -0.002445 0.000000 0.000000 0.000000
# 3 -0.002444 -0.002445 0.020874 0.000000 0.000000 0.000000
# 4 0.000000 0.000000 0.000000 0.037780 0.000000 0.000000
# 5 0.000000 0.000000 0.000000 0.000000 0.037780 0.000000
# 6 0.000000 0.000000 0.000000 0.000000 0.000000 0.047915
#
#
# Mechanical properties :
#
#
# Convention : Reuss Voigt Hill
#
# Bulk Modulus (GPa) = 31.49166 33.74628 32.61897
# Shear Modulus (GPa) = 24.99391 25.61873 25.30632
#
# Velocity S-wave (km/s) = 3.78510 3.83212 3.80868
# Velocity P-wave (km/s) = 6.09543 6.23893 6.16759
#
# Compressibility (1/GPa) = 0.03175444
#
# Stress axis : x y z
#
# Youngs Moduli (GPa) = 71.43375 71.43457 47.90625
#
# Poissons Ratio (x) = 0.26214 0.11710
# Poissons Ratio (y) = 0.26214 0.11711
# Poissons Ratio (z) = 0.17461 0.17463
#
# Static dielectric constant tensor:
#      x y z
#    x 1.605380 0.000000 0.000000 
#    y 0.000000 1.605380 0.000000 
#    z 0.000000 0.000000 1.656010 
# 
# From -- ./inp_files/929.got.cif
#   From: 2010.05.17/outbox.cif.g08.bks.cpg/sg130_1_cif.got.tgz:929.got - 2010.05.20 12:17:35.
