data_PCOD9565161
_publ_section_title
;
Structure prediction by ZEFSAII (Michael W. Deem and Ramdas Pophale) SiO2 
 PCOD9565161
Probable space group: P 4/N M M
;
_chemical_formula_sum "Si O2"
_cell_formula_units_Z 96
_cell_length_a 22.353412
_cell_length_b 22.353412
_cell_length_c 10.110071
_cell_angle_alpha 90.000000
_cell_angle_beta 90.000000
_cell_angle_gamma 90.000000
_cell_volume 5051.750010
_symmetry_space_group_name_H-M "P 4/N M M"
_symmetry_group_IT_number 129
_symmetry_cell_setting 'tetragonal'
loop_
_space_group_symop_operation_xyz
x,y,z
1/2-y,x,z
1/2-x,1/2-y,z
y,1/2-x,z
1/2+x,-y,-z
-x,1/2+y,-z
1/2+y,1/2+x,-z
-y,-x,-z
-x,-y,-z
1/2+y,-x,-z
1/2+x,1/2+y,-z
-y,1/2+x,-z
1/2-x,y,z
x,1/2-y,z
1/2-y,1/2-x,z
y,x,z
loop_
_atom_site_type_symbol
_atom_site_label
_atom_site_fract_x
_atom_site_fract_y
_atom_site_fract_z
Si Si1 0.605681 0.321556 0.098501
Si Si2 0.322397 0.602116 0.407768
Si Si3 0.178460 0.082360 0.704279
Si Si4 0.381119 0.023890 0.450897
Si Si5 0.410680 0.180888 0.215061
Si Si6 0.985133 0.821159 0.039856
O O1 0.602424 0.250000 0.100233
O O2 0.612335 0.338480 0.252670
O O3 0.657163 0.342838 0.000000
O O4 0.544638 0.345474 0.030167
O O5 0.342936 0.657065 0.500000
O O6 0.250000 0.591351 0.416859
O O7 0.361473 0.545058 0.455906
O O8 0.250000 0.087969 0.710037
O O9 0.144957 0.144957 0.726869
O O10 0.157035 0.057055 0.564197
O O11 0.156763 0.036053 0.817884
O O12 0.448501 0.051500 0.463999
O O13 0.356583 0.046520 0.310132
O O14 0.416551 0.250000 0.248587
O O15 0.344679 0.155322 0.233453
O O16 0.432035 0.171980 0.065337
O O17 0.995224 0.750000 0.056271
#
# Coordination Sequence:
#
# PCOD9565161 Si02
#       6
#    16  16  16  16  16  16
#     4  10  22  40  62  89 118 153 195 243 299 362
#     4  11  24  42  66  94 128 164 203 253 308 366
#     4  10  20  33  53  82 115 154 202 253 306 367
#     4  10  21  38  61  86 117 160 207 252 303 357
#     4  10  18  31  53  78 109 149 193 243 300 359
#     4   9  18  34  55  77 106 147 195 233 280 351
#
# _framework density 19.003316000000002
#
# number of rings (size 3 to 8) (size 9 to 14) (size 15 to 20)
#    0.000    2.000    1.667    2.000    2.333    1.667 
#    0.000    1.667    0.000    8.500    0.000    0.000 
#    0.000    0.000    0.000    0.000    0.000    0.000 
#
# Total GULP energy -534833.705228 kJ/mol
# GULP energy per Si atom -5571.184429 kJ/mol
# Density = 1.896006 g / cm^3
# Si number density = 19.003316 Si / 1000 Ang^3
#
#
#
# Elastic Constant Matrix: (Units=GPa)
#
#
# Indices 1 2 3 4 5 6 
#
# 1 44.5295 21.3060 11.1681 0.0000 0.0000 0.0000
# 2 21.3060 44.5403 11.1711 0.0000 0.0000 0.0000
# 3 11.1681 11.1711 64.5966 0.0000 0.0000 0.0000
# 4 0.0000 0.0000 0.0000 21.1094 0.0000 0.0000
# 5 0.0000 0.0000 0.0000 0.0000 21.1094 0.0000
# 6 0.0000 0.0000 0.0000 0.0000 0.0000 23.9934
#
#
#
# Elastic Compliance Matrix: (Units=1/GPa)
#
#
# Indices 1 2 3 4 5 6 
#
# 1 0.029596 -0.013458 -0.002789 0.000000 0.000000 0.000000
# 2 -0.013458 0.029589 -0.002790 0.000000 0.000000 0.000000
# 3 -0.002789 -0.002790 0.016446 0.000000 0.000000 0.000000
# 4 0.000000 0.000000 0.000000 0.047372 0.000000 0.000000
# 5 0.000000 0.000000 0.000000 0.000000 0.047372 0.000000
# 6 0.000000 0.000000 0.000000 0.000000 0.000000 0.041678
#
#
# Mechanical properties :
#
#
# Convention : Reuss Voigt Hill
#
# Bulk Modulus (GPa) = 26.62737 26.77297 26.70017
# Shear Modulus (GPa) = 19.03705 20.57719 19.80712
#
# Velocity S-wave (km/s) = 3.16852 3.29419 3.23197
# Velocity P-wave (km/s) = 5.23721 5.34679 5.29228
#
# Compressibility (1/GPa) = 0.03755534
#
# Stress axis : x y z
#
# Youngs Moduli (GPa) = 33.78876 33.79654 60.80688
#
# Poissons Ratio (x) = 0.45482 0.16962
# Poissons Ratio (y) = 0.45471 0.16967
# Poissons Ratio (z) = 0.09425 0.09430
#
# Static dielectric constant tensor:
#      x y z
#    x 1.678380 0.000000 0.000000 
#    y 0.000000 1.678380 0.000000 
#    z 0.000000 0.000000 1.655290 
# 
# From -- ./inp_files/2633.got.cif
#   From: 2010.05.17/outbox.cif.g08.bks.cpg/sg129_2_cif.got.tgz:2633.got - 2010.05.20 12:12:06.
