data_PCOD9565515
_publ_section_title
;
Structure prediction by ZEFSAII (Michael W. Deem and Ramdas Pophale) SiO2 
 PCOD9565515
Probable space group: P 4/N M M
;
_chemical_formula_sum "Si O2"
_cell_formula_units_Z 52
_cell_length_a 16.189684
_cell_length_b 16.189684
_cell_length_c 9.742096
_cell_angle_alpha 90.000000
_cell_angle_beta 90.000000
_cell_angle_gamma 90.000000
_cell_volume 2553.460528
_symmetry_space_group_name_H-M "P 4/N M M"
_symmetry_group_IT_number 129
_symmetry_cell_setting 'tetragonal'
loop_
_space_group_symop_operation_xyz
x,y,z
1/2-y,x,z
1/2-x,1/2-y,z
y,1/2-x,z
1/2+x,-y,-z
-x,1/2+y,-z
1/2+y,1/2+x,-z
-y,-x,-z
-x,-y,-z
1/2+y,-x,-z
1/2+x,1/2+y,-z
-y,1/2+x,-z
1/2-x,y,z
x,1/2-y,z
1/2-y,1/2-x,z
y,x,z
loop_
_atom_site_type_symbol
_atom_site_label
_atom_site_fract_x
_atom_site_fract_y
_atom_site_fract_z
Si Si1 0.390574 0.109427 0.489440
Si Si2 0.074871 0.653727 0.869826
Si Si3 0.889251 0.610750 0.843452
Si Si4 0.750000 0.750000 0.464921
Si Si5 0.154808 0.568194 0.616518
Si Si6 0.250000 0.250000 0.110646
O O1 0.393298 0.106703 0.323513
O O2 0.322403 0.177598 0.528498
O O3 0.479684 0.132676 0.551032
O O4 0.085564 0.750000 0.831977
O O5 0.100518 0.593674 0.746202
O O6 0.978632 0.636947 0.898578
O O7 0.129902 0.629902 0.000000
O O8 0.821726 0.678275 0.881608
O O9 0.135206 0.635206 0.500000
O O10 0.250000 0.568523 0.656778
#
# Coordination Sequence:
#
# PCOD9565515 Si02
#       6
#     8  16   8   2  16   2
#     4  12  23  44  70 111 143 175 230 291 370 410
#     4  12  27  47  72 100 141 190 236 285 346 416
#     4  12  23  45  73 109 140 176 230 295 364 406
#     4  12  25  40  80 109 146 181 212 305 370 413
#     4  12  25  42  69 100 139 181 232 291 342 411
#     4  12  25  40  84 113 134 173 236 305 338 429
#
# _framework density 20.364521
#
# number of rings (size 3 to 8) (size 9 to 14) (size 15 to 20)
#    0.000    0.000    6.154    5.077    0.000    3.692 
#    0.000    0.000    0.000    3.692    0.000    0.000 
#    0.000    0.000    0.000    0.000    0.000    0.000 
#
# Total GULP energy -289942.722559 kJ/mol
# GULP energy per Si atom -5575.821588 kJ/mol
# Density = 2.031817 g / cm^3
# Si number density = 20.364521 Si / 1000 Ang^3
#
#
#
# Elastic Constant Matrix: (Units=GPa)
#
#
# Indices 1 2 3 4 5 6 
#
# 1 73.3788 82.0137 -15.7640 0.0000 0.0000 0.0000
# 2 82.0137 73.3788 -15.7640 0.0000 0.0000 0.0000
# 3 -15.7640 -15.7640 15.4072 0.0000 0.0000 0.0000
# 4 0.0000 0.0000 0.0000 4.0141 0.0000 0.0000
# 5 0.0000 0.0000 0.0000 0.0000 4.0141 0.0000
# 6 0.0000 0.0000 0.0000 0.0000 0.0000 48.4044
#
#
#
# Elastic Compliance Matrix: (Units=1/GPa)
#
#
# Indices 1 2 3 4 5 6 
#
# 1 -0.053844 0.061965 0.008309 0.000000 0.000000 0.000000
# 2 0.061965 -0.053844 0.008309 0.000000 0.000000 0.000000
# 3 0.008309 0.008309 0.081908 0.000000 0.000000 0.000000
# 4 0.000000 0.000000 0.000000 0.249123 0.000000 0.000000
# 5 0.000000 0.000000 0.000000 0.000000 0.249123 0.000000
# 6 0.000000 0.000000 0.000000 0.000000 0.000000 0.020659
#
#
# Mechanical properties :
#
#
# Convention : Reuss Voigt Hill
#
# Bulk Modulus (GPa) = 7.61106 29.23736 18.42421
# Shear Modulus (GPa) = 13.16644 18.73178 15.94911
#
# Velocity S-wave (km/s) = 2.54547 3.03615 2.80157
# Velocity P-wave (km/s) = 3.51920 5.16518 4.41950
#
# Compressibility (1/GPa) = 0.13138770
#
# Stress axis : x y z
#
# Youngs Moduli (GPa) = -18.57210 -18.57210 12.20879
#
# Poissons Ratio (x) = 1.15083 -0.10145
# Poissons Ratio (y) = 1.15083 -0.10145
# Poissons Ratio (z) = 0.15432 0.15432
#
# Static dielectric constant tensor:
#      x y z
#    x 1.715600 0.000000 0.000000 
#    y 0.000000 1.715600 0.000000 
#    z 0.000000 0.000000 1.720900 
# 
# From -- ./inp_files/3296.got.cif
#   From: 2010.05.17/outbox.cif.g08.bks.cpg/sg129_2_cif.got.tgz:3296.got - 2010.05.20 12:12:06.
