data_PCOD9565589
_publ_section_title
;
Structure prediction by ZEFSAII (Michael W. Deem and Ramdas Pophale) SiO2 
 PCOD9565589
Probable space group: P 4/N C C
;
_chemical_formula_sum "Si O2"
_cell_formula_units_Z 80
_cell_length_a 15.308175
_cell_length_b 15.308175
_cell_length_c 17.586828
_cell_angle_alpha 90.000000
_cell_angle_beta 90.000000
_cell_angle_gamma 90.000000
_cell_volume 4121.301175
_symmetry_space_group_name_H-M "P 4/N C C"
_symmetry_group_IT_number 130
_symmetry_cell_setting 'tetragonal'
loop_
_space_group_symop_operation_xyz
x,y,z
1/2-y,x,z
1/2-x,1/2-y,z
y,1/2-x,z
1/2+x,-y,1/2-z
-x,1/2+y,1/2-z
1/2+y,1/2+x,1/2-z
-y,-x,1/2-z
-x,-y,-z
1/2+y,-x,-z
1/2+x,1/2+y,-z
-y,1/2+x,-z
1/2-x,y,1/2+z
x,1/2-y,1/2+z
1/2-y,1/2-x,1/2+z
y,x,1/2+z
loop_
_atom_site_type_symbol
_atom_site_label
_atom_site_fract_x
_atom_site_fract_y
_atom_site_fract_z
Si Si1 0.081447 0.817407 0.316490
Si Si2 0.178435 0.827081 0.598881
Si Si3 0.426978 0.674810 0.059516
Si Si4 0.879614 0.695372 0.584890
Si Si5 0.795114 0.615823 0.268712
O O1 0.138517 0.861484 0.250000
O O2 0.116069 0.718931 0.333123
O O3 0.103862 0.875199 0.390746
O O4 0.979572 0.818527 0.298272
O O5 0.250000 0.750000 0.589532
O O6 0.177897 0.885820 0.523953
O O7 0.090777 0.769160 0.601162
O O8 0.529355 0.659791 0.055424
O O9 0.860415 0.795287 0.561377
O O10 0.885114 0.698300 0.676811
O O11 0.857127 0.696576 0.292004
#
# Coordination Sequence:
#
# PCOD9565589 Si02
#       5
#    16  16  16  16  16
#     4  11  20  35  61  93 111 140 202 245 274 350
#     4  10  19  36  57  78 121 161 172 226 315 349
#     4  11  18  37  60  81 118 153 187 233 292 353
#     4   9  19  37  59  82 115 159 199 237 292 348
#     4   9  19  39  59  81 121 159 186 241 308 340
#
# _framework density 19.411346000000002
#
# number of rings (size 3 to 8) (size 9 to 14) (size 15 to 20)
#    0.000    2.000    6.000    1.200    0.000    3.600 
#    3.600    3.000    0.000    2.400    0.000    0.000 
#    0.000    0.000    0.000    0.000    0.000    0.000 
#
# Total GULP energy -446059.517715 kJ/mol
# GULP energy per Si atom -5575.743971 kJ/mol
# Density = 1.936717 g / cm^3
# Si number density = 19.411346 Si / 1000 Ang^3
#
#
#
# Elastic Constant Matrix: (Units=GPa)
#
#
# Indices 1 2 3 4 5 6 
#
# 1 68.1473 -4.6609 18.2998 0.0000 0.0000 0.0000
# 2 -4.6609 68.1477 18.2995 0.0000 0.0000 0.0000
# 3 18.2998 18.2995 41.5899 0.0000 0.0000 0.0000
# 4 0.0000 0.0000 0.0000 22.4696 0.0000 0.0000
# 5 0.0000 0.0000 0.0000 0.0000 22.4696 0.0000
# 6 0.0000 0.0000 0.0000 0.0000 0.0000 8.3768
#
#
#
# Elastic Compliance Matrix: (Units=1/GPa)
#
#
# Indices 1 2 3 4 5 6 
#
# 1 0.017420 0.003685 -0.009286 0.000000 0.000000 0.000000
# 2 0.003685 0.017420 -0.009286 0.000000 0.000000 0.000000
# 3 -0.009286 -0.009286 0.032216 0.000000 0.000000 0.000000
# 4 0.000000 0.000000 0.000000 0.044505 0.000000 0.000000
# 5 0.000000 0.000000 0.000000 0.000000 0.044505 0.000000
# 6 0.000000 0.000000 0.000000 0.000000 0.000000 0.119377
#
#
# Mechanical properties :
#
#
# Convention : Reuss Voigt Hill
#
# Bulk Modulus (GPa) = 26.82330 26.86244 26.84287
# Shear Modulus (GPa) = 15.74094 20.39297 18.06696
#
# Velocity S-wave (km/s) = 2.85075 3.24477 3.05412
# Velocity P-wave (km/s) = 4.96830 5.28267 5.12789
#
# Compressibility (1/GPa) = 0.03728102
#
# Stress axis : x y z
#
# Youngs Moduli (GPa) = 57.40600 57.40665 31.04035
#
# Poissons Ratio (x) = -0.21154 0.28825
# Poissons Ratio (y) = -0.21154 0.28824
# Poissons Ratio (z) = 0.53308 0.53308
#
# Static dielectric constant tensor:
#      x y z
#    x 1.695120 0.000000 0.000000 
#    y 0.000000 1.695120 0.000000 
#    z 0.000000 0.000000 1.694640 
# 
# From -- ./inp_files/3636.got.cif
#   From: 2010.05.17/outbox.cif.g08.bks.cpg/sg130_2_cif.got.tgz:3636.got - 2010.05.20 12:17:35.
