data_PCOD9565925
_publ_section_title
;
Structure prediction by ZEFSAII (Michael W. Deem and Ramdas Pophale) SiO2 
 PCOD9565925
Probable space group: P 4/N C C
;
_chemical_formula_sum "Si O2"
_cell_formula_units_Z 104
_cell_length_a 15.070800
_cell_length_b 15.070800
_cell_length_c 22.504570
_cell_angle_alpha 90.000000
_cell_angle_beta 90.000000
_cell_angle_gamma 90.000000
_cell_volume 5111.440764
_symmetry_space_group_name_H-M "P 4/N C C"
_symmetry_group_IT_number 130
_symmetry_cell_setting 'tetragonal'
loop_
_space_group_symop_operation_xyz
x,y,z
1/2-y,x,z
1/2-x,1/2-y,z
y,1/2-x,z
1/2+x,-y,1/2-z
-x,1/2+y,1/2-z
1/2+y,1/2+x,1/2-z
-y,-x,1/2-z
-x,-y,-z
1/2+y,-x,-z
1/2+x,1/2+y,-z
-y,1/2+x,-z
1/2-x,y,1/2+z
x,1/2-y,1/2+z
1/2-y,1/2-x,1/2+z
y,x,1/2+z
loop_
_atom_site_type_symbol
_atom_site_label
_atom_site_fract_x
_atom_site_fract_y
_atom_site_fract_z
Si Si1 0.079372 0.146021 0.085433
Si Si2 0.739237 0.409119 0.909300
Si Si3 0.868288 0.840110 0.543036
Si Si4 0.825466 0.125862 0.184529
Si Si5 0.509878 0.947816 0.130931
Si Si6 0.750000 0.750000 0.868519
Si Si7 0.750000 0.250000 0.000000
Si Si8 0.622460 0.408739 0.680524
O O1 0.154109 0.192780 0.126627
O O2 0.000767 0.216561 0.070203
O O3 0.133355 0.121563 0.025983
O O4 0.021492 0.062632 0.109853
O O5 0.807757 0.362357 0.864434
O O6 0.724075 0.336582 0.960851
O O7 0.656217 0.425709 0.866212
O O8 0.765761 0.870005 0.555437
O O9 0.945341 0.890965 0.578464
O O10 0.834124 0.165877 0.250000
O O11 0.725312 0.105421 0.169687
O O12 0.884121 0.038884 0.177259
O O13 0.589979 0.994913 0.164007
O O14 0.607261 0.392740 0.750000
#
# Coordination Sequence:
#
# PCOD9565925 Si02
#       8
#    16  16  16  16  16   4   4  16
#     4  11  23  41  65  95 138 180 234 283 344 427
#     4  11  25  39  65 104 133 179 218 282 353 413
#     4  11  22  42  67  95 138 195 231 272 353 441
#     4  11  22  45  66  91 132 175 228 281 347 417
#     4  11  26  39  63 103 131 168 236 303 347 393
#     4  12  20  48  64  80 128 190 236 268 328 428
#     4  12  24  40  62 108 160 164 216 290 360 424
#     4  12  23  42  70  92 126 179 231 277 347 416
#
# _framework density 20.346513999999999
#
# number of rings (size 3 to 8) (size 9 to 14) (size 15 to 20)
#    0.000    0.769    4.615    2.769    2.154    2.462 
#    0.000    0.000    0.000    0.000    0.000    0.000 
#    0.000    0.000    0.000    0.000    0.000    0.000 
#
# Total GULP energy -579579.159397 kJ/mol
# GULP energy per Si atom -5572.876533 kJ/mol
# Density = 2.030020 g / cm^3
# Si number density = 20.346514 Si / 1000 Ang^3
#
#
#
# Elastic Constant Matrix: (Units=GPa)
#
#
# Indices 1 2 3 4 5 6 
#
# 1 34.2403 75.9557 11.3435 0.0000 0.0000 0.0000
# 2 75.9557 34.2406 11.3450 0.0000 0.0000 0.0000
# 3 11.3435 11.3450 49.3070 0.0000 0.0000 0.0000
# 4 0.0000 0.0000 0.0000 16.6257 0.0000 0.0000
# 5 0.0000 0.0000 0.0000 0.0000 16.6272 0.0000
# 6 0.0000 0.0000 0.0000 0.0000 0.0000 41.1089
#
#
#
# Elastic Compliance Matrix: (Units=1/GPa)
#
#
# Indices 1 2 3 4 5 6 
#
# 1 -0.007223 0.016749 -0.002192 0.000000 0.000000 0.000000
# 2 0.016749 -0.007223 -0.002191 0.000000 0.000000 0.000000
# 3 -0.002192 -0.002191 0.021290 0.000000 0.000000 0.000000
# 4 0.000000 0.000000 0.000000 0.060148 0.000000 0.000000
# 5 0.000000 0.000000 0.000000 0.000000 0.060143 0.000000
# 6 0.000000 0.000000 0.000000 0.000000 0.000000 0.024326
#
#
# Mechanical properties :
#
#
# Convention : Reuss Voigt Hill
#
# Bulk Modulus (GPa) = 31.67079 35.00848 33.33963
# Shear Modulus (GPa) = 36.42899 16.14858 26.28878
#
# Velocity S-wave (km/s) = 4.23594 2.82029 3.59841
# Velocity P-wave (km/s) = 6.28679 5.27720 5.80399
#
# Compressibility (1/GPa) = 0.03157484
#
# Stress axis : x y z
#
# Youngs Moduli (GPa) = -138.44709 -138.44531 46.97126
#
# Poissons Ratio (x) = 2.31882 0.10296
# Poissons Ratio (y) = 2.31885 0.10293
# Poissons Ratio (z) = -0.30348 -0.30338
#
# Static dielectric constant tensor:
#      x y z
#    x 1.716970 0.000000 0.000000 
#    y 0.000000 1.716970 0.000000 
#    z 0.000000 0.000000 1.635520 
# 
# From -- ./inp_files/4319.got.cif
#   From: 2010.05.17/outbox.cif.g08.bks.cpg/sg130_3_cif.got.tgz:4319.got - 2010.05.20 12:17:35.
