data_PCOD9565291
_publ_section_title
;
Structure prediction by ZEFSAII (Michael W. Deem and Ramdas Pophale) SiO2 
 PCOD9565291
Probable space group: P 4/N M M
;
_chemical_formula_sum "Si O2"
_cell_formula_units_Z 80
_cell_length_a 12.842897
_cell_length_b 12.842897
_cell_length_c 29.756118
_cell_angle_alpha 90.000000
_cell_angle_beta 90.000000
_cell_angle_gamma 90.000000
_cell_volume 4907.974203
_symmetry_space_group_name_H-M "P 4/N M M"
_symmetry_group_IT_number 129
_symmetry_cell_setting 'tetragonal'
loop_
_space_group_symop_operation_xyz
x,y,z
1/2-y,x,z
1/2-x,1/2-y,z
y,1/2-x,z
1/2+x,-y,-z
-x,1/2+y,-z
1/2+y,1/2+x,-z
-y,-x,-z
-x,-y,-z
1/2+y,-x,-z
1/2+x,1/2+y,-z
-y,1/2+x,-z
1/2-x,y,z
x,1/2-y,z
1/2-y,1/2-x,z
y,x,z
loop_
_atom_site_type_symbol
_atom_site_label
_atom_site_fract_x
_atom_site_fract_y
_atom_site_fract_z
Si Si1 0.750000 0.376342 0.212241
Si Si2 0.250000 0.624079 0.890459
Si Si3 0.870707 0.460859 0.543200
Si Si4 0.375654 0.549914 0.049183
Si Si5 0.866848 0.375834 0.362195
Si Si6 0.625465 0.459005 0.734052
O O1 0.750000 0.250000 0.211909
O O2 0.750000 0.413450 0.160886
O O3 0.644645 0.405229 0.238396
O O4 0.250000 0.750000 0.889639
O O5 0.356369 0.595853 0.916470
O O6 0.888373 0.388373 0.500000
O O7 0.750000 0.483661 0.548611
O O8 0.909873 0.409872 0.589626
O O9 0.935388 0.564613 0.534776
O O10 0.250000 0.530916 0.051614
O O11 0.447115 0.447115 0.056878
O O12 0.405425 0.594575 0.000000
O O13 0.750000 0.415808 0.355245
O O14 0.860816 0.250000 0.364451
O O15 0.934857 0.396978 0.318366
O O16 0.750000 0.474983 0.739123
O O17 0.557908 0.557908 0.748390
#
# Coordination Sequence:
#
# PCOD9565291 Si02
#       6
#     8   8  16  16  16  16
#     4   9  18  34  52  75 101 135 179 216 253 305
#     4   9  18  32  54  75 101 137 177 220 255 303
#     4  10  20  32  47  70  98 128 163 203 250 303
#     4  10  19  32  52  78 108 141 177 217 261 309
#     4   9  16  29  49  71  95 127 167 207 248 296
#     4  10  19  32  52  77 105 136 173 217 265 314
#
# _framework density 16.300004999999999
#
# number of rings (size 3 to 8) (size 9 to 14) (size 15 to 20)
#    0.000    2.400    2.000    1.200    0.000    2.400 
#    0.000    0.000    0.000    4.200    0.000    7.000 
#    0.000    0.000    0.000    0.000    0.000    0.000 
#
# Total GULP energy -445458.746943 kJ/mol
# GULP energy per Si atom -5568.234337 kJ/mol
# Density = 1.626291 g / cm^3
# Si number density = 16.300005 Si / 1000 Ang^3
#
#
#
# Elastic Constant Matrix: (Units=GPa)
#
#
# Indices 1 2 3 4 5 6 
#
# 1 85.8894 57.2093 34.7930 0.0000 0.0000 0.0000
# 2 57.2093 85.8893 34.7930 0.0000 0.0000 0.0000
# 3 34.7930 34.7930 112.9923 0.0000 0.0000 0.0000
# 4 0.0000 0.0000 0.0000 8.4778 0.0000 0.0000
# 5 0.0000 0.0000 0.0000 0.0000 8.4776 0.0000
# 6 0.0000 0.0000 0.0000 0.0000 0.0000 18.5917
#
#
#
# Elastic Compliance Matrix: (Units=1/GPa)
#
#
# Indices 1 2 3 4 5 6 
#
# 1 0.021543 -0.013324 -0.002531 0.000000 0.000000 0.000000
# 2 -0.013324 0.021543 -0.002531 0.000000 0.000000 0.000000
# 3 -0.002531 -0.002531 0.010409 0.000000 0.000000 0.000000
# 4 0.000000 0.000000 0.000000 0.117955 0.000000 0.000000
# 5 0.000000 0.000000 0.000000 0.000000 0.117958 0.000000
# 6 0.000000 0.000000 0.000000 0.000000 0.000000 0.053788
#
#
# Mechanical properties :
#
#
# Convention : Reuss Voigt Hill
#
# Bulk Modulus (GPa) = 59.79671 59.81794 59.80732
# Shear Modulus (GPa) = 12.96878 17.64114 15.30496
#
# Velocity S-wave (km/s) = 2.82375 3.29337 3.06756
# Velocity P-wave (km/s) = 6.88449 7.15818 7.02266
#
# Compressibility (1/GPa) = 0.01672333
#
# Stress axis : x y z
#
# Youngs Moduli (GPa) = 46.41856 46.41853 96.07313
#
# Poissons Ratio (x) = 0.61849 0.24314
# Poissons Ratio (y) = 0.61849 0.24314
# Poissons Ratio (z) = 0.11748 0.11747
#
# Static dielectric constant tensor:
#      x y z
#    x 1.535870 0.000000 0.000000 
#    y 0.000000 1.535870 0.000000 
#    z 0.000000 0.000000 1.572510 
# 
# From -- ./inp_files/7725.got.cif
#   From: 2010.05.17/outbox.cif.g08.bks.cpg/sg129_4_cif.got.tgz:7725.got - 2010.05.20 12:12:06.
