data_PCOD9565736
_publ_section_title
;
Structure prediction by ZEFSAII (Michael W. Deem and Ramdas Pophale) SiO2 
 PCOD9565736
Probable space group: P 4/N C C
;
_chemical_formula_sum "Si O2"
_cell_formula_units_Z 72
_cell_length_a 11.391655
_cell_length_b 11.391655
_cell_length_c 27.975616
_cell_angle_alpha 90.000000
_cell_angle_beta 90.000000
_cell_angle_gamma 90.000000
_cell_volume 3630.390195
_symmetry_space_group_name_H-M "P 4/N C C"
_symmetry_group_IT_number 130
_symmetry_cell_setting 'tetragonal'
loop_
_space_group_symop_operation_xyz
x,y,z
1/2-y,x,z
1/2-x,1/2-y,z
y,1/2-x,z
1/2+x,-y,1/2-z
-x,1/2+y,1/2-z
1/2+y,1/2+x,1/2-z
-y,-x,1/2-z
-x,-y,-z
1/2+y,-x,-z
1/2+x,1/2+y,-z
-y,1/2+x,-z
1/2-x,y,1/2+z
x,1/2-y,1/2+z
1/2-y,1/2-x,1/2+z
y,x,1/2+z
loop_
_atom_site_type_symbol
_atom_site_label
_atom_site_fract_x
_atom_site_fract_y
_atom_site_fract_z
Si Si1 0.062661 0.907575 0.166973
Si Si2 0.900625 0.618535 0.085040
Si Si3 0.570593 0.824042 0.761025
Si Si4 0.846786 0.388249 0.527055
Si Si5 0.250000 0.750000 0.612744
O O1 0.152916 0.818109 0.142722
O O2 0.960723 0.943867 0.129630
O O3 0.003682 0.852241 0.213915
O O4 0.140049 0.010639 0.189511
O O5 0.907679 0.760837 0.086746
O O6 0.986730 0.595135 0.039693
O O7 0.601828 0.688787 0.758606
O O8 0.901979 0.288582 0.492267
O O9 0.836546 0.320732 0.577533
#
# Coordination Sequence:
#
# PCOD9565736 Si02
#       5
#    16  16  16  16   8
#     4  11  23  38  67  92 126 176 219 267 326 399
#     4  11  22  38  65 100 129 167 223 274 329 401
#     4  10  24  41  57  90 135 171 214 276 323 375
#     4   9  21  42  63  93 132 170 211 277 344 403
#     4  10  21  39  60  98 120 172 214 263 319 416
#
# _framework density 19.832578999999999
#
# number of rings (size 3 to 8) (size 9 to 14) (size 15 to 20)
#    0.000    2.000    2.222    1.333    3.111    6.222 
#    0.000    0.000    0.000    0.000    0.000    0.000 
#    0.000    0.000    0.000    0.000    0.000    0.000 
#
# Total GULP energy -401124.408299 kJ/mol
# GULP energy per Si atom -5571.172337 kJ/mol
# Density = 1.978744 g / cm^3
# Si number density = 19.832579 Si / 1000 Ang^3
#
#
#
# Elastic Constant Matrix: (Units=GPa)
#
#
# Indices 1 2 3 4 5 6 
#
# 1 78.5370 47.2463 61.7191 0.0000 0.0000 0.0000
# 2 47.2463 78.5370 61.7191 0.0000 0.0000 0.0000
# 3 61.7191 61.7191 112.6033 0.0000 0.0000 0.0000
# 4 0.0000 0.0000 0.0000 -11.0996 0.0000 0.0000
# 5 0.0000 0.0000 0.0000 0.0000 -11.0996 0.0000
# 6 0.0000 0.0000 0.0000 0.0000 0.0000 22.5630
#
#
#
# Elastic Compliance Matrix: (Units=1/GPa)
#
#
# Indices 1 2 3 4 5 6 
#
# 1 0.024581 -0.007377 -0.009430 0.000000 0.000000 0.000000
# 2 -0.007377 0.024581 -0.009430 0.000000 0.000000 0.000000
# 3 -0.009430 -0.009430 0.019218 0.000000 0.000000 0.000000
# 4 0.000000 0.000000 0.000000 -0.090093 0.000000 0.000000
# 5 0.000000 0.000000 0.000000 0.000000 -0.090093 0.000000
# 6 0.000000 0.000000 0.000000 0.000000 0.000000 0.044320
#
#
# Mechanical properties :
#
#
# Convention : Reuss Voigt Hill
#
# Bulk Modulus (GPa) = 62.86523 67.89401 65.37962
# Shear Modulus (GPa) = -514.94825 6.67227 -254.13799
#
# Velocity S-wave (km/s) = -16.13107 1.83619 -11.33225
# Velocity P-wave (km/s) = 17.75336 6.22923 11.75539
#
# Compressibility (1/GPa) = 0.01590704
#
# Stress axis : x y z
#
# Youngs Moduli (GPa) = 40.68141 40.68141 52.03499
#
# Poissons Ratio (x) = 0.30011 0.49068
# Poissons Ratio (y) = 0.30011 0.49068
# Poissons Ratio (z) = 0.38362 0.38362
#
# Static dielectric constant tensor:
#      x y z
#    x 1.662230 0.000000 0.000000 
#    y 0.000000 1.662230 0.000000 
#    z 0.000000 0.000000 1.685470 
# 
# From -- ./inp_files/4742.got.cif
#   From: 2010.05.17/outbox.cif.g08.bks.cpg/sg130_3_cif.got.tgz:4742.got - 2010.05.20 12:17:35.
