data_PCOD9565221
_publ_section_title
;
Structure prediction by ZEFSAII (Michael W. Deem and Ramdas Pophale) SiO2 
 PCOD9565221
Probable space group: P 4/N M M
;
_chemical_formula_sum "Si O2"
_cell_formula_units_Z 128
_cell_length_a 17.730655
_cell_length_b 17.730655
_cell_length_c 25.434917
_cell_angle_alpha 90.000000
_cell_angle_beta 90.000000
_cell_angle_gamma 90.000000
_cell_volume 7996.130690
_symmetry_space_group_name_H-M "P 4/N M M"
_symmetry_group_IT_number 129
_symmetry_cell_setting 'tetragonal'
loop_
_space_group_symop_operation_xyz
x,y,z
1/2-y,x,z
1/2-x,1/2-y,z
y,1/2-x,z
1/2+x,-y,-z
-x,1/2+y,-z
1/2+y,1/2+x,-z
-y,-x,-z
-x,-y,-z
1/2+y,-x,-z
1/2+x,1/2+y,-z
-y,1/2+x,-z
1/2-x,y,z
x,1/2-y,z
1/2-y,1/2-x,z
y,x,z
loop_
_atom_site_type_symbol
_atom_site_label
_atom_site_fract_x
_atom_site_fract_y
_atom_site_fract_z
Si Si1 0.983003 0.337170 0.932391
Si Si2 0.842273 0.968348 0.501311
Si Si3 0.396850 0.664779 0.892419
Si Si4 0.458638 0.339622 0.044611
Si Si5 0.338640 0.624400 0.781269
Si Si6 0.958235 0.661162 0.181747
Si Si7 0.936469 0.060945 0.415372
Si Si8 0.662877 0.160149 0.661817
O O1 0.003655 0.250000 0.934582
O O2 0.894394 0.344939 0.922556
O O3 0.019744 0.363817 0.877809
O O4 0.008455 0.367965 0.988455
O O5 0.750000 0.963490 0.501761
O O6 0.887565 0.887565 0.501544
O O7 0.875989 0.015467 0.451618
O O8 0.877610 0.016849 0.549828
O O9 0.382553 0.750000 0.909462
O O10 0.480755 0.643330 0.910384
O O11 0.383838 0.657686 0.830340
O O12 0.449222 0.250000 0.042740
O O13 0.381332 0.381332 0.054413
O O14 0.250000 0.640278 0.791678
O O15 0.348248 0.534083 0.784426
O O16 0.356844 0.654859 0.723902
O O17 0.939647 0.750000 0.180997
O O18 0.889876 0.610125 0.200474
O O19 0.891013 0.105530 0.370882
O O20 0.998417 0.998417 0.397859
O O21 0.750000 0.147655 0.645752
O O22 0.646791 0.250000 0.655253
#
# Coordination Sequence:
#
# PCOD9565221 Si02
#       8
#    16  16  16  16  16  16  16  16
#     4   9  18  31  46  66  91 116 142 173 211 260
#     4   9  17  30  48  70  99 134 169 203 238 277
#     4  10  19  30  46  67  90 116 144 175 214 261
#     4  10  21  35  49  66  86 108 139 177 216 262
#     4   9  19  33  47  66  92 121 152 185 224 271
#     4   9  17  29  45  65  89 118 152 188 227 271
#     4   9  18  31  47  70 101 134 163 196 241 287
#     4  10  19  31  50  74  97 123 159 202 242 280
#
# _framework density 16.007742
#
# number of rings (size 3 to 8) (size 9 to 14) (size 15 to 20)
#    0.000    2.625    0.000    3.750    0.000    5.375 
#    0.000    0.625    0.000    9.750    0.000    0.000 
#    0.000    3.000    0.000    4.125    0.000    0.125 
#
# Total GULP energy -712558.210970 kJ/mol
# GULP energy per Si atom -5566.861023 kJ/mol
# Density = 1.597131 g / cm^3
# Si number density = 16.007742 Si / 1000 Ang^3
#
#
#
# Elastic Constant Matrix: (Units=GPa)
#
#
# Indices 1 2 3 4 5 6 
#
# 1 60.8890 36.0415 31.3032 0.0000 0.0000 0.0000
# 2 36.0415 60.8890 31.3032 0.0000 0.0000 0.0000
# 3 31.3032 31.3032 70.9593 0.0000 0.0000 0.0000
# 4 0.0000 0.0000 0.0000 3.0914 0.0000 0.0000
# 5 0.0000 0.0000 0.0000 0.0000 3.0914 0.0000
# 6 0.0000 0.0000 0.0000 0.0000 0.0000 24.6608
#
#
#
# Elastic Compliance Matrix: (Units=1/GPa)
#
#
# Indices 1 2 3 4 5 6 
#
# 1 0.027336 -0.012909 -0.006365 0.000000 0.000000 0.000000
# 2 -0.012909 0.027336 -0.006365 0.000000 0.000000 0.000000
# 3 -0.006365 -0.006365 0.019708 0.000000 0.000000 0.000000
# 4 0.000000 0.000000 0.000000 0.323474 0.000000 0.000000
# 5 0.000000 0.000000 0.000000 0.000000 0.323474 0.000000
# 6 0.000000 0.000000 0.000000 0.000000 0.000000 0.040550
#
#
# Mechanical properties :
#
#
# Convention : Reuss Voigt Hill
#
# Bulk Modulus (GPa) = 43.28141 43.33701 43.30921
# Shear Modulus (GPa) = 6.09119 12.44137 9.26628
#
# Velocity S-wave (km/s) = 1.95280 2.79087 2.40857
# Velocity P-wave (km/s) = 5.67283 6.12508 5.90329
#
# Compressibility (1/GPa) = 0.02310461
#
# Stress axis : x y z
#
# Youngs Moduli (GPa) = 36.58122 36.58122 50.74085
#
# Poissons Ratio (x) = 0.47222 0.32294
# Poissons Ratio (y) = 0.47222 0.32294
# Poissons Ratio (z) = 0.23282 0.23282
#
# Static dielectric constant tensor:
#      x y z
#    x 1.545970 0.000000 0.000000 
#    y 0.000000 1.545970 0.000000 
#    z 0.000000 0.000000 1.538710 
# 
# From -- ./inp_files/7296.got.cif
#   From: 2010.05.17/outbox.cif.g08.bks.cpg/sg129_4_cif.got.tgz:7296.got - 2010.05.20 12:12:06.
