data_PCOD9565826
_publ_section_title
;
Structure prediction by ZEFSAII (Michael W. Deem and Ramdas Pophale) SiO2 
 PCOD9565826
Probable space group: P 4/N C C
;
_chemical_formula_sum "Si O2"
_cell_formula_units_Z 56
_cell_length_a 10.592012
_cell_length_b 10.592012
_cell_length_c 18.937866
_cell_angle_alpha 90.000000
_cell_angle_beta 90.000000
_cell_angle_gamma 90.000000
_cell_volume 2124.652788
_symmetry_space_group_name_H-M "P 4/N C C"
_symmetry_group_IT_number 130
_symmetry_cell_setting 'tetragonal'
loop_
_space_group_symop_operation_xyz
x,y,z
1/2-y,x,z
1/2-x,1/2-y,z
y,1/2-x,z
1/2+x,-y,1/2-z
-x,1/2+y,1/2-z
1/2+y,1/2+x,1/2-z
-y,-x,1/2-z
-x,-y,-z
1/2+y,-x,-z
1/2+x,1/2+y,-z
-y,1/2+x,-z
1/2-x,y,1/2+z
x,1/2-y,1/2+z
1/2-y,1/2-x,1/2+z
y,x,1/2+z
loop_
_atom_site_type_symbol
_atom_site_label
_atom_site_fract_x
_atom_site_fract_y
_atom_site_fract_z
Si Si1 0.211101 0.547570 0.985700
Si Si2 0.820795 0.489649 0.664777
Si Si3 0.250000 0.250000 0.781335
Si Si4 0.250000 0.750000 0.750000
Si Si5 0.079276 0.362516 0.622316
O O1 0.252861 0.492164 0.910984
O O2 0.113527 0.664946 0.979159
O O3 0.150514 0.445633 0.037923
O O4 0.616089 0.673692 0.708839
O O5 0.751972 0.374265 0.702578
O O6 0.961764 0.438737 0.650758
O O7 0.083952 0.214804 0.643327
#
# Coordination Sequence:
#
# PCOD9565826 Si02
#       5
#    16  16   4   4  16
#     4   9  19  37  68 107 153 199 250 305 381 463
#     4  11  27  48  78 111 153 203 263 321 389 457
#     4  12  32  48  76 116 154 196 276 328 384 458
#     4  12  28  56  86  92 150 210 272 326 400 440
#     4  10  23  42  74 117 160 201 248 309 387 475
#
# _framework density 26.357247000000001
#
# number of rings (size 3 to 8) (size 9 to 14) (size 15 to 20)
#    0.000    1.714    0.000    3.429   12.000    3.429 
#    0.000    0.000    0.000    0.000    0.000    0.000 
#    0.000    0.000    0.000    0.000    0.000    0.000 
#
# Total GULP energy -313557.240709 kJ/mol
# GULP energy per Si atom -5599.236441 kJ/mol
# Density = 2.629726 g / cm^3
# Si number density = 26.357247 Si / 1000 Ang^3
#
#
#
# Elastic Constant Matrix: (Units=GPa)
#
#
# Indices 1 2 3 4 5 6 
#
# 1 206.9111 -8.0701 39.0649 0.0000 0.0000 0.0000
# 2 -8.0701 206.9111 39.0649 0.0000 0.0000 0.0000
# 3 39.0649 39.0649 109.7706 0.0000 0.0000 0.0000
# 4 0.0000 0.0000 0.0000 22.8473 0.0000 0.0000
# 5 0.0000 0.0000 0.0000 0.0000 22.8473 0.0000
# 6 0.0000 0.0000 0.0000 0.0000 0.0000 47.8970
#
#
#
# Elastic Compliance Matrix: (Units=1/GPa)
#
#
# Indices 1 2 3 4 5 6 
#
# 1 0.005249 0.000598 -0.002081 0.000000 0.000000 0.000000
# 2 0.000598 0.005249 -0.002081 0.000000 0.000000 0.000000
# 3 -0.002081 -0.002081 0.010591 0.000000 0.000000 0.000000
# 4 0.000000 0.000000 0.000000 0.043769 0.000000 0.000000
# 5 0.000000 0.000000 0.000000 0.000000 0.043769 0.000000
# 6 0.000000 0.000000 0.000000 0.000000 0.000000 0.020878
#
#
# Mechanical properties :
#
#
# Convention : Reuss Voigt Hill
#
# Bulk Modulus (GPa) = 71.62588 73.74580 72.68584
# Shear Modulus (GPa) = 35.38907 48.95386 42.17146
#
# Velocity S-wave (km/s) = 3.66822 4.31434 4.00433
# Velocity P-wave (km/s) = 6.72125 7.27036 7.00119
#
# Compressibility (1/GPa) = 0.01396143
#
# Stress axis : x y z
#
# Youngs Moduli (GPa) = 190.50746 190.50746 94.42106
#
# Poissons Ratio (x) = -0.11384 0.19646
# Poissons Ratio (y) = -0.11384 0.19646
# Poissons Ratio (z) = 0.39639 0.39639
#
# Static dielectric constant tensor:
#      x y z
#    x 2.001180 0.000000 0.000000 
#    y 0.000000 2.001180 0.000000 
#    z 0.000000 0.000000 2.190700 
# 
# From -- ./inp_files/3461.got.cif
#   From: 2010.05.17/outbox.cif.g08.bks.cpg/sg130_2_cif.got.tgz:3461.got - 2010.05.20 12:17:35.
