data_PCOD9565715
_publ_section_title
;
Structure prediction by ZEFSAII (Michael W. Deem and Ramdas Pophale) SiO2 
 PCOD9565715
Probable space group: P 4/N C C
;
_chemical_formula_sum "Si O2"
_cell_formula_units_Z 112
_cell_length_a 13.970934
_cell_length_b 13.970934
_cell_length_c 24.133809
_cell_angle_alpha 90.000000
_cell_angle_beta 90.000000
_cell_angle_gamma 90.000000
_cell_volume 4710.605701
_symmetry_space_group_name_H-M "P 4/N C C"
_symmetry_group_IT_number 130
_symmetry_cell_setting 'tetragonal'
loop_
_space_group_symop_operation_xyz
x,y,z
1/2-y,x,z
1/2-x,1/2-y,z
y,1/2-x,z
1/2+x,-y,1/2-z
-x,1/2+y,1/2-z
1/2+y,1/2+x,1/2-z
-y,-x,1/2-z
-x,-y,-z
1/2+y,-x,-z
1/2+x,1/2+y,-z
-y,1/2+x,-z
1/2-x,y,1/2+z
x,1/2-y,1/2+z
1/2-y,1/2-x,1/2+z
y,x,1/2+z
loop_
_atom_site_type_symbol
_atom_site_label
_atom_site_fract_x
_atom_site_fract_y
_atom_site_fract_z
Si Si1 0.221920 0.650887 0.851816
Si Si2 0.406035 0.435857 0.055222
Si Si3 0.704722 0.375691 0.968494
Si Si4 0.391685 0.309774 0.155156
Si Si5 0.837802 0.883714 0.550808
Si Si6 0.424461 0.498034 0.353359
Si Si7 0.402923 0.911260 0.189561
O O1 0.250000 0.750000 0.823115
O O2 0.175449 0.679672 0.910563
O O3 0.141281 0.581164 0.828297
O O4 0.324959 0.600566 0.854368
O O5 0.325832 0.515133 0.039307
O O6 0.384493 0.338365 0.089714
O O7 0.465066 0.496995 0.101055
O O8 0.442229 0.395356 0.996530
O O9 0.814105 0.356074 0.986492
O O10 0.298938 0.371392 0.173560
O O11 0.497240 0.338958 0.174125
O O12 0.724156 0.876576 0.544922
O O13 0.858815 0.929029 0.610226
O O14 0.487264 0.444741 0.308428
O O15 0.375310 0.875310 0.250000
#
# Coordination Sequence:
#
# PCOD9565715 Si02
#       7
#    16  16  16  16  16  16  16
#     4  11  24  45  71 106 145 182 239 305 365 434
#     4  10  22  36  62  95 134 186 231 283 333 409
#     4  10  21  35  61  99 142 193 232 283 346 428
#     4  10  23  44  68  98 140 184 232 290 356 432
#     4  11  23  38  59  91 136 182 230 276 330 412
#     4  10  24  44  65  95 135 185 228 293 358 431
#     4  11  27  46  74 104 134 185 239 312 380 434
#
# _framework density 23.776135
#
# number of rings (size 3 to 8) (size 9 to 14) (size 15 to 20)
#    0.000    1.571    1.429    2.143   12.000    2.571 
#    5.143    0.000    0.000    1.714    0.000    0.000 
#    0.000    0.000    0.000    0.000    0.000    0.000 
#
# Total GULP energy -624868.871822 kJ/mol
# GULP energy per Si atom -5579.186356 kJ/mol
# Density = 2.372202 g / cm^3
# Si number density = 23.776135 Si / 1000 Ang^3
#
#
#
# Elastic Constant Matrix: (Units=GPa)
#
#
# Indices 1 2 3 4 5 6 
#
# 1 94.3562 44.7167 21.0134 0.0000 0.0000 0.0000
# 2 44.7167 94.3562 21.0134 0.0000 0.0000 0.0000
# 3 21.0134 21.0134 58.6670 0.0000 0.0000 0.0000
# 4 0.0000 0.0000 0.0000 18.0976 0.0000 0.0000
# 5 0.0000 0.0000 0.0000 0.0000 18.0976 0.0000
# 6 0.0000 0.0000 0.0000 0.0000 0.0000 35.3693
#
#
#
# Elastic Compliance Matrix: (Units=1/GPa)
#
#
# Indices 1 2 3 4 5 6 
#
# 1 0.014104 -0.006041 -0.002888 0.000000 0.000000 0.000000
# 2 -0.006041 0.014104 -0.002888 0.000000 0.000000 0.000000
# 3 -0.002888 -0.002888 0.019114 0.000000 0.000000 0.000000
# 4 0.000000 0.000000 0.000000 0.055256 0.000000 0.000000
# 5 0.000000 0.000000 0.000000 0.000000 0.055256 0.000000
# 6 0.000000 0.000000 0.000000 0.000000 0.000000 0.028273
#
#
# Mechanical properties :
#
#
# Convention : Reuss Voigt Hill
#
# Bulk Modulus (GPa) = 42.21483 46.76292 44.48888
# Shear Modulus (GPa) = 22.97387 25.02194 23.99791
#
# Velocity S-wave (km/s) = 3.11184 3.24759 3.18044
# Velocity P-wave (km/s) = 5.54122 5.81147 5.67795
#
# Compressibility (1/GPa) = 0.02368836
#
# Stress axis : x y z
#
# Youngs Moduli (GPa) = 70.90063 70.90063 52.31694
#
# Poissons Ratio (x) = 0.42831 0.15110
# Poissons Ratio (y) = 0.42831 0.15110
# Poissons Ratio (z) = 0.20477 0.20477
#
# Static dielectric constant tensor:
#      x y z
#    x 1.969620 0.000000 0.000000 
#    y 0.000000 1.969620 0.000000 
#    z 0.000000 0.000000 1.876140 
# 
# From -- ./inp_files/4627.got.cif
#   From: 2010.05.17/outbox.cif.g08.bks.cpg/sg130_3_cif.got.tgz:4627.got - 2010.05.20 12:17:35.
