data_PCOD9565795
_publ_section_title
;
Structure prediction by ZEFSAII (Michael W. Deem and Ramdas Pophale) SiO2 
 PCOD9565795
Probable space group: P 4/N C C
;
_chemical_formula_sum "Si O2"
_cell_formula_units_Z 44
_cell_length_a 12.144494
_cell_length_b 12.144494
_cell_length_c 12.980698
_cell_angle_alpha 90.000000
_cell_angle_beta 90.000000
_cell_angle_gamma 90.000000
_cell_volume 1914.506721
_symmetry_space_group_name_H-M "P 4/N C C"
_symmetry_group_IT_number 130
_symmetry_cell_setting 'tetragonal'
loop_
_space_group_symop_operation_xyz
x,y,z
1/2-y,x,z
1/2-x,1/2-y,z
y,1/2-x,z
1/2+x,-y,1/2-z
-x,1/2+y,1/2-z
1/2+y,1/2+x,1/2-z
-y,-x,1/2-z
-x,-y,-z
1/2+y,-x,-z
1/2+x,1/2+y,-z
-y,1/2+x,-z
1/2-x,y,1/2+z
x,1/2-y,1/2+z
1/2-y,1/2-x,1/2+z
y,x,1/2+z
loop_
_atom_site_type_symbol
_atom_site_label
_atom_site_fract_x
_atom_site_fract_y
_atom_site_fract_z
Si Si1 0.048094 0.951907 0.750000
Si Si2 0.749928 0.496348 0.398410
Si Si3 0.250000 0.250000 0.635827
Si Si4 0.521584 0.401394 0.919411
O O1 0.152217 0.955212 0.675040
O O2 0.046645 0.062982 0.819557
O O3 0.787348 0.619175 0.369531
O O4 0.708200 0.503006 0.517343
O O5 0.850743 0.412285 0.391494
O O6 0.500000 0.500000 0.000000
#
# Coordination Sequence:
#
# PCOD9565795 Si02
#       4
#     8  16   4  16
#     4  10  22  40  68 100 138 174 228 284 336 404
#     4  11  23  44  69 101 137 182 225 280 340 407
#     4  12  20  44  74 100 132 178 236 276 342 396
#     4  10  22  42  66  97 138 171 228 282 332 403
#
# _framework density 22.982419
#
# number of rings (size 3 to 8) (size 9 to 14) (size 15 to 20)
#    0.000    1.455    7.273    0.000    0.000    6.545 
#    0.000    1.818    0.000    0.000    0.000    0.000 
#    0.000    0.000    0.000    0.000    0.000    0.000 
#
# Total GULP energy -244993.331956 kJ/mol
# GULP energy per Si atom -5568.030272 kJ/mol
# Density = 2.293011 g / cm^3
# Si number density = 22.982419 Si / 1000 Ang^3
#
#
#
# Elastic Constant Matrix: (Units=GPa)
#
#
# Indices 1 2 3 4 5 6 
#
# 1 99.0529 -14.5845 30.5529 0.0000 0.0000 0.0000
# 2 -14.5845 99.0522 30.5531 0.0000 0.0000 0.0000
# 3 30.5529 30.5531 107.6619 0.0000 0.0000 0.0000
# 4 0.0000 0.0000 0.0000 23.8748 0.0000 0.0000
# 5 0.0000 0.0000 0.0000 0.0000 23.8745 0.0000
# 6 0.0000 0.0000 0.0000 0.0000 0.0000 43.3163
#
#
#
# Elastic Compliance Matrix: (Units=1/GPa)
#
#
# Indices 1 2 3 4 5 6 
#
# 1 0.011848 0.003049 -0.004228 0.000000 0.000000 0.000000
# 2 0.003049 0.011849 -0.004228 0.000000 0.000000 0.000000
# 3 -0.004228 -0.004228 0.011688 0.000000 0.000000 0.000000
# 4 0.000000 0.000000 0.000000 0.041885 0.000000 0.000000
# 5 0.000000 0.000000 0.000000 0.000000 0.041886 0.000000
# 6 0.000000 0.000000 0.000000 0.000000 0.000000 0.023086
#
#
# Mechanical properties :
#
#
# Convention : Reuss Voigt Hill
#
# Bulk Modulus (GPa) = 40.69726 44.31220 42.50473
# Shear Modulus (GPa) = 31.00862 35.49616 33.25239
#
# Velocity S-wave (km/s) = 3.67717 3.93427 3.80789
# Velocity P-wave (km/s) = 5.98124 6.32145 6.15370
#
# Compressibility (1/GPa) = 0.02457168
#
# Stress axis : x y z
#
# Youngs Moduli (GPa) = 84.39895 84.39813 85.55921
#
# Poissons Ratio (x) = -0.25730 0.36171
# Poissons Ratio (y) = -0.25730 0.36171
# Poissons Ratio (z) = 0.35680 0.35680
#
# Static dielectric constant tensor:
#      x y z
#    x 1.878070 0.000000 0.000000 
#    y 0.000000 1.878070 0.000000 
#    z 0.000000 0.000000 1.939520 
# 
# From -- ./inp_files/2682.got.cif
#   From: 2010.05.17/outbox.cif.g08.bks.cpg/sg130_2_cif.got.tgz:2682.got - 2010.05.20 12:17:35.
