data_PCOD9565909
_publ_section_title
;
Structure prediction by ZEFSAII (Michael W. Deem and Ramdas Pophale) SiO2 
 PCOD9565909
Probable space group: P 4/N C C
;
_chemical_formula_sum "Si O2"
_cell_formula_units_Z 96
_cell_length_a 22.240878
_cell_length_b 22.240878
_cell_length_c 9.724567
_cell_angle_alpha 90.000000
_cell_angle_beta 90.000000
_cell_angle_gamma 90.000000
_cell_volume 4810.321776
_symmetry_space_group_name_H-M "P 4/N C C"
_symmetry_group_IT_number 130
_symmetry_cell_setting 'tetragonal'
loop_
_space_group_symop_operation_xyz
x,y,z
1/2-y,x,z
1/2-x,1/2-y,z
y,1/2-x,z
1/2+x,-y,1/2-z
-x,1/2+y,1/2-z
1/2+y,1/2+x,1/2-z
-y,-x,1/2-z
-x,-y,-z
1/2+y,-x,-z
1/2+x,1/2+y,-z
-y,1/2+x,-z
1/2-x,y,1/2+z
x,1/2-y,1/2+z
1/2-y,1/2-x,1/2+z
y,x,1/2+z
loop_
_atom_site_type_symbol
_atom_site_label
_atom_site_fract_x
_atom_site_fract_y
_atom_site_fract_z
Si Si1 0.807088 0.831706 0.814213
Si Si2 0.342324 0.879224 0.895220
Si Si3 0.701363 0.123924 0.646220
Si Si4 0.385105 0.133328 0.930388
Si Si5 0.985683 0.707311 0.224172
Si Si6 0.323394 0.015434 0.962443
O O1 0.736096 0.830611 0.837041
O O2 0.827252 0.846355 0.659767
O O3 0.838268 0.876989 0.919581
O O4 0.375218 0.875218 0.750000
O O5 0.272067 0.864403 0.870507
O O6 0.344027 0.946565 0.953650
O O7 0.369599 0.831714 0.000799
O O8 0.670296 0.170296 0.750000
O O9 0.693674 0.055991 0.700250
O O10 0.442670 0.159581 0.852241
O O11 0.377608 0.061942 0.941436
O O12 0.973702 0.705112 0.386848
O O13 0.975094 0.771958 0.152933
#
# Coordination Sequence:
#
# PCOD9565909 Si02
#       6
#    16  16  16  16  16  16
#     4  11  22  36  56  88 125 165 213 282 341 384
#     4  11  25  42  70 104 135 172 209 264 328 396
#     4  11  23  44  70 100 140 169 209 263 326 395
#     4  12  24  39  63  89 128 172 228 267 324 393
#     4  11  25  43  68  95 131 180 221 277 325 387
#     4  11  25  44  67  96 132 177 227 270 331 385
#
# _framework density 19.957084999999999
#
# number of rings (size 3 to 8) (size 9 to 14) (size 15 to 20)
#    0.000    0.833    3.333    4.000    9.333    3.333 
#    0.000    1.667    0.000    0.000    0.000    0.000 
#    0.000    0.000    0.000    0.000    0.000    0.000 
#
# Total GULP energy -537079.517865 kJ/mol
# GULP energy per Si atom -5594.578311 kJ/mol
# Density = 1.991166 g / cm^3
# Si number density = 19.957085 Si / 1000 Ang^3
#
#
#
# Elastic Constant Matrix: (Units=GPa)
#
#
# Indices 1 2 3 4 5 6 
#
# 1 50.1713 20.6468 -14.0909 0.0000 0.0000 0.0000
# 2 20.6468 50.1713 -14.0909 0.0000 0.0000 0.0000
# 3 -14.0909 -14.0909 68.4953 0.0000 0.0000 0.0000
# 4 0.0000 0.0000 0.0000 23.1945 0.0000 0.0000
# 5 0.0000 0.0000 0.0000 0.0000 23.1945 0.0000
# 6 0.0000 0.0000 0.0000 0.0000 0.0000 13.1465
#
#
#
# Elastic Compliance Matrix: (Units=1/GPa)
#
#
# Indices 1 2 3 4 5 6 
#
# 1 0.024625 -0.009245 0.003164 0.000000 0.000000 0.000000
# 2 -0.009245 0.024625 0.003164 0.000000 0.000000 0.000000
# 3 0.003164 0.003164 0.015901 0.000000 0.000000 0.000000
# 4 0.000000 0.000000 0.000000 0.043114 0.000000 0.000000
# 5 0.000000 0.000000 0.000000 0.000000 0.043114 0.000000
# 6 0.000000 0.000000 0.000000 0.000000 0.000000 0.076066
#
#
# Mechanical properties :
#
#
# Convention : Reuss Voigt Hill
#
# Bulk Modulus (GPa) = 16.85868 17.08531 16.97200
# Shear Modulus (GPa) = 19.75884 23.66530 21.71207
#
# Velocity S-wave (km/s) = 3.14995 3.44729 3.30197
# Velocity P-wave (km/s) = 4.65783 4.94214 4.80209
#
# Compressibility (1/GPa) = 0.05931662
#
# Stress axis : x y z
#
# Youngs Moduli (GPa) = 40.60914 40.60914 62.88784
#
# Poissons Ratio (x) = 0.37544 -0.19897
# Poissons Ratio (y) = 0.37544 -0.19897
# Poissons Ratio (z) = -0.12848 -0.12848
#
# Static dielectric constant tensor:
#      x y z
#    x 1.696050 0.000000 0.000000 
#    y 0.000000 1.696050 0.000000 
#    z 0.000000 0.000000 1.695560 
# 
# From -- ./inp_files/946.got.cif
#   From: 2010.05.17/outbox.cif.g08.bks.cpg/sg130_1_cif.got.tgz:946.got - 2010.05.20 12:17:35.
