data_PCOD9565700
_publ_section_title
;
Structure prediction by ZEFSAII (Michael W. Deem and Ramdas Pophale) SiO2 
 PCOD9565700
Probable space group: P 4/N C C
;
_chemical_formula_sum "Si O2"
_cell_formula_units_Z 128
_cell_length_a 17.062605
_cell_length_b 17.062605
_cell_length_c 23.687868
_cell_angle_alpha 90.000000
_cell_angle_beta 90.000000
_cell_angle_gamma 90.000000
_cell_volume 6896.307979
_symmetry_space_group_name_H-M "P 4/N C C"
_symmetry_group_IT_number 130
_symmetry_cell_setting 'tetragonal'
loop_
_space_group_symop_operation_xyz
x,y,z
1/2-y,x,z
1/2-x,1/2-y,z
y,1/2-x,z
1/2+x,-y,1/2-z
-x,1/2+y,1/2-z
1/2+y,1/2+x,1/2-z
-y,-x,1/2-z
-x,-y,-z
1/2+y,-x,-z
1/2+x,1/2+y,-z
-y,1/2+x,-z
1/2-x,y,1/2+z
x,1/2-y,1/2+z
1/2-y,1/2-x,1/2+z
y,x,1/2+z
loop_
_atom_site_type_symbol
_atom_site_label
_atom_site_fract_x
_atom_site_fract_y
_atom_site_fract_z
Si Si1 0.995363 0.337010 0.802773
Si Si2 0.215858 0.869170 0.493712
Si Si3 0.067478 0.078032 0.947156
Si Si4 0.482580 0.601314 0.939690
Si Si5 0.830378 0.293675 0.183803
Si Si6 0.807464 0.447736 0.118729
Si Si7 0.451982 0.846934 0.322284
Si Si8 0.822854 0.642100 0.631831
O O1 0.978459 0.255696 0.835872
O O2 0.998636 0.334365 0.735454
O O3 0.922155 0.393960 0.815946
O O4 0.079893 0.361603 0.825915
O O5 0.293627 0.836248 0.522467
O O6 0.162645 0.920819 0.534336
O O7 0.236861 0.915851 0.437063
O O8 0.152657 0.107409 0.928756
O O9 0.007549 0.128903 0.907723
O O10 0.053894 0.986077 0.936129
O O11 0.049001 0.094262 0.012517
O O12 0.501764 0.633814 0.877877
O O13 0.750000 0.250000 0.165704
O O14 0.816666 0.316666 0.250000
O O15 0.845298 0.372455 0.149012
O O16 0.897693 0.229943 0.174393
O O17 0.853509 0.729836 0.638537
#
# Coordination Sequence:
#
# PCOD9565700 Si02
#       8
#    16  16  16  16  16  16  16  16
#     4  11  20  35  58  88 120 155 202 256 304 360
#     4  10  21  31  50  85 120 161 201 245 296 366
#     4  10  22  39  60  83 119 156 201 267 313 358
#     4  10  21  38  57  86 122 165 203 243 314 383
#     4  11  19  31  51  86 125 167 206 233 289 378
#     4  11  20  34  53  81 123 155 198 258 302 356
#     4  11  20  34  59  87 124 174 195 234 311 389
#     4  11  23  40  66  91 110 148 215 276 313 345
#
# _framework density 18.560656999999999
#
# number of rings (size 3 to 8) (size 9 to 14) (size 15 to 20)
#    0.000    1.375    5.000    2.250    1.750    0.000 
#    0.000    3.750    0.000    0.000    0.000    1.750 
#    0.000    0.000    0.000    0.000    0.000    0.000 
#
# Total GULP energy -713983.462728 kJ/mol
# GULP energy per Si atom -5577.995803 kJ/mol
# Density = 1.851841 g / cm^3
# Si number density = 18.560657 Si / 1000 Ang^3
#
#
#
# Elastic Constant Matrix: (Units=GPa)
#
#
# Indices 1 2 3 4 5 6 
#
# 1 64.9766 12.5681 41.3217 0.0000 0.0000 0.0000
# 2 12.5681 64.9766 41.3217 0.0000 0.0000 0.0000
# 3 41.3217 41.3217 138.1664 0.0000 0.0000 0.0000
# 4 0.0000 0.0000 0.0000 24.0836 0.0000 0.0000
# 5 0.0000 0.0000 0.0000 0.0000 24.0836 0.0000
# 6 0.0000 0.0000 0.0000 0.0000 0.0000 19.0668
#
#
#
# Elastic Compliance Matrix: (Units=1/GPa)
#
#
# Indices 1 2 3 4 5 6 
#
# 1 0.019005 -0.000076 -0.005661 0.000000 0.000000 0.000000
# 2 -0.000076 0.019005 -0.005661 0.000000 0.000000 0.000000
# 3 -0.005661 -0.005661 0.010624 0.000000 0.000000 0.000000
# 4 0.000000 0.000000 0.000000 0.041522 0.000000 0.000000
# 5 0.000000 0.000000 0.000000 0.000000 0.041522 0.000000
# 6 0.000000 0.000000 0.000000 0.000000 0.000000 0.052447
#
#
# Mechanical properties :
#
#
# Convention : Reuss Voigt Hill
#
# Bulk Modulus (GPa) = 38.70341 50.94920 44.82631
# Shear Modulus (GPa) = 23.19815 24.97399 24.08607
#
# Velocity S-wave (km/s) = 3.53917 3.67213 3.60626
# Velocity P-wave (km/s) = 6.13177 6.74456 6.44545
#
# Compressibility (1/GPa) = 0.02583751
#
# Stress axis : x y z
#
# Youngs Moduli (GPa) = 52.61755 52.61755 94.12765
#
# Poissons Ratio (x) = 0.00399 0.53288
# Poissons Ratio (y) = 0.00399 0.53288
# Poissons Ratio (z) = 0.29788 0.29788
#
# Static dielectric constant tensor:
#      x y z
#    x 1.654010 0.000000 0.000000 
#    y 0.000000 1.654010 0.000000 
#    z 0.000000 0.000000 1.673890 
# 
# From -- ./inp_files/4411.got.cif
#   From: 2010.05.17/outbox.cif.g08.bks.cpg/sg130_3_cif.got.tgz:4411.got - 2010.05.20 12:17:35.
