data_PCOD9565363
_publ_section_title
;
Structure prediction by ZEFSAII (Michael W. Deem and Ramdas Pophale) SiO2 
 PCOD9565363
Probable space group: P 4/N M M
;
_chemical_formula_sum "Si O2"
_cell_formula_units_Z 96
_cell_length_a 14.227930
_cell_length_b 14.227930
_cell_length_c 30.379190
_cell_angle_alpha 90.000000
_cell_angle_beta 90.000000
_cell_angle_gamma 90.000000
_cell_volume 6149.780708
_symmetry_space_group_name_H-M "P 4/N M M"
_symmetry_group_IT_number 129
_symmetry_cell_setting 'tetragonal'
loop_
_space_group_symop_operation_xyz
x,y,z
1/2-y,x,z
1/2-x,1/2-y,z
y,1/2-x,z
1/2+x,-y,-z
-x,1/2+y,-z
1/2+y,1/2+x,-z
-y,-x,-z
-x,-y,-z
1/2+y,-x,-z
1/2+x,1/2+y,-z
-y,1/2+x,-z
1/2-x,y,z
x,1/2-y,z
1/2-y,1/2-x,z
y,x,z
loop_
_atom_site_type_symbol
_atom_site_label
_atom_site_fract_x
_atom_site_fract_y
_atom_site_fract_z
Si Si1 0.517698 0.137551 0.303077
Si Si2 0.012921 0.858505 0.471787
Si Si3 0.485741 0.640464 0.133726
Si Si4 0.361132 0.517441 0.967247
Si Si5 0.014615 0.639926 0.367103
Si Si6 0.141939 0.638136 0.782059
O O1 0.506009 0.250000 0.306683
O O2 0.586546 0.096193 0.340596
O O3 0.570238 0.115257 0.256993
O O4 0.420815 0.079186 0.305460
O O5 0.095989 0.904012 0.500000
O O6 0.998730 0.750000 0.482644
O O7 0.032298 0.865978 0.419528
O O8 0.920473 0.920473 0.480933
O O9 0.510698 0.750000 0.137274
O O10 0.575712 0.575712 0.140057
O O11 0.451014 0.625780 0.083656
O O12 0.411936 0.618914 0.172059
O O13 0.250000 0.504799 0.975014
O O14 0.420904 0.420904 0.972293
O O15 0.407524 0.592477 0.000000
O O16 0.007544 0.750000 0.355287
O O17 0.918721 0.581280 0.358186
O O18 0.250000 0.612635 0.769812
O O19 0.139631 0.750000 0.788205
#
# Coordination Sequence:
#
# PCOD9565363 Si02
#       6
#    16  16  16  16  16  16
#     4  10  20  33  49  68  91 121 156 193 231 269
#     4   9  18  32  49  70  96 124 155 191 229 271
#     4   9  17  29  45  65  90 118 146 178 217 263
#     4   9  18  31  46  66  91 119 152 188 226 269
#     4   9  18  32  50  72  96 122 152 187 229 276
#     4   9  17  29  46  68  91 115 146 183 223 268
#
# _framework density 15.610312
#
# number of rings (size 3 to 8) (size 9 to 14) (size 15 to 20)
#    0.000    2.833    0.000    1.000    0.000    3.500 
#    0.000    6.667    0.000    0.000    0.000    7.000 
#    0.000    4.000    0.000    0.000    0.000    0.000 
#
# Total GULP energy -534681.744745 kJ/mol
# GULP energy per Si atom -5569.601508 kJ/mol
# Density = 1.557478 g / cm^3
# Si number density = 15.610312 Si / 1000 Ang^3
#
#
#
# Elastic Constant Matrix: (Units=GPa)
#
#
# Indices 1 2 3 4 5 6 
#
# 1 101.5133 53.4235 53.8321 0.0000 0.0000 0.0000
# 2 53.4235 101.5035 53.8318 0.0000 0.0000 0.0000
# 3 53.8321 53.8318 57.3124 0.0000 0.0000 0.0000
# 4 0.0000 0.0000 0.0000 26.7438 0.0000 0.0000
# 5 0.0000 0.0000 0.0000 0.0000 26.7437 0.0000
# 6 0.0000 0.0000 0.0000 0.0000 0.0000 13.5943
#
#
#
# Elastic Compliance Matrix: (Units=1/GPa)
#
#
# Indices 1 2 3 4 5 6 
#
# 1 0.019689 -0.001106 -0.017455 0.000000 0.000000 0.000000
# 2 -0.001106 0.019693 -0.017458 0.000000 0.000000 0.000000
# 3 -0.017455 -0.017458 0.050241 0.000000 0.000000 0.000000
# 4 0.000000 0.000000 0.000000 0.037392 0.000000 0.000000
# 5 0.000000 0.000000 0.000000 0.000000 0.037392 0.000000
# 6 0.000000 0.000000 0.000000 0.000000 0.000000 0.073560
#
#
# Mechanical properties :
#
#
# Convention : Reuss Voigt Hill
#
# Bulk Modulus (GPa) = 56.86561 64.72267 60.79414
# Shear Modulus (GPa) = 15.82946 20.03248 17.93097
#
# Velocity S-wave (km/s) = 3.18785 3.58618 3.39287
# Velocity P-wave (km/s) = 7.07511 7.66153 7.37415
#
# Compressibility (1/GPa) = 0.01758532
#
# Stress axis : x y z
#
# Youngs Moduli (GPa) = 50.78956 50.78018 19.90393
#
# Poissons Ratio (x) = 0.05614 0.34742
# Poissons Ratio (y) = 0.05616 0.34749
# Poissons Ratio (z) = 0.88653 0.88654
#
# Static dielectric constant tensor:
#      x y z
#    x 1.502460 0.000000 0.000000 
#    y 0.000000 1.502460 0.000000 
#    z 0.000000 0.000000 1.524780 
# 
# From -- ./inp_files/6519.got.cif
#   From: 2010.05.17/outbox.cif.g08.bks.cpg/sg129_4_cif.got.tgz:6519.got - 2010.05.20 12:12:06.
