data_PCOD9565990
_publ_section_title
;
Structure prediction by ZEFSAII (Michael W. Deem and Ramdas Pophale) SiO2 
 PCOD9565990
Probable space group: P 4/N C C
;
_chemical_formula_sum "Si O2"
_cell_formula_units_Z 80
_cell_length_a 10.888241
_cell_length_b 10.888241
_cell_length_c 28.803661
_cell_angle_alpha 90.000000
_cell_angle_beta 90.000000
_cell_angle_gamma 90.000000
_cell_volume 3414.783237
_symmetry_space_group_name_H-M "P 4/N C C"
_symmetry_group_IT_number 130
_symmetry_cell_setting 'tetragonal'
loop_
_space_group_symop_operation_xyz
x,y,z
1/2-y,x,z
1/2-x,1/2-y,z
y,1/2-x,z
1/2+x,-y,1/2-z
-x,1/2+y,1/2-z
1/2+y,1/2+x,1/2-z
-y,-x,1/2-z
-x,-y,-z
1/2+y,-x,-z
1/2+x,1/2+y,-z
-y,1/2+x,-z
1/2-x,y,1/2+z
x,1/2-y,1/2+z
1/2-y,1/2-x,1/2+z
y,x,1/2+z
loop_
_atom_site_type_symbol
_atom_site_label
_atom_site_fract_x
_atom_site_fract_y
_atom_site_fract_z
Si Si1 0.547373 0.146693 0.435167
Si Si2 0.316576 0.054475 0.277922
Si Si3 0.301315 0.448959 0.675099
Si Si4 0.549813 0.769121 0.970971
Si Si5 0.948458 0.118074 0.378197
O O1 0.477649 0.222265 0.476159
O O2 0.456042 0.051018 0.408277
O O3 0.584226 0.253965 0.400766
O O4 0.665533 0.075742 0.455252
O O5 0.400091 0.176228 0.278090
O O6 0.324465 0.995419 0.226519
O O7 0.350291 0.994122 0.326365
O O8 0.165662 0.394498 0.672230
O O9 0.330427 0.535287 0.632249
O O10 0.623322 0.646225 0.956939
#
# Coordination Sequence:
#
# PCOD9565990 Si02
#       5
#    16  16  16  16  16
#     4  12  27  47  77 110 142 197 254 318 393 457
#     4   9  17  35  70 106 145 198 240 292 374 459
#     4   9  21  43  68 103 153 201 244 293 378 462
#     4  11  26  53  78 105 151 200 247 321 400 464
#     4  12  23  42  73 110 148 184 256 320 364 453
#
# _framework density 23.427547000000001
#
# number of rings (size 3 to 8) (size 9 to 14) (size 15 to 20)
#    0.000    1.400    4.000    2.400    0.000    2.400 
#    3.600    2.000    0.000    0.000    0.000    0.000 
#    0.000    0.000    0.000    0.000    0.000    0.000 
#
# Total GULP energy -446340.347175 kJ/mol
# GULP energy per Si atom -5579.254340 kJ/mol
# Density = 2.337422 g / cm^3
# Si number density = 23.427547 Si / 1000 Ang^3
#
#
#
# Elastic Constant Matrix: (Units=GPa)
#
#
# Indices 1 2 3 4 5 6 
#
# 1 81.6588 2.9696 34.3819 0.0000 0.0000 0.0000
# 2 2.9696 81.6588 34.3819 0.0000 0.0000 0.0000
# 3 34.3819 34.3819 75.8998 0.0000 0.0000 0.0000
# 4 0.0000 0.0000 0.0000 43.3998 0.0000 0.0000
# 5 0.0000 0.0000 0.0000 0.0000 43.3998 0.0000
# 6 0.0000 0.0000 0.0000 0.0000 0.0000 21.5290
#
#
#
# Elastic Compliance Matrix: (Units=1/GPa)
#
#
# Indices 1 2 3 4 5 6 
#
# 1 0.015704 0.002995 -0.008470 0.000000 0.000000 0.000000
# 2 0.002995 0.015704 -0.008470 0.000000 0.000000 0.000000
# 3 -0.008470 -0.008470 0.020849 0.000000 0.000000 0.000000
# 4 0.000000 0.000000 0.000000 0.023042 0.000000 0.000000
# 5 0.000000 0.000000 0.000000 0.000000 0.023042 0.000000
# 6 0.000000 0.000000 0.000000 0.000000 0.000000 0.046449
#
#
# Mechanical properties :
#
#
# Convention : Reuss Voigt Hill
#
# Bulk Modulus (GPa) = 41.04179 42.52049 41.78114
# Shear Modulus (GPa) = 27.65463 32.83132 30.24297
#
# Velocity S-wave (km/s) = 3.43947 3.74759 3.59683
# Velocity P-wave (km/s) = 5.77321 6.07578 5.92642
#
# Compressibility (1/GPa) = 0.02436541
#
# Stress axis : x y z
#
# Youngs Moduli (GPa) = 63.67974 63.67974 47.96315
#
# Poissons Ratio (x) = -0.19074 0.40627
# Poissons Ratio (y) = -0.19074 0.40627
# Poissons Ratio (z) = 0.53940 0.53940
#
# Static dielectric constant tensor:
#      x y z
#    x 1.881070 0.000000 0.000000 
#    y 0.000000 1.881070 0.000000 
#    z 0.000000 0.000000 1.937240 
# 
# From -- ./inp_files/4777.got.cif
#   From: 2010.05.17/outbox.cif.g08.bks.cpg/sg130_3_cif.got.tgz:4777.got - 2010.05.20 12:17:35.
