data_PCOD9565138
_publ_section_title
;
Structure prediction by ZEFSAII (Michael W. Deem and Ramdas Pophale) SiO2 
 PCOD9565138
Probable space group: P 4/N M M
;
_chemical_formula_sum "Si O2"
_cell_formula_units_Z 104
_cell_length_a 19.017197
_cell_length_b 19.017197
_cell_length_c 18.877193
_cell_angle_alpha 90.000000
_cell_angle_beta 90.000000
_cell_angle_gamma 90.000000
_cell_volume 6827.008237
_symmetry_space_group_name_H-M "P 4/N M M"
_symmetry_group_IT_number 129
_symmetry_cell_setting 'tetragonal'
loop_
_space_group_symop_operation_xyz
x,y,z
1/2-y,x,z
1/2-x,1/2-y,z
y,1/2-x,z
1/2+x,-y,-z
-x,1/2+y,-z
1/2+y,1/2+x,-z
-y,-x,-z
-x,-y,-z
1/2+y,-x,-z
1/2+x,1/2+y,-z
-y,1/2+x,-z
1/2-x,y,z
x,1/2-y,z
1/2-y,1/2-x,z
y,x,z
loop_
_atom_site_type_symbol
_atom_site_label
_atom_site_fract_x
_atom_site_fract_y
_atom_site_fract_z
Si Si1 0.448177 0.330080 0.352635
Si Si2 0.050489 0.333177 0.782622
Si Si3 0.666503 0.401556 0.148816
Si Si4 0.829809 0.456284 0.350524
Si Si5 0.166916 0.666916 0.000000
Si Si6 0.382610 0.002183 0.503145
Si Si7 0.908241 0.331914 0.281453
O O1 0.422123 0.250000 0.351536
O O2 0.386897 0.386897 0.344825
O O3 0.485839 0.344177 0.428617
O O4 0.508159 0.338280 0.292971
O O5 0.069160 0.250000 0.782996
O O6 0.115621 0.384380 0.796870
O O7 0.984410 0.343514 0.835703
O O8 0.016174 0.351198 0.705882
O O9 0.750000 0.386602 0.159993
O O10 0.649064 0.377658 0.069551
O O11 0.621384 0.358300 0.206201
O O12 0.750000 0.438074 0.332135
O O13 0.835343 0.484649 0.429616
O O14 0.874620 0.386409 0.337238
O O15 0.156980 0.750000 0.984305
O O16 0.427374 0.072627 0.517255
O O17 0.439326 0.939326 0.500000
O O18 0.889787 0.250000 0.293199
#
# Coordination Sequence:
#
# PCOD9565138 Si02
#       7
#    16  16  16  16   8  16  16
#     4  10  21  35  51  70  91 119 158 203 247 287
#     4   9  18  31  47  68  92 121 156 195 239 285
#     4   9  18  31  48  72 100 129 157 189 227 272
#     4  10  19  30  46  66  91 122 155 193 236 279
#     4   9  16  28  49  74 100 130 159 184 218 267
#     4  10  18  30  48  67  87 116 156 199 241 283
#     4  10  19  30  45  67  95 125 157 188 221 272
#
# _framework density 15.233613
#
# number of rings (size 3 to 8) (size 9 to 14) (size 15 to 20)
#    0.000    2.385    1.538    2.769    0.000    4.615 
#    0.000    0.385    0.000    0.000    0.000    2.154 
#    0.000    0.000    0.000    8.000    0.000    0.000 
#
# Total GULP energy -579351.466186 kJ/mol
# GULP energy per Si atom -5570.687175 kJ/mol
# Density = 1.519894 g / cm^3
# Si number density = 15.233613 Si / 1000 Ang^3
#
#
#
# Elastic Constant Matrix: (Units=GPa)
#
#
# Indices 1 2 3 4 5 6 
#
# 1 81.6579 57.4463 43.2911 0.0000 0.0000 0.0000
# 2 57.4463 81.6579 43.2911 0.0000 0.0000 0.0000
# 3 43.2911 43.2911 93.1738 0.0000 0.0000 0.0000
# 4 0.0000 0.0000 0.0000 19.1702 0.0000 0.0000
# 5 0.0000 0.0000 0.0000 0.0000 19.1702 0.0000
# 6 0.0000 0.0000 0.0000 0.0000 0.0000 24.2826
#
#
#
# Elastic Compliance Matrix: (Units=1/GPa)
#
#
# Indices 1 2 3 4 5 6 
#
# 1 0.025708 -0.015594 -0.004699 0.000000 0.000000 0.000000
# 2 -0.015594 0.025708 -0.004699 0.000000 0.000000 0.000000
# 3 -0.004699 -0.004699 0.015099 0.000000 0.000000 0.000000
# 4 0.000000 0.000000 0.000000 0.052164 0.000000 0.000000
# 5 0.000000 0.000000 0.000000 0.000000 0.052164 0.000000
# 6 0.000000 0.000000 0.000000 0.000000 0.000000 0.041182
#
#
# Mechanical properties :
#
#
# Convention : Reuss Voigt Hill
#
# Bulk Modulus (GPa) = 60.49501 60.50517 60.50009
# Shear Modulus (GPa) = 18.69010 20.02201 19.35606
#
# Velocity S-wave (km/s) = 3.50651 3.62930 3.56844
# Velocity P-wave (km/s) = 7.49613 7.57409 7.53521
#
# Compressibility (1/GPa) = 0.01653029
#
# Stress axis : x y z
#
# Youngs Moduli (GPa) = 38.89818 38.89818 66.22828
#
# Poissons Ratio (x) = 0.60660 0.31121
# Poissons Ratio (y) = 0.60660 0.31121
# Poissons Ratio (z) = 0.18279 0.18279
#
# Static dielectric constant tensor:
#      x y z
#    x 1.499480 0.000000 0.000000 
#    y 0.000000 1.499480 0.000000 
#    z 0.000000 0.000000 1.505580 
# 
# From -- ./inp_files/5834.got.cif
#   From: 2010.05.17/outbox.cif.g08.bks.cpg/sg129_3_cif.got.tgz:5834.got - 2010.05.20 12:12:06.
