data_PCOD9565535
_publ_section_title
;
Structure prediction by ZEFSAII (Michael W. Deem and Ramdas Pophale) SiO2 
 PCOD9565535
Probable space group: P 4/N C C
;
_chemical_formula_sum "Si O2"
_cell_formula_units_Z 120
_cell_length_a 16.503238
_cell_length_b 16.503238
_cell_length_c 22.305004
_cell_angle_alpha 90.000000
_cell_angle_beta 90.000000
_cell_angle_gamma 90.000000
_cell_volume 6074.920952
_symmetry_space_group_name_H-M "P 4/N C C"
_symmetry_group_IT_number 130
_symmetry_cell_setting 'tetragonal'
loop_
_space_group_symop_operation_xyz
x,y,z
1/2-y,x,z
1/2-x,1/2-y,z
y,1/2-x,z
1/2+x,-y,1/2-z
-x,1/2+y,1/2-z
1/2+y,1/2+x,1/2-z
-y,-x,1/2-z
-x,-y,-z
1/2+y,-x,-z
1/2+x,1/2+y,-z
-y,1/2+x,-z
1/2-x,y,1/2+z
x,1/2-y,1/2+z
1/2-y,1/2-x,1/2+z
y,x,1/2+z
loop_
_atom_site_type_symbol
_atom_site_label
_atom_site_fract_x
_atom_site_fract_y
_atom_site_fract_z
Si Si1 0.535248 0.660823 0.460024
Si Si2 0.040825 0.922149 0.115428
Si Si3 0.382058 0.272778 0.305338
Si Si4 0.872403 0.964437 0.285744
Si Si5 0.447877 0.947877 0.750000
Si Si6 0.447099 0.165177 0.583223
Si Si7 0.416075 0.571123 0.873535
Si Si8 0.761194 0.998385 0.088327
O O1 0.468851 0.603980 0.427758
O O2 0.553042 0.739682 0.420690
O O3 0.617174 0.607986 0.463438
O O4 0.510992 0.699087 0.523263
O O5 0.073840 0.913784 0.184164
O O6 0.019695 0.833457 0.090819
O O7 0.963000 0.983913 0.120153
O O8 0.312896 0.339769 0.295801
O O9 0.451172 0.297845 0.258128
O O10 0.418135 0.273016 0.371709
O O11 0.859872 0.919533 0.349554
O O12 0.955474 0.934853 0.256406
O O13 0.945695 0.109189 0.189127
O O14 0.538098 0.128852 0.578875
O O15 0.321400 0.562983 0.880645
#
# Coordination Sequence:
#
# PCOD9565535 Si02
#       8
#    16  16  16  16   8  16  16  16
#     4  11  25  42  66  96 132 179 222 272 329 415
#     4  10  23  41  67  98 128 176 232 282 334 399
#     4  11  24  37  58  99 141 173 206 274 347 408
#     4   9  19  36  66  87 124 163 222 263 319 396
#     4  10  16  40  66  92 125 167 232 272 320 396
#     4   9  23  41  65  93 125 172 218 271 324 397
#     4   8  20  40  64  91 121 169 224 271 325 400
#     4  12  24  38  67  92 132 174 222 279 339 395
#
# _framework density 19.753343999999998
#
# number of rings (size 3 to 8) (size 9 to 14) (size 15 to 20)
#    0.800    1.200    1.333    3.200    7.467    2.400 
#    0.000    0.667    0.000    0.000    0.000    0.000 
#    0.000    0.000    0.000    0.000    0.000    0.000 
#
# Total GULP energy -668471.057363 kJ/mol
# GULP energy per Si atom -5570.592145 kJ/mol
# Density = 1.970838 g / cm^3
# Si number density = 19.753344 Si / 1000 Ang^3
#
#
#
# Elastic Constant Matrix: (Units=GPa)
#
#
# Indices 1 2 3 4 5 6 
#
# 1 81.5504 38.9123 19.1607 0.0000 0.0000 0.0000
# 2 38.9123 81.5504 19.1607 0.0000 0.0000 0.0000
# 3 19.1607 19.1607 90.2417 0.0000 0.0000 0.0000
# 4 0.0000 0.0000 0.0000 23.8236 0.0000 0.0000
# 5 0.0000 0.0000 0.0000 0.0000 23.8236 0.0000
# 6 0.0000 0.0000 0.0000 0.0000 0.0000 10.5970
#
#
#
# Elastic Compliance Matrix: (Units=1/GPa)
#
#
# Indices 1 2 3 4 5 6 
#
# 1 0.016178 -0.007275 -0.001890 0.000000 0.000000 0.000000
# 2 -0.007275 0.016178 -0.001890 0.000000 0.000000 0.000000
# 3 -0.001890 -0.001890 0.011884 0.000000 0.000000 0.000000
# 4 0.000000 0.000000 0.000000 0.041975 0.000000 0.000000
# 5 0.000000 0.000000 0.000000 0.000000 0.041975 0.000000
# 6 0.000000 0.000000 0.000000 0.000000 0.000000 0.094366
#
#
# Mechanical properties :
#
#
# Convention : Reuss Voigt Hill
#
# Bulk Modulus (GPa) = 45.19100 45.31220 45.25160
# Shear Modulus (GPa) = 19.83781 23.38943 21.61362
#
# Velocity S-wave (km/s) = 3.17247 3.44477 3.31142
# Velocity P-wave (km/s) = 6.02882 6.22983 6.13015
#
# Compressibility (1/GPa) = 0.02212830
#
# Stress axis : x y z
#
# Youngs Moduli (GPa) = 61.81260 61.81260 84.14627
#
# Poissons Ratio (x) = 0.44970 0.15906
# Poissons Ratio (y) = 0.44970 0.15906
# Poissons Ratio (z) = 0.11684 0.11684
#
# Static dielectric constant tensor:
#      x y z
#    x 1.706520 0.000000 0.000000 
#    y 0.000000 1.706520 0.000000 
#    z 0.000000 0.000000 1.798920 
# 
# From -- ./inp_files/4000.got.cif
#   From: 2010.05.17/outbox.cif.g08.bks.cpg/sg130_2_cif.got.tgz:4000.got - 2010.05.20 12:17:35.
