data_PCOD9565541
_publ_section_title
;
Structure prediction by ZEFSAII (Michael W. Deem and Ramdas Pophale) SiO2 
 PCOD9565541
Probable space group: P 4/N C C
;
_chemical_formula_sum "Si O2"
_cell_formula_units_Z 128
_cell_length_a 24.927104
_cell_length_b 24.927104
_cell_length_c 12.423877
_cell_angle_alpha 90.000000
_cell_angle_beta 90.000000
_cell_angle_gamma 90.000000
_cell_volume 7719.706596
_symmetry_space_group_name_H-M "P 4/N C C"
_symmetry_group_IT_number 130
_symmetry_cell_setting 'tetragonal'
loop_
_space_group_symop_operation_xyz
x,y,z
1/2-y,x,z
1/2-x,1/2-y,z
y,1/2-x,z
1/2+x,-y,1/2-z
-x,1/2+y,1/2-z
1/2+y,1/2+x,1/2-z
-y,-x,1/2-z
-x,-y,-z
1/2+y,-x,-z
1/2+x,1/2+y,-z
-y,1/2+x,-z
1/2-x,y,1/2+z
x,1/2-y,1/2+z
1/2-y,1/2-x,1/2+z
y,x,1/2+z
loop_
_atom_site_type_symbol
_atom_site_label
_atom_site_fract_x
_atom_site_fract_y
_atom_site_fract_z
Si Si1 0.038353 0.991474 0.142887
Si Si2 0.165702 0.216869 0.592995
Si Si3 0.453115 0.080642 0.484881
Si Si4 0.932183 0.146257 0.718711
Si Si5 0.256317 0.077565 0.754293
Si Si6 0.918531 0.832377 0.576724
Si Si7 0.992111 0.220558 0.566808
Si Si8 0.498382 0.185814 0.418537
O O1 0.003511 0.996490 0.250000
O O2 0.093342 0.961127 0.170610
O O3 0.000213 0.954026 0.070992
O O4 0.055138 0.047978 0.093834
O O5 0.220562 0.183007 0.586352
O O6 0.130713 0.216783 0.703376
O O7 0.127724 0.194308 0.498196
O O8 0.396813 0.084334 0.421600
O O9 0.475941 0.139740 0.494938
O O10 0.872675 0.127326 0.750000
O O11 0.962600 0.162423 0.827924
O O12 0.944568 0.191501 0.630743
O O13 0.197706 0.084650 0.808203
O O14 0.258202 0.034179 0.657375
O O15 0.289939 0.051824 0.852166
O O16 0.973625 0.818079 0.512504
O O17 0.974772 0.268773 0.490312
#
# Coordination Sequence:
#
# PCOD9565541 Si02
#       8
#    16  16  16  16  16  16  16  16
#     4  10  20  35  50  80 108 143 179 216 268 332
#     4  10  23  37  46  62  90 127 183 245 287 323
#     4  11  21  31  55  78 106 141 184 222 275 331
#     4  10  17  36  57  77 107 145 175 212 258 330
#     4   9  21  35  50  69  95 135 181 228 288 318
#     4  10  21  33  50  72  95 136 182 234 278 327
#     4   9  19  36  49  75 108 133 178 224 264 321
#     4  10  20  33  54  79 103 138 176 219 270 323
#
# _framework density 16.580939999999998
#
# number of rings (size 3 to 8) (size 9 to 14) (size 15 to 20)
#    0.000    2.125    3.750    0.000    7.000    1.000 
#    0.000    1.250    0.000    0.000    0.000    0.000 
#    0.000    1.500    0.000    0.000    0.000    0.000 
#
# Total GULP energy -712660.884351 kJ/mol
# GULP energy per Si atom -5567.663159 kJ/mol
# Density = 1.654320 g / cm^3
# Si number density = 16.580940 Si / 1000 Ang^3
#
#
#
# Elastic Constant Matrix: (Units=GPa)
#
#
# Indices 1 2 3 4 5 6 
#
# 1 65.3707 35.8020 17.0268 0.0000 0.0000 0.0000
# 2 35.8020 65.3694 17.0273 0.0000 0.0000 0.0000
# 3 17.0268 17.0273 43.4810 0.0000 0.0000 0.0000
# 4 0.0000 0.0000 0.0000 22.1835 0.0000 0.0000
# 5 0.0000 0.0000 0.0000 0.0000 22.1842 0.0000
# 6 0.0000 0.0000 0.0000 0.0000 0.0000 19.4419
#
#
#
# Elastic Compliance Matrix: (Units=1/GPa)
#
#
# Indices 1 2 3 4 5 6 
#
# 1 0.022602 -0.011218 -0.004458 0.000000 0.000000 0.000000
# 2 -0.011218 0.022603 -0.004459 0.000000 0.000000 0.000000
# 3 -0.004458 -0.004459 0.026490 0.000000 0.000000 0.000000
# 4 0.000000 0.000000 0.000000 0.045079 0.000000 0.000000
# 5 0.000000 0.000000 0.000000 0.000000 0.045077 0.000000
# 6 0.000000 0.000000 0.000000 0.000000 0.000000 0.051435
#
#
# Mechanical properties :
#
#
# Convention : Reuss Voigt Hill
#
# Bulk Modulus (GPa) = 31.81999 34.88148 33.35073
# Shear Modulus (GPa) = 18.93720 19.71957 19.32839
#
# Velocity S-wave (km/s) = 3.38317 3.45235 3.41794
# Velocity P-wave (km/s) = 5.87312 6.08066 5.97779
#
# Compressibility (1/GPa) = 0.03142679
#
# Stress axis : x y z
#
# Youngs Moduli (GPa) = 44.24346 44.24226 37.74974
#
# Poissons Ratio (x) = 0.49630 0.16829
# Poissons Ratio (y) = 0.49631 0.16831
# Poissons Ratio (z) = 0.19724 0.19726
#
# Static dielectric constant tensor:
#      x y z
#    x 1.580150 0.000000 0.000000 
#    y 0.000000 1.580150 0.000000 
#    z 0.000000 0.000000 1.603800 
# 
# From -- ./inp_files/1882.got.cif
#   From: 2010.05.17/outbox.cif.g08.bks.cpg/sg130_1_cif.got.tgz:1882.got - 2010.05.20 12:17:35.
