data_PCOD9565902
_publ_section_title
;
Structure prediction by ZEFSAII (Michael W. Deem and Ramdas Pophale) SiO2 
 PCOD9565902
Probable space group: P 4/N C C
;
_chemical_formula_sum "Si O2"
_cell_formula_units_Z 84
_cell_length_a 15.118239
_cell_length_b 15.118239
_cell_length_c 15.291876
_cell_angle_alpha 90.000000
_cell_angle_beta 90.000000
_cell_angle_gamma 90.000000
_cell_volume 3495.128771
_symmetry_space_group_name_H-M "P 4/N C C"
_symmetry_group_IT_number 130
_symmetry_cell_setting 'tetragonal'
loop_
_space_group_symop_operation_xyz
x,y,z
1/2-y,x,z
1/2-x,1/2-y,z
y,1/2-x,z
1/2+x,-y,1/2-z
-x,1/2+y,1/2-z
1/2+y,1/2+x,1/2-z
-y,-x,1/2-z
-x,-y,-z
1/2+y,-x,-z
1/2+x,1/2+y,-z
-y,1/2+x,-z
1/2-x,y,1/2+z
x,1/2-y,1/2+z
1/2-y,1/2-x,1/2+z
y,x,1/2+z
loop_
_atom_site_type_symbol
_atom_site_label
_atom_site_fract_x
_atom_site_fract_y
_atom_site_fract_z
Si Si1 0.637462 0.841544 0.763611
Si Si2 0.231476 0.906977 0.790737
Si Si3 0.750000 0.250000 0.500000
Si Si4 0.091177 0.059506 0.064871
Si Si5 0.191691 0.892577 0.116682
Si Si6 0.585887 0.970880 0.624606
O O1 0.631545 0.738374 0.742449
O O2 0.620884 0.860525 0.865685
O O3 0.573976 0.903602 0.705284
O O4 0.173778 0.826223 0.750000
O O5 0.314378 0.869977 0.844927
O O6 0.268369 0.944672 0.699195
O O7 0.169237 0.969317 0.847364
O O8 0.760270 0.162198 0.442067
O O9 0.138900 0.964014 0.062485
O O10 0.907609 0.912937 0.036016
O O11 0.994710 0.037413 0.104207
#
# Coordination Sequence:
#
# PCOD9565902 Si02
#       6
#    16  16   4  16  16  16
#     4  11  26  49  74 101 136 184 245 305 359 422
#     4  11  21  41  65  99 141 188 224 282 352 427
#     4  12  20  42  60 112 156 178 240 292 366 432
#     4  11  26  46  69 105 143 183 236 299 364 436
#     4  11  23  38  68 102 145 186 231 289 361 445
#     4  11  26  46  71 103 139 186 239 293 365 435
#
# _framework density 24.033448
#
# number of rings (size 3 to 8) (size 9 to 14) (size 15 to 20)
#    0.000    0.952    1.905    4.571    8.000    1.524 
#    6.857    1.905    0.000    0.000    0.000    0.000 
#    0.000    0.000    0.000    0.000    0.000    0.000 
#
# Total GULP energy -470092.348314 kJ/mol
# GULP energy per Si atom -5596.337480 kJ/mol
# Density = 2.397875 g / cm^3
# Si number density = 24.033448 Si / 1000 Ang^3
#
#
#
# Elastic Constant Matrix: (Units=GPa)
#
#
# Indices 1 2 3 4 5 6 
#
# 1 66.8029 11.1826 15.1337 0.0000 0.0000 0.0000
# 2 11.1826 66.8042 15.1346 0.0000 0.0000 0.0000
# 3 15.1337 15.1346 127.6096 0.0000 0.0000 0.0000
# 4 0.0000 0.0000 0.0000 30.0480 0.0000 0.0000
# 5 0.0000 0.0000 0.0000 0.0000 30.0479 0.0000
# 6 0.0000 0.0000 0.0000 0.0000 0.0000 25.6935
#
#
#
# Elastic Compliance Matrix: (Units=1/GPa)
#
#
# Indices 1 2 3 4 5 6 
#
# 1 0.015710 -0.002269 -0.001594 0.000000 0.000000 0.000000
# 2 -0.002269 0.015710 -0.001594 0.000000 0.000000 0.000000
# 3 -0.001594 -0.001594 0.008215 0.000000 0.000000 0.000000
# 4 0.000000 0.000000 0.000000 0.033280 0.000000 0.000000
# 5 0.000000 0.000000 0.000000 0.000000 0.033280 0.000000
# 6 0.000000 0.000000 0.000000 0.000000 0.000000 0.038920
#
#
# Mechanical properties :
#
#
# Convention : Reuss Voigt Hill
#
# Bulk Modulus (GPa) = 34.81767 38.23536 36.52652
# Shear Modulus (GPa) = 30.19268 31.80893 31.00081
#
# Velocity S-wave (km/s) = 3.54825 3.64198 3.59542
# Velocity P-wave (km/s) = 5.59512 5.79906 5.69800
#
# Compressibility (1/GPa) = 0.02872105
#
# Stress axis : x y z
#
# Youngs Moduli (GPa) = 63.65254 63.65354 121.73571
#
# Poissons Ratio (x) = 0.14441 0.19406
# Poissons Ratio (y) = 0.14441 0.19407
# Poissons Ratio (z) = 0.10147 0.10147
#
# Static dielectric constant tensor:
#      x y z
#    x 1.932750 0.000000 0.000000 
#    y 0.000000 1.932750 0.000000 
#    z 0.000000 0.000000 1.946140 
# 
# From -- ./inp_files/3039.got.cif
#   From: 2010.05.17/outbox.cif.g08.bks.cpg/sg130_2_cif.got.tgz:3039.got - 2010.05.20 12:17:35.
