data_PCOD9565693
_publ_section_title
;
Structure prediction by ZEFSAII (Michael W. Deem and Ramdas Pophale) SiO2 
 PCOD9565693
Probable space group: P 4/N C C
;
_chemical_formula_sum "Si O2"
_cell_formula_units_Z 116
_cell_length_a 17.552753
_cell_length_b 17.552753
_cell_length_c 17.910490
_cell_angle_alpha 90.000000
_cell_angle_beta 90.000000
_cell_angle_gamma 90.000000
_cell_volume 5518.206528
_symmetry_space_group_name_H-M "P 4/N C C"
_symmetry_group_IT_number 130
_symmetry_cell_setting 'tetragonal'
loop_
_space_group_symop_operation_xyz
x,y,z
1/2-y,x,z
1/2-x,1/2-y,z
y,1/2-x,z
1/2+x,-y,1/2-z
-x,1/2+y,1/2-z
1/2+y,1/2+x,1/2-z
-y,-x,1/2-z
-x,-y,-z
1/2+y,-x,-z
1/2+x,1/2+y,-z
-y,1/2+x,-z
1/2-x,y,1/2+z
x,1/2-y,1/2+z
1/2-y,1/2-x,1/2+z
y,x,1/2+z
loop_
_atom_site_type_symbol
_atom_site_label
_atom_site_fract_x
_atom_site_fract_y
_atom_site_fract_z
Si Si1 0.205476 0.070295 0.073727
Si Si2 0.296394 0.896632 0.587873
Si Si3 0.750000 0.250000 0.500000
Si Si4 0.590123 0.584793 0.040390
Si Si5 0.349097 0.098176 0.171208
Si Si6 0.840278 0.835082 0.167764
Si Si7 0.095745 0.570154 0.021022
Si Si8 0.167185 0.918664 0.683077
O O1 0.276006 0.108004 0.116402
O O2 0.131121 0.077596 0.127804
O O3 0.223454 0.981848 0.059669
O O4 0.170315 0.105390 0.999175
O O5 0.257314 0.824910 0.549251
O O6 0.381853 0.887123 0.554704
O O7 0.257726 0.900973 0.670299
O O8 0.599390 0.614089 0.123668
O O9 0.578518 0.494484 0.035059
O O10 0.516940 0.617327 0.997381
O O11 0.344702 0.148840 0.244578
O O12 0.347538 0.009235 0.193926
O O13 0.752804 0.854283 0.149354
O O14 0.131004 0.596092 0.100440
O O15 0.129075 0.870926 0.750000
#
# Coordination Sequence:
#
# PCOD9565693 Si02
#       8
#    16  16   4  16  16  16  16  16
#     4  10  22  38  67  96 128 174 228 262 325 411
#     4  10  23  40  67  95 125 170 222 276 336 406
#     4  12  20  44  74  84 128 172 218 284 368 376
#     4  10  22  38  64  95 131 167 226 277 316 401
#     4  11  21  41  64  90 139 180 210 273 337 399
#     4  11  24  40  57  89 137 180 219 266 328 398
#     4  10  20  41  66  96 127 172 215 275 345 391
#     4  11  22  39  69 100 128 170 225 277 339 411
#
# _framework density 21.021322000000001
#
# number of rings (size 3 to 8) (size 9 to 14) (size 15 to 20)
#    0.000    1.517    4.138    0.828    1.931    1.379 
#    0.000    0.345    3.034    0.000    0.000    0.000 
#    0.000    0.000    0.000    0.000    0.000    0.000 
#
# Total GULP energy -645878.684699 kJ/mol
# GULP energy per Si atom -5567.919696 kJ/mol
# Density = 2.097348 g / cm^3
# Si number density = 21.021322 Si / 1000 Ang^3
#
#
#
# Elastic Constant Matrix: (Units=GPa)
#
#
# Indices 1 2 3 4 5 6 
#
# 1 64.7654 49.4964 40.6708 0.0000 0.0000 0.0000
# 2 49.4964 64.7660 40.6709 0.0000 0.0000 0.0000
# 3 40.6708 40.6709 80.2820 0.0000 0.0000 0.0000
# 4 0.0000 0.0000 0.0000 34.3279 0.0000 0.0000
# 5 0.0000 0.0000 0.0000 0.0000 34.3281 0.0000
# 6 0.0000 0.0000 0.0000 0.0000 0.0000 10.9829
#
#
#
# Elastic Compliance Matrix: (Units=1/GPa)
#
#
# Indices 1 2 3 4 5 6 
#
# 1 0.039590 -0.025901 -0.006935 0.000000 0.000000 0.000000
# 2 -0.025901 0.039589 -0.006935 0.000000 0.000000 0.000000
# 3 -0.006935 -0.006935 0.019482 0.000000 0.000000 0.000000
# 4 0.000000 0.000000 0.000000 0.029131 0.000000 0.000000
# 5 0.000000 0.000000 0.000000 0.000000 0.029131 0.000000
# 6 0.000000 0.000000 0.000000 0.000000 0.000000 0.091051
#
#
# Mechanical properties :
#
#
# Convention : Reuss Voigt Hill
#
# Bulk Modulus (GPa) = 52.29901 52.38772 52.34337
# Shear Modulus (GPa) = 14.97509 21.19281 18.08395
#
# Velocity S-wave (km/s) = 2.67193 3.17859 2.93621
# Velocity P-wave (km/s) = 5.86958 6.20053 6.03733
#
# Compressibility (1/GPa) = 0.01912082
#
# Stress axis : x y z
#
# Youngs Moduli (GPa) = 25.25902 25.25927 51.32899
#
# Poissons Ratio (x) = 0.65425 0.35595
# Poissons Ratio (y) = 0.65424 0.35594
# Poissons Ratio (z) = 0.17516 0.17516
#
# Static dielectric constant tensor:
#      x y z
#    x 1.803770 0.000000 0.000000 
#    y 0.000000 1.803770 0.000000 
#    z 0.000000 0.000000 1.751020 
# 
# From -- ./inp_files/3195.got.cif
#   From: 2010.05.17/outbox.cif.g08.bks.cpg/sg130_2_cif.got.tgz:3195.got - 2010.05.20 12:17:35.
