data_PCOD9565383
_publ_section_title
;
Structure prediction by ZEFSAII (Michael W. Deem and Ramdas Pophale) SiO2 
 PCOD9565383
Probable space group: P 4/N M M
;
_chemical_formula_sum "Si O2"
_cell_formula_units_Z 72
_cell_length_a 13.673926
_cell_length_b 13.673926
_cell_length_c 23.589250
_cell_angle_alpha 90.000000
_cell_angle_beta 90.000000
_cell_angle_gamma 90.000000
_cell_volume 4410.629558
_symmetry_space_group_name_H-M "P 4/N M M"
_symmetry_group_IT_number 129
_symmetry_cell_setting 'tetragonal'
loop_
_space_group_symop_operation_xyz
x,y,z
1/2-y,x,z
1/2-x,1/2-y,z
y,1/2-x,z
1/2+x,-y,-z
-x,1/2+y,-z
1/2+y,1/2+x,-z
-y,-x,-z
-x,-y,-z
1/2+y,-x,-z
1/2+x,1/2+y,-z
-y,1/2+x,-z
1/2-x,y,z
x,1/2-y,z
1/2-y,1/2-x,z
y,x,z
loop_
_atom_site_type_symbol
_atom_site_label
_atom_site_fract_x
_atom_site_fract_y
_atom_site_fract_z
Si Si1 0.864856 0.135145 0.000000
Si Si2 0.131570 0.861642 0.666998
Si Si3 0.366176 0.974220 0.116949
Si Si4 0.527323 0.366979 0.551177
Si Si5 0.973272 0.133396 0.782256
O O1 0.928449 0.112471 0.055188
O O2 0.750000 0.121455 0.013842
O O3 0.250000 0.857069 0.667317
O O4 0.094923 0.750000 0.666223
O O5 0.105228 0.920271 0.610342
O O6 0.104010 0.918128 0.724193
O O7 0.250000 0.985053 0.122702
O O8 0.407814 0.901925 0.165001
O O9 0.424762 0.075239 0.122931
O O10 0.595445 0.404556 0.500000
O O11 0.515314 0.250000 0.549086
O O12 0.425619 0.425619 0.547181
O O13 0.986151 0.250000 0.782928
O O14 0.074944 0.074944 0.785213
#
# Coordination Sequence:
#
# PCOD9565383 Si02
#       5
#     8  16  16  16  16
#     4   9  17  30  50  74  97 123 158 200 245 293
#     4   9  17  30  49  71  95 125 161 200 240 283
#     4  10  20  33  50  72  98 129 165 204 245 290
#     4  10  20  33  50  73 100 131 168 208 251 299
#     4  10  20  33  50  73 100 130 165 204 247 295
#
# _framework density 16.324199
#
# number of rings (size 3 to 8) (size 9 to 14) (size 15 to 20)
#    0.000    2.333    0.000    3.000    0.000    4.000 
#    0.000    0.000    0.000    4.000    0.000    3.111 
#    0.000   16.000    0.000    0.000    0.000    0.000 
#
# Total GULP energy -401520.241712 kJ/mol
# GULP energy per Si atom -5576.670024 kJ/mol
# Density = 1.628704 g / cm^3
# Si number density = 16.324199 Si / 1000 Ang^3
#
#
#
# Elastic Constant Matrix: (Units=GPa)
#
#
# Indices 1 2 3 4 5 6 
#
# 1 101.9523 61.9934 57.8855 0.0000 0.0000 0.0000
# 2 61.9934 101.9497 57.8851 0.0000 0.0000 0.0000
# 3 57.8855 57.8851 130.3781 0.0000 0.0000 0.0000
# 4 0.0000 0.0000 0.0000 23.4983 0.0000 0.0000
# 5 0.0000 0.0000 0.0000 0.0000 23.4983 0.0000
# 6 0.0000 0.0000 0.0000 0.0000 0.0000 8.8163
#
#
#
# Elastic Compliance Matrix: (Units=1/GPa)
#
#
# Indices 1 2 3 4 5 6 
#
# 1 0.016956 -0.008071 -0.003945 0.000000 0.000000 0.000000
# 2 -0.008071 0.016956 -0.003945 0.000000 0.000000 0.000000
# 3 -0.003945 -0.003945 0.011173 0.000000 0.000000 0.000000
# 4 0.000000 0.000000 0.000000 0.042556 0.000000 0.000000
# 5 0.000000 0.000000 0.000000 0.000000 0.042556 0.000000
# 6 0.000000 0.000000 0.000000 0.000000 0.000000 0.113426
#
#
# Mechanical properties :
#
#
# Convention : Reuss Voigt Hill
#
# Bulk Modulus (GPa) = 75.96497 76.64536 76.30517
# Shear Modulus (GPa) = 17.86143 21.59697 19.72920
#
# Velocity S-wave (km/s) = 3.31141 3.64126 3.48024
# Velocity P-wave (km/s) = 7.82667 8.04564 7.93691
#
# Compressibility (1/GPa) = 0.01316396
#
# Stress axis : x y z
#
# Youngs Moduli (GPa) = 58.97720 58.97546 89.50193
#
# Poissons Ratio (x) = 0.47597 0.35307
# Poissons Ratio (y) = 0.47598 0.35309
# Poissons Ratio (z) = 0.23266 0.23266
#
# Static dielectric constant tensor:
#      x y z
#    x 1.527960 0.000000 0.000000 
#    y 0.000000 1.527950 0.000000 
#    z 0.000000 0.000000 1.543020 
# 
# From -- ./inp_files/7393.got.cif
#   From: 2010.05.17/outbox.cif.g08.bks.cpg/sg129_4_cif.got.tgz:7393.got - 2010.05.20 12:12:06.
