data_PCOD9565395
_publ_section_title
;
Structure prediction by ZEFSAII (Michael W. Deem and Ramdas Pophale) SiO2 
 PCOD9565395
Probable space group: P 4/N M M
;
_chemical_formula_sum "Si O2"
_cell_formula_units_Z 128
_cell_length_a 19.247195
_cell_length_b 19.247195
_cell_length_c 20.449562
_cell_angle_alpha 90.000000
_cell_angle_beta 90.000000
_cell_angle_gamma 90.000000
_cell_volume 7575.632580
_symmetry_space_group_name_H-M "P 4/N M M"
_symmetry_group_IT_number 129
_symmetry_cell_setting 'tetragonal'
loop_
_space_group_symop_operation_xyz
x,y,z
1/2-y,x,z
1/2-x,1/2-y,z
y,1/2-x,z
1/2+x,-y,-z
-x,1/2+y,-z
1/2+y,1/2+x,-z
-y,-x,-z
-x,-y,-z
1/2+y,-x,-z
1/2+x,1/2+y,-z
-y,1/2+x,-z
1/2-x,y,z
x,1/2-y,z
1/2-y,1/2-x,z
y,x,z
loop_
_atom_site_type_symbol
_atom_site_label
_atom_site_fract_x
_atom_site_fract_y
_atom_site_fract_z
Si Si1 0.552434 0.831240 0.650851
Si Si2 0.947411 0.669174 0.390546
Si Si3 0.668493 0.444116 0.761593
Si Si4 0.942609 0.330328 0.720730
Si Si5 0.168171 0.538458 0.946889
Si Si6 0.888088 0.005805 0.522563
Si Si7 0.558047 0.830344 0.166324
Si Si8 0.076392 0.831285 0.911503
O O1 0.570991 0.750000 0.647856
O O2 0.619078 0.880923 0.644515
O O3 0.512088 0.845644 0.718361
O O4 0.499601 0.848823 0.591296
O O5 0.929276 0.750000 0.378807
O O6 0.883156 0.616845 0.379565
O O7 0.974438 0.658038 0.464247
O O8 0.011345 0.650749 0.342611
O O9 0.750000 0.426693 0.752546
O O10 0.619572 0.382530 0.735823
O O11 0.657442 0.454182 0.839371
O O12 0.919424 0.250000 0.714278
O O13 0.996758 0.333778 0.780678
O O14 0.250000 0.543708 0.935190
O O15 0.143760 0.475915 0.901422
O O16 0.135303 0.611114 0.923403
O O17 0.157571 0.528616 0.024434
O O18 0.953264 0.953264 0.530160
O O19 0.921054 0.078947 0.500000
O O20 0.579699 0.750000 0.160199
O O21 0.621193 0.878808 0.186235
O O22 0.099793 0.750000 0.914548
#
# Coordination Sequence:
#
# PCOD9565395 Si02
#       8
#    16  16  16  16  16  16  16  16
#     4  10  21  36  54  77 105 138 179 224 267 310
#     4  10  20  33  51  75 103 136 175 218 263 311
#     4  10  20  34  52  77 106 136 171 211 255 308
#     4  10  20  34  51  74 103 135 169 206 251 305
#     4   9  17  31  49  72 102 133 164 203 252 308
#     4   9  17  31  52  76 101 131 167 207 254 308
#     4  10  20  34  51  70  96 130 168 211 254 299
#     4   9  17  30  49  73 104 134 163 203 250 307
#
# _framework density 16.896279
#
# number of rings (size 3 to 8) (size 9 to 14) (size 15 to 20)
#    0.000    2.375    1.250    1.500    0.000    2.875 
#    0.000    4.375    0.000    4.500    0.000    0.000 
#    0.000   14.000    0.000    0.000    0.000    0.000 
#
# Total GULP energy -713035.689339 kJ/mol
# GULP energy per Si atom -5570.591323 kJ/mol
# Density = 1.685782 g / cm^3
# Si number density = 16.896279 Si / 1000 Ang^3
#
#
#
# Elastic Constant Matrix: (Units=GPa)
#
#
# Indices 1 2 3 4 5 6 
#
# 1 51.7359 40.9771 24.1423 0.0000 0.0000 0.0000
# 2 40.9771 51.7351 24.1419 0.0000 0.0000 0.0000
# 3 24.1423 24.1419 105.0386 0.0000 0.0000 0.0000
# 4 0.0000 0.0000 0.0000 20.7641 0.0000 0.0000
# 5 0.0000 0.0000 0.0000 0.0000 20.7646 0.0000
# 6 0.0000 0.0000 0.0000 0.0000 0.0000 82.8334
#
#
#
# Elastic Compliance Matrix: (Units=1/GPa)
#
#
# Indices 1 2 3 4 5 6 
#
# 1 0.052601 -0.040349 -0.002816 0.000000 0.000000 0.000000
# 2 -0.040349 0.052602 -0.002816 0.000000 0.000000 0.000000
# 3 -0.002816 -0.002816 0.010815 0.000000 0.000000 0.000000
# 4 0.000000 0.000000 0.000000 0.048160 0.000000 0.000000
# 5 0.000000 0.000000 0.000000 0.000000 0.048159 0.000000
# 6 0.000000 0.000000 0.000000 0.000000 0.000000 0.012072
#
#
# Mechanical properties :
#
#
# Convention : Reuss Voigt Hill
#
# Bulk Modulus (GPa) = 41.57044 43.00356 42.28700
# Shear Modulus (GPa) = 15.41353 32.82230 24.11792
#
# Velocity S-wave (km/s) = 3.02361 4.41225 3.78221
# Velocity P-wave (km/s) = 6.07012 7.17384 6.64494
#
# Compressibility (1/GPa) = 0.02405555
#
# Stress axis : x y z
#
# Youngs Moduli (GPa) = 19.01097 19.01074 92.46555
#
# Poissons Ratio (x) = 0.76706 0.26041
# Poissons Ratio (y) = 0.76707 0.26039
# Poissons Ratio (z) = 0.05354 0.05353
#
# Static dielectric constant tensor:
#      x y z
#    x 1.551800 0.000000 0.000000 
#    y 0.000000 1.551800 0.000000 
#    z 0.000000 0.000000 1.612750 
# 
# From -- ./inp_files/6140.got.cif
#   From: 2010.05.17/outbox.cif.g08.bks.cpg/sg129_4_cif.got.tgz:6140.got - 2010.05.20 12:12:06.
