data_PCOD9565299
_publ_section_title
;
Structure prediction by ZEFSAII (Michael W. Deem and Ramdas Pophale) SiO2 
 PCOD9565299
Probable space group: P 4/N M M
;
_chemical_formula_sum "Si O2"
_cell_formula_units_Z 128
_cell_length_a 18.207803
_cell_length_b 18.207803
_cell_length_c 23.167083
_cell_angle_alpha 90.000000
_cell_angle_beta 90.000000
_cell_angle_gamma 90.000000
_cell_volume 7680.446112
_symmetry_space_group_name_H-M "P 4/N M M"
_symmetry_group_IT_number 129
_symmetry_cell_setting 'tetragonal'
loop_
_space_group_symop_operation_xyz
x,y,z
1/2-y,x,z
1/2-x,1/2-y,z
y,1/2-x,z
1/2+x,-y,-z
-x,1/2+y,-z
1/2+y,1/2+x,-z
-y,-x,-z
-x,-y,-z
1/2+y,-x,-z
1/2+x,1/2+y,-z
-y,1/2+x,-z
1/2-x,y,z
x,1/2-y,z
1/2-y,1/2-x,z
y,x,z
loop_
_atom_site_type_symbol
_atom_site_label
_atom_site_fract_x
_atom_site_fract_y
_atom_site_fract_z
Si Si1 0.455778 0.664225 0.334909
Si Si2 0.832319 0.950865 0.573128
Si Si3 0.448620 0.831756 0.680929
Si Si4 0.045773 0.336657 0.776218
Si Si5 0.454145 0.335826 0.209362
Si Si6 0.665223 0.164222 0.930503
Si Si7 0.336236 0.947441 0.530745
Si Si8 0.943993 0.436163 0.858555
O O1 0.435109 0.750000 0.332359
O O2 0.391826 0.612962 0.310733
O O3 0.523384 0.654778 0.291229
O O4 0.464445 0.645320 0.402609
O O5 0.750000 0.921039 0.577856
O O6 0.891813 0.891813 0.589429
O O7 0.837216 0.019111 0.616755
O O8 0.844589 0.980894 0.508938
O O9 0.418268 0.750000 0.689700
O O10 0.515593 0.840781 0.725241
O O11 0.045604 0.250000 0.789840
O O12 0.123133 0.376867 0.786288
O O13 0.986070 0.381477 0.814297
O O14 0.452710 0.250000 0.192972
O O15 0.376091 0.376091 0.204412
O O16 0.512272 0.384323 0.173409
O O17 0.750000 0.144152 0.914268
O O18 0.654453 0.250000 0.913847
O O19 0.603271 0.112699 0.902795
O O20 0.660743 0.160743 0.000000
O O21 0.385819 0.885819 0.500000
O O22 0.250000 0.926027 0.528308
O O23 0.007516 0.492485 0.881295
#
# Coordination Sequence:
#
# PCOD9565299 Si02
#       8
#    16  16  16  16  16  16  16  16
#     4  10  20  34  51  72 101 129 159 200 244 298
#     4  10  21  35  50  69  91 118 156 199 244 294
#     4  10  19  33  50  70  98 127 160 201 244 295
#     4  10  21  36  54  76 102 133 168 209 256 304
#     4  10  20  33  50  73 101 135 171 208 252 299
#     4   9  18  33  53  77 108 146 181 212 250 297
#     4  10  20  34  50  72  95 120 154 190 237 295
#     4  10  19  32  53  79 107 137 172 216 258 297
#
# _framework density 16.665699
#
# number of rings (size 3 to 8) (size 9 to 14) (size 15 to 20)
#    0.000    2.125    2.500    1.500    0.000    2.250 
#    0.000    1.250    0.000    2.250    0.000    3.500 
#    0.000    0.000    0.000   23.250    0.000    0.000 
#
# Total GULP energy -713118.577165 kJ/mol
# GULP energy per Si atom -5571.238884 kJ/mol
# Density = 1.662777 g / cm^3
# Si number density = 16.665699 Si / 1000 Ang^3
#
#
#
# Elastic Constant Matrix: (Units=GPa)
#
#
# Indices 1 2 3 4 5 6 
#
# 1 83.5926 56.4932 27.3883 0.0000 0.0000 0.0000
# 2 56.4932 83.5926 27.3883 0.0000 0.0000 0.0000
# 3 27.3883 27.3883 48.4097 0.0000 0.0000 0.0000
# 4 0.0000 0.0000 0.0000 22.1587 0.0000 0.0000
# 5 0.0000 0.0000 0.0000 0.0000 22.1587 0.0000
# 6 0.0000 0.0000 0.0000 0.0000 0.0000 32.2681
#
#
#
# Elastic Compliance Matrix: (Units=1/GPa)
#
#
# Indices 1 2 3 4 5 6 
#
# 1 0.023034 -0.013867 -0.005186 0.000000 0.000000 0.000000
# 2 -0.013867 0.023034 -0.005186 0.000000 0.000000 0.000000
# 3 -0.005186 -0.005186 0.026525 0.000000 0.000000 0.000000
# 4 0.000000 0.000000 0.000000 0.045129 0.000000 0.000000
# 5 0.000000 0.000000 0.000000 0.000000 0.045129 0.000000
# 6 0.000000 0.000000 0.000000 0.000000 0.000000 0.030990
#
#
# Mechanical properties :
#
#
# Convention : Reuss Voigt Hill
#
# Bulk Modulus (GPa) = 41.46988 48.68162 45.07575
# Shear Modulus (GPa) = 19.97146 22.27212 21.12179
#
# Velocity S-wave (km/s) = 3.46549 3.65965 3.56389
# Velocity P-wave (km/s) = 6.39923 6.86524 6.63633
#
# Compressibility (1/GPa) = 0.02411389
#
# Stress axis : x y z
#
# Youngs Moduli (GPa) = 43.41460 43.41460 37.70023
#
# Poissons Ratio (x) = 0.60205 0.19551
# Poissons Ratio (y) = 0.60205 0.19551
# Poissons Ratio (z) = 0.22515 0.22515
#
# Static dielectric constant tensor:
#      x y z
#    x 1.556130 0.000000 0.000000 
#    y 0.000000 1.556130 0.000000 
#    z 0.000000 0.000000 1.566520 
# 
# From -- ./inp_files/7303.got.cif
#   From: 2010.05.17/outbox.cif.g08.bks.cpg/sg129_4_cif.got.tgz:7303.got - 2010.05.20 12:12:06.
