data_PCOD9565225
_publ_section_title
;
Structure prediction by ZEFSAII (Michael W. Deem and Ramdas Pophale) SiO2 
 PCOD9565225
Probable space group: P 4/N M M
;
_chemical_formula_sum "Si O2"
_cell_formula_units_Z 112
_cell_length_a 18.626841
_cell_length_b 18.626841
_cell_length_c 19.232983
_cell_angle_alpha 90.000000
_cell_angle_beta 90.000000
_cell_angle_gamma 90.000000
_cell_volume 6673.060504
_symmetry_space_group_name_H-M "P 4/N M M"
_symmetry_group_IT_number 129
_symmetry_cell_setting 'tetragonal'
loop_
_space_group_symop_operation_xyz
x,y,z
1/2-y,x,z
1/2-x,1/2-y,z
y,1/2-x,z
1/2+x,-y,-z
-x,1/2+y,-z
1/2+y,1/2+x,-z
-y,-x,-z
-x,-y,-z
1/2+y,-x,-z
1/2+x,1/2+y,-z
-y,1/2+x,-z
1/2-x,y,z
x,1/2-y,z
1/2-y,1/2-x,z
y,x,z
loop_
_atom_site_type_symbol
_atom_site_label
_atom_site_fract_x
_atom_site_fract_y
_atom_site_fract_z
Si Si1 0.332734 0.450582 0.341961
Si Si2 0.608161 0.488924 0.039835
Si Si3 0.548634 0.833761 0.901664
Si Si4 0.441441 0.667128 0.786451
Si Si5 0.334700 0.564415 0.706600
Si Si6 0.943367 0.436735 0.419648
Si Si7 0.046962 0.167286 0.825448
O O1 0.250000 0.439164 0.360130
O O2 0.377824 0.377824 0.337334
O O3 0.336199 0.493589 0.269300
O O4 0.373557 0.503216 0.395097
O O5 0.535967 0.535967 0.052443
O O6 0.648184 0.490126 0.113205
O O7 0.582718 0.417283 0.000000
O O8 0.655102 0.531317 0.982750
O O9 0.561206 0.750000 0.885937
O O10 0.615565 0.884436 0.883709
O O11 0.478900 0.858500 0.857480
O O12 0.419920 0.750000 0.795025
O O13 0.376655 0.622493 0.753949
O O14 0.250000 0.579845 0.698684
O O15 0.376806 0.560961 0.633530
O O16 0.342143 0.491401 0.751127
O O17 0.924773 0.424773 0.500000
O O18 0.989826 0.510175 0.413809
O O19 0.068453 0.250000 0.833156
O O20 0.113565 0.113565 0.832455
#
# Coordination Sequence:
#
# PCOD9565225 Si02
#       7
#    16  16  16  16  16  16  16
#     4   9  17  29  46  69  96 126 158 191 230 280
#     4   9  17  29  46  67  91 123 165 211 255 296
#     4  10  19  30  46  69  97 131 170 211 257 308
#     4   9  18  32  48  67  94 127 161 196 238 291
#     4  10  20  33  52  76  98 124 161 204 247 291
#     4   9  18  33  52  73  98 128 160 195 239 291
#     4  10  20  33  49  71  99 131 169 211 254 301
#
# _framework density 16.783902000000001
#
# number of rings (size 3 to 8) (size 9 to 14) (size 15 to 20)
#    0.000    2.571    0.000    2.143    0.000    4.143 
#    0.000    0.000    0.000    5.143    0.000    2.000 
#    0.000   13.714    0.000    0.000    0.000    0.143 
#
# Total GULP energy -624000.414473 kJ/mol
# GULP energy per Si atom -5571.432272 kJ/mol
# Density = 1.674570 g / cm^3
# Si number density = 16.783902 Si / 1000 Ang^3
#
#
#
# Elastic Constant Matrix: (Units=GPa)
#
#
# Indices 1 2 3 4 5 6 
#
# 1 94.8336 51.0273 35.7914 0.0000 0.0000 0.0000
# 2 51.0273 94.8338 35.7914 0.0000 0.0000 0.0000
# 3 35.7914 35.7914 100.9644 0.0000 0.0000 0.0000
# 4 0.0000 0.0000 0.0000 16.7421 0.0000 0.0000
# 5 0.0000 0.0000 0.0000 0.0000 16.7419 0.0000
# 6 0.0000 0.0000 0.0000 0.0000 0.0000 16.9766
#
#
#
# Elastic Compliance Matrix: (Units=1/GPa)
#
#
# Indices 1 2 3 4 5 6 
#
# 1 0.015564 -0.007264 -0.002942 0.000000 0.000000 0.000000
# 2 -0.007264 0.015564 -0.002942 0.000000 0.000000 0.000000
# 3 -0.002942 -0.002942 0.011990 0.000000 0.000000 0.000000
# 4 0.000000 0.000000 0.000000 0.059730 0.000000 0.000000
# 5 0.000000 0.000000 0.000000 0.000000 0.059730 0.000000
# 6 0.000000 0.000000 0.000000 0.000000 0.000000 0.058905
#
#
# Mechanical properties :
#
#
# Convention : Reuss Voigt Hill
#
# Bulk Modulus (GPa) = 59.44906 59.53909 59.49408
# Shear Modulus (GPa) = 19.73271 21.29357 20.51314
#
# Velocity S-wave (km/s) = 3.43256 3.56573 3.49978
# Velocity P-wave (km/s) = 7.15591 7.24593 7.20106
#
# Compressibility (1/GPa) = 0.01682112
#
# Stress axis : x y z
#
# Youngs Moduli (GPa) = 64.25179 64.25198 83.39940
#
# Poissons Ratio (x) = 0.46672 0.24538
# Poissons Ratio (y) = 0.46672 0.24538
# Poissons Ratio (z) = 0.18904 0.18904
#
# Static dielectric constant tensor:
#      x y z
#    x 1.560950 0.000000 0.000000 
#    y 0.000000 1.560950 0.000000 
#    z 0.000000 0.000000 1.581150 
# 
# From -- ./inp_files/6667.got.cif
#   From: 2010.05.17/outbox.cif.g08.bks.cpg/sg129_4_cif.got.tgz:6667.got - 2010.05.20 12:12:06.
