data_PCOD9565300
_publ_section_title
;
Structure prediction by ZEFSAII (Michael W. Deem and Ramdas Pophale) SiO2 
 PCOD9565300
Probable space group: P 4/N M M
;
_chemical_formula_sum "Si O2"
_cell_formula_units_Z 112
_cell_length_a 17.209006
_cell_length_b 17.209006
_cell_length_c 22.065935
_cell_angle_alpha 90.000000
_cell_angle_beta 90.000000
_cell_angle_gamma 90.000000
_cell_volume 6534.824168
_symmetry_space_group_name_H-M "P 4/N M M"
_symmetry_group_IT_number 129
_symmetry_cell_setting 'tetragonal'
loop_
_space_group_symop_operation_xyz
x,y,z
1/2-y,x,z
1/2-x,1/2-y,z
y,1/2-x,z
1/2+x,-y,-z
-x,1/2+y,-z
1/2+y,1/2+x,-z
-y,-x,-z
-x,-y,-z
1/2+y,-x,-z
1/2+x,1/2+y,-z
-y,1/2+x,-z
1/2-x,y,z
x,1/2-y,z
1/2-y,1/2-x,z
y,x,z
loop_
_atom_site_type_symbol
_atom_site_label
_atom_site_fract_x
_atom_site_fract_y
_atom_site_fract_z
Si Si1 0.040343 0.660198 0.473438
Si Si2 0.464961 0.341181 0.912417
Si Si3 0.449722 0.923520 0.838973
Si Si4 0.658108 0.158532 0.742959
Si Si5 0.161850 0.043429 0.401563
Si Si6 0.158504 0.032947 0.049928
Si Si7 0.919756 0.042327 0.347893
O O1 0.114232 0.614232 0.500000
O O2 0.058910 0.750000 0.463343
O O3 0.016790 0.620819 0.410544
O O4 0.977469 0.655054 0.527147
O O5 0.463021 0.250000 0.902489
O O6 0.380396 0.380396 0.910015
O O7 0.517312 0.385010 0.863867
O O8 0.495560 0.356547 0.981039
O O9 0.405938 0.865776 0.793182
O O10 0.480545 0.877618 0.897644
O O11 0.522657 0.977344 0.816077
O O12 0.750000 0.148057 0.725327
O O13 0.651161 0.250000 0.761477
O O14 0.591898 0.140271 0.692464
O O15 0.250000 0.033022 0.382784
O O16 0.128773 0.128773 0.391164
O O17 0.106184 0.984009 0.366839
O O18 0.250000 0.039941 0.057519
O O19 0.115353 0.115353 0.054684
O O20 0.968371 0.968371 0.321997
#
# Coordination Sequence:
#
# PCOD9565300 Si02
#       7
#    16  16  16  16  16  16  16
#     4   9  17  29  46  70  98 126 155 187 226 271
#     4   9  17  29  47  71  97 124 154 190 231 275
#     4  10  19  33  51  69  92 123 160 195 228 276
#     4  11  23  36  50  69  94 122 153 195 245 290
#     4   9  17  29  46  68  93 120 149 182 220 263
#     4   9  17  29  47  71  97 125 155 189 230 274
#     4  10  19  33  51  69  91 121 158 195 232 277
#
# _framework density 17.138946000000001
#
# number of rings (size 3 to 8) (size 9 to 14) (size 15 to 20)
#    0.000    2.429    0.000    3.000    0.000    4.571 
#    0.000    1.429    0.000    0.000    0.000    6.000 
#    0.000   22.000    0.000    0.000    0.000    0.000 
#
# Total GULP energy -623520.733716 kJ/mol
# GULP energy per Si atom -5567.149408 kJ/mol
# Density = 1.709994 g / cm^3
# Si number density = 17.138946 Si / 1000 Ang^3
#
#
#
# Elastic Constant Matrix: (Units=GPa)
#
#
# Indices 1 2 3 4 5 6 
#
# 1 55.1479 20.8858 -1.4847 0.0000 0.0000 0.0000
# 2 20.8858 55.1479 -1.4847 0.0000 0.0000 0.0000
# 3 -1.4847 -1.4847 14.4424 0.0000 0.0000 0.0000
# 4 0.0000 0.0000 0.0000 19.1534 0.0000 0.0000
# 5 0.0000 0.0000 0.0000 0.0000 19.1534 0.0000
# 6 0.0000 0.0000 0.0000 0.0000 0.0000 20.6888
#
#
#
# Elastic Compliance Matrix: (Units=1/GPa)
#
#
# Indices 1 2 3 4 5 6 
#
# 1 0.021196 -0.007991 0.001358 0.000000 0.000000 0.000000
# 2 -0.007991 0.021196 0.001358 0.000000 0.000000 0.000000
# 3 0.001358 0.001358 0.069520 0.000000 0.000000 0.000000
# 4 0.000000 0.000000 0.000000 0.052210 0.000000 0.000000
# 5 0.000000 0.000000 0.000000 0.000000 0.052210 0.000000
# 6 0.000000 0.000000 0.000000 0.000000 0.000000 0.048335
#
#
# Mechanical properties :
#
#
# Convention : Reuss Voigt Hill
#
# Bulk Modulus (GPa) = 9.86580 17.84121 13.85350
# Shear Modulus (GPa) = 16.18097 18.92060 17.55078
#
# Velocity S-wave (km/s) = 3.07596 3.32618 3.20352
# Velocity P-wave (km/s) = 4.28769 5.01833 4.66733
#
# Compressibility (1/GPa) = 0.10136024
#
# Stress axis : x y z
#
# Youngs Moduli (GPa) = 47.17894 47.17894 14.38437
#
# Poissons Ratio (x) = 0.37700 -0.01953
# Poissons Ratio (y) = 0.37700 -0.01953
# Poissons Ratio (z) = -0.06405 -0.06405
#
# Static dielectric constant tensor:
#      x y z
#    x 1.570000 0.000000 0.000000 
#    y 0.000000 1.570000 0.000000 
#    z 0.000000 0.000000 1.611200 
# 
# From -- ./inp_files/6648.got.cif
#   From: 2010.05.17/outbox.cif.g08.bks.cpg/sg129_4_cif.got.tgz:6648.got - 2010.05.20 12:12:06.
