data_PCOD9565553
_publ_section_title
;
Structure prediction by ZEFSAII (Michael W. Deem and Ramdas Pophale) SiO2 
 PCOD9565553
Probable space group: P 4/N C C
;
_chemical_formula_sum "Si O2"
_cell_formula_units_Z 84
_cell_length_a 10.526509
_cell_length_b 10.526509
_cell_length_c 32.442541
_cell_angle_alpha 90.000000
_cell_angle_beta 90.000000
_cell_angle_gamma 90.000000
_cell_volume 3594.873349
_symmetry_space_group_name_H-M "P 4/N C C"
_symmetry_group_IT_number 130
_symmetry_cell_setting 'tetragonal'
loop_
_space_group_symop_operation_xyz
x,y,z
1/2-y,x,z
1/2-x,1/2-y,z
y,1/2-x,z
1/2+x,-y,1/2-z
-x,1/2+y,1/2-z
1/2+y,1/2+x,1/2-z
-y,-x,1/2-z
-x,-y,-z
1/2+y,-x,-z
1/2+x,1/2+y,-z
-y,1/2+x,-z
1/2-x,y,1/2+z
x,1/2-y,1/2+z
1/2-y,1/2-x,1/2+z
y,x,1/2+z
loop_
_atom_site_type_symbol
_atom_site_label
_atom_site_fract_x
_atom_site_fract_y
_atom_site_fract_z
Si Si1 0.501242 0.524954 0.428392
Si Si2 0.696295 0.958382 0.128670
Si Si3 0.750000 0.750000 0.729273
Si Si4 0.833792 0.444301 0.503156
Si Si5 0.133557 0.071729 0.656373
Si Si6 0.513017 0.917150 0.710912
O O1 0.362912 0.543055 0.407194
O O2 0.525836 0.631967 0.462786
O O3 0.500929 0.395477 0.455343
O O4 0.598196 0.528389 0.390172
O O5 0.602385 0.834573 0.127363
O O6 0.670827 0.024118 0.172167
O O7 0.650122 0.869827 0.725952
O O8 0.909715 0.312414 0.496181
O O9 0.284136 0.080943 0.661704
O O10 0.057403 0.989540 0.689809
O O11 0.422201 0.922201 0.750000
#
# Coordination Sequence:
#
# PCOD9565553 Si02
#       6
#    16  16   4  16  16  16
#     4  10  20  34  56  85 116 164 217 268 339 394
#     4  10  18  35  59  84 116 158 206 264 330 398
#     4  12  24  52  72  96 144 176 214 292 320 388
#     4  10  20  34  52  78 118 164 214 274 332 398
#     4  10  23  41  65  97 136 173 219 283 344 407
#     4  11  24  39  73  97 126 181 216 263 337 394
#
# _framework density 23.366607999999999
#
# number of rings (size 3 to 8) (size 9 to 14) (size 15 to 20)
#    0.000    1.714    1.905    2.286    2.667    0.000 
#    0.000    0.952    0.000    9.143    0.000    0.000 
#    0.000    0.000    0.000    0.000    0.000    0.000 
#
# Total GULP energy -467898.106771 kJ/mol
# GULP energy per Si atom -5570.215557 kJ/mol
# Density = 2.331342 g / cm^3
# Si number density = 23.366608 Si / 1000 Ang^3
#
#
#
# Elastic Constant Matrix: (Units=GPa)
#
#
# Indices 1 2 3 4 5 6 
#
# 1 64.0909 29.7875 29.9570 0.0000 0.0000 0.0000
# 2 29.7875 64.0909 29.9570 0.0000 0.0000 0.0000
# 3 29.9570 29.9570 127.1196 0.0000 0.0000 0.0000
# 4 0.0000 0.0000 0.0000 18.8385 0.0000 0.0000
# 5 0.0000 0.0000 0.0000 0.0000 18.8385 0.0000
# 6 0.0000 0.0000 0.0000 0.0000 0.0000 43.0445
#
#
#
# Elastic Compliance Matrix: (Units=1/GPa)
#
#
# Indices 1 2 3 4 5 6 
#
# 1 0.020845 -0.008307 -0.002955 0.000000 0.000000 0.000000
# 2 -0.008307 0.020845 -0.002955 0.000000 0.000000 0.000000
# 3 -0.002955 -0.002955 0.009259 0.000000 0.000000 0.000000
# 4 0.000000 0.000000 0.000000 0.053083 0.000000 0.000000
# 5 0.000000 0.000000 0.000000 0.000000 0.053083 0.000000
# 6 0.000000 0.000000 0.000000 0.000000 0.000000 0.023232
#
#
# Mechanical properties :
#
#
# Convention : Reuss Voigt Hill
#
# Bulk Modulus (GPa) = 44.41265 48.30050 46.35657
# Shear Modulus (GPa) = 23.11781 27.18433 25.15107
#
# Velocity S-wave (km/s) = 3.14881 3.41454 3.28436
# Velocity P-wave (km/s) = 5.68051 6.02172 5.85360
#
# Compressibility (1/GPa) = 0.02251611
#
# Stress axis : x y z
#
# Youngs Moduli (GPa) = 47.97385 47.97385 108.00088
#
# Poissons Ratio (x) = 0.39852 0.31910
# Poissons Ratio (y) = 0.39852 0.31910
# Poissons Ratio (z) = 0.14175 0.14175
#
# Static dielectric constant tensor:
#      x y z
#    x 1.877540 0.000000 0.000000 
#    y 0.000000 1.877540 0.000000 
#    z 0.000000 0.000000 1.945360 
# 
# From -- ./inp_files/4891.got.cif
#   From: 2010.05.17/outbox.cif.g08.bks.cpg/sg130_3_cif.got.tgz:4891.got - 2010.05.20 12:17:35.
