data_PCOD9565812
_publ_section_title
;
Structure prediction by ZEFSAII (Michael W. Deem and Ramdas Pophale) SiO2 
 PCOD9565812
Probable space group: P 4/N C C
;
_chemical_formula_sum "Si O2"
_cell_formula_units_Z 84
_cell_length_a 11.370565
_cell_length_b 11.370565
_cell_length_c 28.521651
_cell_angle_alpha 90.000000
_cell_angle_beta 90.000000
_cell_angle_gamma 90.000000
_cell_volume 3687.557082
_symmetry_space_group_name_H-M "P 4/N C C"
_symmetry_group_IT_number 130
_symmetry_cell_setting 'tetragonal'
loop_
_space_group_symop_operation_xyz
x,y,z
1/2-y,x,z
1/2-x,1/2-y,z
y,1/2-x,z
1/2+x,-y,1/2-z
-x,1/2+y,1/2-z
1/2+y,1/2+x,1/2-z
-y,-x,1/2-z
-x,-y,-z
1/2+y,-x,-z
1/2+x,1/2+y,-z
-y,1/2+x,-z
1/2-x,y,1/2+z
x,1/2-y,1/2+z
1/2-y,1/2-x,1/2+z
y,x,1/2+z
loop_
_atom_site_type_symbol
_atom_site_label
_atom_site_fract_x
_atom_site_fract_y
_atom_site_fract_z
Si Si1 0.269859 0.435297 0.193721
Si Si2 0.118217 0.938708 0.337440
Si Si3 0.658019 0.008326 0.714672
Si Si4 0.750000 0.750000 0.088435
Si Si5 0.561219 0.936461 0.070618
Si Si6 0.589239 0.348286 0.010790
O O1 0.150346 0.374985 0.176725
O O2 0.316355 0.561681 0.179178
O O3 0.242079 0.436214 0.249425
O O4 0.255127 0.943682 0.324796
O O5 0.086672 0.965625 0.390692
O O6 0.057411 0.047504 0.308661
O O7 0.603762 0.103762 0.750000
O O8 0.621410 0.816291 0.087356
O O9 0.423705 0.921385 0.058211
O O10 0.620574 0.978497 0.021856
O O11 0.708744 0.395422 0.985855
#
# Coordination Sequence:
#
# PCOD9565812 Si02
#       6
#    16  16  16   4  16  16
#     4  11  23  45  66  88 132 184 230 279 343 406
#     4  12  26  42  69 102 134 179 239 289 342 418
#     4  12  23  44  65  98 136 182 232 290 353 403
#     4  12  20  44  68 104 140 168 222 276 340 420
#     4  11  24  42  71 107 136 180 229 287 347 421
#     4  10  22  44  70  97 145 180 222 281 358 422
#
# _framework density 22.779306999999999
#
# number of rings (size 3 to 8) (size 9 to 14) (size 15 to 20)
#    0.000    0.762    5.714    1.714    0.000    3.429 
#    0.000    0.000    0.000    0.000    0.000    0.000 
#    0.000    0.000    0.000    0.000    0.000    0.000 
#
# Total GULP energy -467973.317751 kJ/mol
# GULP energy per Si atom -5571.110926 kJ/mol
# Density = 2.272746 g / cm^3
# Si number density = 22.779307 Si / 1000 Ang^3
#
#
#
# Elastic Constant Matrix: (Units=GPa)
#
#
# Indices 1 2 3 4 5 6 
#
# 1 62.8003 23.7325 11.7927 0.0000 0.0000 0.0000
# 2 23.7325 62.8003 11.7927 0.0000 0.0000 0.0000
# 3 11.7927 11.7927 66.3758 0.0000 0.0000 0.0000
# 4 0.0000 0.0000 0.0000 24.8110 0.0000 0.0000
# 5 0.0000 0.0000 0.0000 0.0000 24.8110 0.0000
# 6 0.0000 0.0000 0.0000 0.0000 0.0000 35.3416
#
#
#
# Elastic Compliance Matrix: (Units=1/GPa)
#
#
# Indices 1 2 3 4 5 6 
#
# 1 0.018870 -0.006726 -0.002158 0.000000 0.000000 0.000000
# 2 -0.006726 0.018870 -0.002158 0.000000 0.000000 0.000000
# 3 -0.002158 -0.002158 0.015832 0.000000 0.000000 0.000000
# 4 0.000000 0.000000 0.000000 0.040305 0.000000 0.000000
# 5 0.000000 0.000000 0.000000 0.000000 0.040305 0.000000
# 6 0.000000 0.000000 0.000000 0.000000 0.000000 0.028295
#
#
# Mechanical properties :
#
#
# Convention : Reuss Voigt Hill
#
# Bulk Modulus (GPa) = 31.75544 31.84577 31.80060
# Shear Modulus (GPa) = 25.63343 26.63660 26.13502
#
# Velocity S-wave (km/s) = 3.35818 3.42326 3.39088
# Velocity P-wave (km/s) = 5.38584 5.44384 5.41492
#
# Compressibility (1/GPa) = 0.03149067
#
# Stress axis : x y z
#
# Youngs Moduli (GPa) = 52.99284 52.99284 63.16159
#
# Poissons Ratio (x) = 0.35643 0.13628
# Poissons Ratio (y) = 0.35643 0.13628
# Poissons Ratio (z) = 0.11434 0.11434
#
# Static dielectric constant tensor:
#      x y z
#    x 1.893670 0.000000 0.000000 
#    y 0.000000 1.893670 0.000000 
#    z 0.000000 0.000000 1.856090 
# 
# From -- ./inp_files/4886.got.cif
#   From: 2010.05.17/outbox.cif.g08.bks.cpg/sg130_3_cif.got.tgz:4886.got - 2010.05.20 12:17:35.
