data_PCOD9565572
_publ_section_title
;
Structure prediction by ZEFSAII (Michael W. Deem and Ramdas Pophale) SiO2 
 PCOD9565572
Probable space group: P 4/N C C
;
_chemical_formula_sum "Si O2"
_cell_formula_units_Z 116
_cell_length_a 26.251146
_cell_length_b 26.251146
_cell_length_c 9.494116
_cell_angle_alpha 90.000000
_cell_angle_beta 90.000000
_cell_angle_gamma 90.000000
_cell_volume 6542.610532
_symmetry_space_group_name_H-M "P 4/N C C"
_symmetry_group_IT_number 130
_symmetry_cell_setting 'tetragonal'
loop_
_space_group_symop_operation_xyz
x,y,z
1/2-y,x,z
1/2-x,1/2-y,z
y,1/2-x,z
1/2+x,-y,1/2-z
-x,1/2+y,1/2-z
1/2+y,1/2+x,1/2-z
-y,-x,1/2-z
-x,-y,-z
1/2+y,-x,-z
1/2+x,1/2+y,-z
-y,1/2+x,-z
1/2-x,y,1/2+z
x,1/2-y,1/2+z
1/2-y,1/2-x,1/2+z
y,x,1/2+z
loop_
_atom_site_type_symbol
_atom_site_label
_atom_site_fract_x
_atom_site_fract_y
_atom_site_fract_z
Si Si1 0.466265 0.706344 0.168074
Si Si2 0.949811 0.604530 0.944807
Si Si3 0.250000 0.750000 0.500000
Si Si4 0.153022 0.699407 0.611564
Si Si5 0.456494 0.545738 0.586139
Si Si6 0.528404 0.897320 0.614838
Si Si7 0.859606 0.110916 0.105761
Si Si8 0.300493 0.512191 0.002565
O O1 0.406682 0.713302 0.126139
O O2 0.492604 0.652722 0.124540
O O3 0.469692 0.710351 0.337418
O O4 0.496947 0.749917 0.086187
O O5 0.954856 0.593669 0.777417
O O6 0.900251 0.579244 0.017179
O O7 0.998015 0.578278 0.021558
O O8 0.962821 0.663338 0.978206
O O9 0.195222 0.741983 0.575496
O O10 0.173985 0.673985 0.750000
O O11 0.154025 0.652395 0.506505
O O12 0.468574 0.531427 0.750000
O O13 0.439811 0.505155 0.467858
O O14 0.407341 0.582072 0.594947
O O15 0.858365 0.141636 0.250000
O O16 0.828067 0.059177 0.079917
#
# Coordination Sequence:
#
# PCOD9565572 Si02
#       8
#    16  16   4  16  16  16  16  16
#     4  11  24  39  63  81 111 146 190 232 290 350
#     4  10  22  35  55  78 116 140 182 224 279 340
#     4  12  30  40  56  78 102 144 196 258 314 340
#     4  12  24  43  58  77 104 140 192 252 302 345
#     4  10  19  32  52  81 106 141 178 224 279 343
#     4  11  21  37  55  83 108 147 179 228 279 343
#     4  10  21  36  58  78 105 138 185 234 292 344
#     4  10  23  39  56  87 108 148 185 230 284 343
#
# _framework density 17.729927
#
# number of rings (size 3 to 8) (size 9 to 14) (size 15 to 20)
#    0.000    1.379    2.759    2.690    1.931    3.310 
#    0.000    0.000    0.000    0.000    0.000    0.000 
#    0.000    0.552    0.000    6.069    0.000    4.414 
#
# Total GULP energy -645878.837240 kJ/mol
# GULP energy per Si atom -5567.921011 kJ/mol
# Density = 1.768957 g / cm^3
# Si number density = 17.729927 Si / 1000 Ang^3
#
#
#
# Elastic Constant Matrix: (Units=GPa)
#
#
# Indices 1 2 3 4 5 6 
#
# 1 56.2024 24.8318 33.2021 0.0000 0.0000 0.0000
# 2 24.8318 56.2018 33.2022 0.0000 0.0000 0.0000
# 3 33.2021 33.2022 113.2621 0.0000 0.0000 0.0000
# 4 0.0000 0.0000 0.0000 24.2309 0.0000 0.0000
# 5 0.0000 0.0000 0.0000 0.0000 24.2311 0.0000
# 6 0.0000 0.0000 0.0000 0.0000 0.0000 27.8262
#
#
#
# Elastic Compliance Matrix: (Units=1/GPa)
#
#
# Indices 1 2 3 4 5 6 
#
# 1 0.024060 -0.007817 -0.004761 0.000000 0.000000 0.000000
# 2 -0.007817 0.024060 -0.004761 0.000000 0.000000 0.000000
# 3 -0.004761 -0.004761 0.011621 0.000000 0.000000 0.000000
# 4 0.000000 0.000000 0.000000 0.041270 0.000000 0.000000
# 5 0.000000 0.000000 0.000000 0.000000 0.041269 0.000000
# 6 0.000000 0.000000 0.000000 0.000000 0.000000 0.035937
#
#
# Mechanical properties :
#
#
# Convention : Reuss Voigt Hill
#
# Bulk Modulus (GPa) = 39.90456 45.34871 42.62664
# Shear Modulus (GPa) = 22.59888 24.21965 23.40927
#
# Velocity S-wave (km/s) = 3.57405 3.70000 3.63757
# Velocity P-wave (km/s) = 6.29186 6.62468 6.46041
#
# Compressibility (1/GPa) = 0.02505979
#
# Stress axis : x y z
#
# Youngs Moduli (GPa) = 41.56348 41.56294 86.05408
#
# Poissons Ratio (x) = 0.32492 0.40973
# Poissons Ratio (y) = 0.32492 0.40974
# Poissons Ratio (z) = 0.19790 0.19790
#
# Static dielectric constant tensor:
#      x y z
#    x 1.698570 0.000000 0.000000 
#    y 0.000000 1.698570 0.000000 
#    z 0.000000 0.000000 1.605730 
# 
# From -- ./inp_files/1092.got.cif
#   From: 2010.05.17/outbox.cif.g08.bks.cpg/sg130_1_cif.got.tgz:1092.got - 2010.05.20 12:17:35.
