data_PCOD9565615
_publ_section_title
;
Structure prediction by ZEFSAII (Michael W. Deem and Ramdas Pophale) SiO2 
 PCOD9565615
Probable space group: P 4/N C C
;
_chemical_formula_sum "Si O2"
_cell_formula_units_Z 80
_cell_length_a 28.219751
_cell_length_b 28.219751
_cell_length_c 4.950760
_cell_angle_alpha 90.000000
_cell_angle_beta 90.000000
_cell_angle_gamma 90.000000
_cell_volume 3942.559244
_symmetry_space_group_name_H-M "P 4/N C C"
_symmetry_group_IT_number 130
_symmetry_cell_setting 'tetragonal'
loop_
_space_group_symop_operation_xyz
x,y,z
1/2-y,x,z
1/2-x,1/2-y,z
y,1/2-x,z
1/2+x,-y,1/2-z
-x,1/2+y,1/2-z
1/2+y,1/2+x,1/2-z
-y,-x,1/2-z
-x,-y,-z
1/2+y,-x,-z
1/2+x,1/2+y,-z
-y,1/2+x,-z
1/2-x,y,1/2+z
x,1/2-y,1/2+z
1/2-y,1/2-x,1/2+z
y,x,1/2+z
loop_
_atom_site_type_symbol
_atom_site_label
_atom_site_fract_x
_atom_site_fract_y
_atom_site_fract_z
Si Si1 0.563803 0.523236 0.975202
Si Si2 0.603226 0.644573 0.495376
Si Si3 0.622119 0.122119 0.250000
Si Si4 0.923510 0.076491 0.250000
Si Si5 0.783517 0.426105 0.416916
Si Si6 0.720136 0.531272 0.801872
O O1 0.523074 0.545807 0.167927
O O2 0.606160 0.560786 0.990541
O O3 0.579794 0.474609 0.108383
O O4 0.643045 0.625645 0.290001
O O5 0.576870 0.690978 0.392007
O O6 0.587313 0.111979 0.503580
O O7 0.674644 0.110351 0.354979
O O8 0.760369 0.421177 0.710054
O O9 0.802445 0.480134 0.374471
O O10 0.732473 0.531556 0.486229
#
# Coordination Sequence:
#
# PCOD9565615 Si02
#       6
#    16  16   8   8  16  16
#     4  10  20  33  48  70 108 154 186 218 261 310
#     4  10  20  33  51  76 109 145 183 226 271 320
#     4  12  24  37  60  85 106 140 184 237 288 335
#     4  12  22  33  52  80 110 141 190 229 258 321
#     4  10  22  40  60  83 112 144 181 230 283 339
#     4  10  20  35  56  80 110 146 184 226 277 328
#
# _framework density 20.291385999999999
#
# number of rings (size 3 to 8) (size 9 to 14) (size 15 to 20)
#    0.000    1.600    0.000    5.400    0.000    6.400 
#    0.000    0.000    0.000    1.800    0.000    0.000 
#    0.000   28.000    0.000    0.000    0.000    0.000 
#
# Total GULP energy -446999.013241 kJ/mol
# GULP energy per Si atom -5587.487666 kJ/mol
# Density = 2.024520 g / cm^3
# Si number density = 20.291386 Si / 1000 Ang^3
#
#
#
# Elastic Constant Matrix: (Units=GPa)
#
#
# Indices 1 2 3 4 5 6 
#
# 1 41.0765 23.8726 1.2499 0.0000 0.0000 0.0000
# 2 23.8726 41.0760 1.2502 0.0000 0.0000 0.0000
# 3 1.2499 1.2502 85.6279 0.0000 0.0000 0.0000
# 4 0.0000 0.0000 0.0000 21.2585 0.0000 0.0000
# 5 0.0000 0.0000 0.0000 0.0000 21.2586 0.0000
# 6 0.0000 0.0000 0.0000 0.0000 0.0000 28.9060
#
#
#
# Elastic Compliance Matrix: (Units=1/GPa)
#
#
# Indices 1 2 3 4 5 6 
#
# 1 0.036766 -0.021361 -0.000225 0.000000 0.000000 0.000000
# 2 -0.021361 0.036766 -0.000225 0.000000 0.000000 0.000000
# 3 -0.000225 -0.000225 0.011685 0.000000 0.000000 0.000000
# 4 0.000000 0.000000 0.000000 0.047040 0.000000 0.000000
# 5 0.000000 0.000000 0.000000 0.000000 0.047040 0.000000
# 6 0.000000 0.000000 0.000000 0.000000 0.000000 0.034595
#
#
# Mechanical properties :
#
#
# Convention : Reuss Voigt Hill
#
# Bulk Modulus (GPa) = 24.04069 24.50289 24.27179
# Shear Modulus (GPa) = 18.42442 23.71179 21.06810
#
# Velocity S-wave (km/s) = 3.01656 3.42214 3.22573
# Velocity P-wave (km/s) = 4.89962 5.26464 5.08541
#
# Compressibility (1/GPa) = 0.04159615
#
# Stress axis : x y z
#
# Youngs Moduli (GPa) = 27.19905 27.19871 85.57974
#
# Poissons Ratio (x) = 0.58099 0.01924
# Poissons Ratio (y) = 0.58099 0.01926
# Poissons Ratio (z) = 0.00611 0.00612
#
# Static dielectric constant tensor:
#      x y z
#    x 1.727720 0.000000 0.000000 
#    y 0.000000 1.727730 0.000000 
#    z 0.000000 0.000000 1.715380 
# 
# From -- ./inp_files/230.got.cif
#   From: 2010.05.17/outbox.cif.g08.bks.cpg/sg130_1_cif.got.tgz:230.got - 2010.05.20 12:17:35.
