data_PCOD9565533
_publ_section_title
;
Structure prediction by ZEFSAII (Michael W. Deem and Ramdas Pophale) SiO2 
 PCOD9565533
Probable space group: P 4/N C C
;
_chemical_formula_sum "Si O2"
_cell_formula_units_Z 112
_cell_length_a 25.025372
_cell_length_b 25.025372
_cell_length_c 11.235842
_cell_angle_alpha 90.000000
_cell_angle_beta 90.000000
_cell_angle_gamma 90.000000
_cell_volume 7036.662272
_symmetry_space_group_name_H-M "P 4/N C C"
_symmetry_group_IT_number 130
_symmetry_cell_setting 'tetragonal'
loop_
_space_group_symop_operation_xyz
x,y,z
1/2-y,x,z
1/2-x,1/2-y,z
y,1/2-x,z
1/2+x,-y,1/2-z
-x,1/2+y,1/2-z
1/2+y,1/2+x,1/2-z
-y,-x,1/2-z
-x,-y,-z
1/2+y,-x,-z
1/2+x,1/2+y,-z
-y,1/2+x,-z
1/2-x,y,1/2+z
x,1/2-y,1/2+z
1/2-y,1/2-x,1/2+z
y,x,1/2+z
loop_
_atom_site_type_symbol
_atom_site_label
_atom_site_fract_x
_atom_site_fract_y
_atom_site_fract_z
Si Si1 0.653135 0.956738 0.131551
Si Si2 0.596145 0.740800 0.580557
Si Si3 0.931523 0.630137 0.158259
Si Si4 0.414458 0.992695 0.680723
Si Si5 0.024622 0.101215 0.120796
Si Si6 0.055309 0.523596 0.443001
Si Si7 0.244688 0.339813 0.166834
O O1 0.714826 0.948379 0.107185
O O2 0.625561 0.899337 0.161455
O O3 0.635498 0.997563 0.234265
O O4 0.623714 0.973158 0.010750
O O5 0.573074 0.680855 0.574135
O O6 0.625102 0.754948 0.455270
O O7 0.631711 0.741588 0.703060
O O8 0.954212 0.645586 0.287837
O O9 0.975951 0.585961 0.121888
O O10 0.433891 0.052444 0.644773
O O11 0.461746 0.961746 0.750000
O O12 0.408430 0.962050 0.556533
O O13 0.966648 0.073368 0.131567
O O14 0.000000 0.500000 0.500000
O O15 0.195190 0.298783 0.161734
#
# Coordination Sequence:
#
# PCOD9565533 Si02
#       7
#    16  16  16  16  16  16  16
#     4  11  20  32  48  66  98 124 160 208 250 305
#     4  12  26  36  52  76  98 132 172 216 284 316
#     4  11  21  32  49  70  98 126 161 213 257 307
#     4  10  17  28  49  73  94 119 153 202 252 301
#     4  10  17  31  48  71  92 119 153 201 249 303
#     4  10  16  31  50  75  93 116 156 202 255 302
#     4  11  23  42  57  66  86 126 187 240 270 304
#
# _framework density 15.916636
#
# number of rings (size 3 to 8) (size 9 to 14) (size 15 to 20)
#    0.000    1.286    4.286    6.429    2.000    2.286 
#    0.000    0.000    0.000    0.000    0.000    0.000 
#    0.000    0.000    0.000    0.000    0.000    9.286 
#
# Total GULP energy -623520.020058 kJ/mol
# GULP energy per Si atom -5567.143036 kJ/mol
# Density = 1.588041 g / cm^3
# Si number density = 15.916636 Si / 1000 Ang^3
#
#
#
# Elastic Constant Matrix: (Units=GPa)
#
#
# Indices 1 2 3 4 5 6 
#
# 1 33.6376 19.7823 0.1265 0.0000 0.0000 0.0000
# 2 19.7823 33.6376 0.1265 0.0000 0.0000 0.0000
# 3 0.1265 0.1265 73.4675 0.0000 0.0000 0.0000
# 4 0.0000 0.0000 0.0000 23.5568 0.0000 0.0000
# 5 0.0000 0.0000 0.0000 0.0000 23.5568 0.0000
# 6 0.0000 0.0000 0.0000 0.0000 0.0000 19.4700
#
#
#
# Elastic Compliance Matrix: (Units=1/GPa)
#
#
# Indices 1 2 3 4 5 6 
#
# 1 0.045447 -0.026727 -0.000032 0.000000 0.000000 0.000000
# 2 -0.026727 0.045447 -0.000032 0.000000 0.000000 0.000000
# 3 -0.000032 -0.000032 0.013612 0.000000 0.000000 0.000000
# 4 0.000000 0.000000 0.000000 0.042451 0.000000 0.000000
# 5 0.000000 0.000000 0.000000 0.000000 0.042451 0.000000
# 6 0.000000 0.000000 0.000000 0.000000 0.000000 0.051361
#
#
# Mechanical properties :
#
#
# Convention : Reuss Voigt Hill
#
# Bulk Modulus (GPa) = 19.63782 20.09038 19.86410
# Shear Modulus (GPa) = 16.06034 21.36388 18.71211
#
# Velocity S-wave (km/s) = 3.17997 3.66763 3.43247
# Velocity P-wave (km/s) = 5.08406 5.53037 5.31190
#
# Compressibility (1/GPa) = 0.05092215
#
# Stress axis : x y z
#
# Youngs Moduli (GPa) = 22.00359 22.00359 73.46688
#
# Poissons Ratio (x) = 0.58810 0.00237
# Poissons Ratio (y) = 0.58810 0.00237
# Poissons Ratio (z) = 0.00071 0.00071
#
# Static dielectric constant tensor:
#      x y z
#    x 1.557400 0.000000 0.000000 
#    y 0.000000 1.557400 0.000000 
#    z 0.000000 0.000000 1.688720 
# 
# From -- ./inp_files/1864.got.cif
#   From: 2010.05.17/outbox.cif.g08.bks.cpg/sg130_1_cif.got.tgz:1864.got - 2010.05.20 12:17:35.
