data_PCOD9565379
_publ_section_title
;
Structure prediction by ZEFSAII (Michael W. Deem and Ramdas Pophale) SiO2 
 PCOD9565379
Probable space group: P 4/N M M
;
_chemical_formula_sum "Si O2"
_cell_formula_units_Z 112
_cell_length_a 13.732216
_cell_length_b 13.732216
_cell_length_c 36.928144
_cell_angle_alpha 90.000000
_cell_angle_beta 90.000000
_cell_angle_gamma 90.000000
_cell_volume 6963.678826
_symmetry_space_group_name_H-M "P 4/N M M"
_symmetry_group_IT_number 129
_symmetry_cell_setting 'tetragonal'
loop_
_space_group_symop_operation_xyz
x,y,z
1/2-y,x,z
1/2-x,1/2-y,z
y,1/2-x,z
1/2+x,-y,-z
-x,1/2+y,-z
1/2+y,1/2+x,-z
-y,-x,-z
-x,-y,-z
1/2+y,-x,-z
1/2+x,1/2+y,-z
-y,1/2+x,-z
1/2-x,y,z
x,1/2-y,z
1/2-y,1/2-x,z
y,x,z
loop_
_atom_site_type_symbol
_atom_site_label
_atom_site_fract_x
_atom_site_fract_y
_atom_site_fract_z
Si Si1 0.026017 0.863821 0.530462
Si Si2 0.633215 0.473080 0.032581
Si Si3 0.473313 0.633479 0.180143
Si Si4 0.132203 0.861280 0.893548
Si Si5 0.359770 0.868030 0.683210
Si Si6 0.024911 0.633589 0.755708
Si Si7 0.524870 0.134814 0.387551
O O1 0.004838 0.750000 0.526693
O O2 0.929446 0.929446 0.526464
O O3 0.063502 0.880520 0.571589
O O4 0.100389 0.899612 0.500000
O O5 0.750000 0.484922 0.030960
O O6 0.574472 0.574472 0.030417
O O7 0.606187 0.419886 0.070266
O O8 0.594624 0.405377 0.000000
O O9 0.485984 0.750000 0.181193
O O10 0.574334 0.574334 0.182164
O O11 0.418920 0.605504 0.142782
O O12 0.406332 0.596601 0.213171
O O13 0.250000 0.856119 0.893426
O O14 0.095360 0.750000 0.893774
O O15 0.250000 0.904553 0.688321
O O16 0.355596 0.750000 0.682860
O O17 0.428203 0.893323 0.716899
O O18 0.403808 0.897404 0.644547
O O19 0.014981 0.750000 0.757908
O O20 0.923447 0.576554 0.759811
O O21 0.506733 0.250000 0.383366
O O22 0.425969 0.074032 0.384354
#
# Coordination Sequence:
#
# PCOD9565379 Si02
#       7
#    16  16  16  16  16  16  16
#     4   9  18  31  46  66  92 121 155 195 237 283
#     4  10  20  33  50  73 100 131 168 208 251 299
#     4  10  20  33  50  73 100 131 168 207 247 291
#     4   9  17  30  49  71  95 125 161 201 244 289
#     4   9  17  29  45  65  90 120 153 188 226 271
#     4  10  20  33  50  72  97 126 161 201 245 293
#     4   9  17  29  45  66  92 120 150 186 230 280
#
# _framework density 16.083452999999999
#
# number of rings (size 3 to 8) (size 9 to 14) (size 15 to 20)
#    0.000    2.571    0.000    2.143    0.000    3.571 
#    0.000    2.857    0.000    5.143    0.000    0.000 
#    0.000   12.857    0.000    0.571    0.000    0.143 
#
# Total GULP energy -624010.970212 kJ/mol
# GULP energy per Si atom -5571.526520 kJ/mol
# Density = 1.604685 g / cm^3
# Si number density = 16.083453 Si / 1000 Ang^3
#
#
#
# Elastic Constant Matrix: (Units=GPa)
#
#
# Indices 1 2 3 4 5 6 
#
# 1 85.5473 45.5555 49.2367 0.0000 0.0000 0.0000
# 2 45.5555 85.5474 49.2368 0.0000 0.0000 0.0000
# 3 49.2367 49.2368 129.0820 0.0000 0.0000 0.0000
# 4 0.0000 0.0000 0.0000 25.2219 0.0000 0.0000
# 5 0.0000 0.0000 0.0000 0.0000 25.2219 0.0000
# 6 0.0000 0.0000 0.0000 0.0000 0.0000 8.6953
#
#
#
# Elastic Compliance Matrix: (Units=1/GPa)
#
#
# Indices 1 2 3 4 5 6 
#
# 1 0.017848 -0.007157 -0.004078 0.000000 0.000000 0.000000
# 2 -0.007157 0.017848 -0.004078 0.000000 0.000000 0.000000
# 3 -0.004078 -0.004078 0.010858 0.000000 0.000000 0.000000
# 4 0.000000 0.000000 0.000000 0.039648 0.000000 0.000000
# 5 0.000000 0.000000 0.000000 0.000000 0.039648 0.000000
# 6 0.000000 0.000000 0.000000 0.000000 0.000000 0.115004
#
#
# Mechanical properties :
#
#
# Convention : Reuss Voigt Hill
#
# Bulk Modulus (GPa) = 62.78342 65.35939 64.07140
# Shear Modulus (GPa) = 18.06432 22.23768 20.15100
#
# Velocity S-wave (km/s) = 3.35500 3.72243 3.54348
# Velocity P-wave (km/s) = 7.35723 7.69423 7.52761
#
# Compressibility (1/GPa) = 0.01592777
#
# Stress axis : x y z
#
# Youngs Moduli (GPa) = 56.02942 56.02939 92.09948
#
# Poissons Ratio (x) = 0.40102 0.37556
# Poissons Ratio (y) = 0.40102 0.37556
# Poissons Ratio (z) = 0.22847 0.22847
#
# Static dielectric constant tensor:
#      x y z
#    x 1.519820 0.000000 0.000000 
#    y 0.000000 1.519820 0.000000 
#    z 0.000000 0.000000 1.551910 
# 
# From -- ./inp_files/7568.got.cif
#   From: 2010.05.17/outbox.cif.g08.bks.cpg/sg129_4_cif.got.tgz:7568.got - 2010.05.20 12:12:06.
