data_PCOD9565264
_publ_section_title
;
Structure prediction by ZEFSAII (Michael W. Deem and Ramdas Pophale) SiO2 
 PCOD9565264
Probable space group: P 4/N M M
;
_chemical_formula_sum "Si O2"
_cell_formula_units_Z 48
_cell_length_a 18.928856
_cell_length_b 18.928856
_cell_length_c 7.605806
_cell_angle_alpha 90.000000
_cell_angle_beta 90.000000
_cell_angle_gamma 90.000000
_cell_volume 2725.172379
_symmetry_space_group_name_H-M "P 4/N M M"
_symmetry_group_IT_number 129
_symmetry_cell_setting 'tetragonal'
loop_
_space_group_symop_operation_xyz
x,y,z
1/2-y,x,z
1/2-x,1/2-y,z
y,1/2-x,z
1/2+x,-y,-z
-x,1/2+y,-z
1/2+y,1/2+x,-z
-y,-x,-z
-x,-y,-z
1/2+y,-x,-z
1/2+x,1/2+y,-z
-y,1/2+x,-z
1/2-x,y,z
x,1/2-y,z
1/2-y,1/2-x,z
y,x,z
loop_
_atom_site_type_symbol
_atom_site_label
_atom_site_fract_x
_atom_site_fract_y
_atom_site_fract_z
Si Si1 0.169013 0.055904 0.983648
Si Si2 0.591119 0.474028 0.724770
Si Si3 0.331561 0.976539 0.630127
O O1 0.250000 0.057894 0.038527
O O2 0.127911 0.127911 0.018990
O O3 0.165982 0.037086 0.777751
O O4 0.127895 0.996352 0.094947
O O5 0.516683 0.516683 0.714758
O O6 0.578619 0.390821 0.698467
O O7 0.639737 0.498419 0.561174
O O8 0.250000 0.951858 0.620099
#
# Coordination Sequence:
#
# PCOD9565264 Si02
#       3
#    16  16  16
#     4  10  20  33  51  75 102 132 166 205 249 297
#     4  10  19  33  53  74  98 132 173 211 246 293
#     4  10  19  31  50  75 100 126 161 208 256 296
#
# _framework density 17.613565000000001
#
# number of rings (size 3 to 8) (size 9 to 14) (size 15 to 20)
#    0.000    2.000    0.000    6.000    0.000    3.000 
#    0.000    0.000    0.000   17.000    0.000   28.000 
#    0.000    0.000    0.000    0.000    0.000    0.000 
#
# Total GULP energy -267522.549899 kJ/mol
# GULP energy per Si atom -5573.386456 kJ/mol
# Density = 1.757348 g / cm^3
# Si number density = 17.613565 Si / 1000 Ang^3
#
#
#
# Elastic Constant Matrix: (Units=GPa)
#
#
# Indices 1 2 3 4 5 6 
#
# 1 84.9226 45.0875 8.7689 0.0000 0.0000 0.0000
# 2 45.0875 84.9226 8.7689 0.0000 0.0000 0.0000
# 3 8.7689 8.7689 57.2466 0.0000 0.0000 0.0000
# 4 0.0000 0.0000 0.0000 22.3721 0.0000 0.0000
# 5 0.0000 0.0000 0.0000 0.0000 22.3721 0.0000
# 6 0.0000 0.0000 0.0000 0.0000 0.0000 12.1741
#
#
#
# Elastic Compliance Matrix: (Units=1/GPa)
#
#
# Indices 1 2 3 4 5 6 
#
# 1 0.016479 -0.008625 -0.001203 0.000000 0.000000 0.000000
# 2 -0.008625 0.016479 -0.001203 0.000000 0.000000 0.000000
# 3 -0.001203 -0.001203 0.017837 0.000000 0.000000 0.000000
# 4 0.000000 0.000000 0.000000 0.044699 0.000000 0.000000
# 5 0.000000 0.000000 0.000000 0.000000 0.044699 0.000000
# 6 0.000000 0.000000 0.000000 0.000000 0.000000 0.082141
#
#
# Mechanical properties :
#
#
# Convention : Reuss Voigt Hill
#
# Bulk Modulus (GPa) = 34.80368 39.14917 36.97643
# Shear Modulus (GPa) = 19.68719 22.34808 21.01764
#
# Velocity S-wave (km/s) = 3.34687 3.56589 3.45811
# Velocity P-wave (km/s) = 5.89389 6.26331 6.08140
#
# Compressibility (1/GPa) = 0.02873259
#
# Stress axis : x y z
#
# Youngs Moduli (GPa) = 60.68420 60.68420 56.06375
#
# Poissons Ratio (x) = 0.52339 0.06745
# Poissons Ratio (y) = 0.52339 0.06745
# Poissons Ratio (z) = 0.07301 0.07301
#
# Static dielectric constant tensor:
#      x y z
#    x 1.591210 0.000000 0.000000 
#    y 0.000000 1.591210 0.000000 
#    z 0.000000 0.000000 1.627680 
# 
# From -- ./inp_files/1543.got.cif
#   From: 2010.05.17/outbox.cif.g08.bks.cpg/sg129_1_cif.got.tgz:1543.got - 2010.05.20 12:12:06.
