data_PCOD9565716
_publ_section_title
;
Structure prediction by ZEFSAII (Michael W. Deem and Ramdas Pophale) SiO2 
 PCOD9565716
Probable space group: P 4/N C C
;
_chemical_formula_sum "Si O2"
_cell_formula_units_Z 96
_cell_length_a 18.813525
_cell_length_b 18.813525
_cell_length_c 10.957255
_cell_angle_alpha 90.000000
_cell_angle_beta 90.000000
_cell_angle_gamma 90.000000
_cell_volume 3878.306414
_symmetry_space_group_name_H-M "P 4/N C C"
_symmetry_group_IT_number 130
_symmetry_cell_setting 'tetragonal'
loop_
_space_group_symop_operation_xyz
x,y,z
1/2-y,x,z
1/2-x,1/2-y,z
y,1/2-x,z
1/2+x,-y,1/2-z
-x,1/2+y,1/2-z
1/2+y,1/2+x,1/2-z
-y,-x,1/2-z
-x,-y,-z
1/2+y,-x,-z
1/2+x,1/2+y,-z
-y,1/2+x,-z
1/2-x,y,1/2+z
x,1/2-y,1/2+z
1/2-y,1/2-x,1/2+z
y,x,1/2+z
loop_
_atom_site_type_symbol
_atom_site_label
_atom_site_fract_x
_atom_site_fract_y
_atom_site_fract_z
Si Si1 0.828229 0.023596 0.642971
Si Si2 0.969746 0.599711 0.884226
Si Si3 0.394783 0.968995 0.112490
Si Si4 0.679492 0.156225 0.004318
Si Si5 0.675294 0.657263 0.990861
Si Si6 0.332700 0.471870 0.863389
O O1 0.863406 0.999181 0.514906
O O2 0.826718 0.108139 0.624293
O O3 0.869555 0.004905 0.764354
O O4 0.749601 0.991947 0.640795
O O5 0.968050 0.514390 0.882823
O O6 0.891340 0.635852 0.891496
O O7 0.001346 0.629899 0.011835
O O8 0.364621 0.996455 0.241252
O O9 0.364584 0.888632 0.096712
O O10 0.656082 0.236542 0.025071
O O11 0.760991 0.654101 0.981238
O O12 0.658909 0.613142 0.115284
#
# Coordination Sequence:
#
# PCOD9565716 Si02
#       6
#    16  16  16  16  16  16
#     4  10  21  37  69 109 142 203 247 315 393 455
#     4  10  21  35  64 106 155 192 254 307 382 473
#     4  10  21  37  69 107 141 201 244 314 388 460
#     4   9  22  48  80 114 146 194 270 334 389 465
#     4   9  20  36  56  94 150 209 262 311 370 457
#     4  10  21  35  62  97 151 197 245 316 384 462
#
# _framework density 24.753072
#
# number of rings (size 3 to 8) (size 9 to 14) (size 15 to 20)
#    2.000    0.333    0.000    3.000    4.667    0.000 
#    0.000    1.667    0.000    3.000   13.000    2.333 
#    0.000    0.000    0.000    0.000    0.000    0.000 
#
# Total GULP energy -535551.004815 kJ/mol
# GULP energy per Si atom -5578.656300 kJ/mol
# Density = 2.469673 g / cm^3
# Si number density = 24.753072 Si / 1000 Ang^3
#
#
#
# Elastic Constant Matrix: (Units=GPa)
#
#
# Indices 1 2 3 4 5 6 
#
# 1 143.0884 49.4478 65.2182 0.0000 0.0000 0.0000
# 2 49.4478 143.0884 65.2182 0.0000 0.0000 0.0000
# 3 65.2182 65.2182 149.6391 0.0000 0.0000 0.0000
# 4 0.0000 0.0000 0.0000 36.0245 0.0000 0.0000
# 5 0.0000 0.0000 0.0000 0.0000 36.0245 0.0000
# 6 0.0000 0.0000 0.0000 0.0000 0.0000 12.9136
#
#
#
# Elastic Compliance Matrix: (Units=1/GPa)
#
#
# Indices 1 2 3 4 5 6 
#
# 1 0.009025 -0.001655 -0.003212 0.000000 0.000000 0.000000
# 2 -0.001655 0.009025 -0.003212 0.000000 0.000000 0.000000
# 3 -0.003212 -0.003212 0.009483 0.000000 0.000000 0.000000
# 4 0.000000 0.000000 0.000000 0.027759 0.000000 0.000000
# 5 0.000000 0.000000 0.000000 0.000000 0.027759 0.000000
# 6 0.000000 0.000000 0.000000 0.000000 0.000000 0.077438
#
#
# Mechanical properties :
#
#
# Convention : Reuss Voigt Hill
#
# Bulk Modulus (GPa) = 87.91885 88.39827 88.15856
# Shear Modulus (GPa) = 27.71060 34.05461 30.88261
#
# Velocity S-wave (km/s) = 3.34950 3.71317 3.53601
# Velocity P-wave (km/s) = 7.11015 7.36023 7.23627
#
# Compressibility (1/GPa) = 0.01137413
#
# Stress axis : x y z
#
# Youngs Moduli (GPa) = 110.80930 110.80930 105.45606
#
# Poissons Ratio (x) = 0.18335 0.33873
# Poissons Ratio (y) = 0.18335 0.33873
# Poissons Ratio (z) = 0.35593 0.35593
#
# Static dielectric constant tensor:
#      x y z
#    x 2.035210 0.000000 0.000000 
#    y 0.000000 2.035210 0.000000 
#    z 0.000000 0.000000 1.926220 
# 
# From -- ./inp_files/1762.got.cif
#   From: 2010.05.17/outbox.cif.g08.bks.cpg/sg130_1_cif.got.tgz:1762.got - 2010.05.20 12:17:35.
