data_PCOD9565609
_publ_section_title
;
Structure prediction by ZEFSAII (Michael W. Deem and Ramdas Pophale) SiO2 
 PCOD9565609
Probable space group: P 4/N C C
;
_chemical_formula_sum "Si O2"
_cell_formula_units_Z 104
_cell_length_a 16.953242
_cell_length_b 16.953242
_cell_length_c 17.373791
_cell_angle_alpha 90.000000
_cell_angle_beta 90.000000
_cell_angle_gamma 90.000000
_cell_volume 4993.443217
_symmetry_space_group_name_H-M "P 4/N C C"
_symmetry_group_IT_number 130
_symmetry_cell_setting 'tetragonal'
loop_
_space_group_symop_operation_xyz
x,y,z
1/2-y,x,z
1/2-x,1/2-y,z
y,1/2-x,z
1/2+x,-y,1/2-z
-x,1/2+y,1/2-z
1/2+y,1/2+x,1/2-z
-y,-x,1/2-z
-x,-y,-z
1/2+y,-x,-z
1/2+x,1/2+y,-z
-y,1/2+x,-z
1/2-x,y,1/2+z
x,1/2-y,1/2+z
1/2-y,1/2-x,1/2+z
y,x,1/2+z
loop_
_atom_site_type_symbol
_atom_site_label
_atom_site_fract_x
_atom_site_fract_y
_atom_site_fract_z
Si Si1 0.524653 0.780281 0.041131
Si Si2 0.250000 0.750000 0.500000
Si Si3 0.360474 0.088890 0.306733
Si Si4 0.471704 0.852636 0.652321
Si Si5 0.777353 0.876702 0.891095
Si Si6 0.519380 0.242141 0.709120
Si Si7 0.394293 0.686867 0.417470
Si Si8 0.250000 0.250000 0.797871
O O1 0.551400 0.833257 0.112093
O O2 0.503555 0.695889 0.078282
O O3 0.594379 0.777333 0.978713
O O4 0.451081 0.810643 0.991243
O O5 0.306105 0.697059 0.447382
O O6 0.453419 0.102656 0.312748
O O7 0.334071 0.025586 0.242095
O O8 0.311569 0.171852 0.299138
O O9 0.448455 0.788945 0.717471
O O10 0.395559 0.901457 0.627533
O O11 0.692032 0.838992 0.877060
O O12 0.789538 0.948940 0.834026
O O13 0.583133 0.241829 0.640900
#
# Coordination Sequence:
#
# PCOD9565609 Si02
#       8
#    16   4  16  16  16  16  16   4
#     4  10  21  37  58  96 132 168 225 281 331 407
#     4  12  24  48  82  92 112 180 242 304 352 388
#     4  11  22  36  67  97 141 180 222 263 344 428
#     4  11  21  40  67  94 133 179 220 281 347 406
#     4  10  20  30  53  89 134 175 219 265 320 396
#     4  10  22  39  60  95 131 171 219 276 332 418
#     4  11  24  44  72  92 127 171 234 300 350 390
#     4  12  20  32  68  98 136 188 228 258 328 420
#
# _framework density 20.827311000000002
#
# number of rings (size 3 to 8) (size 9 to 14) (size 15 to 20)
#    0.000    1.385    4.615    2.308    0.000    0.615 
#    0.000    1.538    6.769    0.000    0.000    0.000 
#    0.000    0.000    0.000    0.000    0.000    0.000 
#
# Total GULP energy -579596.812116 kJ/mol
# GULP energy per Si atom -5573.046270 kJ/mol
# Density = 2.077991 g / cm^3
# Si number density = 20.827311 Si / 1000 Ang^3
#
#
#
# Elastic Constant Matrix: (Units=GPa)
#
#
# Indices 1 2 3 4 5 6 
#
# 1 68.4330 9.8394 17.2839 0.0000 0.0000 0.0000
# 2 9.8394 68.4330 17.2839 0.0000 0.0000 0.0000
# 3 17.2839 17.2839 99.0681 0.0000 0.0000 0.0000
# 4 0.0000 0.0000 0.0000 21.1064 0.0000 0.0000
# 5 0.0000 0.0000 0.0000 0.0000 21.1064 0.0000
# 6 0.0000 0.0000 0.0000 0.0000 0.0000 34.2743
#
#
#
# Elastic Compliance Matrix: (Units=1/GPa)
#
#
# Indices 1 2 3 4 5 6 
#
# 1 0.015455 -0.001612 -0.002415 0.000000 0.000000 0.000000
# 2 -0.001612 0.015455 -0.002415 0.000000 0.000000 0.000000
# 3 -0.002415 -0.002415 0.010937 0.000000 0.000000 0.000000
# 4 0.000000 0.000000 0.000000 0.047379 0.000000 0.000000
# 5 0.000000 0.000000 0.000000 0.000000 0.047379 0.000000
# 6 0.000000 0.000000 0.000000 0.000000 0.000000 0.029176
#
#
# Mechanical properties :
#
#
# Convention : Reuss Voigt Hill
#
# Bulk Modulus (GPa) = 34.52849 36.08313 35.30581
# Shear Modulus (GPa) = 26.55075 28.06587 27.30831
#
# Velocity S-wave (km/s) = 3.57431 3.67488 3.62495
# Velocity P-wave (km/s) = 5.80075 5.94717 5.87442
#
# Compressibility (1/GPa) = 0.02896159
#
# Stress axis : x y z
#
# Youngs Moduli (GPa) = 64.70573 64.70573 91.43495
#
# Poissons Ratio (x) = 0.10431 0.22082
# Poissons Ratio (y) = 0.10431 0.22082
# Poissons Ratio (z) = 0.15627 0.15627
#
# Static dielectric constant tensor:
#      x y z
#    x 1.759950 0.000000 0.000000 
#    y 0.000000 1.759950 0.000000 
#    z 0.000000 0.000000 1.761040 
# 
# From -- ./inp_files/3175.got.cif
#   From: 2010.05.17/outbox.cif.g08.bks.cpg/sg130_2_cif.got.tgz:3175.got - 2010.05.20 12:17:35.
