data_PCOD9565587
_publ_section_title
;
Structure prediction by ZEFSAII (Michael W. Deem and Ramdas Pophale) SiO2 
 PCOD9565587
Probable space group: P 4/N C C
;
_chemical_formula_sum "Si O2"
_cell_formula_units_Z 96
_cell_length_a 23.934862
_cell_length_b 23.934862
_cell_length_c 9.833640
_cell_angle_alpha 90.000000
_cell_angle_beta 90.000000
_cell_angle_gamma 90.000000
_cell_volume 5633.472269
_symmetry_space_group_name_H-M "P 4/N C C"
_symmetry_group_IT_number 130
_symmetry_cell_setting 'tetragonal'
loop_
_space_group_symop_operation_xyz
x,y,z
1/2-y,x,z
1/2-x,1/2-y,z
y,1/2-x,z
1/2+x,-y,1/2-z
-x,1/2+y,1/2-z
1/2+y,1/2+x,1/2-z
-y,-x,1/2-z
-x,-y,-z
1/2+y,-x,-z
1/2+x,1/2+y,-z
-y,1/2+x,-z
1/2-x,y,1/2+z
x,1/2-y,1/2+z
1/2-y,1/2-x,1/2+z
y,x,1/2+z
loop_
_atom_site_type_symbol
_atom_site_label
_atom_site_fract_x
_atom_site_fract_y
_atom_site_fract_z
Si Si1 0.130383 0.194576 0.014638
Si Si2 0.703033 0.631157 0.798618
Si Si3 0.004873 0.801280 0.988198
Si Si4 0.428928 0.506908 0.132416
Si Si5 0.025665 0.576005 0.380398
Si Si6 0.200500 0.999339 0.202538
O O1 0.152529 0.245291 0.109710
O O2 0.150539 0.142001 0.102938
O O3 0.063190 0.196832 0.009570
O O4 0.151676 0.196267 0.857740
O O5 0.712553 0.565321 0.784565
O O6 0.023817 0.859904 0.924249
O O7 0.022815 0.747938 0.899038
O O8 0.024165 0.796652 0.144569
O O9 0.454865 0.545136 0.250000
O O10 0.462751 0.448356 0.142170
O O11 0.362654 0.504377 0.148126
O O12 0.447276 0.537169 0.995415
O O13 0.062750 0.562750 0.250000
#
# Coordination Sequence:
#
# PCOD9565587 Si02
#       6
#    16  16  16  16  16  16
#     4  10  20  34  50  68  93 126 168 214 259 304
#     4  10  20  34  49  69  92 126 168 213 259 305
#     4  10  21  36  51  76 106 139 176 212 260 319
#     4  10  19  36  55  79 111 146 179 223 273 317
#     4  10  21  34  55  83 110 142 184 223 267 323
#     4  10  21  35  53  74 106 141 174 213 261 317
#
# _framework density 17.041
#
# number of rings (size 3 to 8) (size 9 to 14) (size 15 to 20)
#    0.000    2.000    1.667    2.000    2.333    1.667 
#    0.000    1.667    0.000    0.000    0.000    0.000 
#    0.000    4.000    0.000    0.000    0.000    0.000 
#
# Total GULP energy -534851.597739 kJ/mol
# GULP energy per Si atom -5571.370810 kJ/mol
# Density = 1.700221 g / cm^3
# Si number density = 17.041000 Si / 1000 Ang^3
#
#
#
# Elastic Constant Matrix: (Units=GPa)
#
#
# Indices 1 2 3 4 5 6 
#
# 1 72.2222 -7.1805 28.2390 0.0000 0.0000 0.0000
# 2 -7.1805 72.2206 28.2372 0.0000 0.0000 0.0000
# 3 28.2390 28.2372 138.2973 0.0000 0.0000 0.0000
# 4 0.0000 0.0000 0.0000 19.0964 0.0000 0.0000
# 5 0.0000 0.0000 0.0000 0.0000 19.0962 0.0000
# 6 0.0000 0.0000 0.0000 0.0000 0.0000 18.6661
#
#
#
# Elastic Compliance Matrix: (Units=1/GPa)
#
#
# Indices 1 2 3 4 5 6 
#
# 1 0.015641 0.003047 -0.003816 0.000000 0.000000 0.000000
# 2 0.003047 0.015641 -0.003816 0.000000 0.000000 0.000000
# 3 -0.003816 -0.003816 0.008789 0.000000 0.000000 0.000000
# 4 0.000000 0.000000 0.000000 0.052366 0.000000 0.000000
# 5 0.000000 0.000000 0.000000 0.000000 0.052366 0.000000
# 6 0.000000 0.000000 0.000000 0.000000 0.000000 0.053573
#
#
# Mechanical properties :
#
#
# Convention : Reuss Voigt Hill
#
# Bulk Modulus (GPa) = 32.36007 42.37017 37.36512
# Shear Modulus (GPa) = 22.95189 26.93470 24.94330
#
# Velocity S-wave (km/s) = 3.67394 3.97997 3.83001
# Velocity P-wave (km/s) = 6.08506 6.78512 6.44460
#
# Compressibility (1/GPa) = 0.03090228
#
# Stress axis : x y z
#
# Youngs Moduli (GPa) = 63.93400 63.93315 113.77760
#
# Poissons Ratio (x) = -0.19481 0.43417
# Poissons Ratio (y) = -0.19481 0.43415
# Poissons Ratio (z) = 0.24397 0.24396
#
# Static dielectric constant tensor:
#      x y z
#    x 1.586550 0.000000 0.000000 
#    y 0.000000 1.586550 0.000000 
#    z 0.000000 0.000000 1.582900 
# 
# From -- ./inp_files/906.got.cif
#   From: 2010.05.17/outbox.cif.g08.bks.cpg/sg130_1_cif.got.tgz:906.got - 2010.05.20 12:17:35.
