data_PCOD9565213
_publ_section_title
;
Structure prediction by ZEFSAII (Michael W. Deem and Ramdas Pophale) SiO2 
 PCOD9565213
Probable space group: P 4/N M M
;
_chemical_formula_sum "Si O2"
_cell_formula_units_Z 88
_cell_length_a 14.065037
_cell_length_b 14.065037
_cell_length_c 28.558128
_cell_angle_alpha 90.000000
_cell_angle_beta 90.000000
_cell_angle_gamma 90.000000
_cell_volume 5649.519263
_symmetry_space_group_name_H-M "P 4/N M M"
_symmetry_group_IT_number 129
_symmetry_cell_setting 'tetragonal'
loop_
_space_group_symop_operation_xyz
x,y,z
1/2-y,x,z
1/2-x,1/2-y,z
y,1/2-x,z
1/2+x,-y,-z
-x,1/2+y,-z
1/2+y,1/2+x,-z
-y,-x,-z
-x,-y,-z
1/2+y,-x,-z
1/2+x,1/2+y,-z
-y,1/2+x,-z
1/2-x,y,z
x,1/2-y,z
1/2-y,1/2-x,z
y,x,z
loop_
_atom_site_type_symbol
_atom_site_label
_atom_site_fract_x
_atom_site_fract_y
_atom_site_fract_z
Si Si1 0.518838 0.363161 0.274328
Si Si2 0.518953 0.136568 0.093252
Si Si3 0.861575 0.361575 0.000000
Si Si4 0.865401 0.141585 0.816101
Si Si5 0.136818 0.520476 0.538397
Si Si6 0.861237 0.360488 0.367639
O O1 0.502042 0.250000 0.270810
O O2 0.422682 0.422682 0.273036
O O3 0.584921 0.392593 0.230612
O O4 0.574067 0.381115 0.322852
O O5 0.503019 0.250000 0.096093
O O6 0.574756 0.116822 0.045036
O O7 0.584381 0.107680 0.137307
O O8 0.422389 0.077612 0.094640
O O9 0.874261 0.250000 0.988017
O O10 0.750000 0.145624 0.816051
O O11 0.900306 0.250000 0.816279
O O12 0.090820 0.590820 0.500000
O O13 0.250000 0.508693 0.531166
O O14 0.121851 0.570272 0.588826
O O15 0.077523 0.422478 0.536146
O O16 0.750000 0.367959 0.354164
O O17 0.877477 0.250000 0.381729
#
# Coordination Sequence:
#
# PCOD9565213 Si02
#       6
#    16  16   8  16  16  16
#     4  10  19  30  45  66  94 125 154 185 222 268
#     4  10  19  30  45  66  93 122 150 181 219 268
#     4   9  17  30  48  68  89 115 150 194 236 263
#     4   9  17  30  47  65  85 111 146 188 229 263
#     4  10  20  33  50  72  97 125 158 196 238 285
#     4   9  17  30  49  71  93 119 154 196 237 273
#
# _framework density 15.576547
#
# number of rings (size 3 to 8) (size 9 to 14) (size 15 to 20)
#    0.000    2.455    0.000    3.000    0.000    5.818 
#    0.000    0.000    0.000    3.273    0.000    2.545 
#    0.000   27.636    0.000    0.000    0.000    0.000 
#
# Total GULP energy -490594.724766 kJ/mol
# GULP energy per Si atom -5574.940054 kJ/mol
# Density = 1.554109 g / cm^3
# Si number density = 15.576547 Si / 1000 Ang^3
#
#
#
# Elastic Constant Matrix: (Units=GPa)
#
#
# Indices 1 2 3 4 5 6 
#
# 1 86.1993 63.7930 64.8209 0.0000 0.0000 0.0000
# 2 63.7930 86.1993 64.8209 0.0000 0.0000 0.0000
# 3 64.8209 64.8209 112.7280 0.0000 0.0000 0.0000
# 4 0.0000 0.0000 0.0000 14.1995 0.0000 0.0000
# 5 0.0000 0.0000 0.0000 0.0000 14.1995 0.0000
# 6 0.0000 0.0000 0.0000 0.0000 0.0000 23.0932
#
#
#
# Elastic Compliance Matrix: (Units=1/GPa)
#
#
# Indices 1 2 3 4 5 6 
#
# 1 0.028942 -0.015688 -0.007622 0.000000 0.000000 0.000000
# 2 -0.015688 0.028942 -0.007622 0.000000 0.000000 0.000000
# 3 -0.007622 -0.007622 0.017636 0.000000 0.000000 0.000000
# 4 0.000000 0.000000 0.000000 0.070425 0.000000 0.000000
# 5 0.000000 0.000000 0.000000 0.000000 0.070425 0.000000
# 6 0.000000 0.000000 0.000000 0.000000 0.000000 0.043303
#
#
# Mechanical properties :
#
#
# Convention : Reuss Voigt Hill
#
# Bulk Modulus (GPa) = 73.21362 74.66628 73.93995
# Shear Modulus (GPa) = 15.33321 16.41121 15.87221
#
# Velocity S-wave (km/s) = 3.14088 3.24942 3.19561
# Velocity P-wave (km/s) = 7.76261 7.88146 7.82226
#
# Compressibility (1/GPa) = 0.01365866
#
# Stress axis : x y z
#
# Youngs Moduli (GPa) = 34.55133 34.55133 56.70175
#
# Poissons Ratio (x) = 0.54204 0.43216
# Poissons Ratio (y) = 0.54204 0.43216
# Poissons Ratio (z) = 0.26334 0.26334
#
# Static dielectric constant tensor:
#      x y z
#    x 1.501280 0.000000 0.000000 
#    y 0.000000 1.501280 0.000000 
#    z 0.000000 0.000000 1.512850 
# 
# From -- ./inp_files/6945.got.cif
#   From: 2010.05.17/outbox.cif.g08.bks.cpg/sg129_4_cif.got.tgz:6945.got - 2010.05.20 12:12:06.
