data_PCOD9565563
_publ_section_title
;
Structure prediction by ZEFSAII (Michael W. Deem and Ramdas Pophale) SiO2 
 PCOD9565563
Probable space group: P 4/N C C
;
_chemical_formula_sum "Si O2"
_cell_formula_units_Z 72
_cell_length_a 18.385670
_cell_length_b 18.385670
_cell_length_c 9.701888
_cell_angle_alpha 90.000000
_cell_angle_beta 90.000000
_cell_angle_gamma 90.000000
_cell_volume 3279.556961
_symmetry_space_group_name_H-M "P 4/N C C"
_symmetry_group_IT_number 130
_symmetry_cell_setting 'tetragonal'
loop_
_space_group_symop_operation_xyz
x,y,z
1/2-y,x,z
1/2-x,1/2-y,z
y,1/2-x,z
1/2+x,-y,1/2-z
-x,1/2+y,1/2-z
1/2+y,1/2+x,1/2-z
-y,-x,1/2-z
-x,-y,-z
1/2+y,-x,-z
1/2+x,1/2+y,-z
-y,1/2+x,-z
1/2-x,y,1/2+z
x,1/2-y,1/2+z
1/2-y,1/2-x,1/2+z
y,x,1/2+z
loop_
_atom_site_type_symbol
_atom_site_label
_atom_site_fract_x
_atom_site_fract_y
_atom_site_fract_z
Si Si1 0.723444 0.356626 0.992872
Si Si2 0.952807 0.664252 0.775122
Si Si3 0.886570 0.113431 0.750000
Si Si4 0.008216 0.281379 0.493971
Si Si5 0.007899 0.435744 0.616867
O O1 0.665744 0.369557 0.874265
O O2 0.742688 0.433661 0.060435
O O3 0.793851 0.318185 0.924480
O O4 0.961659 0.725995 0.890719
O O5 0.934539 0.701924 0.628797
O O6 0.918212 0.592128 0.840961
O O7 0.029408 0.628257 0.729361
O O8 0.983052 0.357189 0.562998
O O9 0.963718 0.463718 0.750000
O O10 0.000000 0.500000 0.500000
#
# Coordination Sequence:
#
# PCOD9565563 Si02
#       5
#    16  16   8  16  16
#     4  10  21  35  54  84 134 178 221 263 328 406
#     4  11  23  43  67  94 139 171 240 295 354 420
#     4  10  18  39  54  84 126 182 220 273 316 408
#     4  11  25  41  66  99 129 185 233 293 357 426
#     4  12  25  45  71  97 138 191 243 300 356 425
#
# _framework density 21.954183
#
# number of rings (size 3 to 8) (size 9 to 14) (size 15 to 20)
#    0.000    1.111    5.556    0.000    6.222    1.778 
#    4.000    0.000    0.000    0.667    0.000    3.111 
#    0.000    0.000    0.000    0.000    0.000    0.000 
#
# Total GULP energy -401221.170741 kJ/mol
# GULP energy per Si atom -5572.516260 kJ/mol
# Density = 2.190421 g / cm^3
# Si number density = 21.954183 Si / 1000 Ang^3
#
#
#
# Elastic Constant Matrix: (Units=GPa)
#
#
# Indices 1 2 3 4 5 6 
#
# 1 74.5401 -7.6716 13.0703 0.0000 0.0000 0.0000
# 2 -7.6716 74.5391 13.0702 0.0000 0.0000 0.0000
# 3 13.0703 13.0702 78.3647 0.0000 0.0000 0.0000
# 4 0.0000 0.0000 0.0000 6.8496 0.0000 0.0000
# 5 0.0000 0.0000 0.0000 0.0000 6.8701 0.0000
# 6 0.0000 0.0000 0.0000 0.0000 0.0000 32.5439
#
#
#
# Elastic Compliance Matrix: (Units=1/GPa)
#
#
# Indices 1 2 3 4 5 6 
#
# 1 0.014081 0.001917 -0.002668 0.000000 0.000000 0.000000
# 2 0.001917 0.014081 -0.002668 0.000000 0.000000 0.000000
# 3 -0.002668 -0.002668 0.013651 0.000000 0.000000 0.000000
# 4 0.000000 0.000000 0.000000 0.145993 0.000000 0.000000
# 5 0.000000 0.000000 0.000000 0.000000 0.145558 0.000000
# 6 0.000000 0.000000 0.000000 0.000000 0.000000 0.030728
#
#
# Mechanical properties :
#
#
# Convention : Reuss Voigt Hill
#
# Bulk Modulus (GPa) = 28.59287 29.37574 28.98430
# Shear Modulus (GPa) = 13.06888 23.18441 18.12664
#
# Velocity S-wave (km/s) = 2.44248 3.25320 2.87654
# Velocity P-wave (km/s) = 4.58328 5.24600 4.92580
#
# Compressibility (1/GPa) = 0.03497376
#
# Stress axis : x y z
#
# Youngs Moduli (GPa) = 71.01887 71.01793 73.25521
#
# Poissons Ratio (x) = -0.13615 0.19546
# Poissons Ratio (y) = -0.13615 0.19546
# Poissons Ratio (z) = 0.18950 0.18949
#
# Static dielectric constant tensor:
#      x y z
#    x 1.951010 0.000000 0.000000 
#    y 0.000000 1.951040 0.000000 
#    z 0.000000 0.000000 1.955940 
# 
# From -- ./inp_files/1636.got.cif
#   From: 2010.05.17/outbox.cif.g08.bks.cpg/sg130_1_cif.got.tgz:1636.got - 2010.05.20 12:17:35.
