data_PCOD9565436
_publ_section_title
;
Structure prediction by ZEFSAII (Michael W. Deem and Ramdas Pophale) SiO2 
 PCOD9565436
Probable space group: P 4/N M M
;
_chemical_formula_sum "Si O2"
_cell_formula_units_Z 88
_cell_length_a 13.397465
_cell_length_b 13.397465
_cell_length_c 29.645901
_cell_angle_alpha 90.000000
_cell_angle_beta 90.000000
_cell_angle_gamma 90.000000
_cell_volume 5321.204091
_symmetry_space_group_name_H-M "P 4/N M M"
_symmetry_group_IT_number 129
_symmetry_cell_setting 'tetragonal'
loop_
_space_group_symop_operation_xyz
x,y,z
1/2-y,x,z
1/2-x,1/2-y,z
y,1/2-x,z
1/2+x,-y,-z
-x,1/2+y,-z
1/2+y,1/2+x,-z
-y,-x,-z
-x,-y,-z
1/2+y,-x,-z
1/2+x,1/2+y,-z
-y,1/2+x,-z
1/2-x,y,z
x,1/2-y,z
1/2-y,1/2-x,z
y,x,z
loop_
_atom_site_type_symbol
_atom_site_label
_atom_site_fract_x
_atom_site_fract_y
_atom_site_fract_z
Si Si1 0.132304 0.966811 0.283412
Si Si2 0.497060 0.002941 0.881153
Si Si3 0.533447 0.132095 0.630408
Si Si4 0.631651 0.868350 0.945302
Si Si5 0.631599 0.631599 0.049659
Si Si6 0.466366 0.868113 0.543559
Si Si7 0.632042 0.367455 0.185542
O O1 0.250000 0.984716 0.289302
O O2 0.090594 0.899169 0.323968
O O3 0.116865 0.912010 0.235620
O O4 0.068400 0.068400 0.283811
O O5 0.567990 0.932011 0.910712
O O6 0.426538 0.935896 0.849532
O O7 0.431449 0.068552 0.915259
O O8 0.518134 0.250000 0.628141
O O9 0.598014 0.093486 0.588060
O O10 0.430360 0.069640 0.629315
O O11 0.614216 0.750000 0.939129
O O12 0.607113 0.892887 0.997483
O O13 0.750000 0.614141 0.055700
O O14 0.404682 0.904682 0.500000
O O15 0.481544 0.750000 0.542796
O O16 0.569802 0.930199 0.543428
O O17 0.750000 0.388775 0.185204
O O18 0.618347 0.250000 0.174583
#
# Coordination Sequence:
#
# PCOD9565436 Si02
#       7
#    16   8  16   8   8  16  16
#     4  10  20  36  55  78 105 138 176 214 257 311
#     4  12  19  32  54  80 102 134 173 216 256 308
#     4  10  21  36  56  80 106 141 183 224 267 321
#     4   9  19  35  53  75 105 137 171 212 256 306
#     4   9  19  35  53  75 103 137 175 212 254 304
#     4  10  21  36  54  80 111 141 179 227 276 328
#     4  10  21  35  51  74 105 137 169 212 262 309
#
# _framework density 16.537610000000001
#
# number of rings (size 3 to 8) (size 9 to 14) (size 15 to 20)
#    0.000    2.000    0.909    3.545    0.000    3.636 
#    0.000    0.000    0.000    6.545    0.000    7.636 
#    0.000    0.000    0.000    0.000    0.000    0.000 
#
# Total GULP energy -491285.156469 kJ/mol
# GULP energy per Si atom -5582.785869 kJ/mol
# Density = 1.649997 g / cm^3
# Si number density = 16.537610 Si / 1000 Ang^3
#
#
#
# Elastic Constant Matrix: (Units=GPa)
#
#
# Indices 1 2 3 4 5 6 
#
# 1 117.0614 113.7639 82.2435 0.0000 0.0000 0.0000
# 2 113.7639 117.0614 82.2435 0.0000 0.0000 0.0000
# 3 82.2435 82.2435 129.5285 0.0000 0.0000 0.0000
# 4 0.0000 0.0000 0.0000 17.8778 0.0000 0.0000
# 5 0.0000 0.0000 0.0000 0.0000 17.8778 0.0000
# 6 0.0000 0.0000 0.0000 0.0000 0.0000 18.3074
#
#
#
# Elastic Compliance Matrix: (Units=1/GPa)
#
#
# Indices 1 2 3 4 5 6 
#
# 1 0.155584 -0.147671 -0.005024 0.000000 0.000000 0.000000
# 2 -0.147671 0.155584 -0.005024 0.000000 0.000000 0.000000
# 3 -0.005024 -0.005024 0.014100 0.000000 0.000000 0.000000
# 4 0.000000 0.000000 0.000000 0.055935 0.000000 0.000000
# 5 0.000000 0.000000 0.000000 0.000000 0.055935 0.000000
# 6 0.000000 0.000000 0.000000 0.000000 0.000000 0.054623
#
#
# Mechanical properties :
#
#
# Convention : Reuss Voigt Hill
#
# Bulk Modulus (GPa) = 101.73787 102.23923 101.98855
# Shear Modulus (GPa) = 6.16922 16.50597 11.33760
#
# Velocity S-wave (km/s) = 1.93352 3.16268 2.62117
# Velocity P-wave (km/s) = 8.16317 8.67716 8.42409
#
# Compressibility (1/GPa) = 0.00982918
#
# Stress axis : x y z
#
# Youngs Moduli (GPa) = 6.42742 6.42742 70.92152
#
# Poissons Ratio (x) = 0.94914 0.35630
# Poissons Ratio (y) = 0.94914 0.35630
# Poissons Ratio (z) = 0.03229 0.03229
#
# Static dielectric constant tensor:
#      x y z
#    x 1.527820 0.000000 0.000000 
#    y 0.000000 1.527820 0.000000 
#    z 0.000000 0.000000 1.541040 
# 
# From -- ./inp_files/7800.got.cif
#   From: 2010.05.17/outbox.cif.g08.bks.cpg/sg129_4_cif.got.tgz:7800.got - 2010.05.20 12:12:06.
